AV-unprocessed.smi:2302|AV-procd|sdf|9237|dock3
  -GOLD-   2272012453D 1   1.00000     0.00000
 Structure written by MMmdl.
 40 41  0  0  0  0  0  0  0  0  2 V2000
  145.7619  129.3234  152.0136 C   0  0  0  0  0  0  0  0  0  0  0  0
  145.7914  130.8109  151.7314 C   0  0  0  0  0  0  0  0  0  0  0  0
  144.8340  131.4062  150.8871 C   0  0  0  0  0  0  0  0  0  0  0  0
  144.9183  132.7919  150.6628 C   0  0  0  0  0  0  0  0  0  0  0  0
  145.9506  133.5197  151.2855 C   0  0  0  0  0  0  0  0  0  0  0  0
  146.8730  132.8453  152.1167 C   0  0  0  0  0  0  0  0  0  0  0  0
  147.8764  133.6674  152.6958 N   0  0  0  0  0  0  0  0  0  0  0  0
  148.6129  133.4279  153.7949 C   0  0  0  0  0  0  0  0  0  0  0  0
  148.5322  132.4241  154.5039 O   0  0  0  0  0  0  0  0  0  0  0  0
  149.4668  134.4323  154.0396 N   0  0  0  0  0  0  0  0  0  0  0  0
  150.4144  134.4682  155.1487 C   0  0  0  0  0  0  0  0  0  0  0  0
  150.7967  135.9082  155.5357 C   0  0  1  0  0  0  0  0  0  0  0  0
  151.8215  135.9364  156.6897 C   0  0  0  0  0  0  0  0  0  0  0  0
  152.2651  137.3188  156.9912 N   0  3  2  0  0  0  0  0  0  0  0  0
  151.2876  138.1008  157.7835 C   0  0  0  0  0  0  0  0  0  0  0  0
  152.7290  138.0105  155.7653 C   0  0  0  0  0  0  0  0  0  0  0  0
  151.6875  137.9081  154.6356 C   0  0  0  0  0  0  0  0  0  0  0  0
  151.3740  136.5412  154.3972 O   0  0  0  0  0  0  0  0  0  0  0  0
  146.7817  131.5086  152.3284 N   0  0  0  0  0  0  0  0  0  0  0  0
  144.7939  128.8935  151.7544 H   0  0  0  0  0  0  0  0  0  0  0  0
  145.9459  129.1278  153.0705 H   0  0  0  0  0  0  0  0  0  0  0  0
  146.5301  128.8148  151.4306 H   0  0  0  0  0  0  0  0  0  0  0  0
  144.0556  130.8188  150.4222 H   0  0  0  0  0  0  0  0  0  0  0  0
  144.2041  133.2888  150.0230 H   0  0  0  0  0  0  0  0  0  0  0  0
  146.0305  134.5847  151.1220 H   0  0  0  0  0  0  0  0  0  0  0  0
  148.0578  134.5348  152.2126 H   0  0  0  0  0  0  0  0  0  0  0  0
  149.4691  135.2229  153.4116 H   0  0  0  0  0  0  0  0  0  0  0  0
  149.9853  133.9472  156.0064 H   0  0  0  0  0  0  0  0  0  0  0  0
  151.3043  133.9075  154.8611 H   0  0  0  0  0  0  0  0  0  0  0  0
  149.8969  136.4486  155.8336 H   0  0  0  0  0  0  0  0  0  0  0  0
  151.4101  135.4712  157.5865 H   0  0  0  0  0  0  0  0  0  0  0  0
  152.6990  135.3506  156.4123 H   0  0  0  0  0  0  0  0  0  0  0  0
  150.3624  138.2744  157.2341 H   0  0  0  0  0  0  0  0  0  0  0  0
  151.7063  139.0700  158.0554 H   0  0  0  0  0  0  0  0  0  0  0  0
  151.0401  137.5787  158.7083 H   0  0  0  0  0  0  0  0  0  0  0  0
  152.9670  139.0526  155.9821 H   0  0  0  0  0  0  0  0  0  0  0  0
  153.6589  137.5417  155.4404 H   0  0  0  0  0  0  0  0  0  0  0  0
  150.7819  138.4664  154.8766 H   0  0  0  0  0  0  0  0  0  0  0  0
  152.0882  138.3406  153.7186 H   0  0  0  0  0  0  0  0  0  0  0  0
  153.0749  137.2305  157.5890 H   0  0  0  0  0  0  0  0  0  0  0  0
  1  2  1  0  0  0  0
  1 20  1  0  0  0  0
  1 21  1  0  0  0  0
  1 22  1  0  0  0  0
  2 19  1  0  0  0  0
  2  3  2  0  0  0  0
  3  4  1  0  0  0  0
  3 23  1  0  0  0  0
  4  5  2  0  0  0  0
  4 24  1  0  0  0  0
  5  6  1  0  0  0  0
  5 25  1  0  0  0  0
  6  7  1  0  0  0  0
  6 19  2  0  0  0  0
  7  8  1  0  0  0  0
  7 26  1  0  0  0  0
  8  9  2  0  0  0  0
  8 10  1  0  0  0  0
 10 11  1  0  0  0  0
 10 27  1  0  0  0  0
 11 12  1  0  0  0  0
 11 28  1  0  0  0  0
 11 29  1  0  0  0  0
 12 18  1  0  0  0  0
 12 13  1  0  0  0  0
 12 30  1  0  0  0  0
 13 14  1  0  0  0  0
 13 31  1  0  0  0  0
 13 32  1  0  0  0  0
 14 15  1  0  0  0  0
 14 16  1  0  0  0  0
 14 40  1  0  0  0  0
 15 33  1  0  0  0  0
 15 34  1  0  0  0  0
 15 35  1  0  0  0  0
 16 17  1  0  0  0  0
 16 36  1  0  0  0  0
 16 37  1  0  0  0  0
 17 18  1  0  0  0  0
 17 38  1  0  0  0  0
 17 39  1  0  0  0  0
M  CHG  1  14   1
M  END
> <s_m_source_file>
AV-unprocessed.smi

> <i_m_source_file_index>
2302

> <i_lp_mmshare_version>
43012

> <i_f3d_flags>
0

> <s_epik_input>
W0NIM11jMVtjSF1bY0hdW2NIXWMobjEpW05IXUMoPU8pW05IXVtDSDJdW0NAQEhdMltDSDJdTihbQ0gzXSlbQ0gyXVtDSDJdTzI=

> <s_epik_cmdline>
J2VwaWtfcHl0aG9uJywgJy1waCcsICc3LjAnLCAnLXRuJywgJzgnLCAnLW1hJywgJzIwMCcsICctbWV0YWxfYmluZGluZycsICctaW1hZScsICc8aW5maWxlLm1hZT4nLCAnLW9tYWUnLCAnPG91dGZpbGUubWFlPic=

> <r_epik_Ionization_Penalty>
0.204647

> <r_epik_Ionization_Penalty_Charging>
0.204578

> <r_epik_Ionization_Penalty_Neutral>
6.91954e-05

> <r_epik_State_Penalty>
0.194513

> <r_epik_Charging_Adjusted_Penalty>
0.399091

> <i_epik_Tot_Q>
1

> <i_epik_Tot_abs_Q>
1

> <r_epik_Metal_State_Penalty>
0.194515

> <b_epik_Metal_Only>
0

> <s_lp_Force_Field>
OPLS_2005

> <r_lp_Energy>
17.5871

> <b_lp_Chiralities_Consistent>
1

> <s_lp_Variant>
AV-unprocessed.smi:2302-2

> <Gold.Version>
5.8.1

> <Gold.Id.Protein>
6NUR|6NUR_protein|mol2

> <Gold.PLP.Fitness>
40.7447

> <Gold.PLP.PLP>
-32.8980

> <Gold.PLP.part.hbond>
-3.0000

> <Gold.PLP.part.metal>
0.0000

> <Gold.PLP.part.buried>
-6.3930

> <Gold.PLP.part.nonpolar>
-24.6727

> <Gold.PLP.part.repulsive>
1.2214

> <Gold.PLP.ligand.clash>
0.0000

> <Gold.PLP.ligand.torsion>
0.2783

> <Gold.PLP.Chemscore.Hbond>
2.8000

> <Gold.PLP.Chemscore.CHOScore>
0.0000

> <Gold.PLP.Chemscore.Metal>
0.0000

> <Gold.Chemscore.Hbonds>
donor molecule, donor type, donor heavy atom, donor atom, acceptor molecule, acceptor atom, score
      L1  H     7    26       P1  7948  0.95
      L1  H    10    27       P1  7948  0.65
      P1  H 10752 10765       L1    18  0.95

> <Gold.PLP.Chemscore.Internal.Correction>
0.0032

> <Gold.Rescore>
     Score         DG    S(hbond)    S(metal)    S(lipo)     H(rot)  DE(clash)    DE(int)     intcor
     14.29     -15.81       1.65        0.00      68.91       1.27       0.05       1.47       ----

> <Gold.Chemscore.Fitness>
14.2890

> <Gold.Chemscore.DG>
-15.8093

> <Gold.Chemscore.ZeroCoef>
-5.4800

> <Gold.Chemscore.Hbond>
1.6549

> <Gold.Chemscore.Metal>
0.0000

> <Gold.Chemscore.Lipo>
68.9064

> <Gold.Chemscore.Internal_Hbond>
0.0000

> <Gold.Chemscore.DEClash>
0.0456

> <Gold.Chemscore.DEInternal>
1.4746

> <Gold.Chemscore.Rot>
1.2736

> <Gold.Chemscore.Internal.Correction>
   9.000000E+99

> <Gold.Chemscore.Hbonds>
donor molecule, donor type, donor heavy atom, donor atom, acceptor molecule, acceptor atom, score
      L1  H     7    26       P1  7948  0.21
      L1  H    10    27       P1  7948  0.06
      P1  H 10752 10765       L1    18  0.13

> <Gold.Chemscore.Hbond.Weighted>
-5.5275

> <Gold.Chemscore.Metal.Weighted>
-0.0000

> <Gold.Chemscore.Lipo.Weighted>
-8.0621

> <Gold.Chemscore.Internal_Hbond.Weighted>
0.0000

> <Gold.Chemscore.DEClash.Weighted>
0.0456

> <Gold.Chemscore.DEInternal.Weighted>
1.4746

> <Gold.Chemscore.Rot.Weighted>
3.2603

> <Gold.Chemscore.Internal.Correction.Weighted>
   9.000000E+99

> <Gold.Protein.RotatedTorsions>
[ 6907 6896 6895 6894 ] final -164.40 input  -60.11 | X-H torsion
[ 7974 7965 7964 7962 ] final  -33.66 input  175.53 | X-H torsion
[ 8008 7997 7996 7995 ] final   21.01 input   59.86 | X-H torsion
[ 10167 10162 10161 10158 ] final   -7.40 input  -65.29 | X-H torsion
[ 10718 10713 10712 10709 ] final   28.22 input   66.30 | X-H torsion
[ 10763 10752 10751 10750 ] final  164.57 input  -60.55 | X-H torsion
[ 11005 11000 10999 10996 ] final  133.87 input  -57.11 | X-H torsion

> <Gold.Protein.ActiveResidues>
 VAL166  LYS551  ARG553  GLY616  TRP617  ASP618  TYR619  PRO620  LYS621  CYS622 
 ASP623  PHE694  ASN695  SER759  ASP760  ASP761  ALA762  ILE779  LEU786  VAL792 
 PHE793  MET794  SER795  GLU796  ALA797  LYS798  CYS799  TRP800  GLU811  SER814 

> <Gold.Protein.RotatedAtoms>
  151.4113  133.3726  159.2744 H   0  0  0  0  0  0  0  0  0  0  0  0  # atno 6907 bound_to 6896
  150.9361  134.8775  159.7593 H   0  0  0  0  0  0  0  0  0  0  0  0  # atno 6908 bound_to 6896
  152.5050  134.4061  159.9485 H   0  0  0  0  0  0  0  0  0  0  0  0  # atno 6909 bound_to 6896
  146.0893  140.5943  142.8872 H   0  0  0  0  0  0  0  0  0  0  0  0  # atno 7974 bound_to 7965
  154.9441  140.3057  155.5106 H   0  0  0  0  0  0  0  0  0  0  0  0  # atno 8008 bound_to 7997
  156.2993  140.2331  156.4450 H   0  0  0  0  0  0  0  0  0  0  0  0  # atno 8009 bound_to 7997
  154.8117  140.0428  157.1336 H   0  0  0  0  0  0  0  0  0  0  0  0  # atno 8010 bound_to 7997
  140.7027  143.6085  150.8727 H   0  0  0  0  0  0  0  0  0  0  0  0  # atno 10167 bound_to 10162
  157.2306  130.7022  149.6311 H   0  0  0  0  0  0  0  0  0  0  0  0  # atno 10718 bound_to 10713
  154.3110  135.2757  155.2566 H   0  0  0  0  0  0  0  0  0  0  0  0  # atno 10763 bound_to 10752
  154.4961  135.5820  153.6499 H   0  0  0  0  0  0  0  0  0  0  0  0  # atno 10764 bound_to 10752
  152.9888  135.6146  154.3287 H   0  0  0  0  0  0  0  0  0  0  0  0  # atno 10765 bound_to 10752
  139.9879  134.9525  156.9786 H   0  0  0  0  0  0  0  0  0  0  0  0  # atno 11005 bound_to 11000
  144.7348  140.4777  143.6911 LP  0  0  0  0  0  0  0  0  0  0  0  0  # atno 17320 bound_to 7965
  145.6070  139.1509  143.3097 LP  0  0  0  0  0  0  0  0  0  0  0  0  # atno 17321 bound_to 7965
  139.9808  143.5953  152.2943 LP  0  0  0  0  0  0  0  0  0  0  0  0  # atno 17342 bound_to 10162
  139.6573  144.7662  151.2030 LP  0  0  0  0  0  0  0  0  0  0  0  0  # atno 17343 bound_to 10162
  155.9676  130.4490  150.5642 LP  0  0  0  0  0  0  0  0  0  0  0  0  # atno 17370 bound_to 10713
  157.3482  131.0729  151.1734 LP  0  0  0  0  0  0  0  0  0  0  0  0  # atno 17371 bound_to 10713
  140.4966  134.1139  155.7242 LP  0  0  0  0  0  0  0  0  0  0  0  0  # atno 17394 bound_to 11000
  141.1540  133.8916  157.2024 LP  0  0  0  0  0  0  0  0  0  0  0  0  # atno 17395 bound_to 11000

$$$$
