AV-unprocessed.smi:3316|AV-procd|sdf|12757|dock8
  -GOLD-   2272019 93D 1   1.00000     0.00000
 Structure written by MMmdl.
 41 43  0  0  0  0  0  0  0  0  2 V2000
  148.3267  140.6505  153.3024 C   0  0  0  0  0  0  0  0  0  0  0  0
  148.4220  141.7028  154.4183 C   0  0  2  0  0  0  0  0  0  0  0  0
  149.3120  141.2161  155.5783 C   0  0  0  0  0  0  0  0  0  0  0  0
  149.6002  142.3023  156.5371 N   0  3  0  0  0  0  0  0  0  0  0  0
  151.0291  142.4374  156.8794 C   0  0  0  0  0  0  0  0  0  0  0  0
  151.2130  142.8442  158.3528 C   0  0  2  0  0  0  0  0  0  0  0  0
  150.4546  144.1515  158.7478 C   0  0  0  0  0  0  0  0  0  0  0  0
  151.5732  145.0456  159.3307 C   0  0  1  0  0  0  0  0  0  0  0  0
  152.0920  144.3890  160.5924 C   0  0  0  0  0  0  0  0  0  0  0  0
  152.7586  143.2934  160.2238 C   0  0  0  0  0  0  0  0  0  0  0  0
  152.6781  143.2040  158.7137 C   0  0  2  0  0  0  0  0  0  0  0  0
  152.7078  144.6976  158.3634 C   0  0  0  0  0  0  0  0  0  0  0  0
  147.0387  142.1293  154.8947 C   0  0  0  0  0  0  0  0  0  0  0  0
  146.6419  141.9089  156.2306 C   0  0  0  0  0  0  0  0  0  0  0  0
  145.3522  142.3154  156.6278 C   0  0  0  0  0  0  0  0  0  0  0  0
  144.4709  142.9046  155.7922 N   0  0  0  0  0  0  0  0  0  0  0  0
  144.8547  143.1150  154.5151 C   0  0  0  0  0  0  0  0  0  0  0  0
  146.1204  142.7461  154.0171 C   0  0  0  0  0  0  0  0  0  0  0  0
  147.7422  141.0249  152.4613 H   0  0  0  0  0  0  0  0  0  0  0  0
  147.8545  139.7321  153.6524 H   0  0  0  0  0  0  0  0  0  0  0  0
  149.3154  140.3895  152.9239 H   0  0  0  0  0  0  0  0  0  0  0  0
  148.9052  142.5796  153.9838 H   0  0  0  0  0  0  0  0  0  0  0  0
  148.8368  140.3870  156.1043 H   0  0  0  0  0  0  0  0  0  0  0  0
  150.2567  140.8404  155.1834 H   0  0  0  0  0  0  0  0  0  0  0  0
  149.2828  143.1752  156.1400 H   0  0  0  0  0  0  0  0  0  0  0  0
  151.5211  141.4805  156.7004 H   0  0  0  0  0  0  0  0  0  0  0  0
  151.4940  143.1642  156.2127 H   0  0  0  0  0  0  0  0  0  0  0  0
  150.8846  142.0138  158.9811 H   0  0  0  0  0  0  0  0  0  0  0  0
  149.9998  144.6304  157.8794 H   0  0  0  0  0  0  0  0  0  0  0  0
  149.6626  143.9640  159.4739 H   0  0  0  0  0  0  0  0  0  0  0  0
  151.3462  146.1078  159.4246 H   0  0  0  0  0  0  0  0  0  0  0  0
  151.9125  144.7490  161.5948 H   0  0  0  0  0  0  0  0  0  0  0  0
  153.2378  142.5650  160.8611 H   0  0  0  0  0  0  0  0  0  0  0  0
  153.4585  142.5965  158.2544 H   0  0  0  0  0  0  0  0  0  0  0  0
  152.4832  144.9212  157.3195 H   0  0  0  0  0  0  0  0  0  0  0  0
  153.6532  145.1774  158.6257 H   0  0  0  0  0  0  0  0  0  0  0  0
  147.3068  141.4420  156.9424 H   0  0  0  0  0  0  0  0  0  0  0  0
  145.0195  142.1613  157.6436 H   0  0  0  0  0  0  0  0  0  0  0  0
  144.1310  143.5903  153.8697 H   0  0  0  0  0  0  0  0  0  0  0  0
  146.3750  142.9384  152.9852 H   0  0  0  0  0  0  0  0  0  0  0  0
  149.0811  142.1268  157.3859 H   0  0  0  0  0  0  0  0  0  0  0  0
  1  2  1  0  0  0  0
  1 19  1  0  0  0  0
  1 20  1  0  0  0  0
  1 21  1  0  0  0  0
  2  3  1  0  0  0  0
  2 13  1  0  0  0  0
  2 22  1  0  0  0  0
  3  4  1  0  0  0  0
  3 23  1  0  0  0  0
  3 24  1  0  0  0  0
  4  5  1  0  0  0  0
  4 25  1  0  0  0  0
  4 41  1  0  0  0  0
  5  6  1  0  0  0  0
  5 26  1  0  0  0  0
  5 27  1  0  0  0  0
  6 11  1  0  0  0  0
  6  7  1  0  0  0  0
  6 28  1  0  0  0  0
  7  8  1  0  0  0  0
  7 29  1  0  0  0  0
  7 30  1  0  0  0  0
  8 12  1  0  0  0  0
  8  9  1  0  0  0  0
  8 31  1  0  0  0  0
  9 10  2  0  0  0  0
  9 32  1  0  0  0  0
 10 11  1  0  0  0  0
 10 33  1  0  0  0  0
 11 12  1  0  0  0  0
 11 34  1  0  0  0  0
 12 35  1  0  0  0  0
 12 36  1  0  0  0  0
 13 18  1  0  0  0  0
 13 14  2  0  0  0  0
 14 15  1  0  0  0  0
 14 37  1  0  0  0  0
 15 16  2  0  0  0  0
 15 38  1  0  0  0  0
 16 17  1  0  0  0  0
 17 18  2  0  0  0  0
 17 39  1  0  0  0  0
 18 40  1  0  0  0  0
M  CHG  1   4   1
M  END
> <s_m_source_file>
AV-unprocessed.smi

> <i_m_source_file_index>
3316

> <i_lp_mmshare_version>
43012

> <i_f3d_flags>
0

> <s_epik_input>
W2NIXTFbY0hdbltjSF1bY0hdYzFbQ0BIXShbQ0gzXSlbQ0gyXVtOSF1bQ0gyXVtDQEhdKFtDSDJdW0NASF0yMylbQ0BIXShbQ0gyXTMpW0NIXT1bQ0hdMg==

> <s_epik_cmdline>
J2VwaWtfcHl0aG9uJywgJy1waCcsICc3LjAnLCAnLXRuJywgJzgnLCAnLW1hJywgJzIwMCcsICctbWV0YWxfYmluZGluZycsICctaW1hZScsICc8aW5maWxlLm1hZT4nLCAnLW9tYWUnLCAnPG91dGZpbGUubWFlPic=

> <r_lp_tautomer_probability>
1

> <r_epik_Ionization_Penalty>
0.00280406

> <r_epik_Ionization_Penalty_Charging>
0.000446589

> <r_epik_Ionization_Penalty_Neutral>
0.00235747

> <r_epik_State_Penalty>
-0

> <r_epik_Charging_Adjusted_Penalty>
0.000446589

> <i_epik_Tot_Q>
1

> <i_epik_Tot_abs_Q>
1

> <r_epik_Metal_State_Penalty>
-0

> <b_epik_Metal_Only>
0

> <s_lp_Force_Field>
OPLS_2005

> <r_lp_Energy>
65.5539

> <b_lp_Chiralities_Consistent>
1

> <s_lp_Variant>
AV-unprocessed.smi:3316-5

> <Gold.Version>
5.8.1

> <Gold.Id.Protein>
6NUR|6NUR_protein|mol2

> <Gold.PLP.Fitness>
52.0451

> <Gold.PLP.PLP>
-44.6942

> <Gold.PLP.part.hbond>
-1.0000

> <Gold.PLP.part.metal>
0.0000

> <Gold.PLP.part.buried>
-0.8025

> <Gold.PLP.part.nonpolar>
-42.9003

> <Gold.PLP.part.repulsive>
0.1794

> <Gold.PLP.ligand.clash>
0.0000

> <Gold.PLP.ligand.torsion>
0.6968

> <Gold.PLP.Chemscore.Hbond>
2.0000

> <Gold.PLP.Chemscore.CHOScore>
0.8886

> <Gold.PLP.Chemscore.Metal>
0.0000

> <Gold.Chemscore.Hbonds>
donor molecule, donor type, donor heavy atom, donor atom, acceptor molecule, acceptor atom, score
      L1  H     4    25       P1  8028  2.00
      L1  C    17    39       P1 10174  0.95

> <Gold.PLP.Chemscore.Internal.Correction>
0.0788

> <Gold.Rescore>
     Score         DG    S(hbond)    S(metal)    S(lipo)     H(rot)  DE(clash)    DE(int)     intcor
     19.26     -20.06       1.00        0.00     125.99       1.36       0.01       0.79       ----

> <Gold.Chemscore.Fitness>
19.2609

> <Gold.Chemscore.DG>
-20.0609

> <Gold.Chemscore.ZeroCoef>
-5.4800

> <Gold.Chemscore.Hbond>
0.9975

> <Gold.Chemscore.Metal>
0.0000

> <Gold.Chemscore.Lipo>
125.9922

> <Gold.Chemscore.Internal_Hbond>
0.0000

> <Gold.Chemscore.DEClash>
0.0069

> <Gold.Chemscore.DEInternal>
0.7930

> <Gold.Chemscore.Rot>
1.3640

> <Gold.Chemscore.Internal.Correction>
   9.000000E+99

> <Gold.Chemscore.Hbonds>
donor molecule, donor type, donor heavy atom, donor atom, acceptor molecule, acceptor atom, score
      L1  H     4    25       P1  8028  1.00

> <Gold.Chemscore.Hbond.Weighted>
-3.3317

> <Gold.Chemscore.Metal.Weighted>
-0.0000

> <Gold.Chemscore.Lipo.Weighted>
-14.7411

> <Gold.Chemscore.Internal_Hbond.Weighted>
0.0000

> <Gold.Chemscore.DEClash.Weighted>
0.0069

> <Gold.Chemscore.DEInternal.Weighted>
0.7930

> <Gold.Chemscore.Rot.Weighted>
3.4919

> <Gold.Chemscore.Internal.Correction.Weighted>
   9.000000E+99

> <Gold.Protein.RotatedTorsions>
[ 6907 6896 6895 6894 ] final -136.87 input  -60.11 | X-H torsion
[ 7974 7965 7964 7962 ] final  128.11 input  175.53 | X-H torsion
[ 8008 7997 7996 7995 ] final  162.33 input   59.86 | X-H torsion
[ 10167 10162 10161 10158 ] final  160.79 input  -65.29 | X-H torsion
[ 10718 10713 10712 10709 ] final  -61.11 input   66.30 | X-H torsion
[ 10763 10752 10751 10750 ] final  -83.10 input  -60.55 | X-H torsion
[ 11005 11000 10999 10996 ] final  113.87 input  -57.11 | X-H torsion

> <Gold.Protein.ActiveResidues>
 VAL166  LYS551  ARG553  GLY616  TRP617  ASP618  TYR619  PRO620  LYS621  CYS622 
 ASP623  PHE694  ASN695  SER759  ASP760  ASP761  ALA762  ILE779  LEU786  VAL792 
 PHE793  MET794  SER795  GLU796  ALA797  LYS798  CYS799  TRP800  GLU811  SER814 

> <Gold.Protein.RotatedAtoms>
  151.0154  133.5926  159.2677 H   0  0  0  0  0  0  0  0  0  0  0  0  # atno 6907 bound_to 6896
  151.3062  135.0781  159.9266 H   0  0  0  0  0  0  0  0  0  0  0  0  # atno 6908 bound_to 6896
  152.5310  133.9827  159.7868 H   0  0  0  0  0  0  0  0  0  0  0  0  # atno 6909 bound_to 6896
  145.0431  139.3946  143.5091 H   0  0  0  0  0  0  0  0  0  0  0  0  # atno 7974 bound_to 7965
  156.2039  140.1753  156.7841 H   0  0  0  0  0  0  0  0  0  0  0  0  # atno 8008 bound_to 7997
  154.5628  140.0696  156.8876 H   0  0  0  0  0  0  0  0  0  0  0  0  # atno 8009 bound_to 7997
  155.2816  140.3349  155.4260 H   0  0  0  0  0  0  0  0  0  0  0  0  # atno 8010 bound_to 7997
  139.4843  144.4600  151.8717 H   0  0  0  0  0  0  0  0  0  0  0  0  # atno 10167 bound_to 10162
  156.0944  130.4195  150.0948 H   0  0  0  0  0  0  0  0  0  0  0  0  # atno 10718 bound_to 10713
  154.5837  135.5568  153.7210 H   0  0  0  0  0  0  0  0  0  0  0  0  # atno 10763 bound_to 10752
  153.0091  135.6326  154.1946 H   0  0  0  0  0  0  0  0  0  0  0  0  # atno 10764 bound_to 10752
  154.1887  135.2883  155.3009 H   0  0  0  0  0  0  0  0  0  0  0  0  # atno 10765 bound_to 10752
  139.8965  134.9558  156.6806 H   0  0  0  0  0  0  0  0  0  0  0  0  # atno 11005 bound_to 11000
  146.3511  140.0043  142.8673 LP  0  0  0  0  0  0  0  0  0  0  0  0  # atno 17320 bound_to 7965
  145.1622  140.9678  143.4371 LP  0  0  0  0  0  0  0  0  0  0  0  0  # atno 17321 bound_to 7965
  140.4062  144.2429  150.5890 LP  0  0  0  0  0  0  0  0  0  0  0  0  # atno 17342 bound_to 10162
  140.5010  143.2318  151.8678 LP  0  0  0  0  0  0  0  0  0  0  0  0  # atno 17343 bound_to 10162
  156.8951  130.9601  151.3583 LP  0  0  0  0  0  0  0  0  0  0  0  0  # atno 17370 bound_to 10713
  157.6101  130.8576  149.8938 LP  0  0  0  0  0  0  0  0  0  0  0  0  # atno 17371 bound_to 10713
  140.7302  133.9065  155.8206 LP  0  0  0  0  0  0  0  0  0  0  0  0  # atno 17394 bound_to 11000
  141.0159  134.0956  157.4172 LP  0  0  0  0  0  0  0  0  0  0  0  0  # atno 17395 bound_to 11000

$$$$
