AV-unprocessed.smi:1016|AV-procd|sdf|4437|dock2
  -GOLD-   22720 2393D 1   1.00000     0.00000
 Structure written by MMmdl.
 39 40  0  0  0  0  0  0  0  0  2 V2000
  154.4547  140.1078  160.9894 C   0  0  0  0  0  0  0  0  0  0  0  0
  153.7521  141.4276  160.8707 C   0  0  0  0  0  0  0  0  0  0  0  0
  153.4240  142.2525  162.0176 C   0  0  0  0  0  0  0  0  0  0  0  0
  152.7925  143.4305  161.8265 C   0  0  0  0  0  0  0  0  0  0  0  0
  152.4241  143.8971  160.4916 C   0  0  0  0  0  0  0  0  0  0  0  0
  151.8439  144.9625  160.2854 O   0  0  0  0  0  0  0  0  0  0  0  0
  152.7759  143.0347  159.4919 N   0  0  0  0  0  0  0  0  0  0  0  0
  152.4363  143.3154  158.0869 C   0  0  0  0  0  0  0  0  0  0  0  0
  151.5562  142.2486  157.4107 C   0  0  0  0  0  0  0  0  0  0  0  0
  150.4305  142.5731  157.0369 O   0  0  0  0  0  0  0  0  0  0  0  0
  152.0827  141.0150  157.2722 N   0  0  0  0  0  0  0  0  0  0  0  0
  151.5603  139.7637  156.7037 C   0  0  0  0  0  0  0  0  0  0  0  0
  151.9079  138.6771  157.7539 C   0  0  0  0  0  0  0  0  0  0  0  0
  150.9718  137.9954  158.2278 O   0  0  0  0  0  0  0  0  0  0  0  0
  153.1040  138.5711  158.1084 O   0  5  0  0  0  0  0  0  0  0  0  0
  150.0314  139.7775  156.3828 C   0  0  0  0  0  0  0  0  0  0  0  0
  149.5557  138.5178  155.6326 C   0  0  0  0  0  0  0  0  0  0  0  0
  150.3511  138.3113  154.3358 C   0  0  0  0  0  0  0  0  0  0  0  0
  151.8601  138.2640  154.6139 C   0  0  0  0  0  0  0  0  0  0  0  0
  152.3273  139.5221  155.3718 C   0  0  0  0  0  0  0  0  0  0  0  0
  153.4336  141.8304  159.6846 N   0  0  0  0  0  0  0  0  0  0  0  0
  154.6679  139.8663  162.0309 H   0  0  0  0  0  0  0  0  0  0  0  0
  155.4017  140.1220  160.4491 H   0  0  0  0  0  0  0  0  0  0  0  0
  153.8423  139.3043  160.5791 H   0  0  0  0  0  0  0  0  0  0  0  0
  153.6855  141.9205  163.0114 H   0  0  0  0  0  0  0  0  0  0  0  0
  152.5477  144.0435  162.6813 H   0  0  0  0  0  0  0  0  0  0  0  0
  151.9404  144.2837  158.0006 H   0  0  0  0  0  0  0  0  0  0  0  0
  153.3524  143.4109  157.5015 H   0  0  0  0  0  0  0  0  0  0  0  0
  153.0138  140.9163  157.6504 H   0  0  0  0  0  0  0  0  0  0  0  0
  149.4371  139.9057  157.2886 H   0  0  0  0  0  0  0  0  0  0  0  0
  149.8020  140.6350  155.7490 H   0  0  0  0  0  0  0  0  0  0  0  0
  149.6540  137.6379  156.2692 H   0  0  0  0  0  0  0  0  0  0  0  0
  148.4940  138.6073  155.4014 H   0  0  0  0  0  0  0  0  0  0  0  0
  150.0329  137.3913  153.8448 H   0  0  0  0  0  0  0  0  0  0  0  0
  150.1340  139.1241  153.6418 H   0  0  0  0  0  0  0  0  0  0  0  0
  152.1003  137.3683  155.1875 H   0  0  0  0  0  0  0  0  0  0  0  0
  152.4047  138.1775  153.6734 H   0  0  0  0  0  0  0  0  0  0  0  0
  152.1886  140.3873  154.7216 H   0  0  0  0  0  0  0  0  0  0  0  0
  153.4035  139.4641  155.5427 H   0  0  0  0  0  0  0  0  0  0  0  0
  1  2  1  0  0  0  0
  1 22  1  0  0  0  0
  1 23  1  0  0  0  0
  1 24  1  0  0  0  0
  2 21  2  0  0  0  0
  2  3  1  0  0  0  0
  3  4  2  0  0  0  0
  3 25  1  0  0  0  0
  4  5  1  0  0  0  0
  4 26  1  0  0  0  0
  5  6  2  0  0  0  0
  5  7  1  0  0  0  0
  7  8  1  0  0  0  0
  7 21  1  0  0  0  0
  8  9  1  0  0  0  0
  8 27  1  0  0  0  0
  8 28  1  0  0  0  0
  9 10  2  0  0  0  0
  9 11  1  0  0  0  0
 11 12  1  0  0  0  0
 11 29  1  0  0  0  0
 12 20  1  0  0  0  0
 12 13  1  0  0  0  0
 12 16  1  0  0  0  0
 13 14  2  0  0  0  0
 13 15  1  0  0  0  0
 16 17  1  0  0  0  0
 16 30  1  0  0  0  0
 16 31  1  0  0  0  0
 17 18  1  0  0  0  0
 17 32  1  0  0  0  0
 17 33  1  0  0  0  0
 18 19  1  0  0  0  0
 18 34  1  0  0  0  0
 18 35  1  0  0  0  0
 19 20  1  0  0  0  0
 19 36  1  0  0  0  0
 19 37  1  0  0  0  0
 20 38  1  0  0  0  0
 20 39  1  0  0  0  0
M  CHG  1  15  -1
M  END
> <s_m_source_file>
AV-unprocessed.smi

> <i_m_source_file_index>
1016

> <i_lp_mmshare_version>
43012

> <i_f3d_flags>
0

> <s_epik_input>
W0NIM11jMVtjSF1bY0hdYyg9TyluKG4xKVtDSDJdQyg9TylbTkhdQzIoQyg9TylbT0hdKVtDSDJdW0NIMl1bQ0gyXVtDSDJdW0NIMl0y

> <s_epik_cmdline>
J2VwaWtfcHl0aG9uJywgJy1waCcsICc3LjAnLCAnLXRuJywgJzgnLCAnLW1hJywgJzIwMCcsICctbWV0YWxfYmluZGluZycsICctaW1hZScsICc8aW5maWxlLm1hZT4nLCAnLW9tYWUnLCAnPG91dGZpbGUubWFlPic=

> <r_lp_tautomer_probability>
1

> <r_epik_Ionization_Penalty>
0.000398047

> <r_epik_Ionization_Penalty_Charging>
0.000398029

> <r_epik_Ionization_Penalty_Neutral>
1.87077e-08

> <r_epik_State_Penalty>
0.000243291

> <r_epik_Charging_Adjusted_Penalty>
0.00064132

> <i_epik_Tot_Q>
-1

> <i_epik_Tot_abs_Q>
1

> <r_epik_Metal_State_Penalty>
-0

> <b_epik_Metal_Only>
0

> <s_lp_Force_Field>
OPLS_2005

> <r_lp_Energy>
18.8649

> <b_lp_Chiralities_Consistent>
1

> <s_lp_Variant>
AV-unprocessed.smi:1016-1

> <Gold.Version>
5.8.1

> <Gold.Id.Protein>
6NUR|6NUR_protein|mol2

> <Gold.PLP.Fitness>
47.6732

> <Gold.PLP.PLP>
-42.0694

> <Gold.PLP.part.hbond>
-1.0000

> <Gold.PLP.part.metal>
0.0000

> <Gold.PLP.part.buried>
-5.0264

> <Gold.PLP.part.nonpolar>
-36.6817

> <Gold.PLP.part.repulsive>
0.4110

> <Gold.PLP.ligand.clash>
0.0000

> <Gold.PLP.ligand.torsion>
0.2266

> <Gold.PLP.Chemscore.Hbond>
2.0000

> <Gold.PLP.Chemscore.CHOScore>
0.0000

> <Gold.PLP.Chemscore.Metal>
0.0000

> <Gold.Chemscore.Hbonds>
donor molecule, donor type, donor heavy atom, donor atom, acceptor molecule, acceptor atom, score
      P1  H  7997  8010       L1    15  0.39

> <Gold.PLP.Chemscore.Internal.Correction>
0.0570

> <Gold.Rescore>
     Score         DG    S(hbond)    S(metal)    S(lipo)     H(rot)  DE(clash)    DE(int)     intcor
     10.58     -14.29       1.00        0.00      92.62       2.09       0.07       3.64       ----

> <Gold.Chemscore.Fitness>
10.5830

> <Gold.Chemscore.DG>
-14.2937

> <Gold.Chemscore.ZeroCoef>
-5.4800

> <Gold.Chemscore.Hbond>
0.9978

> <Gold.Chemscore.Metal>
0.0000

> <Gold.Chemscore.Lipo>
92.6156

> <Gold.Chemscore.Internal_Hbond>
0.0000

> <Gold.Chemscore.DEClash>
0.0689

> <Gold.Chemscore.DEInternal>
3.6418

> <Gold.Chemscore.Rot>
2.0918

> <Gold.Chemscore.Internal.Correction>
   9.000000E+99

> <Gold.Chemscore.Hbonds>
donor molecule, donor type, donor heavy atom, donor atom, acceptor molecule, acceptor atom, score
      P1  H  7997  8010       L1    15  0.20

> <Gold.Chemscore.Hbond.Weighted>
-3.3326

> <Gold.Chemscore.Metal.Weighted>
-0.0000

> <Gold.Chemscore.Lipo.Weighted>
-10.8360

> <Gold.Chemscore.Internal_Hbond.Weighted>
0.0000

> <Gold.Chemscore.DEClash.Weighted>
0.0689

> <Gold.Chemscore.DEInternal.Weighted>
3.6418

> <Gold.Chemscore.Rot.Weighted>
5.3549

> <Gold.Chemscore.Internal.Correction.Weighted>
   9.000000E+99

> <Gold.Protein.RotatedTorsions>
[ 6907 6896 6895 6894 ] final  -94.15 input  -60.11 | X-H torsion
[ 7974 7965 7964 7962 ] final -167.48 input  175.53 | X-H torsion
[ 8008 7997 7996 7995 ] final   29.75 input   59.86 | X-H torsion
[ 10167 10162 10161 10158 ] final -132.92 input  -65.29 | X-H torsion
[ 10718 10713 10712 10709 ] final    7.71 input   66.30 | X-H torsion
[ 10763 10752 10751 10750 ] final   79.71 input  -60.55 | X-H torsion
[ 11005 11000 10999 10996 ] final  107.74 input  -57.11 | X-H torsion

> <Gold.Protein.ActiveResidues>
 VAL166  LYS551  ARG553  GLY616  TRP617  ASP618  TYR619  PRO620  LYS621  CYS622 
 ASP623  PHE694  ASN695  SER759  ASP760  ASP761  ALA762  ILE779  LEU786  VAL792 
 PHE793  MET794  SER795  GLU796  ALA797  LYS798  CYS799  TRP800  GLU811  SER814 

> <Gold.Protein.RotatedAtoms>
  150.6936  134.1856  159.4265 H   0  0  0  0  0  0  0  0  0  0  0  0  # atno 6907 bound_to 6896
  151.9829  135.0017  160.0567 H   0  0  0  0  0  0  0  0  0  0  0  0  # atno 6908 bound_to 6896
  152.1738  133.4626  159.4960 H   0  0  0  0  0  0  0  0  0  0  0  0  # atno 6909 bound_to 6896
  144.7222  140.2513  143.6278 H   0  0  0  0  0  0  0  0  0  0  0  0  # atno 7974 bound_to 7965
  155.0794  140.3208  155.4606 H   0  0  0  0  0  0  0  0  0  0  0  0  # atno 8008 bound_to 7997
  156.2771  140.2097  156.5868 H   0  0  0  0  0  0  0  0  0  0  0  0  # atno 8009 bound_to 7997
  154.6990  140.0509  157.0427 H   0  0  0  0  0  0  0  0  0  0  0  0  # atno 8010 bound_to 7997
  139.9036  143.6578  152.2590 H   0  0  0  0  0  0  0  0  0  0  0  0  # atno 10167 bound_to 10162
  156.9410  130.5861  149.5652 H   0  0  0  0  0  0  0  0  0  0  0  0  # atno 10718 bound_to 10713
  153.0974  135.4830  154.8804 H   0  0  0  0  0  0  0  0  0  0  0  0  # atno 10763 bound_to 10752
  154.7340  135.3066  154.8845 H   0  0  0  0  0  0  0  0  0  0  0  0  # atno 10764 bound_to 10752
  153.9473  135.6827  153.4797 H   0  0  0  0  0  0  0  0  0  0  0  0  # atno 10765 bound_to 10752
  139.8833  134.9410  156.5866 H   0  0  0  0  0  0  0  0  0  0  0  0  # atno 11005 bound_to 11000
  145.8226  139.2050  143.1929 LP  0  0  0  0  0  0  0  0  0  0  0  0  # atno 17320 bound_to 7965
  146.0501  140.8078  142.9786 LP  0  0  0  0  0  0  0  0  0  0  0  0  # atno 17321 bound_to 7965
  139.7004  144.7636  151.1283 LP  0  0  0  0  0  0  0  0  0  0  0  0  # atno 17342 bound_to 10162
  140.7701  143.5466  150.9252 LP  0  0  0  0  0  0  0  0  0  0  0  0  # atno 17343 bound_to 10162
  156.0404  130.5487  150.8758 LP  0  0  0  0  0  0  0  0  0  0  0  0  # atno 17370 bound_to 10713
  157.5785  131.0946  150.9308 LP  0  0  0  0  0  0  0  0  0  0  0  0  # atno 17371 bound_to 10713
  140.7987  133.8523  155.8708 LP  0  0  0  0  0  0  0  0  0  0  0  0  # atno 17394 bound_to 11000
  140.9612  134.1653  157.4652 LP  0  0  0  0  0  0  0  0  0  0  0  0  # atno 17395 bound_to 11000

$$$$
