AV-unprocessed.smi:1250|AV-procd|sdf|5254|dock2
  -GOLD-   22720 4363D 1   1.00000     0.00000
 Structure written by MMmdl.
 41 42  0  0  0  0  0  0  0  0  1 V2000
  152.1114  143.1126  160.2121 C   0  0  0  0  0  0  0  0  0  0  0  0
  152.2971  143.2418  158.6897 C   0  0  0  0  0  0  0  0  0  0  0  0
  152.2400  144.7305  158.2887 C   0  0  0  0  0  0  0  0  0  0  0  0
  151.2814  142.3759  157.8973 C   0  0  2  0  0  0  0  0  0  0  0  0
  149.8256  142.8575  158.0344 C   0  0  0  0  0  0  0  0  0  0  0  0
  151.3600  140.9861  158.3405 N   0  0  0  0  0  0  0  0  0  0  0  0
  152.0244  139.9965  157.7203 C   0  0  0  0  0  0  0  0  0  0  0  0
  152.5745  140.1306  156.6275 O   0  0  0  0  0  0  0  0  0  0  0  0
  152.0845  138.6459  158.4436 C   0  0  0  0  0  0  0  0  0  0  0  0
  152.8539  138.7533  159.7319 C   0  0  0  0  0  0  0  0  0  0  0  0
  153.3680  139.8997  160.2869 C   0  0  0  0  0  0  0  0  0  0  0  0
  154.2335  139.5797  161.7647 S   0  0  0  0  0  0  0  0  0  0  0  0
  153.8537  137.8652  161.5769 C   0  0  0  0  0  0  0  0  0  0  0  0
  154.2561  136.8071  162.4452 N   0  0  0  0  0  0  0  0  0  0  0  0
  154.3815  137.0032  163.8863 C   0  0  0  0  0  0  0  0  0  0  0  0
  155.0132  135.7189  164.4342 C   0  0  0  0  0  0  0  0  0  0  0  0
  154.8846  134.6930  163.3104 C   0  0  0  0  0  0  0  0  0  0  0  0
  154.5172  135.5341  162.0990 C   0  0  0  0  0  0  0  0  0  0  0  0
  154.4804  135.0499  160.9688 O   0  0  0  0  0  0  0  0  0  0  0  0
  153.1243  137.6063  160.4870 N   0  0  0  0  0  0  0  0  0  0  0  0
  151.1026  143.3968  160.5134 H   0  0  0  0  0  0  0  0  0  0  0  0
  152.8099  143.7558  160.7482 H   0  0  0  0  0  0  0  0  0  0  0  0
  152.2918  142.0956  160.5586 H   0  0  0  0  0  0  0  0  0  0  0  0
  153.3010  142.8855  158.4537 H   0  0  0  0  0  0  0  0  0  0  0  0
  151.2406  145.1412  158.4354 H   0  0  0  0  0  0  0  0  0  0  0  0
  152.5126  144.8836  157.2445 H   0  0  0  0  0  0  0  0  0  0  0  0
  152.9330  145.3252  158.8844 H   0  0  0  0  0  0  0  0  0  0  0  0
  151.5565  142.4259  156.8419 H   0  0  0  0  0  0  0  0  0  0  0  0
  149.6854  143.8489  157.6051 H   0  0  0  0  0  0  0  0  0  0  0  0
  149.5170  142.8969  159.0796 H   0  0  0  0  0  0  0  0  0  0  0  0
  149.1407  142.1890  157.5118 H   0  0  0  0  0  0  0  0  0  0  0  0
  150.9313  140.7741  159.2300 H   0  0  0  0  0  0  0  0  0  0  0  0
  151.0651  138.3054  158.6280 H   0  0  0  0  0  0  0  0  0  0  0  0
  152.5447  137.9048  157.7887 H   0  0  0  0  0  0  0  0  0  0  0  0
  153.3006  140.9096  159.9101 H   0  0  0  0  0  0  0  0  0  0  0  0
  154.9936  137.8748  164.1215 H   0  0  0  0  0  0  0  0  0  0  0  0
  153.3900  137.1597  164.3134 H   0  0  0  0  0  0  0  0  0  0  0  0
  156.0663  135.8869  164.6643 H   0  0  0  0  0  0  0  0  0  0  0  0
  154.5248  135.3868  165.3511 H   0  0  0  0  0  0  0  0  0  0  0  0
  155.8111  134.1414  163.1475 H   0  0  0  0  0  0  0  0  0  0  0  0
  154.0838  133.9809  163.5123 H   0  0  0  0  0  0  0  0  0  0  0  0
  1  2  1  0  0  0  0
  1 21  1  0  0  0  0
  1 22  1  0  0  0  0
  1 23  1  0  0  0  0
  2  3  1  0  0  0  0
  2  4  1  0  0  0  0
  2 24  1  0  0  0  0
  3 25  1  0  0  0  0
  3 26  1  0  0  0  0
  3 27  1  0  0  0  0
  4  5  1  0  0  0  0
  4  6  1  0  0  0  0
  4 28  1  0  0  0  0
  5 29  1  0  0  0  0
  5 30  1  0  0  0  0
  5 31  1  0  0  0  0
  6  7  1  0  0  0  0
  6 32  1  0  0  0  0
  7  8  2  0  0  0  0
  7  9  1  0  0  0  0
  9 10  1  0  0  0  0
  9 33  1  0  0  0  0
  9 34  1  0  0  0  0
 10 20  1  0  0  0  0
 10 11  2  0  0  0  0
 11 12  1  0  0  0  0
 11 35  1  0  0  0  0
 12 13  1  0  0  0  0
 13 14  1  0  0  0  0
 13 20  2  0  0  0  0
 14 18  1  0  0  0  0
 14 15  1  0  0  0  0
 15 16  1  0  0  0  0
 15 36  1  0  0  0  0
 15 37  1  0  0  0  0
 16 17  1  0  0  0  0
 16 38  1  0  0  0  0
 16 39  1  0  0  0  0
 17 18  1  0  0  0  0
 17 40  1  0  0  0  0
 17 41  1  0  0  0  0
 18 19  2  0  0  0  0
M  END
> <s_m_source_file>
AV-unprocessed.smi

> <i_m_source_file_index>
1250

> <i_lp_mmshare_version>
43012

> <i_f3d_flags>
0

> <s_epik_input>
W0NIM11bQ0hdKFtDSDNdKVtDQEhdKFtDSDNdKVtOSF1DKD1PKVtDSDJdYzFbY0hdc2MobjEpTjJbQ0gyXVtDSDJdW0NIMl1DMj1P

> <s_epik_cmdline>
J2VwaWtfcHl0aG9uJywgJy1waCcsICc3LjAnLCAnLXRuJywgJzgnLCAnLW1hJywgJzIwMCcsICctbWV0YWxfYmluZGluZycsICctaW1hZScsICc8aW5maWxlLm1hZT4nLCAnLW9tYWUnLCAnPG91dGZpbGUubWFlPic=

> <r_lp_tautomer_probability>
1

> <r_epik_Ionization_Penalty>
3.03552e-05

> <r_epik_Ionization_Penalty_Charging>
0

> <r_epik_Ionization_Penalty_Neutral>
3.03552e-05

> <r_epik_State_Penalty>
-0

> <r_epik_Charging_Adjusted_Penalty>
0

> <i_epik_Tot_Q>
0

> <i_epik_Tot_abs_Q>
0

> <r_epik_Metal_State_Penalty>
-0

> <b_epik_Metal_Only>
0

> <s_lp_Force_Field>
OPLS_2005

> <r_lp_Energy>
18.568

> <b_lp_Chiralities_Consistent>
1

> <s_lp_Variant>
AV-unprocessed.smi:1250-1

> <Gold.Version>
5.8.1

> <Gold.Id.Protein>
6NUR|6NUR_protein|mol2

> <Gold.PLP.Fitness>
42.8371

> <Gold.PLP.PLP>
-38.3383

> <Gold.PLP.part.hbond>
-2.0000

> <Gold.PLP.part.metal>
0.0000

> <Gold.PLP.part.buried>
-2.7589

> <Gold.PLP.part.nonpolar>
-33.5105

> <Gold.PLP.part.repulsive>
0.1141

> <Gold.PLP.ligand.clash>
0.0000

> <Gold.PLP.ligand.torsion>
0.7552

> <Gold.PLP.Chemscore.Hbond>
1.9913

> <Gold.PLP.Chemscore.CHOScore>
0.0000

> <Gold.PLP.Chemscore.Metal>
0.0000

> <Gold.Chemscore.Hbonds>
donor molecule, donor type, donor heavy atom, donor atom, acceptor molecule, acceptor atom, score
      P1  H  6896  6907       L1    19  0.47
      P1  H  7997  8008       L1     8  1.00

> <Gold.PLP.Chemscore.Internal.Correction>
0.0355

> <Gold.Rescore>
     Score         DG    S(hbond)    S(metal)    S(lipo)     H(rot)  DE(clash)    DE(int)     intcor
     16.78     -18.93       1.93        0.00      94.51       1.58       0.07       2.07       ----

> <Gold.Chemscore.Fitness>
16.7840

> <Gold.Chemscore.DG>
-18.9293

> <Gold.Chemscore.ZeroCoef>
-5.4800

> <Gold.Chemscore.Hbond>
1.9251

> <Gold.Chemscore.Metal>
0.0000

> <Gold.Chemscore.Lipo>
94.5129

> <Gold.Chemscore.Internal_Hbond>
0.0000

> <Gold.Chemscore.DEClash>
0.0713

> <Gold.Chemscore.DEInternal>
2.0740

> <Gold.Chemscore.Rot>
1.5775

> <Gold.Chemscore.Internal.Correction>
   9.000000E+99

> <Gold.Chemscore.Hbonds>
donor molecule, donor type, donor heavy atom, donor atom, acceptor molecule, acceptor atom, score
      P1  H  6896  6907       L1    19  0.46
      P1  H  7997  8008       L1     8  0.98

> <Gold.Chemscore.Hbond.Weighted>
-6.4298

> <Gold.Chemscore.Metal.Weighted>
-0.0000

> <Gold.Chemscore.Lipo.Weighted>
-11.0580

> <Gold.Chemscore.Internal_Hbond.Weighted>
0.0000

> <Gold.Chemscore.DEClash.Weighted>
0.0713

> <Gold.Chemscore.DEInternal.Weighted>
2.0740

> <Gold.Chemscore.Rot.Weighted>
4.0385

> <Gold.Chemscore.Internal.Correction.Weighted>
   9.000000E+99

> <Gold.Protein.RotatedTorsions>
[ 6907 6896 6895 6894 ] final   68.44 input  -60.11 | X-H torsion
[ 7974 7965 7964 7962 ] final -124.16 input  175.53 | X-H torsion
[ 8008 7997 7996 7995 ] final  -44.71 input   59.86 | X-H torsion
[ 10167 10162 10161 10158 ] final  149.54 input  -65.29 | X-H torsion
[ 10718 10713 10712 10709 ] final -151.71 input   66.30 | X-H torsion
[ 10763 10752 10751 10750 ] final  144.75 input  -60.55 | X-H torsion
[ 11005 11000 10999 10996 ] final   -4.55 input  -57.11 | X-H torsion

> <Gold.Protein.ActiveResidues>
 VAL166  LYS551  ARG553  GLY616  TRP617  ASP618  TYR619  PRO620  LYS621  CYS622 
 ASP623  PHE694  ASN695  SER759  ASP760  ASP761  ALA762  ILE779  LEU786  VAL792 
 PHE793  MET794  SER795  GLU796  ALA797  LYS798  CYS799  TRP800  GLU811  SER814 

> <Gold.Protein.RotatedAtoms>
  152.4620  134.5162  159.9768 H   0  0  0  0  0  0  0  0  0  0  0  0  # atno 6907 bound_to 6896
  151.5209  133.3461  159.2909 H   0  0  0  0  0  0  0  0  0  0  0  0  # atno 6908 bound_to 6896
  150.8587  134.7963  159.7128 H   0  0  0  0  0  0  0  0  0  0  0  0  # atno 6909 bound_to 6896
  145.0110  140.7906  143.4438 H   0  0  0  0  0  0  0  0  0  0  0  0  # atno 7974 bound_to 7965
  154.3998  140.1415  156.3728 H   0  0  0  0  0  0  0  0  0  0  0  0  # atno 8008 bound_to 7997
  155.8076  140.3474  155.5418 H   0  0  0  0  0  0  0  0  0  0  0  0  # atno 8009 bound_to 7997
  155.8419  140.0928  157.1719 H   0  0  0  0  0  0  0  0  0  0  0  0  # atno 8010 bound_to 7997
  139.4860  144.5594  151.7259 H   0  0  0  0  0  0  0  0  0  0  0  0  # atno 10167 bound_to 10162
  156.4629  130.8222  151.2452 H   0  0  0  0  0  0  0  0  0  0  0  0  # atno 10718 bound_to 10713
  153.9940  135.2929  155.3409 H   0  0  0  0  0  0  0  0  0  0  0  0  # atno 10763 bound_to 10752
  154.7198  135.5114  153.8797 H   0  0  0  0  0  0  0  0  0  0  0  0  # atno 10764 bound_to 10752
  153.0796  135.6675  154.0189 H   0  0  0  0  0  0  0  0  0  0  0  0  # atno 10765 bound_to 10752
  140.6815  133.9149  155.8558 H   0  0  0  0  0  0  0  0  0  0  0  0  # atno 11005 bound_to 11000
  145.2023  139.2246  143.5186 LP  0  0  0  0  0  0  0  0  0  0  0  0  # atno 17320 bound_to 7965
  146.3470  140.1843  142.8589 LP  0  0  0  0  0  0  0  0  0  0  0  0  # atno 17321 bound_to 7965
  140.5161  144.0951  150.6009 LP  0  0  0  0  0  0  0  0  0  0  0  0  # atno 17342 bound_to 10162
  140.3893  143.2761  152.0079 LP  0  0  0  0  0  0  0  0  0  0  0  0  # atno 17343 bound_to 10162
  157.7496  131.0101  150.3294 LP  0  0  0  0  0  0  0  0  0  0  0  0  # atno 17370 bound_to 10713
  156.3698  130.3861  149.7185 LP  0  0  0  0  0  0  0  0  0  0  0  0  # atno 17371 bound_to 10713
  141.0314  134.0751  157.4010 LP  0  0  0  0  0  0  0  0  0  0  0  0  # atno 17394 bound_to 11000
  139.8950  135.0139  156.6981 LP  0  0  0  0  0  0  0  0  0  0  0  0  # atno 17395 bound_to 11000

$$$$
