AV-unprocessed.smi:2713|AV-procd|sdf|10479|dock6
  -GOLD-   2272014523D 1   1.00000     0.00000
 Structure written by MMmdl.
 52 53  0  0  0  0  0  0  0  0  1 V2000
  138.5315  141.6016  155.7776 C   0  0  0  0  0  0  0  0  0  0  0  0
  139.2532  141.7973  154.4258 C   0  0  0  0  0  0  0  0  0  0  0  0
  138.1572  141.8706  153.3414 C   0  0  0  0  0  0  0  0  0  0  0  0
  139.9960  143.1489  154.4253 C   0  0  0  0  0  0  0  0  0  0  0  0
  140.1750  140.5836  154.0663 C   0  0  0  0  0  0  0  0  0  0  0  0
  141.3010  140.0800  155.0261 C   0  0  0  0  0  0  0  0  0  0  0  0
  142.2626  141.1984  155.4833 C   0  0  0  0  0  0  0  0  0  0  0  0
  140.6128  139.4696  156.2680 C   0  0  0  0  0  0  0  0  0  0  0  0
  142.0081  138.9974  154.3329 N   0  0  0  0  0  0  0  0  0  0  0  0
  141.1954  137.9446  153.7338 C   0  0  0  0  0  0  0  0  0  0  0  0
  142.0414  136.8081  153.1961 C   0  0  0  0  0  0  0  0  0  0  0  0
  141.8115  135.4653  153.5592 C   0  0  0  0  0  0  0  0  0  0  0  0
  142.5656  134.4591  153.0670 N   0  0  0  0  0  0  0  0  0  0  0  0
  143.5467  134.7733  152.2091 C   0  0  0  0  0  0  0  0  0  0  0  0
  144.3264  133.7264  151.7013 N   0  0  0  0  0  0  0  0  0  0  0  0
  144.6836  133.6382  150.2836 C   0  0  0  0  0  0  0  0  0  0  0  0
  144.8168  132.1696  149.8455 C   0  0  0  0  0  0  0  0  0  0  0  0
  145.7499  131.4987  150.6835 O   0  0  0  0  0  0  0  0  0  0  0  0
  145.3218  131.4880  152.0397 C   0  0  0  0  0  0  0  0  0  0  0  0
  145.2068  132.9306  152.5604 C   0  0  0  0  0  0  0  0  0  0  0  0
  143.8383  136.0161  151.8003 N   0  0  0  0  0  0  0  0  0  0  0  0
  143.0936  137.0318  152.2863 C   0  0  0  0  0  0  0  0  0  0  0  0
  137.7623  142.3610  155.9235 H   0  0  0  0  0  0  0  0  0  0  0  0
  139.1987  141.6815  156.6321 H   0  0  0  0  0  0  0  0  0  0  0  0
  138.0385  140.6303  155.8308 H   0  0  0  0  0  0  0  0  0  0  0  0
  137.5854  140.9432  153.2893 H   0  0  0  0  0  0  0  0  0  0  0  0
  138.5828  142.0487  152.3531 H   0  0  0  0  0  0  0  0  0  0  0  0
  137.4505  142.6783  153.5368 H   0  0  0  0  0  0  0  0  0  0  0  0
  139.3047  143.9787  154.5761 H   0  0  0  0  0  0  0  0  0  0  0  0
  140.5086  143.3209  153.4782 H   0  0  0  0  0  0  0  0  0  0  0  0
  140.7374  143.2082  155.2212 H   0  0  0  0  0  0  0  0  0  0  0  0
  139.5155  139.7411  153.8523 H   0  0  0  0  0  0  0  0  0  0  0  0
  140.6508  140.7963  153.1069 H   0  0  0  0  0  0  0  0  0  0  0  0
  141.7104  142.0717  155.8315 H   0  0  0  0  0  0  0  0  0  0  0  0
  142.9344  141.5133  154.6860 H   0  0  0  0  0  0  0  0  0  0  0  0
  142.8905  140.8757  156.3145 H   0  0  0  0  0  0  0  0  0  0  0  0
  139.9853  140.2072  156.7697 H   0  0  0  0  0  0  0  0  0  0  0  0
  141.3281  139.1150  157.0100 H   0  0  0  0  0  0  0  0  0  0  0  0
  139.9723  138.6283  155.9995 H   0  0  0  0  0  0  0  0  0  0  0  0
  142.6327  139.3867  153.6410 H   0  0  0  0  0  0  0  0  0  0  0  0
  140.5115  137.5279  154.4728 H   0  0  0  0  0  0  0  0  0  0  0  0
  140.5927  138.3454  152.9198 H   0  0  0  0  0  0  0  0  0  0  0  0
  141.0222  135.1953  154.2456 H   0  0  0  0  0  0  0  0  0  0  0  0
  143.9407  134.1179  149.6467 H   0  0  0  0  0  0  0  0  0  0  0  0
  145.6257  134.1643  150.1262 H   0  0  0  0  0  0  0  0  0  0  0  0
  143.8501  131.6643  149.8805 H   0  0  0  0  0  0  0  0  0  0  0  0
  145.1656  132.1165  148.8143 H   0  0  0  0  0  0  0  0  0  0  0  0
  144.3684  130.9645  152.1296 H   0  0  0  0  0  0  0  0  0  0  0  0
  146.0466  130.9321  152.6347 H   0  0  0  0  0  0  0  0  0  0  0  0
  146.1909  133.4004  152.5763 H   0  0  0  0  0  0  0  0  0  0  0  0
  144.8594  132.8965  153.5924 H   0  0  0  0  0  0  0  0  0  0  0  0
  143.3416  138.0263  151.9449 H   0  0  0  0  0  0  0  0  0  0  0  0
  1  2  1  0  0  0  0
  1 23  1  0  0  0  0
  1 24  1  0  0  0  0
  1 25  1  0  0  0  0
  2  3  1  0  0  0  0
  2  4  1  0  0  0  0
  2  5  1  0  0  0  0
  3 26  1  0  0  0  0
  3 27  1  0  0  0  0
  3 28  1  0  0  0  0
  4 29  1  0  0  0  0
  4 30  1  0  0  0  0
  4 31  1  0  0  0  0
  5  6  1  0  0  0  0
  5 32  1  0  0  0  0
  5 33  1  0  0  0  0
  6  7  1  0  0  0  0
  6  8  1  0  0  0  0
  6  9  1  0  0  0  0
  7 34  1  0  0  0  0
  7 35  1  0  0  0  0
  7 36  1  0  0  0  0
  8 37  1  0  0  0  0
  8 38  1  0  0  0  0
  8 39  1  0  0  0  0
  9 10  1  0  0  0  0
  9 40  1  0  0  0  0
 10 11  1  0  0  0  0
 10 41  1  0  0  0  0
 10 42  1  0  0  0  0
 11 22  1  0  0  0  0
 11 12  2  0  0  0  0
 12 13  1  0  0  0  0
 12 43  1  0  0  0  0
 13 14  2  0  0  0  0
 14 15  1  0  0  0  0
 14 21  1  0  0  0  0
 15 20  1  0  0  0  0
 15 16  1  0  0  0  0
 16 17  1  0  0  0  0
 16 44  1  0  0  0  0
 16 45  1  0  0  0  0
 17 18  1  0  0  0  0
 17 46  1  0  0  0  0
 17 47  1  0  0  0  0
 18 19  1  0  0  0  0
 19 20  1  0  0  0  0
 19 48  1  0  0  0  0
 19 49  1  0  0  0  0
 20 50  1  0  0  0  0
 20 51  1  0  0  0  0
 21 22  2  0  0  0  0
 22 52  1  0  0  0  0
M  END
> <s_m_source_file>
AV-unprocessed.smi

> <i_m_source_file_index>
2713

> <i_lp_mmshare_version>
43012

> <i_f3d_flags>
0

> <s_epik_input>
W0NIM11DKFtDSDNdKShbQ0gzXSlbQ0gyXUMoW0NIM10pKFtDSDNdKVtOSF1bQ0gyXWMxW2NIXW5jKG5bY0hdMSlOMltDSDJdW0NIMl1PW0NIMl1bQ0gyXTI=

> <s_epik_cmdline>
J2VwaWtfcHl0aG9uJywgJy1waCcsICc3LjAnLCAnLXRuJywgJzgnLCAnLW1hJywgJzIwMCcsICctbWV0YWxfYmluZGluZycsICctaW1hZScsICc8aW5maWxlLm1hZT4nLCAnLW9tYWUnLCAnPG91dGZpbGUubWFlPic=

> <r_lp_tautomer_probability>
1

> <r_epik_Ionization_Penalty>
1.66691

> <r_epik_Ionization_Penalty_Charging>
0

> <r_epik_Ionization_Penalty_Neutral>
1.66691

> <r_epik_State_Penalty>
1.77023

> <r_epik_Charging_Adjusted_Penalty>
1.77023

> <i_epik_Tot_Q>
0

> <i_epik_Tot_abs_Q>
0

> <r_epik_Metal_State_Penalty>
1.77023

> <b_epik_Metal_Only>
0

> <s_lp_Force_Field>
OPLS_2005

> <r_lp_Energy>
27.9038

> <b_lp_Chiralities_Consistent>
1

> <s_lp_Variant>
AV-unprocessed.smi:2713-2

> <Gold.Version>
5.8.1

> <Gold.Id.Protein>
6NUR|6NUR_protein|mol2

> <Gold.PLP.Fitness>
37.5078

> <Gold.PLP.PLP>
-27.8615

> <Gold.PLP.part.hbond>
-1.0000

> <Gold.PLP.part.metal>
0.0000

> <Gold.PLP.part.buried>
-6.6278

> <Gold.PLP.part.nonpolar>
-21.3700

> <Gold.PLP.part.repulsive>
0.7691

> <Gold.PLP.ligand.clash>
0.0000

> <Gold.PLP.ligand.torsion>
1.1714

> <Gold.PLP.Chemscore.Hbond>
1.0000

> <Gold.PLP.Chemscore.CHOScore>
2.9443

> <Gold.PLP.Chemscore.Metal>
0.0000

> <Gold.Chemscore.Hbonds>
donor molecule, donor type, donor heavy atom, donor atom, acceptor molecule, acceptor atom, score
      L1  H     9    40       P1 10175  1.00
      L1  C    12    43       P1 11000  0.54
      L1  C    22    52       P1 10171  0.91
      L1  C    22    52       P1 10175  1.00

> <Gold.PLP.Chemscore.Internal.Correction>
0.1563

> <Gold.Rescore>
     Score         DG    S(hbond)    S(metal)    S(lipo)     H(rot)  DE(clash)    DE(int)     intcor
     10.97     -12.77       1.00        0.00      66.33       1.48       0.30       1.51       ----

> <Gold.Chemscore.Fitness>
10.9679

> <Gold.Chemscore.DG>
-12.7745

> <Gold.Chemscore.ZeroCoef>
-5.4800

> <Gold.Chemscore.Hbond>
0.9953

> <Gold.Chemscore.Metal>
0.0000

> <Gold.Chemscore.Lipo>
66.3264

> <Gold.Chemscore.Internal_Hbond>
0.0000

> <Gold.Chemscore.DEClash>
0.3006

> <Gold.Chemscore.DEInternal>
1.5060

> <Gold.Chemscore.Rot>
1.4805

> <Gold.Chemscore.Internal.Correction>
   9.000000E+99

> <Gold.Chemscore.Hbonds>
donor molecule, donor type, donor heavy atom, donor atom, acceptor molecule, acceptor atom, score
      L1  H     9    40       P1 10175  1.00

> <Gold.Chemscore.Hbond.Weighted>
-3.3243

> <Gold.Chemscore.Metal.Weighted>
-0.0000

> <Gold.Chemscore.Lipo.Weighted>
-7.7602

> <Gold.Chemscore.Internal_Hbond.Weighted>
0.0000

> <Gold.Chemscore.DEClash.Weighted>
0.3006

> <Gold.Chemscore.DEInternal.Weighted>
1.5060

> <Gold.Chemscore.Rot.Weighted>
3.7900

> <Gold.Chemscore.Internal.Correction.Weighted>
   9.000000E+99

> <Gold.Protein.RotatedTorsions>
[ 6907 6896 6895 6894 ] final   10.68 input  -60.11 | X-H torsion
[ 7974 7965 7964 7962 ] final  163.56 input  175.53 | X-H torsion
[ 8008 7997 7996 7995 ] final  -18.98 input   59.86 | X-H torsion
[ 10167 10162 10161 10158 ] final -122.40 input  -65.29 | X-H torsion
[ 10718 10713 10712 10709 ] final   44.29 input   66.30 | X-H torsion
[ 10763 10752 10751 10750 ] final  117.58 input  -60.55 | X-H torsion
[ 11005 11000 10999 10996 ] final  176.36 input  -57.11 | X-H torsion

> <Gold.Protein.ActiveResidues>
 VAL166  LYS551  ARG553  GLY616  TRP617  ASP618  TYR619  PRO620  LYS621  CYS622 
 ASP623  PHE694  ASN695  SER759  ASP760  ASP761  ALA762  ILE779  LEU786  VAL792 
 PHE793  MET794  SER795  GLU796  ALA797  LYS798  CYS799  TRP800  GLU811  SER814 

> <Gold.Protein.RotatedAtoms>
  151.7421  135.0852  160.0317 H   0  0  0  0  0  0  0  0  0  0  0  0  # atno 6907 bound_to 6896
  152.3472  133.6132  159.5927 H   0  0  0  0  0  0  0  0  0  0  0  0  # atno 6908 bound_to 6896
  150.7516  133.9546  159.3538 H   0  0  0  0  0  0  0  0  0  0  0  0  # atno 6909 bound_to 6896
  144.7584  139.8200  143.6341 H   0  0  0  0  0  0  0  0  0  0  0  0  # atno 7974 bound_to 7965
  154.4868  140.2101  155.9637 H   0  0  0  0  0  0  0  0  0  0  0  0  # atno 8008 bound_to 7997
  156.1248  140.3207  155.8230 H   0  0  0  0  0  0  0  0  0  0  0  0  # atno 8009 bound_to 7997
  155.4403  140.0509  157.3001 H   0  0  0  0  0  0  0  0  0  0  0  0  # atno 8010 bound_to 7997
  140.0147  143.5405  152.2247 H   0  0  0  0  0  0  0  0  0  0  0  0  # atno 10167 bound_to 10162
  157.4252  130.7992  149.7551 H   0  0  0  0  0  0  0  0  0  0  0  0  # atno 10718 bound_to 10713
  153.5545  135.3533  155.2773 H   0  0  0  0  0  0  0  0  0  0  0  0  # atno 10763 bound_to 10752
  154.8703  135.4122  154.2900 H   0  0  0  0  0  0  0  0  0  0  0  0  # atno 10764 bound_to 10752
  153.3633  135.7061  153.6764 H   0  0  0  0  0  0  0  0  0  0  0  0  # atno 10765 bound_to 10752
  140.3723  134.7019  157.4399 H   0  0  0  0  0  0  0  0  0  0  0  0  # atno 11005 bound_to 11000
  146.1621  139.4739  142.9982 LP  0  0  0  0  0  0  0  0  0  0  0  0  # atno 17320 bound_to 7965
  145.6700  141.0219  143.1662 LP  0  0  0  0  0  0  0  0  0  0  0  0  # atno 17321 bound_to 7965
  139.6181  144.7623  151.2802 LP  0  0  0  0  0  0  0  0  0  0  0  0  # atno 17342 bound_to 10162
  140.7367  143.6700  150.8090 LP  0  0  0  0  0  0  0  0  0  0  0  0  # atno 17343 bound_to 10162
  155.9894  130.3952  150.3075 LP  0  0  0  0  0  0  0  0  0  0  0  0  # atno 17370 bound_to 10713
  157.1227  131.0251  151.3002 LP  0  0  0  0  0  0  0  0  0  0  0  0  # atno 17371 bound_to 10713
  140.0542  134.6087  155.8824 LP  0  0  0  0  0  0  0  0  0  0  0  0  # atno 17394 bound_to 11000
  141.1950  133.6585  156.5625 LP  0  0  0  0  0  0  0  0  0  0  0  0  # atno 17395 bound_to 11000

$$$$
