AV-unprocessed.smi:2061|AV-procd|sdf|8372|dock1
  -GOLD-   2272011 43D 1   1.00000     0.00000
 Structure written by MMmdl.
 46 47  0  0  0  0  0  0  0  0  2 V2000
  152.7332  140.1651  158.0381 C   0  0  0  0  0  0  0  0  0  0  0  0
  152.1142  139.5643  156.8231 C   0  0  0  0  0  0  0  0  0  0  0  0
  151.0903  138.6774  156.6422 C   0  0  0  0  0  0  0  0  0  0  0  0
  151.0297  138.5437  155.2295 C   0  0  0  0  0  0  0  0  0  0  0  0
  150.0727  137.6938  154.6188 N   0  0  0  0  0  0  0  0  0  0  0  0
  149.0195  137.0976  155.2024 C   0  0  0  0  0  0  0  0  0  0  0  0
  148.7003  137.2177  156.3859 O   0  0  0  0  0  0  0  0  0  0  0  0
  148.3426  136.3340  154.3324 N   0  0  0  0  0  0  0  0  0  0  0  0
  147.1597  135.5468  154.6686 C   0  0  0  0  0  0  0  0  0  0  0  0
  146.9657  134.3179  153.7399 C   0  0  2  0  0  0  0  0  0  0  0  0
  148.2359  133.4341  153.7691 C   0  0  0  0  0  0  0  0  0  0  0  0
  146.5819  134.7634  152.3581 N   0  3  1  0  0  0  0  0  0  0  0  0
  146.3778  133.6989  151.3383 C   0  0  0  0  0  0  0  0  0  0  0  0
  145.0423  132.9615  151.5636 C   0  0  2  0  0  0  0  0  0  0  0  0
  144.7925  131.8847  150.5023 C   0  0  0  0  0  0  0  0  0  0  0  0
  143.9850  133.9117  151.4872 O   0  0  0  0  0  0  0  0  0  0  0  0
  144.0769  134.9266  152.4817 C   0  0  2  0  0  0  0  0  0  0  0  0
  142.8675  135.8546  152.3245 C   0  0  0  0  0  0  0  0  0  0  0  0
  145.4134  135.6862  152.3183 C   0  0  0  0  0  0  0  0  0  0  0  0
  151.9338  139.2827  154.6047 N   0  0  0  0  0  0  0  0  0  0  0  0
  152.6337  139.9404  155.6231 O   0  0  0  0  0  0  0  0  0  0  0  0
  152.2911  139.7533  158.9454 H   0  0  0  0  0  0  0  0  0  0  0  0
  152.5881  141.2455  158.0510 H   0  0  0  0  0  0  0  0  0  0  0  0
  153.8048  139.9664  158.0644 H   0  0  0  0  0  0  0  0  0  0  0  0
  150.4850  138.2032  157.4003 H   0  0  0  0  0  0  0  0  0  0  0  0
  150.2130  137.5126  153.6358 H   0  0  0  0  0  0  0  0  0  0  0  0
  148.6675  136.2903  153.3774 H   0  0  0  0  0  0  0  0  0  0  0  0
  147.2364  135.2654  155.7178 H   0  0  0  0  0  0  0  0  0  0  0  0
  146.2902  136.2012  154.5982 H   0  0  0  0  0  0  0  0  0  0  0  0
  146.1554  133.7064  154.1352 H   0  0  0  0  0  0  0  0  0  0  0  0
  148.5211  133.1694  154.7870 H   0  0  0  0  0  0  0  0  0  0  0  0
  149.0867  133.9430  153.3147 H   0  0  0  0  0  0  0  0  0  0  0  0
  148.0877  132.4862  153.2523 H   0  0  0  0  0  0  0  0  0  0  0  0
  146.3538  134.1777  150.3580 H   0  0  0  0  0  0  0  0  0  0  0  0
  147.2174  133.0077  151.2851 H   0  0  0  0  0  0  0  0  0  0  0  0
  145.0314  132.4866  152.5460 H   0  0  0  0  0  0  0  0  0  0  0  0
  145.5697  131.1205  150.5292 H   0  0  0  0  0  0  0  0  0  0  0  0
  144.7780  132.3127  149.4994 H   0  0  0  0  0  0  0  0  0  0  0  0
  143.8350  131.3899  150.6667 H   0  0  0  0  0  0  0  0  0  0  0  0
  144.0182  134.4642  153.4677 H   0  0  0  0  0  0  0  0  0  0  0  0
  142.8792  136.6450  153.0753 H   0  0  0  0  0  0  0  0  0  0  0  0
  141.9347  135.3020  152.4399 H   0  0  0  0  0  0  0  0  0  0  0  0
  142.8554  136.3262  151.3414 H   0  0  0  0  0  0  0  0  0  0  0  0
  145.4901  136.4755  153.0630 H   0  0  0  0  0  0  0  0  0  0  0  0
  145.4207  136.1937  151.3526 H   0  0  0  0  0  0  0  0  0  0  0  0
  147.3764  135.2949  152.0315 H   0  0  0  0  0  0  0  0  0  0  0  0
  1  2  1  0  0  0  0
  1 22  1  0  0  0  0
  1 23  1  0  0  0  0
  1 24  1  0  0  0  0
  2 21  1  0  0  0  0
  2  3  2  0  0  0  0
  3  4  1  0  0  0  0
  3 25  1  0  0  0  0
  4  5  1  0  0  0  0
  4 20  2  0  0  0  0
  5  6  1  0  0  0  0
  5 26  1  0  0  0  0
  6  7  2  0  0  0  0
  6  8  1  0  0  0  0
  8  9  1  0  0  0  0
  8 27  1  0  0  0  0
  9 10  1  0  0  0  0
  9 28  1  0  0  0  0
  9 29  1  0  0  0  0
 10 11  1  0  0  0  0
 10 12  1  0  0  0  0
 10 30  1  0  0  0  0
 11 31  1  0  0  0  0
 11 32  1  0  0  0  0
 11 33  1  0  0  0  0
 12 19  1  0  0  0  0
 12 13  1  0  0  0  0
 12 46  1  0  0  0  0
 13 14  1  0  0  0  0
 13 34  1  0  0  0  0
 13 35  1  0  0  0  0
 14 15  1  0  0  0  0
 14 16  1  0  0  0  0
 14 36  1  0  0  0  0
 15 37  1  0  0  0  0
 15 38  1  0  0  0  0
 15 39  1  0  0  0  0
 16 17  1  0  0  0  0
 17 18  1  0  0  0  0
 17 19  1  0  0  0  0
 17 40  1  0  0  0  0
 18 41  1  0  0  0  0
 18 42  1  0  0  0  0
 18 43  1  0  0  0  0
 19 44  1  0  0  0  0
 19 45  1  0  0  0  0
 20 21  1  0  0  0  0
M  CHG  1  12   1
M  END
> <s_m_source_file>
AV-unprocessed.smi

> <i_m_source_file_index>
2061

> <i_lp_mmshare_version>
43012

> <i_f3d_flags>
0

> <s_epik_input>
W0NIM11jMVtjSF1jKG5vMSlbTkhdQyg9TylbTkhdW0NIMl1bQ0BIXShbQ0gzXSlOMltDSDJdW0NAQEhdKFtDSDNdKU9bQ0BASF0oW0NIM10pW0NIMl0y

> <s_epik_cmdline>
J2VwaWtfcHl0aG9uJywgJy1waCcsICc3LjAnLCAnLXRuJywgJzgnLCAnLW1hJywgJzIwMCcsICctbWV0YWxfYmluZGluZycsICctaW1hZScsICc8aW5maWxlLm1hZT4nLCAnLW9tYWUnLCAnPG91dGZpbGUubWFlPic=

> <r_epik_Ionization_Penalty>
0.707076

> <r_epik_Ionization_Penalty_Charging>
0.707039

> <r_epik_Ionization_Penalty_Neutral>
3.6548e-05

> <r_epik_State_Penalty>
0.730276

> <r_epik_Charging_Adjusted_Penalty>
1.43732

> <i_epik_Tot_Q>
1

> <i_epik_Tot_abs_Q>
1

> <r_epik_Metal_State_Penalty>
0.743132

> <b_epik_Metal_Only>
0

> <s_lp_Force_Field>
OPLS_2005

> <r_lp_Energy>
17.7624

> <b_lp_Chiralities_Consistent>
1

> <s_lp_Variant>
AV-unprocessed.smi:2061-13

> <Gold.Version>
5.8.1

> <Gold.Id.Protein>
6NUR|6NUR_protein|mol2

> <Gold.PLP.Fitness>
42.1065

> <Gold.PLP.PLP>
-27.5503

> <Gold.PLP.part.hbond>
-4.0522

> <Gold.PLP.part.metal>
0.0000

> <Gold.PLP.part.buried>
-5.1017

> <Gold.PLP.part.nonpolar>
-18.5937

> <Gold.PLP.part.repulsive>
0.2575

> <Gold.PLP.ligand.clash>
0.0000

> <Gold.PLP.ligand.torsion>
0.2573

> <Gold.PLP.Chemscore.Hbond>
5.0000

> <Gold.PLP.Chemscore.CHOScore>
0.0000

> <Gold.PLP.Chemscore.Metal>
0.0000

> <Gold.Chemscore.Hbonds>
donor molecule, donor type, donor heavy atom, donor atom, acceptor molecule, acceptor atom, score
      L1  H     8    27       P1  7948  1.00
      L1  H    12    46       P1  7948  2.00
      P1  H  7989  7998       L1    20  0.76
      P1  H  7997  8009       L1    21  1.00

> <Gold.PLP.Chemscore.Internal.Correction>
0.0709

> <Gold.Rescore>
     Score         DG    S(hbond)    S(metal)    S(lipo)     H(rot)  DE(clash)    DE(int)     intcor
     18.06     -19.75       3.35        0.00      60.89       1.58       0.06       1.64       ----

> <Gold.Chemscore.Fitness>
18.0582

> <Gold.Chemscore.DG>
-19.7517

> <Gold.Chemscore.ZeroCoef>
-5.4800

> <Gold.Chemscore.Hbond>
3.3536

> <Gold.Chemscore.Metal>
0.0000

> <Gold.Chemscore.Lipo>
60.8900

> <Gold.Chemscore.Internal_Hbond>
0.0000

> <Gold.Chemscore.DEClash>
0.0556

> <Gold.Chemscore.DEInternal>
1.6379

> <Gold.Chemscore.Rot>
1.5834

> <Gold.Chemscore.Internal.Correction>
   9.000000E+99

> <Gold.Chemscore.Hbonds>
donor molecule, donor type, donor heavy atom, donor atom, acceptor molecule, acceptor atom, score
      L1  H     5    26       P1  7948  0.01
      L1  H     8    27       P1  7948  0.93
      L1  H    12    46       P1  7948  0.99
      P1  H  7989  7998       L1    20  0.11
      P1  H  7997  8009       L1    21  0.45

> <Gold.Chemscore.Hbond.Weighted>
-11.2010

> <Gold.Chemscore.Metal.Weighted>
-0.0000

> <Gold.Chemscore.Lipo.Weighted>
-7.1241

> <Gold.Chemscore.Internal_Hbond.Weighted>
0.0000

> <Gold.Chemscore.DEClash.Weighted>
0.0556

> <Gold.Chemscore.DEInternal.Weighted>
1.6379

> <Gold.Chemscore.Rot.Weighted>
4.0535

> <Gold.Chemscore.Internal.Correction.Weighted>
   9.000000E+99

> <Gold.Protein.RotatedTorsions>
[ 6907 6896 6895 6894 ] final   50.18 input  -60.11 | X-H torsion
[ 7974 7965 7964 7962 ] final  167.28 input  175.53 | X-H torsion
[ 8008 7997 7996 7995 ] final -139.72 input   59.86 | X-H torsion
[ 10167 10162 10161 10158 ] final -113.05 input  -65.29 | X-H torsion
[ 10718 10713 10712 10709 ] final -115.34 input   66.30 | X-H torsion
[ 10763 10752 10751 10750 ] final  -96.15 input  -60.55 | X-H torsion
[ 11005 11000 10999 10996 ] final  -64.90 input  -57.11 | X-H torsion

> <Gold.Protein.ActiveResidues>
 VAL166  LYS551  ARG553  GLY616  TRP617  ASP618  TYR619  PRO620  LYS621  CYS622 
 ASP623  PHE694  ASN695  SER759  ASP760  ASP761  ALA762  ILE779  LEU786  VAL792 
 PHE793  MET794  SER795  GLU796  ALA797  LYS798  CYS799  TRP800  GLU811  SER814 

> <Gold.Protein.RotatedAtoms>
  152.2990  134.7634  160.0361 H   0  0  0  0  0  0  0  0  0  0  0  0  # atno 6907 bound_to 6896
  151.8153  133.3382  159.3576 H   0  0  0  0  0  0  0  0  0  0  0  0  # atno 6908 bound_to 6896
  150.7265  134.5554  159.5860 H   0  0  0  0  0  0  0  0  0  0  0  0  # atno 6909 bound_to 6896
  144.7430  139.8738  143.6391 H   0  0  0  0  0  0  0  0  0  0  0  0  # atno 7974 bound_to 7965
  155.4495  140.0537  157.3002 H   0  0  0  0  0  0  0  0  0  0  0  0  # atno 8008 bound_to 7997
  154.4783  140.2070  155.9780 H   0  0  0  0  0  0  0  0  0  0  0  0  # atno 8009 bound_to 7997
  156.1167  140.3195  155.8154 H   0  0  0  0  0  0  0  0  0  0  0  0  # atno 8010 bound_to 7997
  140.1160  143.4485  152.1722 H   0  0  0  0  0  0  0  0  0  0  0  0  # atno 10167 bound_to 10162
  156.0889  130.6076  150.8893 H   0  0  0  0  0  0  0  0  0  0  0  0  # atno 10718 bound_to 10713
  154.7213  135.5094  153.8817 H   0  0  0  0  0  0  0  0  0  0  0  0  # atno 10763 bound_to 10752
  153.0865  135.6647  153.9947 H   0  0  0  0  0  0  0  0  0  0  0  0  # atno 10764 bound_to 10752
  153.9769  135.3033  155.3402 H   0  0  0  0  0  0  0  0  0  0  0  0  # atno 10765 bound_to 10752
  141.1438  133.6673  156.5904 H   0  0  0  0  0  0  0  0  0  0  0  0  # atno 11005 bound_to 11000
  146.1261  139.4287  143.0198 LP  0  0  0  0  0  0  0  0  0  0  0  0  # atno 17320 bound_to 7965
  145.7233  141.0067  143.1391 LP  0  0  0  0  0  0  0  0  0  0  0  0  # atno 17321 bound_to 7965
  139.5594  144.7395  151.4200 LP  0  0  0  0  0  0  0  0  0  0  0  0  # atno 17342 bound_to 10162
  140.6899  143.7886  150.7240 LP  0  0  0  0  0  0  0  0  0  0  0  0  # atno 17343 bound_to 10162
  157.6033  131.0940  150.8923 LP  0  0  0  0  0  0  0  0  0  0  0  0  # atno 17370 bound_to 10713
  156.9076  130.5269  149.5281 LP  0  0  0  0  0  0  0  0  0  0  0  0  # atno 17371 bound_to 10713
  140.3768  134.7558  157.4635 LP  0  0  0  0  0  0  0  0  0  0  0  0  # atno 17394 bound_to 11000
  140.0668  134.5918  155.8686 LP  0  0  0  0  0  0  0  0  0  0  0  0  # atno 17395 bound_to 11000

$$$$
