AV-unprocessed.smi:2401|AV-procd|sdf|9503|dock2
  -GOLD-   2272013133D 1   1.00000     0.00000
 Structure written by MMmdl.
 34 35  0  0  0  0  0  0  0  0  1 V2000
  148.1240  139.0915  153.3653 C   0  0  0  0  0  0  0  0  0  0  0  0
  149.2176  139.7322  154.2016 C   0  0  0  0  0  0  0  0  0  0  0  0
  148.9327  141.0097  154.6917 N   0  0  0  0  0  0  0  0  0  0  0  0
  149.8056  141.6323  155.4137 C   0  0  0  0  0  0  0  0  0  0  0  0
  151.0489  141.0584  155.7289 N   0  0  0  0  0  0  0  0  0  0  0  0
  151.9545  141.8748  156.5560 C   0  0  0  0  0  0  0  0  0  0  0  0
  151.1945  142.9145  157.4110 C   0  0  2  0  0  0  0  0  0  0  0  0
  151.2551  144.1728  156.7699 O   0  0  0  0  0  0  0  0  0  0  0  0
  151.7712  142.9913  158.8166 C   0  0  0  0  0  0  0  0  0  0  0  0
  152.7045  142.0257  159.2514 C   0  0  0  0  0  0  0  0  0  0  0  0
  153.2451  142.0956  160.5502 C   0  0  0  0  0  0  0  0  0  0  0  0
  152.8580  143.1324  161.4210 C   0  0  0  0  0  0  0  0  0  0  0  0
  153.5211  143.2173  163.0115 Cl  0  0  0  0  0  0  0  0  0  0  0  0
  151.9298  144.1006  160.9915 C   0  0  0  0  0  0  0  0  0  0  0  0
  151.3885  144.0308  159.6932 C   0  0  0  0  0  0  0  0  0  0  0  0
  151.4074  139.8171  155.2906 C   0  0  0  0  0  0  0  0  0  0  0  0
  152.5002  139.3208  155.5702 O   0  0  0  0  0  0  0  0  0  0  0  0
  150.4042  139.1212  154.4681 C   0  0  0  0  0  0  0  0  0  0  0  0
  150.7702  137.7320  153.9602 C   0  0  0  0  0  0  0  0  0  0  0  0
  148.4889  138.8722  152.3616 H   0  0  0  0  0  0  0  0  0  0  0  0
  147.2596  139.7501  153.2697 H   0  0  0  0  0  0  0  0  0  0  0  0
  147.7865  138.1623  153.8251 H   0  0  0  0  0  0  0  0  0  0  0  0
  149.6356  142.6326  155.8159 H   0  0  0  0  0  0  0  0  0  0  0  0
  152.5081  141.2068  157.2196 H   0  0  0  0  0  0  0  0  0  0  0  0
  152.7305  142.3590  155.9598 H   0  0  0  0  0  0  0  0  0  0  0  0
  150.1428  142.6354  157.4875 H   0  0  0  0  0  0  0  0  0  0  0  0
  150.3886  144.3979  156.4679 H   0  0  0  0  0  0  0  0  0  0  0  0
  153.0103  141.2271  158.5915 H   0  0  0  0  0  0  0  0  0  0  0  0
  153.9577  141.3525  160.8767 H   0  0  0  0  0  0  0  0  0  0  0  0
  151.6318  144.8982  161.6562 H   0  0  0  0  0  0  0  0  0  0  0  0
  150.6789  144.7790  159.3710 H   0  0  0  0  0  0  0  0  0  0  0  0
  150.9650  137.0641  154.7999 H   0  0  0  0  0  0  0  0  0  0  0  0
  151.6725  137.7808  153.3498 H   0  0  0  0  0  0  0  0  0  0  0  0
  149.9894  137.2764  153.3536 H   0  0  0  0  0  0  0  0  0  0  0  0
  1  2  1  0  0  0  0
  1 20  1  0  0  0  0
  1 21  1  0  0  0  0
  1 22  1  0  0  0  0
  2 18  2  0  0  0  0
  2  3  1  0  0  0  0
  3  4  2  0  0  0  0
  4  5  1  0  0  0  0
  4 23  1  0  0  0  0
  5  6  1  0  0  0  0
  5 16  1  0  0  0  0
  6  7  1  0  0  0  0
  6 24  1  0  0  0  0
  6 25  1  0  0  0  0
  7  8  1  0  0  0  0
  7  9  1  0  0  0  0
  7 26  1  0  0  0  0
  8 27  1  0  0  0  0
  9 15  1  0  0  0  0
  9 10  2  0  0  0  0
 10 11  1  0  0  0  0
 10 28  1  0  0  0  0
 11 12  2  0  0  0  0
 11 29  1  0  0  0  0
 12 13  1  0  0  0  0
 12 14  1  0  0  0  0
 14 15  2  0  0  0  0
 14 30  1  0  0  0  0
 15 31  1  0  0  0  0
 16 17  2  0  0  0  0
 16 18  1  0  0  0  0
 18 19  1  0  0  0  0
 19 32  1  0  0  0  0
 19 33  1  0  0  0  0
 19 34  1  0  0  0  0
M  END
> <s_m_source_file>
AV-unprocessed.smi

> <i_m_source_file_index>
2401

> <i_lp_mmshare_version>
43012

> <i_f3d_flags>
0

> <s_epik_input>
W0NIM11jMW5bY0hdbihjKD1PKWMxW0NIM10pW0NIMl1bQ0BIXShbT0hdKWMyW2NIXVtjSF1jKENsKVtjSF1bY0hdMg==

> <s_epik_cmdline>
J2VwaWtfcHl0aG9uJywgJy1waCcsICc3LjAnLCAnLXRuJywgJzgnLCAnLW1hJywgJzIwMCcsICctbWV0YWxfYmluZGluZycsICctaW1hZScsICc8aW5maWxlLm1hZT4nLCAnLW9tYWUnLCAnPG91dGZpbGUubWFlPic=

> <r_lp_tautomer_probability>
1

> <r_epik_Ionization_Penalty>
5.07713e-05

> <r_epik_Ionization_Penalty_Charging>
7.56727e-08

> <r_epik_Ionization_Penalty_Neutral>
5.06957e-05

> <r_epik_State_Penalty>
-0

> <r_epik_Charging_Adjusted_Penalty>
7.56727e-08

> <i_epik_Tot_Q>
0

> <i_epik_Tot_abs_Q>
0

> <r_epik_Metal_State_Penalty>
-0

> <b_epik_Metal_Only>
0

> <s_lp_Force_Field>
OPLS_2005

> <r_lp_Energy>
19.2898

> <b_lp_Chiralities_Consistent>
1

> <s_lp_Variant>
AV-unprocessed.smi:2401-1

> <Gold.Version>
5.8.1

> <Gold.Id.Protein>
6NUR|6NUR_protein|mol2

> <Gold.PLP.Fitness>
52.3216

> <Gold.PLP.PLP>
-45.6078

> <Gold.PLP.part.hbond>
-2.0000

> <Gold.PLP.part.metal>
0.0000

> <Gold.PLP.part.buried>
-4.1789

> <Gold.PLP.part.nonpolar>
-38.7765

> <Gold.PLP.part.repulsive>
0.1194

> <Gold.PLP.ligand.clash>
0.0012

> <Gold.PLP.ligand.torsion>
1.1577

> <Gold.PLP.Chemscore.Hbond>
2.0000

> <Gold.PLP.Chemscore.CHOScore>
1.0000

> <Gold.PLP.Chemscore.Metal>
0.0000

> <Gold.Chemscore.Hbonds>
donor molecule, donor type, donor heavy atom, donor atom, acceptor molecule, acceptor atom, score
      L1  H     8    27       P1  8028  1.00
      P1  H  7997  8008       L1    17  0.70
      L1  C     4    23       P1  8028  1.00

> <Gold.PLP.Chemscore.Internal.Correction>
0.0306

> <Gold.Rescore>
     Score         DG    S(hbond)    S(metal)    S(lipo)     H(rot)  DE(clash)    DE(int)     intcor
     18.95     -21.75       1.96        0.00     125.38       1.93       1.82       0.98       ----

> <Gold.Chemscore.Fitness>
18.9523

> <Gold.Chemscore.DG>
-21.7510

> <Gold.Chemscore.ZeroCoef>
-5.4800

> <Gold.Chemscore.Hbond>
1.9559

> <Gold.Chemscore.Metal>
0.0000

> <Gold.Chemscore.Lipo>
125.3848

> <Gold.Chemscore.Internal_Hbond>
0.0000

> <Gold.Chemscore.DEClash>
1.8158

> <Gold.Chemscore.DEInternal>
0.9829

> <Gold.Chemscore.Rot>
1.9265

> <Gold.Chemscore.Internal.Correction>
   9.000000E+99

> <Gold.Chemscore.Hbonds>
donor molecule, donor type, donor heavy atom, donor atom, acceptor molecule, acceptor atom, score
      L1  H     8    27       P1  8028  1.00
      P1  H  7997  8008       L1    17  0.68

> <Gold.Chemscore.Hbond.Weighted>
-6.5327

> <Gold.Chemscore.Metal.Weighted>
-0.0000

> <Gold.Chemscore.Lipo.Weighted>
-14.6700

> <Gold.Chemscore.Internal_Hbond.Weighted>
0.0000

> <Gold.Chemscore.DEClash.Weighted>
1.8158

> <Gold.Chemscore.DEInternal.Weighted>
0.9829

> <Gold.Chemscore.Rot.Weighted>
4.9317

> <Gold.Chemscore.Internal.Correction.Weighted>
   9.000000E+99

> <Gold.Protein.RotatedTorsions>
[ 6907 6896 6895 6894 ] final  -81.17 input  -60.11 | X-H torsion
[ 7974 7965 7964 7962 ] final  141.11 input  175.53 | X-H torsion
[ 8008 7997 7996 7995 ] final  -45.36 input   59.86 | X-H torsion
[ 10167 10162 10161 10158 ] final   81.08 input  -65.29 | X-H torsion
[ 10718 10713 10712 10709 ] final  -65.72 input   66.30 | X-H torsion
[ 10763 10752 10751 10750 ] final -111.94 input  -60.55 | X-H torsion
[ 11005 11000 10999 10996 ] final   46.55 input  -57.11 | X-H torsion

> <Gold.Protein.ActiveResidues>
 VAL166  LYS551  ARG553  GLY616  TRP617  ASP618  TYR619  PRO620  LYS621  CYS622 
 ASP623  PHE694  ASN695  SER759  ASP760  ASP761  ALA762  ILE779  LEU786  VAL792 
 PHE793  MET794  SER795  GLU796  ALA797  LYS798  CYS799  TRP800  GLU811  SER814 

> <Gold.Protein.RotatedAtoms>
  150.6916  134.3858  159.5054 H   0  0  0  0  0  0  0  0  0  0  0  0  # atno 6907 bound_to 6896
  152.1654  134.8875  160.0547 H   0  0  0  0  0  0  0  0  0  0  0  0  # atno 6908 bound_to 6896
  151.9921  133.3760  159.4185 H   0  0  0  0  0  0  0  0  0  0  0  0  # atno 6909 bound_to 6896
  144.9126  139.5273  143.5701 H   0  0  0  0  0  0  0  0  0  0  0  0  # atno 7974 bound_to 7965
  154.4000  140.1399  156.3834 H   0  0  0  0  0  0  0  0  0  0  0  0  # atno 8008 bound_to 7997
  155.7982  140.3477  155.5367 H   0  0  0  0  0  0  0  0  0  0  0  0  # atno 8009 bound_to 7997
  155.8510  140.0941  157.1665 H   0  0  0  0  0  0  0  0  0  0  0  0  # atno 8010 bound_to 7997
  139.9430  144.6077  150.8234 H   0  0  0  0  0  0  0  0  0  0  0  0  # atno 10167 bound_to 10162
  156.0653  130.4251  150.1604 H   0  0  0  0  0  0  0  0  0  0  0  0  # atno 10718 bound_to 10713
  154.8325  135.4509  154.1116 H   0  0  0  0  0  0  0  0  0  0  0  0  # atno 10763 bound_to 10752
  153.2377  135.6913  153.7824 H   0  0  0  0  0  0  0  0  0  0  0  0  # atno 10764 bound_to 10752
  153.7184  135.3345  155.3237 H   0  0  0  0  0  0  0  0  0  0  0  0  # atno 10765 bound_to 10752
  140.1359  134.4646  155.8486 H   0  0  0  0  0  0  0  0  0  0  0  0  # atno 11005 bound_to 11000
  146.3166  139.7944  142.8978 LP  0  0  0  0  0  0  0  0  0  0  0  0  # atno 17320 bound_to 7965
  145.3429  141.0291  143.3382 LP  0  0  0  0  0  0  0  0  0  0  0  0  # atno 17321 bound_to 7965
  140.7605  143.3154  151.2747 LP  0  0  0  0  0  0  0  0  0  0  0  0  # atno 17342 bound_to 10162
  139.6689  144.0055  152.2741 LP  0  0  0  0  0  0  0  0  0  0  0  0  # atno 17343 bound_to 10162
  156.9665  130.9821  151.3468 LP  0  0  0  0  0  0  0  0  0  0  0  0  # atno 17370 bound_to 10713
  157.5691  130.8298  149.8367 LP  0  0  0  0  0  0  0  0  0  0  0  0  # atno 17371 bound_to 10713
  141.2178  133.6814  156.7156 LP  0  0  0  0  0  0  0  0  0  0  0  0  # atno 17394 bound_to 11000
  140.2783  134.8337  157.3910 LP  0  0  0  0  0  0  0  0  0  0  0  0  # atno 17395 bound_to 11000

$$$$
