AV-unprocessed.smi:807|AV-procd|sdf|3803|dock3
  -GOLD-   22720 1243D 1   1.00000     0.00000
 Structure written by MMmdl.
 35 37  0  0  0  0  0  0  0  0  1 V2000
  146.5107  141.9538  155.7811 C   0  0  0  0  0  0  0  0  0  0  0  0
  147.9419  142.0714  155.5527 N   0  0  0  0  0  0  0  0  0  0  0  0
  148.6814  140.9798  155.0756 C   0  0  0  0  0  0  0  0  0  0  0  0
  148.1960  140.2242  154.0634 N   0  0  0  0  0  0  0  0  0  0  0  0
  148.9391  139.1931  153.6401 C   0  0  0  0  0  0  0  0  0  0  0  0
  150.1366  138.7760  154.0804 N   0  0  0  0  0  0  0  0  0  0  0  0
  150.6250  139.5172  155.0844 C   0  0  0  0  0  0  0  0  0  0  0  0
  151.8328  139.3169  155.7308 N   0  0  0  0  0  0  0  0  0  0  0  0
  151.8281  140.3034  156.6245 C   0  0  0  0  0  0  0  0  0  0  0  0
  150.7599  141.1247  156.6377 N   0  0  0  0  0  0  0  0  0  0  0  0
  150.5436  142.2546  157.5242 C   0  0  0  0  0  0  0  0  0  0  0  0
  151.8565  142.9846  157.8766 C   0  0  1  0  0  0  0  0  0  0  0  0
  151.8831  144.2767  157.3013 O   0  0  0  0  0  0  0  0  0  0  0  0
  152.1278  142.9910  159.3791 C   0  0  0  0  0  0  0  0  0  0  0  0
  151.7233  144.1213  160.1249 C   0  0  0  0  0  0  0  0  0  0  0  0
  151.9500  144.1884  161.5122 C   0  0  0  0  0  0  0  0  0  0  0  0
  152.5888  143.1234  162.1713 C   0  0  0  0  0  0  0  0  0  0  0  0
  153.0016  141.9949  161.4397 C   0  0  0  0  0  0  0  0  0  0  0  0
  152.7782  141.9205  160.0498 C   0  0  0  0  0  0  0  0  0  0  0  0
  153.3248  140.5060  159.2177 Cl  0  0  0  0  0  0  0  0  0  0  0  0
  149.9329  140.6411  155.6270 C   0  0  0  0  0  0  0  0  0  0  0  0
  146.1131  142.9008  156.1456 H   0  0  0  0  0  0  0  0  0  0  0  0
  146.3001  141.1857  156.5261 H   0  0  0  0  0  0  0  0  0  0  0  0
  145.9909  141.6981  154.8571 H   0  0  0  0  0  0  0  0  0  0  0  0
  148.4026  142.9477  155.7511 H   0  0  0  0  0  0  0  0  0  0  0  0
  148.5151  138.6169  152.8311 H   0  0  0  0  0  0  0  0  0  0  0  0
  152.6488  140.4351  157.3145 H   0  0  0  0  0  0  0  0  0  0  0  0
  149.8323  142.9327  157.0529 H   0  0  0  0  0  0  0  0  0  0  0  0
  150.0595  141.8881  158.4297 H   0  0  0  0  0  0  0  0  0  0  0  0
  152.6752  142.4468  157.3976 H   0  0  0  0  0  0  0  0  0  0  0  0
  151.9736  144.1864  156.3649 H   0  0  0  0  0  0  0  0  0  0  0  0
  151.2340  144.9500  159.6340 H   0  0  0  0  0  0  0  0  0  0  0  0
  151.6341  145.0575  162.0703 H   0  0  0  0  0  0  0  0  0  0  0  0
  152.7641  143.1724  163.2360 H   0  0  0  0  0  0  0  0  0  0  0  0
  153.4951  141.1805  161.9495 H   0  0  0  0  0  0  0  0  0  0  0  0
  1  2  1  0  0  0  0
  1 22  1  0  0  0  0
  1 23  1  0  0  0  0
  1 24  1  0  0  0  0
  2  3  1  0  0  0  0
  2 25  1  0  0  0  0
  3 21  1  0  0  0  0
  3  4  2  0  0  0  0
  4  5  1  0  0  0  0
  5  6  2  0  0  0  0
  5 26  1  0  0  0  0
  6  7  1  0  0  0  0
  7 21  2  0  0  0  0
  7  8  1  0  0  0  0
  8  9  2  0  0  0  0
  9 10  1  0  0  0  0
  9 27  1  0  0  0  0
 10 11  1  0  0  0  0
 10 21  1  0  0  0  0
 11 12  1  0  0  0  0
 11 28  1  0  0  0  0
 11 29  1  0  0  0  0
 12 13  1  0  0  0  0
 12 14  1  0  0  0  0
 12 30  1  0  0  0  0
 13 31  1  0  0  0  0
 14 19  1  0  0  0  0
 14 15  2  0  0  0  0
 15 16  1  0  0  0  0
 15 32  1  0  0  0  0
 16 17  2  0  0  0  0
 16 33  1  0  0  0  0
 17 18  1  0  0  0  0
 17 34  1  0  0  0  0
 18 19  2  0  0  0  0
 18 35  1  0  0  0  0
 19 20  1  0  0  0  0
M  END
> <s_m_source_file>
AV-unprocessed.smi

> <i_m_source_file_index>
807

> <i_lp_mmshare_version>
43012

> <i_f3d_flags>
0

> <s_epik_input>
bjFbY0hdbmMoW05IXVtDSDNdKWMoYzEyKW4oW2NIXW4yKVtDSDJdW0NASF0oW09IXSljM1tjSF1bY0hdW2NIXVtjSF1jM0Ns

> <s_epik_cmdline>
J2VwaWtfcHl0aG9uJywgJy1waCcsICc3LjAnLCAnLXRuJywgJzgnLCAnLW1hJywgJzIwMCcsICctbWV0YWxfYmluZGluZycsICctaW1hZScsICc8aW5maWxlLm1hZT4nLCAnLW9tYWUnLCAnPG91dGZpbGUubWFlPic=

> <r_lp_tautomer_probability>
1

> <r_epik_Ionization_Penalty>
0.00695285

> <r_epik_Ionization_Penalty_Charging>
0

> <r_epik_Ionization_Penalty_Neutral>
0.00695285

> <r_epik_State_Penalty>
-0

> <r_epik_Charging_Adjusted_Penalty>
0

> <i_epik_Tot_Q>
0

> <i_epik_Tot_abs_Q>
0

> <r_epik_Metal_State_Penalty>
-0

> <b_epik_Metal_Only>
0

> <s_lp_Force_Field>
OPLS_2005

> <r_lp_Energy>
12.6911

> <b_lp_Chiralities_Consistent>
1

> <s_lp_Variant>
AV-unprocessed.smi:807-2

> <Gold.Version>
5.8.1

> <Gold.Id.Protein>
6NUR|6NUR_protein|mol2

> <Gold.PLP.Fitness>
45.2968

> <Gold.PLP.PLP>
-43.6373

> <Gold.PLP.part.hbond>
-1.0000

> <Gold.PLP.part.metal>
0.0000

> <Gold.PLP.part.buried>
-3.2929

> <Gold.PLP.part.nonpolar>
-38.8523

> <Gold.PLP.part.repulsive>
0.3791

> <Gold.PLP.ligand.clash>
0.0000

> <Gold.PLP.ligand.torsion>
2.1769

> <Gold.PLP.Chemscore.Hbond>
1.0000

> <Gold.PLP.Chemscore.CHOScore>
0.9809

> <Gold.PLP.Chemscore.Metal>
0.0000

> <Gold.Chemscore.Hbonds>
donor molecule, donor type, donor heavy atom, donor atom, acceptor molecule, acceptor atom, score
      L1  H     2    25       P1  8028  1.00
      L1  C     5    26       P1  7948  0.87
      L1  C     5    26       P1  7957  0.25

> <Gold.PLP.Chemscore.Internal.Correction>
0.0706

> <Gold.Rescore>
     Score         DG    S(hbond)    S(metal)    S(lipo)     H(rot)  DE(clash)    DE(int)     intcor
     12.22     -15.27       0.99        0.00     106.11       2.31       0.82       2.23       ----

> <Gold.Chemscore.Fitness>
12.2205

> <Gold.Chemscore.DG>
-15.2704

> <Gold.Chemscore.ZeroCoef>
-5.4800

> <Gold.Chemscore.Hbond>
0.9858

> <Gold.Chemscore.Metal>
0.0000

> <Gold.Chemscore.Lipo>
106.1117

> <Gold.Chemscore.Internal_Hbond>
0.0000

> <Gold.Chemscore.DEClash>
0.8231

> <Gold.Chemscore.DEInternal>
2.2268

> <Gold.Chemscore.Rot>
2.3115

> <Gold.Chemscore.Internal.Correction>
   9.000000E+99

> <Gold.Chemscore.Hbonds>
donor molecule, donor type, donor heavy atom, donor atom, acceptor molecule, acceptor atom, score
      L1  H     2    25       P1  8028  0.97

> <Gold.Chemscore.Hbond.Weighted>
-3.2927

> <Gold.Chemscore.Metal.Weighted>
-0.0000

> <Gold.Chemscore.Lipo.Weighted>
-12.4151

> <Gold.Chemscore.Internal_Hbond.Weighted>
0.0000

> <Gold.Chemscore.DEClash.Weighted>
0.8231

> <Gold.Chemscore.DEInternal.Weighted>
2.2268

> <Gold.Chemscore.Rot.Weighted>
5.9174

> <Gold.Chemscore.Internal.Correction.Weighted>
   9.000000E+99

> <Gold.Protein.RotatedTorsions>
[ 6907 6896 6895 6894 ] final  120.17 input  -60.11 | X-H torsion
[ 7974 7965 7964 7962 ] final  108.20 input  175.53 | X-H torsion
[ 8008 7997 7996 7995 ] final   16.05 input   59.86 | X-H torsion
[ 10167 10162 10161 10158 ] final -138.22 input  -65.29 | X-H torsion
[ 10718 10713 10712 10709 ] final  -31.08 input   66.30 | X-H torsion
[ 10763 10752 10751 10750 ] final   30.70 input  -60.55 | X-H torsion
[ 11005 11000 10999 10996 ] final  -88.56 input  -57.11 | X-H torsion

> <Gold.Protein.ActiveResidues>
 VAL166  LYS551  ARG553  GLY616  TRP617  ASP618  TYR619  PRO620  LYS621  CYS622 
 ASP623  PHE694  ASN695  SER759  ASP760  ASP761  ALA762  ILE779  LEU786  VAL792 
 PHE793  MET794  SER795  GLU796  ALA797  LYS798  CYS799  TRP800  GLU811  SER814 

> <Gold.Protein.RotatedAtoms>
  152.4418  133.7462  159.6668 H   0  0  0  0  0  0  0  0  0  0  0  0  # atno 6907 bound_to 6896
  150.8310  133.8080  159.3104 H   0  0  0  0  0  0  0  0  0  0  0  0  # atno 6908 bound_to 6896
  151.5734  135.1064  160.0052 H   0  0  0  0  0  0  0  0  0  0  0  0  # atno 6909 bound_to 6896
  145.2837  139.2624  143.3902 H   0  0  0  0  0  0  0  0  0  0  0  0  # atno 7974 bound_to 7965
  154.8713  140.2959  155.5479 H   0  0  0  0  0  0  0  0  0  0  0  0  # atno 8008 bound_to 7997
  156.3021  140.2459  156.3636 H   0  0  0  0  0  0  0  0  0  0  0  0  # atno 8009 bound_to 7997
  154.8814  140.0398  157.1773 H   0  0  0  0  0  0  0  0  0  0  0  0  # atno 8010 bound_to 7997
  139.8500  143.7211  152.2658 H   0  0  0  0  0  0  0  0  0  0  0  0  # atno 10167 bound_to 10162
  156.3918  130.4374  149.7389 H   0  0  0  0  0  0  0  0  0  0  0  0  # atno 10718 bound_to 10713
  153.0357  135.6457  154.1085 H   0  0  0  0  0  0  0  0  0  0  0  0  # atno 10763 bound_to 10752
  154.0800  135.2874  155.3293 H   0  0  0  0  0  0  0  0  0  0  0  0  # atno 10764 bound_to 10752
  154.6536  135.5417  153.7996 H   0  0  0  0  0  0  0  0  0  0  0  0  # atno 10765 bound_to 10752
  141.1599  133.7577  156.9469 H   0  0  0  0  0  0  0  0  0  0  0  0  # atno 11005 bound_to 11000
  146.3208  140.3311  142.8640 LP  0  0  0  0  0  0  0  0  0  0  0  0  # atno 17320 bound_to 7965
  144.9231  140.7891  143.5736 LP  0  0  0  0  0  0  0  0  0  0  0  0  # atno 17321 bound_to 7965
  139.7475  144.7543  151.0557 LP  0  0  0  0  0  0  0  0  0  0  0  0  # atno 17342 bound_to 10162
  140.7788  143.4899  150.9907 LP  0  0  0  0  0  0  0  0  0  0  0  0  # atno 17343 bound_to 10162
  156.4439  130.7874  151.2896 LP  0  0  0  0  0  0  0  0  0  0  0  0  # atno 17370 bound_to 10713
  157.7499  131.0116  150.3352 LP  0  0  0  0  0  0  0  0  0  0  0  0  # atno 17371 bound_to 10713
  140.1283  134.9372  157.2302 LP  0  0  0  0  0  0  0  0  0  0  0  0  # atno 17394 bound_to 11000
  140.2985  134.3159  155.7296 LP  0  0  0  0  0  0  0  0  0  0  0  0  # atno 17395 bound_to 11000

$$$$
