AV-unprocessed.smi:2087|AV-procd|sdf|8525|dock5
  -GOLD-   2272011243D 1   1.00000     0.00000
 Structure written by MMmdl.
 50 51  0  0  0  0  0  0  0  0  1 V2000
  153.2331  142.0298  160.6829 C   0  0  0  0  0  0  0  0  0  0  0  0
  152.9652  142.0946  159.1695 C   0  0  0  0  0  0  0  0  0  0  0  0
  152.6598  143.5216  158.6818 C   0  0  0  0  0  0  0  0  0  0  0  0
  151.9564  141.0316  158.6677 C   0  0  0  0  0  0  0  0  0  0  0  0
  151.7081  140.9555  157.2242 N   0  0  0  0  0  0  0  0  0  0  0  0
  150.3168  141.2807  156.9268 C   0  0  0  0  0  0  0  0  0  0  0  0
  150.0161  141.2145  155.4213 C   0  0  0  0  0  0  0  0  0  0  0  0
  150.3447  139.9190  154.9355 O   0  0  0  0  0  0  0  0  0  0  0  0
  151.7130  139.5779  155.1430 C   0  0  2  0  0  0  0  0  0  0  0  0
  151.9693  138.1727  154.5722 C   0  0  0  0  0  0  0  0  0  0  0  0
  150.9077  137.2411  154.9390 N   0  0  0  0  0  0  0  0  0  0  0  0
  151.0855  136.0636  155.5570 C   0  0  0  0  0  0  0  0  0  0  0  0
  152.1908  135.6345  155.8915 O   0  0  0  0  0  0  0  0  0  0  0  0
  149.8095  135.2661  155.8591 C   0  0  0  0  0  0  0  0  0  0  0  0
  149.8021  133.9299  155.2484 N   0  0  0  0  0  0  0  0  0  0  0  0
  149.1381  133.7284  154.0517 C   0  0  0  0  0  0  0  0  0  0  0  0
  149.0743  132.5324  153.4273 C   0  0  0  0  0  0  0  0  0  0  0  0
  149.7225  131.3576  153.9963 C   0  0  0  0  0  0  0  0  0  0  0  0
  149.6841  130.2428  153.4731 O   0  0  0  0  0  0  0  0  0  0  0  0
  150.4020  131.5914  155.2139 N   0  0  0  0  0  0  0  0  0  0  0  0
  151.0488  130.4496  155.8266 C   0  0  0  0  0  0  0  0  0  0  0  0
  150.4548  132.8431  155.8708 C   0  0  0  0  0  0  0  0  0  0  0  0
  151.0376  133.0005  156.9461 O   0  0  0  0  0  0  0  0  0  0  0  0
  152.0175  139.6466  156.6537 C   0  0  0  0  0  0  0  0  0  0  0  0
  152.3569  142.3212  161.2624 H   0  0  0  0  0  0  0  0  0  0  0  0
  154.0485  142.6968  160.9639 H   0  0  0  0  0  0  0  0  0  0  0  0
  153.5142  141.0212  160.9872 H   0  0  0  0  0  0  0  0  0  0  0  0
  153.9100  141.8370  158.6884 H   0  0  0  0  0  0  0  0  0  0  0  0
  151.7781  143.9495  159.1546 H   0  0  0  0  0  0  0  0  0  0  0  0
  152.5030  143.5431  157.6030 H   0  0  0  0  0  0  0  0  0  0  0  0
  153.4947  144.1880  158.9008 H   0  0  0  0  0  0  0  0  0  0  0  0
  152.2326  140.0483  159.0514 H   0  0  0  0  0  0  0  0  0  0  0  0
  151.0068  141.2670  159.1508 H   0  0  0  0  0  0  0  0  0  0  0  0
  149.6550  140.5916  157.4542 H   0  0  0  0  0  0  0  0  0  0  0  0
  150.0825  142.2803  157.2945 H   0  0  0  0  0  0  0  0  0  0  0  0
  148.9591  141.4065  155.2366 H   0  0  0  0  0  0  0  0  0  0  0  0
  150.5817  141.9721  154.8768 H   0  0  0  0  0  0  0  0  0  0  0  0
  152.3441  140.2972  154.6172 H   0  0  0  0  0  0  0  0  0  0  0  0
  151.9963  138.2201  153.4831 H   0  0  0  0  0  0  0  0  0  0  0  0
  152.9457  137.7998  154.8870 H   0  0  0  0  0  0  0  0  0  0  0  0
  149.9638  137.5151  154.7080 H   0  0  0  0  0  0  0  0  0  0  0  0
  149.7134  135.1800  156.9422 H   0  0  0  0  0  0  0  0  0  0  0  0
  148.9347  135.8308  155.5309 H   0  0  0  0  0  0  0  0  0  0  0  0
  148.6387  134.5690  153.5920 H   0  0  0  0  0  0  0  0  0  0  0  0
  148.5347  132.4431  152.4958 H   0  0  0  0  0  0  0  0  0  0  0  0
  151.7320  130.7637  156.6152 H   0  0  0  0  0  0  0  0  0  0  0  0
  151.6231  129.9329  155.0555 H   0  0  0  0  0  0  0  0  0  0  0  0
  150.2578  129.8145  156.2283 H   0  0  0  0  0  0  0  0  0  0  0  0
  153.0729  139.4222  156.7902 H   0  0  0  0  0  0  0  0  0  0  0  0
  151.4559  138.8715  157.1776 H   0  0  0  0  0  0  0  0  0  0  0  0
  1  2  1  0  0  0  0
  1 25  1  0  0  0  0
  1 26  1  0  0  0  0
  1 27  1  0  0  0  0
  2  3  1  0  0  0  0
  2  4  1  0  0  0  0
  2 28  1  0  0  0  0
  3 29  1  0  0  0  0
  3 30  1  0  0  0  0
  3 31  1  0  0  0  0
  4  5  1  0  0  0  0
  4 32  1  0  0  0  0
  4 33  1  0  0  0  0
  5 24  1  0  0  0  0
  5  6  1  0  0  0  0
  6  7  1  0  0  0  0
  6 34  1  0  0  0  0
  6 35  1  0  0  0  0
  7  8  1  0  0  0  0
  7 36  1  0  0  0  0
  7 37  1  0  0  0  0
  8  9  1  0  0  0  0
  9 10  1  0  0  0  0
  9 24  1  0  0  0  0
  9 38  1  0  0  0  0
 10 11  1  0  0  0  0
 10 39  1  0  0  0  0
 10 40  1  0  0  0  0
 11 12  1  0  0  0  0
 11 41  1  0  0  0  0
 12 13  2  0  0  0  0
 12 14  1  0  0  0  0
 14 15  1  0  0  0  0
 14 42  1  0  0  0  0
 14 43  1  0  0  0  0
 15 22  1  0  0  0  0
 15 16  1  0  0  0  0
 16 17  2  0  0  0  0
 16 44  1  0  0  0  0
 17 18  1  0  0  0  0
 17 45  1  0  0  0  0
 18 19  2  0  0  0  0
 18 20  1  0  0  0  0
 20 21  1  0  0  0  0
 20 22  1  0  0  0  0
 21 46  1  0  0  0  0
 21 47  1  0  0  0  0
 21 48  1  0  0  0  0
 22 23  2  0  0  0  0
 24 49  1  0  0  0  0
 24 50  1  0  0  0  0
M  END
> <s_m_source_file>
AV-unprocessed.smi

> <i_m_source_file_index>
2087

> <i_lp_mmshare_version>
43012

> <i_f3d_flags>
0

> <s_epik_input>
W0NIM11bQ0hdKFtDSDNdKVtDSDJdTjFbQ0gyXVtDSDJdT1tDQEhdKFtDSDJdMSlbQ0gyXVtOSF1DKD1PKVtDSDJdbjJbY0hdW2NIXWMoPU8pbihbQ0gzXSljMj1P

> <s_epik_cmdline>
J2VwaWtfcHl0aG9uJywgJy1waCcsICc3LjAnLCAnLXRuJywgJzgnLCAnLW1hJywgJzIwMCcsICctbWV0YWxfYmluZGluZycsICctaW1hZScsICc8aW5maWxlLm1hZT4nLCAnLW9tYWUnLCAnPG91dGZpbGUubWFlPic=

> <r_lp_tautomer_probability>
1

> <r_epik_Ionization_Penalty>
1.11669

> <r_epik_Ionization_Penalty_Charging>
1.16423e-08

> <r_epik_Ionization_Penalty_Neutral>
1.11669

> <r_epik_State_Penalty>
1.17516

> <r_epik_Charging_Adjusted_Penalty>
1.17516

> <i_epik_Tot_Q>
0

> <i_epik_Tot_abs_Q>
0

> <r_epik_Metal_State_Penalty>
1.17513

> <b_epik_Metal_Only>
0

> <s_lp_Force_Field>
OPLS_2005

> <r_lp_Energy>
38.2596

> <b_lp_Chiralities_Consistent>
1

> <s_lp_Variant>
AV-unprocessed.smi:2087-6

> <Gold.Version>
5.8.1

> <Gold.Id.Protein>
6NUR|6NUR_protein|mol2

> <Gold.PLP.Fitness>
53.1992

> <Gold.PLP.PLP>
-47.1599

> <Gold.PLP.part.hbond>
-3.0000

> <Gold.PLP.part.metal>
0.0000

> <Gold.PLP.part.buried>
-2.8005

> <Gold.PLP.part.nonpolar>
-41.9292

> <Gold.PLP.part.repulsive>
0.2880

> <Gold.PLP.ligand.clash>
0.0000

> <Gold.PLP.ligand.torsion>
1.2176

> <Gold.PLP.Chemscore.Hbond>
1.7920

> <Gold.PLP.Chemscore.CHOScore>
1.0000

> <Gold.PLP.Chemscore.Metal>
0.0000

> <Gold.Chemscore.Hbonds>
donor molecule, donor type, donor heavy atom, donor atom, acceptor molecule, acceptor atom, score
      P1  H  6896  6907       L1    23  0.27
      P1  H 10752 10764       L1    13  0.55
      L1  C    16    44       P1  7948  1.00

> <Gold.PLP.Chemscore.Internal.Correction>
0.0985

> <Gold.Rescore>
     Score         DG    S(hbond)    S(metal)    S(lipo)     H(rot)  DE(clash)    DE(int)     intcor
     15.95     -17.24       1.94        0.00      92.46       2.16       0.17       1.12       ----

> <Gold.Chemscore.Fitness>
15.9466

> <Gold.Chemscore.DG>
-17.2372

> <Gold.Chemscore.ZeroCoef>
-5.4800

> <Gold.Chemscore.Hbond>
1.9397

> <Gold.Chemscore.Metal>
0.0000

> <Gold.Chemscore.Lipo>
92.4608

> <Gold.Chemscore.Internal_Hbond>
0.0000

> <Gold.Chemscore.DEClash>
0.1739

> <Gold.Chemscore.DEInternal>
1.1168

> <Gold.Chemscore.Rot>
2.1638

> <Gold.Chemscore.Internal.Correction>
   9.000000E+99

> <Gold.Chemscore.Hbonds>
donor molecule, donor type, donor heavy atom, donor atom, acceptor molecule, acceptor atom, score
      P1  H  6896  6907       L1    23  0.27
      P1  H 10752 10764       L1    13  0.40

> <Gold.Chemscore.Hbond.Weighted>
-6.4786

> <Gold.Chemscore.Metal.Weighted>
-0.0000

> <Gold.Chemscore.Lipo.Weighted>
-10.8179

> <Gold.Chemscore.Internal_Hbond.Weighted>
0.0000

> <Gold.Chemscore.DEClash.Weighted>
0.1739

> <Gold.Chemscore.DEInternal.Weighted>
1.1168

> <Gold.Chemscore.Rot.Weighted>
5.5393

> <Gold.Chemscore.Internal.Correction.Weighted>
   9.000000E+99

> <Gold.Protein.RotatedTorsions>
[ 6907 6896 6895 6894 ] final -141.89 input  -60.11 | X-H torsion
[ 7974 7965 7964 7962 ] final    1.58 input  175.53 | X-H torsion
[ 8008 7997 7996 7995 ] final   65.93 input   59.86 | X-H torsion
[ 10167 10162 10161 10158 ] final  148.45 input  -65.29 | X-H torsion
[ 10718 10713 10712 10709 ] final -160.15 input   66.30 | X-H torsion
[ 10763 10752 10751 10750 ] final  -48.90 input  -60.55 | X-H torsion
[ 11005 11000 10999 10996 ] final -174.45 input  -57.11 | X-H torsion

> <Gold.Protein.ActiveResidues>
 VAL166  LYS551  ARG553  GLY616  TRP617  ASP618  TYR619  PRO620  LYS621  CYS622 
 ASP623  PHE694  ASN695  SER759  ASP760  ASP761  ALA762  ILE779  LEU786  VAL792 
 PHE793  MET794  SER795  GLU796  ALA797  LYS798  CYS799  TRP800  GLU811  SER814 

> <Gold.Protein.RotatedAtoms>
  151.0798  133.5399  159.2621 H   0  0  0  0  0  0  0  0  0  0  0  0  # atno 6907 bound_to 6896
  151.2307  135.0552  159.8996 H   0  0  0  0  0  0  0  0  0  0  0  0  # atno 6908 bound_to 6896
  152.5422  134.0587  159.8196 H   0  0  0  0  0  0  0  0  0  0  0  0  # atno 6909 bound_to 6896
  146.2441  140.0966  142.8349 H   0  0  0  0  0  0  0  0  0  0  0  0  # atno 7974 bound_to 7965
  155.6695  140.3497  155.4813 H   0  0  0  0  0  0  0  0  0  0  0  0  # atno 8008 bound_to 7997
  155.9700  140.1154  157.0843 H   0  0  0  0  0  0  0  0  0  0  0  0  # atno 8009 bound_to 7997
  154.4164  140.1159  156.5280 H   0  0  0  0  0  0  0  0  0  0  0  0  # atno 8010 bound_to 7997
  139.4875  144.5678  151.7112 H   0  0  0  0  0  0  0  0  0  0  0  0  # atno 10167 bound_to 10162
  156.5780  130.8717  151.2856 H   0  0  0  0  0  0  0  0  0  0  0  0  # atno 10718 bound_to 10713
  154.0854  135.6585  153.4844 H   0  0  0  0  0  0  0  0  0  0  0  0  # atno 10763 bound_to 10752
  153.0341  135.5190  154.7433 H   0  0  0  0  0  0  0  0  0  0  0  0  # atno 10764 bound_to 10752
  154.6541  135.3005  154.9919 H   0  0  0  0  0  0  0  0  0  0  0  0  # atno 10765 bound_to 10752
  140.4744  134.6135  157.4895 H   0  0  0  0  0  0  0  0  0  0  0  0  # atno 11005 bound_to 11000
  145.0605  140.9084  143.4942 LP  0  0  0  0  0  0  0  0  0  0  0  0  # atno 17320 bound_to 7965
  145.1080  139.2776  143.5652 LP  0  0  0  0  0  0  0  0  0  0  0  0  # atno 17321 bound_to 7965
  140.5260  144.0806  150.6037 LP  0  0  0  0  0  0  0  0  0  0  0  0  # atno 17342 bound_to 10162
  140.3779  143.2818  152.0203 LP  0  0  0  0  0  0  0  0  0  0  0  0  # atno 17343 bound_to 10162
  157.7333  130.9728  150.1971 LP  0  0  0  0  0  0  0  0  0  0  0  0  # atno 17370 bound_to 10713
  156.2656  130.3716  149.8085 LP  0  0  0  0  0  0  0  0  0  0  0  0  # atno 17371 bound_to 10713
  139.9865  134.7053  155.9764 LP  0  0  0  0  0  0  0  0  0  0  0  0  # atno 17394 bound_to 11000
  141.1562  133.6542  156.4168 LP  0  0  0  0  0  0  0  0  0  0  0  0  # atno 17395 bound_to 11000

$$$$
