AV-unprocessed.smi:1641|AV-procd|sdf|6566|dock4
  -GOLD-   22720 7253D 1   1.00000     0.00000
 Structure written by MMmdl.
 41 42  0  0  0  0  0  0  0  0  3 V2000
  152.3941  140.5508  159.2854 C   0  0  0  0  0  0  0  0  0  0  0  0
  152.1258  140.1496  157.8756 C   0  0  0  0  0  0  0  0  0  0  0  0
  153.0119  139.4782  157.1362 N   0  0  0  0  0  0  0  0  0  0  0  0
  152.5374  139.2192  155.8585 N   0  0  0  0  0  0  0  0  0  0  0  0
  151.2991  139.6895  155.6520 C   0  0  0  0  0  0  0  0  0  0  0  0
  150.6616  139.5449  154.4785 N   0  5  0  0  0  0  0  0  0  0  0  0
  149.3303  139.7661  154.4009 C   0  0  0  0  0  0  0  0  0  0  0  0
  148.6852  140.5933  155.0490 O   0  0  0  0  0  0  0  0  0  0  0  0
  148.7051  138.9808  153.5147 N   0  0  0  0  0  0  0  0  0  0  0  0
  147.2778  139.0127  153.2295 C   0  0  0  0  0  0  0  0  0  0  0  0
  146.5648  137.8530  153.9419 C   0  0  0  0  0  0  0  0  0  0  0  0
  146.5489  136.6131  153.1265 N   0  3  1  0  0  0  0  0  0  0  0  0
  146.5193  135.3895  153.9622 C   0  0  0  0  0  0  0  0  0  0  0  0
  146.5695  134.1290  153.0788 C   0  0  1  0  0  0  0  0  0  0  0  0
  146.4641  132.8411  153.9027 C   0  0  0  0  0  0  0  0  0  0  0  0
  145.4803  134.1608  152.1634 O   0  0  0  0  0  0  0  0  0  0  0  0
  145.5350  135.2821  151.2884 C   0  0  1  0  0  0  0  0  0  0  0  0
  144.3774  135.1664  150.2906 C   0  0  0  0  0  0  0  0  0  0  0  0
  145.4589  136.5763  152.1205 C   0  0  0  0  0  0  0  0  0  0  0  0
  150.6220  140.5243  157.0504 S   0  0  0  0  0  0  0  0  0  0  0  0
  152.6376  139.6732  159.8845 H   0  0  0  0  0  0  0  0  0  0  0  0
  151.5177  141.0354  159.7159 H   0  0  0  0  0  0  0  0  0  0  0  0
  153.2323  141.2467  159.3224 H   0  0  0  0  0  0  0  0  0  0  0  0
  149.2660  138.3136  153.0056 H   0  0  0  0  0  0  0  0  0  0  0  0
  146.8831  139.9755  153.5545 H   0  0  0  0  0  0  0  0  0  0  0  0
  147.1221  138.9435  152.1518 H   0  0  0  0  0  0  0  0  0  0  0  0
  147.0914  137.6561  154.8771 H   0  0  0  0  0  0  0  0  0  0  0  0
  145.5452  138.1319  154.2136 H   0  0  0  0  0  0  0  0  0  0  0  0
  147.3686  135.3906  154.6468 H   0  0  0  0  0  0  0  0  0  0  0  0
  145.6146  135.3884  154.5728 H   0  0  0  0  0  0  0  0  0  0  0  0
  147.5074  134.1070  152.5207 H   0  0  0  0  0  0  0  0  0  0  0  0
  147.2887  132.7591  154.6112 H   0  0  0  0  0  0  0  0  0  0  0  0
  146.4929  131.9626  153.2576 H   0  0  0  0  0  0  0  0  0  0  0  0
  145.5323  132.8082  154.4679 H   0  0  0  0  0  0  0  0  0  0  0  0
  146.4740  135.2573  150.7323 H   0  0  0  0  0  0  0  0  0  0  0  0
  144.3790  136.0003  149.5882 H   0  0  0  0  0  0  0  0  0  0  0  0
  143.4140  135.1604  150.8012 H   0  0  0  0  0  0  0  0  0  0  0  0
  144.4527  134.2454  149.7120 H   0  0  0  0  0  0  0  0  0  0  0  0
  144.4941  136.6425  152.6263 H   0  0  0  0  0  0  0  0  0  0  0  0
  145.5289  137.4353  151.4540 H   0  0  0  0  0  0  0  0  0  0  0  0
  147.4225  136.5904  152.6203 H   0  0  0  0  0  0  0  0  0  0  0  0
  1  2  1  0  0  0  0
  1 21  1  0  0  0  0
  1 22  1  0  0  0  0
  1 23  1  0  0  0  0
  2 20  1  0  0  0  0
  2  3  2  0  0  0  0
  3  4  1  0  0  0  0
  4  5  2  0  0  0  0
  5  6  1  0  0  0  0
  5 20  1  0  0  0  0
  6  7  1  0  0  0  0
  7  8  2  0  0  0  0
  7  9  1  0  0  0  0
  9 10  1  0  0  0  0
  9 24  1  0  0  0  0
 10 11  1  0  0  0  0
 10 25  1  0  0  0  0
 10 26  1  0  0  0  0
 11 12  1  0  0  0  0
 11 27  1  0  0  0  0
 11 28  1  0  0  0  0
 12 19  1  0  0  0  0
 12 13  1  0  0  0  0
 12 41  1  0  0  0  0
 13 14  1  0  0  0  0
 13 29  1  0  0  0  0
 13 30  1  0  0  0  0
 14 15  1  0  0  0  0
 14 16  1  0  0  0  0
 14 31  1  0  0  0  0
 15 32  1  0  0  0  0
 15 33  1  0  0  0  0
 15 34  1  0  0  0  0
 16 17  1  0  0  0  0
 17 18  1  0  0  0  0
 17 19  1  0  0  0  0
 17 35  1  0  0  0  0
 18 36  1  0  0  0  0
 18 37  1  0  0  0  0
 18 38  1  0  0  0  0
 19 39  1  0  0  0  0
 19 40  1  0  0  0  0
M  CHG  1   6  -1
M  CHG  1  12   1
M  END
> <s_m_source_file>
AV-unprocessed.smi

> <i_m_source_file_index>
1641

> <i_lp_mmshare_version>
43012

> <i_f3d_flags>
0

> <s_epik_input>
W0NIM11jMW5uYyhzMSlbTkhdQyg9TylbTkhdW0NIMl1bQ0gyXU4yW0NIMl1bQ0BASF0oW0NIM10pT1tDQEBIXShbQ0gzXSlbQ0gyXTI=

> <s_epik_cmdline>
J2VwaWtfcHl0aG9uJywgJy1waCcsICc3LjAnLCAnLXRuJywgJzgnLCAnLW1hJywgJzIwMCcsICctbWV0YWxfYmluZGluZycsICctaW1hZScsICc8aW5maWxlLm1hZT4nLCAnLW9tYWUnLCAnPG91dGZpbGUubWFlPic=

> <r_lp_tautomer_probability>
1

> <r_epik_Ionization_Penalty>
3.5343

> <r_epik_Ionization_Penalty_Charging>
3.42778

> <r_epik_Ionization_Penalty_Neutral>
0.106519

> <r_epik_State_Penalty>
3.62118

> <r_epik_Charging_Adjusted_Penalty>
7.04896

> <i_epik_Tot_Q>
0

> <i_epik_Tot_abs_Q>
2

> <r_epik_Metal_State_Penalty>
1.13984

> <b_epik_Metal_Only>
1

> <s_lp_Force_Field>
OPLS_2005

> <r_lp_Energy>
7.34164

> <b_lp_Chiralities_Consistent>
1

> <s_lp_Variant>
AV-unprocessed.smi:1641-11

> <Gold.Version>
5.8.1

> <Gold.Id.Protein>
6NUR|6NUR_protein|mol2

> <Gold.PLP.Fitness>
41.4155

> <Gold.PLP.PLP>
-30.3496

> <Gold.PLP.part.hbond>
-5.6971

> <Gold.PLP.part.metal>
0.0000

> <Gold.PLP.part.buried>
-3.3257

> <Gold.PLP.part.nonpolar>
-21.8610

> <Gold.PLP.part.repulsive>
0.4210

> <Gold.PLP.ligand.clash>
0.0000

> <Gold.PLP.ligand.torsion>
0.8675

> <Gold.PLP.Chemscore.Hbond>
4.2370

> <Gold.PLP.Chemscore.CHOScore>
0.0000

> <Gold.PLP.Chemscore.Metal>
0.0000

> <Gold.Chemscore.Hbonds>
donor molecule, donor type, donor heavy atom, donor atom, acceptor molecule, acceptor atom, score
      L1  H     9    24       P1  7948  0.14
      L1  H    12    41       P1  7948  2.00
      P1  H  7989  7998       L1     6  0.90
      P1  H  7997  8008       L1     3  0.95

> <Gold.PLP.Chemscore.Internal.Correction>
0.0899

> <Gold.Rescore>
     Score         DG    S(hbond)    S(metal)    S(lipo)     H(rot)  DE(clash)    DE(int)     intcor
     14.21     -16.57       2.74        0.00      51.84       1.61       0.04       2.32       ----

> <Gold.Chemscore.Fitness>
14.2106

> <Gold.Chemscore.DG>
-16.5688

> <Gold.Chemscore.ZeroCoef>
-5.4800

> <Gold.Chemscore.Hbond>
2.7357

> <Gold.Chemscore.Metal>
0.0000

> <Gold.Chemscore.Lipo>
51.8428

> <Gold.Chemscore.Internal_Hbond>
0.0000

> <Gold.Chemscore.DEClash>
0.0366

> <Gold.Chemscore.DEInternal>
2.3216

> <Gold.Chemscore.Rot>
1.6070

> <Gold.Chemscore.Internal.Correction>
   9.000000E+99

> <Gold.Chemscore.Hbonds>
donor molecule, donor type, donor heavy atom, donor atom, acceptor molecule, acceptor atom, score
      L1  H     9    24       P1  7948  0.15
      L1  H    12    41       P1  7948  1.00
      P1  H  7989  7998       L1     6  0.14
      P1  H  7997  8008       L1     3  0.21

> <Gold.Chemscore.Hbond.Weighted>
-9.1371

> <Gold.Chemscore.Metal.Weighted>
-0.0000

> <Gold.Chemscore.Lipo.Weighted>
-6.0656

> <Gold.Chemscore.Internal_Hbond.Weighted>
0.0000

> <Gold.Chemscore.DEClash.Weighted>
0.0366

> <Gold.Chemscore.DEInternal.Weighted>
2.3216

> <Gold.Chemscore.Rot.Weighted>
4.1139

> <Gold.Chemscore.Internal.Correction.Weighted>
   9.000000E+99

> <Gold.Protein.RotatedTorsions>
[ 6907 6896 6895 6894 ] final  -51.50 input  -60.11 | X-H torsion
[ 7974 7965 7964 7962 ] final  -15.95 input  175.53 | X-H torsion
[ 8008 7997 7996 7995 ] final  -67.65 input   59.86 | X-H torsion
[ 10167 10162 10161 10158 ] final   98.82 input  -65.29 | X-H torsion
[ 10718 10713 10712 10709 ] final  -14.62 input   66.30 | X-H torsion
[ 10763 10752 10751 10750 ] final  -62.35 input  -60.55 | X-H torsion
[ 11005 11000 10999 10996 ] final  -29.93 input  -57.11 | X-H torsion

> <Gold.Protein.ActiveResidues>
 VAL166  LYS551  ARG553  GLY616  TRP617  ASP618  TYR619  PRO620  LYS621  CYS622 
 ASP623  PHE694  ASN695  SER759  ASP760  ASP761  ALA762  ILE779  LEU786  VAL792 
 PHE793  MET794  SER795  GLU796  ALA797  LYS798  CYS799  TRP800  GLU811  SER814 

> <Gold.Protein.RotatedAtoms>
  150.8606  134.7956  159.7079 H   0  0  0  0  0  0  0  0  0  0  0  0  # atno 6907 bound_to 6896
  152.4644  134.5107  159.9762 H   0  0  0  0  0  0  0  0  0  0  0  0  # atno 6908 bound_to 6896
  151.5211  133.3428  159.2937 H   0  0  0  0  0  0  0  0  0  0  0  0  # atno 6909 bound_to 6896
  146.2009  140.3567  142.8423 H   0  0  0  0  0  0  0  0  0  0  0  0  # atno 7974 bound_to 7965
  154.4814  140.0888  156.7386 H   0  0  0  0  0  0  0  0  0  0  0  0  # atno 8008 bound_to 7997
  155.4460  140.3455  155.4277 H   0  0  0  0  0  0  0  0  0  0  0  0  # atno 8009 bound_to 7997
  156.1197  140.1470  156.9210 H   0  0  0  0  0  0  0  0  0  0  0  0  # atno 8010 bound_to 7997
  139.7674  144.6934  151.0205 H   0  0  0  0  0  0  0  0  0  0  0  0  # atno 10167 bound_to 10162
  156.6133  130.4855  149.6193 H   0  0  0  0  0  0  0  0  0  0  0  0  # atno 10718 bound_to 10713
  154.2986  135.6239  153.5415 H   0  0  0  0  0  0  0  0  0  0  0  0  # atno 10763 bound_to 10752
  152.9843  135.5673  154.5310 H   0  0  0  0  0  0  0  0  0  0  0  0  # atno 10764 bound_to 10752
  154.4935  135.2868  155.1453 H   0  0  0  0  0  0  0  0  0  0  0  0  # atno 10765 bound_to 10752
  140.9339  133.7321  156.0977 H   0  0  0  0  0  0  0  0  0  0  0  0  # atno 11005 bound_to 11000
  144.8682  140.7235  143.6064 LP  0  0  0  0  0  0  0  0  0  0  0  0  # atno 17320 bound_to 7965
  145.3486  139.1712  143.4447 LP  0  0  0  0  0  0  0  0  0  0  0  0  # atno 17321 bound_to 7965
  140.7812  143.4627  151.0255 LP  0  0  0  0  0  0  0  0  0  0  0  0  # atno 17342 bound_to 10162
  139.8312  143.7688  152.3180 LP  0  0  0  0  0  0  0  0  0  0  0  0  # atno 17343 bound_to 10162
  156.2371  130.6829  151.1520 LP  0  0  0  0  0  0  0  0  0  0  0  0  # atno 17370 bound_to 10713
  157.7248  131.0657  150.5980 LP  0  0  0  0  0  0  0  0  0  0  0  0  # atno 17371 bound_to 10713
  140.7825  134.3709  157.5484 LP  0  0  0  0  0  0  0  0  0  0  0  0  # atno 17394 bound_to 11000
  139.8803  134.9090  156.2982 LP  0  0  0  0  0  0  0  0  0  0  0  0  # atno 17395 bound_to 11000

$$$$
