AV-unprocessed.smi:463|AV-procd|sdf|2634|dock7
  -GOLD-   2262023 43D 1   1.00000     0.00000
 Structure written by MMmdl.
 42 44  0  0  0  0  0  0  0  0  1 V2000
  152.0901  144.6479  160.0501 C   0  0  0  0  0  0  0  0  0  0  0  0
  152.5923  143.2198  160.1020 C   0  0  0  0  0  0  0  0  0  0  0  0
  153.2199  142.7306  161.2646 C   0  0  0  0  0  0  0  0  0  0  0  0
  153.6900  141.4049  161.3045 C   0  0  0  0  0  0  0  0  0  0  0  0
  153.5356  140.5643  160.1849 C   0  0  0  0  0  0  0  0  0  0  0  0
  152.9046  141.0453  159.0101 C   0  0  0  0  0  0  0  0  0  0  0  0
  152.7095  140.2945  157.8718 O   0  0  0  0  0  0  0  0  0  0  0  0
  151.5885  140.5902  157.0496 C   0  0  0  0  0  0  0  0  0  0  0  0
  151.8259  140.0226  155.6436 C   0  0  0  0  0  0  0  0  0  0  0  0
  150.6032  139.4859  155.0629 N   0  0  0  0  0  0  0  0  0  0  0  0
  150.2762  138.1928  154.8056 C   0  0  0  0  0  0  0  0  0  0  0  0
  151.1896  137.0415  155.1142 C   0  0  0  0  0  0  0  0  0  0  0  0
  150.5865  136.0335  156.1055 C   0  0  0  0  0  0  0  0  0  0  0  0
  151.4369  134.9193  156.2772 O   0  0  0  0  0  0  0  0  0  0  0  0
  149.0740  137.9983  154.2606 N   0  0  0  0  0  0  0  0  0  0  0  0
  148.5787  139.2820  154.1453 C   0  0  0  0  0  0  0  0  0  0  0  0
  147.3463  139.7493  153.6345 C   0  0  0  0  0  0  0  0  0  0  0  0
  147.0586  141.1299  153.6169 C   0  0  0  0  0  0  0  0  0  0  0  0
  147.9966  142.0608  154.1083 C   0  0  0  0  0  0  0  0  0  0  0  0
  149.2298  141.6160  154.6225 C   0  0  0  0  0  0  0  0  0  0  0  0
  149.5118  140.2369  154.6383 C   0  0  0  0  0  0  0  0  0  0  0  0
  152.4389  142.3758  158.9833 C   0  0  0  0  0  0  0  0  0  0  0  0
  151.8333  145.0083  161.0467 H   0  0  0  0  0  0  0  0  0  0  0  0
  151.2005  144.7232  159.4242 H   0  0  0  0  0  0  0  0  0  0  0  0
  152.8580  145.3011  159.6356 H   0  0  0  0  0  0  0  0  0  0  0  0
  153.3435  143.3688  162.1271 H   0  0  0  0  0  0  0  0  0  0  0  0
  154.1713  141.0310  162.1961 H   0  0  0  0  0  0  0  0  0  0  0  0
  153.9095  139.5543  160.2529 H   0  0  0  0  0  0  0  0  0  0  0  0
  150.6846  140.1510  157.4738 H   0  0  0  0  0  0  0  0  0  0  0  0
  151.4411  141.6695  156.9839 H   0  0  0  0  0  0  0  0  0  0  0  0
  152.2453  140.7848  154.9887 H   0  0  0  0  0  0  0  0  0  0  0  0
  152.5662  139.2234  155.6867 H   0  0  0  0  0  0  0  0  0  0  0  0
  151.3911  136.5250  154.1751 H   0  0  0  0  0  0  0  0  0  0  0  0
  152.1602  137.3941  155.4610 H   0  0  0  0  0  0  0  0  0  0  0  0
  150.3862  136.5021  157.0695 H   0  0  0  0  0  0  0  0  0  0  0  0
  149.6338  135.6673  155.7223 H   0  0  0  0  0  0  0  0  0  0  0  0
  150.9311  134.1319  156.1454 H   0  0  0  0  0  0  0  0  0  0  0  0
  146.6221  139.0443  153.2541 H   0  0  0  0  0  0  0  0  0  0  0  0
  146.1140  141.4762  153.2234 H   0  0  0  0  0  0  0  0  0  0  0  0
  147.7692  143.1166  154.0902 H   0  0  0  0  0  0  0  0  0  0  0  0
  149.9509  142.3263  154.9987 H   0  0  0  0  0  0  0  0  0  0  0  0
  151.9590  142.7504  158.0909 H   0  0  0  0  0  0  0  0  0  0  0  0
  1  2  1  0  0  0  0
  1 23  1  0  0  0  0
  1 24  1  0  0  0  0
  1 25  1  0  0  0  0
  2 22  1  0  0  0  0
  2  3  2  0  0  0  0
  3  4  1  0  0  0  0
  3 26  1  0  0  0  0
  4  5  2  0  0  0  0
  4 27  1  0  0  0  0
  5  6  1  0  0  0  0
  5 28  1  0  0  0  0
  6  7  1  0  0  0  0
  6 22  2  0  0  0  0
  7  8  1  0  0  0  0
  8  9  1  0  0  0  0
  8 29  1  0  0  0  0
  8 30  1  0  0  0  0
  9 10  1  0  0  0  0
  9 31  1  0  0  0  0
  9 32  1  0  0  0  0
 10 21  1  0  0  0  0
 10 11  1  0  0  0  0
 11 12  1  0  0  0  0
 11 15  2  0  0  0  0
 12 13  1  0  0  0  0
 12 33  1  0  0  0  0
 12 34  1  0  0  0  0
 13 14  1  0  0  0  0
 13 35  1  0  0  0  0
 13 36  1  0  0  0  0
 14 37  1  0  0  0  0
 15 16  1  0  0  0  0
 16 21  2  0  0  0  0
 16 17  1  0  0  0  0
 17 18  2  0  0  0  0
 17 38  1  0  0  0  0
 18 19  1  0  0  0  0
 18 39  1  0  0  0  0
 19 20  2  0  0  0  0
 19 40  1  0  0  0  0
 20 21  1  0  0  0  0
 20 41  1  0  0  0  0
 22 42  1  0  0  0  0
M  END
> <s_m_source_file>
AV-unprocessed.smi

> <i_m_source_file_index>
463

> <i_lp_mmshare_version>
43012

> <i_f3d_flags>
0

> <s_epik_input>
W0NIM11jMVtjSF1bY0hdW2NIXWMoW2NIXTEpT1tDSDJdW0NIMl1uKGMobjIpW0NIMl1bQ0gyXVtPSF0pYyhjMjMpW2NIXVtjSF1bY0hdW2NIXTM=

> <s_epik_cmdline>
J2VwaWtfcHl0aG9uJywgJy1waCcsICc3LjAnLCAnLXRuJywgJzgnLCAnLW1hJywgJzIwMCcsICctbWV0YWxfYmluZGluZycsICctaW1hZScsICc8aW5maWxlLm1hZT4nLCAnLW9tYWUnLCAnPG91dGZpbGUubWFlPic=

> <r_lp_tautomer_probability>
1

> <r_epik_Ionization_Penalty>
0.206757

> <r_epik_Ionization_Penalty_Charging>
0

> <r_epik_Ionization_Penalty_Neutral>
0.206757

> <r_epik_State_Penalty>
0.196743

> <r_epik_Charging_Adjusted_Penalty>
0.196743

> <i_epik_Tot_Q>
0

> <i_epik_Tot_abs_Q>
0

> <r_epik_Metal_State_Penalty>
0.000233299

> <b_epik_Metal_Only>
0

> <s_lp_Force_Field>
OPLS_2005

> <r_lp_Energy>
15.5684

> <b_lp_Chiralities_Consistent>
1

> <s_lp_Variant>
AV-unprocessed.smi:463-1

> <Gold.Version>
5.8.1

> <Gold.Id.Protein>
6NUR|6NUR_protein|mol2

> <Gold.PLP.Fitness>
54.7916

> <Gold.PLP.PLP>
-50.9518

> <Gold.PLP.part.hbond>
-2.0000

> <Gold.PLP.part.metal>
0.0000

> <Gold.PLP.part.buried>
1.0094

> <Gold.PLP.part.nonpolar>
-47.2978

> <Gold.PLP.part.repulsive>
1.3059

> <Gold.PLP.ligand.clash>
0.0000

> <Gold.PLP.ligand.torsion>
0.8257

> <Gold.PLP.Chemscore.Hbond>
1.8003

> <Gold.PLP.Chemscore.CHOScore>
0.0000

> <Gold.PLP.Chemscore.Metal>
0.0000

> <Gold.Chemscore.Hbonds>
donor molecule, donor type, donor heavy atom, donor atom, acceptor molecule, acceptor atom, score
      P1  H  7997  8009       L1     7  0.94
      P1  H 10752 10765       L1    14  0.64

> <Gold.PLP.Chemscore.Internal.Correction>
0.0903

> <Gold.Rescore>
     Score         DG    S(hbond)    S(metal)    S(lipo)     H(rot)  DE(clash)    DE(int)     intcor
     18.56     -20.42       1.35        0.00     139.08       2.28       1.08       0.77       ----

> <Gold.Chemscore.Fitness>
18.5632

> <Gold.Chemscore.DG>
-20.4153

> <Gold.Chemscore.ZeroCoef>
-5.4800

> <Gold.Chemscore.Hbond>
1.3487

> <Gold.Chemscore.Metal>
0.0000

> <Gold.Chemscore.Lipo>
139.0828

> <Gold.Chemscore.Internal_Hbond>
0.0000

> <Gold.Chemscore.DEClash>
1.0828

> <Gold.Chemscore.DEInternal>
0.7692

> <Gold.Chemscore.Rot>
2.2821

> <Gold.Chemscore.Internal.Correction>
   9.000000E+99

> <Gold.Chemscore.Hbonds>
donor molecule, donor type, donor heavy atom, donor atom, acceptor molecule, acceptor atom, score
      P1  H  7997  8009       L1     7  0.56
      P1  H 10752 10765       L1    14  0.18

> <Gold.Chemscore.Hbond.Weighted>
-4.5047

> <Gold.Chemscore.Metal.Weighted>
-0.0000

> <Gold.Chemscore.Lipo.Weighted>
-16.2727

> <Gold.Chemscore.Internal_Hbond.Weighted>
0.0000

> <Gold.Chemscore.DEClash.Weighted>
1.0828

> <Gold.Chemscore.DEInternal.Weighted>
0.7692

> <Gold.Chemscore.Rot.Weighted>
5.8421

> <Gold.Chemscore.Internal.Correction.Weighted>
   9.000000E+99

> <Gold.Protein.RotatedTorsions>
[ 6907 6896 6895 6894 ] final -119.08 input  -60.11 | X-H torsion
[ 7974 7965 7964 7962 ] final  -27.25 input  175.53 | X-H torsion
[ 8008 7997 7996 7995 ] final  169.51 input   59.86 | X-H torsion
[ 10167 10162 10161 10158 ] final   -6.77 input  -65.29 | X-H torsion
[ 10718 10713 10712 10709 ] final   25.44 input   66.30 | X-H torsion
[ 10763 10752 10751 10750 ] final -155.27 input  -60.55 | X-H torsion
[ 11005 11000 10999 10996 ] final -176.39 input  -57.11 | X-H torsion

> <Gold.Protein.ActiveResidues>
 VAL166  LYS551  ARG553  GLY616  TRP617  ASP618  TYR619  PRO620  LYS621  CYS622 
 ASP623  PHE694  ASN695  SER759  ASP760  ASP761  ALA762  ILE779  LEU786  VAL792 
 PHE793  MET794  SER795  GLU796  ALA797  LYS798  CYS799  TRP800  GLU811  SER814 

> <Gold.Protein.RotatedAtoms>
  150.8274  133.8148  159.3112 H   0  0  0  0  0  0  0  0  0  0  0  0  # atno 6907 bound_to 6896
  151.5888  135.1053  160.0044 H   0  0  0  0  0  0  0  0  0  0  0  0  # atno 6908 bound_to 6896
  152.4358  133.7316  159.6647 H   0  0  0  0  0  0  0  0  0  0  0  0  # atno 6909 bound_to 6896
  146.1371  140.5127  142.8668 H   0  0  0  0  0  0  0  0  0  0  0  0  # atno 7974 bound_to 7965
  156.1450  140.1562  156.8860 H   0  0  0  0  0  0  0  0  0  0  0  0  # atno 8008 bound_to 7997
  154.5020  140.0822  156.7856 H   0  0  0  0  0  0  0  0  0  0  0  0  # atno 8009 bound_to 7997
  155.4005  140.3414  155.4259 H   0  0  0  0  0  0  0  0  0  0  0  0  # atno 8010 bound_to 7997
  140.7008  143.6156  150.8662 H   0  0  0  0  0  0  0  0  0  0  0  0  # atno 10167 bound_to 10162
  157.1934  130.6856  149.6159 H   0  0  0  0  0  0  0  0  0  0  0  0  # atno 10718 bound_to 10713
  154.7799  135.3171  154.8012 H   0  0  0  0  0  0  0  0  0  0  0  0  # atno 10763 bound_to 10752
  153.8726  135.6843  153.4777 H   0  0  0  0  0  0  0  0  0  0  0  0  # atno 10764 bound_to 10752
  153.1432  135.4730  154.9465 H   0  0  0  0  0  0  0  0  0  0  0  0  # atno 10765 bound_to 10752
  140.4527  134.6328  157.4808 H   0  0  0  0  0  0  0  0  0  0  0  0  # atno 11005 bound_to 11000
  144.7751  140.5722  143.6643 LP  0  0  0  0  0  0  0  0  0  0  0  0  # atno 17320 bound_to 7965
  145.5132  139.1478  143.3593 LP  0  0  0  0  0  0  0  0  0  0  0  0  # atno 17321 bound_to 7965
  139.9878  143.5880  152.2921 LP  0  0  0  0  0  0  0  0  0  0  0  0  # atno 17342 bound_to 10162
  139.6525  144.7661  151.2121 LP  0  0  0  0  0  0  0  0  0  0  0  0  # atno 17343 bound_to 10162
  155.9709  130.4607  150.6082 LP  0  0  0  0  0  0  0  0  0  0  0  0  # atno 17370 bound_to 10713
  157.3838  131.0785  151.1454 LP  0  0  0  0  0  0  0  0  0  0  0  0  # atno 17371 bound_to 10713
  139.9996  134.6856  155.9551 LP  0  0  0  0  0  0  0  0  0  0  0  0  # atno 17394 bound_to 11000
  141.1657  133.6537  156.4471 LP  0  0  0  0  0  0  0  0  0  0  0  0  # atno 17395 bound_to 11000

$$$$
