AV-unprocessed.smi:2252|AV-procd|sdf|9110|dock10
  -GOLD-   2272012313D 1   1.00000     0.00000
 Structure written by MMmdl.
 45 47  0  0  0  0  0  0  0  0  4 V2000
  153.1435  142.1163  159.4532 C   0  0  0  0  0  0  0  0  0  0  0  0
  152.2281  143.1978  159.0866 N   0  0  0  0  0  0  0  0  0  0  0  0
  151.9416  144.3078  159.8393 C   0  0  0  0  0  0  0  0  0  0  0  0
  151.0576  145.0596  159.1114 C   0  0  0  0  0  0  0  0  0  0  0  0
  150.8415  144.3786  157.9451 N   0  3  0  0  0  0  0  0  0  0  0  0
  151.5453  143.2373  157.9282 C   0  0  0  0  0  0  0  0  0  0  0  0
  151.5608  142.2295  156.8078 C   0  0  0  0  0  0  0  0  0  0  0  0
  150.1795  141.6584  156.4177 C   0  0  0  0  0  0  0  0  0  0  0  0
  150.1582  141.2104  155.0251 N   0  5  0  0  0  0  0  0  0  0  0  0
  149.1077  140.5541  154.4527 C   0  0  0  0  0  0  0  0  0  0  0  0
  147.9146  140.8658  154.3916 O   0  0  0  0  0  0  0  0  0  0  0  0
  149.5427  139.2198  153.8121 C   0  0  1  0  0  0  0  0  0  0  0  0
  150.4014  138.4046  154.8066 C   0  0  0  0  0  0  0  0  0  0  0  0
  151.8796  138.6890  154.9682 C   0  0  0  0  0  0  0  0  0  0  0  0
  151.4308  137.4069  154.3186 C   0  0  0  0  0  0  0  0  0  0  0  0
  148.3846  138.4315  153.2976 N   0  3  0  0  0  0  0  0  0  0  0  0
  147.4446  137.9343  154.3245 C   0  0  0  0  0  0  0  0  0  0  0  0
  146.2032  137.5187  153.5427 C   0  0  0  0  0  0  0  0  0  0  0  0
  146.1392  138.5170  152.3866 C   0  0  0  0  0  0  0  0  0  0  0  0
  147.5519  139.1092  152.2770 C   0  0  0  0  0  0  0  0  0  0  0  0
  153.4251  142.2145  160.5019 H   0  0  0  0  0  0  0  0  0  0  0  0
  154.0355  142.1751  158.8291 H   0  0  0  0  0  0  0  0  0  0  0  0
  152.6518  141.1568  159.3015 H   0  0  0  0  0  0  0  0  0  0  0  0
  152.3798  144.4782  160.8121 H   0  0  0  0  0  0  0  0  0  0  0  0
  150.5802  146.0039  159.3285 H   0  0  0  0  0  0  0  0  0  0  0  0
  151.9996  142.7415  155.9511 H   0  0  0  0  0  0  0  0  0  0  0  0
  152.2525  141.4299  157.0730 H   0  0  0  0  0  0  0  0  0  0  0  0
  149.9393  140.8363  157.0923 H   0  0  0  0  0  0  0  0  0  0  0  0
  149.4192  142.4160  156.6107 H   0  0  0  0  0  0  0  0  0  0  0  0
  150.1678  139.4663  152.9517 H   0  0  0  0  0  0  0  0  0  0  0  0
  149.8772  138.1386  155.7232 H   0  0  0  0  0  0  0  0  0  0  0  0
  152.3221  139.4494  154.3275 H   0  0  0  0  0  0  0  0  0  0  0  0
  152.3001  138.6206  155.9693 H   0  0  0  0  0  0  0  0  0  0  0  0
  151.5456  136.4869  154.8879 H   0  0  0  0  0  0  0  0  0  0  0  0
  151.5861  137.3131  153.2456 H   0  0  0  0  0  0  0  0  0  0  0  0
  147.8592  137.1065  154.9005 H   0  0  0  0  0  0  0  0  0  0  0  0
  147.1965  138.7400  155.0174 H   0  0  0  0  0  0  0  0  0  0  0  0
  146.3402  136.5105  153.1489 H   0  0  0  0  0  0  0  0  0  0  0  0
  145.3004  137.5182  154.1539 H   0  0  0  0  0  0  0  0  0  0  0  0
  145.8272  138.0324  151.4609 H   0  0  0  0  0  0  0  0  0  0  0  0
  145.4194  139.3072  152.6037 H   0  0  0  0  0  0  0  0  0  0  0  0
  147.5041  140.1798  152.4793 H   0  0  0  0  0  0  0  0  0  0  0  0
  147.9774  138.9738  151.2823 H   0  0  0  0  0  0  0  0  0  0  0  0
  148.7725  137.6096  152.8563 H   0  0  0  0  0  0  0  0  0  0  0  0
  150.2281  144.6838  157.2000 H   0  0  0  0  0  0  0  0  0  0  0  0
  1  2  1  0  0  0  0
  1 21  1  0  0  0  0
  1 22  1  0  0  0  0
  1 23  1  0  0  0  0
  2  6  1  0  0  0  0
  2  3  1  0  0  0  0
  3  4  2  0  0  0  0
  3 24  1  0  0  0  0
  4  5  1  0  0  0  0
  4 25  1  0  0  0  0
  5  6  2  0  0  0  0
  5 45  1  0  0  0  0
  6  7  1  0  0  0  0
  7  8  1  0  0  0  0
  7 26  1  0  0  0  0
  7 27  1  0  0  0  0
  8  9  1  0  0  0  0
  8 28  1  0  0  0  0
  8 29  1  0  0  0  0
  9 10  1  0  0  0  0
 10 11  2  0  0  0  0
 10 12  1  0  0  0  0
 12 13  1  0  0  0  0
 12 16  1  0  0  0  0
 12 30  1  0  0  0  0
 13 15  1  0  0  0  0
 13 14  1  0  0  0  0
 13 31  1  0  0  0  0
 14 15  1  0  0  0  0
 14 32  1  0  0  0  0
 14 33  1  0  0  0  0
 15 34  1  0  0  0  0
 15 35  1  0  0  0  0
 16 20  1  0  0  0  0
 16 17  1  0  0  0  0
 16 44  1  0  0  0  0
 17 18  1  0  0  0  0
 17 36  1  0  0  0  0
 17 37  1  0  0  0  0
 18 19  1  0  0  0  0
 18 38  1  0  0  0  0
 18 39  1  0  0  0  0
 19 20  1  0  0  0  0
 19 40  1  0  0  0  0
 19 41  1  0  0  0  0
 20 42  1  0  0  0  0
 20 43  1  0  0  0  0
M  CHG  1   5   1
M  CHG  1   9  -1
M  CHG  1  16   1
M  END
> <s_m_source_file>
AV-unprocessed.smi

> <i_m_source_file_index>
2252

> <i_lp_mmshare_version>
43012

> <i_f3d_flags>
0

> <s_epik_input>
W0NIM11uMVtjSF1bY0hdbmMxW0NIMl1bQ0gyXVtOSF1DKD1PKVtDQEhdKFtDSF0yW0NIMl1bQ0gyXTIpTjNbQ0gyXVtDSDJdW0NIMl1bQ0gyXTM=

> <s_epik_cmdline>
J2VwaWtfcHl0aG9uJywgJy1waCcsICc3LjAnLCAnLXRuJywgJzgnLCAnLW1hJywgJzIwMCcsICctbWV0YWxfYmluZGluZycsICctaW1hZScsICc8aW5maWxlLm1hZT4nLCAnLW9tYWUnLCAnPG91dGZpbGUubWFlPic=

> <r_lp_tautomer_probability>
1

> <r_epik_Ionization_Penalty>
5.88052

> <r_epik_Ionization_Penalty_Charging>
5.85424

> <r_epik_Ionization_Penalty_Neutral>
0.026272

> <r_epik_State_Penalty>
5.94961

> <r_epik_Charging_Adjusted_Penalty>
11.8039

> <i_epik_Tot_Q>
1

> <i_epik_Tot_abs_Q>
3

> <r_epik_Metal_State_Penalty>
2.20001

> <b_epik_Metal_Only>
1

> <s_lp_Force_Field>
OPLS_2005

> <r_lp_Energy>
30.4817

> <b_lp_Chiralities_Consistent>
1

> <s_lp_Variant>
AV-unprocessed.smi:2252-8

> <Gold.Version>
5.8.1

> <Gold.Id.Protein>
6NUR|6NUR_protein|mol2

> <Gold.PLP.Fitness>
51.0096

> <Gold.PLP.PLP>
-39.3649

> <Gold.PLP.part.hbond>
-4.4550

> <Gold.PLP.part.metal>
0.0000

> <Gold.PLP.part.buried>
3.7732

> <Gold.PLP.part.nonpolar>
-39.3980

> <Gold.PLP.part.repulsive>
0.3877

> <Gold.PLP.ligand.clash>
0.0000

> <Gold.PLP.ligand.torsion>
1.3653

> <Gold.PLP.Chemscore.Hbond>
4.3801

> <Gold.PLP.Chemscore.CHOScore>
0.0000

> <Gold.PLP.Chemscore.Metal>
0.0000

> <Gold.Chemscore.Hbonds>
donor molecule, donor type, donor heavy atom, donor atom, acceptor molecule, acceptor atom, score
      L1  H     5    45       P1  8028  2.00
      L1  H    16    44       P1  7948  2.00
      P1  H  7989  7998       L1     9  0.42

> <Gold.PLP.Chemscore.Internal.Correction>
1.2348

> <Gold.Rescore>
     Score         DG    S(hbond)    S(metal)    S(lipo)     H(rot)  DE(clash)    DE(int)     intcor
     11.37     -19.56       2.13        0.00     102.75       1.98       4.25       3.94       ----

> <Gold.Chemscore.Fitness>
11.3661

> <Gold.Chemscore.DG>
-19.5555

> <Gold.Chemscore.ZeroCoef>
-5.4800

> <Gold.Chemscore.Hbond>
2.1332

> <Gold.Chemscore.Metal>
0.0000

> <Gold.Chemscore.Lipo>
102.7490

> <Gold.Chemscore.Internal_Hbond>
0.0000

> <Gold.Chemscore.DEClash>
4.2513

> <Gold.Chemscore.DEInternal>
3.9381

> <Gold.Chemscore.Rot>
1.9809

> <Gold.Chemscore.Internal.Correction>
   9.000000E+99

> <Gold.Chemscore.Hbonds>
donor molecule, donor type, donor heavy atom, donor atom, acceptor molecule, acceptor atom, score
      L1  H     5    45       P1  8028  0.38
      L1  H    16    44       P1  7948  1.00
      P1  H  7989  7998       L1     9  0.10

> <Gold.Chemscore.Hbond.Weighted>
-7.1249

> <Gold.Chemscore.Metal.Weighted>
-0.0000

> <Gold.Chemscore.Lipo.Weighted>
-12.0216

> <Gold.Chemscore.Internal_Hbond.Weighted>
0.0000

> <Gold.Chemscore.DEClash.Weighted>
4.2513

> <Gold.Chemscore.DEInternal.Weighted>
3.9381

> <Gold.Chemscore.Rot.Weighted>
5.0711

> <Gold.Chemscore.Internal.Correction.Weighted>
   9.000000E+99

> <Gold.Protein.RotatedTorsions>
[ 6907 6896 6895 6894 ] final  140.70 input  -60.11 | X-H torsion
[ 7974 7965 7964 7962 ] final   52.85 input  175.53 | X-H torsion
[ 8008 7997 7996 7995 ] final   28.31 input   59.86 | X-H torsion
[ 10167 10162 10161 10158 ] final  -39.37 input  -65.29 | X-H torsion
[ 10718 10713 10712 10709 ] final  112.46 input   66.30 | X-H torsion
[ 10763 10752 10751 10750 ] final    9.85 input  -60.55 | X-H torsion
[ 11005 11000 10999 10996 ] final   71.64 input  -57.11 | X-H torsion

> <Gold.Protein.ActiveResidues>
 VAL166  LYS551  ARG553  GLY616  TRP617  ASP618  TYR619  PRO620  LYS621  CYS622 
 ASP623  PHE694  ASN695  SER759  ASP760  ASP761  ALA762  ILE779  LEU786  VAL792 
 PHE793  MET794  SER795  GLU796  ALA797  LYS798  CYS799  TRP800  GLU811  SER814 

> <Gold.Protein.RotatedAtoms>
  152.2399  133.5127  159.5263 H   0  0  0  0  0  0  0  0  0  0  0  0  # atno 6907 bound_to 6896
  150.7061  134.1103  159.4006 H   0  0  0  0  0  0  0  0  0  0  0  0  # atno 6908 bound_to 6896
  151.9024  135.0373  160.0558 H   0  0  0  0  0  0  0  0  0  0  0  0  # atno 6909 bound_to 6896
  145.9771  139.4205  143.0155 H   0  0  0  0  0  0  0  0  0  0  0  0  # atno 7974 bound_to 7965
  155.0567  140.3185  155.4674 H   0  0  0  0  0  0  0  0  0  0  0  0  # atno 8008 bound_to 7997
  156.2822  140.2136  156.5637 H   0  0  0  0  0  0  0  0  0  0  0  0  # atno 8009 bound_to 7997
  154.7166  140.0493  157.0588 H   0  0  0  0  0  0  0  0  0  0  0  0  # atno 8010 bound_to 7997
  140.7066  143.3219  151.2773 H   0  0  0  0  0  0  0  0  0  0  0  0  # atno 10167 bound_to 10162
  157.6391  131.0968  150.6898 H   0  0  0  0  0  0  0  0  0  0  0  0  # atno 10718 bound_to 10713
  153.2096  135.6867  153.8131 H   0  0  0  0  0  0  0  0  0  0  0  0  # atno 10763 bound_to 10752
  153.7368  135.3244  155.3297 H   0  0  0  0  0  0  0  0  0  0  0  0  # atno 10764 bound_to 10752
  154.8215  135.4649  154.0897 H   0  0  0  0  0  0  0  0  0  0  0  0  # atno 10765 bound_to 10752
  139.9532  134.7189  156.0812 H   0  0  0  0  0  0  0  0  0  0  0  0  # atno 11005 bound_to 11000
  145.7823  140.9851  143.1093 LP  0  0  0  0  0  0  0  0  0  0  0  0  # atno 17320 bound_to 7965
  144.6851  139.9580  143.7479 LP  0  0  0  0  0  0  0  0  0  0  0  0  # atno 17321 bound_to 7965
  139.6675  144.0079  152.2732 LP  0  0  0  0  0  0  0  0  0  0  0  0  # atno 17342 bound_to 10162
  139.9667  144.6522  150.8028 LP  0  0  0  0  0  0  0  0  0  0  0  0  # atno 17343 bound_to 10162
  156.7224  130.4685  149.5519 LP  0  0  0  0  0  0  0  0  0  0  0  0  # atno 17370 bound_to 10713
  156.1656  130.6403  151.0774 LP  0  0  0  0  0  0  0  0  0  0  0  0  # atno 17371 bound_to 10713
  141.1199  133.6616  156.3189 LP  0  0  0  0  0  0  0  0  0  0  0  0  # atno 17394 bound_to 11000
  140.5669  134.5879  157.5448 LP  0  0  0  0  0  0  0  0  0  0  0  0  # atno 17395 bound_to 11000

$$$$
