AV-unprocessed.smi:774|AV-procd|sdf|3693|dock4
  -GOLD-   22720 1113D 1   1.00000     0.00000
 Structure written by MMmdl.
 37 38  0  0  0  0  0  0  0  0  1 V2000
  153.7847  140.5355  160.3913 C   0  0  0  0  0  0  0  0  0  0  0  0
  154.0013  141.4939  161.5653 C   0  0  0  0  0  0  0  0  0  0  0  0
  152.5769  142.5929  161.7958 S   0  0  0  0  0  0  0  0  0  0  0  0
  152.7811  143.6975  160.3686 C   0  0  2  0  0  0  0  0  0  0  0  0
  151.7565  144.8299  160.3302 C   0  0  0  0  0  0  0  0  0  0  0  0
  151.7688  145.2956  158.8740 C   0  0  0  0  0  0  0  0  0  0  0  0
  152.1235  144.0535  158.0320 C   0  0  2  0  0  0  0  0  0  0  0  0
  150.9794  143.5893  157.2512 N   0  0  0  0  0  0  0  0  0  0  0  0
  150.8915  142.3947  156.6493 C   0  0  0  0  0  0  0  0  0  0  0  0
  151.7862  141.5500  156.6841 O   0  0  0  0  0  0  0  0  0  0  0  0
  149.7228  142.2640  155.9984 N   0  0  0  0  0  0  0  0  0  0  0  0
  149.2459  141.1515  155.2538 C   0  0  0  0  0  0  0  0  0  0  0  0
  150.1162  140.0575  155.0686 C   0  0  0  0  0  0  0  0  0  0  0  0
  149.6764  138.9494  154.3198 C   0  0  0  0  0  0  0  0  0  0  0  0
  148.3788  138.9830  153.7738 C   0  0  0  0  0  0  0  0  0  0  0  0
  147.5382  140.0277  153.9277 N   0  0  0  0  0  0  0  0  0  0  0  0
  147.9658  141.0867  154.6488 C   0  0  0  0  0  0  0  0  0  0  0  0
  152.5786  142.9751  159.0334 C   0  0  0  0  0  0  0  0  0  0  0  0
  154.6461  139.8803  160.2607 H   0  0  0  0  0  0  0  0  0  0  0  0
  153.6380  141.0823  159.4595 H   0  0  0  0  0  0  0  0  0  0  0  0
  152.9091  139.9064  160.5534 H   0  0  0  0  0  0  0  0  0  0  0  0
  154.1681  140.9268  162.4812 H   0  0  0  0  0  0  0  0  0  0  0  0
  154.8918  142.0987  161.3927 H   0  0  0  0  0  0  0  0  0  0  0  0
  153.7862  144.1212  160.3898 H   0  0  0  0  0  0  0  0  0  0  0  0
  150.7663  144.4482  160.5832 H   0  0  0  0  0  0  0  0  0  0  0  0
  151.9910  145.6370  161.0247 H   0  0  0  0  0  0  0  0  0  0  0  0
  150.8241  145.7610  158.5889 H   0  0  0  0  0  0  0  0  0  0  0  0
  152.5465  146.0494  158.7442 H   0  0  0  0  0  0  0  0  0  0  0  0
  152.9510  144.2947  157.3618 H   0  0  0  0  0  0  0  0  0  0  0  0
  150.2001  144.2252  157.1647 H   0  0  0  0  0  0  0  0  0  0  0  0
  149.1255  143.0776  155.9908 H   0  0  0  0  0  0  0  0  0  0  0  0
  151.1079  140.0628  155.4974 H   0  0  0  0  0  0  0  0  0  0  0  0
  150.3187  138.0949  154.1664 H   0  0  0  0  0  0  0  0  0  0  0  0
  148.0078  138.1511  153.1936 H   0  0  0  0  0  0  0  0  0  0  0  0
  147.2604  141.9004  154.7137 H   0  0  0  0  0  0  0  0  0  0  0  0
  153.4849  142.4653  158.7047 H   0  0  0  0  0  0  0  0  0  0  0  0
  151.8057  142.2126  159.1464 H   0  0  0  0  0  0  0  0  0  0  0  0
  1  2  1  0  0  0  0
  1 19  1  0  0  0  0
  1 20  1  0  0  0  0
  1 21  1  0  0  0  0
  2  3  1  0  0  0  0
  2 22  1  0  0  0  0
  2 23  1  0  0  0  0
  3  4  1  0  0  0  0
  4 18  1  0  0  0  0
  4  5  1  0  0  0  0
  4 24  1  0  0  0  0
  5  6  1  0  0  0  0
  5 25  1  0  0  0  0
  5 26  1  0  0  0  0
  6  7  1  0  0  0  0
  6 27  1  0  0  0  0
  6 28  1  0  0  0  0
  7  8  1  0  0  0  0
  7 18  1  0  0  0  0
  7 29  1  0  0  0  0
  8  9  1  0  0  0  0
  8 30  1  0  0  0  0
  9 10  2  0  0  0  0
  9 11  1  0  0  0  0
 11 12  1  0  0  0  0
 11 31  1  0  0  0  0
 12 17  1  0  0  0  0
 12 13  2  0  0  0  0
 13 14  1  0  0  0  0
 13 32  1  0  0  0  0
 14 15  2  0  0  0  0
 14 33  1  0  0  0  0
 15 16  1  0  0  0  0
 15 34  1  0  0  0  0
 16 17  2  0  0  0  0
 17 35  1  0  0  0  0
 18 36  1  0  0  0  0
 18 37  1  0  0  0  0
M  END
> <s_m_source_file>
AV-unprocessed.smi

> <i_m_source_file_index>
774

> <i_lp_mmshare_version>
43012

> <i_f3d_flags>
0

> <s_epik_input>
W0NIM11bQ0gyXVNbQ0BASF0xW0NIMl1bQ0gyXVtDQEhdKFtDSDJdMSlbTkhdQyg9TylbTkhdYzJbY0hdW2NIXVtjSF1uW2NIXTI=

> <s_epik_cmdline>
J2VwaWtfcHl0aG9uJywgJy1waCcsICc3LjAnLCAnLXRuJywgJzgnLCAnLW1hJywgJzIwMCcsICctbWV0YWxfYmluZGluZycsICctaW1hZScsICc8aW5maWxlLm1hZT4nLCAnLW9tYWUnLCAnPG91dGZpbGUubWFlPic=

> <r_epik_Ionization_Penalty>
0.00485718

> <r_epik_Ionization_Penalty_Charging>
0

> <r_epik_Ionization_Penalty_Neutral>
0.00485718

> <r_epik_State_Penalty>
0.00349461

> <r_epik_Charging_Adjusted_Penalty>
0.00349461

> <i_epik_Tot_Q>
0

> <i_epik_Tot_abs_Q>
0

> <r_epik_Metal_State_Penalty>
-0

> <b_epik_Metal_Only>
0

> <s_lp_Force_Field>
OPLS_2005

> <r_lp_Energy>
20.2727

> <b_lp_Chiralities_Consistent>
1

> <s_lp_Variant>
AV-unprocessed.smi:774-3

> <Gold.Version>
5.8.1

> <Gold.Id.Protein>
6NUR|6NUR_protein|mol2

> <Gold.PLP.Fitness>
52.4499

> <Gold.PLP.PLP>
-44.5781

> <Gold.PLP.part.hbond>
-2.0000

> <Gold.PLP.part.metal>
0.0000

> <Gold.PLP.part.buried>
-2.2425

> <Gold.PLP.part.nonpolar>
-40.5785

> <Gold.PLP.part.repulsive>
0.2989

> <Gold.PLP.ligand.clash>
0.0000

> <Gold.PLP.ligand.torsion>
0.2176

> <Gold.PLP.Chemscore.Hbond>
1.7680

> <Gold.PLP.Chemscore.CHOScore>
0.9971

> <Gold.PLP.Chemscore.Metal>
0.0000

> <Gold.Chemscore.Hbonds>
donor molecule, donor type, donor heavy atom, donor atom, acceptor molecule, acceptor atom, score
      L1  H     8    30       P1  8028  0.71
      L1  H    11    31       P1  8028  1.00
      L1  C    15    34       P1  7948  1.00

> <Gold.PLP.Chemscore.Internal.Correction>
0.0116

> <Gold.Rescore>
     Score         DG    S(hbond)    S(metal)    S(lipo)     H(rot)  DE(clash)    DE(int)     intcor
     18.90     -22.32       1.78        0.00     121.62       1.30       0.35       3.07       ----

> <Gold.Chemscore.Fitness>
18.8966

> <Gold.Chemscore.DG>
-22.3161

> <Gold.Chemscore.ZeroCoef>
-5.4800

> <Gold.Chemscore.Hbond>
1.7798

> <Gold.Chemscore.Metal>
0.0000

> <Gold.Chemscore.Lipo>
121.6236

> <Gold.Chemscore.Internal_Hbond>
0.0000

> <Gold.Chemscore.DEClash>
0.3519

> <Gold.Chemscore.DEInternal>
3.0675

> <Gold.Chemscore.Rot>
1.3041

> <Gold.Chemscore.Internal.Correction>
   9.000000E+99

> <Gold.Chemscore.Hbonds>
donor molecule, donor type, donor heavy atom, donor atom, acceptor molecule, acceptor atom, score
      L1  H     8    30       P1  8028  0.55
      L1  H    11    31       P1  8028  0.95

> <Gold.Chemscore.Hbond.Weighted>
-5.9445

> <Gold.Chemscore.Metal.Weighted>
-0.0000

> <Gold.Chemscore.Lipo.Weighted>
-14.2300

> <Gold.Chemscore.Internal_Hbond.Weighted>
0.0000

> <Gold.Chemscore.DEClash.Weighted>
0.3519

> <Gold.Chemscore.DEInternal.Weighted>
3.0675

> <Gold.Chemscore.Rot.Weighted>
3.3384

> <Gold.Chemscore.Internal.Correction.Weighted>
   9.000000E+99

> <Gold.Protein.RotatedTorsions>
[ 6907 6896 6895 6894 ] final  -28.06 input  -60.11 | X-H torsion
[ 7974 7965 7964 7962 ] final  -42.48 input  175.53 | X-H torsion
[ 8008 7997 7996 7995 ] final  168.76 input   59.86 | X-H torsion
[ 10167 10162 10161 10158 ] final  -31.65 input  -65.29 | X-H torsion
[ 10718 10713 10712 10709 ] final  120.26 input   66.30 | X-H torsion
[ 10763 10752 10751 10750 ] final   62.82 input  -60.55 | X-H torsion
[ 11005 11000 10999 10996 ] final -115.07 input  -57.11 | X-H torsion

> <Gold.Protein.ActiveResidues>
 VAL166  LYS551  ARG553  GLY616  TRP617  ASP618  TYR619  PRO620  LYS621  CYS622 
 ASP623  PHE694  ASN695  SER759  ASP760  ASP761  ALA762  ILE779  LEU786  VAL792 
 PHE793  MET794  SER795  GLU796  ALA797  LYS798  CYS799  TRP800  GLU811  SER814 

> <Gold.Protein.RotatedAtoms>
  151.1382  135.0166  159.8613 H   0  0  0  0  0  0  0  0  0  0  0  0  # atno 6907 bound_to 6896
  152.5452  134.1530  159.8536 H   0  0  0  0  0  0  0  0  0  0  0  0  # atno 6908 bound_to 6896
  151.1603  133.4804  159.2627 H   0  0  0  0  0  0  0  0  0  0  0  0  # atno 6909 bound_to 6896
  146.0112  140.6962  142.9223 H   0  0  0  0  0  0  0  0  0  0  0  0  # atno 7974 bound_to 7965
  156.1518  140.1582  156.8758 H   0  0  0  0  0  0  0  0  0  0  0  0  # atno 8008 bound_to 7997
  154.5078  140.0808  156.7966 H   0  0  0  0  0  0  0  0  0  0  0  0  # atno 8009 bound_to 7997
  155.3882  140.3408  155.4252 H   0  0  0  0  0  0  0  0  0  0  0  0  # atno 8010 bound_to 7997
  140.7233  143.3755  151.1698 H   0  0  0  0  0  0  0  0  0  0  0  0  # atno 10167 bound_to 10162
  157.5903  131.1065  150.8011 H   0  0  0  0  0  0  0  0  0  0  0  0  # atno 10718 bound_to 10713
  152.9996  135.5451  154.6254 H   0  0  0  0  0  0  0  0  0  0  0  0  # atno 10763 bound_to 10752
  154.5544  135.2829  155.0981 H   0  0  0  0  0  0  0  0  0  0  0  0  # atno 10764 bound_to 10752
  154.2208  135.6451  153.5196 H   0  0  0  0  0  0  0  0  0  0  0  0  # atno 10765 bound_to 10752
  141.0512  133.9685  157.2834 H   0  0  0  0  0  0  0  0  0  0  0  0  # atno 11005 bound_to 11000
  144.6954  140.3401  143.7200 LP  0  0  0  0  0  0  0  0  0  0  0  0  # atno 17320 bound_to 7965
  145.7339  139.1744  143.2414 LP  0  0  0  0  0  0  0  0  0  0  0  0  # atno 17321 bound_to 7965
  139.7334  143.9037  152.3027 LP  0  0  0  0  0  0  0  0  0  0  0  0  # atno 17342 bound_to 10162
  139.8833  144.7005  150.8852 LP  0  0  0  0  0  0  0  0  0  0  0  0  # atno 17343 bound_to 10162
  156.8434  130.5056  149.5319 LP  0  0  0  0  0  0  0  0  0  0  0  0  # atno 17370 bound_to 10713
  156.0957  130.5930  150.9809 LP  0  0  0  0  0  0  0  0  0  0  0  0  # atno 17371 bound_to 10713
  139.9352  135.0197  156.8531 LP  0  0  0  0  0  0  0  0  0  0  0  0  # atno 17394 bound_to 11000
  140.6052  134.0134  155.7554 LP  0  0  0  0  0  0  0  0  0  0  0  0  # atno 17395 bound_to 11000

$$$$
