AV-unprocessed.smi:2063|AV-procd|sdf|8410|dock3
  -GOLD-   2272011103D 1   1.00000     0.00000
 Structure written by MMmdl.
 39 40  0  0  0  0  0  0  0  0  1 V2000
  151.9374  140.2966  156.8580 C   0  0  0  0  0  0  0  0  0  0  0  0
  151.0020  141.2463  156.0953 C   0  0  0  0  0  0  0  0  0  0  0  0
  150.4503  142.3809  156.9707 C   0  0  0  0  0  0  0  0  0  0  0  0
  149.9154  140.5101  155.3751 C   0  0  0  0  0  0  0  0  0  0  0  0
  148.6237  140.8582  155.4520 N   0  0  0  0  0  0  0  0  0  0  0  0
  147.8066  140.0265  154.7000 N   0  0  0  0  0  0  0  0  0  0  0  0
  148.5066  139.0709  154.0741 C   0  0  0  0  0  0  0  0  0  0  0  0
  147.9218  138.0840  153.2370 N   0  0  0  0  0  0  0  0  0  0  0  0
  146.6172  137.8415  153.0202 C   0  0  0  0  0  0  0  0  0  0  0  0
  145.6838  138.4562  153.5371 O   0  0  0  0  0  0  0  0  0  0  0  0
  146.4513  136.8289  152.1561 N   0  0  0  0  0  0  0  0  0  0  0  0
  145.1672  136.3090  151.6910 C   0  0  2  0  0  0  0  0  0  0  0  0
  144.2897  136.0100  152.9164 C   0  0  0  0  0  0  0  0  0  0  0  0
  145.3916  135.0587  150.8151 C   0  0  1  0  0  0  0  0  0  0  0  0
  146.1263  133.9122  151.5112 C   0  0  0  0  0  0  0  0  0  0  0  0
  145.6852  132.6809  150.7359 C   0  0  0  0  0  0  0  0  0  0  0  0
  144.4444  133.1477  149.9704 C   0  0  0  0  0  0  0  0  0  0  0  0
  144.1577  134.4426  150.4788 O   0  0  0  0  0  0  0  0  0  0  0  0
  150.2386  139.1118  154.3551 S   0  0  0  0  0  0  0  0  0  0  0  0
  152.3743  139.5552  156.1882 H   0  0  0  0  0  0  0  0  0  0  0  0
  151.4053  139.7618  157.6454 H   0  0  0  0  0  0  0  0  0  0  0  0
  152.7568  140.8438  157.3244 H   0  0  0  0  0  0  0  0  0  0  0  0
  151.6116  141.7228  155.3264 H   0  0  0  0  0  0  0  0  0  0  0  0
  149.8642  143.0838  156.3777 H   0  0  0  0  0  0  0  0  0  0  0  0
  151.2580  142.9408  157.4428 H   0  0  0  0  0  0  0  0  0  0  0  0
  149.8074  141.9947  157.7626 H   0  0  0  0  0  0  0  0  0  0  0  0
  148.5746  137.4922  152.7450 H   0  0  0  0  0  0  0  0  0  0  0  0
  147.2778  136.3864  151.7822 H   0  0  0  0  0  0  0  0  0  0  0  0
  144.6572  137.0701  151.0974 H   0  0  0  0  0  0  0  0  0  0  0  0
  143.2945  135.6768  152.6216 H   0  0  0  0  0  0  0  0  0  0  0  0
  144.1628  136.8997  153.5341 H   0  0  0  0  0  0  0  0  0  0  0  0
  144.7303  135.2317  153.5404 H   0  0  0  0  0  0  0  0  0  0  0  0
  145.9129  135.3274  149.8937 H   0  0  0  0  0  0  0  0  0  0  0  0
  147.2087  134.0433  151.5141 H   0  0  0  0  0  0  0  0  0  0  0  0
  145.7946  133.8276  152.5472 H   0  0  0  0  0  0  0  0  0  0  0  0
  146.4593  132.3492  150.0429 H   0  0  0  0  0  0  0  0  0  0  0  0
  145.4600  131.8534  151.4096 H   0  0  0  0  0  0  0  0  0  0  0  0
  144.6566  133.2200  148.9029 H   0  0  0  0  0  0  0  0  0  0  0  0
  143.5935  132.4793  150.1039 H   0  0  0  0  0  0  0  0  0  0  0  0
  1  2  1  0  0  0  0
  1 20  1  0  0  0  0
  1 21  1  0  0  0  0
  1 22  1  0  0  0  0
  2  3  1  0  0  0  0
  2  4  1  0  0  0  0
  2 23  1  0  0  0  0
  3 24  1  0  0  0  0
  3 25  1  0  0  0  0
  3 26  1  0  0  0  0
  4 19  1  0  0  0  0
  4  5  2  0  0  0  0
  5  6  1  0  0  0  0
  6  7  2  0  0  0  0
  7  8  1  0  0  0  0
  7 19  1  0  0  0  0
  8  9  1  0  0  0  0
  8 27  1  0  0  0  0
  9 10  2  0  0  0  0
  9 11  1  0  0  0  0
 11 12  1  0  0  0  0
 11 28  1  0  0  0  0
 12 13  1  0  0  0  0
 12 14  1  0  0  0  0
 12 29  1  0  0  0  0
 13 30  1  0  0  0  0
 13 31  1  0  0  0  0
 13 32  1  0  0  0  0
 14 18  1  0  0  0  0
 14 15  1  0  0  0  0
 14 33  1  0  0  0  0
 15 16  1  0  0  0  0
 15 34  1  0  0  0  0
 15 35  1  0  0  0  0
 16 17  1  0  0  0  0
 16 36  1  0  0  0  0
 16 37  1  0  0  0  0
 17 18  1  0  0  0  0
 17 38  1  0  0  0  0
 17 39  1  0  0  0  0
M  END
> <s_m_source_file>
AV-unprocessed.smi

> <i_m_source_file_index>
2063

> <i_lp_mmshare_version>
43012

> <i_f3d_flags>
0

> <s_epik_input>
W0NIM11bQ0hdKFtDSDNdKWMxbm5jKHMxKVtOSF1DKD1PKVtOSF1bQ0BIXShbQ0gzXSlbQ0BASF0yW0NIMl1bQ0gyXVtDSDJdTzI=

> <s_epik_cmdline>
J2VwaWtfcHl0aG9uJywgJy1waCcsICc3LjAnLCAnLXRuJywgJzgnLCAnLW1hJywgJzIwMCcsICctbWV0YWxfYmluZGluZycsICctaW1hZScsICc8aW5maWxlLm1hZT4nLCAnLW9tYWUnLCAnPG91dGZpbGUubWFlPic=

> <r_lp_tautomer_probability>
1

> <r_epik_Ionization_Penalty>
0.00050567

> <r_epik_Ionization_Penalty_Charging>
0

> <r_epik_Ionization_Penalty_Neutral>
0.00050567

> <r_epik_State_Penalty>
-0

> <r_epik_Charging_Adjusted_Penalty>
0

> <i_epik_Tot_Q>
0

> <i_epik_Tot_abs_Q>
0

> <r_epik_Metal_State_Penalty>
0.219912

> <b_epik_Metal_Only>
0

> <s_lp_Force_Field>
OPLS_2005

> <r_lp_Energy>
10.8912

> <b_lp_Chiralities_Consistent>
1

> <s_lp_Variant>
AV-unprocessed.smi:2063-3

> <Gold.Version>
5.8.1

> <Gold.Id.Protein>
6NUR|6NUR_protein|mol2

> <Gold.PLP.Fitness>
35.5209

> <Gold.PLP.PLP>
-29.9272

> <Gold.PLP.part.hbond>
-1.9896

> <Gold.PLP.part.metal>
0.0000

> <Gold.PLP.part.buried>
-4.1051

> <Gold.PLP.part.nonpolar>
-25.5991

> <Gold.PLP.part.repulsive>
1.0696

> <Gold.PLP.ligand.clash>
0.0000

> <Gold.PLP.ligand.torsion>
0.2170

> <Gold.PLP.Chemscore.Hbond>
1.9760

> <Gold.PLP.Chemscore.CHOScore>
0.0000

> <Gold.PLP.Chemscore.Metal>
0.0000

> <Gold.Chemscore.Hbonds>
donor molecule, donor type, donor heavy atom, donor atom, acceptor molecule, acceptor atom, score
      L1  H     8    27       P1  7948  1.00
      L1  H    11    28       P1  7948  0.98

> <Gold.PLP.Chemscore.Internal.Correction>
0.0998

> <Gold.Rescore>
     Score         DG    S(hbond)    S(metal)    S(lipo)     H(rot)  DE(clash)    DE(int)     intcor
     13.56     -16.60       1.93        0.00      70.80       1.42       0.24       2.80       ----

> <Gold.Chemscore.Fitness>
13.5554

> <Gold.Chemscore.DG>
-16.5965

> <Gold.Chemscore.ZeroCoef>
-5.4800

> <Gold.Chemscore.Hbond>
1.9329

> <Gold.Chemscore.Metal>
0.0000

> <Gold.Chemscore.Lipo>
70.8004

> <Gold.Chemscore.Internal_Hbond>
0.0000

> <Gold.Chemscore.DEClash>
0.2362

> <Gold.Chemscore.DEInternal>
2.8049

> <Gold.Chemscore.Rot>
1.4152

> <Gold.Chemscore.Internal.Correction>
   9.000000E+99

> <Gold.Chemscore.Hbonds>
donor molecule, donor type, donor heavy atom, donor atom, acceptor molecule, acceptor atom, score
      L1  H     8    27       P1  7948  0.94
      L1  H    11    28       P1  7948  0.92

> <Gold.Chemscore.Hbond.Weighted>
-6.4558

> <Gold.Chemscore.Metal.Weighted>
-0.0000

> <Gold.Chemscore.Lipo.Weighted>
-8.2836

> <Gold.Chemscore.Internal_Hbond.Weighted>
0.0000

> <Gold.Chemscore.DEClash.Weighted>
0.2362

> <Gold.Chemscore.DEInternal.Weighted>
2.8049

> <Gold.Chemscore.Rot.Weighted>
3.6229

> <Gold.Chemscore.Internal.Correction.Weighted>
   9.000000E+99

> <Gold.Protein.RotatedTorsions>
[ 6907 6896 6895 6894 ] final  160.51 input  -60.11 | X-H torsion
[ 7974 7965 7964 7962 ] final  172.34 input  175.53 | X-H torsion
[ 8008 7997 7996 7995 ] final   72.26 input   59.86 | X-H torsion
[ 10167 10162 10161 10158 ] final   63.58 input  -65.29 | X-H torsion
[ 10718 10713 10712 10709 ] final  -95.63 input   66.30 | X-H torsion
[ 10763 10752 10751 10750 ] final  175.10 input  -60.55 | X-H torsion
[ 11005 11000 10999 10996 ] final  105.98 input  -57.11 | X-H torsion

> <Gold.Protein.ActiveResidues>
 VAL166  LYS551  ARG553  GLY616  TRP617  ASP618  TYR619  PRO620  LYS621  CYS622 
 ASP623  PHE694  ASN695  SER759  ASP760  ASP761  ALA762  ILE779  LEU786  VAL792 
 PHE793  MET794  SER795  GLU796  ALA797  LYS798  CYS799  TRP800  GLU811  SER814 

> <Gold.Protein.RotatedAtoms>
  151.9695  133.3721  159.4065 H   0  0  0  0  0  0  0  0  0  0  0  0  # atno 6907 bound_to 6896
  150.6951  134.4154  159.5190 H   0  0  0  0  0  0  0  0  0  0  0  0  # atno 6908 bound_to 6896
  152.1856  134.8716  160.0573 H   0  0  0  0  0  0  0  0  0  0  0  0  # atno 6909 bound_to 6896
  144.7271  139.9484  143.6431 H   0  0  0  0  0  0  0  0  0  0  0  0  # atno 7974 bound_to 7965
  155.7662  140.3485  155.5223 H   0  0  0  0  0  0  0  0  0  0  0  0  # atno 8008 bound_to 7997
  155.8866  140.1011  157.1469 H   0  0  0  0  0  0  0  0  0  0  0  0  # atno 8009 bound_to 7997
  154.4029  140.1312  156.4250 H   0  0  0  0  0  0  0  0  0  0  0  0  # atno 8010 bound_to 7997
  140.1315  144.4638  150.6862 H   0  0  0  0  0  0  0  0  0  0  0  0  # atno 10167 bound_to 10162
  156.0047  130.5117  150.6105 H   0  0  0  0  0  0  0  0  0  0  0  0  # atno 10718 bound_to 10713
  154.4630  135.2768  155.1699 H   0  0  0  0  0  0  0  0  0  0  0  0  # atno 10763 bound_to 10752
  154.3479  135.6156  153.5632 H   0  0  0  0  0  0  0  0  0  0  0  0  # atno 10764 bound_to 10752
  152.9856  135.5804  154.4996 H   0  0  0  0  0  0  0  0  0  0  0  0  # atno 10765 bound_to 10752
  139.8808  134.9354  156.5597 H   0  0  0  0  0  0  0  0  0  0  0  0  # atno 11005 bound_to 11000
  146.0730  139.3719  143.0511 LP  0  0  0  0  0  0  0  0  0  0  0  0  # atno 17320 bound_to 7965
  145.7942  140.9800  143.1033 LP  0  0  0  0  0  0  0  0  0  0  0  0  # atno 17321 bound_to 7965
  140.6814  143.2328  151.5374 LP  0  0  0  0  0  0  0  0  0  0  0  0  # atno 17342 bound_to 10162
  139.5517  144.2378  152.1542 LP  0  0  0  0  0  0  0  0  0  0  0  0  # atno 17343 bound_to 10162
  157.3938  131.0799  151.1370 LP  0  0  0  0  0  0  0  0  0  0  0  0  # atno 17370 bound_to 10713
  157.2053  130.6413  149.5754 LP  0  0  0  0  0  0  0  0  0  0  0  0  # atno 17371 bound_to 10713
  140.8178  133.8377  155.8868 LP  0  0  0  0  0  0  0  0  0  0  0  0  # atno 17394 bound_to 11000
  140.9446  134.1856  157.4772 LP  0  0  0  0  0  0  0  0  0  0  0  0  # atno 17395 bound_to 11000

$$$$
