AV-unprocessed.smi:2227|AV-procd|sdf|9021|dock3
  -GOLD-   2272012223D 1   1.00000     0.00000
 Structure written by MMmdl.
 43 45  0  0  0  0  0  0  0  0  2 V2000
  147.4888  140.5933  154.9801 C   0  0  0  0  0  0  0  0  0  0  0  0
  148.2351  139.9583  153.7983 C   0  0  0  0  0  0  0  0  0  0  0  0
  147.3636  138.9238  153.0705 C   0  0  0  0  0  0  0  0  0  0  0  0
  149.5471  139.3694  154.2401 C   0  0  0  0  0  0  0  0  0  0  0  0
  149.9484  138.1175  153.9839 N   0  3  0  0  0  0  0  0  0  0  0  0
  151.1687  137.8768  154.5516 C   0  0  0  0  0  0  0  0  0  0  0  0
  151.5287  139.0305  155.1953 C   0  0  0  0  0  0  0  0  0  0  0  0
  150.5126  139.9309  154.9942 N   0  0  0  0  0  0  0  0  0  0  0  0
  150.4696  141.3035  155.5206 C   0  0  0  0  0  0  0  0  0  0  0  0
  150.5873  141.3304  157.0464 C   0  0  0  0  0  0  0  0  0  0  0  0
  150.0057  140.4830  157.7234 O   0  0  0  0  0  0  0  0  0  0  0  0
  151.3328  142.3161  157.5689 N   0  0  0  0  0  0  0  0  0  0  0  0
  151.5723  142.5420  158.9903 C   0  0  0  0  0  0  0  0  0  0  0  0
  151.1657  143.9450  159.4040 C   0  0  0  0  0  0  0  0  0  0  0  0
  152.0110  145.1485  159.0597 C   0  0  0  0  0  0  0  0  0  0  0  0
  151.9071  144.6822  160.4938 C   0  0  0  0  0  0  0  0  0  0  0  0
  153.0152  142.2712  159.3847 C   0  0  0  0  0  0  0  0  0  0  0  0
  153.4544  140.9141  159.8823 C   0  0  0  0  0  0  0  0  0  0  0  0
  153.4167  142.0906  160.8300 C   0  0  0  0  0  0  0  0  0  0  0  0
  148.0966  141.3586  155.4639 H   0  0  0  0  0  0  0  0  0  0  0  0
  147.2313  139.8488  155.7339 H   0  0  0  0  0  0  0  0  0  0  0  0
  146.5634  141.0672  154.6517 H   0  0  0  0  0  0  0  0  0  0  0  0
  148.4641  140.7473  153.0843 H   0  0  0  0  0  0  0  0  0  0  0  0
  147.8862  138.5094  152.2079 H   0  0  0  0  0  0  0  0  0  0  0  0
  146.4400  139.3763  152.7085 H   0  0  0  0  0  0  0  0  0  0  0  0
  147.0910  138.0956  153.7253 H   0  0  0  0  0  0  0  0  0  0  0  0
  151.6735  136.9260  154.4616 H   0  0  0  0  0  0  0  0  0  0  0  0
  152.4092  139.2697  155.7741 H   0  0  0  0  0  0  0  0  0  0  0  0
  151.3040  141.8592  155.0910 H   0  0  0  0  0  0  0  0  0  0  0  0
  149.5558  141.7869  155.1724 H   0  0  0  0  0  0  0  0  0  0  0  0
  151.7734  142.9635  156.9312 H   0  0  0  0  0  0  0  0  0  0  0  0
  150.9425  141.8524  159.5562 H   0  0  0  0  0  0  0  0  0  0  0  0
  150.0898  144.1090  159.3726 H   0  0  0  0  0  0  0  0  0  0  0  0
  152.9576  144.9812  158.5500 H   0  0  0  0  0  0  0  0  0  0  0  0
  151.4917  146.0657  158.7894 H   0  0  0  0  0  0  0  0  0  0  0  0
  151.3188  145.2875  161.1803 H   0  0  0  0  0  0  0  0  0  0  0  0
  152.7851  144.2070  160.9261 H   0  0  0  0  0  0  0  0  0  0  0  0
  153.7369  142.8000  158.7646 H   0  0  0  0  0  0  0  0  0  0  0  0
  152.6944  140.1463  160.0115 H   0  0  0  0  0  0  0  0  0  0  0  0
  154.4302  140.5546  159.5622 H   0  0  0  0  0  0  0  0  0  0  0  0
  154.3680  142.5162  161.1432 H   0  0  0  0  0  0  0  0  0  0  0  0
  152.6332  142.0947  161.5847 H   0  0  0  0  0  0  0  0  0  0  0  0
  149.4171  137.4440  153.4468 H   0  0  0  0  0  0  0  0  0  0  0  0
  1  2  1  0  0  0  0
  1 20  1  0  0  0  0
  1 21  1  0  0  0  0
  1 22  1  0  0  0  0
  2  3  1  0  0  0  0
  2  4  1  0  0  0  0
  2 23  1  0  0  0  0
  3 24  1  0  0  0  0
  3 25  1  0  0  0  0
  3 26  1  0  0  0  0
  4  8  1  0  0  0  0
  4  5  2  0  0  0  0
  5  6  1  0  0  0  0
  5 43  1  0  0  0  0
  6  7  2  0  0  0  0
  6 27  1  0  0  0  0
  7  8  1  0  0  0  0
  7 28  1  0  0  0  0
  8  9  1  0  0  0  0
  9 10  1  0  0  0  0
  9 29  1  0  0  0  0
  9 30  1  0  0  0  0
 10 11  2  0  0  0  0
 10 12  1  0  0  0  0
 12 13  1  0  0  0  0
 12 31  1  0  0  0  0
 13 14  1  0  0  0  0
 13 17  1  0  0  0  0
 13 32  1  0  0  0  0
 14 16  1  0  0  0  0
 14 15  1  0  0  0  0
 14 33  1  0  0  0  0
 15 16  1  0  0  0  0
 15 34  1  0  0  0  0
 15 35  1  0  0  0  0
 16 36  1  0  0  0  0
 16 37  1  0  0  0  0
 17 19  1  0  0  0  0
 17 18  1  0  0  0  0
 17 38  1  0  0  0  0
 18 19  1  0  0  0  0
 18 39  1  0  0  0  0
 18 40  1  0  0  0  0
 19 41  1  0  0  0  0
 19 42  1  0  0  0  0
M  CHG  1   5   1
M  END
> <s_m_source_file>
AV-unprocessed.smi

> <i_m_source_file_index>
2227

> <i_lp_mmshare_version>
43012

> <i_f3d_flags>
0

> <s_epik_input>
W0NIM11bQ0hdKFtDSDNdKWMxbltjSF1bY0hdbjFbQ0gyXUMoPU8pW05IXVtDSF0oW0NIXTJbQ0gyXVtDSDJdMilbQ0hdM1tDSDJdW0NIMl0z

> <s_epik_cmdline>
J2VwaWtfcHl0aG9uJywgJy1waCcsICc3LjAnLCAnLXRuJywgJzgnLCAnLW1hJywgJzIwMCcsICctbWV0YWxfYmluZGluZycsICctaW1hZScsICc8aW5maWxlLm1hZT4nLCAnLW9tYWUnLCAnPG91dGZpbGUubWFlPic=

> <r_lp_tautomer_probability>
1

> <r_epik_Ionization_Penalty>
0.258813

> <r_epik_Ionization_Penalty_Charging>
0

> <r_epik_Ionization_Penalty_Neutral>
0.258813

> <r_epik_State_Penalty>
0.250457

> <r_epik_Charging_Adjusted_Penalty>
0.250457

> <i_epik_Tot_Q>
1

> <i_epik_Tot_abs_Q>
1

> <r_epik_Metal_State_Penalty>
0.539096

> <b_epik_Metal_Only>
0

> <s_lp_Force_Field>
OPLS_2005

> <r_lp_Energy>
28.4044

> <b_lp_Chiralities_Consistent>
1

> <s_lp_Variant>
AV-unprocessed.smi:2227-1

> <Gold.Version>
5.8.1

> <Gold.Id.Protein>
6NUR|6NUR_protein|mol2

> <Gold.PLP.Fitness>
50.2266

> <Gold.PLP.PLP>
-45.2586

> <Gold.PLP.part.hbond>
-1.0000

> <Gold.PLP.part.metal>
0.0000

> <Gold.PLP.part.buried>
-2.3545

> <Gold.PLP.part.nonpolar>
-41.7725

> <Gold.PLP.part.repulsive>
0.0881

> <Gold.PLP.ligand.clash>
0.0000

> <Gold.PLP.ligand.torsion>
1.5783

> <Gold.PLP.Chemscore.Hbond>
1.9825

> <Gold.PLP.Chemscore.CHOScore>
0.0000

> <Gold.PLP.Chemscore.Metal>
0.0000

> <Gold.Chemscore.Hbonds>
donor molecule, donor type, donor heavy atom, donor atom, acceptor molecule, acceptor atom, score
      L1  H     5    43       P1  7948  2.00

> <Gold.PLP.Chemscore.Internal.Correction>
2.1770

> <Gold.Rescore>
     Score         DG    S(hbond)    S(metal)    S(lipo)     H(rot)  DE(clash)    DE(int)     intcor
     15.57     -17.45       0.83        0.00     116.65       1.74       0.29       1.58       ----

> <Gold.Chemscore.Fitness>
15.5721

> <Gold.Chemscore.DG>
-17.4499

> <Gold.Chemscore.ZeroCoef>
-5.4800

> <Gold.Chemscore.Hbond>
0.8306

> <Gold.Chemscore.Metal>
0.0000

> <Gold.Chemscore.Lipo>
116.6508

> <Gold.Chemscore.Internal_Hbond>
0.0000

> <Gold.Chemscore.DEClash>
0.2949

> <Gold.Chemscore.DEInternal>
1.5828

> <Gold.Chemscore.Rot>
1.7392

> <Gold.Chemscore.Internal.Correction>
   9.000000E+99

> <Gold.Chemscore.Hbonds>
donor molecule, donor type, donor heavy atom, donor atom, acceptor molecule, acceptor atom, score
      L1  H     5    43       P1  7948  0.89

> <Gold.Chemscore.Hbond.Weighted>
-2.7741

> <Gold.Chemscore.Metal.Weighted>
-0.0000

> <Gold.Chemscore.Lipo.Weighted>
-13.6481

> <Gold.Chemscore.Internal_Hbond.Weighted>
0.0000

> <Gold.Chemscore.DEClash.Weighted>
0.2949

> <Gold.Chemscore.DEInternal.Weighted>
1.5828

> <Gold.Chemscore.Rot.Weighted>
4.4524

> <Gold.Chemscore.Internal.Correction.Weighted>
   9.000000E+99

> <Gold.Protein.RotatedTorsions>
[ 6907 6896 6895 6894 ] final  177.06 input  -60.11 | X-H torsion
[ 7974 7965 7964 7962 ] final   76.16 input  175.53 | X-H torsion
[ 8008 7997 7996 7995 ] final  -76.51 input   59.86 | X-H torsion
[ 10167 10162 10161 10158 ] final  164.46 input  -65.29 | X-H torsion
[ 10718 10713 10712 10709 ] final   50.05 input   66.30 | X-H torsion
[ 10763 10752 10751 10750 ] final  -41.06 input  -60.55 | X-H torsion
[ 11005 11000 10999 10996 ] final  179.13 input  -57.11 | X-H torsion

> <Gold.Protein.ActiveResidues>
 VAL166  LYS551  ARG553  GLY616  TRP617  ASP618  TYR619  PRO620  LYS621  CYS622 
 ASP623  PHE694  ASN695  SER759  ASP760  ASP761  ALA762  ILE779  LEU786  VAL792 
 PHE793  MET794  SER795  GLU796  ALA797  LYS798  CYS799  TRP800  GLU811  SER814 

> <Gold.Protein.RotatedAtoms>
  151.7100  133.3312  159.3288 H   0  0  0  0  0  0  0  0  0  0  0  0  # atno 6907 bound_to 6896
  150.7698  134.6540  159.6313 H   0  0  0  0  0  0  0  0  0  0  0  0  # atno 6908 bound_to 6896
  152.3717  134.6727  160.0225 H   0  0  0  0  0  0  0  0  0  0  0  0  # atno 6909 bound_to 6896
  145.7064  139.2600  143.1676 H   0  0  0  0  0  0  0  0  0  0  0  0  # atno 7974 bound_to 7965
  154.5512  140.0726  156.8670 H   0  0  0  0  0  0  0  0  0  0  0  0  # atno 8008 bound_to 7997
  155.2990  140.3383  155.4230 H   0  0  0  0  0  0  0  0  0  0  0  0  # atno 8009 bound_to 7997
  156.1962  140.1704  156.7978 H   0  0  0  0  0  0  0  0  0  0  0  0  # atno 8010 bound_to 7997
  139.4889  144.4233  151.9160 H   0  0  0  0  0  0  0  0  0  0  0  0  # atno 10167 bound_to 10162
  157.4846  130.8337  149.8132 H   0  0  0  0  0  0  0  0  0  0  0  0  # atno 10718 bound_to 10713
  153.9562  135.6745  153.4744 H   0  0  0  0  0  0  0  0  0  0  0  0  # atno 10763 bound_to 10752
  153.0860  135.4898  154.8595 H   0  0  0  0  0  0  0  0  0  0  0  0  # atno 10764 bound_to 10752
  154.7298  135.3135  154.8870 H   0  0  0  0  0  0  0  0  0  0  0  0  # atno 10765 bound_to 10752
  140.4028  134.6762  157.4571 H   0  0  0  0  0  0  0  0  0  0  0  0  # atno 11005 bound_to 11000
  146.0752  140.7825  142.9668 LP  0  0  0  0  0  0  0  0  0  0  0  0  # atno 17320 bound_to 7965
  144.6954  140.3404  143.7200 LP  0  0  0  0  0  0  0  0  0  0  0  0  # atno 17321 bound_to 7965
  140.3678  144.2893  150.5924 LP  0  0  0  0  0  0  0  0  0  0  0  0  # atno 17342 bound_to 10162
  140.5346  143.2236  151.8183 LP  0  0  0  0  0  0  0  0  0  0  0  0  # atno 17343 bound_to 10162
  156.0140  130.3821  150.2171 LP  0  0  0  0  0  0  0  0  0  0  0  0  # atno 17370 bound_to 10713
  157.0358  131.0021  151.3298 LP  0  0  0  0  0  0  0  0  0  0  0  0  # atno 17371 bound_to 10713
  140.0324  134.6387  155.9089 LP  0  0  0  0  0  0  0  0  0  0  0  0  # atno 17394 bound_to 11000
  141.1850  133.6554  156.5181 LP  0  0  0  0  0  0  0  0  0  0  0  0  # atno 17395 bound_to 11000

$$$$
