AV-unprocessed.smi:3234|AV-procd|sdf|12348|dock2
  -GOLD-   2272018213D 1   1.00000     0.00000
 Structure written by MMmdl.
 37 39  0  0  0  0  0  0  0  0  2 V2000
  144.6827  136.8547  152.4053 O   0  0  0  0  0  0  0  0  0  0  0  0
  145.8693  136.6491  152.1539 C   0  0  0  0  0  0  0  0  0  0  0  0
  146.3746  135.5395  151.5862 N   0  0  0  0  0  0  0  0  0  0  0  0
  145.7115  134.3594  151.1459 C   0  0  0  0  0  0  0  0  0  0  0  0
  146.5218  133.2614  150.7883 C   0  0  0  0  0  0  0  0  0  0  0  0
  145.9053  132.0722  150.3507 C   0  0  0  0  0  0  0  0  0  0  0  0
  144.5678  131.9226  150.2550 N   0  0  0  0  0  0  0  0  0  0  0  0
  143.7924  132.9717  150.6003 C   0  0  0  0  0  0  0  0  0  0  0  0
  144.3066  134.2044  151.0504 C   0  0  0  0  0  0  0  0  0  0  0  0
  146.8368  137.5385  152.4192 N   0  0  0  0  0  0  0  0  0  0  0  0
  146.6177  138.8422  153.0364 C   0  0  2  0  0  0  0  0  0  0  0  0
  147.0125  140.0335  152.1686 C   0  0  0  0  0  0  0  0  0  0  0  0
  147.1756  141.1552  153.2004 C   0  0  0  0  0  0  0  0  0  0  0  0
  147.5638  140.5071  154.4782 N   0  3  1  0  0  0  0  0  0  0  0  0
  146.7849  140.9819  155.6425 C   0  0  0  0  0  0  0  0  0  0  0  0
  145.3379  141.2728  155.3240 C   0  0  0  0  0  0  0  0  0  0  0  0
  146.3166  142.4116  155.5127 C   0  0  0  0  0  0  0  0  0  0  0  0
  147.4908  139.0433  154.2742 C   0  0  0  0  0  0  0  0  0  0  0  0
  147.3727  135.5431  151.4361 H   0  0  0  0  0  0  0  0  0  0  0  0
  147.5987  133.3235  150.8454 H   0  0  0  0  0  0  0  0  0  0  0  0
  146.5037  131.2180  150.0704 H   0  0  0  0  0  0  0  0  0  0  0  0
  142.7257  132.8247  150.5171 H   0  0  0  0  0  0  0  0  0  0  0  0
  143.6121  134.9868  151.3102 H   0  0  0  0  0  0  0  0  0  0  0  0
  147.7875  137.2950  152.1817 H   0  0  0  0  0  0  0  0  0  0  0  0
  145.5689  138.9372  153.3262 H   0  0  0  0  0  0  0  0  0  0  0  0
  147.9645  139.8424  151.6708 H   0  0  0  0  0  0  0  0  0  0  0  0
  146.2718  140.2689  151.4036 H   0  0  0  0  0  0  0  0  0  0  0  0
  147.9192  141.8905  152.8920 H   0  0  0  0  0  0  0  0  0  0  0  0
  146.2253  141.6789  153.3176 H   0  0  0  0  0  0  0  0  0  0  0  0
  147.0676  140.5779  156.6133 H   0  0  0  0  0  0  0  0  0  0  0  0
  144.9836  141.0752  154.3138 H   0  0  0  0  0  0  0  0  0  0  0  0
  144.6066  141.1094  156.1131 H   0  0  0  0  0  0  0  0  0  0  0  0
  146.2308  142.9962  156.4264 H   0  0  0  0  0  0  0  0  0  0  0  0
  146.6119  142.9727  154.6279 H   0  0  0  0  0  0  0  0  0  0  0  0
  147.1068  138.5115  155.1464 H   0  0  0  0  0  0  0  0  0  0  0  0
  148.5034  138.6817  154.0885 H   0  0  0  0  0  0  0  0  0  0  0  0
  148.5321  140.7317  154.6569 H   0  0  0  0  0  0  0  0  0  0  0  0
  1  2  2  0  0  0  0
  2  3  1  0  0  0  0
  2 10  1  0  0  0  0
  3  4  1  0  0  0  0
  3 19  1  0  0  0  0
  4  9  1  0  0  0  0
  4  5  2  0  0  0  0
  5  6  1  0  0  0  0
  5 20  1  0  0  0  0
  6  7  2  0  0  0  0
  6 21  1  0  0  0  0
  7  8  1  0  0  0  0
  8  9  2  0  0  0  0
  8 22  1  0  0  0  0
  9 23  1  0  0  0  0
 10 11  1  0  0  0  0
 10 24  1  0  0  0  0
 11 18  1  0  0  0  0
 11 12  1  0  0  0  0
 11 25  1  0  0  0  0
 12 13  1  0  0  0  0
 12 26  1  0  0  0  0
 12 27  1  0  0  0  0
 13 14  1  0  0  0  0
 13 28  1  0  0  0  0
 13 29  1  0  0  0  0
 14 15  1  0  0  0  0
 14 18  1  0  0  0  0
 14 37  1  0  0  0  0
 15 17  1  0  0  0  0
 15 16  1  0  0  0  0
 15 30  1  0  0  0  0
 16 17  1  0  0  0  0
 16 31  1  0  0  0  0
 16 32  1  0  0  0  0
 17 33  1  0  0  0  0
 17 34  1  0  0  0  0
 18 35  1  0  0  0  0
 18 36  1  0  0  0  0
M  CHG  1  14   1
M  END
> <s_m_source_file>
AV-unprocessed.smi

> <i_m_source_file_index>
3234

> <i_lp_mmshare_version>
43012

> <i_f3d_flags>
0

> <s_epik_input>
W2NIXTFbY0hdbltjSF1bY0hdYzFbTkhdQyg9TylbTkhdW0NAQEhdMltDSDJdW0NIMl1OKFtDSDJdMilbQ0hdM1tDSDJdW0NIMl0z

> <s_epik_cmdline>
J2VwaWtfcHl0aG9uJywgJy1waCcsICc3LjAnLCAnLXRuJywgJzgnLCAnLW1hJywgJzIwMCcsICctbWV0YWxfYmluZGluZycsICctaW1hZScsICc8aW5maWxlLm1hZT4nLCAnLW9tYWUnLCAnPG91dGZpbGUubWFlPic=

> <r_epik_Ionization_Penalty>
0.0934328

> <r_epik_Ionization_Penalty_Charging>
0.000606352

> <r_epik_Ionization_Penalty_Neutral>
0.0928265

> <r_epik_State_Penalty>
0.0830811

> <r_epik_Charging_Adjusted_Penalty>
0.0836875

> <i_epik_Tot_Q>
1

> <i_epik_Tot_abs_Q>
1

> <r_epik_Metal_State_Penalty>
0.0724491

> <b_epik_Metal_Only>
0

> <s_lp_Force_Field>
OPLS_2005

> <r_lp_Energy>
42.4864

> <b_lp_Chiralities_Consistent>
1

> <s_lp_Variant>
AV-unprocessed.smi:3234-1

> <Gold.Version>
5.8.1

> <Gold.Id.Protein>
6NUR|6NUR_protein|mol2

> <Gold.PLP.Fitness>
38.9962

> <Gold.PLP.PLP>
-27.0800

> <Gold.PLP.part.hbond>
-2.0000

> <Gold.PLP.part.metal>
0.0000

> <Gold.PLP.part.buried>
-2.4039

> <Gold.PLP.part.nonpolar>
-23.3402

> <Gold.PLP.part.repulsive>
0.5063

> <Gold.PLP.ligand.clash>
0.0000

> <Gold.PLP.ligand.torsion>
0.6691

> <Gold.PLP.Chemscore.Hbond>
2.0000

> <Gold.PLP.Chemscore.CHOScore>
1.9968

> <Gold.PLP.Chemscore.Metal>
0.0000

> <Gold.Chemscore.Hbonds>
donor molecule, donor type, donor heavy atom, donor atom, acceptor molecule, acceptor atom, score
      L1  H     3    19       P1  7948  0.99
      L1  H    10    24       P1  7948  1.00
      L1  C     6    21       P1 10747  1.00
      L1  C     8    22       P1 10186  0.96

> <Gold.PLP.Chemscore.Internal.Correction>
1.2641

> <Gold.Rescore>
     Score         DG    S(hbond)    S(metal)    S(lipo)     H(rot)  DE(clash)    DE(int)     intcor
     14.35     -17.28       1.87        0.00      73.82       1.21       1.23       1.70       ----

> <Gold.Chemscore.Fitness>
14.3462

> <Gold.Chemscore.DG>
-17.2777

> <Gold.Chemscore.ZeroCoef>
-5.4800

> <Gold.Chemscore.Hbond>
1.8742

> <Gold.Chemscore.Metal>
0.0000

> <Gold.Chemscore.Lipo>
73.8236

> <Gold.Chemscore.Internal_Hbond>
0.0000

> <Gold.Chemscore.DEClash>
1.2291

> <Gold.Chemscore.DEInternal>
1.7024

> <Gold.Chemscore.Rot>
1.2108

> <Gold.Chemscore.Internal.Correction>
   9.000000E+99

> <Gold.Chemscore.Hbonds>
donor molecule, donor type, donor heavy atom, donor atom, acceptor molecule, acceptor atom, score
      L1  H     3    19       P1  7948  0.89
      L1  H    10    24       P1  7948  0.95

> <Gold.Chemscore.Hbond.Weighted>
-6.2599

> <Gold.Chemscore.Metal.Weighted>
-0.0000

> <Gold.Chemscore.Lipo.Weighted>
-8.6374

> <Gold.Chemscore.Internal_Hbond.Weighted>
0.0000

> <Gold.Chemscore.DEClash.Weighted>
1.2291

> <Gold.Chemscore.DEInternal.Weighted>
1.7024

> <Gold.Chemscore.Rot.Weighted>
3.0996

> <Gold.Chemscore.Internal.Correction.Weighted>
   9.000000E+99

> <Gold.Protein.RotatedTorsions>
[ 6907 6896 6895 6894 ] final   33.30 input  -60.11 | X-H torsion
[ 7974 7965 7964 7962 ] final -167.31 input  175.53 | X-H torsion
[ 8008 7997 7996 7995 ] final -163.73 input   59.86 | X-H torsion
[ 10167 10162 10161 10158 ] final -105.84 input  -65.29 | X-H torsion
[ 10718 10713 10712 10709 ] final  178.27 input   66.30 | X-H torsion
[ 10763 10752 10751 10750 ] final   18.94 input  -60.55 | X-H torsion
[ 11005 11000 10999 10996 ] final  137.14 input  -57.11 | X-H torsion

> <Gold.Protein.ActiveResidues>
 VAL166  LYS551  ARG553  GLY616  TRP617  ASP618  TYR619  PRO620  LYS621  CYS622 
 ASP623  PHE694  ASN695  SER759  ASP760  ASP761  ALA762  ILE779  LEU786  VAL792 
 PHE793  MET794  SER795  GLU796  ALA797  LYS798  CYS799  TRP800  GLU811  SER814 

> <Gold.Protein.RotatedAtoms>
  152.0866  134.9435  160.0572 H   0  0  0  0  0  0  0  0  0  0  0  0  # atno 6907 bound_to 6896
  152.0703  133.4099  159.4464 H   0  0  0  0  0  0  0  0  0  0  0  0  # atno 6908 bound_to 6896
  150.6836  134.3019  159.4753 H   0  0  0  0  0  0  0  0  0  0  0  0  # atno 6909 bound_to 6896
  144.7226  140.2537  143.6275 H   0  0  0  0  0  0  0  0  0  0  0  0  # atno 7974 bound_to 7965
  155.8255  140.0926  157.1823 H   0  0  0  0  0  0  0  0  0  0  0  0  # atno 8008 bound_to 7997
  154.3979  140.1428  156.3612 H   0  0  0  0  0  0  0  0  0  0  0  0  # atno 8009 bound_to 7997
  155.8221  140.3446  155.5523 H   0  0  0  0  0  0  0  0  0  0  0  0  # atno 8010 bound_to 7997
  140.1942  143.3868  152.1181 H   0  0  0  0  0  0  0  0  0  0  0  0  # atno 10167 bound_to 10162
  156.8930  130.9853  151.3047 H   0  0  0  0  0  0  0  0  0  0  0  0  # atno 10718 bound_to 10713
  153.1205  135.6718  153.9343 H   0  0  0  0  0  0  0  0  0  0  0  0  # atno 10763 bound_to 10752
  153.8860  135.3052  155.3447 H   0  0  0  0  0  0  0  0  0  0  0  0  # atno 10764 bound_to 10752
  154.7617  135.4984  153.9556 H   0  0  0  0  0  0  0  0  0  0  0  0  # atno 10765 bound_to 10752
  140.0094  134.9445  157.0245 H   0  0  0  0  0  0  0  0  0  0  0  0  # atno 11005 bound_to 11000
  145.8203  139.2041  143.1942 LP  0  0  0  0  0  0  0  0  0  0  0  0  # atno 17320 bound_to 7965
  146.0520  140.8059  142.9777 LP  0  0  0  0  0  0  0  0  0  0  0  0  # atno 17321 bound_to 7965
  139.5243  144.7082  151.5288 LP  0  0  0  0  0  0  0  0  0  0  0  0  # atno 17342 bound_to 10162
  140.6435  143.8842  150.6714 LP  0  0  0  0  0  0  0  0  0  0  0  0  # atno 17343 bound_to 10162
  157.6072  130.8556  149.8894 LP  0  0  0  0  0  0  0  0  0  0  0  0  # atno 17370 bound_to 10713
  156.0619  130.3698  150.0962 LP  0  0  0  0  0  0  0  0  0  0  0  0  # atno 17371 bound_to 10713
  140.4582  134.1511  155.7188 LP  0  0  0  0  0  0  0  0  0  0  0  0  # atno 17394 bound_to 11000
  141.1700  133.8627  157.1599 LP  0  0  0  0  0  0  0  0  0  0  0  0  # atno 17395 bound_to 11000

$$$$
