AV-unprocessed.smi:1352|AV-procd|sdf|5531|dock10
  -GOLD-   22720 5123D 1   1.00000     0.00000
 Structure written by MMmdl.
 47 48  0  0  0  0  0  0  0  0  2 V2000
  145.9219  133.9733  151.7369 C   0  0  0  0  0  0  0  0  0  0  0  0
  145.0089  134.9901  151.0296 C   0  0  1  0  0  0  0  0  0  0  0  0
  143.6462  135.1597  151.7263 C   0  0  0  0  0  0  0  0  0  0  0  0
  143.7701  135.9682  153.0301 C   0  0  2  0  0  0  0  0  0  0  0  0
  142.3983  136.1883  153.6833 C   0  0  0  0  0  0  0  0  0  0  0  0
  144.4879  137.3055  152.7637 C   0  0  0  0  0  0  0  0  0  0  0  0
  145.8154  137.0922  152.1316 N   0  3  2  0  0  0  0  0  0  0  0  0
  146.5935  138.3515  152.0181 C   0  0  0  0  0  0  0  0  0  0  0  0
  146.5223  139.2017  153.3015 C   0  0  0  0  0  0  0  0  0  0  0  0
  147.7121  140.0285  153.4653 N   0  0  0  0  0  0  0  0  0  0  0  0
  148.0814  140.6258  154.6085 C   0  0  0  0  0  0  0  0  0  0  0  0
  147.4216  140.5547  155.6462 O   0  0  0  0  0  0  0  0  0  0  0  0
  149.3820  141.4404  154.5545 C   0  0  0  0  0  0  0  0  0  0  0  0
  150.3094  141.1310  155.6557 N   0  0  0  0  0  0  0  0  0  0  0  0
  150.2172  141.9260  156.8154 C   0  0  0  0  0  0  0  0  0  0  0  0
  151.0132  141.7269  157.8779 C   0  0  0  0  0  0  0  0  0  0  0  0
  151.9865  140.6628  157.8115 C   0  0  0  0  0  0  0  0  0  0  0  0
  152.0811  139.8942  156.7084 C   0  0  0  0  0  0  0  0  0  0  0  0
  151.2108  140.1064  155.5459 C   0  0  0  0  0  0  0  0  0  0  0  0
  151.2864  139.4064  154.5356 O   0  0  0  0  0  0  0  0  0  0  0  0
  145.6945  136.3582  150.8431 C   0  0  0  0  0  0  0  0  0  0  0  0
  146.2048  134.3029  152.7365 H   0  0  0  0  0  0  0  0  0  0  0  0
  146.8410  133.8161  151.1717 H   0  0  0  0  0  0  0  0  0  0  0  0
  145.4294  133.0055  151.8337 H   0  0  0  0  0  0  0  0  0  0  0  0
  144.8146  134.5848  150.0358 H   0  0  0  0  0  0  0  0  0  0  0  0
  142.9636  135.6740  151.0482 H   0  0  0  0  0  0  0  0  0  0  0  0
  143.1992  134.1844  151.9239 H   0  0  0  0  0  0  0  0  0  0  0  0
  144.3731  135.3948  153.7349 H   0  0  0  0  0  0  0  0  0  0  0  0
  141.7374  136.7657  153.0362 H   0  0  0  0  0  0  0  0  0  0  0  0
  142.4941  136.7265  154.6268 H   0  0  0  0  0  0  0  0  0  0  0  0
  141.9082  135.2376  153.8960 H   0  0  0  0  0  0  0  0  0  0  0  0
  143.8787  137.9458  152.1233 H   0  0  0  0  0  0  0  0  0  0  0  0
  144.6162  137.8339  153.7095 H   0  0  0  0  0  0  0  0  0  0  0  0
  147.6287  138.1262  151.7570 H   0  0  0  0  0  0  0  0  0  0  0  0
  146.1914  138.9425  151.1941 H   0  0  0  0  0  0  0  0  0  0  0  0
  145.6303  139.8308  153.2950 H   0  0  0  0  0  0  0  0  0  0  0  0
  146.4477  138.5689  154.1848 H   0  0  0  0  0  0  0  0  0  0  0  0
  148.3083  140.1402  152.6576 H   0  0  0  0  0  0  0  0  0  0  0  0
  149.8748  141.2747  153.5945 H   0  0  0  0  0  0  0  0  0  0  0  0
  149.1195  142.4990  154.5610 H   0  0  0  0  0  0  0  0  0  0  0  0
  149.4601  142.6961  156.7877 H   0  0  0  0  0  0  0  0  0  0  0  0
  150.9253  142.3438  158.7601 H   0  0  0  0  0  0  0  0  0  0  0  0
  152.6412  140.4815  158.6513 H   0  0  0  0  0  0  0  0  0  0  0  0
  152.8146  139.1023  156.6768 H   0  0  0  0  0  0  0  0  0  0  0  0
  146.6740  136.2083  150.3907 H   0  0  0  0  0  0  0  0  0  0  0  0
  145.1206  136.9658  150.1413 H   0  0  0  0  0  0  0  0  0  0  0  0
  146.3317  136.4966  152.7634 H   0  0  0  0  0  0  0  0  0  0  0  0
  1  2  1  0  0  0  0
  1 22  1  0  0  0  0
  1 23  1  0  0  0  0
  1 24  1  0  0  0  0
  2 21  1  0  0  0  0
  2  3  1  0  0  0  0
  2 25  1  0  0  0  0
  3  4  1  0  0  0  0
  3 26  1  0  0  0  0
  3 27  1  0  0  0  0
  4  5  1  0  0  0  0
  4  6  1  0  0  0  0
  4 28  1  0  0  0  0
  5 29  1  0  0  0  0
  5 30  1  0  0  0  0
  5 31  1  0  0  0  0
  6  7  1  0  0  0  0
  6 32  1  0  0  0  0
  6 33  1  0  0  0  0
  7  8  1  0  0  0  0
  7 21  1  0  0  0  0
  7 47  1  0  0  0  0
  8  9  1  0  0  0  0
  8 34  1  0  0  0  0
  8 35  1  0  0  0  0
  9 10  1  0  0  0  0
  9 36  1  0  0  0  0
  9 37  1  0  0  0  0
 10 11  1  0  0  0  0
 10 38  1  0  0  0  0
 11 12  2  0  0  0  0
 11 13  1  0  0  0  0
 13 14  1  0  0  0  0
 13 39  1  0  0  0  0
 13 40  1  0  0  0  0
 14 19  1  0  0  0  0
 14 15  1  0  0  0  0
 15 16  2  0  0  0  0
 15 41  1  0  0  0  0
 16 17  1  0  0  0  0
 16 42  1  0  0  0  0
 17 18  2  0  0  0  0
 17 43  1  0  0  0  0
 18 19  1  0  0  0  0
 18 44  1  0  0  0  0
 19 20  2  0  0  0  0
 21 45  1  0  0  0  0
 21 46  1  0  0  0  0
M  CHG  1   7   1
M  END
> <s_m_source_file>
AV-unprocessed.smi

> <i_m_source_file_index>
1352

> <i_lp_mmshare_version>
43012

> <i_f3d_flags>
0

> <s_epik_input>
W0NIM11bQ0BASF0xW0NIMl1bQ0BASF0oW0NIM10pW0NIMl1OKFtDSDJdMSlbQ0gyXVtDSDJdW05IXUMoPU8pW0NIMl1uMltjSF1bY0hdW2NIXVtjSF1jMj1P

> <s_epik_cmdline>
J2VwaWtfcHl0aG9uJywgJy1waCcsICc3LjAnLCAnLXRuJywgJzgnLCAnLW1hJywgJzIwMCcsICctbWV0YWxfYmluZGluZycsICctaW1hZScsICc8aW5maWxlLm1hZT4nLCAnLW9tYWUnLCAnPG91dGZpbGUubWFlPic=

> <r_lp_tautomer_probability>
1

> <r_epik_Ionization_Penalty>
0.00156146

> <r_epik_Ionization_Penalty_Charging>
0.00156138

> <r_epik_Ionization_Penalty_Neutral>
8.12891e-08

> <r_epik_State_Penalty>
0.00104868

> <r_epik_Charging_Adjusted_Penalty>
0.00261006

> <i_epik_Tot_Q>
1

> <i_epik_Tot_abs_Q>
1

> <r_epik_Metal_State_Penalty>
-0

> <b_epik_Metal_Only>
0

> <s_lp_Force_Field>
OPLS_2005

> <r_lp_Energy>
27.867

> <b_lp_Chiralities_Consistent>
1

> <s_lp_Variant>
AV-unprocessed.smi:1352-4

> <Gold.Version>
5.8.1

> <Gold.Id.Protein>
6NUR|6NUR_protein|mol2

> <Gold.PLP.Fitness>
45.5373

> <Gold.PLP.PLP>
-38.3134

> <Gold.PLP.part.hbond>
-2.8234

> <Gold.PLP.part.metal>
0.0000

> <Gold.PLP.part.buried>
-0.7090

> <Gold.PLP.part.nonpolar>
-35.5396

> <Gold.PLP.part.repulsive>
0.2210

> <Gold.PLP.ligand.clash>
0.0000

> <Gold.PLP.ligand.torsion>
0.8316

> <Gold.PLP.Chemscore.Hbond>
1.9500

> <Gold.PLP.Chemscore.CHOScore>
1.0000

> <Gold.PLP.Chemscore.Metal>
0.0000

> <Gold.Chemscore.Hbonds>
donor molecule, donor type, donor heavy atom, donor atom, acceptor molecule, acceptor atom, score
      L1  H    10    38       P1  7957  1.00
      P1  H  7989  7998       L1    20  0.60
      L1  C    15    41       P1  8028  1.00

> <Gold.PLP.Chemscore.Internal.Correction>
0.0371

> <Gold.Rescore>
     Score         DG    S(hbond)    S(metal)    S(lipo)     H(rot)  DE(clash)    DE(int)     intcor
     15.39     -16.42       1.78        0.00      82.95       1.83       0.23       0.80       ----

> <Gold.Chemscore.Fitness>
15.3930

> <Gold.Chemscore.DG>
-16.4231

> <Gold.Chemscore.ZeroCoef>
-5.4800

> <Gold.Chemscore.Hbond>
1.7757

> <Gold.Chemscore.Metal>
0.0000

> <Gold.Chemscore.Lipo>
82.9451

> <Gold.Chemscore.Internal_Hbond>
0.0000

> <Gold.Chemscore.DEClash>
0.2303

> <Gold.Chemscore.DEInternal>
0.7998

> <Gold.Chemscore.Rot>
1.8329

> <Gold.Chemscore.Internal.Correction>
   9.000000E+99

> <Gold.Chemscore.Hbonds>
donor molecule, donor type, donor heavy atom, donor atom, acceptor molecule, acceptor atom, score
      L1  H    10    38       P1  7957  0.98
      P1  H  7989  7998       L1    20  0.04

> <Gold.Chemscore.Hbond.Weighted>
-5.9307

> <Gold.Chemscore.Metal.Weighted>
-0.0000

> <Gold.Chemscore.Lipo.Weighted>
-9.7046

> <Gold.Chemscore.Internal_Hbond.Weighted>
0.0000

> <Gold.Chemscore.DEClash.Weighted>
0.2303

> <Gold.Chemscore.DEInternal.Weighted>
0.7998

> <Gold.Chemscore.Rot.Weighted>
4.6922

> <Gold.Chemscore.Internal.Correction.Weighted>
   9.000000E+99

> <Gold.Protein.RotatedTorsions>
[ 6907 6896 6895 6894 ] final  125.19 input  -60.11 | X-H torsion
[ 7974 7965 7964 7962 ] final   -8.67 input  175.53 | X-H torsion
[ 8008 7997 7996 7995 ] final -120.61 input   59.86 | X-H torsion
[ 10167 10162 10161 10158 ] final   97.11 input  -65.29 | X-H torsion
[ 10718 10713 10712 10709 ] final   70.56 input   66.30 | X-H torsion
[ 10763 10752 10751 10750 ] final  -17.39 input  -60.55 | X-H torsion
[ 11005 11000 10999 10996 ] final  124.37 input  -57.11 | X-H torsion

> <Gold.Protein.ActiveResidues>
 VAL166  LYS551  ARG553  GLY616  TRP617  ASP618  TYR619  PRO620  LYS621  CYS622 
 ASP623  PHE694  ASN695  SER759  ASP760  ASP761  ALA762  ILE779  LEU786  VAL792 
 PHE793  MET794  SER795  GLU796  ALA797  LYS798  CYS799  TRP800  GLU811  SER814 

> <Gold.Protein.RotatedAtoms>
  152.4013  133.6823  159.6318 H   0  0  0  0  0  0  0  0  0  0  0  0  # atno 6907 bound_to 6896
  150.7904  133.8785  159.3288 H   0  0  0  0  0  0  0  0  0  0  0  0  # atno 6908 bound_to 6896
  151.6550  135.0998  160.0219 H   0  0  0  0  0  0  0  0  0  0  0  0  # atno 6909 bound_to 6896
  146.2274  140.2502  142.8347 H   0  0  0  0  0  0  0  0  0  0  0  0  # atno 7974 bound_to 7965
  155.1346  140.0401  157.2783 H   0  0  0  0  0  0  0  0  0  0  0  0  # atno 8008 bound_to 7997
  154.6517  140.2571  155.7180 H   0  0  0  0  0  0  0  0  0  0  0  0  # atno 8009 bound_to 7997
  156.2580  140.2835  156.0954 H   0  0  0  0  0  0  0  0  0  0  0  0  # atno 8010 bound_to 7997
  139.7832  144.6880  150.9994 H   0  0  0  0  0  0  0  0  0  0  0  0  # atno 10167 bound_to 10162
  157.6406  130.9483  150.0667 H   0  0  0  0  0  0  0  0  0  0  0  0  # atno 10718 bound_to 10713
  153.5731  135.7007  153.5496 H   0  0  0  0  0  0  0  0  0  0  0  0  # atno 10763 bound_to 10752
  153.3327  135.4043  155.1508 H   0  0  0  0  0  0  0  0  0  0  0  0  # atno 10764 bound_to 10752
  154.8630  135.3723  154.5255 H   0  0  0  0  0  0  0  0  0  0  0  0  # atno 10765 bound_to 10752
  139.9355  134.9639  156.8399 H   0  0  0  0  0  0  0  0  0  0  0  0  # atno 11005 bound_to 11000
  144.9417  140.8086  143.5626 LP  0  0  0  0  0  0  0  0  0  0  0  0  # atno 17320 bound_to 7965
  145.2454  139.2054  143.4970 LP  0  0  0  0  0  0  0  0  0  0  0  0  # atno 17321 bound_to 7965
  140.7819  143.4461  151.0481 LP  0  0  0  0  0  0  0  0  0  0  0  0  # atno 17342 bound_to 10162
  139.8140  143.7911  152.3173 LP  0  0  0  0  0  0  0  0  0  0  0  0  # atno 17343 bound_to 10162
  156.1684  130.3645  149.9200 LP  0  0  0  0  0  0  0  0  0  0  0  0  # atno 17370 bound_to 10713
  156.7182  130.8996  151.3616 LP  0  0  0  0  0  0  0  0  0  0  0  0  # atno 17371 bound_to 10713
  140.6086  134.0103  155.7567 LP  0  0  0  0  0  0  0  0  0  0  0  0  # atno 17394 bound_to 11000
  141.0967  133.9833  157.3148 LP  0  0  0  0  0  0  0  0  0  0  0  0  # atno 17395 bound_to 11000

$$$$
