AV-unprocessed.smi:1430|AV-procd|sdf|5827|dock1
  -GOLD-   22720 5483D 1   1.00000     0.00000
 Structure written by MMmdl.
 47 48  0  0  0  0  0  0  0  0  2 V2000
  154.7244  140.3187  161.3555 C   0  0  0  0  0  0  0  0  0  0  0  0
  154.3415  141.6715  161.1350 O   0  0  0  0  0  0  0  0  0  0  0  0
  153.5022  141.9508  160.0760 C   0  0  0  0  0  0  0  0  0  0  0  0
  153.2157  143.2982  159.7805 C   0  0  0  0  0  0  0  0  0  0  0  0
  152.3603  143.5928  158.7017 C   0  0  0  0  0  0  0  0  0  0  0  0
  151.8217  142.5255  157.9437 C   0  0  0  0  0  0  0  0  0  0  0  0
  150.9341  142.6874  156.8452 N   0  0  0  0  0  0  0  0  0  0  0  0
  150.3753  141.7414  156.0715 C   0  0  0  0  0  0  0  0  0  0  0  0
  150.5116  140.5275  156.2164 O   0  0  0  0  0  0  0  0  0  0  0  0
  149.6284  142.2874  155.1014 N   0  0  0  0  0  0  0  0  0  0  0  0
  148.8762  141.5434  154.0923 C   0  0  0  0  0  0  0  0  0  0  0  0
  147.3721  141.8967  154.0545 C   0  0  0  0  0  0  0  0  0  0  0  0
  146.8669  142.4402  155.3402 N   0  3  1  0  0  0  0  0  0  0  0  0
  145.6080  143.2035  155.1901 C   0  0  0  0  0  0  0  0  0  0  0  0
  145.2203  143.8559  156.5292 C   0  0  1  0  0  0  0  0  0  0  0  0
  143.8747  144.5844  156.4449 C   0  0  0  0  0  0  0  0  0  0  0  0
  145.1155  142.8512  157.5355 O   0  0  0  0  0  0  0  0  0  0  0  0
  146.2941  142.0686  157.7324 C   0  0  2  0  0  0  0  0  0  0  0  0
  147.4180  142.8668  158.4174 C   0  0  0  0  0  0  0  0  0  0  0  0
  146.7284  141.4185  156.4047 C   0  0  0  0  0  0  0  0  0  0  0  0
  152.1605  141.2121  158.3300 C   0  0  0  0  0  0  0  0  0  0  0  0
  152.9795  140.9228  159.3627 N   0  0  0  0  0  0  0  0  0  0  0  0
  155.3828  140.2669  162.2225 H   0  0  0  0  0  0  0  0  0  0  0  0
  155.2697  139.9144  160.5016 H   0  0  0  0  0  0  0  0  0  0  0  0
  153.8588  139.6872  161.5603 H   0  0  0  0  0  0  0  0  0  0  0  0
  153.6423  144.0931  160.3744 H   0  0  0  0  0  0  0  0  0  0  0  0
  152.1274  144.6247  158.4911 H   0  0  0  0  0  0  0  0  0  0  0  0
  150.6580  143.6394  156.6529 H   0  0  0  0  0  0  0  0  0  0  0  0
  149.5604  143.2942  155.0666 H   0  0  0  0  0  0  0  0  0  0  0  0
  149.3234  141.7000  153.1094 H   0  0  0  0  0  0  0  0  0  0  0  0
  148.9986  140.4827  154.3118 H   0  0  0  0  0  0  0  0  0  0  0  0
  147.2207  142.6467  153.2773 H   0  0  0  0  0  0  0  0  0  0  0  0
  146.7824  141.0295  153.7538 H   0  0  0  0  0  0  0  0  0  0  0  0
  145.7338  143.9769  154.4311 H   0  0  0  0  0  0  0  0  0  0  0  0
  144.8155  142.5381  154.8433 H   0  0  0  0  0  0  0  0  0  0  0  0
  145.9803  144.5838  156.8146 H   0  0  0  0  0  0  0  0  0  0  0  0
  143.9008  145.3719  155.6912 H   0  0  0  0  0  0  0  0  0  0  0  0
  143.6214  145.0477  157.3989 H   0  0  0  0  0  0  0  0  0  0  0  0
  143.0689  143.8979  156.1836 H   0  0  0  0  0  0  0  0  0  0  0  0
  146.0139  141.2681  158.4177 H   0  0  0  0  0  0  0  0  0  0  0  0
  148.2531  142.2143  158.6736 H   0  0  0  0  0  0  0  0  0  0  0  0
  147.0628  143.3232  159.3414 H   0  0  0  0  0  0  0  0  0  0  0  0
  147.8119  143.6595  157.7815 H   0  0  0  0  0  0  0  0  0  0  0  0
  145.9867  140.6803  156.0957 H   0  0  0  0  0  0  0  0  0  0  0  0
  147.6662  140.8816  156.5476 H   0  0  0  0  0  0  0  0  0  0  0  0
  151.7644  140.3632  157.7918 H   0  0  0  0  0  0  0  0  0  0  0  0
  147.5606  143.1030  155.6562 H   0  0  0  0  0  0  0  0  0  0  0  0
  1  2  1  0  0  0  0
  1 23  1  0  0  0  0
  1 24  1  0  0  0  0
  1 25  1  0  0  0  0
  2  3  1  0  0  0  0
  3 22  1  0  0  0  0
  3  4  2  0  0  0  0
  4  5  1  0  0  0  0
  4 26  1  0  0  0  0
  5  6  2  0  0  0  0
  5 27  1  0  0  0  0
  6  7  1  0  0  0  0
  6 21  1  0  0  0  0
  7  8  1  0  0  0  0
  7 28  1  0  0  0  0
  8  9  2  0  0  0  0
  8 10  1  0  0  0  0
 10 11  1  0  0  0  0
 10 29  1  0  0  0  0
 11 12  1  0  0  0  0
 11 30  1  0  0  0  0
 11 31  1  0  0  0  0
 12 13  1  0  0  0  0
 12 32  1  0  0  0  0
 12 33  1  0  0  0  0
 13 20  1  0  0  0  0
 13 14  1  0  0  0  0
 13 47  1  0  0  0  0
 14 15  1  0  0  0  0
 14 34  1  0  0  0  0
 14 35  1  0  0  0  0
 15 16  1  0  0  0  0
 15 17  1  0  0  0  0
 15 36  1  0  0  0  0
 16 37  1  0  0  0  0
 16 38  1  0  0  0  0
 16 39  1  0  0  0  0
 17 18  1  0  0  0  0
 18 19  1  0  0  0  0
 18 20  1  0  0  0  0
 18 40  1  0  0  0  0
 19 41  1  0  0  0  0
 19 42  1  0  0  0  0
 19 43  1  0  0  0  0
 20 44  1  0  0  0  0
 20 45  1  0  0  0  0
 21 22  2  0  0  0  0
 21 46  1  0  0  0  0
M  CHG  1  13   1
M  END
> <s_m_source_file>
AV-unprocessed.smi

> <i_m_source_file_index>
1430

> <i_lp_mmshare_version>
43012

> <i_f3d_flags>
0

> <s_epik_input>
W0NIM11PYzFbY0hdW2NIXWMoW2NIXW4xKVtOSF1DKD1PKVtOSF1bQ0gyXVtDSDJdTjJbQ0gyXVtDQEBIXShbQ0gzXSlPW0NAQEhdKFtDSDNdKVtDSDJdMg==

> <s_epik_cmdline>
J2VwaWtfcHl0aG9uJywgJy1waCcsICc3LjAnLCAnLXRuJywgJzgnLCAnLW1hJywgJzIwMCcsICctbWV0YWxfYmluZGluZycsICctaW1hZScsICc8aW5maWxlLm1hZT4nLCAnLW9tYWUnLCAnPG91dGZpbGUubWFlPic=

> <r_lp_tautomer_probability>
1

> <r_epik_Ionization_Penalty>
0.602607

> <r_epik_Ionization_Penalty_Charging>
0.602531

> <r_epik_Ionization_Penalty_Neutral>
7.66983e-05

> <r_epik_State_Penalty>
0.617039

> <r_epik_Charging_Adjusted_Penalty>
1.21957

> <i_epik_Tot_Q>
1

> <i_epik_Tot_abs_Q>
1

> <r_epik_Metal_State_Penalty>
0.617043

> <b_epik_Metal_Only>
0

> <s_lp_Force_Field>
OPLS_2005

> <r_lp_Energy>
27.5675

> <b_lp_Chiralities_Consistent>
1

> <s_lp_Variant>
AV-unprocessed.smi:1430-6

> <Gold.Version>
5.8.1

> <Gold.Id.Protein>
6NUR|6NUR_protein|mol2

> <Gold.PLP.Fitness>
47.6845

> <Gold.PLP.PLP>
-39.0782

> <Gold.PLP.part.hbond>
-3.5448

> <Gold.PLP.part.metal>
0.0000

> <Gold.PLP.part.buried>
-4.0811

> <Gold.PLP.part.nonpolar>
-30.8783

> <Gold.PLP.part.repulsive>
0.4222

> <Gold.PLP.ligand.clash>
0.0000

> <Gold.PLP.ligand.torsion>
0.4233

> <Gold.PLP.Chemscore.Hbond>
3.1339

> <Gold.PLP.Chemscore.CHOScore>
0.0000

> <Gold.PLP.Chemscore.Metal>
0.0000

> <Gold.Chemscore.Hbonds>
donor molecule, donor type, donor heavy atom, donor atom, acceptor molecule, acceptor atom, score
      L1  H     7    28       P1  8028  0.27
      L1  H    10    29       P1  8028  1.00
      L1  H    13    47       P1  8028  1.76

> <Gold.PLP.Chemscore.Internal.Correction>
0.0510

> <Gold.Rescore>
     Score         DG    S(hbond)    S(metal)    S(lipo)     H(rot)  DE(clash)    DE(int)     intcor
     14.20     -16.30       1.83        0.00      78.74       1.76       0.02       2.09       ----

> <Gold.Chemscore.Fitness>
14.1987

> <Gold.Chemscore.DG>
-16.3036

> <Gold.Chemscore.ZeroCoef>
-5.4800

> <Gold.Chemscore.Hbond>
1.8319

> <Gold.Chemscore.Metal>
0.0000

> <Gold.Chemscore.Lipo>
78.7371

> <Gold.Chemscore.Internal_Hbond>
0.0000

> <Gold.Chemscore.DEClash>
0.0178

> <Gold.Chemscore.DEInternal>
2.0871

> <Gold.Chemscore.Rot>
1.7606

> <Gold.Chemscore.Internal.Correction>
   9.000000E+99

> <Gold.Chemscore.Hbonds>
donor molecule, donor type, donor heavy atom, donor atom, acceptor molecule, acceptor atom, score
      L1  H     7    28       P1  8028  0.27
      L1  H    10    29       P1  8028  0.94
      L1  H    13    47       P1  8028  0.19

> <Gold.Chemscore.Hbond.Weighted>
-6.1185

> <Gold.Chemscore.Metal.Weighted>
-0.0000

> <Gold.Chemscore.Lipo.Weighted>
-9.2122

> <Gold.Chemscore.Internal_Hbond.Weighted>
0.0000

> <Gold.Chemscore.DEClash.Weighted>
0.0178

> <Gold.Chemscore.DEInternal.Weighted>
2.0871

> <Gold.Chemscore.Rot.Weighted>
4.5072

> <Gold.Chemscore.Internal.Correction.Weighted>
   9.000000E+99

> <Gold.Protein.RotatedTorsions>
[ 6907 6896 6895 6894 ] final  161.89 input  -60.11 | X-H torsion
[ 7974 7965 7964 7962 ] final   43.35 input  175.53 | X-H torsion
[ 8008 7997 7996 7995 ] final  -91.62 input   59.86 | X-H torsion
[ 10167 10162 10161 10158 ] final   88.32 input  -65.29 | X-H torsion
[ 10718 10713 10712 10709 ] final   91.09 input   66.30 | X-H torsion
[ 10763 10752 10751 10750 ] final  -20.71 input  -60.55 | X-H torsion
[ 11005 11000 10999 10996 ] final  -62.33 input  -57.11 | X-H torsion

> <Gold.Protein.ActiveResidues>
 VAL166  LYS551  ARG553  GLY616  TRP617  ASP618  TYR619  PRO620  LYS621  CYS622 
 ASP623  PHE694  ASN695  SER759  ASP760  ASP761  ALA762  ILE779  LEU786  VAL792 
 PHE793  MET794  SER795  GLU796  ALA797  LYS798  CYS799  TRP800  GLU811  SER814 

> <Gold.Protein.RotatedAtoms>
  151.9488  133.3660  159.3992 H   0  0  0  0  0  0  0  0  0  0  0  0  # atno 6907 bound_to 6896
  150.6984  134.4362  159.5280 H   0  0  0  0  0  0  0  0  0  0  0  0  # atno 6908 bound_to 6896
  152.2031  134.8569  160.0556 H   0  0  0  0  0  0  0  0  0  0  0  0  # atno 6909 bound_to 6896
  146.0663  139.5196  142.9626 H   0  0  0  0  0  0  0  0  0  0  0  0  # atno 7974 bound_to 7965
  154.7130  140.0517  157.0568 H   0  0  0  0  0  0  0  0  0  0  0  0  # atno 8008 bound_to 7997
  155.0529  140.3181  155.4667 H   0  0  0  0  0  0  0  0  0  0  0  0  # atno 8009 bound_to 7997
  156.2795  140.2112  156.5655 H   0  0  0  0  0  0  0  0  0  0  0  0  # atno 8010 bound_to 7997
  139.8685  144.6506  150.8977 H   0  0  0  0  0  0  0  0  0  0  0  0  # atno 10167 bound_to 10162
  157.6960  131.0395  150.3677 H   0  0  0  0  0  0  0  0  0  0  0  0  # atno 10718 bound_to 10713
  153.6247  135.6991  153.5297 H   0  0  0  0  0  0  0  0  0  0  0  0  # atno 10763 bound_to 10752
  153.2908  135.4157  155.1165 H   0  0  0  0  0  0  0  0  0  0  0  0  # atno 10764 bound_to 10752
  154.8535  135.3625  154.5789 H   0  0  0  0  0  0  0  0  0  0  0  0  # atno 10765 bound_to 10752
  141.1356  133.6639  156.5512 H   0  0  0  0  0  0  0  0  0  0  0  0  # atno 11005 bound_to 11000
  145.6472  141.0271  143.1780 LP  0  0  0  0  0  0  0  0  0  0  0  0  # atno 17320 bound_to 7965
  144.7204  139.8049  143.7384 LP  0  0  0  0  0  0  0  0  0  0  0  0  # atno 17321 bound_to 7965
  140.7764  143.3684  151.1696 LP  0  0  0  0  0  0  0  0  0  0  0  0  # atno 17342 bound_to 10162
  139.7306  143.9078  152.3018 LP  0  0  0  0  0  0  0  0  0  0  0  0  # atno 17343 bound_to 10162
  156.4106  130.3933  149.6894 LP  0  0  0  0  0  0  0  0  0  0  0  0  # atno 17370 bound_to 10713
  156.4180  130.7755  151.2771 LP  0  0  0  0  0  0  0  0  0  0  0  0  # atno 17371 bound_to 10713
  140.4062  134.7312  157.4809 LP  0  0  0  0  0  0  0  0  0  0  0  0  # atno 17394 bound_to 11000
  140.0460  134.6199  155.8921 LP  0  0  0  0  0  0  0  0  0  0  0  0  # atno 17395 bound_to 11000

$$$$
