AV-unprocessed.smi:202|AV-procd|sdf|1581|dock5
  -GOLD-   2262019473D 1   1.00000     0.00000
 Structure written by MMmdl.
 49 52  0  0  0  0  0  0  0  0  1 V2000
  146.9260  135.8927  162.3452 C   0  0  0  0  0  0  0  0  0  0  0  0
  146.3776  135.2907  161.0434 C   0  0  0  0  0  0  0  0  0  0  0  0
  144.8384  135.2555  161.1278 C   0  0  0  0  0  0  0  0  0  0  0  0
  144.2155  134.0520  161.8678 C   0  0  0  0  0  0  0  0  0  0  0  0
  142.9923  134.3938  162.2709 F   0  0  0  0  0  0  0  0  0  0  0  0
  144.1082  132.9947  161.0641 F   0  0  0  0  0  0  0  0  0  0  0  0
  144.9222  133.7145  162.9454 F   0  0  0  0  0  0  0  0  0  0  0  0
  146.9428  135.9163  159.7566 C   0  0  0  0  0  0  0  0  0  0  0  0
  147.9219  134.8415  159.7316 N   0  0  0  0  0  0  0  0  0  0  0  0
  148.2120  134.3548  158.4279 C   0  0  0  0  0  0  0  0  0  0  0  0
  149.4860  134.3173  157.9495 N   0  0  0  0  0  0  0  0  0  0  0  0
  149.7444  133.8515  156.7240 C   0  0  0  0  0  0  0  0  0  0  0  0
  148.8914  133.3733  155.8175 N   0  0  0  0  0  0  0  0  0  0  0  0
  147.6124  133.3978  156.2873 C   0  0  0  0  0  0  0  0  0  0  0  0
  147.1938  133.8681  157.5642 C   0  0  0  0  0  0  0  0  0  0  0  0
  145.8166  133.7399  157.6884 N   0  0  0  0  0  0  0  0  0  0  0  0
  145.4418  133.2218  156.5506 C   0  0  0  0  0  0  0  0  0  0  0  0
  146.4567  132.9760  155.6530 N   0  0  0  0  0  0  0  0  0  0  0  0
  146.3215  132.4081  154.3195 C   0  0  0  0  0  0  0  0  0  0  0  0
  146.5642  133.4231  153.1688 C   0  0  0  0  0  0  0  0  0  0  0  0
  147.8615  133.9632  153.3424 O   0  0  0  0  0  0  0  0  0  0  0  0
  146.5362  132.7369  151.7884 C   0  0  0  0  0  0  0  0  0  0  0  0
  145.0998  132.3903  151.3560 C   0  0  0  0  0  0  0  0  0  0  0  0
  144.2934  133.5631  151.3618 O   0  0  0  0  0  0  0  0  0  0  0  0
  144.1802  134.1559  152.6509 C   0  0  0  0  0  0  0  0  0  0  0  0
  145.5672  134.6020  153.1469 C   0  0  0  0  0  0  0  0  0  0  0  0
  147.0686  134.0029  160.5627 C   0  0  0  0  0  0  0  0  0  0  0  0
  146.3805  136.7886  162.6437 H   0  0  0  0  0  0  0  0  0  0  0  0
  147.9733  136.1787  162.2419 H   0  0  0  0  0  0  0  0  0  0  0  0
  146.8819  135.1819  163.1697 H   0  0  0  0  0  0  0  0  0  0  0  0
  144.4703  136.1772  161.5802 H   0  0  0  0  0  0  0  0  0  0  0  0
  144.4314  135.2600  160.1157 H   0  0  0  0  0  0  0  0  0  0  0  0
  146.2471  135.8911  158.9158 H   0  0  0  0  0  0  0  0  0  0  0  0
  147.3836  136.9046  159.8892 H   0  0  0  0  0  0  0  0  0  0  0  0
  150.7832  133.8621  156.4285 H   0  0  0  0  0  0  0  0  0  0  0  0
  144.4070  132.9989  156.3343 H   0  0  0  0  0  0  0  0  0  0  0  0
  147.0228  131.5766  154.2379 H   0  0  0  0  0  0  0  0  0  0  0  0
  145.3287  131.9657  154.2428 H   0  0  0  0  0  0  0  0  0  0  0  0
  148.0225  134.5860  152.6501 H   0  0  0  0  0  0  0  0  0  0  0  0
  146.9654  133.4032  151.0383 H   0  0  0  0  0  0  0  0  0  0  0  0
  147.1568  131.8399  151.7906 H   0  0  0  0  0  0  0  0  0  0  0  0
  145.1053  131.9767  150.3475 H   0  0  0  0  0  0  0  0  0  0  0  0
  144.6606  131.6295  152.0022 H   0  0  0  0  0  0  0  0  0  0  0  0
  143.5155  135.0172  152.5820 H   0  0  0  0  0  0  0  0  0  0  0  0
  143.7146  133.4551  153.3440 H   0  0  0  0  0  0  0  0  0  0  0  0
  145.4874  135.0767  154.1249 H   0  0  0  0  0  0  0  0  0  0  0  0
  145.9340  135.3759  152.4707 H   0  0  0  0  0  0  0  0  0  0  0  0
  147.6117  133.4685  161.3426 H   0  0  0  0  0  0  0  0  0  0  0  0
  146.4019  133.3410  160.0087 H   0  0  0  0  0  0  0  0  0  0  0  0
  1  2  1  0  0  0  0
  1 28  1  0  0  0  0
  1 29  1  0  0  0  0
  1 30  1  0  0  0  0
  2 27  1  0  0  0  0
  2  3  1  0  0  0  0
  2  8  1  0  0  0  0
  3  4  1  0  0  0  0
  3 31  1  0  0  0  0
  3 32  1  0  0  0  0
  4  5  1  0  0  0  0
  4  6  1  0  0  0  0
  4  7  1  0  0  0  0
  8  9  1  0  0  0  0
  8 33  1  0  0  0  0
  8 34  1  0  0  0  0
  9 10  1  0  0  0  0
  9 27  1  0  0  0  0
 10 15  1  0  0  0  0
 10 11  2  0  0  0  0
 11 12  1  0  0  0  0
 12 13  2  0  0  0  0
 12 35  1  0  0  0  0
 13 14  1  0  0  0  0
 14 18  1  0  0  0  0
 14 15  2  0  0  0  0
 15 16  1  0  0  0  0
 16 17  2  0  0  0  0
 17 18  1  0  0  0  0
 17 36  1  0  0  0  0
 18 19  1  0  0  0  0
 19 20  1  0  0  0  0
 19 37  1  0  0  0  0
 19 38  1  0  0  0  0
 20 26  1  0  0  0  0
 20 21  1  0  0  0  0
 20 22  1  0  0  0  0
 21 39  1  0  0  0  0
 22 23  1  0  0  0  0
 22 40  1  0  0  0  0
 22 41  1  0  0  0  0
 23 24  1  0  0  0  0
 23 42  1  0  0  0  0
 23 43  1  0  0  0  0
 24 25  1  0  0  0  0
 25 26  1  0  0  0  0
 25 44  1  0  0  0  0
 25 45  1  0  0  0  0
 26 46  1  0  0  0  0
 26 47  1  0  0  0  0
 27 48  1  0  0  0  0
 27 49  1  0  0  0  0
M  END
> <s_m_source_file>
AV-unprocessed.smi

> <i_m_source_file_index>
202

> <i_lp_mmshare_version>
43012

> <i_f3d_flags>
0

> <s_epik_input>
RkMoRikoRilbQ0gyXUMxKFtDSDNdKVtDSDJdTihbQ0gyXTEpYyhuW2NIXW4yKWMoYzIzKW5bY0hdbjNbQ0gyXUM0KFtPSF0pW0NIMl1bQ0gyXU9bQ0gyXVtDSDJdNA==

> <s_epik_cmdline>
J2VwaWtfcHl0aG9uJywgJy1waCcsICc3LjAnLCAnLXRuJywgJzgnLCAnLW1hJywgJzIwMCcsICctbWV0YWxfYmluZGluZycsICctaW1hZScsICc8aW5maWxlLm1hZT4nLCAnLW9tYWUnLCAnPG91dGZpbGUubWFlPic=

> <r_lp_tautomer_probability>
1

> <r_epik_Ionization_Penalty>
0.00132063

> <r_epik_Ionization_Penalty_Charging>
0

> <r_epik_Ionization_Penalty_Neutral>
0.00132063

> <r_epik_State_Penalty>
0.000845314

> <r_epik_Charging_Adjusted_Penalty>
0.000845314

> <i_epik_Tot_Q>
0

> <i_epik_Tot_abs_Q>
0

> <r_epik_Metal_State_Penalty>
-0

> <b_epik_Metal_Only>
0

> <s_lp_Force_Field>
OPLS_2005

> <r_lp_Energy>
42.0456

> <b_lp_Chiralities_Consistent>
1

> <s_lp_Variant>
AV-unprocessed.smi:202-1

> <Gold.Version>
5.8.1

> <Gold.Id.Protein>
6NUR|6NUR_protein|mol2

> <Gold.PLP.Fitness>
38.2178

> <Gold.PLP.PLP>
-30.1651

> <Gold.PLP.part.hbond>
-2.1911

> <Gold.PLP.part.metal>
0.0000

> <Gold.PLP.part.buried>
-5.5619

> <Gold.PLP.part.nonpolar>
-23.1189

> <Gold.PLP.part.repulsive>
0.1652

> <Gold.PLP.ligand.clash>
0.0000

> <Gold.PLP.ligand.torsion>
0.9648

> <Gold.PLP.Chemscore.Hbond>
2.0000

> <Gold.PLP.Chemscore.CHOScore>
0.9367

> <Gold.PLP.Chemscore.Metal>
0.0000

> <Gold.Chemscore.Hbonds>
donor molecule, donor type, donor heavy atom, donor atom, acceptor molecule, acceptor atom, score
      L1  H    21    39       P1  7948  1.00
      P1  H  6896  6909       L1    11  0.99
      L1  C    17    36       P1 10957  0.81

> <Gold.PLP.Chemscore.Internal.Correction>
1.1721

> <Gold.Rescore>
     Score         DG    S(hbond)    S(metal)    S(lipo)     H(rot)  DE(clash)    DE(int)     intcor
      8.62     -11.57       1.76        0.00      58.31       2.58       0.03       2.91       ----

> <Gold.Chemscore.Fitness>
8.6196

> <Gold.Chemscore.DG>
-11.5655

> <Gold.Chemscore.ZeroCoef>
-5.4800

> <Gold.Chemscore.Hbond>
1.7602

> <Gold.Chemscore.Metal>
0.0000

> <Gold.Chemscore.Lipo>
58.3123

> <Gold.Chemscore.Internal_Hbond>
0.0000

> <Gold.Chemscore.DEClash>
0.0325

> <Gold.Chemscore.DEInternal>
2.9134

> <Gold.Chemscore.Rot>
2.5845

> <Gold.Chemscore.Internal.Correction>
   9.000000E+99

> <Gold.Chemscore.Hbonds>
donor molecule, donor type, donor heavy atom, donor atom, acceptor molecule, acceptor atom, score
      L1  H    21    39       P1  7948  0.56
      P1  H  6896  6909       L1    11  0.73

> <Gold.Chemscore.Hbond.Weighted>
-5.8792

> <Gold.Chemscore.Metal.Weighted>
-0.0000

> <Gold.Chemscore.Lipo.Weighted>
-6.8225

> <Gold.Chemscore.Internal_Hbond.Weighted>
0.0000

> <Gold.Chemscore.DEClash.Weighted>
0.0325

> <Gold.Chemscore.DEInternal.Weighted>
2.9134

> <Gold.Chemscore.Rot.Weighted>
6.6163

> <Gold.Chemscore.Internal.Correction.Weighted>
   9.000000E+99

> <Gold.Protein.RotatedTorsions>
[ 6907 6896 6895 6894 ] final    1.87 input  -60.11 | X-H torsion
[ 7974 7965 7964 7962 ] final -154.73 input  175.53 | X-H torsion
[ 8008 7997 7996 7995 ] final   54.66 input   59.86 | X-H torsion
[ 10167 10162 10161 10158 ] final -112.72 input  -65.29 | X-H torsion
[ 10718 10713 10712 10709 ] final   -7.12 input   66.30 | X-H torsion
[ 10763 10752 10751 10750 ] final   37.69 input  -60.55 | X-H torsion
[ 11005 11000 10999 10996 ] final  -11.34 input  -57.11 | X-H torsion

> <Gold.Protein.ActiveResidues>
 VAL166  LYS551  ARG553  GLY616  TRP617  ASP618  TYR619  PRO620  LYS621  CYS622 
 ASP623  PHE694  ASN695  SER759  ASP760  ASP761  ALA762  ILE779  LEU786  VAL792 
 PHE793  MET794  SER795  GLU796  ALA797  LYS798  CYS799  TRP800  GLU811  SER814 

> <Gold.Protein.RotatedAtoms>
  151.5996  135.1048  160.0057 H   0  0  0  0  0  0  0  0  0  0  0  0  # atno 6907 bound_to 6896
  152.4264  133.7199  159.6538 H   0  0  0  0  0  0  0  0  0  0  0  0  # atno 6908 bound_to 6896
  150.8154  133.8275  159.3185 H   0  0  0  0  0  0  0  0  0  0  0  0  # atno 6909 bound_to 6896
  144.7675  140.4348  143.5931 H   0  0  0  0  0  0  0  0  0  0  0  0  # atno 7974 bound_to 7965
  155.4884  140.3470  155.4351 H   0  0  0  0  0  0  0  0  0  0  0  0  # atno 8008 bound_to 7997
  156.0993  140.1431  156.9517 H   0  0  0  0  0  0  0  0  0  0  0  0  # atno 8009 bound_to 7997
  154.4683  140.0909  156.7057 H   0  0  0  0  0  0  0  0  0  0  0  0  # atno 8010 bound_to 7997
  140.1196  143.4455  152.1699 H   0  0  0  0  0  0  0  0  0  0  0  0  # atno 10167 bound_to 10162
  156.7219  130.5153  149.5866 H   0  0  0  0  0  0  0  0  0  0  0  0  # atno 10718 bound_to 10713
  153.0028  135.6271  154.2184 H   0  0  0  0  0  0  0  0  0  0  0  0  # atno 10763 bound_to 10752
  154.1928  135.2808  155.3018 H   0  0  0  0  0  0  0  0  0  0  0  0  # atno 10764 bound_to 10752
  154.5746  135.5666  153.7187 H   0  0  0  0  0  0  0  0  0  0  0  0  # atno 10765 bound_to 10752
  140.7543  133.8567  155.9071 H   0  0  0  0  0  0  0  0  0  0  0  0  # atno 11005 bound_to 11000
  145.6425  139.1552  143.2907 LP  0  0  0  0  0  0  0  0  0  0  0  0  # atno 17320 bound_to 7965
  146.1795  140.6521  142.9196 LP  0  0  0  0  0  0  0  0  0  0  0  0  # atno 17321 bound_to 7965
  139.5576  144.7383  151.4250 LP  0  0  0  0  0  0  0  0  0  0  0  0  # atno 17342 bound_to 10162
  140.6879  143.7930  150.7213 LP  0  0  0  0  0  0  0  0  0  0  0  0  # atno 17343 bound_to 10162
  156.1589  130.6360  151.0693 LP  0  0  0  0  0  0  0  0  0  0  0  0  # atno 17370 bound_to 10713
  157.6895  131.0814  150.7149 LP  0  0  0  0  0  0  0  0  0  0  0  0  # atno 17371 bound_to 10713
  140.9722  134.1516  157.4566 LP  0  0  0  0  0  0  0  0  0  0  0  0  # atno 17394 bound_to 11000
  139.8782  134.9982  156.5889 LP  0  0  0  0  0  0  0  0  0  0  0  0  # atno 17395 bound_to 11000

$$$$
