AV-unprocessed.smi:1351|AV-procd|sdf|5525|dock1
  -GOLD-   22720 5113D 1   1.00000     0.00000
 Structure written by MMmdl.
 34 35  0  0  0  0  0  0  0  0  1 V2000
  152.8898  143.3992  162.3141 C   0  0  0  0  0  0  0  0  0  0  0  0
  153.0914  142.3935  161.2782 N   0  0  0  0  0  0  0  0  0  0  0  0
  154.0272  141.2963  161.5020 C   0  0  0  0  0  0  0  0  0  0  0  0
  152.3576  142.4575  160.0715 C   0  0  0  0  0  0  0  0  0  0  0  0
  151.8798  143.6898  159.5601 C   0  0  0  0  0  0  0  0  0  0  0  0
  151.1546  143.7026  158.3530 C   0  0  0  0  0  0  0  0  0  0  0  0
  150.9274  142.4828  157.6756 C   0  0  0  0  0  0  0  0  0  0  0  0
  150.1957  142.3599  156.4636 N   0  0  0  0  0  0  0  0  0  0  0  0
  150.0674  141.2883  155.6582 C   0  0  0  0  0  0  0  0  0  0  0  0
  150.5988  140.1975  155.8647 O   0  0  0  0  0  0  0  0  0  0  0  0
  149.1962  141.4743  154.4059 C   0  0  1  0  0  0  0  0  0  0  0  0
  148.9190  140.1751  153.6242 C   0  0  0  0  0  0  0  0  0  0  0  0
  147.4031  140.1099  153.5342 C   0  0  0  0  0  0  0  0  0  0  0  0
  146.9855  141.5534  153.7770 C   0  0  0  0  0  0  0  0  0  0  0  0
  147.9089  141.9740  154.7657 O   0  0  0  0  0  0  0  0  0  0  0  0
  151.4282  141.3071  158.2672 C   0  0  0  0  0  0  0  0  0  0  0  0
  152.1242  141.2903  159.4227 N   0  0  0  0  0  0  0  0  0  0  0  0
  151.8507  143.4058  162.6450 H   0  0  0  0  0  0  0  0  0  0  0  0
  153.1445  144.3911  161.9398 H   0  0  0  0  0  0  0  0  0  0  0  0
  153.5142  143.2030  163.1858 H   0  0  0  0  0  0  0  0  0  0  0  0
  153.5047  140.3391  161.4903 H   0  0  0  0  0  0  0  0  0  0  0  0
  154.5295  141.3911  162.4649 H   0  0  0  0  0  0  0  0  0  0  0  0
  154.7942  141.2817  160.7270 H   0  0  0  0  0  0  0  0  0  0  0  0
  152.0513  144.6254  160.0701 H   0  0  0  0  0  0  0  0  0  0  0  0
  150.7783  144.6435  157.9832 H   0  0  0  0  0  0  0  0  0  0  0  0
  149.6438  143.1659  156.2059 H   0  0  0  0  0  0  0  0  0  0  0  0
  149.6761  142.2022  153.7500 H   0  0  0  0  0  0  0  0  0  0  0  0
  149.3590  140.2403  152.6284 H   0  0  0  0  0  0  0  0  0  0  0  0
  149.3171  139.2778  154.1002 H   0  0  0  0  0  0  0  0  0  0  0  0
  147.0472  139.7179  152.5809 H   0  0  0  0  0  0  0  0  0  0  0  0
  147.0118  139.4752  154.3303 H   0  0  0  0  0  0  0  0  0  0  0  0
  147.1066  142.1564  152.8757 H   0  0  0  0  0  0  0  0  0  0  0  0
  145.9553  141.6434  154.1219 H   0  0  0  0  0  0  0  0  0  0  0  0
  151.2713  140.3471  157.7973 H   0  0  0  0  0  0  0  0  0  0  0  0
  1  2  1  0  0  0  0
  1 18  1  0  0  0  0
  1 19  1  0  0  0  0
  1 20  1  0  0  0  0
  2  3  1  0  0  0  0
  2  4  1  0  0  0  0
  3 21  1  0  0  0  0
  3 22  1  0  0  0  0
  3 23  1  0  0  0  0
  4 17  1  0  0  0  0
  4  5  2  0  0  0  0
  5  6  1  0  0  0  0
  5 24  1  0  0  0  0
  6  7  2  0  0  0  0
  6 25  1  0  0  0  0
  7  8  1  0  0  0  0
  7 16  1  0  0  0  0
  8  9  1  0  0  0  0
  8 26  1  0  0  0  0
  9 10  2  0  0  0  0
  9 11  1  0  0  0  0
 11 15  1  0  0  0  0
 11 12  1  0  0  0  0
 11 27  1  0  0  0  0
 12 13  1  0  0  0  0
 12 28  1  0  0  0  0
 12 29  1  0  0  0  0
 13 14  1  0  0  0  0
 13 30  1  0  0  0  0
 13 31  1  0  0  0  0
 14 15  1  0  0  0  0
 14 32  1  0  0  0  0
 14 33  1  0  0  0  0
 16 17  2  0  0  0  0
 16 34  1  0  0  0  0
M  END
> <s_m_source_file>
AV-unprocessed.smi

> <i_m_source_file_index>
1351

> <i_lp_mmshare_version>
43012

> <i_f3d_flags>
0

> <s_epik_input>
W0NIM11OKFtDSDNdKWMxW2NIXVtjSF1jKFtjSF1uMSlbTkhdQyg9TylbQ0BASF0yW0NIMl1bQ0gyXVtDSDJdTzI=

> <s_epik_cmdline>
J2VwaWtfcHl0aG9uJywgJy1waCcsICc3LjAnLCAnLXRuJywgJzgnLCAnLW1hJywgJzIwMCcsICctbWV0YWxfYmluZGluZycsICctaW1hZScsICc8aW5maWxlLm1hZT4nLCAnLW9tYWUnLCAnPG91dGZpbGUubWFlPic=

> <r_lp_tautomer_probability>
1

> <r_epik_Ionization_Penalty>
0.225439

> <r_epik_Ionization_Penalty_Charging>
0

> <r_epik_Ionization_Penalty_Neutral>
0.225439

> <r_epik_State_Penalty>
0.21555

> <r_epik_Charging_Adjusted_Penalty>
0.21555

> <i_epik_Tot_Q>
0

> <i_epik_Tot_abs_Q>
0

> <r_epik_Metal_State_Penalty>
0.155168

> <b_epik_Metal_Only>
0

> <s_lp_Force_Field>
OPLS_2005

> <r_lp_Energy>
24.7621

> <b_lp_Chiralities_Consistent>
1

> <s_lp_Variant>
AV-unprocessed.smi:1351-2

> <Gold.Version>
5.8.1

> <Gold.Id.Protein>
6NUR|6NUR_protein|mol2

> <Gold.PLP.Fitness>
40.9807

> <Gold.PLP.PLP>
-38.8410

> <Gold.PLP.part.hbond>
-1.0000

> <Gold.PLP.part.metal>
0.0000

> <Gold.PLP.part.buried>
-0.3783

> <Gold.PLP.part.nonpolar>
-36.9600

> <Gold.PLP.part.repulsive>
0.8777

> <Gold.PLP.ligand.clash>
0.0000

> <Gold.PLP.ligand.torsion>
0.4353

> <Gold.PLP.Chemscore.Hbond>
1.0000

> <Gold.PLP.Chemscore.CHOScore>
0.0000

> <Gold.PLP.Chemscore.Metal>
0.0000

> <Gold.Chemscore.Hbonds>
donor molecule, donor type, donor heavy atom, donor atom, acceptor molecule, acceptor atom, score
      L1  H     8    26       P1  8028  1.00

> <Gold.PLP.Chemscore.Internal.Correction>
0.0102

> <Gold.Rescore>
     Score         DG    S(hbond)    S(metal)    S(lipo)     H(rot)  DE(clash)    DE(int)     intcor
     13.59     -16.90       1.00        0.00      90.92       1.00       1.54       1.77       ----

> <Gold.Chemscore.Fitness>
13.5868

> <Gold.Chemscore.DG>
-16.8968

> <Gold.Chemscore.ZeroCoef>
-5.4800

> <Gold.Chemscore.Hbond>
0.9999

> <Gold.Chemscore.Metal>
0.0000

> <Gold.Chemscore.Lipo>
90.9167

> <Gold.Chemscore.Internal_Hbond>
0.0000

> <Gold.Chemscore.DEClash>
1.5358

> <Gold.Chemscore.DEInternal>
1.7741

> <Gold.Chemscore.Rot>
1.0000

> <Gold.Chemscore.Internal.Correction>
   9.000000E+99

> <Gold.Chemscore.Hbonds>
donor molecule, donor type, donor heavy atom, donor atom, acceptor molecule, acceptor atom, score
      L1  H     8    26       P1  8028  1.00

> <Gold.Chemscore.Hbond.Weighted>
-3.3395

> <Gold.Chemscore.Metal.Weighted>
-0.0000

> <Gold.Chemscore.Lipo.Weighted>
-10.6373

> <Gold.Chemscore.Internal_Hbond.Weighted>
0.0000

> <Gold.Chemscore.DEClash.Weighted>
1.5358

> <Gold.Chemscore.DEInternal.Weighted>
1.7741

> <Gold.Chemscore.Rot.Weighted>
2.5600

> <Gold.Chemscore.Internal.Correction.Weighted>
   9.000000E+99

> <Gold.Protein.RotatedTorsions>
[ 6907 6896 6895 6894 ] final  109.31 input  -60.11 | X-H torsion
[ 7974 7965 7964 7962 ] final  -55.28 input  175.53 | X-H torsion
[ 8008 7997 7996 7995 ] final  122.89 input   59.86 | X-H torsion
[ 10167 10162 10161 10158 ] final -166.44 input  -65.29 | X-H torsion
[ 10718 10713 10712 10709 ] final  157.53 input   66.30 | X-H torsion
[ 10763 10752 10751 10750 ] final   43.10 input  -60.55 | X-H torsion
[ 11005 11000 10999 10996 ] final  -97.34 input  -57.11 | X-H torsion

> <Gold.Protein.ActiveResidues>
 VAL166  LYS551  ARG553  GLY616  TRP617  ASP618  TYR619  PRO620  LYS621  CYS622 
 ASP623  PHE694  ASN695  SER759  ASP760  ASP761  ALA762  ILE779  LEU786  VAL792 
 PHE793  MET794  SER795  GLU796  ALA797  LYS798  CYS799  TRP800  GLU811  SER814 

> <Gold.Protein.RotatedAtoms>
  152.5073  133.8962  159.7418 H   0  0  0  0  0  0  0  0  0  0  0  0  # atno 6907 bound_to 6896
  150.9389  133.6671  159.2801 H   0  0  0  0  0  0  0  0  0  0  0  0  # atno 6908 bound_to 6896
  151.3989  135.0973  159.9602 H   0  0  0  0  0  0  0  0  0  0  0  0  # atno 6909 bound_to 6896
  145.8760  140.8181  142.9864 H   0  0  0  0  0  0  0  0  0  0  0  0  # atno 7974 bound_to 7965
  156.2745  140.2775  156.1541 H   0  0  0  0  0  0  0  0  0  0  0  0  # atno 8008 bound_to 7997
  155.0823  140.0388  157.2660 H   0  0  0  0  0  0  0  0  0  0  0  0  # atno 8009 bound_to 7997
  154.6954  140.2638  155.6776 H   0  0  0  0  0  0  0  0  0  0  0  0  # atno 8010 bound_to 7997
  139.6115  144.0806  152.1846 H   0  0  0  0  0  0  0  0  0  0  0  0  # atno 10167 bound_to 10162
  157.1902  131.0652  151.2084 H   0  0  0  0  0  0  0  0  0  0  0  0  # atno 10718 bound_to 10713
  152.9868  135.6111  154.3057 H   0  0  0  0  0  0  0  0  0  0  0  0  # atno 10763 bound_to 10752
  154.2775  135.2778  155.2713 H   0  0  0  0  0  0  0  0  0  0  0  0  # atno 10764 bound_to 10752
  154.5067  135.5852  153.6630 H   0  0  0  0  0  0  0  0  0  0  0  0  # atno 10765 bound_to 10752
  141.1382  133.8164  157.0693 H   0  0  0  0  0  0  0  0  0  0  0  0  # atno 11005 bound_to 11000
  144.6726  140.1310  143.7443 LP  0  0  0  0  0  0  0  0  0  0  0  0  # atno 17320 bound_to 7965
  145.9081  139.2470  143.1454 LP  0  0  0  0  0  0  0  0  0  0  0  0  # atno 17321 bound_to 7965
  140.0426  144.5996  150.7399 LP  0  0  0  0  0  0  0  0  0  0  0  0  # atno 17342 bound_to 10162
  140.7322  143.2703  151.3911 LP  0  0  0  0  0  0  0  0  0  0  0  0  # atno 17343 bound_to 10162
  157.3868  130.7261  149.6669 LP  0  0  0  0  0  0  0  0  0  0  0  0  # atno 17370 bound_to 10713
  155.9713  130.4157  150.4196 LP  0  0  0  0  0  0  0  0  0  0  0  0  # atno 17371 bound_to 10713
  140.0521  134.9800  157.1155 LP  0  0  0  0  0  0  0  0  0  0  0  0  # atno 17394 bound_to 11000
  140.3974  134.2119  155.7164 LP  0  0  0  0  0  0  0  0  0  0  0  0  # atno 17395 bound_to 11000

$$$$
