AV-unprocessed.smi:249|AV-procd|sdf|1906|dock5
  -GOLD-   2262020593D 1   1.00000     0.00000
 Structure written by MMmdl.
 64 67  0  0  0  0  0  0  0  0  2 V2000
  151.7007  145.0712  159.8807 C   0  0  0  0  0  0  0  0  0  0  0  0
  152.7910  144.3563  159.0657 C   0  0  0  0  0  0  0  0  0  0  0  0
  152.3286  143.0813  158.4443 N   0  3  2  0  0  0  0  0  0  0  0  0
  151.2319  143.3105  157.4603 C   0  0  0  0  0  0  0  0  0  0  0  0
  150.8505  142.0270  156.7107 C   0  0  0  0  0  0  0  0  0  0  0  0
  150.4197  140.9270  157.6955 C   0  0  1  0  0  0  0  0  0  0  0  0
  149.9785  139.6906  157.0309 N   0  0  0  0  0  0  0  0  0  0  0  0
  149.7964  138.5103  157.8682 C   0  0  0  0  0  0  0  0  0  0  0  0
  149.0457  139.8204  156.0568 C   0  0  0  0  0  0  0  0  0  0  0  0
  149.3287  140.5390  154.9383 N   0  0  0  0  0  0  0  0  0  0  0  0
  148.4375  140.6074  153.9445 C   0  0  0  0  0  0  0  0  0  0  0  0
  147.2357  140.0327  153.8603 N   0  0  0  0  0  0  0  0  0  0  0  0
  146.9432  139.3287  154.9911 C   0  0  0  0  0  0  0  0  0  0  0  0
  147.7746  139.1916  156.1362 C   0  0  0  0  0  0  0  0  0  0  0  0
  147.1380  138.4192  157.0998 N   0  0  0  0  0  0  0  0  0  0  0  0
  146.0038  138.0919  156.5435 C   0  0  0  0  0  0  0  0  0  0  0  0
  145.8247  138.5609  155.2611 N   0  0  0  0  0  0  0  0  0  0  0  0
  144.6899  138.3063  154.3945 C   0  0  0  0  0  0  0  0  0  0  0  0
  144.6037  136.8499  153.8554 C   0  0  2  0  0  0  0  0  0  0  0  0
  145.6037  136.6869  152.6844 C   0  0  0  0  0  0  0  0  0  0  0  0
  145.5937  137.8172  151.8366 O   0  0  0  0  0  0  0  0  0  0  0  0
  143.1587  136.4239  153.4457 C   0  0  1  0  0  0  0  0  0  0  0  0
  142.9909  134.9528  153.0921 C   0  0  0  0  0  0  0  0  0  0  0  0
  141.4874  134.7571  153.2121 C   0  0  0  0  0  0  0  0  0  0  0  0
  141.1329  135.5181  154.3547 O   0  0  0  0  0  0  0  0  0  0  0  0
  142.0783  136.5682  154.5366 C   0  0  0  0  0  0  0  0  0  0  0  0
  151.5567  140.7163  158.7140 C   0  0  0  0  0  0  0  0  0  0  0  0
  151.9576  142.0196  159.4360 C   0  0  1  0  0  0  0  0  0  0  0  0
  153.0894  141.6914  160.4329 C   0  0  0  0  0  0  0  0  0  0  0  0
  152.0378  146.0657  160.1746 H   0  0  0  0  0  0  0  0  0  0  0  0
  151.4512  144.5416  160.7992 H   0  0  0  0  0  0  0  0  0  0  0  0
  150.7875  145.1942  159.2977 H   0  0  0  0  0  0  0  0  0  0  0  0
  153.0937  145.0645  158.2981 H   0  0  0  0  0  0  0  0  0  0  0  0
  153.6711  144.1721  159.6836 H   0  0  0  0  0  0  0  0  0  0  0  0
  150.3595  143.7170  157.9747 H   0  0  0  0  0  0  0  0  0  0  0  0
  151.5281  144.0471  156.7158 H   0  0  0  0  0  0  0  0  0  0  0  0
  150.0457  142.2482  156.0097 H   0  0  0  0  0  0  0  0  0  0  0  0
  151.7015  141.6970  156.1142 H   0  0  0  0  0  0  0  0  0  0  0  0
  149.5547  141.2958  158.2487 H   0  0  0  0  0  0  0  0  0  0  0  0
  149.6694  137.6186  157.2529 H   0  0  0  0  0  0  0  0  0  0  0  0
  148.9225  138.6078  158.5132 H   0  0  0  0  0  0  0  0  0  0  0  0
  150.6706  138.3555  158.5011 H   0  0  0  0  0  0  0  0  0  0  0  0
  148.7363  141.1932  153.0876 H   0  0  0  0  0  0  0  0  0  0  0  0
  145.2771  137.4684  157.0439 H   0  0  0  0  0  0  0  0  0  0  0  0
  143.7791  138.5522  154.9418 H   0  0  0  0  0  0  0  0  0  0  0  0
  144.7517  139.0179  153.5706 H   0  0  0  0  0  0  0  0  0  0  0  0
  144.9302  136.1722  154.6457 H   0  0  0  0  0  0  0  0  0  0  0  0
  146.6269  136.5832  153.0428 H   0  0  0  0  0  0  0  0  0  0  0  0
  145.3759  135.7949  152.0999 H   0  0  0  0  0  0  0  0  0  0  0  0
  144.7061  137.9720  151.5515 H   0  0  0  0  0  0  0  0  0  0  0  0
  142.8519  137.0062  152.5752 H   0  0  0  0  0  0  0  0  0  0  0  0
  143.3578  134.7048  152.0955 H   0  0  0  0  0  0  0  0  0  0  0  0
  143.5064  134.3212  153.8175 H   0  0  0  0  0  0  0  0  0  0  0  0
  140.9768  135.1637  152.3380 H   0  0  0  0  0  0  0  0  0  0  0  0
  141.2040  133.7101  153.3211 H   0  0  0  0  0  0  0  0  0  0  0  0
  142.5014  136.4663  155.5363 H   0  0  0  0  0  0  0  0  0  0  0  0
  141.5663  137.5278  154.4830 H   0  0  0  0  0  0  0  0  0  0  0  0
  151.2446  139.9752  159.4504 H   0  0  0  0  0  0  0  0  0  0  0  0
  152.4411  140.3131  158.2184 H   0  0  0  0  0  0  0  0  0  0  0  0
  151.0968  142.3752  160.0051 H   0  0  0  0  0  0  0  0  0  0  0  0
  152.8400  140.8118  161.0275 H   0  0  0  0  0  0  0  0  0  0  0  0
  153.2628  142.4948  161.1479 H   0  0  0  0  0  0  0  0  0  0  0  0
  154.0271  141.4804  159.9174 H   0  0  0  0  0  0  0  0  0  0  0  0
  153.1144  142.7179  157.9240 H   0  0  0  0  0  0  0  0  0  0  0  0
  1  2  1  0  0  0  0
  1 30  1  0  0  0  0
  1 31  1  0  0  0  0
  1 32  1  0  0  0  0
  2  3  1  0  0  0  0
  2 33  1  0  0  0  0
  2 34  1  0  0  0  0
  3 28  1  0  0  0  0
  3  4  1  0  0  0  0
  3 64  1  0  0  0  0
  4  5  1  0  0  0  0
  4 35  1  0  0  0  0
  4 36  1  0  0  0  0
  5  6  1  0  0  0  0
  5 37  1  0  0  0  0
  5 38  1  0  0  0  0
  6  7  1  0  0  0  0
  6 27  1  0  0  0  0
  6 39  1  0  0  0  0
  7  8  1  0  0  0  0
  7  9  1  0  0  0  0
  8 40  1  0  0  0  0
  8 41  1  0  0  0  0
  8 42  1  0  0  0  0
  9 14  1  0  0  0  0
  9 10  2  0  0  0  0
 10 11  1  0  0  0  0
 11 12  2  0  0  0  0
 11 43  1  0  0  0  0
 12 13  1  0  0  0  0
 13 17  1  0  0  0  0
 13 14  2  0  0  0  0
 14 15  1  0  0  0  0
 15 16  2  0  0  0  0
 16 17  1  0  0  0  0
 16 44  1  0  0  0  0
 17 18  1  0  0  0  0
 18 19  1  0  0  0  0
 18 45  1  0  0  0  0
 18 46  1  0  0  0  0
 19 20  1  0  0  0  0
 19 22  1  0  0  0  0
 19 47  1  0  0  0  0
 20 21  1  0  0  0  0
 20 48  1  0  0  0  0
 20 49  1  0  0  0  0
 21 50  1  0  0  0  0
 22 26  1  0  0  0  0
 22 23  1  0  0  0  0
 22 51  1  0  0  0  0
 23 24  1  0  0  0  0
 23 52  1  0  0  0  0
 23 53  1  0  0  0  0
 24 25  1  0  0  0  0
 24 54  1  0  0  0  0
 24 55  1  0  0  0  0
 25 26  1  0  0  0  0
 26 56  1  0  0  0  0
 26 57  1  0  0  0  0
 27 28  1  0  0  0  0
 27 58  1  0  0  0  0
 27 59  1  0  0  0  0
 28 29  1  0  0  0  0
 28 60  1  0  0  0  0
 29 61  1  0  0  0  0
 29 62  1  0  0  0  0
 29 63  1  0  0  0  0
M  CHG  1   3   1
M  END
> <s_m_source_file>
AV-unprocessed.smi

> <i_m_source_file_index>
249

> <i_lp_mmshare_version>
43012

> <i_f3d_flags>
0

> <s_epik_input>
W0NIM11bQ0gyXU4xW0NIMl1bQ0gyXVtDQEhdKFtDSDJdW0NASF0xW0NIM10pTihbQ0gzXSljKG5bY0hdbjIpYyhjMjMpbltjSF1uM1tDSDJdW0NASF0oW0NIMl1bT0hdKVtDQEBIXTRbQ0gyXVtDSDJdT1tDSDJdNA==

> <s_epik_cmdline>
J2VwaWtfcHl0aG9uJywgJy1waCcsICc3LjAnLCAnLXRuJywgJzgnLCAnLW1hJywgJzIwMCcsICctbWV0YWxfYmluZGluZycsICctaW1hZScsICc8aW5maWxlLm1hZT4nLCAnLW9tYWUnLCAnPG91dGZpbGUubWFlPic=

> <r_lp_tautomer_probability>
1

> <r_epik_Ionization_Penalty>
0.00294688

> <r_epik_Ionization_Penalty_Charging>
0.00169971

> <r_epik_Ionization_Penalty_Neutral>
0.00124717

> <r_epik_State_Penalty>
-0

> <r_epik_Charging_Adjusted_Penalty>
0.00169971

> <i_epik_Tot_Q>
1

> <i_epik_Tot_abs_Q>
1

> <r_epik_Metal_State_Penalty>
-0

> <b_epik_Metal_Only>
0

> <s_lp_Force_Field>
OPLS_2005

> <r_lp_Energy>
53.7377

> <b_lp_Chiralities_Consistent>
1

> <s_lp_Variant>
AV-unprocessed.smi:249-9

> <Gold.Version>
5.8.1

> <Gold.Id.Protein>
6NUR|6NUR_protein|mol2

> <Gold.PLP.Fitness>
46.6717

> <Gold.PLP.PLP>
-40.5052

> <Gold.PLP.part.hbond>
-2.0000

> <Gold.PLP.part.metal>
0.0000

> <Gold.PLP.part.buried>
-5.2465

> <Gold.PLP.part.nonpolar>
-33.1848

> <Gold.PLP.part.repulsive>
0.3944

> <Gold.PLP.ligand.clash>
0.0716

> <Gold.PLP.ligand.torsion>
1.0116

> <Gold.PLP.Chemscore.Hbond>
1.5616

> <Gold.PLP.Chemscore.CHOScore>
0.8216

> <Gold.PLP.Chemscore.Metal>
0.0000

> <Gold.Chemscore.Hbonds>
donor molecule, donor type, donor heavy atom, donor atom, acceptor molecule, acceptor atom, score
      L1  H    21    50       P1 10171  0.69
      P1  H 11000 11005       L1    25  0.82
      L1  C    11    43       P1  7957  0.78

> <Gold.PLP.Chemscore.Internal.Correction>
1.1117

> <Gold.Rescore>
     Score         DG    S(hbond)    S(metal)    S(lipo)     H(rot)  DE(clash)    DE(int)     intcor
     11.12     -15.16       1.55        0.00     101.85       2.90       0.12       3.92       ----

> <Gold.Chemscore.Fitness>
11.1171

> <Gold.Chemscore.DG>
-15.1608

> <Gold.Chemscore.ZeroCoef>
-5.4800

> <Gold.Chemscore.Hbond>
1.5540

> <Gold.Chemscore.Metal>
0.0000

> <Gold.Chemscore.Lipo>
101.8454

> <Gold.Chemscore.Internal_Hbond>
0.0000

> <Gold.Chemscore.DEClash>
0.1230

> <Gold.Chemscore.DEInternal>
3.9206

> <Gold.Chemscore.Rot>
2.9006

> <Gold.Chemscore.Internal.Correction>
   9.000000E+99

> <Gold.Chemscore.Hbonds>
donor molecule, donor type, donor heavy atom, donor atom, acceptor molecule, acceptor atom, score
      L1  H    21    50       P1 10171  0.64
      P1  H 11000 11005       L1    25  0.55

> <Gold.Chemscore.Hbond.Weighted>
-5.1905

> <Gold.Chemscore.Metal.Weighted>
-0.0000

> <Gold.Chemscore.Lipo.Weighted>
-11.9159

> <Gold.Chemscore.Internal_Hbond.Weighted>
0.0000

> <Gold.Chemscore.DEClash.Weighted>
0.1230

> <Gold.Chemscore.DEInternal.Weighted>
3.9206

> <Gold.Chemscore.Rot.Weighted>
7.4256

> <Gold.Chemscore.Internal.Correction.Weighted>
   9.000000E+99

> <Gold.Protein.RotatedTorsions>
[ 6907 6896 6895 6894 ] final  -85.53 input  -60.11 | X-H torsion
[ 7974 7965 7964 7962 ] final   19.05 input  175.53 | X-H torsion
[ 8008 7997 7996 7995 ] final  -89.15 input   59.86 | X-H torsion
[ 10167 10162 10161 10158 ] final -140.68 input  -65.29 | X-H torsion
[ 10718 10713 10712 10709 ] final  -74.63 input   66.30 | X-H torsion
[ 10763 10752 10751 10750 ] final   90.33 input  -60.55 | X-H torsion
[ 11005 11000 10999 10996 ] final   27.26 input  -57.11 | X-H torsion

> <Gold.Protein.ActiveResidues>
 VAL166  LYS551  ARG553  GLY616  TRP617  ASP618  TYR619  PRO620  LYS621  CYS622 
 ASP623  PHE694  ASN695  SER759  ASP760  ASP761  ALA762  ILE779  LEU786  VAL792 
 PHE793  MET794  SER795  GLU796  ALA797  LYS798  CYS799  TRP800  GLU811  SER814 

> <Gold.Protein.RotatedAtoms>
  150.6870  134.3191  159.4778 H   0  0  0  0  0  0  0  0  0  0  0  0  # atno 6907 bound_to 6896
  152.1068  134.9300  160.0577 H   0  0  0  0  0  0  0  0  0  0  0  0  # atno 6908 bound_to 6896
  152.0558  133.4004  159.4433 H   0  0  0  0  0  0  0  0  0  0  0  0  # atno 6909 bound_to 6896
  146.2163  139.8369  142.8648 H   0  0  0  0  0  0  0  0  0  0  0  0  # atno 7974 bound_to 7965
  154.6831  140.0545  157.0287 H   0  0  0  0  0  0  0  0  0  0  0  0  # atno 8008 bound_to 7997
  155.0923  140.3220  155.4551 H   0  0  0  0  0  0  0  0  0  0  0  0  # atno 8009 bound_to 7997
  156.2701  140.2046  156.6050 H   0  0  0  0  0  0  0  0  0  0  0  0  # atno 8010 bound_to 7997
  139.8258  143.7513  152.2666 H   0  0  0  0  0  0  0  0  0  0  0  0  # atno 10167 bound_to 10162
  156.0235  130.4421  150.2922 H   0  0  0  0  0  0  0  0  0  0  0  0  # atno 10718 bound_to 10713
  153.1964  135.4438  155.0213 H   0  0  0  0  0  0  0  0  0  0  0  0  # atno 10763 bound_to 10752
  154.8121  135.3299  154.7279 H   0  0  0  0  0  0  0  0  0  0  0  0  # atno 10764 bound_to 10752
  153.7728  135.6983  153.4958 H   0  0  0  0  0  0  0  0  0  0  0  0  # atno 10765 bound_to 10752
  140.3281  134.2468  155.7706 H   0  0  0  0  0  0  0  0  0  0  0  0  # atno 11005 bound_to 11000
  145.2939  141.0175  143.3647 LP  0  0  0  0  0  0  0  0  0  0  0  0  # atno 17320 bound_to 7965
  144.9057  139.4593  143.6611 LP  0  0  0  0  0  0  0  0  0  0  0  0  # atno 17321 bound_to 7965
  139.7705  144.7478  151.0231 LP  0  0  0  0  0  0  0  0  0  0  0  0  # atno 17342 bound_to 10162
  140.7810  143.4650  151.0225 LP  0  0  0  0  0  0  0  0  0  0  0  0  # atno 17343 bound_to 10162
  157.1025  131.0199  151.3080 LP  0  0  0  0  0  0  0  0  0  0  0  0  # atno 17370 bound_to 10713
  157.4768  130.7741  149.7376 LP  0  0  0  0  0  0  0  0  0  0  0  0  # atno 17371 bound_to 10713
  141.2070  133.7818  157.0144 LP  0  0  0  0  0  0  0  0  0  0  0  0  # atno 17394 bound_to 11000
  140.0884  134.9607  157.1736 LP  0  0  0  0  0  0  0  0  0  0  0  0  # atno 17395 bound_to 11000

$$$$
