AV-unprocessed.smi:1055|AV-procd|sdf|4629|dock5
  -GOLD-   22720 3133D 1   1.00000     0.00000
 Structure written by MMmdl.
 50 51  0  0  0  0  0  0  0  0  1 V2000
  135.4237  140.8175  156.8196 C   0  0  0  0  0  0  0  0  0  0  0  0
  136.2441  141.5885  156.0872 C   0  0  0  0  0  0  0  0  0  0  0  0
  135.7819  142.2707  154.8132 C   0  0  0  0  0  0  0  0  0  0  0  0
  137.6856  141.8474  156.5009 C   0  0  0  0  0  0  0  0  0  0  0  0
  138.6680  141.1730  155.6519 N   0  0  0  0  0  0  0  0  0  0  0  0
  138.6894  139.7266  155.8973 C   0  0  0  0  0  0  0  0  0  0  0  0
  139.6832  139.0349  154.9481 C   0  0  0  0  0  0  0  0  0  0  0  0
  141.0996  139.6127  155.1097 C   0  0  0  0  0  0  0  0  0  0  0  0
  142.0084  139.0543  154.1130 N   0  0  0  0  0  0  0  0  0  0  0  0
  142.3136  137.7550  153.9878 C   0  0  0  0  0  0  0  0  0  0  0  0
  141.8584  136.8771  154.7205 O   0  0  0  0  0  0  0  0  0  0  0  0
  143.1824  137.5562  152.9817 N   0  0  0  0  0  0  0  0  0  0  0  0
  143.7295  136.3310  152.5139 C   0  0  0  0  0  0  0  0  0  0  0  0
  143.4113  135.1530  153.2157 C   0  0  0  0  0  0  0  0  0  0  0  0
  143.9522  133.9261  152.7872 C   0  0  0  0  0  0  0  0  0  0  0  0
  144.8138  133.9049  151.6624 C   0  0  0  0  0  0  0  0  0  0  0  0
  145.3810  132.6993  151.1897 N   0  0  0  0  0  0  0  0  0  0  0  0
  145.0838  131.4374  151.8561 C   0  0  0  0  0  0  0  0  0  0  0  0
  146.2198  132.7110  149.9955 C   0  0  0  0  0  0  0  0  0  0  0  0
  145.1306  135.0438  150.9989 N   0  0  0  0  0  0  0  0  0  0  0  0
  144.6085  136.2179  151.4116 C   0  0  0  0  0  0  0  0  0  0  0  0
  141.0368  141.1399  154.9633 C   0  0  0  0  0  0  0  0  0  0  0  0
  139.9904  141.7433  155.9161 C   0  0  0  0  0  0  0  0  0  0  0  0
  134.3997  140.6470  156.5216 H   0  0  0  0  0  0  0  0  0  0  0  0
  135.7641  140.3442  157.7288 H   0  0  0  0  0  0  0  0  0  0  0  0
  135.9065  143.3502  154.8972 H   0  0  0  0  0  0  0  0  0  0  0  0
  134.7303  142.0650  154.6108 H   0  0  0  0  0  0  0  0  0  0  0  0
  136.3635  141.9233  153.9590 H   0  0  0  0  0  0  0  0  0  0  0  0
  137.8536  142.9244  156.4600 H   0  0  0  0  0  0  0  0  0  0  0  0
  137.8287  141.5449  157.5397 H   0  0  0  0  0  0  0  0  0  0  0  0
  138.9567  139.5278  156.9362 H   0  0  0  0  0  0  0  0  0  0  0  0
  137.7003  139.2984  155.7355 H   0  0  0  0  0  0  0  0  0  0  0  0
  139.6888  137.9623  155.1449 H   0  0  0  0  0  0  0  0  0  0  0  0
  139.3441  139.1580  153.9182 H   0  0  0  0  0  0  0  0  0  0  0  0
  141.4706  139.3782  156.1096 H   0  0  0  0  0  0  0  0  0  0  0  0
  142.4321  139.7067  153.4695 H   0  0  0  0  0  0  0  0  0  0  0  0
  143.5291  138.3867  152.5248 H   0  0  0  0  0  0  0  0  0  0  0  0
  142.7552  135.1838  154.0734 H   0  0  0  0  0  0  0  0  0  0  0  0
  143.6965  133.0288  153.3301 H   0  0  0  0  0  0  0  0  0  0  0  0
  145.4398  131.4556  152.8866 H   0  0  0  0  0  0  0  0  0  0  0  0
  145.5658  130.5988  151.3531 H   0  0  0  0  0  0  0  0  0  0  0  0
  144.0097  131.2488  151.8599 H   0  0  0  0  0  0  0  0  0  0  0  0
  147.0809  133.3648  150.1384 H   0  0  0  0  0  0  0  0  0  0  0  0
  145.6540  133.0663  149.1336 H   0  0  0  0  0  0  0  0  0  0  0  0
  146.5944  131.7145  149.7616 H   0  0  0  0  0  0  0  0  0  0  0  0
  144.9317  137.0767  150.8447 H   0  0  0  0  0  0  0  0  0  0  0  0
  142.0152  141.5757  155.1682 H   0  0  0  0  0  0  0  0  0  0  0  0
  140.7866  141.4084  153.9355 H   0  0  0  0  0  0  0  0  0  0  0  0
  139.9578  142.8241  155.7732 H   0  0  0  0  0  0  0  0  0  0  0  0
  140.2764  141.5665  156.9543 H   0  0  0  0  0  0  0  0  0  0  0  0
  1  2  2  0  0  0  0
  1 24  1  0  0  0  0
  1 25  1  0  0  0  0
  2  3  1  0  0  0  0
  2  4  1  0  0  0  0
  3 26  1  0  0  0  0
  3 27  1  0  0  0  0
  3 28  1  0  0  0  0
  4  5  1  0  0  0  0
  4 29  1  0  0  0  0
  4 30  1  0  0  0  0
  5 23  1  0  0  0  0
  5  6  1  0  0  0  0
  6  7  1  0  0  0  0
  6 31  1  0  0  0  0
  6 32  1  0  0  0  0
  7  8  1  0  0  0  0
  7 33  1  0  0  0  0
  7 34  1  0  0  0  0
  8  9  1  0  0  0  0
  8 22  1  0  0  0  0
  8 35  1  0  0  0  0
  9 10  1  0  0  0  0
  9 36  1  0  0  0  0
 10 11  2  0  0  0  0
 10 12  1  0  0  0  0
 12 13  1  0  0  0  0
 12 37  1  0  0  0  0
 13 21  1  0  0  0  0
 13 14  2  0  0  0  0
 14 15  1  0  0  0  0
 14 38  1  0  0  0  0
 15 16  2  0  0  0  0
 15 39  1  0  0  0  0
 16 17  1  0  0  0  0
 16 20  1  0  0  0  0
 17 18  1  0  0  0  0
 17 19  1  0  0  0  0
 18 40  1  0  0  0  0
 18 41  1  0  0  0  0
 18 42  1  0  0  0  0
 19 43  1  0  0  0  0
 19 44  1  0  0  0  0
 19 45  1  0  0  0  0
 20 21  2  0  0  0  0
 21 46  1  0  0  0  0
 22 23  1  0  0  0  0
 22 47  1  0  0  0  0
 22 48  1  0  0  0  0
 23 49  1  0  0  0  0
 23 50  1  0  0  0  0
M  END
> <s_m_source_file>
AV-unprocessed.smi

> <i_m_source_file_index>
1055

> <i_lp_mmshare_version>
43012

> <i_f3d_flags>
0

> <s_epik_input>
W0NIMl09QyhbQ0gzXSlbQ0gyXU4xW0NIMl1bQ0gyXVtDSF0oW0NIMl1bQ0gyXTEpW05IXUMoPU8pW05IXWMyW2NIXVtjSF1jKE4oW0NIM10pW0NIM10pbltjSF0y

> <s_epik_cmdline>
J2VwaWtfcHl0aG9uJywgJy1waCcsICc3LjAnLCAnLXRuJywgJzgnLCAnLW1hJywgJzIwMCcsICctbWV0YWxfYmluZGluZycsICctaW1hZScsICc8aW5maWxlLm1hZT4nLCAnLW9tYWUnLCAnPG91dGZpbGUubWFlPic=

> <r_epik_Ionization_Penalty>
2.66572

> <r_epik_Ionization_Penalty_Charging>
0

> <r_epik_Ionization_Penalty_Neutral>
2.66572

> <r_epik_State_Penalty>
2.75204

> <r_epik_Charging_Adjusted_Penalty>
2.75204

> <i_epik_Tot_Q>
0

> <i_epik_Tot_abs_Q>
0

> <r_epik_Metal_State_Penalty>
2.38689

> <b_epik_Metal_Only>
1

> <s_lp_Force_Field>
OPLS_2005

> <r_lp_Energy>
18.8719

> <b_lp_Chiralities_Consistent>
1

> <s_lp_Variant>
AV-unprocessed.smi:1055-6

> <Gold.Version>
5.8.1

> <Gold.Id.Protein>
6NUR|6NUR_protein|mol2

> <Gold.PLP.Fitness>
45.4620

> <Gold.PLP.PLP>
-38.3470

> <Gold.PLP.part.hbond>
-3.6606

> <Gold.PLP.part.metal>
0.0000

> <Gold.PLP.part.buried>
-2.4773

> <Gold.PLP.part.nonpolar>
-33.4358

> <Gold.PLP.part.repulsive>
0.4535

> <Gold.PLP.ligand.clash>
0.0000

> <Gold.PLP.ligand.torsion>
0.2150

> <Gold.PLP.Chemscore.Hbond>
2.0000

> <Gold.PLP.Chemscore.CHOScore>
0.5074

> <Gold.PLP.Chemscore.Metal>
0.0000

> <Gold.Chemscore.Hbonds>
donor molecule, donor type, donor heavy atom, donor atom, acceptor molecule, acceptor atom, score
      L1  H     9    36       P1 10175  1.00
      L1  H    12    37       P1 10175  0.94
      L1  C    21    46       P1 10171  1.00

> <Gold.PLP.Chemscore.Internal.Correction>
0.0229

> <Gold.Rescore>
     Score         DG    S(hbond)    S(metal)    S(lipo)     H(rot)  DE(clash)    DE(int)     intcor
     16.00     -18.41       1.51        0.00      95.81       1.30       0.51       1.89       ----

> <Gold.Chemscore.Fitness>
16.0041

> <Gold.Chemscore.DG>
-18.4063

> <Gold.Chemscore.ZeroCoef>
-5.4800

> <Gold.Chemscore.Hbond>
1.5124

> <Gold.Chemscore.Metal>
0.0000

> <Gold.Chemscore.Lipo>
95.8104

> <Gold.Chemscore.Internal_Hbond>
0.0000

> <Gold.Chemscore.DEClash>
0.5119

> <Gold.Chemscore.DEInternal>
1.8903

> <Gold.Chemscore.Rot>
1.3027

> <Gold.Chemscore.Internal.Correction>
   9.000000E+99

> <Gold.Chemscore.Hbonds>
donor molecule, donor type, donor heavy atom, donor atom, acceptor molecule, acceptor atom, score
      L1  H     9    36       P1 10175  0.99
      L1  H    12    37       P1 10175  0.84

> <Gold.Chemscore.Hbond.Weighted>
-5.0513

> <Gold.Chemscore.Metal.Weighted>
-0.0000

> <Gold.Chemscore.Lipo.Weighted>
-11.2098

> <Gold.Chemscore.Internal_Hbond.Weighted>
0.0000

> <Gold.Chemscore.DEClash.Weighted>
0.5119

> <Gold.Chemscore.DEInternal.Weighted>
1.8903

> <Gold.Chemscore.Rot.Weighted>
3.3348

> <Gold.Chemscore.Internal.Correction.Weighted>
   9.000000E+99

> <Gold.Protein.RotatedTorsions>
[ 6907 6896 6895 6894 ] final  140.73 input  -60.11 | X-H torsion
[ 7974 7965 7964 7962 ] final  144.09 input  175.53 | X-H torsion
[ 8008 7997 7996 7995 ] final -162.01 input   59.86 | X-H torsion
[ 10167 10162 10161 10158 ] final -174.11 input  -65.29 | X-H torsion
[ 10718 10713 10712 10709 ] final   31.74 input   66.30 | X-H torsion
[ 10763 10752 10751 10750 ] final -101.90 input  -60.55 | X-H torsion
[ 11005 11000 10999 10996 ] final  106.12 input  -57.11 | X-H torsion

> <Gold.Protein.ActiveResidues>
 VAL166  LYS551  ARG553  GLY616  TRP617  ASP618  TYR619  PRO620  LYS621  CYS622 
 ASP623  PHE694  ASN695  SER759  ASP760  ASP761  ALA762  ILE779  LEU786  VAL792 
 PHE793  MET794  SER795  GLU796  ALA797  LYS798  CYS799  TRP800  GLU811  SER814 

> <Gold.Protein.RotatedAtoms>
  152.2395  133.5123  159.5261 H   0  0  0  0  0  0  0  0  0  0  0  0  # atno 6907 bound_to 6896
  150.7060  134.1109  159.4008 H   0  0  0  0  0  0  0  0  0  0  0  0  # atno 6908 bound_to 6896
  151.9029  135.0370  160.0558 H   0  0  0  0  0  0  0  0  0  0  0  0  # atno 6909 bound_to 6896
  144.8865  139.5620  143.5818 H   0  0  0  0  0  0  0  0  0  0  0  0  # atno 7974 bound_to 7965
  155.8006  140.0891  157.1959 H   0  0  0  0  0  0  0  0  0  0  0  0  # atno 8008 bound_to 7997
  154.3982  140.1473  156.3328 H   0  0  0  0  0  0  0  0  0  0  0  0  # atno 8009 bound_to 7997
  155.8467  140.3436  155.5669 H   0  0  0  0  0  0  0  0  0  0  0  0  # atno 8010 bound_to 7997
  139.5652  144.1774  152.1301 H   0  0  0  0  0  0  0  0  0  0  0  0  # atno 10167 bound_to 10162
  157.2764  130.7233  149.6532 H   0  0  0  0  0  0  0  0  0  0  0  0  # atno 10718 bound_to 10713
  154.7693  135.4881  153.9616 H   0  0  0  0  0  0  0  0  0  0  0  0  # atno 10763 bound_to 10752
  153.1347  135.6760  153.9129 H   0  0  0  0  0  0  0  0  0  0  0  0  # atno 10764 bound_to 10752
  153.8822  135.3131  155.3424 H   0  0  0  0  0  0  0  0  0  0  0  0  # atno 10765 bound_to 10752
  139.8810  134.9358  156.5617 H   0  0  0  0  0  0  0  0  0  0  0  0  # atno 11005 bound_to 11000
  146.3028  139.7481  142.9079 LP  0  0  0  0  0  0  0  0  0  0  0  0  # atno 17320 bound_to 7965
  145.3859  141.0365  143.3151 LP  0  0  0  0  0  0  0  0  0  0  0  0  # atno 17321 bound_to 7965
  140.1295  144.5301  150.6811 LP  0  0  0  0  0  0  0  0  0  0  0  0  # atno 17342 bound_to 10162
  140.6935  143.2389  151.5067 LP  0  0  0  0  0  0  0  0  0  0  0  0  # atno 17343 bound_to 10162
  155.9664  130.4352  150.5080 LP  0  0  0  0  0  0  0  0  0  0  0  0  # atno 17370 bound_to 10713
  157.3015  131.0646  151.2065 LP  0  0  0  0  0  0  0  0  0  0  0  0  # atno 17371 bound_to 10713
  140.8164  133.8388  155.8856 LP  0  0  0  0  0  0  0  0  0  0  0  0  # atno 17394 bound_to 11000
  140.9459  134.1841  157.4764 LP  0  0  0  0  0  0  0  0  0  0  0  0  # atno 17395 bound_to 11000

$$$$
