AV-unprocessed.smi:702|AV-procd|sdf|3423|dock5
  -GOLD-   22720 0403D 1   1.00000     0.00000
 Structure written by MMmdl.
 50 52  0  0  0  0  0  0  0  0  2 V2000
  145.7780  139.3937  154.6001 C   0  0  0  0  0  0  0  0  0  0  0  0
  146.9976  138.4541  154.6751 C   0  0  1  0  0  0  0  0  0  0  0  0
  146.8866  137.4636  153.5972 N   0  0  0  0  0  0  0  0  0  0  0  0
  145.8211  136.6985  153.3162 C   0  0  0  0  0  0  0  0  0  0  0  0
  144.7610  136.7438  153.9391 O   0  0  0  0  0  0  0  0  0  0  0  0
  146.0817  135.8697  152.2906 N   0  0  0  0  0  0  0  0  0  0  0  0
  145.2374  134.8818  151.7156 C   0  0  0  0  0  0  0  0  0  0  0  0
  145.7465  134.1401  150.6267 C   0  0  0  0  0  0  0  0  0  0  0  0
  144.9398  133.1591  150.0148 C   0  0  0  0  0  0  0  0  0  0  0  0
  143.6858  132.9429  150.4663 N   0  3  0  0  0  0  0  0  0  0  0  0
  143.1501  133.6363  151.4936 C   0  0  0  0  0  0  0  0  0  0  0  0
  143.9093  134.6298  152.1449 C   0  0  0  0  0  0  0  0  0  0  0  0
  148.3806  139.2090  154.6575 C   0  0  0  0  0  0  0  0  0  0  0  0
  149.5191  138.2509  154.5042 N   0  0  0  0  0  0  0  0  0  0  0  0
  149.4711  137.0641  155.3743 C   0  0  0  0  0  0  0  0  0  0  0  0
  150.6085  136.0746  155.0727 C   0  0  0  0  0  0  0  0  0  0  0  0
  151.8604  136.7330  155.2133 O   0  0  0  0  0  0  0  0  0  0  0  0
  151.9819  137.8495  154.3419 C   0  0  0  0  0  0  0  0  0  0  0  0
  150.8528  138.8574  154.6181 C   0  0  0  0  0  0  0  0  0  0  0  0
  148.3564  140.2975  153.5365 C   0  0  0  0  0  0  0  0  0  0  0  0
  148.2334  141.6604  154.2213 C   0  0  0  0  0  0  0  0  0  0  0  0
  148.9095  141.4631  155.5698 C   0  0  0  0  0  0  0  0  0  0  0  0
  148.5103  140.0435  155.9751 C   0  0  0  0  0  0  0  0  0  0  0  0
  145.7578  140.0939  155.4351 H   0  0  0  0  0  0  0  0  0  0  0  0
  144.8475  138.8263  154.6371 H   0  0  0  0  0  0  0  0  0  0  0  0
  145.7698  139.9768  153.6794 H   0  0  0  0  0  0  0  0  0  0  0  0
  146.9137  137.9078  155.6131 H   0  0  0  0  0  0  0  0  0  0  0  0
  147.7104  137.3424  153.0265 H   0  0  0  0  0  0  0  0  0  0  0  0
  147.0241  135.8982  151.9295 H   0  0  0  0  0  0  0  0  0  0  0  0
  146.7495  134.3141  150.2641 H   0  0  0  0  0  0  0  0  0  0  0  0
  145.2573  132.5468  149.1832 H   0  0  0  0  0  0  0  0  0  0  0  0
  142.1345  133.3815  151.7593 H   0  0  0  0  0  0  0  0  0  0  0  0
  143.4544  135.1854  152.9505 H   0  0  0  0  0  0  0  0  0  0  0  0
  149.5364  137.3499  156.4230 H   0  0  0  0  0  0  0  0  0  0  0  0
  148.5323  136.5268  155.2595 H   0  0  0  0  0  0  0  0  0  0  0  0
  150.5706  135.2323  155.7638 H   0  0  0  0  0  0  0  0  0  0  0  0
  150.5113  135.6675  154.0651 H   0  0  0  0  0  0  0  0  0  0  0  0
  152.9535  138.3185  154.4980 H   0  0  0  0  0  0  0  0  0  0  0  0
  151.9526  137.5144  153.3040 H   0  0  0  0  0  0  0  0  0  0  0  0
  150.9785  139.6705  153.9075 H   0  0  0  0  0  0  0  0  0  0  0  0
  150.9886  139.2838  155.6124 H   0  0  0  0  0  0  0  0  0  0  0  0
  149.2726  140.2995  152.9492 H   0  0  0  0  0  0  0  0  0  0  0  0
  147.5573  140.1448  152.8106 H   0  0  0  0  0  0  0  0  0  0  0  0
  148.6853  142.4638  153.6393 H   0  0  0  0  0  0  0  0  0  0  0  0
  147.1818  141.9086  154.3693 H   0  0  0  0  0  0  0  0  0  0  0  0
  149.9914  141.5326  155.4533 H   0  0  0  0  0  0  0  0  0  0  0  0
  148.6060  142.2101  156.3037 H   0  0  0  0  0  0  0  0  0  0  0  0
  147.5653  140.1164  156.5116 H   0  0  0  0  0  0  0  0  0  0  0  0
  149.1972  139.6109  156.7025 H   0  0  0  0  0  0  0  0  0  0  0  0
  143.1171  132.2294  150.0092 H   0  0  0  0  0  0  0  0  0  0  0  0
  1  2  1  0  0  0  0
  1 24  1  0  0  0  0
  1 25  1  0  0  0  0
  1 26  1  0  0  0  0
  2  3  1  0  0  0  0
  2 13  1  0  0  0  0
  2 27  1  0  0  0  0
  3  4  1  0  0  0  0
  3 28  1  0  0  0  0
  4  5  2  0  0  0  0
  4  6  1  0  0  0  0
  6  7  1  0  0  0  0
  6 29  1  0  0  0  0
  7 12  1  0  0  0  0
  7  8  2  0  0  0  0
  8  9  1  0  0  0  0
  8 30  1  0  0  0  0
  9 10  2  0  0  0  0
  9 31  1  0  0  0  0
 10 11  1  0  0  0  0
 10 50  1  0  0  0  0
 11 12  2  0  0  0  0
 11 32  1  0  0  0  0
 12 33  1  0  0  0  0
 13 23  1  0  0  0  0
 13 14  1  0  0  0  0
 13 20  1  0  0  0  0
 14 19  1  0  0  0  0
 14 15  1  0  0  0  0
 15 16  1  0  0  0  0
 15 34  1  0  0  0  0
 15 35  1  0  0  0  0
 16 17  1  0  0  0  0
 16 36  1  0  0  0  0
 16 37  1  0  0  0  0
 17 18  1  0  0  0  0
 18 19  1  0  0  0  0
 18 38  1  0  0  0  0
 18 39  1  0  0  0  0
 19 40  1  0  0  0  0
 19 41  1  0  0  0  0
 20 21  1  0  0  0  0
 20 42  1  0  0  0  0
 20 43  1  0  0  0  0
 21 22  1  0  0  0  0
 21 44  1  0  0  0  0
 21 45  1  0  0  0  0
 22 23  1  0  0  0  0
 22 46  1  0  0  0  0
 22 47  1  0  0  0  0
 23 48  1  0  0  0  0
 23 49  1  0  0  0  0
M  CHG  1  10   1
M  END
> <s_m_source_file>
AV-unprocessed.smi

> <i_m_source_file_index>
702

> <i_lp_mmshare_version>
43012

> <i_f3d_flags>
0

> <s_epik_input>
W0NIMl0xW0NIMl1PW0NIMl1bQ0gyXU4xQzIoW0NIMl1bQ0gyXVtDSDJdW0NIMl0yKVtDQEhdKFtDSDNdKVtOSF1DKD1PKVtOSF1jM1tjSF1bY0hdbltjSF1bY0hdMw==

> <s_epik_cmdline>
J2VwaWtfcHl0aG9uJywgJy1waCcsICc3LjAnLCAnLXRuJywgJzgnLCAnLW1hJywgJzIwMCcsICctbWV0YWxfYmluZGluZycsICctaW1hZScsICc8aW5maWxlLm1hZT4nLCAnLW9tYWUnLCAnPG91dGZpbGUubWFlPic=

> <r_epik_Ionization_Penalty>
1.54019

> <r_epik_Ionization_Penalty_Charging>
1.02845

> <r_epik_Ionization_Penalty_Neutral>
0.511739

> <r_epik_State_Penalty>
1.62583

> <r_epik_Charging_Adjusted_Penalty>
2.65428

> <i_epik_Tot_Q>
1

> <i_epik_Tot_abs_Q>
1

> <r_epik_Metal_State_Penalty>
1.71803

> <b_epik_Metal_Only>
0

> <s_lp_Force_Field>
OPLS_2005

> <r_lp_Energy>
72.2563

> <b_lp_Chiralities_Consistent>
1

> <s_lp_Variant>
AV-unprocessed.smi:702-8

> <Gold.Version>
5.8.1

> <Gold.Id.Protein>
6NUR|6NUR_protein|mol2

> <Gold.PLP.Fitness>
38.5097

> <Gold.PLP.PLP>
-30.2287

> <Gold.PLP.part.hbond>
-3.0000

> <Gold.PLP.part.metal>
0.0000

> <Gold.PLP.part.buried>
-1.8446

> <Gold.PLP.part.nonpolar>
-26.8285

> <Gold.PLP.part.repulsive>
0.3763

> <Gold.PLP.ligand.clash>
0.0000

> <Gold.PLP.ligand.torsion>
0.4206

> <Gold.PLP.Chemscore.Hbond>
3.0000

> <Gold.PLP.Chemscore.CHOScore>
0.0000

> <Gold.PLP.Chemscore.Metal>
0.0000

> <Gold.Chemscore.Hbonds>
donor molecule, donor type, donor heavy atom, donor atom, acceptor molecule, acceptor atom, score
      L1  H     3    28       P1  7948  1.00
      L1  H     6    29       P1  7948  1.00
      P1  H 10752 10764       L1    17  1.00

> <Gold.PLP.Chemscore.Internal.Correction>
0.1222

> <Gold.Rescore>
     Score         DG    S(hbond)    S(metal)    S(lipo)     H(rot)  DE(clash)    DE(int)     intcor
     15.17     -19.66       2.23        0.00      88.91       1.44       1.68       2.81       ----

> <Gold.Chemscore.Fitness>
15.1710

> <Gold.Chemscore.DG>
-19.6625

> <Gold.Chemscore.ZeroCoef>
-5.4800

> <Gold.Chemscore.Hbond>
2.2349

> <Gold.Chemscore.Metal>
0.0000

> <Gold.Chemscore.Lipo>
88.9134

> <Gold.Chemscore.Internal_Hbond>
0.0000

> <Gold.Chemscore.DEClash>
1.6783

> <Gold.Chemscore.DEInternal>
2.8132

> <Gold.Chemscore.Rot>
1.4394

> <Gold.Chemscore.Internal.Correction>
   9.000000E+99

> <Gold.Chemscore.Hbonds>
donor molecule, donor type, donor heavy atom, donor atom, acceptor molecule, acceptor atom, score
      L1  H     3    28       P1  7948  0.91
      L1  H     6    29       P1  7948  0.99
      P1  H 10752 10764       L1    17  0.33

> <Gold.Chemscore.Hbond.Weighted>
-7.4645

> <Gold.Chemscore.Metal.Weighted>
-0.0000

> <Gold.Chemscore.Lipo.Weighted>
-10.4029

> <Gold.Chemscore.Internal_Hbond.Weighted>
0.0000

> <Gold.Chemscore.DEClash.Weighted>
1.6783

> <Gold.Chemscore.DEInternal.Weighted>
2.8132

> <Gold.Chemscore.Rot.Weighted>
3.6848

> <Gold.Chemscore.Internal.Correction.Weighted>
   9.000000E+99

> <Gold.Protein.RotatedTorsions>
[ 6907 6896 6895 6894 ] final  -82.45 input  -60.11 | X-H torsion
[ 7974 7965 7964 7962 ] final    4.75 input  175.53 | X-H torsion
[ 8008 7997 7996 7995 ] final   24.38 input   59.86 | X-H torsion
[ 10167 10162 10161 10158 ] final -158.19 input  -65.29 | X-H torsion
[ 10718 10713 10712 10709 ] final   38.64 input   66.30 | X-H torsion
[ 10763 10752 10751 10750 ] final  -45.87 input  -60.55 | X-H torsion
[ 11005 11000 10999 10996 ] final   48.80 input  -57.11 | X-H torsion

> <Gold.Protein.ActiveResidues>
 VAL166  LYS551  ARG553  GLY616  TRP617  ASP618  TYR619  PRO620  LYS621  CYS622 
 ASP623  PHE694  ASN695  SER759  ASP760  ASP761  ALA762  ILE779  LEU786  VAL792 
 PHE793  MET794  SER795  GLU796  ALA797  LYS798  CYS799  TRP800  GLU811  SER814 

> <Gold.Protein.RotatedAtoms>
  150.6897  134.3664  159.4972 H   0  0  0  0  0  0  0  0  0  0  0  0  # atno 6907 bound_to 6896
  152.1485  134.9004  160.0558 H   0  0  0  0  0  0  0  0  0  0  0  0  # atno 6908 bound_to 6896
  152.0110  133.3827  159.4257 H   0  0  0  0  0  0  0  0  0  0  0  0  # atno 6909 bound_to 6896
  146.2443  140.0487  142.8376 H   0  0  0  0  0  0  0  0  0  0  0  0  # atno 7974 bound_to 7965
  154.9954  140.3119  155.4889 H   0  0  0  0  0  0  0  0  0  0  0  0  # atno 8008 bound_to 7997
  156.2933  140.2241  156.5002 H   0  0  0  0  0  0  0  0  0  0  0  0  # atno 8009 bound_to 7997
  154.7666  140.0455  157.1005 H   0  0  0  0  0  0  0  0  0  0  0  0  # atno 8010 bound_to 7997
  139.6711  143.9743  152.2284 H   0  0  0  0  0  0  0  0  0  0  0  0  # atno 10167 bound_to 10162
  157.3612  130.7650  149.7049 H   0  0  0  0  0  0  0  0  0  0  0  0  # atno 10718 bound_to 10713
  154.0356  135.6651  153.4785 H   0  0  0  0  0  0  0  0  0  0  0  0  # atno 10763 bound_to 10752
  153.0522  135.5077  154.7891 H   0  0  0  0  0  0  0  0  0  0  0  0  # atno 10764 bound_to 10752
  154.6850  135.3051  154.9525 H   0  0  0  0  0  0  0  0  0  0  0  0  # atno 10765 bound_to 10752
  140.1159  134.4893  155.8638 H   0  0  0  0  0  0  0  0  0  0  0  0  # atno 11005 bound_to 11000
  145.1004  140.9342  143.4716 LP  0  0  0  0  0  0  0  0  0  0  0  0  # atno 17320 bound_to 7965
  145.0679  139.3054  143.5847 LP  0  0  0  0  0  0  0  0  0  0  0  0  # atno 17321 bound_to 7965
  139.9507  144.6622  150.8174 LP  0  0  0  0  0  0  0  0  0  0  0  0  # atno 17342 bound_to 10162
  140.7618  143.3184  151.2679 LP  0  0  0  0  0  0  0  0  0  0  0  0  # atno 17343 bound_to 10162
  155.9738  130.4113  150.3975 LP  0  0  0  0  0  0  0  0  0  0  0  0  # atno 17370 bound_to 10713
  157.2053  131.0447  151.2628 LP  0  0  0  0  0  0  0  0  0  0  0  0  # atno 17371 bound_to 10713
  141.2141  133.6743  156.6795 LP  0  0  0  0  0  0  0  0  0  0  0  0  # atno 17394 bound_to 11000
  140.3029  134.8149  157.4113 LP  0  0  0  0  0  0  0  0  0  0  0  0  # atno 17395 bound_to 11000

$$$$
