AV-unprocessed.smi:149|AV-procd|sdf|1236|dock1
  -GOLD-   2262018443D 1   1.00000     0.00000
 Structure written by MMmdl.
 60 64  0  0  0  0  0  0  0  0  2 V2000
  146.1615  132.0499  150.2687 C   0  0  0  0  0  0  0  0  0  0  0  0
  145.2527  132.0922  151.5142 C   0  0  2  0  0  0  0  0  0  0  0  0
  144.8141  133.5354  151.8149 C   0  0  0  0  0  0  0  0  0  0  0  0
  145.6974  134.0168  152.8700 N   0  0  0  0  0  0  0  0  0  0  0  0
  146.0023  135.3352  152.9878 C   0  0  0  0  0  0  0  0  0  0  0  0
  145.4245  136.2183  152.1308 N   0  0  0  0  0  0  0  0  0  0  0  0
  145.7032  137.5225  152.2107 C   0  0  0  0  0  0  0  0  0  0  0  0
  146.5202  138.1499  153.0575 N   0  0  0  0  0  0  0  0  0  0  0  0
  147.1108  137.2725  153.9180 C   0  0  0  0  0  0  0  0  0  0  0  0
  146.9160  135.8612  153.9485 C   0  0  0  0  0  0  0  0  0  0  0  0
  147.7119  135.3023  154.9427 N   0  0  0  0  0  0  0  0  0  0  0  0
  148.3350  136.3205  155.4688 C   0  0  0  0  0  0  0  0  0  0  0  0
  148.0100  137.5462  154.9349 N   0  0  0  0  0  0  0  0  0  0  0  0
  148.5753  138.8135  155.2976 C   0  0  0  0  0  0  0  0  0  0  0  0
  149.7378  139.4147  154.5006 C   0  0  0  0  0  0  0  0  0  0  0  0
  150.3552  139.9780  155.8002 C   0  0  0  0  0  0  0  0  0  0  0  0
  151.8658  139.7349  155.9408 C   0  0  0  0  0  0  0  0  0  0  0  0
  152.2871  139.8481  157.2849 O   0  0  0  0  0  0  0  0  0  0  0  0
  150.1057  141.4766  156.0816 C   0  0  0  0  0  0  0  0  0  0  0  0
  148.8375  141.9239  155.6470 O   0  0  0  0  0  0  0  0  0  0  0  0
  149.4572  138.9627  156.5407 C   0  0  0  0  0  0  0  0  0  0  0  0
  146.6402  132.9755  153.2496 C   0  0  0  0  0  0  0  0  0  0  0  0
  145.9504  131.6746  152.8250 C   0  0  2  0  0  0  0  0  0  0  0  0
  146.8442  130.4874  152.7122 N   0  3  0  0  0  0  0  0  0  0  0  0
  147.5204  130.1203  153.9829 C   0  0  0  0  0  0  0  0  0  0  0  0
  148.4465  128.9094  153.7739 C   0  0  0  0  0  0  0  0  0  0  0  0
  147.7004  127.8163  153.2561 O   0  0  0  0  0  0  0  0  0  0  0  0
  147.1223  128.1222  151.9945 C   0  0  0  0  0  0  0  0  0  0  0  0
  146.1487  129.3018  152.1485 C   0  0  0  0  0  0  0  0  0  0  0  0
  147.0565  132.6583  150.4016 H   0  0  0  0  0  0  0  0  0  0  0  0
  145.6348  132.4301  149.3931 H   0  0  0  0  0  0  0  0  0  0  0  0
  146.4810  131.0348  150.0338 H   0  0  0  0  0  0  0  0  0  0  0  0
  144.3778  131.4692  151.3256 H   0  0  0  0  0  0  0  0  0  0  0  0
  144.8597  134.1615  150.9226 H   0  0  0  0  0  0  0  0  0  0  0  0
  143.7890  133.5530  152.1863 H   0  0  0  0  0  0  0  0  0  0  0  0
  145.1990  138.1542  151.4943 H   0  0  0  0  0  0  0  0  0  0  0  0
  149.0505  136.2030  156.2698 H   0  0  0  0  0  0  0  0  0  0  0  0
  147.7365  139.5092  155.3387 H   0  0  0  0  0  0  0  0  0  0  0  0
  150.3600  138.6494  154.0338 H   0  0  0  0  0  0  0  0  0  0  0  0
  149.4388  140.1673  153.7703 H   0  0  0  0  0  0  0  0  0  0  0  0
  152.1317  138.7357  155.5947 H   0  0  0  0  0  0  0  0  0  0  0  0
  152.4371  140.4344  155.3298 H   0  0  0  0  0  0  0  0  0  0  0  0
  151.6901  140.4221  157.7400 H   0  0  0  0  0  0  0  0  0  0  0  0
  150.1766  141.6910  157.1483 H   0  0  0  0  0  0  0  0  0  0  0  0
  150.8588  142.0925  155.5891 H   0  0  0  0  0  0  0  0  0  0  0  0
  148.7949  142.8610  155.7605 H   0  0  0  0  0  0  0  0  0  0  0  0
  148.9390  139.3620  157.4129 H   0  0  0  0  0  0  0  0  0  0  0  0
  149.9809  138.0381  156.7899 H   0  0  0  0  0  0  0  0  0  0  0  0
  147.5823  133.1169  152.7176 H   0  0  0  0  0  0  0  0  0  0  0  0
  146.8385  132.9979  154.3219 H   0  0  0  0  0  0  0  0  0  0  0  0
  145.1820  131.4518  153.5683 H   0  0  0  0  0  0  0  0  0  0  0  0
  148.1160  130.9528  154.3565 H   0  0  0  0  0  0  0  0  0  0  0  0
  146.7720  129.8928  154.7438 H   0  0  0  0  0  0  0  0  0  0  0  0
  149.2662  129.1579  153.0979 H   0  0  0  0  0  0  0  0  0  0  0  0
  148.8958  128.6119  154.7215 H   0  0  0  0  0  0  0  0  0  0  0  0
  147.9022  128.3506  151.2661 H   0  0  0  0  0  0  0  0  0  0  0  0
  146.5914  127.2435  151.6279 H   0  0  0  0  0  0  0  0  0  0  0  0
  145.3236  129.0166  152.8032 H   0  0  0  0  0  0  0  0  0  0  0  0
  145.7151  129.5373  151.1771 H   0  0  0  0  0  0  0  0  0  0  0  0
  147.5751  130.7379  152.0617 H   0  0  0  0  0  0  0  0  0  0  0  0
  1  2  1  0  0  0  0
  1 30  1  0  0  0  0
  1 31  1  0  0  0  0
  1 32  1  0  0  0  0
  2 23  1  0  0  0  0
  2  3  1  0  0  0  0
  2 33  1  0  0  0  0
  3  4  1  0  0  0  0
  3 34  1  0  0  0  0
  3 35  1  0  0  0  0
  4  5  1  0  0  0  0
  4 22  1  0  0  0  0
  5 10  1  0  0  0  0
  5  6  2  0  0  0  0
  6  7  1  0  0  0  0
  7  8  2  0  0  0  0
  7 36  1  0  0  0  0
  8  9  1  0  0  0  0
  9 13  1  0  0  0  0
  9 10  2  0  0  0  0
 10 11  1  0  0  0  0
 11 12  2  0  0  0  0
 12 13  1  0  0  0  0
 12 37  1  0  0  0  0
 13 14  1  0  0  0  0
 14 21  1  0  0  0  0
 14 15  1  0  0  0  0
 14 38  1  0  0  0  0
 15 16  1  0  0  0  0
 15 39  1  0  0  0  0
 15 40  1  0  0  0  0
 16 17  1  0  0  0  0
 16 19  1  0  0  0  0
 16 21  1  0  0  0  0
 17 18  1  0  0  0  0
 17 41  1  0  0  0  0
 17 42  1  0  0  0  0
 18 43  1  0  0  0  0
 19 20  1  0  0  0  0
 19 44  1  0  0  0  0
 19 45  1  0  0  0  0
 20 46  1  0  0  0  0
 21 47  1  0  0  0  0
 21 48  1  0  0  0  0
 22 23  1  0  0  0  0
 22 49  1  0  0  0  0
 22 50  1  0  0  0  0
 23 24  1  0  0  0  0
 23 51  1  0  0  0  0
 24 29  1  0  0  0  0
 24 25  1  0  0  0  0
 24 60  1  0  0  0  0
 25 26  1  0  0  0  0
 25 52  1  0  0  0  0
 25 53  1  0  0  0  0
 26 27  1  0  0  0  0
 26 54  1  0  0  0  0
 26 55  1  0  0  0  0
 27 28  1  0  0  0  0
 28 29  1  0  0  0  0
 28 56  1  0  0  0  0
 28 57  1  0  0  0  0
 29 58  1  0  0  0  0
 29 59  1  0  0  0  0
M  CHG  1  24   1
M  END
> <s_m_source_file>
AV-unprocessed.smi

> <i_m_source_file_index>
149

> <i_lp_mmshare_version>
43012

> <i_f3d_flags>
0

> <s_epik_input>
W0NIMl0xW0NIMl1PW0NIMl1bQ0gyXU4xW0NAQEhdMltDSDJdTihbQ0gyXVtDQEhdMltDSDNdKWMobltjSF1uMyljKGMzNCluW2NIXW40W0NIXShbQ0gyXTUpW0NIMl1DNShbQ0gyXVtPSF0pW0NIMl1bT0hd

> <s_epik_cmdline>
J2VwaWtfcHl0aG9uJywgJy1waCcsICc3LjAnLCAnLXRuJywgJzgnLCAnLW1hJywgJzIwMCcsICctbWV0YWxfYmluZGluZycsICctaW1hZScsICc8aW5maWxlLm1hZT4nLCAnLW9tYWUnLCAnPG91dGZpbGUubWFlPic=

> <r_lp_tautomer_probability>
1

> <r_epik_Ionization_Penalty>
0.404847

> <r_epik_Ionization_Penalty_Charging>
0.404623

> <r_epik_Ionization_Penalty_Neutral>
0.000224096

> <r_epik_State_Penalty>
0.238803

> <r_epik_Charging_Adjusted_Penalty>
0.643425

> <i_epik_Tot_Q>
1

> <i_epik_Tot_abs_Q>
1

> <r_epik_Metal_State_Penalty>
0.239083

> <b_epik_Metal_Only>
0

> <s_lp_Force_Field>
OPLS_2005

> <r_lp_Energy>
71.321

> <b_lp_Chiralities_Consistent>
1

> <s_lp_Variant>
AV-unprocessed.smi:149-3

> <Gold.Version>
5.8.1

> <Gold.Id.Protein>
6NUR|6NUR_protein|mol2

> <Gold.PLP.Fitness>
51.4684

> <Gold.PLP.PLP>
-37.5575

> <Gold.PLP.part.hbond>
-3.0000

> <Gold.PLP.part.metal>
0.0000

> <Gold.PLP.part.buried>
-3.0358

> <Gold.PLP.part.nonpolar>
-32.1753

> <Gold.PLP.part.repulsive>
0.5758

> <Gold.PLP.ligand.clash>
0.0000

> <Gold.PLP.ligand.torsion>
0.8996

> <Gold.PLP.Chemscore.Hbond>
3.0000

> <Gold.PLP.Chemscore.CHOScore>
1.9995

> <Gold.PLP.Chemscore.Metal>
0.0000

> <Gold.Chemscore.Hbonds>
donor molecule, donor type, donor heavy atom, donor atom, acceptor molecule, acceptor atom, score
      L1  H    20    46       P1  8028  1.00
      L1  H    24    60       P1 10747  0.41
      P1  H  7997  8009       L1    18  0.40
      L1  C     7    36       P1 10171  1.00
      L1  C     7    36       P1 10175  0.04

> <Gold.PLP.Chemscore.Internal.Correction>
0.7116

> <Gold.Rescore>
     Score         DG    S(hbond)    S(metal)    S(lipo)     H(rot)  DE(clash)    DE(int)     intcor
     15.74     -17.99       2.88        0.00      92.38       3.09       0.48       1.76       ----

> <Gold.Chemscore.Fitness>
15.7431

> <Gold.Chemscore.DG>
-17.9874

> <Gold.Chemscore.ZeroCoef>
-5.4800

> <Gold.Chemscore.Hbond>
2.8780

> <Gold.Chemscore.Metal>
0.0000

> <Gold.Chemscore.Lipo>
92.3793

> <Gold.Chemscore.Internal_Hbond>
0.0000

> <Gold.Chemscore.DEClash>
0.4840

> <Gold.Chemscore.DEInternal>
1.7603

> <Gold.Chemscore.Rot>
3.0912

> <Gold.Chemscore.Internal.Correction>
   9.000000E+99

> <Gold.Chemscore.Hbonds>
donor molecule, donor type, donor heavy atom, donor atom, acceptor molecule, acceptor atom, score
      L1  H    20    46       P1  8028  1.00
      L1  H    24    60       P1 10747  0.41
      P1  H  7997  8009       L1    18  0.05

> <Gold.Chemscore.Hbond.Weighted>
-9.6125

> <Gold.Chemscore.Metal.Weighted>
-0.0000

> <Gold.Chemscore.Lipo.Weighted>
-10.8084

> <Gold.Chemscore.Internal_Hbond.Weighted>
0.0000

> <Gold.Chemscore.DEClash.Weighted>
0.4840

> <Gold.Chemscore.DEInternal.Weighted>
1.7603

> <Gold.Chemscore.Rot.Weighted>
7.9135

> <Gold.Chemscore.Internal.Correction.Weighted>
   9.000000E+99

> <Gold.Protein.RotatedTorsions>
[ 6907 6896 6895 6894 ] final  172.99 input  -60.11 | X-H torsion
[ 7974 7965 7964 7962 ] final   98.36 input  175.53 | X-H torsion
[ 8008 7997 7996 7995 ] final  168.77 input   59.86 | X-H torsion
[ 10167 10162 10161 10158 ] final   23.24 input  -65.29 | X-H torsion
[ 10718 10713 10712 10709 ] final -114.47 input   66.30 | X-H torsion
[ 10763 10752 10751 10750 ] final  165.66 input  -60.55 | X-H torsion
[ 11005 11000 10999 10996 ] final   76.56 input  -57.11 | X-H torsion

> <Gold.Protein.ActiveResidues>
 VAL166  LYS551  ARG553  GLY616  TRP617  ASP618  TYR619  PRO620  LYS621  CYS622 
 ASP623  PHE694  ASN695  SER759  ASP760  ASP761  ALA762  ILE779  LEU786  VAL792 
 PHE793  MET794  SER795  GLU796  ALA797  LYS798  CYS799  TRP800  GLU811  SER814 

> <Gold.Protein.RotatedAtoms>
  151.7755  133.3345  159.3456 H   0  0  0  0  0  0  0  0  0  0  0  0  # atno 6907 bound_to 6896
  150.7445  134.5979  159.6031 H   0  0  0  0  0  0  0  0  0  0  0  0  # atno 6908 bound_to 6896
  152.3312  134.7258  160.0340 H   0  0  0  0  0  0  0  0  0  0  0  0  # atno 6909 bound_to 6896
  145.4132  139.2331  143.3237 H   0  0  0  0  0  0  0  0  0  0  0  0  # atno 7974 bound_to 7965
  156.1517  140.1581  156.8759 H   0  0  0  0  0  0  0  0  0  0  0  0  # atno 8008 bound_to 7997
  154.5077  140.0809  156.7964 H   0  0  0  0  0  0  0  0  0  0  0  0  # atno 8009 bound_to 7997
  155.3883  140.3408  155.4252 H   0  0  0  0  0  0  0  0  0  0  0  0  # atno 8010 bound_to 7997
  140.5284  143.9883  150.6453 H   0  0  0  0  0  0  0  0  0  0  0  0  # atno 10167 bound_to 10162
  156.0832  130.6028  150.8779 H   0  0  0  0  0  0  0  0  0  0  0  0  # atno 10718 bound_to 10713
  154.3274  135.2755  155.2489 H   0  0  0  0  0  0  0  0  0  0  0  0  # atno 10763 bound_to 10752
  154.4816  135.5857  153.6397 H   0  0  0  0  0  0  0  0  0  0  0  0  # atno 10764 bound_to 10752
  152.9870  135.6113  154.3463 H   0  0  0  0  0  0  0  0  0  0  0  0  # atno 10765 bound_to 10752
  139.9293  134.7611  156.1412 H   0  0  0  0  0  0  0  0  0  0  0  0  # atno 11005 bound_to 11000
  146.2694  140.4846  142.8820 LP  0  0  0  0  0  0  0  0  0  0  0  0  # atno 17320 bound_to 7965
  144.8295  140.6683  143.6300 LP  0  0  0  0  0  0  0  0  0  0  0  0  # atno 17321 bound_to 7965
  140.3251  143.3112  152.0744 LP  0  0  0  0  0  0  0  0  0  0  0  0  # atno 17342 bound_to 10162
  139.4946  144.6547  151.6598 LP  0  0  0  0  0  0  0  0  0  0  0  0  # atno 17343 bound_to 10162
  157.5957  131.0943  150.9045 LP  0  0  0  0  0  0  0  0  0  0  0  0  # atno 17370 bound_to 10713
  156.9213  130.5316  149.5279 LP  0  0  0  0  0  0  0  0  0  0  0  0  # atno 17371 bound_to 10713
  141.0871  133.6730  156.2459 LP  0  0  0  0  0  0  0  0  0  0  0  0  # atno 17394 bound_to 11000
  140.6248  134.5324  157.5552 LP  0  0  0  0  0  0  0  0  0  0  0  0  # atno 17395 bound_to 11000

$$$$
