AV-unprocessed.smi:1542|AV-procd|sdf|6203|dock1
  -GOLD-   22720 6373D 1   1.00000     0.00000
 Structure written by MMmdl.
 45 47  0  0  0  0  0  0  0  0  1 V2000
  151.0857  136.9703  159.6298 O   0  0  0  0  0  0  0  0  0  0  0  0
  152.1747  137.6557  160.2094 C   0  0  0  0  0  0  0  0  0  0  0  0
  153.0622  138.2521  159.1093 C   0  0  0  0  0  0  0  0  0  0  0  0
  152.2598  139.0823  158.0973 C   0  0  0  0  0  0  0  0  0  0  0  0
  152.1013  140.5118  158.5244 C   0  0  0  0  0  0  0  0  0  0  0  0
  152.4761  140.9129  159.7395 N   0  0  0  0  0  0  0  0  0  0  0  0
  152.2428  142.2722  159.6981 C   0  0  0  0  0  0  0  0  0  0  0  0
  152.4458  143.2665  160.6817 C   0  0  0  0  0  0  0  0  0  0  0  0
  152.1468  144.6164  160.4047 C   0  0  0  0  0  0  0  0  0  0  0  0
  151.6460  144.9904  159.1413 C   0  0  0  0  0  0  0  0  0  0  0  0
  151.4360  144.0149  158.1479 C   0  0  0  0  0  0  0  0  0  0  0  0
  151.7260  142.6660  158.4315 C   0  0  0  0  0  0  0  0  0  0  0  0
  151.6262  141.4832  157.7009 N   0  0  0  0  0  0  0  0  0  0  0  0
  151.1464  141.3547  156.3263 C   0  0  0  0  0  0  0  0  0  0  0  0
  149.6026  141.4284  156.1614 C   0  0  0  0  0  0  0  0  0  0  0  0
  149.1421  142.6059  156.7986 O   0  0  0  0  0  0  0  0  0  0  0  0
  149.1616  141.4935  154.6778 C   0  0  0  0  0  0  0  0  0  0  0  0
  147.6346  141.4219  154.4959 C   0  0  0  0  0  0  0  0  0  0  0  0
  147.0462  140.1830  155.1841 C   0  0  0  0  0  0  0  0  0  0  0  0
  147.4212  140.1540  156.6717 C   0  0  0  0  0  0  0  0  0  0  0  0
  148.9472  140.2167  156.8656 C   0  0  0  0  0  0  0  0  0  0  0  0
  150.2857  137.2990  160.0107 H   0  0  0  0  0  0  0  0  0  0  0  0
  151.7932  138.4393  160.8646 H   0  0  0  0  0  0  0  0  0  0  0  0
  152.7436  136.9601  160.8271 H   0  0  0  0  0  0  0  0  0  0  0  0
  153.8314  138.8782  159.5638 H   0  0  0  0  0  0  0  0  0  0  0  0
  153.5846  137.4499  158.5863 H   0  0  0  0  0  0  0  0  0  0  0  0
  152.7293  139.0257  157.1177 H   0  0  0  0  0  0  0  0  0  0  0  0
  151.2659  138.6498  157.9753 H   0  0  0  0  0  0  0  0  0  0  0  0
  152.8362  142.9902  161.6498 H   0  0  0  0  0  0  0  0  0  0  0  0
  152.3066  145.3684  161.1634 H   0  0  0  0  0  0  0  0  0  0  0  0
  151.4235  146.0270  158.9347 H   0  0  0  0  0  0  0  0  0  0  0  0
  151.0566  144.3029  157.1795 H   0  0  0  0  0  0  0  0  0  0  0  0
  151.6124  142.1453  155.7371 H   0  0  0  0  0  0  0  0  0  0  0  0
  151.5288  140.4237  155.9073 H   0  0  0  0  0  0  0  0  0  0  0  0
  149.3255  143.3413  156.2339 H   0  0  0  0  0  0  0  0  0  0  0  0
  149.5329  142.4033  154.2051 H   0  0  0  0  0  0  0  0  0  0  0  0
  149.6094  140.6601  154.1363 H   0  0  0  0  0  0  0  0  0  0  0  0
  147.1700  142.3217  154.9010 H   0  0  0  0  0  0  0  0  0  0  0  0
  147.3907  141.4046  153.4334 H   0  0  0  0  0  0  0  0  0  0  0  0
  145.9616  140.1749  155.0727 H   0  0  0  0  0  0  0  0  0  0  0  0
  147.4151  139.2809  154.6943 H   0  0  0  0  0  0  0  0  0  0  0  0
  146.9466  140.9906  157.1857 H   0  0  0  0  0  0  0  0  0  0  0  0
  147.0277  139.2486  157.1345 H   0  0  0  0  0  0  0  0  0  0  0  0
  149.3835  139.2969  156.4736 H   0  0  0  0  0  0  0  0  0  0  0  0
  149.1795  140.2285  157.9316 H   0  0  0  0  0  0  0  0  0  0  0  0
  1  2  1  0  0  0  0
  1 22  1  0  0  0  0
  2  3  1  0  0  0  0
  2 23  1  0  0  0  0
  2 24  1  0  0  0  0
  3  4  1  0  0  0  0
  3 25  1  0  0  0  0
  3 26  1  0  0  0  0
  4  5  1  0  0  0  0
  4 27  1  0  0  0  0
  4 28  1  0  0  0  0
  5 13  1  0  0  0  0
  5  6  2  0  0  0  0
  6  7  1  0  0  0  0
  7 12  2  0  0  0  0
  7  8  1  0  0  0  0
  8  9  2  0  0  0  0
  8 29  1  0  0  0  0
  9 10  1  0  0  0  0
  9 30  1  0  0  0  0
 10 11  2  0  0  0  0
 10 31  1  0  0  0  0
 11 12  1  0  0  0  0
 11 32  1  0  0  0  0
 12 13  1  0  0  0  0
 13 14  1  0  0  0  0
 14 15  1  0  0  0  0
 14 33  1  0  0  0  0
 14 34  1  0  0  0  0
 15 21  1  0  0  0  0
 15 16  1  0  0  0  0
 15 17  1  0  0  0  0
 16 35  1  0  0  0  0
 17 18  1  0  0  0  0
 17 36  1  0  0  0  0
 17 37  1  0  0  0  0
 18 19  1  0  0  0  0
 18 38  1  0  0  0  0
 18 39  1  0  0  0  0
 19 20  1  0  0  0  0
 19 40  1  0  0  0  0
 19 41  1  0  0  0  0
 20 21  1  0  0  0  0
 20 42  1  0  0  0  0
 20 43  1  0  0  0  0
 21 44  1  0  0  0  0
 21 45  1  0  0  0  0
M  END
> <s_m_source_file>
AV-unprocessed.smi

> <i_m_source_file_index>
1542

> <i_lp_mmshare_version>
43012

> <i_f3d_flags>
0

> <s_epik_input>
W09IXVtDSDJdW0NIMl1bQ0gyXWMobjEpbihjKGMxMilbY0hdW2NIXVtjSF1bY0hdMilbQ0gyXUMzKFtPSF0pW0NIMl1bQ0gyXVtDSDJdW0NIMl1bQ0gyXTM=

> <s_epik_cmdline>
J2VwaWtfcHl0aG9uJywgJy1waCcsICc3LjAnLCAnLXRuJywgJzgnLCAnLW1hJywgJzIwMCcsICctbWV0YWxfYmluZGluZycsICctaW1hZScsICc8aW5maWxlLm1hZT4nLCAnLW9tYWUnLCAnPG91dGZpbGUubWFlPic=

> <r_epik_Ionization_Penalty>
0.294093

> <r_epik_Ionization_Penalty_Charging>
0

> <r_epik_Ionization_Penalty_Neutral>
0.294093

> <r_epik_State_Penalty>
0.287281

> <r_epik_Charging_Adjusted_Penalty>
0.287281

> <i_epik_Tot_Q>
0

> <i_epik_Tot_abs_Q>
0

> <r_epik_Metal_State_Penalty>
0.000369578

> <b_epik_Metal_Only>
0

> <s_lp_Force_Field>
OPLS_2005

> <r_lp_Energy>
13.7601

> <b_lp_Chiralities_Consistent>
1

> <s_lp_Variant>
AV-unprocessed.smi:1542-1

> <Gold.Version>
5.8.1

> <Gold.Id.Protein>
6NUR|6NUR_protein|mol2

> <Gold.PLP.Fitness>
47.6997

> <Gold.PLP.PLP>
-42.3287

> <Gold.PLP.part.hbond>
-1.6904

> <Gold.PLP.part.metal>
0.0000

> <Gold.PLP.part.buried>
-6.6513

> <Gold.PLP.part.nonpolar>
-34.1621

> <Gold.PLP.part.repulsive>
0.0000

> <Gold.PLP.ligand.clash>
0.0000

> <Gold.PLP.ligand.torsion>
0.5194

> <Gold.PLP.Chemscore.Hbond>
2.0000

> <Gold.PLP.Chemscore.CHOScore>
0.0000

> <Gold.PLP.Chemscore.Metal>
0.0000

> <Gold.Chemscore.Hbonds>
donor molecule, donor type, donor heavy atom, donor atom, acceptor molecule, acceptor atom, score
      L1  H    16    35       P1  8028  0.98
      P1  H  6896  6907       L1     1  1.00

> <Gold.PLP.Chemscore.Internal.Correction>
0.4098

> <Gold.Rescore>
     Score         DG    S(hbond)    S(metal)    S(lipo)     H(rot)  DE(clash)    DE(int)     intcor
     18.08     -18.72       1.96        0.00     117.35       2.74       0.01       0.63       ----

> <Gold.Chemscore.Fitness>
18.0798

> <Gold.Chemscore.DG>
-18.7159

> <Gold.Chemscore.ZeroCoef>
-5.4800

> <Gold.Chemscore.Hbond>
1.9561

> <Gold.Chemscore.Metal>
0.0000

> <Gold.Chemscore.Lipo>
117.3459

> <Gold.Chemscore.Internal_Hbond>
0.0000

> <Gold.Chemscore.DEClash>
0.0108

> <Gold.Chemscore.DEInternal>
0.6253

> <Gold.Chemscore.Rot>
2.7449

> <Gold.Chemscore.Internal.Correction>
   9.000000E+99

> <Gold.Chemscore.Hbonds>
donor molecule, donor type, donor heavy atom, donor atom, acceptor molecule, acceptor atom, score
      L1  H    16    35       P1  8028  0.89
      P1  H  6896  6907       L1     1  0.41

> <Gold.Chemscore.Hbond.Weighted>
-6.5334

> <Gold.Chemscore.Metal.Weighted>
-0.0000

> <Gold.Chemscore.Lipo.Weighted>
-13.7295

> <Gold.Chemscore.Internal_Hbond.Weighted>
0.0000

> <Gold.Chemscore.DEClash.Weighted>
0.0108

> <Gold.Chemscore.DEInternal.Weighted>
0.6253

> <Gold.Chemscore.Rot.Weighted>
7.0269

> <Gold.Chemscore.Internal.Correction.Weighted>
   9.000000E+99

> <Gold.Protein.RotatedTorsions>
[ 6907 6896 6895 6894 ] final   -5.59 input  -60.11 | X-H torsion
[ 7974 7965 7964 7962 ] final  -87.38 input  175.53 | X-H torsion
[ 8008 7997 7996 7995 ] final -166.25 input   59.86 | X-H torsion
[ 10167 10162 10161 10158 ] final -126.53 input  -65.29 | X-H torsion
[ 10718 10713 10712 10709 ] final -127.65 input   66.30 | X-H torsion
[ 10763 10752 10751 10750 ] final -177.16 input  -60.55 | X-H torsion
[ 11005 11000 10999 10996 ] final  161.52 input  -57.11 | X-H torsion

> <Gold.Protein.ActiveResidues>
 VAL166  LYS551  ARG553  GLY616  TRP617  ASP618  TYR619  PRO620  LYS621  CYS622 
 ASP623  PHE694  ASN695  SER759  ASP760  ASP761  ALA762  ILE779  LEU786  VAL792 
 PHE793  MET794  SER795  GLU796  ALA797  LYS798  CYS799  TRP800  GLU811  SER814 

> <Gold.Protein.RotatedAtoms>
  151.4792  135.1051  159.9772 H   0  0  0  0  0  0  0  0  0  0  0  0  # atno 6907 bound_to 6896
  152.4786  133.8195  159.7056 H   0  0  0  0  0  0  0  0  0  0  0  0  # atno 6908 bound_to 6896
  150.8841  133.7270  159.2950 H   0  0  0  0  0  0  0  0  0  0  0  0  # atno 6909 bound_to 6896
  145.4673  140.9560  143.1936 H   0  0  0  0  0  0  0  0  0  0  0  0  # atno 7974 bound_to 7965
  155.8612  140.0978  157.1612 H   0  0  0  0  0  0  0  0  0  0  0  0  # atno 8008 bound_to 7997
  154.3990  140.1365  156.4026 H   0  0  0  0  0  0  0  0  0  0  0  0  # atno 8009 bound_to 7997
  155.7854  140.3457  155.5322 H   0  0  0  0  0  0  0  0  0  0  0  0  # atno 8010 bound_to 7997
  139.9705  143.5851  152.2414 H   0  0  0  0  0  0  0  0  0  0  0  0  # atno 10167 bound_to 10162
  156.1876  130.6774  151.0384 H   0  0  0  0  0  0  0  0  0  0  0  0  # atno 10718 bound_to 10713
  154.5635  135.2822  155.0896 H   0  0  0  0  0  0  0  0  0  0  0  0  # atno 10763 bound_to 10752
  154.2296  135.6376  153.5174 H   0  0  0  0  0  0  0  0  0  0  0  0  # atno 10764 bound_to 10752
  153.0036  135.5534  154.6237 H   0  0  0  0  0  0  0  0  0  0  0  0  # atno 10765 bound_to 10752
  140.2166  134.8227  157.3177 H   0  0  0  0  0  0  0  0  0  0  0  0  # atno 11005 bound_to 11000
  144.7966  139.6222  143.7090 LP  0  0  0  0  0  0  0  0  0  0  0  0  # atno 17320 bound_to 7965
  146.2417  139.6015  142.9487 LP  0  0  0  0  0  0  0  0  0  0  0  0  # atno 17321 bound_to 7965
  139.6485  144.7659  151.2195 LP  0  0  0  0  0  0  0  0  0  0  0  0  # atno 17342 bound_to 10162
  140.7523  143.6200  150.8523 LP  0  0  0  0  0  0  0  0  0  0  0  0  # atno 17343 bound_to 10162
  157.6909  131.0810  150.7110 LP  0  0  0  0  0  0  0  0  0  0  0  0  # atno 17370 bound_to 10713
  156.7167  130.4668  149.5533 LP  0  0  0  0  0  0  0  0  0  0  0  0  # atno 17371 bound_to 10713
  140.1894  134.4391  155.7725 LP  0  0  0  0  0  0  0  0  0  0  0  0  # atno 17394 bound_to 11000
  141.2224  133.7020  156.8001 LP  0  0  0  0  0  0  0  0  0  0  0  0  # atno 17395 bound_to 11000

$$$$
