AV-unprocessed.smi:3238|AV-procd|sdf|12376|dock5
  -GOLD-   2272018233D 1   1.00000     0.00000
 Structure written by MMmdl.
 37 39  0  0  0  0  0  0  0  0  1 V2000
  147.0709  138.7824  153.1655 C   0  0  0  0  0  0  0  0  0  0  0  0
  148.4391  138.3443  153.3956 N   0  0  0  0  0  0  0  0  0  0  0  0
  149.2986  138.9550  154.2240 C   0  0  0  0  0  0  0  0  0  0  0  0
  148.9998  139.9542  154.8806 O   0  0  0  0  0  0  0  0  0  0  0  0
  150.6958  138.3271  154.3189 C   0  0  0  0  0  0  0  0  0  0  0  0
  151.4841  138.8511  155.4797 C   0  0  0  0  0  0  0  0  0  0  0  0
  152.7652  138.5394  155.6404 N   0  0  0  0  0  0  0  0  0  0  0  0
  153.1208  139.2233  156.8117 O   0  0  0  0  0  0  0  0  0  0  0  0
  152.0005  139.8671  157.2189 C   0  0  0  0  0  0  0  0  0  0  0  0
  152.0616  140.7276  158.4382 C   0  0  0  0  0  0  0  0  0  0  0  0
  151.8548  142.2265  158.1396 C   0  0  1  0  0  0  0  0  0  0  0  0
  150.4846  142.7489  158.6292 C   0  0  0  0  0  0  0  0  0  0  0  0
  150.8624  143.9457  159.5209 C   0  0  2  0  0  0  0  0  0  0  0  0
  151.4007  145.0911  158.6442 C   0  0  0  0  0  0  0  0  0  0  0  0
  152.7809  144.5633  158.2091 C   0  0  0  0  0  0  0  0  0  0  0  0
  152.8378  143.1732  158.8712 C   0  0  1  0  0  0  0  0  0  0  0  0
  152.1304  143.4403  160.1964 C   0  0  0  0  0  0  0  0  0  0  0  0
  150.9543  139.6863  156.4168 N   0  0  0  0  0  0  0  0  0  0  0  0
  146.5925  138.1361  152.4299 H   0  0  0  0  0  0  0  0  0  0  0  0
  147.0482  139.8049  152.7863 H   0  0  0  0  0  0  0  0  0  0  0  0
  146.4893  138.7396  154.0873 H   0  0  0  0  0  0  0  0  0  0  0  0
  148.7524  137.5256  152.8945 H   0  0  0  0  0  0  0  0  0  0  0  0
  150.5943  137.2443  154.4029 H   0  0  0  0  0  0  0  0  0  0  0  0
  151.2470  138.5230  153.3980 H   0  0  0  0  0  0  0  0  0  0  0  0
  151.2912  140.3839  159.1294 H   0  0  0  0  0  0  0  0  0  0  0  0
  153.0162  140.5598  158.9376 H   0  0  0  0  0  0  0  0  0  0  0  0
  151.9343  142.3689  157.0606 H   0  0  0  0  0  0  0  0  0  0  0  0
  149.8323  143.0379  157.8043 H   0  0  0  0  0  0  0  0  0  0  0  0
  149.9578  141.9943  159.2154 H   0  0  0  0  0  0  0  0  0  0  0  0
  150.0677  144.2512  160.2019 H   0  0  0  0  0  0  0  0  0  0  0  0
  150.7483  145.3032  157.7962 H   0  0  0  0  0  0  0  0  0  0  0  0
  151.5065  146.0091  159.2238 H   0  0  0  0  0  0  0  0  0  0  0  0
  152.8874  144.5153  157.1248 H   0  0  0  0  0  0  0  0  0  0  0  0
  153.5740  145.2068  158.5923 H   0  0  0  0  0  0  0  0  0  0  0  0
  153.8534  142.7887  158.9621 H   0  0  0  0  0  0  0  0  0  0  0  0
  152.6260  144.1970  160.8073 H   0  0  0  0  0  0  0  0  0  0  0  0
  151.9733  142.5441  160.7984 H   0  0  0  0  0  0  0  0  0  0  0  0
  1  2  1  0  0  0  0
  1 19  1  0  0  0  0
  1 20  1  0  0  0  0
  1 21  1  0  0  0  0
  2  3  1  0  0  0  0
  2 22  1  0  0  0  0
  3  4  2  0  0  0  0
  3  5  1  0  0  0  0
  5  6  1  0  0  0  0
  5 23  1  0  0  0  0
  5 24  1  0  0  0  0
  6 18  1  0  0  0  0
  6  7  2  0  0  0  0
  7  8  1  0  0  0  0
  8  9  1  0  0  0  0
  9 10  1  0  0  0  0
  9 18  2  0  0  0  0
 10 11  1  0  0  0  0
 10 25  1  0  0  0  0
 10 26  1  0  0  0  0
 11 16  1  0  0  0  0
 11 12  1  0  0  0  0
 11 27  1  0  0  0  0
 12 13  1  0  0  0  0
 12 28  1  0  0  0  0
 12 29  1  0  0  0  0
 13 17  1  0  0  0  0
 13 14  1  0  0  0  0
 13 30  1  0  0  0  0
 14 15  1  0  0  0  0
 14 31  1  0  0  0  0
 14 32  1  0  0  0  0
 15 16  1  0  0  0  0
 15 33  1  0  0  0  0
 15 34  1  0  0  0  0
 16 17  1  0  0  0  0
 16 35  1  0  0  0  0
 17 36  1  0  0  0  0
 17 37  1  0  0  0  0
M  END
> <s_m_source_file>
AV-unprocessed.smi

> <i_m_source_file_index>
3238

> <i_lp_mmshare_version>
43012

> <i_f3d_flags>
0

> <s_epik_input>
W0NIM11bTkhdQyg9TylbQ0gyXWMxbm9jKG4xKVtDSDJdW0NASF0oW0NIMl1bQ0BIXTIzKVtDQEhdKFtDSDJdMylbQ0gyXVtDSDJdMg==

> <s_epik_cmdline>
J2VwaWtfcHl0aG9uJywgJy1waCcsICc3LjAnLCAnLXRuJywgJzgnLCAnLW1hJywgJzIwMCcsICctbWV0YWxfYmluZGluZycsICctaW1hZScsICc8aW5maWxlLm1hZT4nLCAnLW9tYWUnLCAnPG91dGZpbGUubWFlPic=

> <r_lp_tautomer_probability>
1

> <r_epik_Ionization_Penalty>
1.02915e-07

> <r_epik_Ionization_Penalty_Charging>
0

> <r_epik_Ionization_Penalty_Neutral>
1.02915e-07

> <r_epik_State_Penalty>
-0

> <r_epik_Charging_Adjusted_Penalty>
0

> <i_epik_Tot_Q>
0

> <i_epik_Tot_abs_Q>
0

> <r_epik_Metal_State_Penalty>
-0

> <b_epik_Metal_Only>
0

> <s_lp_Force_Field>
OPLS_2005

> <r_lp_Energy>
47.9986

> <b_lp_Chiralities_Consistent>
1

> <s_lp_Variant>
AV-unprocessed.smi:3238-2

> <Gold.Version>
5.8.1

> <Gold.Id.Protein>
6NUR|6NUR_protein|mol2

> <Gold.PLP.Fitness>
44.4735

> <Gold.PLP.PLP>
-40.2257

> <Gold.PLP.part.hbond>
-3.1832

> <Gold.PLP.part.metal>
0.0000

> <Gold.PLP.part.buried>
-4.8751

> <Gold.PLP.part.nonpolar>
-32.0975

> <Gold.PLP.part.repulsive>
0.1565

> <Gold.PLP.ligand.clash>
0.0000

> <Gold.PLP.ligand.torsion>
0.8836

> <Gold.PLP.Chemscore.Hbond>
2.0000

> <Gold.PLP.Chemscore.CHOScore>
0.0000

> <Gold.PLP.Chemscore.Metal>
0.0000

> <Gold.Chemscore.Hbonds>
donor molecule, donor type, donor heavy atom, donor atom, acceptor molecule, acceptor atom, score
      L1  H     2    22       P1  7948  1.00
      P1  H  7997  8009       L1     8  1.00

> <Gold.PLP.Chemscore.Internal.Correction>
0.0150

> <Gold.Rescore>
     Score         DG    S(hbond)    S(metal)    S(lipo)     H(rot)  DE(clash)    DE(int)     intcor
     16.45     -19.16       1.92        0.00     102.57       1.85       0.04       2.67       ----

> <Gold.Chemscore.Fitness>
16.4546

> <Gold.Chemscore.DG>
-19.1601

> <Gold.Chemscore.ZeroCoef>
-5.4800

> <Gold.Chemscore.Hbond>
1.9202

> <Gold.Chemscore.Metal>
0.0000

> <Gold.Chemscore.Lipo>
102.5690

> <Gold.Chemscore.Internal_Hbond>
0.0000

> <Gold.Chemscore.DEClash>
0.0362

> <Gold.Chemscore.DEInternal>
2.6693

> <Gold.Chemscore.Rot>
1.8492

> <Gold.Chemscore.Internal.Correction>
   9.000000E+99

> <Gold.Chemscore.Hbonds>
donor molecule, donor type, donor heavy atom, donor atom, acceptor molecule, acceptor atom, score
      L1  H     2    22       P1  7948  1.00
      P1  H  7997  8009       L1     8  0.82

> <Gold.Chemscore.Hbond.Weighted>
-6.4135

> <Gold.Chemscore.Metal.Weighted>
-0.0000

> <Gold.Chemscore.Lipo.Weighted>
-12.0006

> <Gold.Chemscore.Internal_Hbond.Weighted>
0.0000

> <Gold.Chemscore.DEClash.Weighted>
0.0362

> <Gold.Chemscore.DEInternal.Weighted>
2.6693

> <Gold.Chemscore.Rot.Weighted>
4.7340

> <Gold.Chemscore.Internal.Correction.Weighted>
   9.000000E+99

> <Gold.Protein.RotatedTorsions>
[ 6907 6896 6895 6894 ] final   42.98 input  -60.11 | X-H torsion
[ 7974 7965 7964 7962 ] final -167.35 input  175.53 | X-H torsion
[ 8008 7997 7996 7995 ] final  172.70 input   59.86 | X-H torsion
[ 10167 10162 10161 10158 ] final   78.99 input  -65.29 | X-H torsion
[ 10718 10713 10712 10709 ] final  -64.42 input   66.30 | X-H torsion
[ 10763 10752 10751 10750 ] final   86.53 input  -60.55 | X-H torsion
[ 11005 11000 10999 10996 ] final   16.92 input  -57.11 | X-H torsion

> <Gold.Protein.ActiveResidues>
 VAL166  LYS551  ARG553  GLY616  TRP617  ASP618  TYR619  PRO620  LYS621  CYS622 
 ASP623  PHE694  ASN695  SER759  ASP760  ASP761  ALA762  ILE779  LEU786  VAL792 
 PHE793  MET794  SER795  GLU796  ALA797  LYS798  CYS799  TRP800  GLU811  SER814 

> <Gold.Protein.RotatedAtoms>
  152.2146  134.8470  160.0493 H   0  0  0  0  0  0  0  0  0  0  0  0  # atno 6907 bound_to 6896
  151.9276  133.3597  159.3927 H   0  0  0  0  0  0  0  0  0  0  0  0  # atno 6908 bound_to 6896
  150.6984  134.4495  159.5374 H   0  0  0  0  0  0  0  0  0  0  0  0  # atno 6909 bound_to 6896
  144.7225  140.2531  143.6275 H   0  0  0  0  0  0  0  0  0  0  0  0  # atno 7974 bound_to 7965
  156.1149  140.1479  156.9287 H   0  0  0  0  0  0  0  0  0  0  0  0  # atno 8008 bound_to 7997
  154.4793  140.0884  156.7381 H   0  0  0  0  0  0  0  0  0  0  0  0  # atno 8009 bound_to 7997
  155.4532  140.3435  155.4305 H   0  0  0  0  0  0  0  0  0  0  0  0  # atno 8010 bound_to 7997
  139.9650  144.5934  150.8037 H   0  0  0  0  0  0  0  0  0  0  0  0  # atno 10167 bound_to 10162
  156.0730  130.4233  150.1417 H   0  0  0  0  0  0  0  0  0  0  0  0  # atno 10718 bound_to 10713
  153.1580  135.4577  154.9731 H   0  0  0  0  0  0  0  0  0  0  0  0  # atno 10763 bound_to 10752
  154.7876  135.3209  154.7854 H   0  0  0  0  0  0  0  0  0  0  0  0  # atno 10764 bound_to 10752
  153.8348  135.6935  153.4864 H   0  0  0  0  0  0  0  0  0  0  0  0  # atno 10765 bound_to 10752
  140.4417  134.1315  155.7691 H   0  0  0  0  0  0  0  0  0  0  0  0  # atno 11005 bound_to 11000
  145.8208  139.2043  143.1939 LP  0  0  0  0  0  0  0  0  0  0  0  0  # atno 17320 bound_to 7965
  146.0515  140.8064  142.9779 LP  0  0  0  0  0  0  0  0  0  0  0  0  # atno 17321 bound_to 7965
  140.7541  143.3020  151.3057 LP  0  0  0  0  0  0  0  0  0  0  0  0  # atno 17342 bound_to 10162
  139.6524  144.0337  152.2636 LP  0  0  0  0  0  0  0  0  0  0  0  0  # atno 17343 bound_to 10162
  156.9464  130.9761  151.3506 LP  0  0  0  0  0  0  0  0  0  0  0  0  # atno 17370 bound_to 10713
  157.5811  130.8377  149.8524 LP  0  0  0  0  0  0  0  0  0  0  0  0  # atno 17371 bound_to 10713
  141.1702  133.8623  157.1592 LP  0  0  0  0  0  0  0  0  0  0  0  0  # atno 17394 bound_to 11000
  140.0065  135.0006  157.0304 LP  0  0  0  0  0  0  0  0  0  0  0  0  # atno 17395 bound_to 11000

$$$$
