AV-unprocessed.smi:1644|AV-procd|sdf|6594|dock4
  -GOLD-   22720 7293D 1   1.00000     0.00000
 Structure written by MMmdl.
 48 50  0  0  0  0  0  0  0  0  2 V2000
  156.0210  144.6639  167.9900 C   0  0  0  0  0  0  0  0  0  0  0  0
  155.2940  143.5259  167.2651 C   0  0  0  0  0  0  0  0  0  0  0  0
  155.8151  142.1426  167.6821 C   0  0  0  0  0  0  0  0  0  0  0  0
  155.3088  140.9990  166.7808 C   0  0  2  0  0  0  0  0  0  0  0  0
  155.7164  139.7036  167.2835 N   0  5  0  0  0  0  0  0  0  0  0  0
  156.4090  139.0618  166.3138 C   0  0  0  0  0  0  0  0  0  0  0  0
  156.8753  137.9250  166.3761 O   0  0  0  0  0  0  0  0  0  0  0  0
  156.5357  139.8319  165.2158 N   0  0  0  0  0  0  0  0  0  0  0  0
  157.1596  139.4112  163.9543 C   0  0  0  0  0  0  0  0  0  0  0  0
  156.4873  139.9766  162.6826 C   0  0  1  0  0  0  0  0  0  0  0  0
  157.5116  140.1813  161.7314 O   0  0  0  0  0  0  0  0  0  0  0  0
  155.4259  139.0604  162.0349 C   0  0  0  0  0  0  0  0  0  0  0  0
  154.6898  139.6876  160.9502 N   0  0  0  0  0  0  0  0  0  0  0  0
  154.4961  139.1943  159.7108 C   0  0  0  0  0  0  0  0  0  0  0  0
  153.7323  139.9009  158.8835 N   0  0  0  0  0  0  0  0  0  0  0  0
  153.3829  140.9766  159.6799 C   0  0  0  0  0  0  0  0  0  0  0  0
  152.5734  142.0989  159.3969 C   0  0  0  0  0  0  0  0  0  0  0  0
  152.3571  143.0997  160.3704 C   0  0  0  0  0  0  0  0  0  0  0  0
  151.4973  144.3000  160.0165 C   0  0  0  0  0  0  0  0  0  0  0  0
  152.9445  142.9793  161.6552 C   0  0  0  0  0  0  0  0  0  0  0  0
  152.7374  144.0480  162.7130 C   0  0  0  0  0  0  0  0  0  0  0  0
  153.7430  141.8572  161.9592 C   0  0  0  0  0  0  0  0  0  0  0  0
  153.9641  140.8742  160.9781 C   0  0  0  0  0  0  0  0  0  0  0  0
  155.9390  141.0143  165.4026 C   0  0  0  0  0  0  0  0  0  0  0  0
  155.8737  141.9596  164.6156 O   0  0  0  0  0  0  0  0  0  0  0  0
  155.6311  145.6334  167.6800 H   0  0  0  0  0  0  0  0  0  0  0  0
  157.0893  144.6488  167.7732 H   0  0  0  0  0  0  0  0  0  0  0  0
  155.8968  144.5837  169.0703 H   0  0  0  0  0  0  0  0  0  0  0  0
  154.2255  143.5945  167.4719 H   0  0  0  0  0  0  0  0  0  0  0  0
  155.4094  143.6516  166.1881 H   0  0  0  0  0  0  0  0  0  0  0  0
  156.9059  142.1655  167.6706 H   0  0  0  0  0  0  0  0  0  0  0  0
  155.5270  141.9508  168.7140 H   0  0  0  0  0  0  0  0  0  0  0  0
  154.2281  141.0763  166.6548 H   0  0  0  0  0  0  0  0  0  0  0  0
  158.2030  139.7310  163.9831 H   0  0  0  0  0  0  0  0  0  0  0  0
  157.1971  138.3222  163.8898 H   0  0  0  0  0  0  0  0  0  0  0  0
  156.0645  140.9605  162.8843 H   0  0  0  0  0  0  0  0  0  0  0  0
  157.2213  140.8375  161.1166 H   0  0  0  0  0  0  0  0  0  0  0  0
  155.9087  138.1794  161.6094 H   0  0  0  0  0  0  0  0  0  0  0  0
  154.7275  138.6929  162.7873 H   0  0  0  0  0  0  0  0  0  0  0  0
  154.9310  138.2556  159.4005 H   0  0  0  0  0  0  0  0  0  0  0  0
  152.1297  142.1905  158.4168 H   0  0  0  0  0  0  0  0  0  0  0  0
  150.6146  144.3386  160.6549 H   0  0  0  0  0  0  0  0  0  0  0  0
  151.1614  144.2568  158.9801 H   0  0  0  0  0  0  0  0  0  0  0  0
  152.0597  145.2249  160.1456 H   0  0  0  0  0  0  0  0  0  0  0  0
  153.2493  143.7926  163.6412 H   0  0  0  0  0  0  0  0  0  0  0  0
  151.6770  144.1662  162.9362 H   0  0  0  0  0  0  0  0  0  0  0  0
  153.1297  145.0050  162.3680 H   0  0  0  0  0  0  0  0  0  0  0  0
  154.2002  141.7583  162.9324 H   0  0  0  0  0  0  0  0  0  0  0  0
  1  2  1  0  0  0  0
  1 26  1  0  0  0  0
  1 27  1  0  0  0  0
  1 28  1  0  0  0  0
  2  3  1  0  0  0  0
  2 29  1  0  0  0  0
  2 30  1  0  0  0  0
  3  4  1  0  0  0  0
  3 31  1  0  0  0  0
  3 32  1  0  0  0  0
  4 24  1  0  0  0  0
  4  5  1  0  0  0  0
  4 33  1  0  0  0  0
  5  6  1  0  0  0  0
  6  7  2  0  0  0  0
  6  8  1  0  0  0  0
  8  9  1  0  0  0  0
  8 24  1  0  0  0  0
  9 10  1  0  0  0  0
  9 34  1  0  0  0  0
  9 35  1  0  0  0  0
 10 11  1  0  0  0  0
 10 12  1  0  0  0  0
 10 36  1  0  0  0  0
 11 37  1  0  0  0  0
 12 13  1  0  0  0  0
 12 38  1  0  0  0  0
 12 39  1  0  0  0  0
 13 23  1  0  0  0  0
 13 14  1  0  0  0  0
 14 15  2  0  0  0  0
 14 40  1  0  0  0  0
 15 16  1  0  0  0  0
 16 23  2  0  0  0  0
 16 17  1  0  0  0  0
 17 18  2  0  0  0  0
 17 41  1  0  0  0  0
 18 19  1  0  0  0  0
 18 20  1  0  0  0  0
 19 42  1  0  0  0  0
 19 43  1  0  0  0  0
 19 44  1  0  0  0  0
 20 21  1  0  0  0  0
 20 22  2  0  0  0  0
 21 45  1  0  0  0  0
 21 46  1  0  0  0  0
 21 47  1  0  0  0  0
 22 23  1  0  0  0  0
 22 48  1  0  0  0  0
 24 25  2  0  0  0  0
M  CHG  1   5  -1
M  END
> <s_m_source_file>
AV-unprocessed.smi

> <i_m_source_file_index>
1644

> <i_lp_mmshare_version>
43012

> <i_f3d_flags>
0

> <s_epik_input>
W0NIM11bQ0gyXVtDSDJdW0NAQEhdMVtOSF1DKD1PKU4oQzE9TylbQ0gyXVtDQEhdKFtPSF0pW0NIMl1uKFtjSF1uMiljKGMyMylbY0hdYyhbQ0gzXSljKFtjSF0zKVtDSDNd

> <s_epik_cmdline>
J2VwaWtfcHl0aG9uJywgJy1waCcsICc3LjAnLCAnLXRuJywgJzgnLCAnLW1hJywgJzIwMCcsICctbWV0YWxfYmluZGluZycsICctaW1hZScsICc8aW5maWxlLm1hZT4nLCAnLW9tYWUnLCAnPG91dGZpbGUubWFlPic=

> <r_lp_tautomer_probability>
1

> <r_epik_Ionization_Penalty>
5.95212

> <r_epik_Ionization_Penalty_Charging>
5.84419

> <r_epik_Ionization_Penalty_Neutral>
0.107924

> <r_epik_State_Penalty>
5.94088

> <r_epik_Charging_Adjusted_Penalty>
11.7851

> <i_epik_Tot_Q>
-1

> <i_epik_Tot_abs_Q>
1

> <r_epik_Metal_State_Penalty>
1.99095

> <b_epik_Metal_Only>
1

> <s_lp_Force_Field>
OPLS_2005

> <r_lp_Energy>
16.2411

> <b_lp_Chiralities_Consistent>
1

> <s_lp_Variant>
AV-unprocessed.smi:1644-11

> <Gold.Version>
5.8.1

> <Gold.Id.Protein>
6NUR|6NUR_protein|mol2

> <Gold.PLP.Fitness>
50.9889

> <Gold.PLP.PLP>
-49.6714

> <Gold.PLP.part.hbond>
-4.9150

> <Gold.PLP.part.metal>
0.0000

> <Gold.PLP.part.buried>
-4.4997

> <Gold.PLP.part.nonpolar>
-39.6817

> <Gold.PLP.part.repulsive>
0.2077

> <Gold.PLP.ligand.clash>
0.0000

> <Gold.PLP.ligand.torsion>
0.9560

> <Gold.PLP.Chemscore.Hbond>
1.0000

> <Gold.PLP.Chemscore.CHOScore>
0.0000

> <Gold.PLP.Chemscore.Metal>
0.0000

> <Gold.Chemscore.Hbonds>
donor molecule, donor type, donor heavy atom, donor atom, acceptor molecule, acceptor atom, score
      P1  H  7997  8009       L1    15  0.91

> <Gold.PLP.Chemscore.Internal.Correction>
0.2296

> <Gold.Rescore>
     Score         DG    S(hbond)    S(metal)    S(lipo)     H(rot)  DE(clash)    DE(int)     intcor
     11.20     -16.21       0.87        0.00     124.87       2.65       2.86       2.16       ----

> <Gold.Chemscore.Fitness>
11.1976

> <Gold.Chemscore.DG>
-16.2149

> <Gold.Chemscore.ZeroCoef>
-5.4800

> <Gold.Chemscore.Hbond>
0.8700

> <Gold.Chemscore.Metal>
0.0000

> <Gold.Chemscore.Lipo>
124.8673

> <Gold.Chemscore.Internal_Hbond>
0.0000

> <Gold.Chemscore.DEClash>
2.8592

> <Gold.Chemscore.DEInternal>
2.1581

> <Gold.Chemscore.Rot>
2.6486

> <Gold.Chemscore.Internal.Correction>
   9.000000E+99

> <Gold.Chemscore.Hbonds>
donor molecule, donor type, donor heavy atom, donor atom, acceptor molecule, acceptor atom, score
      P1  H  7997  8009       L1    15  0.18

> <Gold.Chemscore.Hbond.Weighted>
-2.9059

> <Gold.Chemscore.Metal.Weighted>
-0.0000

> <Gold.Chemscore.Lipo.Weighted>
-14.6095

> <Gold.Chemscore.Internal_Hbond.Weighted>
0.0000

> <Gold.Chemscore.DEClash.Weighted>
2.8592

> <Gold.Chemscore.DEInternal.Weighted>
2.1581

> <Gold.Chemscore.Rot.Weighted>
6.7804

> <Gold.Chemscore.Internal.Correction.Weighted>
   9.000000E+99

> <Gold.Protein.RotatedTorsions>
[ 6907 6896 6895 6894 ] final  173.72 input  -60.11 | X-H torsion
[ 7974 7965 7964 7962 ] final -129.66 input  175.53 | X-H torsion
[ 8008 7997 7996 7995 ] final  125.02 input   59.86 | X-H torsion
[ 10167 10162 10161 10158 ] final  172.87 input  -65.29 | X-H torsion
[ 10718 10713 10712 10709 ] final  -56.32 input   66.30 | X-H torsion
[ 10763 10752 10751 10750 ] final -164.68 input  -60.55 | X-H torsion
[ 11005 11000 10999 10996 ] final -165.59 input  -57.11 | X-H torsion

> <Gold.Protein.ActiveResidues>
 VAL166  LYS551  ARG553  GLY616  TRP617  ASP618  TYR619  PRO620  LYS621  CYS622 
 ASP623  PHE694  ASN695  SER759  ASP760  ASP761  ALA762  ILE779  LEU786  VAL792 
 PHE793  MET794  SER795  GLU796  ALA797  LYS798  CYS799  TRP800  GLU811  SER814 

> <Gold.Protein.RotatedAtoms>
  151.7639  133.3336  159.3425 H   0  0  0  0  0  0  0  0  0  0  0  0  # atno 6907 bound_to 6896
  150.7487  134.6081  159.6081 H   0  0  0  0  0  0  0  0  0  0  0  0  # atno 6908 bound_to 6896
  152.3387  134.7165  160.0321 H   0  0  0  0  0  0  0  0  0  0  0  0  # atno 6909 bound_to 6896
  144.9550  140.7386  143.4764 H   0  0  0  0  0  0  0  0  0  0  0  0  # atno 7974 bound_to 7965
  156.2820  140.2726  156.1882 H   0  0  0  0  0  0  0  0  0  0  0  0  # atno 8008 bound_to 7997
  155.0486  140.0386  157.2553 H   0  0  0  0  0  0  0  0  0  0  0  0  # atno 8009 bound_to 7997
  154.7214  140.2688  155.6543 H   0  0  0  0  0  0  0  0  0  0  0  0  # atno 8010 bound_to 7997
  139.5090  144.3325  152.0097 H   0  0  0  0  0  0  0  0  0  0  0  0  # atno 10167 bound_to 10162
  156.1298  130.4160  150.0289 H   0  0  0  0  0  0  0  0  0  0  0  0  # atno 10718 bound_to 10713
  154.7005  135.2987  154.9347 H   0  0  0  0  0  0  0  0  0  0  0  0  # atno 10763 bound_to 10752
  154.0281  135.6673  153.4782 H   0  0  0  0  0  0  0  0  0  0  0  0  # atno 10764 bound_to 10752
  153.0678  135.5078  154.8147 H   0  0  0  0  0  0  0  0  0  0  0  0  # atno 10765 bound_to 10752
  140.5740  134.5209  157.5167 H   0  0  0  0  0  0  0  0  0  0  0  0  # atno 11005 bound_to 11000
  145.2786  139.1927  143.4803 LP  0  0  0  0  0  0  0  0  0  0  0  0  # atno 17320 bound_to 7965
  146.3334  140.2744  142.8607 LP  0  0  0  0  0  0  0  0  0  0  0  0  # atno 17321 bound_to 7965
  140.2764  144.3907  150.6133 LP  0  0  0  0  0  0  0  0  0  0  0  0  # atno 17342 bound_to 10162
  140.6050  143.2167  151.6998 LP  0  0  0  0  0  0  0  0  0  0  0  0  # atno 17343 bound_to 10162
  156.8204  130.9357  151.3641 LP  0  0  0  0  0  0  0  0  0  0  0  0  # atno 17370 bound_to 10713
  157.6477  130.8858  149.9571 LP  0  0  0  0  0  0  0  0  0  0  0  0  # atno 17371 bound_to 10713
  139.9348  134.7895  156.0832 LP  0  0  0  0  0  0  0  0  0  0  0  0  # atno 17394 bound_to 11000
  141.1038  133.6667  156.2816 LP  0  0  0  0  0  0  0  0  0  0  0  0  # atno 17395 bound_to 11000

$$$$
