AV-unprocessed.smi:3119|AV-procd|sdf|11890|dock7
  -GOLD-   2272017283D 1   1.00000     0.00000
 Structure written by MMmdl.
 31 32  0  0  0  0  0  0  0  0  1 V2000
  150.7461  139.7296  154.4237 O   0  0  0  0  0  0  0  0  0  0  0  0
  149.9178  140.4610  154.9679 C   0  0  0  0  0  0  0  0  0  0  0  0
  149.8908  140.6818  156.2908 N   0  0  0  0  0  0  0  0  0  0  0  0
  150.8195  140.1017  157.2544 C   0  0  0  0  0  0  0  0  0  0  0  0
  150.7939  140.8567  158.5940 C   0  0  0  0  0  0  0  0  0  0  0  0
  151.4911  142.2014  158.5086 C   0  0  0  0  0  0  0  0  0  0  0  0
  152.5408  142.5278  159.3939 C   0  0  0  0  0  0  0  0  0  0  0  0
  153.1495  143.7923  159.2748 C   0  0  0  0  0  0  0  0  0  0  0  0
  152.6875  144.6771  158.2815 C   0  0  0  0  0  0  0  0  0  0  0  0
  151.6320  144.2566  157.4480 C   0  0  0  0  0  0  0  0  0  0  0  0
  151.0408  143.0472  157.5544 N   0  0  0  0  0  0  0  0  0  0  0  0
  148.8428  141.1802  154.1423 C   0  0  0  0  0  0  0  0  0  0  0  0
  147.8229  141.9731  154.9781 C   0  0  0  0  0  0  0  0  0  0  0  0
  146.7122  141.4002  154.0927 C   0  0  0  0  0  0  0  0  0  0  0  0
  147.6782  140.2847  153.6829 C   0  0  0  0  0  0  0  0  0  0  0  0
  149.1773  141.2967  156.6553 H   0  0  0  0  0  0  0  0  0  0  0  0
  150.5892  139.0454  157.4042 H   0  0  0  0  0  0  0  0  0  0  0  0
  151.8213  140.1421  156.8261 H   0  0  0  0  0  0  0  0  0  0  0  0
  149.7630  141.0061  158.9175 H   0  0  0  0  0  0  0  0  0  0  0  0
  151.2754  140.2633  159.3726 H   0  0  0  0  0  0  0  0  0  0  0  0
  152.8723  141.8286  160.1476 H   0  0  0  0  0  0  0  0  0  0  0  0
  153.9558  144.0786  159.9341 H   0  0  0  0  0  0  0  0  0  0  0  0
  153.1309  145.6545  158.1606 H   0  0  0  0  0  0  0  0  0  0  0  0
  151.2519  144.9091  156.6756 H   0  0  0  0  0  0  0  0  0  0  0  0
  149.2480  141.7742  153.3209 H   0  0  0  0  0  0  0  0  0  0  0  0
  147.7430  141.6480  156.0171 H   0  0  0  0  0  0  0  0  0  0  0  0
  147.9301  143.0560  154.9090 H   0  0  0  0  0  0  0  0  0  0  0  0
  145.8287  141.0604  154.6337 H   0  0  0  0  0  0  0  0  0  0  0  0
  146.4519  142.0586  153.2627 H   0  0  0  0  0  0  0  0  0  0  0  0
  147.6735  140.0661  152.6149 H   0  0  0  0  0  0  0  0  0  0  0  0
  147.5461  139.3768  154.2742 H   0  0  0  0  0  0  0  0  0  0  0  0
  1  2  2  0  0  0  0
  2  3  1  0  0  0  0
  2 12  1  0  0  0  0
  3  4  1  0  0  0  0
  3 16  1  0  0  0  0
  4  5  1  0  0  0  0
  4 17  1  0  0  0  0
  4 18  1  0  0  0  0
  5  6  1  0  0  0  0
  5 19  1  0  0  0  0
  5 20  1  0  0  0  0
  6 11  1  0  0  0  0
  6  7  2  0  0  0  0
  7  8  1  0  0  0  0
  7 21  1  0  0  0  0
  8  9  2  0  0  0  0
  8 22  1  0  0  0  0
  9 10  1  0  0  0  0
  9 23  1  0  0  0  0
 10 11  2  0  0  0  0
 10 24  1  0  0  0  0
 12 15  1  0  0  0  0
 12 13  1  0  0  0  0
 12 25  1  0  0  0  0
 13 14  1  0  0  0  0
 13 26  1  0  0  0  0
 13 27  1  0  0  0  0
 14 15  1  0  0  0  0
 14 28  1  0  0  0  0
 14 29  1  0  0  0  0
 15 30  1  0  0  0  0
 15 31  1  0  0  0  0
M  END
> <s_m_source_file>
AV-unprocessed.smi

> <i_m_source_file_index>
3119

> <i_lp_mmshare_version>
43012

> <i_f3d_flags>
0

> <s_epik_input>
W0NIMl0xW0NIMl1bQ0gyXVtDSF0xQyg9TylbTkhdW0NIMl1bQ0gyXWMyW2NIXVtjSF1bY0hdW2NIXW4y

> <s_epik_cmdline>
J2VwaWtfcHl0aG9uJywgJy1waCcsICc3LjAnLCAnLXRuJywgJzgnLCAnLW1hJywgJzIwMCcsICctbWV0YWxfYmluZGluZycsICctaW1hZScsICc8aW5maWxlLm1hZT4nLCAnLW9tYWUnLCAnPG91dGZpbGUubWFlPic=

> <r_epik_Ionization_Penalty>
0.0277532

> <r_epik_Ionization_Penalty_Charging>
0

> <r_epik_Ionization_Penalty_Neutral>
0.0277532

> <r_epik_State_Penalty>
0.022734

> <r_epik_Charging_Adjusted_Penalty>
0.022734

> <i_epik_Tot_Q>
0

> <i_epik_Tot_abs_Q>
0

> <r_epik_Metal_State_Penalty>
0.0217133

> <b_epik_Metal_Only>
0

> <s_lp_Force_Field>
OPLS_2005

> <r_lp_Energy>
9.15138

> <b_lp_Chiralities_Consistent>
1

> <s_lp_Variant>
AV-unprocessed.smi:3119-1

> <Gold.Version>
5.8.1

> <Gold.Id.Protein>
6NUR|6NUR_protein|mol2

> <Gold.PLP.Fitness>
39.6917

> <Gold.PLP.PLP>
-34.3739

> <Gold.PLP.part.hbond>
-1.0000

> <Gold.PLP.part.metal>
0.0000

> <Gold.PLP.part.buried>
-0.5225

> <Gold.PLP.part.nonpolar>
-32.3778

> <Gold.PLP.part.repulsive>
0.2937

> <Gold.PLP.ligand.clash>
0.0000

> <Gold.PLP.ligand.torsion>
0.4176

> <Gold.PLP.Chemscore.Hbond>
1.0000

> <Gold.PLP.Chemscore.CHOScore>
0.9151

> <Gold.PLP.Chemscore.Metal>
0.0000

> <Gold.Chemscore.Hbonds>
donor molecule, donor type, donor heavy atom, donor atom, acceptor molecule, acceptor atom, score
      P1  H  7989  7998       L1     1  1.00
      L1  C    10    24       P1  8028  0.89

> <Gold.PLP.Chemscore.Internal.Correction>
0.4075

> <Gold.Rescore>
     Score         DG    S(hbond)    S(metal)    S(lipo)     H(rot)  DE(clash)    DE(int)     intcor
     14.60     -16.12       0.89        0.00      97.01       1.44       0.02       1.49       ----

> <Gold.Chemscore.Fitness>
14.6048

> <Gold.Chemscore.DG>
-16.1180

> <Gold.Chemscore.ZeroCoef>
-5.4800

> <Gold.Chemscore.Hbond>
0.8893

> <Gold.Chemscore.Metal>
0.0000

> <Gold.Chemscore.Lipo>
97.0077

> <Gold.Chemscore.Internal_Hbond>
0.0000

> <Gold.Chemscore.DEClash>
0.0226

> <Gold.Chemscore.DEInternal>
1.4907

> <Gold.Chemscore.Rot>
1.4383

> <Gold.Chemscore.Internal.Correction>
   9.000000E+99

> <Gold.Chemscore.Hbonds>
donor molecule, donor type, donor heavy atom, donor atom, acceptor molecule, acceptor atom, score
      P1  H  7989  7998       L1     1  0.30

> <Gold.Chemscore.Hbond.Weighted>
-2.9701

> <Gold.Chemscore.Metal.Weighted>
-0.0000

> <Gold.Chemscore.Lipo.Weighted>
-11.3499

> <Gold.Chemscore.Internal_Hbond.Weighted>
0.0000

> <Gold.Chemscore.DEClash.Weighted>
0.0226

> <Gold.Chemscore.DEInternal.Weighted>
1.4907

> <Gold.Chemscore.Rot.Weighted>
3.6820

> <Gold.Chemscore.Internal.Correction.Weighted>
   9.000000E+99

> <Gold.Protein.RotatedTorsions>
[ 6907 6896 6895 6894 ] final  -15.19 input  -60.11 | X-H torsion
[ 7974 7965 7964 7962 ] final -110.93 input  175.53 | X-H torsion
[ 8008 7997 7996 7995 ] final -129.02 input   59.86 | X-H torsion
[ 10167 10162 10161 10158 ] final  137.39 input  -65.29 | X-H torsion
[ 10718 10713 10712 10709 ] final  -80.17 input   66.30 | X-H torsion
[ 10763 10752 10751 10750 ] final   37.27 input  -60.55 | X-H torsion
[ 11005 11000 10999 10996 ] final -132.64 input  -57.11 | X-H torsion

> <Gold.Protein.ActiveResidues>
 VAL166  LYS551  ARG553  GLY616  TRP617  ASP618  TYR619  PRO620  LYS621  CYS622 
 ASP623  PHE694  ASN695  SER759  ASP760  ASP761  ALA762  ILE779  LEU786  VAL792 
 PHE793  MET794  SER795  GLU796  ALA797  LYS798  CYS799  TRP800  GLU811  SER814 

> <Gold.Protein.RotatedAtoms>
  151.3278  135.0834  159.9327 H   0  0  0  0  0  0  0  0  0  0  0  0  # atno 6907 bound_to 6896
  152.5242  133.9574  159.7711 H   0  0  0  0  0  0  0  0  0  0  0  0  # atno 6908 bound_to 6896
  150.9907  133.6100  159.2739 H   0  0  0  0  0  0  0  0  0  0  0  0  # atno 6909 bound_to 6896
  145.1622  140.8884  143.3584 H   0  0  0  0  0  0  0  0  0  0  0  0  # atno 7974 bound_to 7965
  155.2723  140.0440  157.3008 H   0  0  0  0  0  0  0  0  0  0  0  0  # atno 8008 bound_to 7997
  154.5646  140.2356  155.8252 H   0  0  0  0  0  0  0  0  0  0  0  0  # atno 8009 bound_to 7997
  156.2074  140.3008  155.9665 H   0  0  0  0  0  0  0  0  0  0  0  0  # atno 8010 bound_to 7997
  139.5146  144.6412  151.5562 H   0  0  0  0  0  0  0  0  0  0  0  0  # atno 10167 bound_to 10162
  156.0076  130.4566  150.3760 H   0  0  0  0  0  0  0  0  0  0  0  0  # atno 10718 bound_to 10713
  153.0044  135.6282  154.2118 H   0  0  0  0  0  0  0  0  0  0  0  0  # atno 10763 bound_to 10752
  154.1861  135.2811  155.3038 H   0  0  0  0  0  0  0  0  0  0  0  0  # atno 10764 bound_to 10752
  154.5796  135.5651  153.7232 H   0  0  0  0  0  0  0  0  0  0  0  0  # atno 10765 bound_to 10752
  140.9152  134.1516  157.4358 H   0  0  0  0  0  0  0  0  0  0  0  0  # atno 11005 bound_to 11000
  145.0319  139.3333  143.6020 LP  0  0  0  0  0  0  0  0  0  0  0  0  # atno 17320 bound_to 7965
  146.3481  139.9660  142.8712 LP  0  0  0  0  0  0  0  0  0  0  0  0  # atno 17321 bound_to 7965
  140.6180  143.9312  150.6504 LP  0  0  0  0  0  0  0  0  0  0  0  0  # atno 17342 bound_to 10162
  140.2576  143.3547  152.1351 LP  0  0  0  0  0  0  0  0  0  0  0  0  # atno 17343 bound_to 10162
  157.1842  131.0399  151.2733 LP  0  0  0  0  0  0  0  0  0  0  0  0  # atno 17370 bound_to 10713
  157.4119  130.7389  149.6845 LP  0  0  0  0  0  0  0  0  0  0  0  0  # atno 17371 bound_to 10713
  139.8765  134.9951  156.5726 LP  0  0  0  0  0  0  0  0  0  0  0  0  # atno 17394 bound_to 11000
  140.8059  133.8468  155.8767 LP  0  0  0  0  0  0  0  0  0  0  0  0  # atno 17395 bound_to 11000

$$$$
