AV-unprocessed.smi:2504|AV-procd|sdf|9850|dock10
  -GOLD-   2272013483D 1   1.00000     0.00000
 Structure written by MMmdl.
 47 49  0  0  0  0  0  0  0  0  2 V2000
  150.5632  142.6118  158.9647 O   0  0  0  0  0  0  0  0  0  0  0  0
  151.5101  141.8487  158.7700 C   0  0  0  0  0  0  0  0  0  0  0  0
  152.9281  142.2081  159.2609 C   0  0  0  0  0  0  0  0  0  0  0  0
  153.3671  141.3668  160.4715 C   0  0  0  0  0  0  0  0  0  0  0  0
  152.9962  142.1680  161.7296 C   0  0  0  0  0  0  0  0  0  0  0  0
  152.6215  143.5801  161.2591 C   0  0  0  0  0  0  0  0  0  0  0  0
  153.0130  143.6508  159.7802 C   0  0  0  0  0  0  0  0  0  0  0  0
  151.3562  140.6735  158.0286 N   0  0  0  0  0  0  0  0  0  0  0  0
  152.2738  139.5561  158.1939 C   0  0  0  0  0  0  0  0  0  0  0  0
  151.0931  138.6719  157.7771 C   0  0  0  0  0  0  0  0  0  0  0  0
  150.9053  137.1773  158.8465 S   0  0  0  0  0  0  0  0  0  0  0  0
  150.9224  135.9863  157.9835 O   0  0  0  0  0  0  0  0  0  0  0  0
  151.8203  137.2613  159.9948 O   0  0  0  0  0  0  0  0  0  0  0  0
  149.3005  137.3641  159.4547 N   0  0  0  0  0  0  0  0  0  0  0  0
  148.7624  136.3515  160.3665 C   0  0  0  0  0  0  0  0  0  0  0  0
  148.0594  136.9998  161.5718 C   0  0  0  0  0  0  0  0  0  0  0  0
  146.6997  136.3960  161.8713 C   0  0  0  0  0  0  0  0  0  0  0  0
  145.5286  137.1779  161.7609 C   0  0  0  0  0  0  0  0  0  0  0  0
  144.2789  136.5984  162.0632 C   0  0  0  0  0  0  0  0  0  0  0  0
  144.2284  135.2496  162.4701 C   0  0  0  0  0  0  0  0  0  0  0  0
  145.3694  134.5319  162.5627 N   0  3  0  0  0  0  0  0  0  0  0  0
  146.5849  135.0492  162.2794 C   0  0  0  0  0  0  0  0  0  0  0  0
  150.1675  139.8411  158.1398 C   0  0  0  0  0  0  0  0  0  0  0  0
  153.6330  142.0548  158.4428 H   0  0  0  0  0  0  0  0  0  0  0  0
  152.9237  140.3699  160.4814 H   0  0  0  0  0  0  0  0  0  0  0  0
  154.4483  141.2273  160.4374 H   0  0  0  0  0  0  0  0  0  0  0  0
  152.1557  141.7081  162.2506 H   0  0  0  0  0  0  0  0  0  0  0  0
  153.8346  142.1939  162.4263 H   0  0  0  0  0  0  0  0  0  0  0  0
  151.5450  143.7238  161.3606 H   0  0  0  0  0  0  0  0  0  0  0  0
  153.1096  144.3566  161.8487 H   0  0  0  0  0  0  0  0  0  0  0  0
  154.0402  144.0061  159.6887 H   0  0  0  0  0  0  0  0  0  0  0  0
  152.3815  144.3481  159.2283 H   0  0  0  0  0  0  0  0  0  0  0  0
  153.1090  139.5605  157.4931 H   0  0  0  0  0  0  0  0  0  0  0  0
  152.5916  139.4037  159.2277 H   0  0  0  0  0  0  0  0  0  0  0  0
  151.1037  138.4159  156.7164 H   0  0  0  0  0  0  0  0  0  0  0  0
  149.1531  138.3050  159.8207 H   0  0  0  0  0  0  0  0  0  0  0  0
  148.0813  135.6892  159.8302 H   0  0  0  0  0  0  0  0  0  0  0  0
  149.5896  135.7324  160.7144 H   0  0  0  0  0  0  0  0  0  0  0  0
  148.6875  136.8933  162.4571 H   0  0  0  0  0  0  0  0  0  0  0  0
  147.9501  138.0728  161.4078 H   0  0  0  0  0  0  0  0  0  0  0  0
  145.5865  138.2123  161.4545 H   0  0  0  0  0  0  0  0  0  0  0  0
  143.3728  137.1816  161.9873 H   0  0  0  0  0  0  0  0  0  0  0  0
  143.3172  134.7275  162.7233 H   0  0  0  0  0  0  0  0  0  0  0  0
  147.4232  134.3785  162.3989 H   0  0  0  0  0  0  0  0  0  0  0  0
  149.7608  139.7993  159.1507 H   0  0  0  0  0  0  0  0  0  0  0  0
  149.4046  140.0587  157.3919 H   0  0  0  0  0  0  0  0  0  0  0  0
  145.3103  133.5580  162.8607 H   0  0  0  0  0  0  0  0  0  0  0  0
  1  2  2  0  0  0  0
  2  3  1  0  0  0  0
  2  8  1  0  0  0  0
  3  7  1  0  0  0  0
  3  4  1  0  0  0  0
  3 24  1  0  0  0  0
  4  5  1  0  0  0  0
  4 25  1  0  0  0  0
  4 26  1  0  0  0  0
  5  6  1  0  0  0  0
  5 27  1  0  0  0  0
  5 28  1  0  0  0  0
  6  7  1  0  0  0  0
  6 29  1  0  0  0  0
  6 30  1  0  0  0  0
  7 31  1  0  0  0  0
  7 32  1  0  0  0  0
  8 23  1  0  0  0  0
  8  9  1  0  0  0  0
  9 10  1  0  0  0  0
  9 33  1  0  0  0  0
  9 34  1  0  0  0  0
 10 11  1  0  0  0  0
 10 23  1  0  0  0  0
 10 35  1  0  0  0  0
 11 12  2  0  0  0  0
 11 13  2  0  0  0  0
 11 14  1  0  0  0  0
 14 15  1  0  0  0  0
 14 36  1  0  0  0  0
 15 16  1  0  0  0  0
 15 37  1  0  0  0  0
 15 38  1  0  0  0  0
 16 17  1  0  0  0  0
 16 39  1  0  0  0  0
 16 40  1  0  0  0  0
 17 22  1  0  0  0  0
 17 18  2  0  0  0  0
 18 19  1  0  0  0  0
 18 41  1  0  0  0  0
 19 20  2  0  0  0  0
 19 42  1  0  0  0  0
 20 21  1  0  0  0  0
 20 43  1  0  0  0  0
 21 22  2  0  0  0  0
 21 47  1  0  0  0  0
 22 44  1  0  0  0  0
 23 45  1  0  0  0  0
 23 46  1  0  0  0  0
M  CHG  1  21   1
M  END
> <s_m_source_file>
AV-unprocessed.smi

> <i_m_source_file_index>
2504

> <i_lp_mmshare_version>
43012

> <i_f3d_flags>
0

> <s_epik_input>
W0NIMl0xW0NIMl1bQ0gyXVtDSDJdW0NIXTFDKD1PKU4yW0NIMl1bQ0hdKFtDSDJdMilTKD1PKSg9TylbTkhdW0NIMl1bQ0gyXWMzW2NIXVtjSF1bY0hdbltjSF0z

> <s_epik_cmdline>
J2VwaWtfcHl0aG9uJywgJy1waCcsICc3LjAnLCAnLXRuJywgJzgnLCAnLW1hJywgJzIwMCcsICctbWV0YWxfYmluZGluZycsICctaW1hZScsICc8aW5maWxlLm1hZT4nLCAnLW9tYWUnLCAnPG91dGZpbGUubWFlPic=

> <r_epik_Ionization_Penalty>
2.38216

> <r_epik_Ionization_Penalty_Charging>
2.38209

> <r_epik_Ionization_Penalty_Neutral>
6.7549e-05

> <r_epik_State_Penalty>
2.53866

> <r_epik_Charging_Adjusted_Penalty>
4.92075

> <i_epik_Tot_Q>
1

> <i_epik_Tot_abs_Q>
1

> <r_epik_Metal_State_Penalty>
2.64273

> <b_epik_Metal_Only>
0

> <s_lp_Force_Field>
OPLS_2005

> <r_lp_Energy>
40.9078

> <b_lp_Chiralities_Consistent>
1

> <s_lp_Variant>
AV-unprocessed.smi:2504-2

> <Gold.Version>
5.8.1

> <Gold.Id.Protein>
6NUR|6NUR_protein|mol2

> <Gold.PLP.Fitness>
47.0854

> <Gold.PLP.PLP>
-47.5176

> <Gold.PLP.part.hbond>
-3.3467

> <Gold.PLP.part.metal>
0.0000

> <Gold.PLP.part.buried>
-4.4301

> <Gold.PLP.part.nonpolar>
-40.2782

> <Gold.PLP.part.repulsive>
0.1569

> <Gold.PLP.ligand.clash>
0.0000

> <Gold.PLP.ligand.torsion>
1.9084

> <Gold.PLP.Chemscore.Hbond>
0.5753

> <Gold.PLP.Chemscore.CHOScore>
0.0000

> <Gold.PLP.Chemscore.Metal>
0.0000

> <Gold.Chemscore.Hbonds>
donor molecule, donor type, donor heavy atom, donor atom, acceptor molecule, acceptor atom, score
      P1  H  6896  6909       L1    13  0.08

> <Gold.PLP.Chemscore.Internal.Correction>
1.6588

> <Gold.Rescore>
     Score         DG    S(hbond)    S(metal)    S(lipo)     H(rot)  DE(clash)    DE(int)     intcor
     12.12     -14.10       0.04        0.00     115.82       1.97       0.19       1.79       ----

> <Gold.Chemscore.Fitness>
12.1213

> <Gold.Chemscore.DG>
-14.0971

> <Gold.Chemscore.ZeroCoef>
-5.4800

> <Gold.Chemscore.Hbond>
0.0363

> <Gold.Chemscore.Metal>
0.0000

> <Gold.Chemscore.Lipo>
115.8234

> <Gold.Chemscore.Internal_Hbond>
0.0000

> <Gold.Chemscore.DEClash>
0.1904

> <Gold.Chemscore.DEInternal>
1.7854

> <Gold.Chemscore.Rot>
1.9749

> <Gold.Chemscore.Internal.Correction>
   9.000000E+99

> <Gold.Chemscore.Hbond.Weighted>
-0.1214

> <Gold.Chemscore.Metal.Weighted>
-0.0000

> <Gold.Chemscore.Lipo.Weighted>
-13.5513

> <Gold.Chemscore.Internal_Hbond.Weighted>
0.0000

> <Gold.Chemscore.DEClash.Weighted>
0.1904

> <Gold.Chemscore.DEInternal.Weighted>
1.7854

> <Gold.Chemscore.Rot.Weighted>
5.0556

> <Gold.Chemscore.Internal.Correction.Weighted>
   9.000000E+99

> <Gold.Protein.RotatedTorsions>
[ 6907 6896 6895 6894 ] final  116.22 input  -60.11 | X-H torsion
[ 7974 7965 7964 7962 ] final   94.02 input  175.53 | X-H torsion
[ 8008 7997 7996 7995 ] final  150.85 input   59.86 | X-H torsion
[ 10167 10162 10161 10158 ] final  174.00 input  -65.29 | X-H torsion
[ 10718 10713 10712 10709 ] final -158.57 input   66.30 | X-H torsion
[ 10763 10752 10751 10750 ] final  136.34 input  -60.55 | X-H torsion
[ 11005 11000 10999 10996 ] final -177.48 input  -57.11 | X-H torsion

> <Gold.Protein.ActiveResidues>
 VAL166  LYS551  ARG553  GLY616  TRP617  ASP618  TYR619  PRO620  LYS621  CYS622 
 ASP623  PHE694  ASN695  SER759  ASP760  ASP761  ALA762  ILE779  LEU786  VAL792 
 PHE793  MET794  SER795  GLU796  ALA797  LYS798  CYS799  TRP800  GLU811  SER814 

> <Gold.Protein.RotatedAtoms>
  152.4692  133.7991  159.6942 H   0  0  0  0  0  0  0  0  0  0  0  0  # atno 6907 bound_to 6896
  150.8672  133.7548  159.2979 H   0  0  0  0  0  0  0  0  0  0  0  0  # atno 6908 bound_to 6896
  151.5094  135.1068  159.9902 H   0  0  0  0  0  0  0  0  0  0  0  0  # atno 6909 bound_to 6896
  145.4711  139.2282  143.2934 H   0  0  0  0  0  0  0  0  0  0  0  0  # atno 7974 bound_to 7965
  156.2698  140.2063  156.6083 H   0  0  0  0  0  0  0  0  0  0  0  0  # atno 8008 bound_to 7997
  154.6852  140.0536  157.0330 H   0  0  0  0  0  0  0  0  0  0  0  0  # atno 8009 bound_to 7997
  155.0944  140.3200  155.4567 H   0  0  0  0  0  0  0  0  0  0  0  0  # atno 8010 bound_to 7997
  139.5127  144.3197  152.0214 H   0  0  0  0  0  0  0  0  0  0  0  0  # atno 10167 bound_to 10162
  156.5560  130.8626  151.2795 H   0  0  0  0  0  0  0  0  0  0  0  0  # atno 10718 bound_to 10713
  153.8549  135.3074  155.3434 H   0  0  0  0  0  0  0  0  0  0  0  0  # atno 10763 bound_to 10752
  154.7875  135.4801  153.9981 H   0  0  0  0  0  0  0  0  0  0  0  0  # atno 10764 bound_to 10752
  153.1496  135.6840  153.8995 H   0  0  0  0  0  0  0  0  0  0  0  0  # atno 10765 bound_to 10752
  140.4405  134.6436  157.4755 H   0  0  0  0  0  0  0  0  0  0  0  0  # atno 11005 bound_to 11000
  146.2396  140.5490  142.8940 LP  0  0  0  0  0  0  0  0  0  0  0  0  # atno 17320 bound_to 7965
  144.7944  140.6095  143.6520 LP  0  0  0  0  0  0  0  0  0  0  0  0  # atno 17321 bound_to 7965
  140.2639  144.4037  150.6175 LP  0  0  0  0  0  0  0  0  0  0  0  0  # atno 17342 bound_to 10162
  140.6137  143.2171  151.6834 LP  0  0  0  0  0  0  0  0  0  0  0  0  # atno 17343 bound_to 10162
  157.7378  130.9802  150.2215 LP  0  0  0  0  0  0  0  0  0  0  0  0  # atno 17370 bound_to 10713
  156.2841  130.3737  149.7905 LP  0  0  0  0  0  0  0  0  0  0  0  0  # atno 17371 bound_to 10713
  140.0073  134.6744  155.9435 LP  0  0  0  0  0  0  0  0  0  0  0  0  # atno 17394 bound_to 11000
  141.1708  133.6537  156.4643 LP  0  0  0  0  0  0  0  0  0  0  0  0  # atno 17395 bound_to 11000

$$$$
