AV-unprocessed.smi:2985|AV-procd|sdf|11379|dock7
  -GOLD-   2272016303D 1   1.00000     0.00000
 Structure written by MMmdl.
 33 34  0  0  0  0  0  0  0  0  1 V2000
  147.4870  140.9939  153.5326 C   0  0  0  0  0  0  0  0  0  0  0  0
  148.6616  141.6925  153.9065 O   0  0  0  0  0  0  0  0  0  0  0  0
  149.0289  141.4521  155.2538 C   0  0  0  0  0  0  0  0  0  0  0  0
  150.4266  142.0342  155.4997 C   0  0  0  0  0  0  0  0  0  0  0  0
  150.8539  141.8314  156.8746 N   0  0  0  0  0  0  0  0  0  0  0  0
  150.8025  140.6878  157.5993 C   0  0  0  0  0  0  0  0  0  0  0  0
  150.1743  139.1874  156.9216 S   0  0  0  0  0  0  0  0  0  0  0  0
  151.2107  139.1311  155.4321 C   0  0  0  0  0  0  0  0  0  0  0  0
  150.8565  137.9645  154.5133 C   0  0  0  0  0  0  0  0  0  0  0  0
  150.0459  138.2247  153.4840 N   0  0  0  0  0  0  0  0  0  0  0  0
  151.2989  136.8394  154.7339 O   0  0  0  0  0  0  0  0  0  0  0  0
  151.2490  140.7770  158.8523 N   0  0  0  0  0  0  0  0  0  0  0  0
  151.6225  142.1033  158.9494 C   0  0  0  0  0  0  0  0  0  0  0  0
  152.1709  142.8264  160.0328 C   0  0  0  0  0  0  0  0  0  0  0  0
  152.4707  144.1978  159.8965 C   0  0  0  0  0  0  0  0  0  0  0  0
  152.2262  144.8645  158.6784 C   0  0  0  0  0  0  0  0  0  0  0  0
  151.6809  144.1625  157.5862 C   0  0  0  0  0  0  0  0  0  0  0  0
  151.3854  142.7934  157.7270 C   0  0  0  0  0  0  0  0  0  0  0  0
  147.2445  141.2139  152.4931 H   0  0  0  0  0  0  0  0  0  0  0  0
  146.6371  141.2937  154.1470 H   0  0  0  0  0  0  0  0  0  0  0  0
  147.6232  139.9157  153.6257 H   0  0  0  0  0  0  0  0  0  0  0  0
  148.3058  141.9155  155.9272 H   0  0  0  0  0  0  0  0  0  0  0  0
  149.0250  140.3794  155.4538 H   0  0  0  0  0  0  0  0  0  0  0  0
  151.1562  141.5820  154.8276 H   0  0  0  0  0  0  0  0  0  0  0  0
  150.4314  143.1029  155.2836 H   0  0  0  0  0  0  0  0  0  0  0  0
  151.1110  140.0723  154.8899 H   0  0  0  0  0  0  0  0  0  0  0  0
  152.2568  139.0407  155.7278 H   0  0  0  0  0  0  0  0  0  0  0  0
  149.7737  137.4820  152.8563 H   0  0  0  0  0  0  0  0  0  0  0  0
  149.6980  139.1624  153.3449 H   0  0  0  0  0  0  0  0  0  0  0  0
  152.3603  142.3251  160.9706 H   0  0  0  0  0  0  0  0  0  0  0  0
  152.8889  144.7409  160.7312 H   0  0  0  0  0  0  0  0  0  0  0  0
  152.4573  145.9154  158.5828 H   0  0  0  0  0  0  0  0  0  0  0  0
  151.4915  144.6717  156.6530 H   0  0  0  0  0  0  0  0  0  0  0  0
  1  2  1  0  0  0  0
  1 19  1  0  0  0  0
  1 20  1  0  0  0  0
  1 21  1  0  0  0  0
  2  3  1  0  0  0  0
  3  4  1  0  0  0  0
  3 22  1  0  0  0  0
  3 23  1  0  0  0  0
  4  5  1  0  0  0  0
  4 24  1  0  0  0  0
  4 25  1  0  0  0  0
  5 18  1  0  0  0  0
  5  6  1  0  0  0  0
  6  7  1  0  0  0  0
  6 12  2  0  0  0  0
  7  8  1  0  0  0  0
  8  9  1  0  0  0  0
  8 26  1  0  0  0  0
  8 27  1  0  0  0  0
  9 10  1  0  0  0  0
  9 11  2  0  0  0  0
 10 28  1  0  0  0  0
 10 29  1  0  0  0  0
 12 13  1  0  0  0  0
 13 18  2  0  0  0  0
 13 14  1  0  0  0  0
 14 15  2  0  0  0  0
 14 30  1  0  0  0  0
 15 16  1  0  0  0  0
 15 31  1  0  0  0  0
 16 17  2  0  0  0  0
 16 32  1  0  0  0  0
 17 18  1  0  0  0  0
 17 33  1  0  0  0  0
M  END
> <s_m_source_file>
AV-unprocessed.smi

> <i_m_source_file_index>
2985

> <i_lp_mmshare_version>
43012

> <i_f3d_flags>
0

> <s_epik_input>
W2NIXTFbY0hdW2NIXVtjSF1jKGMxMiluKFtDSDJdW0NIMl1PW0NIM10pYyhuMilTW0NIMl1DKD1PKVtOSDJd

> <s_epik_cmdline>
J2VwaWtfcHl0aG9uJywgJy1waCcsICc3LjAnLCAnLXRuJywgJzgnLCAnLW1hJywgJzIwMCcsICctbWV0YWxfYmluZGluZycsICctaW1hZScsICc8aW5maWxlLm1hZT4nLCAnLW9tYWUnLCAnPG91dGZpbGUubWFlPic=

> <r_epik_Ionization_Penalty>
0.0273334

> <r_epik_Ionization_Penalty_Charging>
0

> <r_epik_Ionization_Penalty_Neutral>
0.0273334

> <r_epik_State_Penalty>
0.0223655

> <r_epik_Charging_Adjusted_Penalty>
0.0223655

> <i_epik_Tot_Q>
0

> <i_epik_Tot_abs_Q>
0

> <r_epik_Metal_State_Penalty>
0.0213644

> <b_epik_Metal_Only>
0

> <s_lp_Force_Field>
OPLS_2005

> <r_lp_Energy>
5.41897

> <b_lp_Chiralities_Consistent>
1

> <s_lp_Variant>
AV-unprocessed.smi:2985-1

> <Gold.Version>
5.8.1

> <Gold.Id.Protein>
6NUR|6NUR_protein|mol2

> <Gold.PLP.Fitness>
48.4584

> <Gold.PLP.PLP>
-41.3338

> <Gold.PLP.part.hbond>
-4.7462

> <Gold.PLP.part.metal>
0.0000

> <Gold.PLP.part.buried>
-3.5561

> <Gold.PLP.part.nonpolar>
-34.2821

> <Gold.PLP.part.repulsive>
0.4383

> <Gold.PLP.ligand.clash>
0.0000

> <Gold.PLP.ligand.torsion>
0.5224

> <Gold.PLP.Chemscore.Hbond>
2.7134

> <Gold.PLP.Chemscore.CHOScore>
0.0000

> <Gold.PLP.Chemscore.Metal>
0.0000

> <Gold.Chemscore.Hbonds>
donor molecule, donor type, donor heavy atom, donor atom, acceptor molecule, acceptor atom, score
      L1  H    10    28       P1  7948  1.00
      L1  H    10    29       P1  7957  0.07
      P1  H  8011  8017       L1     2  0.54
      P1  H 10752 10763       L1    11  0.96

> <Gold.PLP.Chemscore.Internal.Correction>
0.0290

> <Gold.Rescore>
     Score         DG    S(hbond)    S(metal)    S(lipo)     H(rot)  DE(clash)    DE(int)     intcor
     14.46     -15.26       1.48        0.00      99.88       2.68       0.48       0.32       ----

> <Gold.Chemscore.Fitness>
14.4611

> <Gold.Chemscore.DG>
-15.2611

> <Gold.Chemscore.ZeroCoef>
-5.4800

> <Gold.Chemscore.Hbond>
1.4850

> <Gold.Chemscore.Metal>
0.0000

> <Gold.Chemscore.Lipo>
99.8782

> <Gold.Chemscore.Internal_Hbond>
0.0000

> <Gold.Chemscore.DEClash>
0.4813

> <Gold.Chemscore.DEInternal>
0.3187

> <Gold.Chemscore.Rot>
2.6814

> <Gold.Chemscore.Internal.Correction>
   9.000000E+99

> <Gold.Chemscore.Hbonds>
donor molecule, donor type, donor heavy atom, donor atom, acceptor molecule, acceptor atom, score
      L1  H    10    28       P1  7948  0.40
      L1  H    10    29       P1  7957  0.08
      P1  H  8011  8017       L1     2  0.47
      P1  H 10752 10763       L1    11  0.90

> <Gold.Chemscore.Hbond.Weighted>
-4.9597

> <Gold.Chemscore.Metal.Weighted>
-0.0000

> <Gold.Chemscore.Lipo.Weighted>
-11.6857

> <Gold.Chemscore.Internal_Hbond.Weighted>
0.0000

> <Gold.Chemscore.DEClash.Weighted>
0.4813

> <Gold.Chemscore.DEInternal.Weighted>
0.3187

> <Gold.Chemscore.Rot.Weighted>
6.8644

> <Gold.Chemscore.Internal.Correction.Weighted>
   9.000000E+99

> <Gold.Protein.RotatedTorsions>
[ 6907 6896 6895 6894 ] final -131.95 input  -60.11 | X-H torsion
[ 7974 7965 7964 7962 ] final   39.89 input  175.53 | X-H torsion
[ 8008 7997 7996 7995 ] final  -66.15 input   59.86 | X-H torsion
[ 10167 10162 10161 10158 ] final  115.33 input  -65.29 | X-H torsion
[ 10718 10713 10712 10709 ] final   92.26 input   66.30 | X-H torsion
[ 10763 10752 10751 10750 ] final   54.71 input  -60.55 | X-H torsion
[ 11005 11000 10999 10996 ] final  -35.35 input  -57.11 | X-H torsion

> <Gold.Protein.ActiveResidues>
 VAL166  LYS551  ARG553  GLY616  TRP617  ASP618  TYR619  PRO620  LYS621  CYS622 
 ASP623  PHE694  ASN695  SER759  ASP760  ASP761  ALA762  ILE779  LEU786  VAL792 
 PHE793  MET794  SER795  GLU796  ALA797  LYS798  CYS799  TRP800  GLU811  SER814 

> <Gold.Protein.RotatedAtoms>
  150.9568  133.6489  159.2761 H   0  0  0  0  0  0  0  0  0  0  0  0  # atno 6907 bound_to 6896
  151.3826  135.0941  159.9510 H   0  0  0  0  0  0  0  0  0  0  0  0  # atno 6908 bound_to 6896
  152.5132  133.9099  159.7537 H   0  0  0  0  0  0  0  0  0  0  0  0  # atno 6909 bound_to 6896
  146.0948  139.5598  142.9452 H   0  0  0  0  0  0  0  0  0  0  0  0  # atno 7974 bound_to 7965
  154.4716  140.0918  156.7158 H   0  0  0  0  0  0  0  0  0  0  0  0  # atno 8008 bound_to 7997
  155.4709  140.3464  155.4307 H   0  0  0  0  0  0  0  0  0  0  0  0  # atno 8009 bound_to 7997
  156.1048  140.1432  156.9407 H   0  0  0  0  0  0  0  0  0  0  0  0  # atno 8010 bound_to 7997
  139.6325  144.7116  151.2402 H   0  0  0  0  0  0  0  0  0  0  0  0  # atno 10167 bound_to 10162
  157.6959  131.0437  150.3854 H   0  0  0  0  0  0  0  0  0  0  0  0  # atno 10718 bound_to 10713
  152.9808  135.5735  154.4948 H   0  0  0  0  0  0  0  0  0  0  0  0  # atno 10763 bound_to 10752
  154.4477  135.2777  155.1805 H   0  0  0  0  0  0  0  0  0  0  0  0  # atno 10764 bound_to 10752
  154.3446  135.6222  153.5666 H   0  0  0  0  0  0  0  0  0  0  0  0  # atno 10765 bound_to 10752
  140.9789  133.7067  156.1650 H   0  0  0  0  0  0  0  0  0  0  0  0  # atno 11005 bound_to 11000
  145.5969  141.0361  143.2039 LP  0  0  0  0  0  0  0  0  0  0  0  0  # atno 17320 bound_to 7965
  144.7387  139.7510  143.7319 LP  0  0  0  0  0  0  0  0  0  0  0  0  # atno 17321 bound_to 7965
  140.7447  143.6455  150.8296 LP  0  0  0  0  0  0  0  0  0  0  0  0  # atno 17342 bound_to 10162
  140.0081  143.5671  152.2849 LP  0  0  0  0  0  0  0  0  0  0  0  0  # atno 17343 bound_to 10162
  156.4263  130.3963  149.6790 LP  0  0  0  0  0  0  0  0  0  0  0  0  # atno 17370 bound_to 10713
  156.4023  130.7681  151.2689 LP  0  0  0  0  0  0  0  0  0  0  0  0  # atno 17371 bound_to 10713
  140.7217  134.4351  157.5574 LP  0  0  0  0  0  0  0  0  0  0  0  0  # atno 17394 bound_to 11000
  139.8942  134.8712  156.2188 LP  0  0  0  0  0  0  0  0  0  0  0  0  # atno 17395 bound_to 11000

$$$$
