AV-unprocessed.smi:3146|AV-procd|sdf|11986|dock2
  -GOLD-   2272017393D 1   1.00000     0.00000
 Structure written by MMmdl.
 34 35  0  0  0  0  0  0  0  0  1 V2000
  151.4750  145.5331  159.3632 O   0  0  0  0  0  0  0  0  0  0  0  0
  151.8299  144.3826  159.0996 C   0  0  0  0  0  0  0  0  0  0  0  0
  151.6974  143.8473  157.6642 C   0  0  0  0  0  0  0  0  0  0  0  0
  150.7524  142.7289  157.5486 N   0  0  0  0  0  0  0  0  0  0  0  0
  150.9340  142.0307  156.2853 C   0  0  0  0  0  0  0  0  0  0  0  0
  150.2878  140.6402  156.3710 C   0  0  0  0  0  0  0  0  0  0  0  0
  150.9919  139.6723  155.5523 N   0  0  0  0  0  0  0  0  0  0  0  0
  152.3421  139.3921  155.5262 C   0  0  0  0  0  0  0  0  0  0  0  0
  152.5352  138.4112  154.5961 C   0  0  0  0  0  0  0  0  0  0  0  0
  151.2263  138.1528  154.1005 C   0  0  0  0  0  0  0  0  0  0  0  0
  150.3049  138.9097  154.6742 N   0  0  0  0  0  0  0  0  0  0  0  0
  152.3365  143.5582  160.0402 N   0  0  0  0  0  0  0  0  0  0  0  0
  152.5009  143.9364  161.4426 C   0  0  0  0  0  0  0  0  0  0  0  0
  152.8333  142.6416  162.1842 C   0  0  0  0  0  0  0  0  0  0  0  0
  153.4654  141.7555  161.1201 C   0  0  0  0  0  0  0  0  0  0  0  0
  152.7816  142.1821  159.8206 C   0  0  0  0  0  0  0  0  0  0  0  0
  151.3675  144.6626  157.0187 H   0  0  0  0  0  0  0  0  0  0  0  0
  152.6796  143.5255  157.3149 H   0  0  0  0  0  0  0  0  0  0  0  0
  150.8605  142.0761  158.3118 H   0  0  0  0  0  0  0  0  0  0  0  0
  150.4820  142.6063  155.4760 H   0  0  0  0  0  0  0  0  0  0  0  0
  151.9984  141.9342  156.0657 H   0  0  0  0  0  0  0  0  0  0  0  0
  150.2854  140.2833  157.4019 H   0  0  0  0  0  0  0  0  0  0  0  0
  149.2465  140.6790  156.0467 H   0  0  0  0  0  0  0  0  0  0  0  0
  153.0449  139.9087  156.1636 H   0  0  0  0  0  0  0  0  0  0  0  0
  153.4688  137.9481  154.3129 H   0  0  0  0  0  0  0  0  0  0  0  0
  150.9208  137.4429  153.3458 H   0  0  0  0  0  0  0  0  0  0  0  0
  153.3246  144.6472  161.5236 H   0  0  0  0  0  0  0  0  0  0  0  0
  151.6050  144.4073  161.8507 H   0  0  0  0  0  0  0  0  0  0  0  0
  153.4844  142.8016  163.0440 H   0  0  0  0  0  0  0  0  0  0  0  0
  151.9126  142.1796  162.5435 H   0  0  0  0  0  0  0  0  0  0  0  0
  154.5335  141.9676  161.0576 H   0  0  0  0  0  0  0  0  0  0  0  0
  153.3480  140.6920  161.3302 H   0  0  0  0  0  0  0  0  0  0  0  0
  151.9124  141.5529  159.6237 H   0  0  0  0  0  0  0  0  0  0  0  0
  153.4650  142.0957  158.9749 H   0  0  0  0  0  0  0  0  0  0  0  0
  1  2  2  0  0  0  0
  2  3  1  0  0  0  0
  2 12  1  0  0  0  0
  3  4  1  0  0  0  0
  3 17  1  0  0  0  0
  3 18  1  0  0  0  0
  4  5  1  0  0  0  0
  4 19  1  0  0  0  0
  5  6  1  0  0  0  0
  5 20  1  0  0  0  0
  5 21  1  0  0  0  0
  6  7  1  0  0  0  0
  6 22  1  0  0  0  0
  6 23  1  0  0  0  0
  7 11  1  0  0  0  0
  7  8  1  0  0  0  0
  8  9  2  0  0  0  0
  8 24  1  0  0  0  0
  9 10  1  0  0  0  0
  9 25  1  0  0  0  0
 10 11  2  0  0  0  0
 10 26  1  0  0  0  0
 12 16  1  0  0  0  0
 12 13  1  0  0  0  0
 13 14  1  0  0  0  0
 13 27  1  0  0  0  0
 13 28  1  0  0  0  0
 14 15  1  0  0  0  0
 14 29  1  0  0  0  0
 14 30  1  0  0  0  0
 15 16  1  0  0  0  0
 15 31  1  0  0  0  0
 15 32  1  0  0  0  0
 16 33  1  0  0  0  0
 16 34  1  0  0  0  0
M  END
> <s_m_source_file>
AV-unprocessed.smi

> <i_m_source_file_index>
3146

> <i_lp_mmshare_version>
43012

> <i_f3d_flags>
0

> <s_epik_input>
W0NIMl0xW0NIMl1bQ0gyXVtDSDJdTjFDKD1PKVtDSDJdW05IXVtDSDJdW0NIMl1uMltjSF1bY0hdW2NIXW4y

> <s_epik_cmdline>
J2VwaWtfcHl0aG9uJywgJy1waCcsICc3LjAnLCAnLXRuJywgJzgnLCAnLW1hJywgJzIwMCcsICctbWV0YWxfYmluZGluZycsICctaW1hZScsICc8aW5maWxlLm1hZT4nLCAnLW9tYWUnLCAnPG91dGZpbGUubWFlPic=

> <r_lp_tautomer_probability>
1

> <r_epik_Ionization_Penalty>
0.734549

> <r_epik_Ionization_Penalty_Charging>
0

> <r_epik_Ionization_Penalty_Neutral>
0.734549

> <r_epik_State_Penalty>
0.75825

> <r_epik_Charging_Adjusted_Penalty>
0.75825

> <i_epik_Tot_Q>
0

> <i_epik_Tot_abs_Q>
0

> <r_epik_Metal_State_Penalty>
0.757003

> <b_epik_Metal_Only>
0

> <s_lp_Force_Field>
OPLS_2005

> <r_lp_Energy>
29.6194

> <b_lp_Chiralities_Consistent>
1

> <s_lp_Variant>
AV-unprocessed.smi:3146-2

> <Gold.Version>
5.8.1

> <Gold.Id.Protein>
6NUR|6NUR_protein|mol2

> <Gold.PLP.Fitness>
48.9228

> <Gold.PLP.PLP>
-46.3734

> <Gold.PLP.part.hbond>
-0.7928

> <Gold.PLP.part.metal>
0.0000

> <Gold.PLP.part.buried>
-6.8212

> <Gold.PLP.part.nonpolar>
-39.0306

> <Gold.PLP.part.repulsive>
0.2909

> <Gold.PLP.ligand.clash>
0.0000

> <Gold.PLP.ligand.torsion>
0.4337

> <Gold.PLP.Chemscore.Hbond>
0.0000

> <Gold.PLP.Chemscore.CHOScore>
1.1168

> <Gold.PLP.Chemscore.Metal>
0.0000

> <Gold.Chemscore.Hbonds>
donor molecule, donor type, donor heavy atom, donor atom, acceptor molecule, acceptor atom, score
      L1  C    10    26       P1  7948  0.15
      L1  C    10    26       P1  7949  0.98

> <Gold.PLP.Chemscore.Internal.Correction>
0.0663

> <Gold.Rescore>
     Score         DG    S(hbond)    S(metal)    S(lipo)     H(rot)  DE(clash)    DE(int)     intcor
     11.98     -12.39       0.00        0.00      98.95       1.82       0.05       0.35       ----

> <Gold.Chemscore.Fitness>
11.9838

> <Gold.Chemscore.DG>
-12.3857

> <Gold.Chemscore.ZeroCoef>
-5.4800

> <Gold.Chemscore.Hbond>
0.0000

> <Gold.Chemscore.Metal>
0.0000

> <Gold.Chemscore.Lipo>
98.9466

> <Gold.Chemscore.Internal_Hbond>
0.0000

> <Gold.Chemscore.DEClash>
0.0475

> <Gold.Chemscore.DEInternal>
0.3545

> <Gold.Chemscore.Rot>
1.8246

> <Gold.Chemscore.Internal.Correction>
   9.000000E+99

> <Gold.Chemscore.Hbond.Weighted>
-0.0000

> <Gold.Chemscore.Metal.Weighted>
-0.0000

> <Gold.Chemscore.Lipo.Weighted>
-11.5768

> <Gold.Chemscore.Internal_Hbond.Weighted>
0.0000

> <Gold.Chemscore.DEClash.Weighted>
0.0475

> <Gold.Chemscore.DEInternal.Weighted>
0.3545

> <Gold.Chemscore.Rot.Weighted>
4.6710

> <Gold.Chemscore.Internal.Correction.Weighted>
   9.000000E+99

> <Gold.Protein.RotatedTorsions>
[ 6907 6896 6895 6894 ] final  -39.28 input  -60.11 | X-H torsion
[ 7974 7965 7964 7962 ] final  121.84 input  175.53 | X-H torsion
[ 8008 7997 7996 7995 ] final  -80.56 input   59.86 | X-H torsion
[ 10167 10162 10161 10158 ] final -101.81 input  -65.29 | X-H torsion
[ 10718 10713 10712 10709 ] final   59.13 input   66.30 | X-H torsion
[ 10763 10752 10751 10750 ] final    2.09 input  -60.55 | X-H torsion
[ 11005 11000 10999 10996 ] final  -11.23 input  -57.11 | X-H torsion

> <Gold.Protein.ActiveResidues>
 VAL166  LYS551  ARG553  GLY616  TRP617  ASP618  TYR619  PRO620  LYS621  CYS622 
 ASP623  PHE694  ASN695  SER759  ASP760  ASP761  ALA762  ILE779  LEU786  VAL792 
 PHE793  MET794  SER795  GLU796  ALA797  LYS798  CYS799  TRP800  GLU811  SER814 

> <Gold.Protein.RotatedAtoms>
  150.9922  134.9254  159.7905 H   0  0  0  0  0  0  0  0  0  0  0  0  # atno 6907 bound_to 6896
  152.5254  134.3266  159.9177 H   0  0  0  0  0  0  0  0  0  0  0  0  # atno 6908 bound_to 6896
  151.3272  133.3974  159.2694 H   0  0  0  0  0  0  0  0  0  0  0  0  # atno 6909 bound_to 6896
  145.1146  139.3430  143.4745 H   0  0  0  0  0  0  0  0  0  0  0  0  # atno 7974 bound_to 7965
  154.5895  140.0661  156.9218 H   0  0  0  0  0  0  0  0  0  0  0  0  # atno 8008 bound_to 7997
  155.2320  140.3338  155.4284 H   0  0  0  0  0  0  0  0  0  0  0  0  # atno 8009 bound_to 7997
  156.2246  140.1813  156.7379 H   0  0  0  0  0  0  0  0  0  0  0  0  # atno 8010 bound_to 7997
  140.2374  143.3563  152.0832 H   0  0  0  0  0  0  0  0  0  0  0  0  # atno 10167 bound_to 10162
  157.5651  130.8865  149.9175 H   0  0  0  0  0  0  0  0  0  0  0  0  # atno 10718 bound_to 10713
  153.2999  135.6955  153.7213 H   0  0  0  0  0  0  0  0  0  0  0  0  # atno 10763 bound_to 10752
  153.6131  135.3441  155.2986 H   0  0  0  0  0  0  0  0  0  0  0  0  # atno 10764 bound_to 10752
  154.8548  135.4368  154.2107 H   0  0  0  0  0  0  0  0  0  0  0  0  # atno 10765 bound_to 10752
  140.7531  133.8576  155.9061 H   0  0  0  0  0  0  0  0  0  0  0  0  # atno 11005 bound_to 11000
  146.3524  140.1079  142.8605 LP  0  0  0  0  0  0  0  0  0  0  0  0  # atno 17320 bound_to 7965
  145.0809  140.9220  143.4826 LP  0  0  0  0  0  0  0  0  0  0  0  0  # atno 17321 bound_to 7965
  139.5089  144.6858  151.5892 LP  0  0  0  0  0  0  0  0  0  0  0  0  # atno 17342 bound_to 10162
  140.6139  143.9384  150.6474 LP  0  0  0  0  0  0  0  0  0  0  0  0  # atno 17343 bound_to 10162
  156.0700  130.3686  150.0795 LP  0  0  0  0  0  0  0  0  0  0  0  0  # atno 17370 bound_to 10713
  156.8955  130.9603  151.3583 LP  0  0  0  0  0  0  0  0  0  0  0  0  # atno 17371 bound_to 10713
  140.9732  134.1503  157.4558 LP  0  0  0  0  0  0  0  0  0  0  0  0  # atno 17394 bound_to 11000
  139.8784  134.9986  156.5907 LP  0  0  0  0  0  0  0  0  0  0  0  0  # atno 17395 bound_to 11000

$$$$
