AV-unprocessed.smi:3305|AV-procd|sdf|12699|dock3
  -GOLD-   2272019 33D 1   1.00000     0.00000
 Structure written by MMmdl.
 32 33  0  0  0  0  0  0  0  0  1 V2000
  154.2514  138.4960  154.3184 C   0  0  0  0  0  0  0  0  0  0  0  0
  152.8115  138.8382  154.5378 C   0  0  0  0  0  0  0  0  0  0  0  0
  151.7157  138.1186  154.1310 C   0  0  0  0  0  0  0  0  0  0  0  0
  150.2228  138.8985  154.5792 S   0  0  0  0  0  0  0  0  0  0  0  0
  151.1571  140.1878  155.3275 C   0  0  0  0  0  0  0  0  0  0  0  0
  150.5368  141.3946  155.9577 C   0  0  0  0  0  0  0  0  0  0  0  0
  150.2643  141.2415  157.4692 C   0  0  0  0  0  0  0  0  0  0  0  0
  151.0045  142.2027  158.2812 N   0  0  0  0  0  0  0  0  0  0  0  0
  152.2651  142.0423  158.7113 C   0  0  0  0  0  0  0  0  0  0  0  0
  152.9124  141.0101  158.5318 O   0  0  0  0  0  0  0  0  0  0  0  0
  152.8942  143.2465  159.4295 C   0  0  2  0  0  0  0  0  0  0  0  0
  152.1488  143.5875  160.7245 C   0  0  0  0  0  0  0  0  0  0  0  0
  151.5492  144.9736  160.4772 C   0  0  0  0  0  0  0  0  0  0  0  0
  151.5621  145.1225  159.0673 O   0  0  0  0  0  0  0  0  0  0  0  0
  152.7695  144.5373  158.6087 C   0  0  0  0  0  0  0  0  0  0  0  0
  152.4772  140.0103  155.2198 N   0  0  0  0  0  0  0  0  0  0  0  0
  154.3612  137.5508  153.7866 H   0  0  0  0  0  0  0  0  0  0  0  0
  154.7833  138.4056  155.2656 H   0  0  0  0  0  0  0  0  0  0  0  0
  154.7518  139.2654  153.7299 H   0  0  0  0  0  0  0  0  0  0  0  0
  151.6958  137.1839  153.5904 H   0  0  0  0  0  0  0  0  0  0  0  0
  151.1876  142.2519  155.7856 H   0  0  0  0  0  0  0  0  0  0  0  0
  149.6043  141.6130  155.4354 H   0  0  0  0  0  0  0  0  0  0  0  0
  149.2043  141.4096  157.6610 H   0  0  0  0  0  0  0  0  0  0  0  0
  150.4794  140.2230  157.7957 H   0  0  0  0  0  0  0  0  0  0  0  0
  150.5472  143.0819  158.4747 H   0  0  0  0  0  0  0  0  0  0  0  0
  153.9458  143.0370  159.6311 H   0  0  0  0  0  0  0  0  0  0  0  0
  151.3572  142.8692  160.9461 H   0  0  0  0  0  0  0  0  0  0  0  0
  152.8183  143.5981  161.5850 H   0  0  0  0  0  0  0  0  0  0  0  0
  150.5413  145.0736  160.8801 H   0  0  0  0  0  0  0  0  0  0  0  0
  152.1738  145.7481  160.9251 H   0  0  0  0  0  0  0  0  0  0  0  0
  153.6041  145.2083  158.8179 H   0  0  0  0  0  0  0  0  0  0  0  0
  152.7399  144.3703  157.5311 H   0  0  0  0  0  0  0  0  0  0  0  0
  1  2  1  0  0  0  0
  1 17  1  0  0  0  0
  1 18  1  0  0  0  0
  1 19  1  0  0  0  0
  2 16  1  0  0  0  0
  2  3  2  0  0  0  0
  3  4  1  0  0  0  0
  3 20  1  0  0  0  0
  4  5  1  0  0  0  0
  5  6  1  0  0  0  0
  5 16  2  0  0  0  0
  6  7  1  0  0  0  0
  6 21  1  0  0  0  0
  6 22  1  0  0  0  0
  7  8  1  0  0  0  0
  7 23  1  0  0  0  0
  7 24  1  0  0  0  0
  8  9  1  0  0  0  0
  8 25  1  0  0  0  0
  9 10  2  0  0  0  0
  9 11  1  0  0  0  0
 11 15  1  0  0  0  0
 11 12  1  0  0  0  0
 11 26  1  0  0  0  0
 12 13  1  0  0  0  0
 12 27  1  0  0  0  0
 12 28  1  0  0  0  0
 13 14  1  0  0  0  0
 13 29  1  0  0  0  0
 13 30  1  0  0  0  0
 14 15  1  0  0  0  0
 15 31  1  0  0  0  0
 15 32  1  0  0  0  0
M  END
> <s_m_source_file>
AV-unprocessed.smi

> <i_m_source_file_index>
3305

> <i_lp_mmshare_version>
43012

> <i_f3d_flags>
0

> <s_epik_input>
W0NIM11jMVtjSF1zYyhuMSlbQ0gyXVtDSDJdW05IXUMoPU8pW0NAQEhdMltDSDJdW0NIMl1PW0NIMl0y

> <s_epik_cmdline>
J2VwaWtfcHl0aG9uJywgJy1waCcsICc3LjAnLCAnLXRuJywgJzgnLCAnLW1hJywgJzIwMCcsICctbWV0YWxfYmluZGluZycsICctaW1hZScsICc8aW5maWxlLm1hZT4nLCAnLW9tYWUnLCAnPG91dGZpbGUubWFlPic=

> <r_epik_Ionization_Penalty>
0.00102754

> <r_epik_Ionization_Penalty_Charging>
0

> <r_epik_Ionization_Penalty_Neutral>
0.00102754

> <r_epik_State_Penalty>
0.000671034

> <r_epik_Charging_Adjusted_Penalty>
0.000671034

> <i_epik_Tot_Q>
0

> <i_epik_Tot_abs_Q>
0

> <r_epik_Metal_State_Penalty>
-0

> <b_epik_Metal_Only>
0

> <s_lp_Force_Field>
OPLS_2005

> <r_lp_Energy>
8.47785

> <b_lp_Chiralities_Consistent>
1

> <s_lp_Variant>
AV-unprocessed.smi:3305-1

> <Gold.Version>
5.8.1

> <Gold.Id.Protein>
6NUR|6NUR_protein|mol2

> <Gold.PLP.Fitness>
41.1301

> <Gold.PLP.PLP>
-37.8600

> <Gold.PLP.part.hbond>
-2.2490

> <Gold.PLP.part.metal>
0.0000

> <Gold.PLP.part.buried>
-0.3166

> <Gold.PLP.part.nonpolar>
-35.3006

> <Gold.PLP.part.repulsive>
0.1587

> <Gold.PLP.ligand.clash>
0.0000

> <Gold.PLP.ligand.torsion>
0.9829

> <Gold.PLP.Chemscore.Hbond>
0.7280

> <Gold.PLP.Chemscore.CHOScore>
1.0000

> <Gold.PLP.Chemscore.Metal>
0.0000

> <Gold.Chemscore.Hbonds>
donor molecule, donor type, donor heavy atom, donor atom, acceptor molecule, acceptor atom, score
      P1  H  7997  8010       L1    16  0.56
      L1  C     3    20       P1  7949  1.00

> <Gold.PLP.Chemscore.Internal.Correction>
0.0518

> <Gold.Rescore>
     Score         DG    S(hbond)    S(metal)    S(lipo)     H(rot)  DE(clash)    DE(int)     intcor
     12.17     -14.87       0.23        0.00     106.84       1.52       0.93       1.77       ----

> <Gold.Chemscore.Fitness>
12.1730

> <Gold.Chemscore.DG>
-14.8741

> <Gold.Chemscore.ZeroCoef>
-5.4800

> <Gold.Chemscore.Hbond>
0.2318

> <Gold.Chemscore.Metal>
0.0000

> <Gold.Chemscore.Lipo>
106.8424

> <Gold.Chemscore.Internal_Hbond>
0.0000

> <Gold.Chemscore.DEClash>
0.9329

> <Gold.Chemscore.DEInternal>
1.7682

> <Gold.Chemscore.Rot>
1.5159

> <Gold.Chemscore.Internal.Correction>
   9.000000E+99

> <Gold.Chemscore.Hbonds>
donor molecule, donor type, donor heavy atom, donor atom, acceptor molecule, acceptor atom, score
      P1  H  7997  8010       L1    16  0.06

> <Gold.Chemscore.Hbond.Weighted>
-0.7742

> <Gold.Chemscore.Metal.Weighted>
-0.0000

> <Gold.Chemscore.Lipo.Weighted>
-12.5006

> <Gold.Chemscore.Internal_Hbond.Weighted>
0.0000

> <Gold.Chemscore.DEClash.Weighted>
0.9329

> <Gold.Chemscore.DEInternal.Weighted>
1.7682

> <Gold.Chemscore.Rot.Weighted>
3.8807

> <Gold.Chemscore.Internal.Correction.Weighted>
   9.000000E+99

> <Gold.Protein.RotatedTorsions>
[ 6907 6896 6895 6894 ] final   78.15 input  -60.11 | X-H torsion
[ 7974 7965 7964 7962 ] final  -45.71 input  175.53 | X-H torsion
[ 8008 7997 7996 7995 ] final   84.79 input   59.86 | X-H torsion
[ 10167 10162 10161 10158 ] final  151.32 input  -65.29 | X-H torsion
[ 10718 10713 10712 10709 ] final   99.95 input   66.30 | X-H torsion
[ 10763 10752 10751 10750 ] final -155.37 input  -60.55 | X-H torsion
[ 11005 11000 10999 10996 ] final   53.32 input  -57.11 | X-H torsion

> <Gold.Protein.ActiveResidues>
 VAL166  LYS551  ARG553  GLY616  TRP617  ASP618  TYR619  PRO620  LYS621  CYS622 
 ASP623  PHE694  ASN695  SER759  ASP760  ASP761  ALA762  ILE779  LEU786  VAL792 
 PHE793  MET794  SER795  GLU796  ALA797  LYS798  CYS799  TRP800  GLU811  SER814 

> <Gold.Protein.RotatedAtoms>
  152.5148  134.3708  159.9317 H   0  0  0  0  0  0  0  0  0  0  0  0  # atno 6907 bound_to 6896
  151.3662  133.3865  159.2702 H   0  0  0  0  0  0  0  0  0  0  0  0  # atno 6908 bound_to 6896
  150.9613  134.9020  159.7791 H   0  0  0  0  0  0  0  0  0  0  0  0  # atno 6909 bound_to 6896
  145.9793  140.7301  142.9371 H   0  0  0  0  0  0  0  0  0  0  0  0  # atno 7974 bound_to 7965
  155.9417  140.3407  155.6333 H   0  0  0  0  0  0  0  0  0  0  0  0  # atno 8008 bound_to 7997
  155.7031  140.0762  157.2420 H   0  0  0  0  0  0  0  0  0  0  0  0  # atno 8009 bound_to 7997
  154.4104  140.1636  156.2201 H   0  0  0  0  0  0  0  0  0  0  0  0  # atno 8010 bound_to 7997
  139.4841  144.5450  151.7500 H   0  0  0  0  0  0  0  0  0  0  0  0  # atno 10167 bound_to 10162
  157.6865  131.0684  150.5026 H   0  0  0  0  0  0  0  0  0  0  0  0  # atno 10718 bound_to 10713
  154.7792  135.3169  154.8026 H   0  0  0  0  0  0  0  0  0  0  0  0  # atno 10763 bound_to 10752
  153.8742  135.6841  153.4776 H   0  0  0  0  0  0  0  0  0  0  0  0  # atno 10764 bound_to 10752
  153.1424  135.4734  154.9452 H   0  0  0  0  0  0  0  0  0  0  0  0  # atno 10765 bound_to 10752
  140.0777  134.5382  155.8979 H   0  0  0  0  0  0  0  0  0  0  0  0  # atno 11005 bound_to 11000
  144.6857  140.2881  143.7282 LP  0  0  0  0  0  0  0  0  0  0  0  0  # atno 17320 bound_to 7965
  145.7793  139.1885  143.2167 LP  0  0  0  0  0  0  0  0  0  0  0  0  # atno 17321 bound_to 7965
  140.4995  144.1190  150.5968 LP  0  0  0  0  0  0  0  0  0  0  0  0  # atno 17342 bound_to 10162
  140.4078  143.2671  151.9869 LP  0  0  0  0  0  0  0  0  0  0  0  0  # atno 17343 bound_to 10162
  156.5347  130.4193  149.6184 LP  0  0  0  0  0  0  0  0  0  0  0  0  # atno 17370 bound_to 10713
  156.3038  130.7191  151.2069 LP  0  0  0  0  0  0  0  0  0  0  0  0  # atno 17371 bound_to 10713
  141.2035  133.6632  156.6068 LP  0  0  0  0  0  0  0  0  0  0  0  0  # atno 17394 bound_to 11000
  140.3534  134.7749  157.4483 LP  0  0  0  0  0  0  0  0  0  0  0  0  # atno 17395 bound_to 11000

$$$$
