AV-unprocessed.smi:756|AV-procd|sdf|3612|dock2
  -GOLD-   22720 1 03D 1   1.00000     0.00000
 Structure written by MMmdl.
 42 43  0  0  0  0  0  0  0  0  1 V2000
  151.1432  144.8753  159.1761 C   0  0  0  0  0  0  0  0  0  0  0  0
  151.9431  143.6301  159.5164 C   0  0  0  0  0  0  0  0  0  0  0  0
  152.5107  143.3682  160.6985 C   0  0  0  0  0  0  0  0  0  0  0  0
  153.3206  141.8211  160.7312 S   0  0  0  0  0  0  0  0  0  0  0  0
  152.8417  141.5244  159.0214 C   0  0  0  0  0  0  0  0  0  0  0  0
  153.1420  140.4987  158.4127 O   0  0  0  0  0  0  0  0  0  0  0  0
  152.1143  142.6207  158.5586 N   0  0  0  0  0  0  0  0  0  0  0  0
  151.5846  142.6998  157.1906 C   0  0  0  0  0  0  0  0  0  0  0  0
  150.5802  141.5858  156.8665 C   0  0  0  0  0  0  0  0  0  0  0  0
  150.7585  140.4333  157.2630 O   0  0  0  0  0  0  0  0  0  0  0  0
  149.5093  141.9548  156.1509 N   0  0  0  0  0  0  0  0  0  0  0  0
  148.4372  141.0544  155.7413 C   0  0  0  0  0  0  0  0  0  0  0  0
  148.0041  141.2625  154.2674 C   0  0  1  0  0  0  0  0  0  0  0  0
  147.2596  142.6008  154.0634 C   0  0  0  0  0  0  0  0  0  0  0  0
  149.1831  141.2979  153.4836 O   0  0  0  0  0  0  0  0  0  0  0  0
  147.1272  140.0678  153.7913 C   0  0  0  0  0  0  0  0  0  0  0  0
  147.6690  138.6677  154.1128 C   0  0  0  0  0  0  0  0  0  0  0  0
  146.8340  137.7322  153.2393 C   0  0  0  0  0  0  0  0  0  0  0  0
  146.5059  138.5314  151.9719 C   0  0  0  0  0  0  0  0  0  0  0  0
  146.8357  139.9998  152.2808 C   0  0  0  0  0  0  0  0  0  0  0  0
  150.8762  145.4154  160.0851 H   0  0  0  0  0  0  0  0  0  0  0  0
  150.2162  144.6261  158.6592 H   0  0  0  0  0  0  0  0  0  0  0  0
  151.7299  145.5437  158.5456 H   0  0  0  0  0  0  0  0  0  0  0  0
  152.4916  144.0023  161.5727 H   0  0  0  0  0  0  0  0  0  0  0  0
  151.1195  143.6672  157.0036 H   0  0  0  0  0  0  0  0  0  0  0  0
  152.4130  142.6385  156.4826 H   0  0  0  0  0  0  0  0  0  0  0  0
  149.4346  142.9179  155.8572 H   0  0  0  0  0  0  0  0  0  0  0  0
  148.7557  140.0247  155.9123 H   0  0  0  0  0  0  0  0  0  0  0  0
  147.5810  141.2291  156.3953 H   0  0  0  0  0  0  0  0  0  0  0  0
  146.3517  142.6388  154.6661 H   0  0  0  0  0  0  0  0  0  0  0  0
  146.9697  142.7475  153.0230 H   0  0  0  0  0  0  0  0  0  0  0  0
  147.8728  143.4599  154.3370 H   0  0  0  0  0  0  0  0  0  0  0  0
  149.1982  140.5327  152.9294 H   0  0  0  0  0  0  0  0  0  0  0  0
  146.1610  140.1501  154.2926 H   0  0  0  0  0  0  0  0  0  0  0  0
  148.7196  138.5861  153.8313 H   0  0  0  0  0  0  0  0  0  0  0  0
  147.5875  138.4157  155.1706 H   0  0  0  0  0  0  0  0  0  0  0  0
  147.3517  136.7978  153.0211 H   0  0  0  0  0  0  0  0  0  0  0  0
  145.9086  137.4810  153.7596 H   0  0  0  0  0  0  0  0  0  0  0  0
  147.1020  138.1818  151.1282 H   0  0  0  0  0  0  0  0  0  0  0  0
  145.4567  138.4078  151.7015 H   0  0  0  0  0  0  0  0  0  0  0  0
  146.0199  140.6641  151.9942 H   0  0  0  0  0  0  0  0  0  0  0  0
  147.7108  140.2953  151.7014 H   0  0  0  0  0  0  0  0  0  0  0  0
  1  2  1  0  0  0  0
  1 21  1  0  0  0  0
  1 22  1  0  0  0  0
  1 23  1  0  0  0  0
  2  7  1  0  0  0  0
  2  3  2  0  0  0  0
  3  4  1  0  0  0  0
  3 24  1  0  0  0  0
  4  5  1  0  0  0  0
  5  6  2  0  0  0  0
  5  7  1  0  0  0  0
  7  8  1  0  0  0  0
  8  9  1  0  0  0  0
  8 25  1  0  0  0  0
  8 26  1  0  0  0  0
  9 10  2  0  0  0  0
  9 11  1  0  0  0  0
 11 12  1  0  0  0  0
 11 27  1  0  0  0  0
 12 13  1  0  0  0  0
 12 28  1  0  0  0  0
 12 29  1  0  0  0  0
 13 14  1  0  0  0  0
 13 15  1  0  0  0  0
 13 16  1  0  0  0  0
 14 30  1  0  0  0  0
 14 31  1  0  0  0  0
 14 32  1  0  0  0  0
 15 33  1  0  0  0  0
 16 20  1  0  0  0  0
 16 17  1  0  0  0  0
 16 34  1  0  0  0  0
 17 18  1  0  0  0  0
 17 35  1  0  0  0  0
 17 36  1  0  0  0  0
 18 19  1  0  0  0  0
 18 37  1  0  0  0  0
 18 38  1  0  0  0  0
 19 20  1  0  0  0  0
 19 39  1  0  0  0  0
 19 40  1  0  0  0  0
 20 41  1  0  0  0  0
 20 42  1  0  0  0  0
M  END
> <s_m_source_file>
AV-unprocessed.smi

> <i_m_source_file_index>
756

> <i_lp_mmshare_version>
43012

> <i_f3d_flags>
0

> <s_epik_input>
W0NIM11jMVtjSF1zYyg9TyluMVtDSDJdQyg9TylbTkhdW0NIMl1bQ0BAXShbQ0gzXSkoW09IXSlbQ0hdMltDSDJdW0NIMl1bQ0gyXVtDSDJdMg==

> <s_epik_cmdline>
J2VwaWtfcHl0aG9uJywgJy1waCcsICc3LjAnLCAnLXRuJywgJzgnLCAnLW1hJywgJzIwMCcsICctbWV0YWxfYmluZGluZycsICctaW1hZScsICc8aW5maWxlLm1hZT4nLCAnLW9tYWUnLCAnPG91dGZpbGUubWFlPic=

> <r_lp_tautomer_probability>
1

> <r_epik_Ionization_Penalty>
1.53576e-06

> <r_epik_Ionization_Penalty_Charging>
1.31044e-06

> <r_epik_Ionization_Penalty_Neutral>
2.25323e-07

> <r_epik_State_Penalty>
-0

> <r_epik_Charging_Adjusted_Penalty>
1.31044e-06

> <i_epik_Tot_Q>
0

> <i_epik_Tot_abs_Q>
0

> <r_epik_Metal_State_Penalty>
-0

> <b_epik_Metal_Only>
0

> <s_lp_Force_Field>
OPLS_2005

> <r_lp_Energy>
32.8559

> <b_lp_Chiralities_Consistent>
1

> <s_lp_Variant>
AV-unprocessed.smi:756-1

> <Gold.Version>
5.8.1

> <Gold.Id.Protein>
6NUR|6NUR_protein|mol2

> <Gold.PLP.Fitness>
50.8942

> <Gold.PLP.PLP>
-41.4377

> <Gold.PLP.part.hbond>
-5.0000

> <Gold.PLP.part.metal>
0.0000

> <Gold.PLP.part.buried>
0.3804

> <Gold.PLP.part.nonpolar>
-36.2769

> <Gold.PLP.part.repulsive>
0.0799

> <Gold.PLP.ligand.clash>
0.0000

> <Gold.PLP.ligand.torsion>
0.6284

> <Gold.PLP.Chemscore.Hbond>
3.5557

> <Gold.PLP.Chemscore.CHOScore>
0.0000

> <Gold.PLP.Chemscore.Metal>
0.0000

> <Gold.Chemscore.Hbonds>
donor molecule, donor type, donor heavy atom, donor atom, acceptor molecule, acceptor atom, score
      L1  H    11    27       P1  8028  1.00
      L1  H    15    33       P1  7957  0.78
      P1  H  7997  8009       L1     6  0.74
      P1  H  8011  8017       L1    15  0.82

> <Gold.PLP.Chemscore.Internal.Correction>
0.0462

> <Gold.Rescore>
     Score         DG    S(hbond)    S(metal)    S(lipo)     H(rot)  DE(clash)    DE(int)     intcor
     15.99     -21.15       2.83        0.00     104.99       2.37       2.00       3.16       ----

> <Gold.Chemscore.Fitness>
15.9881

> <Gold.Chemscore.DG>
-21.1483

> <Gold.Chemscore.ZeroCoef>
-5.4800

> <Gold.Chemscore.Hbond>
2.8311

> <Gold.Chemscore.Metal>
0.0000

> <Gold.Chemscore.Lipo>
104.9902

> <Gold.Chemscore.Internal_Hbond>
0.0000

> <Gold.Chemscore.DEClash>
2.0001

> <Gold.Chemscore.DEInternal>
3.1600

> <Gold.Chemscore.Rot>
2.3717

> <Gold.Chemscore.Internal.Correction>
   9.000000E+99

> <Gold.Chemscore.Hbonds>
donor molecule, donor type, donor heavy atom, donor atom, acceptor molecule, acceptor atom, score
      L1  H    11    27       P1  8028  1.00
      L1  H    15    33       P1  7957  0.79
      P1  H  7997  8009       L1     6  0.70
      P1  H  8011  8017       L1    15  0.14

> <Gold.Chemscore.Hbond.Weighted>
-9.4560

> <Gold.Chemscore.Metal.Weighted>
-0.0000

> <Gold.Chemscore.Lipo.Weighted>
-12.2838

> <Gold.Chemscore.Internal_Hbond.Weighted>
0.0000

> <Gold.Chemscore.DEClash.Weighted>
2.0001

> <Gold.Chemscore.DEInternal.Weighted>
3.1600

> <Gold.Chemscore.Rot.Weighted>
6.0715

> <Gold.Chemscore.Internal.Correction.Weighted>
   9.000000E+99

> <Gold.Protein.RotatedTorsions>
[ 6907 6896 6895 6894 ] final  138.70 input  -60.11 | X-H torsion
[ 7974 7965 7964 7962 ] final -148.00 input  175.53 | X-H torsion
[ 8008 7997 7996 7995 ] final  148.58 input   59.86 | X-H torsion
[ 10167 10162 10161 10158 ] final   11.67 input  -65.29 | X-H torsion
[ 10718 10713 10712 10709 ] final   63.16 input   66.30 | X-H torsion
[ 10763 10752 10751 10750 ] final   72.69 input  -60.55 | X-H torsion
[ 11005 11000 10999 10996 ] final  -45.00 input  -57.11 | X-H torsion

> <Gold.Protein.ActiveResidues>
 VAL166  LYS551  ARG553  GLY616  TRP617  ASP618  TYR619  PRO620  LYS621  CYS622 
 ASP623  PHE694  ASN695  SER759  ASP760  ASP761  ALA762  ILE779  LEU786  VAL792 
 PHE793  MET794  SER795  GLU796  ALA797  LYS798  CYS799  TRP800  GLU811  SER814 

> <Gold.Protein.RotatedAtoms>
  152.2635  133.5318  159.5395 H   0  0  0  0  0  0  0  0  0  0  0  0  # atno 6907 bound_to 6896
  150.7133  134.0797  159.3902 H   0  0  0  0  0  0  0  0  0  0  0  0  # atno 6908 bound_to 6896
  151.8714  135.0488  160.0530 H   0  0  0  0  0  0  0  0  0  0  0  0  # atno 6909 bound_to 6896
  144.8057  140.5253  143.5677 H   0  0  0  0  0  0  0  0  0  0  0  0  # atno 7974 bound_to 7965
  156.2786  140.2125  156.5722 H   0  0  0  0  0  0  0  0  0  0  0  0  # atno 8008 bound_to 7997
  154.7127  140.0510  157.0588 H   0  0  0  0  0  0  0  0  0  0  0  0  # atno 8009 bound_to 7997
  155.0584  140.3164  155.4671 H   0  0  0  0  0  0  0  0  0  0  0  0  # atno 8010 bound_to 7997
  140.6117  143.8394  150.7072 H   0  0  0  0  0  0  0  0  0  0  0  0  # atno 10167 bound_to 10162
  157.5951  130.9090  149.9680 H   0  0  0  0  0  0  0  0  0  0  0  0  # atno 10718 bound_to 10713
  153.0475  135.5090  154.7782 H   0  0  0  0  0  0  0  0  0  0  0  0  # atno 10763 bound_to 10752
  154.6671  135.2947  154.9793 H   0  0  0  0  0  0  0  0  0  0  0  0  # atno 10764 bound_to 10752
  154.0624  135.6689  153.4866 H   0  0  0  0  0  0  0  0  0  0  0  0  # atno 10765 bound_to 10752
  141.0487  133.6751  156.2952 H   0  0  0  0  0  0  0  0  0  0  0  0  # atno 11005 bound_to 11000
  145.5444  139.1475  143.3429 LP  0  0  0  0  0  0  0  0  0  0  0  0  # atno 17320 bound_to 7965
  146.2348  140.5583  142.8960 LP  0  0  0  0  0  0  0  0  0  0  0  0  # atno 17321 bound_to 7965
  140.1964  143.3995  152.1825 LP  0  0  0  0  0  0  0  0  0  0  0  0  # atno 17342 bound_to 10162
  139.5366  144.7216  151.4872 LP  0  0  0  0  0  0  0  0  0  0  0  0  # atno 17343 bound_to 10162
  156.1013  130.3655  150.0213 LP  0  0  0  0  0  0  0  0  0  0  0  0  # atno 17370 bound_to 10713
  156.8328  130.9398  151.3636 LP  0  0  0  0  0  0  0  0  0  0  0  0  # atno 17371 bound_to 10713
  140.6096  134.5472  157.5531 LP  0  0  0  0  0  0  0  0  0  0  0  0  # atno 17394 bound_to 11000
  139.9333  134.7923  156.0871 LP  0  0  0  0  0  0  0  0  0  0  0  0  # atno 17395 bound_to 11000

$$$$
