AV-unprocessed.smi:1199|AV-procd|sdf|5019|dock5
  -GOLD-   22720 4 43D 1   1.00000     0.00000
 Structure written by MMmdl.
 41 42  0  0  0  0  0  0  0  0  1 V2000
  151.3671  138.8830  157.2998 C   0  0  0  0  0  0  0  0  0  0  0  0
  150.5125  139.3797  158.4757 C   0  0  1  0  0  0  0  0  0  0  0  0
  150.1564  140.8760  158.3317 C   0  0  0  0  0  0  0  0  0  0  0  0
  151.2954  141.7944  158.2460 N   0  0  0  0  0  0  0  0  0  0  0  0
  152.1459  141.7642  159.4354 C   0  0  0  0  0  0  0  0  0  0  0  0
  153.3082  142.7678  159.3452 C   0  0  0  0  0  0  0  0  0  0  0  0
  152.7967  144.0761  159.1163 O   0  0  0  0  0  0  0  0  0  0  0  0
  152.0130  144.1554  157.9306 C   0  0  0  0  0  0  0  0  0  0  0  0
  150.8409  143.1634  158.0244 C   0  0  0  0  0  0  0  0  0  0  0  0
  149.2862  138.5879  158.5339 N   0  0  0  0  0  0  0  0  0  0  0  0
  149.1787  137.3519  159.0444 C   0  0  0  0  0  0  0  0  0  0  0  0
  150.1420  136.6935  159.4371 O   0  0  0  0  0  0  0  0  0  0  0  0
  147.7597  136.7784  159.1311 C   0  0  0  0  0  0  0  0  0  0  0  0
  147.4799  136.2432  160.4704 N   0  0  0  0  0  0  0  0  0  0  0  0
  147.6747  137.1644  161.4898 N   0  0  0  0  0  0  0  0  0  0  0  0
  147.5110  136.8109  162.7193 C   0  0  0  0  0  0  0  0  0  0  0  0
  147.7223  137.7533  163.6955 O   0  0  0  0  0  0  0  0  0  0  0  0
  147.1159  135.4633  163.0640 C   0  0  0  0  0  0  0  0  0  0  0  0
  146.9227  134.5747  162.0647 C   0  0  0  0  0  0  0  0  0  0  0  0
  147.1060  134.9401  160.6589 C   0  0  0  0  0  0  0  0  0  0  0  0
  146.9457  134.1472  159.7315 O   0  0  0  0  0  0  0  0  0  0  0  0
  147.1297  138.4612  163.4937 H   0  0  0  0  0  0  0  0  0  0  0  0
  152.3064  139.4335  157.2378 H   0  0  0  0  0  0  0  0  0  0  0  0
  150.8467  139.0039  156.3493 H   0  0  0  0  0  0  0  0  0  0  0  0
  151.6156  137.8273  157.4133 H   0  0  0  0  0  0  0  0  0  0  0  0
  151.1009  139.2506  159.3862 H   0  0  0  0  0  0  0  0  0  0  0  0
  149.5793  140.9853  157.4125 H   0  0  0  0  0  0  0  0  0  0  0  0
  149.4812  141.1832  159.1323 H   0  0  0  0  0  0  0  0  0  0  0  0
  151.5500  141.9774  160.3242 H   0  0  0  0  0  0  0  0  0  0  0  0
  152.5705  140.7712  159.5698 H   0  0  0  0  0  0  0  0  0  0  0  0
  153.8831  142.7647  160.2716 H   0  0  0  0  0  0  0  0  0  0  0  0
  153.9936  142.4926  158.5420 H   0  0  0  0  0  0  0  0  0  0  0  0
  151.6406  145.1736  157.8168 H   0  0  0  0  0  0  0  0  0  0  0  0
  152.6333  143.9406  157.0589 H   0  0  0  0  0  0  0  0  0  0  0  0
  150.2534  143.2147  157.1069 H   0  0  0  0  0  0  0  0  0  0  0  0
  150.1781  143.4683  158.8359 H   0  0  0  0  0  0  0  0  0  0  0  0
  148.4401  139.0433  158.2239 H   0  0  0  0  0  0  0  0  0  0  0  0
  147.0279  137.5518  158.8879 H   0  0  0  0  0  0  0  0  0  0  0  0
  147.6411  136.0153  158.3603 H   0  0  0  0  0  0  0  0  0  0  0  0
  146.9806  135.1835  164.0982 H   0  0  0  0  0  0  0  0  0  0  0  0
  146.6284  133.5645  162.3083 H   0  0  0  0  0  0  0  0  0  0  0  0
  1  2  1  0  0  0  0
  1 23  1  0  0  0  0
  1 24  1  0  0  0  0
  1 25  1  0  0  0  0
  2  3  1  0  0  0  0
  2 10  1  0  0  0  0
  2 26  1  0  0  0  0
  3  4  1  0  0  0  0
  3 27  1  0  0  0  0
  3 28  1  0  0  0  0
  4  9  1  0  0  0  0
  4  5  1  0  0  0  0
  5  6  1  0  0  0  0
  5 29  1  0  0  0  0
  5 30  1  0  0  0  0
  6  7  1  0  0  0  0
  6 31  1  0  0  0  0
  6 32  1  0  0  0  0
  7  8  1  0  0  0  0
  8  9  1  0  0  0  0
  8 33  1  0  0  0  0
  8 34  1  0  0  0  0
  9 35  1  0  0  0  0
  9 36  1  0  0  0  0
 10 11  1  0  0  0  0
 10 37  1  0  0  0  0
 11 12  2  0  0  0  0
 11 13  1  0  0  0  0
 13 38  1  0  0  0  0
 13 39  1  0  0  0  0
 13 14  1  0  0  0  0
 14 15  1  0  0  0  0
 14 20  1  0  0  0  0
 15 16  2  0  0  0  0
 16 17  1  0  0  0  0
 16 18  1  0  0  0  0
 17 22  1  0  0  0  0
 18 40  1  0  0  0  0
 18 19  2  0  0  0  0
 19 41  1  0  0  0  0
 19 20  1  0  0  0  0
 20 21  2  0  0  0  0
M  END
> <s_m_source_file>
AV-unprocessed.smi

> <i_m_source_file_index>
1199

> <i_lp_mmshare_version>
43012

> <i_f3d_flags>
0

> <s_epik_input>
W0NIMl0xW0NIMl1PW0NIMl1bQ0gyXU4xW0NIMl1bQ0BASF0oW0NIM10pW05IXUMoPU8pW0NIMl1uMltuSF1jKD1PKVtjSF1bY0hdYzI9Tw==

> <s_epik_cmdline>
J2VwaWtfcHl0aG9uJywgJy1waCcsICc3LjAnLCAnLXRuJywgJzgnLCAnLW1hJywgJzIwMCcsICctbWV0YWxfYmluZGluZycsICctaW1hZScsICc8aW5maWxlLm1hZT4nLCAnLW9tYWUnLCAnPG91dGZpbGUubWFlPic=

> <r_epik_Ionization_Penalty>
2.36432

> <r_epik_Ionization_Penalty_Charging>
3.67277e-08

> <r_epik_Ionization_Penalty_Neutral>
2.36432

> <r_epik_State_Penalty>
1.96081

> <r_epik_Charging_Adjusted_Penalty>
1.96081

> <i_epik_Tot_Q>
0

> <i_epik_Tot_abs_Q>
0

> <r_epik_Metal_State_Penalty>
1.96081

> <b_epik_Metal_Only>
0

> <s_lp_Force_Field>
OPLS_2005

> <r_lp_Energy>
38.3542

> <b_lp_Chiralities_Consistent>
1

> <s_lp_Variant>
AV-unprocessed.smi:1199-6

> <Gold.Version>
5.8.1

> <Gold.Id.Protein>
6NUR|6NUR_protein|mol2

> <Gold.PLP.Fitness>
46.4753

> <Gold.PLP.PLP>
-40.9745

> <Gold.PLP.part.hbond>
-4.0000

> <Gold.PLP.part.metal>
0.0000

> <Gold.PLP.part.buried>
-6.1744

> <Gold.PLP.part.nonpolar>
-32.3908

> <Gold.PLP.part.repulsive>
0.2057

> <Gold.PLP.ligand.clash>
0.0000

> <Gold.PLP.ligand.torsion>
0.3972

> <Gold.PLP.Chemscore.Hbond>
2.0946

> <Gold.PLP.Chemscore.CHOScore>
0.0000

> <Gold.PLP.Chemscore.Metal>
0.0000

> <Gold.Chemscore.Hbonds>
donor molecule, donor type, donor heavy atom, donor atom, acceptor molecule, acceptor atom, score
      P1  H  6896  6907       L1    12  1.00
      P1  H  6931  6943       L1    15  0.60
      P1  H  6934  6947       L1    15  0.78

> <Gold.PLP.Chemscore.Internal.Correction>
0.0114

> <Gold.Rescore>
     Score         DG    S(hbond)    S(metal)    S(lipo)     H(rot)  DE(clash)    DE(int)     intcor
     12.51     -13.04       1.82        0.00      77.12       2.94       0.08       0.44       ----

> <Gold.Chemscore.Fitness>
12.5116

> <Gold.Chemscore.DG>
-13.0381

> <Gold.Chemscore.ZeroCoef>
-5.4800

> <Gold.Chemscore.Hbond>
1.8177

> <Gold.Chemscore.Metal>
0.0000

> <Gold.Chemscore.Lipo>
77.1202

> <Gold.Chemscore.Internal_Hbond>
0.0000

> <Gold.Chemscore.DEClash>
0.0848

> <Gold.Chemscore.DEInternal>
0.4418

> <Gold.Chemscore.Rot>
2.9437

> <Gold.Chemscore.Internal.Correction>
   9.000000E+99

> <Gold.Chemscore.Hbonds>
donor molecule, donor type, donor heavy atom, donor atom, acceptor molecule, acceptor atom, score
      P1  H  6896  6907       L1    12  0.98
      P1  H  6931  6943       L1    15  0.04
      P1  H  6934  6947       L1    15  0.64

> <Gold.Chemscore.Hbond.Weighted>
-6.0710

> <Gold.Chemscore.Metal.Weighted>
-0.0000

> <Gold.Chemscore.Lipo.Weighted>
-9.0231

> <Gold.Chemscore.Internal_Hbond.Weighted>
0.0000

> <Gold.Chemscore.DEClash.Weighted>
0.0848

> <Gold.Chemscore.DEInternal.Weighted>
0.4418

> <Gold.Chemscore.Rot.Weighted>
7.5359

> <Gold.Chemscore.Internal.Correction.Weighted>
   9.000000E+99

> <Gold.Protein.RotatedTorsions>
[ 6907 6896 6895 6894 ] final  -48.82 input  -60.11 | X-H torsion
[ 7974 7965 7964 7962 ] final -174.57 input  175.53 | X-H torsion
[ 8008 7997 7996 7995 ] final  163.41 input   59.86 | X-H torsion
[ 10167 10162 10161 10158 ] final  144.28 input  -65.29 | X-H torsion
[ 10718 10713 10712 10709 ] final -160.94 input   66.30 | X-H torsion
[ 10763 10752 10751 10750 ] final -105.52 input  -60.55 | X-H torsion
[ 11005 11000 10999 10996 ] final  150.70 input  -57.11 | X-H torsion

> <Gold.Protein.ActiveResidues>
 VAL166  LYS551  ARG553  GLY616  TRP617  ASP618  TYR619  PRO620  LYS621  CYS622 
 ASP623  PHE694  ASN695  SER759  ASP760  ASP761  ALA762  ILE779  LEU786  VAL792 
 PHE793  MET794  SER795  GLU796  ALA797  LYS798  CYS799  TRP800  GLU811  SER814 

> <Gold.Protein.RotatedAtoms>
  150.8867  134.8266  159.7263 H   0  0  0  0  0  0  0  0  0  0  0  0  # atno 6907 bound_to 6896
  152.4812  134.4711  159.9646 H   0  0  0  0  0  0  0  0  0  0  0  0  # atno 6908 bound_to 6896
  151.4779  133.3514  159.2869 H   0  0  0  0  0  0  0  0  0  0  0  0  # atno 6909 bound_to 6896
  144.7131  140.1451  143.6388 H   0  0  0  0  0  0  0  0  0  0  0  0  # atno 7974 bound_to 7965
  156.1959  140.1724  156.7999 H   0  0  0  0  0  0  0  0  0  0  0  0  # atno 8008 bound_to 7997
  154.5529  140.0714  156.8728 H   0  0  0  0  0  0  0  0  0  0  0  0  # atno 8009 bound_to 7997
  155.2995  140.3360  155.4251 H   0  0  0  0  0  0  0  0  0  0  0  0  # atno 8010 bound_to 7997
  139.4950  144.5983  151.6536 H   0  0  0  0  0  0  0  0  0  0  0  0  # atno 10167 bound_to 10162
  156.5892  130.8762  151.2885 H   0  0  0  0  0  0  0  0  0  0  0  0  # atno 10718 bound_to 10713
  154.7952  135.4746  154.0145 H   0  0  0  0  0  0  0  0  0  0  0  0  # atno 10763 bound_to 10752
  153.1692  135.6822  153.8638 H   0  0  0  0  0  0  0  0  0  0  0  0  # atno 10764 bound_to 10752
  153.8226  135.3202  155.3389 H   0  0  0  0  0  0  0  0  0  0  0  0  # atno 10765 bound_to 10752
  140.1154  134.8897  157.1997 H   0  0  0  0  0  0  0  0  0  0  0  0  # atno 11005 bound_to 11000
  145.9167  139.2520  143.1406 LP  0  0  0  0  0  0  0  0  0  0  0  0  # atno 17320 bound_to 7965
  145.9662  140.8797  143.0186 LP  0  0  0  0  0  0  0  0  0  0  0  0  # atno 17321 bound_to 7965
  140.5626  144.0243  150.6177 LP  0  0  0  0  0  0  0  0  0  0  0  0  # atno 17342 bound_to 10162
  140.3334  143.3063  152.0663 LP  0  0  0  0  0  0  0  0  0  0  0  0  # atno 17343 bound_to 10162
  157.7308  130.9690  150.1849 LP  0  0  0  0  0  0  0  0  0  0  0  0  # atno 17370 bound_to 10713
  156.2565  130.3706  149.8176 LP  0  0  0  0  0  0  0  0  0  0  0  0  # atno 17371 bound_to 10713
  140.3035  134.3105  155.7284 LP  0  0  0  0  0  0  0  0  0  0  0  0  # atno 17394 bound_to 11000
  141.2140  133.7606  156.9674 LP  0  0  0  0  0  0  0  0  0  0  0  0  # atno 17395 bound_to 11000

$$$$
