AV-unprocessed.smi:1450|AV-procd|sdf|5897|dock4
  -GOLD-   22720 5583D 1   1.00000     0.00000
 Structure written by MMmdl.
 31 32  0  0  0  0  0  0  0  0  1 V2000
  150.4086  140.5133  156.3333 O   0  0  0  0  0  0  0  0  0  0  0  0
  150.1313  141.7015  156.1700 C   0  0  0  0  0  0  0  0  0  0  0  0
  149.2975  142.1420  155.2177 N   0  0  0  0  0  0  0  0  0  0  0  0
  148.6107  141.2951  154.2485 C   0  0  0  0  0  0  0  0  0  0  0  0
  147.0948  141.5644  154.2233 C   0  0  2  0  0  0  0  0  0  0  0  0
  146.7081  142.9859  153.8630 C   0  0  0  0  0  0  0  0  0  0  0  0
  145.2815  143.0698  154.3968 C   0  0  0  0  0  0  0  0  0  0  0  0
  145.2352  142.2016  155.5254 O   0  0  0  0  0  0  0  0  0  0  0  0
  146.4175  141.4090  155.5845 C   0  0  0  0  0  0  0  0  0  0  0  0
  150.6282  142.7221  156.8894 N   0  0  0  0  0  0  0  0  0  0  0  0
  151.5159  142.6714  157.9977 C   0  0  0  0  0  0  0  0  0  0  0  0
  152.0322  143.8133  158.6569 C   0  0  0  0  0  0  0  0  0  0  0  0
  152.9238  143.6319  159.7318 C   0  0  0  0  0  0  0  0  0  0  0  0
  153.2710  142.3186  160.1040 C   0  0  0  0  0  0  0  0  0  0  0  0
  152.7973  141.2219  159.4760 N   0  0  0  0  0  0  0  0  0  0  0  0
  151.9441  141.4036  158.4455 C   0  0  0  0  0  0  0  0  0  0  0  0
  149.1308  143.1355  155.1525 H   0  0  0  0  0  0  0  0  0  0  0  0
  149.0360  141.4403  153.2539 H   0  0  0  0  0  0  0  0  0  0  0  0
  148.8027  140.2553  154.5141 H   0  0  0  0  0  0  0  0  0  0  0  0
  146.6126  140.8835  153.5193 H   0  0  0  0  0  0  0  0  0  0  0  0
  147.3459  143.6990  154.3873 H   0  0  0  0  0  0  0  0  0  0  0  0
  146.7716  143.1913  152.7939 H   0  0  0  0  0  0  0  0  0  0  0  0
  144.9967  144.0876  154.6647 H   0  0  0  0  0  0  0  0  0  0  0  0
  144.5746  142.7053  153.6505 H   0  0  0  0  0  0  0  0  0  0  0  0
  146.1875  140.3692  155.8186 H   0  0  0  0  0  0  0  0  0  0  0  0
  147.0516  141.8015  156.3808 H   0  0  0  0  0  0  0  0  0  0  0  0
  150.3809  143.6492  156.5756 H   0  0  0  0  0  0  0  0  0  0  0  0
  151.7775  144.8166  158.3525 H   0  0  0  0  0  0  0  0  0  0  0  0
  153.3363  144.4810  160.2564 H   0  0  0  0  0  0  0  0  0  0  0  0
  153.9529  142.1444  160.9233 H   0  0  0  0  0  0  0  0  0  0  0  0
  151.5879  140.5040  157.9648 H   0  0  0  0  0  0  0  0  0  0  0  0
  1  2  2  0  0  0  0
  2  3  1  0  0  0  0
  2 10  1  0  0  0  0
  3  4  1  0  0  0  0
  3 17  1  0  0  0  0
  4  5  1  0  0  0  0
  4 18  1  0  0  0  0
  4 19  1  0  0  0  0
  5  9  1  0  0  0  0
  5  6  1  0  0  0  0
  5 20  1  0  0  0  0
  6  7  1  0  0  0  0
  6 21  1  0  0  0  0
  6 22  1  0  0  0  0
  7  8  1  0  0  0  0
  7 23  1  0  0  0  0
  7 24  1  0  0  0  0
  8  9  1  0  0  0  0
  9 25  1  0  0  0  0
  9 26  1  0  0  0  0
 10 11  1  0  0  0  0
 10 27  1  0  0  0  0
 11 16  1  0  0  0  0
 11 12  2  0  0  0  0
 12 13  1  0  0  0  0
 12 28  1  0  0  0  0
 13 14  2  0  0  0  0
 13 29  1  0  0  0  0
 14 15  1  0  0  0  0
 14 30  1  0  0  0  0
 15 16  2  0  0  0  0
 16 31  1  0  0  0  0
M  END
> <s_m_source_file>
AV-unprocessed.smi

> <i_m_source_file_index>
1450

> <i_lp_mmshare_version>
43012

> <i_f3d_flags>
0

> <s_epik_input>
W2NIXTFuW2NIXVtjSF1bY0hdYzFbTkhdQyg9TylbTkhdW0NIMl1bQ0BASF0yW0NIMl1bQ0gyXU9bQ0gyXTI=

> <s_epik_cmdline>
J2VwaWtfcHl0aG9uJywgJy1waCcsICc3LjAnLCAnLXRuJywgJzgnLCAnLW1hJywgJzIwMCcsICctbWV0YWxfYmluZGluZycsICctaW1hZScsICc8aW5maWxlLm1hZT4nLCAnLW9tYWUnLCAnPG91dGZpbGUubWFlPic=

> <r_epik_Ionization_Penalty>
0.00478342

> <r_epik_Ionization_Penalty_Charging>
0

> <r_epik_Ionization_Penalty_Neutral>
0.00478342

> <r_epik_State_Penalty>
0.0034384

> <r_epik_Charging_Adjusted_Penalty>
0.0034384

> <i_epik_Tot_Q>
0

> <i_epik_Tot_abs_Q>
0

> <r_epik_Metal_State_Penalty>
-0

> <b_epik_Metal_Only>
0

> <s_lp_Force_Field>
OPLS_2005

> <r_lp_Energy>
20.8722

> <b_lp_Chiralities_Consistent>
1

> <s_lp_Variant>
AV-unprocessed.smi:1450-1

> <Gold.Version>
5.8.1

> <Gold.Id.Protein>
6NUR|6NUR_protein|mol2

> <Gold.PLP.Fitness>
40.5168

> <Gold.PLP.PLP>
-34.7974

> <Gold.PLP.part.hbond>
-2.0000

> <Gold.PLP.part.metal>
0.0000

> <Gold.PLP.part.buried>
-5.3539

> <Gold.PLP.part.nonpolar>
-28.2544

> <Gold.PLP.part.repulsive>
0.3866

> <Gold.PLP.ligand.clash>
0.0000

> <Gold.PLP.ligand.torsion>
0.0358

> <Gold.PLP.Chemscore.Hbond>
1.9280

> <Gold.PLP.Chemscore.CHOScore>
0.0000

> <Gold.PLP.Chemscore.Metal>
0.0000

> <Gold.Chemscore.Hbonds>
donor molecule, donor type, donor heavy atom, donor atom, acceptor molecule, acceptor atom, score
      L1  H     3    17       P1  8028  1.00
      L1  H    10    27       P1  8028  0.86

> <Gold.PLP.Chemscore.Internal.Correction>
0.0070

> <Gold.Rescore>
     Score         DG    S(hbond)    S(metal)    S(lipo)     H(rot)  DE(clash)    DE(int)     intcor
     17.22     -18.84       1.94        0.00      85.83       1.24       0.08       1.53       ----

> <Gold.Chemscore.Fitness>
17.2196

> <Gold.Chemscore.DG>
-18.8372

> <Gold.Chemscore.ZeroCoef>
-5.4800

> <Gold.Chemscore.Hbond>
1.9422

> <Gold.Chemscore.Metal>
0.0000

> <Gold.Chemscore.Lipo>
85.8306

> <Gold.Chemscore.Internal_Hbond>
0.0000

> <Gold.Chemscore.DEClash>
0.0842

> <Gold.Chemscore.DEInternal>
1.5334

> <Gold.Chemscore.Rot>
1.2390

> <Gold.Chemscore.Internal.Correction>
   9.000000E+99

> <Gold.Chemscore.Hbonds>
donor molecule, donor type, donor heavy atom, donor atom, acceptor molecule, acceptor atom, score
      L1  H     3    17       P1  8028  0.99
      L1  H    10    27       P1  8028  0.79

> <Gold.Chemscore.Hbond.Weighted>
-6.4868

> <Gold.Chemscore.Metal.Weighted>
-0.0000

> <Gold.Chemscore.Lipo.Weighted>
-10.0422

> <Gold.Chemscore.Internal_Hbond.Weighted>
0.0000

> <Gold.Chemscore.DEClash.Weighted>
0.0842

> <Gold.Chemscore.DEInternal.Weighted>
1.5334

> <Gold.Chemscore.Rot.Weighted>
3.1718

> <Gold.Chemscore.Internal.Correction.Weighted>
   9.000000E+99

> <Gold.Protein.RotatedTorsions>
[ 6907 6896 6895 6894 ] final  130.39 input  -60.11 | X-H torsion
[ 7974 7965 7964 7962 ] final -118.52 input  175.53 | X-H torsion
[ 8008 7997 7996 7995 ] final  124.98 input   59.86 | X-H torsion
[ 10167 10162 10161 10158 ] final   65.50 input  -65.29 | X-H torsion
[ 10718 10713 10712 10709 ] final    7.38 input   66.30 | X-H torsion
[ 10763 10752 10751 10750 ] final  -68.80 input  -60.55 | X-H torsion
[ 11005 11000 10999 10996 ] final   61.90 input  -57.11 | X-H torsion

> <Gold.Protein.ActiveResidues>
 VAL166  LYS551  ARG553  GLY616  TRP617  ASP618  TYR619  PRO620  LYS621  CYS622 
 ASP623  PHE694  ASN695  SER759  ASP760  ASP761  ALA762  ILE779  LEU786  VAL792 
 PHE793  MET794  SER795  GLU796  ALA797  LYS798  CYS799  TRP800  GLU811  SER814 

> <Gold.Protein.RotatedAtoms>
  152.3531  133.6203  159.5958 H   0  0  0  0  0  0  0  0  0  0  0  0  # atno 6907 bound_to 6896
  150.7550  133.9543  159.3504 H   0  0  0  0  0  0  0  0  0  0  0  0  # atno 6908 bound_to 6896
  151.7392  135.0859  160.0364 H   0  0  0  0  0  0  0  0  0  0  0  0  # atno 6909 bound_to 6896
  145.0729  140.8372  143.4085 H   0  0  0  0  0  0  0  0  0  0  0  0  # atno 7974 bound_to 7965
  156.2819  140.2727  156.1876 H   0  0  0  0  0  0  0  0  0  0  0  0  # atno 8008 bound_to 7997
  155.0492  140.0386  157.2555 H   0  0  0  0  0  0  0  0  0  0  0  0  # atno 8009 bound_to 7997
  154.7209  140.2687  155.6547 H   0  0  0  0  0  0  0  0  0  0  0  0  # atno 8010 bound_to 7997
  140.1106  144.4821  150.6980 H   0  0  0  0  0  0  0  0  0  0  0  0  # atno 10167 bound_to 10162
  156.9360  130.5844  149.5651 H   0  0  0  0  0  0  0  0  0  0  0  0  # atno 10718 bound_to 10713
  154.3942  135.6046  153.5860 H   0  0  0  0  0  0  0  0  0  0  0  0  # atno 10763 bound_to 10752
  152.9787  135.5891  154.4261 H   0  0  0  0  0  0  0  0  0  0  0  0  # atno 10764 bound_to 10752
  154.4050  135.2843  155.2051 H   0  0  0  0  0  0  0  0  0  0  0  0  # atno 10765 bound_to 10752
  140.0129  134.6269  155.9753 H   0  0  0  0  0  0  0  0  0  0  0  0  # atno 11005 bound_to 11000
  145.1270  139.2656  143.5559 LP  0  0  0  0  0  0  0  0  0  0  0  0  # atno 17320 bound_to 7965
  146.3529  140.0910  142.8612 LP  0  0  0  0  0  0  0  0  0  0  0  0  # atno 17321 bound_to 7965
  140.6927  143.2385  151.5085 LP  0  0  0  0  0  0  0  0  0  0  0  0  # atno 17342 bound_to 10162
  139.5621  144.2131  152.1708 LP  0  0  0  0  0  0  0  0  0  0  0  0  # atno 17343 bound_to 10162
  156.0425  130.5506  150.8805 LP  0  0  0  0  0  0  0  0  0  0  0  0  # atno 17370 bound_to 10713
  157.5816  131.0946  150.9262 LP  0  0  0  0  0  0  0  0  0  0  0  0  # atno 17371 bound_to 10713
  141.1723  133.6538  156.4698 LP  0  0  0  0  0  0  0  0  0  0  0  0  # atno 17394 bound_to 11000
  140.4522  134.6918  157.5045 LP  0  0  0  0  0  0  0  0  0  0  0  0  # atno 17395 bound_to 11000

$$$$
