AV-unprocessed.smi:2813|AV-procd|sdf|10838|dock6
  -GOLD-   2272015283D 1   1.00000     0.00000
 Structure written by MMmdl.
 41 42  0  0  0  0  0  0  0  0  1 V2000
  147.9010  132.6303  159.3304 C   0  0  0  0  0  0  0  0  0  0  0  0
  148.2800  134.1006  159.3080 C   0  0  0  0  0  0  0  0  0  0  0  0
  149.2623  134.4565  158.3793 N   0  0  0  0  0  0  0  0  0  0  0  0
  149.6489  135.6870  158.2892 C   0  0  0  0  0  0  0  0  0  0  0  0
  149.1028  136.6938  159.1022 N   0  0  0  0  0  0  0  0  0  0  0  0
  149.6286  138.0544  158.8979 C   0  0  0  0  0  0  0  0  0  0  0  0
  150.3178  138.2123  157.5232 C   0  0  1  0  0  0  0  0  0  0  0  0
  149.3060  138.3383  156.5430 O   0  0  0  0  0  0  0  0  0  0  0  0
  151.1772  139.4864  157.4536 C   0  0  0  0  0  0  0  0  0  0  0  0
  152.1011  139.4761  158.5342 O   0  0  0  0  0  0  0  0  0  0  0  0
  152.3673  140.6642  159.1806 C   0  0  0  0  0  0  0  0  0  0  0  0
  153.2839  140.6169  160.2501 C   0  0  0  0  0  0  0  0  0  0  0  0
  153.6126  141.7817  160.9679 C   0  0  0  0  0  0  0  0  0  0  0  0
  153.0278  143.0126  160.6186 C   0  0  0  0  0  0  0  0  0  0  0  0
  152.1123  143.0840  159.5472 C   0  0  0  0  0  0  0  0  0  0  0  0
  151.4688  144.4096  159.1669 C   0  0  0  0  0  0  0  0  0  0  0  0
  151.8222  144.7661  157.9314 F   0  0  0  0  0  0  0  0  0  0  0  0
  150.1433  144.2830  159.2143 F   0  0  0  0  0  0  0  0  0  0  0  0
  151.8362  145.3824  160.0015 F   0  0  0  0  0  0  0  0  0  0  0  0
  151.7808  141.9088  158.8378 C   0  0  0  0  0  0  0  0  0  0  0  0
  148.1473  136.4314  160.0403 C   0  0  0  0  0  0  0  0  0  0  0  0
  147.6855  137.3200  160.7587 O   0  0  0  0  0  0  0  0  0  0  0  0
  147.7161  135.0269  160.1306 C   0  0  0  0  0  0  0  0  0  0  0  0
  146.6441  134.6975  161.1620 C   0  0  0  0  0  0  0  0  0  0  0  0
  146.8398  132.5051  159.1135 H   0  0  0  0  0  0  0  0  0  0  0  0
  148.1116  132.1974  160.3087 H   0  0  0  0  0  0  0  0  0  0  0  0
  148.4623  132.0639  158.5860 H   0  0  0  0  0  0  0  0  0  0  0  0
  150.4169  136.0150  157.5865 H   0  0  0  0  0  0  0  0  0  0  0  0
  148.8591  138.8178  159.0322 H   0  0  0  0  0  0  0  0  0  0  0  0
  150.3470  138.2612  159.6930 H   0  0  0  0  0  0  0  0  0  0  0  0
  150.9403  137.3432  157.3068 H   0  0  0  0  0  0  0  0  0  0  0  0
  149.4456  139.1425  156.0669 H   0  0  0  0  0  0  0  0  0  0  0  0
  151.6823  139.5615  156.4888 H   0  0  0  0  0  0  0  0  0  0  0  0
  150.5384  140.3641  157.5653 H   0  0  0  0  0  0  0  0  0  0  0  0
  153.7387  139.6763  160.5250 H   0  0  0  0  0  0  0  0  0  0  0  0
  154.3136  141.7298  161.7879 H   0  0  0  0  0  0  0  0  0  0  0  0
  153.2849  143.8991  161.1793 H   0  0  0  0  0  0  0  0  0  0  0  0
  151.0685  141.9853  158.0308 H   0  0  0  0  0  0  0  0  0  0  0  0
  146.9932  134.9557  162.1623 H   0  0  0  0  0  0  0  0  0  0  0  0
  146.3670  133.6447  161.1729 H   0  0  0  0  0  0  0  0  0  0  0  0
  145.7392  135.2717  160.9601 H   0  0  0  0  0  0  0  0  0  0  0  0
  1  2  1  0  0  0  0
  1 25  1  0  0  0  0
  1 26  1  0  0  0  0
  1 27  1  0  0  0  0
  2 23  2  0  0  0  0
  2  3  1  0  0  0  0
  3  4  2  0  0  0  0
  4  5  1  0  0  0  0
  4 28  1  0  0  0  0
  5  6  1  0  0  0  0
  5 21  1  0  0  0  0
  6  7  1  0  0  0  0
  6 29  1  0  0  0  0
  6 30  1  0  0  0  0
  7  8  1  0  0  0  0
  7  9  1  0  0  0  0
  7 31  1  0  0  0  0
  8 32  1  0  0  0  0
  9 10  1  0  0  0  0
  9 33  1  0  0  0  0
  9 34  1  0  0  0  0
 10 11  1  0  0  0  0
 11 20  1  0  0  0  0
 11 12  2  0  0  0  0
 12 13  1  0  0  0  0
 12 35  1  0  0  0  0
 13 14  2  0  0  0  0
 13 36  1  0  0  0  0
 14 15  1  0  0  0  0
 14 37  1  0  0  0  0
 15 16  1  0  0  0  0
 15 20  2  0  0  0  0
 16 17  1  0  0  0  0
 16 18  1  0  0  0  0
 16 19  1  0  0  0  0
 20 38  1  0  0  0  0
 21 22  2  0  0  0  0
 21 23  1  0  0  0  0
 23 24  1  0  0  0  0
 24 39  1  0  0  0  0
 24 40  1  0  0  0  0
 24 41  1  0  0  0  0
M  END
> <s_m_source_file>
AV-unprocessed.smi

> <i_m_source_file_index>
2813

> <i_lp_mmshare_version>
43012

> <i_f3d_flags>
0

> <s_epik_input>
W0NIM11jMW5bY0hdbihjKD1PKWMxW0NIM10pW0NIMl1bQ0BIXShbT0hdKVtDSDJdT2MyW2NIXVtjSF1bY0hdYyhDKEYpKEYpRilbY0hdMg==

> <s_epik_cmdline>
J2VwaWtfcHl0aG9uJywgJy1waCcsICc3LjAnLCAnLXRuJywgJzgnLCAnLW1hJywgJzIwMCcsICctbWV0YWxfYmluZGluZycsICctaW1hZScsICc8aW5maWxlLm1hZT4nLCAnLW9tYWUnLCAnPG91dGZpbGUubWFlPic=

> <r_lp_tautomer_probability>
1

> <r_epik_Ionization_Penalty>
3.72236e-05

> <r_epik_Ionization_Penalty_Charging>
8.38864e-08

> <r_epik_Ionization_Penalty_Neutral>
3.71397e-05

> <r_epik_State_Penalty>
-0

> <r_epik_Charging_Adjusted_Penalty>
8.38864e-08

> <i_epik_Tot_Q>
0

> <i_epik_Tot_abs_Q>
0

> <r_epik_Metal_State_Penalty>
-0

> <b_epik_Metal_Only>
0

> <s_lp_Force_Field>
OPLS_2005

> <r_lp_Energy>
24.625

> <b_lp_Chiralities_Consistent>
1

> <s_lp_Variant>
AV-unprocessed.smi:2813-2

> <Gold.Version>
5.8.1

> <Gold.Id.Protein>
6NUR|6NUR_protein|mol2

> <Gold.PLP.Fitness>
50.0426

> <Gold.PLP.PLP>
-45.5448

> <Gold.PLP.part.hbond>
-3.0000

> <Gold.PLP.part.metal>
0.0000

> <Gold.PLP.part.buried>
-3.6556

> <Gold.PLP.part.nonpolar>
-38.7677

> <Gold.PLP.part.repulsive>
0.0000

> <Gold.PLP.ligand.clash>
1.9598

> <Gold.PLP.ligand.torsion>
0.7332

> <Gold.PLP.Chemscore.Hbond>
2.2920

> <Gold.PLP.Chemscore.CHOScore>
0.0000

> <Gold.PLP.Chemscore.Metal>
0.0000

> <Gold.Chemscore.Hbonds>
donor molecule, donor type, donor heavy atom, donor atom, acceptor molecule, acceptor atom, score
      P1  H  6896  6908       L1     3  0.67
      P1  H  6931  6943       L1    22  0.77
      P1  H  6934  6947       L1    22  0.91

> <Gold.PLP.Chemscore.Internal.Correction>
1.0481

> <Gold.Rescore>
     Score         DG    S(hbond)    S(metal)    S(lipo)     H(rot)  DE(clash)    DE(int)     intcor
     14.77     -15.40       1.65        0.00      97.46       2.73       0.04       0.59       ----

> <Gold.Chemscore.Fitness>
14.7689

> <Gold.Chemscore.DG>
-15.3961

> <Gold.Chemscore.ZeroCoef>
-5.4800

> <Gold.Chemscore.Hbond>
1.6473

> <Gold.Chemscore.Metal>
0.0000

> <Gold.Chemscore.Lipo>
97.4599

> <Gold.Chemscore.Internal_Hbond>
0.0000

> <Gold.Chemscore.DEClash>
0.0415

> <Gold.Chemscore.DEInternal>
0.5857

> <Gold.Chemscore.Rot>
2.7300

> <Gold.Chemscore.Internal.Correction>
   9.000000E+99

> <Gold.Chemscore.Hbonds>
donor molecule, donor type, donor heavy atom, donor atom, acceptor molecule, acceptor atom, score
      P1  H  6896  6908       L1     3  0.02
      P1  H  6931  6943       L1    22  0.66
      P1  H  6934  6947       L1    22  0.88

> <Gold.Chemscore.Hbond.Weighted>
-5.5020

> <Gold.Chemscore.Metal.Weighted>
-0.0000

> <Gold.Chemscore.Lipo.Weighted>
-11.4028

> <Gold.Chemscore.Internal_Hbond.Weighted>
0.0000

> <Gold.Chemscore.DEClash.Weighted>
0.0415

> <Gold.Chemscore.DEInternal.Weighted>
0.5857

> <Gold.Chemscore.Rot.Weighted>
6.9888

> <Gold.Chemscore.Internal.Correction.Weighted>
   9.000000E+99

> <Gold.Protein.RotatedTorsions>
[ 6907 6896 6895 6894 ] final  124.41 input  -60.11 | X-H torsion
[ 7974 7965 7964 7962 ] final -104.26 input  175.53 | X-H torsion
[ 8008 7997 7996 7995 ] final -158.51 input   59.86 | X-H torsion
[ 10167 10162 10161 10158 ] final  -32.55 input  -65.29 | X-H torsion
[ 10718 10713 10712 10709 ] final  159.60 input   66.30 | X-H torsion
[ 10763 10752 10751 10750 ] final  127.76 input  -60.55 | X-H torsion
[ 11005 11000 10999 10996 ] final -155.45 input  -57.11 | X-H torsion

> <Gold.Protein.ActiveResidues>
 VAL166  LYS551  ARG553  GLY616  TRP617  ASP618  TYR619  PRO620  LYS621  CYS622 
 ASP623  PHE694  ASN695  SER759  ASP760  ASP761  ALA762  ILE779  LEU786  VAL792 
 PHE793  MET794  SER795  GLU796  ALA797  LYS798  CYS799  TRP800  GLU811  SER814 

> <Gold.Protein.RotatedAtoms>
  152.4080  133.6919  159.6372 H   0  0  0  0  0  0  0  0  0  0  0  0  # atno 6907 bound_to 6896
  150.7963  133.8674  159.3258 H   0  0  0  0  0  0  0  0  0  0  0  0  # atno 6908 bound_to 6896
  151.6424  135.1013  160.0195 H   0  0  0  0  0  0  0  0  0  0  0  0  # atno 6909 bound_to 6896
  145.2454  140.9220  143.3126 H   0  0  0  0  0  0  0  0  0  0  0  0  # atno 7974 bound_to 7965
  155.7486  140.0823  157.2212 H   0  0  0  0  0  0  0  0  0  0  0  0  # atno 8008 bound_to 7997
  154.4014  140.1564  156.2754 H   0  0  0  0  0  0  0  0  0  0  0  0  # atno 8009 bound_to 7997
  155.8952  140.3413  155.5988 H   0  0  0  0  0  0  0  0  0  0  0  0  # atno 8010 bound_to 7997
  140.7219  143.3686  151.1822 H   0  0  0  0  0  0  0  0  0  0  0  0  # atno 10167 bound_to 10162
  157.1619  131.0589  151.2227 H   0  0  0  0  0  0  0  0  0  0  0  0  # atno 10718 bound_to 10713
  153.7146  135.3263  155.3253 H   0  0  0  0  0  0  0  0  0  0  0  0  # atno 10763 bound_to 10752
  154.8374  135.4485  154.1279 H   0  0  0  0  0  0  0  0  0  0  0  0  # atno 10764 bound_to 10752
  153.2382  135.6968  153.7892 H   0  0  0  0  0  0  0  0  0  0  0  0  # atno 10765 bound_to 10752
  140.6863  134.4090  157.5223 H   0  0  0  0  0  0  0  0  0  0  0  0  # atno 11005 bound_to 11000
  144.9551  139.4040  143.6383 LP  0  0  0  0  0  0  0  0  0  0  0  0  # atno 17320 bound_to 7965
  146.3317  139.8577  142.8862 LP  0  0  0  0  0  0  0  0  0  0  0  0  # atno 17321 bound_to 7965
  139.7253  143.9158  152.3000 LP  0  0  0  0  0  0  0  0  0  0  0  0  # atno 17342 bound_to 10162
  139.8929  144.6955  150.8750 LP  0  0  0  0  0  0  0  0  0  0  0  0  # atno 17343 bound_to 10162
  157.4124  130.7392  149.6849 LP  0  0  0  0  0  0  0  0  0  0  0  0  # atno 17370 bound_to 10713
  155.9752  130.4092  150.3865 LP  0  0  0  0  0  0  0  0  0  0  0  0  # atno 17371 bound_to 10713
  139.8936  134.8725  156.2213 LP  0  0  0  0  0  0  0  0  0  0  0  0  # atno 17394 bound_to 11000
  141.0277  133.7006  156.1376 LP  0  0  0  0  0  0  0  0  0  0  0  0  # atno 17395 bound_to 11000

$$$$
