AV-unprocessed.smi:285|AV-procd|sdf|2168|dock4
  -GOLD-   2262021533D 1   1.00000     0.00000
 Structure written by MMmdl.
 31 33  0  0  0  0  0  0  0  0  1 V2000
  153.4393  139.0349  158.3438 N   0  0  0  0  0  0  0  0  0  0  0  0
  152.7628  139.1961  157.1980 C   0  0  0  0  0  0  0  0  0  0  0  0
  153.2425  138.6040  156.0793 N   0  0  0  0  0  0  0  0  0  0  0  0
  152.5873  138.7497  154.9228 C   0  0  0  0  0  0  0  0  0  0  0  0
  151.4636  139.4292  154.6784 N   0  0  0  0  0  0  0  0  0  0  0  0
  150.9793  140.0252  155.8083 C   0  0  0  0  0  0  0  0  0  0  0  0
  151.5705  139.9574  157.1038 C   0  0  0  0  0  0  0  0  0  0  0  0
  150.8140  140.6838  158.0153 N   0  0  0  0  0  0  0  0  0  0  0  0
  149.8403  141.1428  157.2795 C   0  0  0  0  0  0  0  0  0  0  0  0
  148.4895  142.2450  158.0461 Br  0  0  0  0  0  0  0  0  0  0  0  0
  149.8481  140.8050  155.9450 N   0  0  0  0  0  0  0  0  0  0  0  0
  148.8769  141.1727  154.8711 C   0  0  1  0  0  0  0  0  0  0  0  0
  148.1738  139.9417  154.3091 C   0  0  0  0  0  0  0  0  0  0  0  0
  146.7885  140.4837  153.9734 C   0  0  2  0  0  0  0  0  0  0  0  0
  146.5783  140.4806  152.5752 O   0  0  0  0  0  0  0  0  0  0  0  0
  146.7761  141.9233  154.5278 C   0  0  1  0  0  0  0  0  0  0  0  0
  145.4863  142.2771  155.2834 C   0  0  0  0  0  0  0  0  0  0  0  0
  144.3861  142.2663  154.3989 O   0  0  0  0  0  0  0  0  0  0  0  0
  147.8792  141.9583  155.4240 O   0  0  0  0  0  0  0  0  0  0  0  0
  153.1025  139.4668  159.1925 H   0  0  0  0  0  0  0  0  0  0  0  0
  154.2833  138.4808  158.3573 H   0  0  0  0  0  0  0  0  0  0  0  0
  153.0256  138.2501  154.0715 H   0  0  0  0  0  0  0  0  0  0  0  0
  149.4355  141.7357  154.1232 H   0  0  0  0  0  0  0  0  0  0  0  0
  148.7263  139.5402  153.4583 H   0  0  0  0  0  0  0  0  0  0  0  0
  148.0980  139.1687  155.0747 H   0  0  0  0  0  0  0  0  0  0  0  0
  146.0286  139.8643  154.4520 H   0  0  0  0  0  0  0  0  0  0  0  0
  145.6570  140.6080  152.4077 H   0  0  0  0  0  0  0  0  0  0  0  0
  146.9628  142.6346  153.7200 H   0  0  0  0  0  0  0  0  0  0  0  0
  145.2885  141.5337  156.0562 H   0  0  0  0  0  0  0  0  0  0  0  0
  145.5696  143.2458  155.7777 H   0  0  0  0  0  0  0  0  0  0  0  0
  144.3550  141.4259  153.9680 H   0  0  0  0  0  0  0  0  0  0  0  0
  1  2  1  0  0  0  0
  1 20  1  0  0  0  0
  1 21  1  0  0  0  0
  2  7  1  0  0  0  0
  2  3  2  0  0  0  0
  3  4  1  0  0  0  0
  4  5  2  0  0  0  0
  4 22  1  0  0  0  0
  5  6  1  0  0  0  0
  6 11  1  0  0  0  0
  6  7  2  0  0  0  0
  7  8  1  0  0  0  0
  8  9  2  0  0  0  0
  9 10  1  0  0  0  0
  9 11  1  0  0  0  0
 11 12  1  0  0  0  0
 12 19  1  0  0  0  0
 12 13  1  0  0  0  0
 12 23  1  0  0  0  0
 13 14  1  0  0  0  0
 13 24  1  0  0  0  0
 13 25  1  0  0  0  0
 14 15  1  0  0  0  0
 14 16  1  0  0  0  0
 14 26  1  0  0  0  0
 15 27  1  0  0  0  0
 16 17  1  0  0  0  0
 16 19  1  0  0  0  0
 16 28  1  0  0  0  0
 17 18  1  0  0  0  0
 17 29  1  0  0  0  0
 17 30  1  0  0  0  0
 18 31  1  0  0  0  0
M  END
> <s_m_source_file>
AV-unprocessed.smi

> <i_m_source_file_index>
285

> <i_lp_mmshare_version>
43012

> <i_f3d_flags>
0

> <s_epik_input>
bjFbY0hdbmMoW05IMl0pYyhjMTIpbmMoQnIpbjJbQ0BASF0zW0NIMl1bQ0BASF0oW09IXSlbQ0BIXShPMylbQ0gyXVtPSF0=

> <s_epik_cmdline>
J2VwaWtfcHl0aG9uJywgJy1waCcsICc3LjAnLCAnLXRuJywgJzgnLCAnLW1hJywgJzIwMCcsICctbWV0YWxfYmluZGluZycsICctaW1hZScsICc8aW5maWxlLm1hZT4nLCAnLW9tYWUnLCAnPG91dGZpbGUubWFlPic=

> <r_lp_tautomer_probability>
1

> <r_epik_Ionization_Penalty>
0.000103242

> <r_epik_Ionization_Penalty_Charging>
0

> <r_epik_Ionization_Penalty_Neutral>
0.000103242

> <r_epik_State_Penalty>
-0

> <r_epik_Charging_Adjusted_Penalty>
0

> <i_epik_Tot_Q>
0

> <i_epik_Tot_abs_Q>
0

> <r_epik_Metal_State_Penalty>
-0

> <b_epik_Metal_Only>
0

> <s_epik_Chemistry_Notes>
This compound contains an acetal/aminal-like group ( X-CH(R)-Y where X, Y are N, S, or O) that may be acid/base labile, releasing an aldehyde.

> <s_lp_Force_Field>
OPLS_2005

> <r_lp_Energy>
33.2332

> <b_lp_Chiralities_Consistent>
1

> <s_lp_Variant>
AV-unprocessed.smi:285-4

> <Gold.Version>
5.8.1

> <Gold.Id.Protein>
6NUR|6NUR_protein|mol2

> <Gold.PLP.Fitness>
35.0438

> <Gold.PLP.PLP>
-25.6948

> <Gold.PLP.part.hbond>
-5.0000

> <Gold.PLP.part.metal>
0.0000

> <Gold.PLP.part.buried>
-3.0209

> <Gold.PLP.part.nonpolar>
-20.8223

> <Gold.PLP.part.repulsive>
2.2022

> <Gold.PLP.ligand.clash>
0.0000

> <Gold.PLP.ligand.torsion>
0.0189

> <Gold.PLP.Chemscore.Hbond>
3.1227

> <Gold.PLP.Chemscore.CHOScore>
0.0000

> <Gold.PLP.Chemscore.Metal>
0.0000

> <Gold.Chemscore.Hbonds>
donor molecule, donor type, donor heavy atom, donor atom, acceptor molecule, acceptor atom, score
      L1  H    15    27       P1 10175  1.00
      L1  H    18    31       P1 10175  0.86
      P1  H  7989  7998       L1     5  1.00
      P1  H  7997  8009       L1     3  0.22

> <Gold.PLP.Chemscore.Internal.Correction>
0.0185

> <Gold.Rescore>
     Score         DG    S(hbond)    S(metal)    S(lipo)     H(rot)  DE(clash)    DE(int)     intcor
      5.64      -7.35       2.12        0.00      22.44       3.06       0.17       1.54       ----

> <Gold.Chemscore.Fitness>
5.6383

> <Gold.Chemscore.DG>
-7.3493

> <Gold.Chemscore.ZeroCoef>
-5.4800

> <Gold.Chemscore.Hbond>
2.1193

> <Gold.Chemscore.Metal>
0.0000

> <Gold.Chemscore.Lipo>
22.4447

> <Gold.Chemscore.Internal_Hbond>
0.0000

> <Gold.Chemscore.DEClash>
0.1748

> <Gold.Chemscore.DEInternal>
1.5362

> <Gold.Chemscore.Rot>
3.0607

> <Gold.Chemscore.Internal.Correction>
   9.000000E+99

> <Gold.Chemscore.Hbonds>
donor molecule, donor type, donor heavy atom, donor atom, acceptor molecule, acceptor atom, score
      L1  H    15    27       P1 10175  0.29
      L1  H    18    31       P1 10175  0.22
      P1  H  7989  7998       L1     5  0.36

> <Gold.Chemscore.Hbond.Weighted>
-7.0786

> <Gold.Chemscore.Metal.Weighted>
-0.0000

> <Gold.Chemscore.Lipo.Weighted>
-2.6260

> <Gold.Chemscore.Internal_Hbond.Weighted>
0.0000

> <Gold.Chemscore.DEClash.Weighted>
0.1748

> <Gold.Chemscore.DEInternal.Weighted>
1.5362

> <Gold.Chemscore.Rot.Weighted>
7.8354

> <Gold.Chemscore.Internal.Correction.Weighted>
   9.000000E+99

> <Gold.Protein.RotatedTorsions>
[ 6907 6896 6895 6894 ] final  -82.62 input  -60.11 | X-H torsion
[ 7974 7965 7964 7962 ] final   74.90 input  175.53 | X-H torsion
[ 8008 7997 7996 7995 ] final -130.06 input   59.86 | X-H torsion
[ 10167 10162 10161 10158 ] final -129.61 input  -65.29 | X-H torsion
[ 10718 10713 10712 10709 ] final -172.00 input   66.30 | X-H torsion
[ 10763 10752 10751 10750 ] final -177.21 input  -60.55 | X-H torsion
[ 11005 11000 10999 10996 ] final   66.68 input  -57.11 | X-H torsion

> <Gold.Protein.ActiveResidues>
 VAL166  LYS551  ARG553  GLY616  TRP617  ASP618  TYR619  PRO620  LYS621  CYS622 
 ASP623  PHE694  ASN695  SER759  ASP760  ASP761  ALA762  ILE779  LEU786  VAL792 
 PHE793  MET794  SER795  GLU796  ALA797  LYS798  CYS799  TRP800  GLU811  SER814 

> <Gold.Protein.RotatedAtoms>
  150.6895  134.3636  159.4961 H   0  0  0  0  0  0  0  0  0  0  0  0  # atno 6907 bound_to 6896
  152.1462  134.9021  160.0560 H   0  0  0  0  0  0  0  0  0  0  0  0  # atno 6908 bound_to 6896
  152.0136  133.3836  159.4267 H   0  0  0  0  0  0  0  0  0  0  0  0  # atno 6909 bound_to 6896
  145.7224  139.2653  143.1588 H   0  0  0  0  0  0  0  0  0  0  0  0  # atno 7974 bound_to 7965
  155.2895  140.0447  157.3022 H   0  0  0  0  0  0  0  0  0  0  0  0  # atno 8008 bound_to 7997
  154.5550  140.2329  155.8393 H   0  0  0  0  0  0  0  0  0  0  0  0  # atno 8009 bound_to 7997
  156.1999  140.3028  155.9512 H   0  0  0  0  0  0  0  0  0  0  0  0  # atno 8010 bound_to 7997
  139.9379  143.6196  152.2512 H   0  0  0  0  0  0  0  0  0  0  0  0  # atno 10167 bound_to 10162
  156.7492  130.9371  151.3114 H   0  0  0  0  0  0  0  0  0  0  0  0  # atno 10718 bound_to 10713
  154.5629  135.2821  155.0902 H   0  0  0  0  0  0  0  0  0  0  0  0  # atno 10763 bound_to 10752
  154.2304  135.6375  153.5177 H   0  0  0  0  0  0  0  0  0  0  0  0  # atno 10764 bound_to 10752
  153.0034  135.5536  154.6229 H   0  0  0  0  0  0  0  0  0  0  0  0  # atno 10765 bound_to 10752
  139.9817  134.6734  156.0251 H   0  0  0  0  0  0  0  0  0  0  0  0  # atno 11005 bound_to 11000
  146.0613  140.7967  142.9733 LP  0  0  0  0  0  0  0  0  0  0  0  0  # atno 17320 bound_to 7965
  144.6913  140.3201  143.7233 LP  0  0  0  0  0  0  0  0  0  0  0  0  # atno 17321 bound_to 7965
  139.6728  144.7660  151.1751 LP  0  0  0  0  0  0  0  0  0  0  0  0  # atno 17342 bound_to 10162
  140.7619  143.5839  150.8866 LP  0  0  0  0  0  0  0  0  0  0  0  0  # atno 17343 bound_to 10162
  157.6785  130.9117  150.0208 LP  0  0  0  0  0  0  0  0  0  0  0  0  # atno 17370 bound_to 10713
  156.1413  130.3642  149.9578 LP  0  0  0  0  0  0  0  0  0  0  0  0  # atno 17371 bound_to 10713
  141.1488  133.6551  156.3949 LP  0  0  0  0  0  0  0  0  0  0  0  0  # atno 17394 bound_to 11000
  140.5084  134.6419  157.5275 LP  0  0  0  0  0  0  0  0  0  0  0  0  # atno 17395 bound_to 11000

$$$$
