AV-unprocessed.smi:1359|AV-procd|sdf|5550|dock10
  -GOLD-   22720 5143D 1   1.00000     0.00000
 Structure written by MMmdl.
 34 35  0  0  0  0  0  0  0  0  1 V2000
  152.5168  143.2932  160.0992 C   0  0  0  0  0  0  0  0  0  0  0  0
  152.9109  143.7068  158.6774 C   0  0  0  0  0  0  0  0  0  0  0  0
  151.7160  144.2334  157.8661 C   0  0  0  0  0  0  0  0  0  0  0  0
  151.2055  143.2241  156.9458 N   0  0  0  0  0  0  0  0  0  0  0  0
  150.8665  141.9706  157.2869 C   0  0  0  0  0  0  0  0  0  0  0  0
  150.9672  141.5292  158.4315 O   0  0  0  0  0  0  0  0  0  0  0  0
  150.3361  141.0735  156.1668 C   0  0  0  0  0  0  0  0  0  0  0  0
  149.1590  141.7138  155.4877 C   0  0  0  0  0  0  0  0  0  0  0  0
  148.8626  141.6857  154.1465 C   0  0  0  0  0  0  0  0  0  0  0  0
  147.4001  142.5588  153.7811 S   0  0  0  0  0  0  0  0  0  0  0  0
  147.2448  142.9489  155.4967 C   0  0  0  0  0  0  0  0  0  0  0  0
  146.2104  143.7262  156.0976 N   0  0  0  0  0  0  0  0  0  0  0  0
  145.2783  144.5133  155.2961 C   0  0  0  0  0  0  0  0  0  0  0  0
  144.3541  145.1502  156.3292 C   0  0  0  0  0  0  0  0  0  0  0  0
  144.8916  144.6442  157.5701 N   0  0  0  0  0  0  0  0  0  0  0  0
  145.9441  143.8380  157.4143 C   0  0  0  0  0  0  0  0  0  0  0  0
  146.5462  143.3064  158.3453 O   0  0  0  0  0  0  0  0  0  0  0  0
  148.2307  142.4386  156.2427 N   0  0  0  0  0  0  0  0  0  0  0  0
  153.3826  142.9268  160.6510 H   0  0  0  0  0  0  0  0  0  0  0  0
  151.7696  142.4991  160.0862 H   0  0  0  0  0  0  0  0  0  0  0  0
  152.1019  144.1359  160.6527 H   0  0  0  0  0  0  0  0  0  0  0  0
  153.6877  144.4704  158.7331 H   0  0  0  0  0  0  0  0  0  0  0  0
  153.3552  142.8531  158.1642 H   0  0  0  0  0  0  0  0  0  0  0  0
  150.9065  144.5170  158.5394 H   0  0  0  0  0  0  0  0  0  0  0  0
  151.9926  145.1348  157.3166 H   0  0  0  0  0  0  0  0  0  0  0  0
  151.0891  143.5013  155.9816 H   0  0  0  0  0  0  0  0  0  0  0  0
  151.1419  140.8786  155.4576 H   0  0  0  0  0  0  0  0  0  0  0  0
  150.0526  140.1056  156.5825 H   0  0  0  0  0  0  0  0  0  0  0  0
  149.4137  141.2006  153.3543 H   0  0  0  0  0  0  0  0  0  0  0  0
  145.8101  145.2701  154.7176 H   0  0  0  0  0  0  0  0  0  0  0  0
  144.7250  143.8730  154.6077 H   0  0  0  0  0  0  0  0  0  0  0  0
  144.4003  146.2395  156.3057 H   0  0  0  0  0  0  0  0  0  0  0  0
  143.3180  144.8345  156.2031 H   0  0  0  0  0  0  0  0  0  0  0  0
  144.4987  144.8867  158.4683 H   0  0  0  0  0  0  0  0  0  0  0  0
  1  2  1  0  0  0  0
  1 19  1  0  0  0  0
  1 20  1  0  0  0  0
  1 21  1  0  0  0  0
  2  3  1  0  0  0  0
  2 22  1  0  0  0  0
  2 23  1  0  0  0  0
  3  4  1  0  0  0  0
  3 24  1  0  0  0  0
  3 25  1  0  0  0  0
  4  5  1  0  0  0  0
  4 26  1  0  0  0  0
  5  6  2  0  0  0  0
  5  7  1  0  0  0  0
  7  8  1  0  0  0  0
  7 27  1  0  0  0  0
  7 28  1  0  0  0  0
  8 18  1  0  0  0  0
  8  9  2  0  0  0  0
  9 10  1  0  0  0  0
  9 29  1  0  0  0  0
 10 11  1  0  0  0  0
 11 12  1  0  0  0  0
 11 18  2  0  0  0  0
 12 16  1  0  0  0  0
 12 13  1  0  0  0  0
 13 14  1  0  0  0  0
 13 30  1  0  0  0  0
 13 31  1  0  0  0  0
 14 15  1  0  0  0  0
 14 32  1  0  0  0  0
 14 33  1  0  0  0  0
 15 16  1  0  0  0  0
 15 34  1  0  0  0  0
 16 17  2  0  0  0  0
M  END
> <s_m_source_file>
AV-unprocessed.smi

> <i_m_source_file_index>
1359

> <i_lp_mmshare_version>
43012

> <i_f3d_flags>
0

> <s_epik_input>
W0NIM11bQ0gyXVtDSDJdW05IXUMoPU8pW0NIMl1jMVtjSF1zYyhuMSlOMltDSDJdW0NIMl1bTkhdQzI9Tw==

> <s_epik_cmdline>
J2VwaWtfcHl0aG9uJywgJy1waCcsICc3LjAnLCAnLXRuJywgJzgnLCAnLW1hJywgJzIwMCcsICctbWV0YWxfYmluZGluZycsICctaW1hZScsICc8aW5maWxlLm1hZT4nLCAnLW9tYWUnLCAnPG91dGZpbGUubWFlPic=

> <r_lp_tautomer_probability>
1

> <r_epik_Ionization_Penalty>
0.000119828

> <r_epik_Ionization_Penalty_Charging>
0

> <r_epik_Ionization_Penalty_Neutral>
0.000119828

> <r_epik_State_Penalty>
-0

> <r_epik_Charging_Adjusted_Penalty>
0

> <i_epik_Tot_Q>
0

> <i_epik_Tot_abs_Q>
0

> <r_epik_Metal_State_Penalty>
-0

> <b_epik_Metal_Only>
0

> <s_lp_Force_Field>
OPLS_2005

> <r_lp_Energy>
29.9012

> <b_lp_Chiralities_Consistent>
1

> <s_lp_Variant>
AV-unprocessed.smi:1359-1

> <Gold.Version>
5.8.1

> <Gold.Id.Protein>
6NUR|6NUR_protein|mol2

> <Gold.PLP.Fitness>
38.4956

> <Gold.PLP.PLP>
-33.1192

> <Gold.PLP.part.hbond>
-2.0000

> <Gold.PLP.part.metal>
0.0000

> <Gold.PLP.part.buried>
-3.8329

> <Gold.PLP.part.nonpolar>
-28.9704

> <Gold.PLP.part.repulsive>
0.2822

> <Gold.PLP.ligand.clash>
0.0000

> <Gold.PLP.ligand.torsion>
0.7324

> <Gold.PLP.Chemscore.Hbond>
1.2784

> <Gold.PLP.Chemscore.CHOScore>
1.0000

> <Gold.PLP.Chemscore.Metal>
0.0000

> <Gold.Chemscore.Hbonds>
donor molecule, donor type, donor heavy atom, donor atom, acceptor molecule, acceptor atom, score
      L1  C     9    29       P1  7957  1.00

> <Gold.PLP.Chemscore.Internal.Correction>
0.0059

> <Gold.Rescore>
     Score         DG    S(hbond)    S(metal)    S(lipo)     H(rot)  DE(clash)    DE(int)     intcor
      9.10     -13.47       1.63        0.00      61.24       1.81       0.03       4.34       ----

> <Gold.Chemscore.Fitness>
9.0954

> <Gold.Chemscore.DG>
-13.4689

> <Gold.Chemscore.ZeroCoef>
-5.4800

> <Gold.Chemscore.Hbond>
1.6307

> <Gold.Chemscore.Metal>
0.0000

> <Gold.Chemscore.Lipo>
61.2403

> <Gold.Chemscore.Internal_Hbond>
0.0000

> <Gold.Chemscore.DEClash>
0.0299

> <Gold.Chemscore.DEInternal>
4.3436

> <Gold.Chemscore.Rot>
1.8057

> <Gold.Chemscore.Internal.Correction>
   9.000000E+99

> <Gold.Chemscore.Hbond.Weighted>
-5.4464

> <Gold.Chemscore.Metal.Weighted>
-0.0000

> <Gold.Chemscore.Lipo.Weighted>
-7.1651

> <Gold.Chemscore.Internal_Hbond.Weighted>
0.0000

> <Gold.Chemscore.DEClash.Weighted>
0.0299

> <Gold.Chemscore.DEInternal.Weighted>
4.3436

> <Gold.Chemscore.Rot.Weighted>
4.6226

> <Gold.Chemscore.Internal.Correction.Weighted>
   9.000000E+99

> <Gold.Protein.RotatedTorsions>
[ 6907 6896 6895 6894 ] final   69.93 input  -60.11 | X-H torsion
[ 7974 7965 7964 7962 ] final -100.38 input  175.53 | X-H torsion
[ 8008 7997 7996 7995 ] final   64.48 input   59.86 | X-H torsion
[ 10167 10162 10161 10158 ] final  166.47 input  -65.29 | X-H torsion
[ 10718 10713 10712 10709 ] final   92.83 input   66.30 | X-H torsion
[ 10763 10752 10751 10750 ] final   56.18 input  -60.55 | X-H torsion
[ 11005 11000 10999 10996 ] final -169.38 input  -57.11 | X-H torsion

> <Gold.Protein.ActiveResidues>
 VAL166  LYS551  ARG553  GLY616  TRP617  ASP618  TYR619  PRO620  LYS621  CYS622 
 ASP623  PHE694  ASN695  SER759  ASP760  ASP761  ALA762  ILE779  LEU786  VAL792 
 PHE793  MET794  SER795  GLU796  ALA797  LYS798  CYS799  TRP800  GLU811  SER814 

> <Gold.Protein.RotatedAtoms>
  152.4717  134.4944  159.9704 H   0  0  0  0  0  0  0  0  0  0  0  0  # atno 6907 bound_to 6896
  151.4969  133.3507  159.2870 H   0  0  0  0  0  0  0  0  0  0  0  0  # atno 6908 bound_to 6896
  150.8731  134.8136  159.7231 H   0  0  0  0  0  0  0  0  0  0  0  0  # atno 6909 bound_to 6896
  145.2954  140.9363  143.2854 H   0  0  0  0  0  0  0  0  0  0  0  0  # atno 7974 bound_to 7965
  155.6467  140.3497  155.4734 H   0  0  0  0  0  0  0  0  0  0  0  0  # atno 8008 bound_to 7997
  155.9882  140.1188  157.0687 H   0  0  0  0  0  0  0  0  0  0  0  0  # atno 8009 bound_to 7997
  154.4211  140.1125  156.5514 H   0  0  0  0  0  0  0  0  0  0  0  0  # atno 8010 bound_to 7997
  139.4925  144.4024  151.9394 H   0  0  0  0  0  0  0  0  0  0  0  0  # atno 10167 bound_to 10162
  157.6957  131.0457  150.3941 H   0  0  0  0  0  0  0  0  0  0  0  0  # atno 10718 bound_to 10713
  152.9828  135.5685  154.5188 H   0  0  0  0  0  0  0  0  0  0  0  0  # atno 10763 bound_to 10752
  154.4679  135.2784  155.1666 H   0  0  0  0  0  0  0  0  0  0  0  0  # atno 10764 bound_to 10752
  154.3227  135.6265  153.5568 H   0  0  0  0  0  0  0  0  0  0  0  0  # atno 10765 bound_to 10752
  140.5314  134.5612  157.5076 H   0  0  0  0  0  0  0  0  0  0  0  0  # atno 11005 bound_to 11000
  144.9138  139.4496  143.6574 LP  0  0  0  0  0  0  0  0  0  0  0  0  # atno 17320 bound_to 7965
  146.3170  139.7961  142.8975 LP  0  0  0  0  0  0  0  0  0  0  0  0  # atno 17321 bound_to 7965
  140.3463  144.3142  150.5957 LP  0  0  0  0  0  0  0  0  0  0  0  0  # atno 17342 bound_to 10162
  140.5523  143.2204  151.7906 LP  0  0  0  0  0  0  0  0  0  0  0  0  # atno 17343 bound_to 10162
  156.4341  130.3978  149.6740 LP  0  0  0  0  0  0  0  0  0  0  0  0  # atno 17370 bound_to 10713
  156.3947  130.7645  151.2648 LP  0  0  0  0  0  0  0  0  0  0  0  0  # atno 17371 bound_to 10713
  139.9552  134.7547  156.0358 LP  0  0  0  0  0  0  0  0  0  0  0  0  # atno 17394 bound_to 11000
  141.1279  133.6594  156.3386 LP  0  0  0  0  0  0  0  0  0  0  0  0  # atno 17395 bound_to 11000

$$$$
