AV-unprocessed.smi:561|AV-procd|sdf|2943|dock1
  -GOLD-   2262023443D 1   1.00000     0.00000
 Structure written by MMmdl.
 35 36  0  0  0  0  0  0  0  0  2 V2000
  152.5754  138.7128  154.7416 C   0  0  0  0  0  0  0  0  0  0  0  0
  151.2372  139.3855  155.0791 C   0  0  1  0  0  0  0  0  0  0  0  0
  150.0383  138.5081  154.6422 C   0  0  0  0  0  0  0  0  0  0  0  0
  148.8251  139.2619  154.3429 N   0  0  0  0  0  0  0  0  0  0  0  0
  148.1392  139.3049  153.1332 C   0  0  0  0  0  0  0  0  0  0  0  0
  147.0719  140.1551  153.3123 C   0  0  0  0  0  0  0  0  0  0  0  0
  147.0836  140.6556  154.6120 N   0  0  0  0  0  0  0  0  0  0  0  0
  148.1486  140.0843  155.1604 C   0  0  0  0  0  0  0  0  0  0  0  0
  151.1736  139.6175  156.5262 N   0  5  0  0  0  0  0  0  0  0  0  0
  152.2484  139.7296  157.3604 C   0  0  0  0  0  0  0  0  0  0  0  0
  153.1705  138.9118  157.4816 O   0  0  0  0  0  0  0  0  0  0  0  0
  152.3396  140.9531  158.2100 C   0  0  0  0  0  0  0  0  0  0  0  0
  151.8757  142.0717  157.7476 N   0  0  0  0  0  0  0  0  0  0  0  0
  151.9377  143.2504  158.4623 N   0  0  0  0  0  0  0  0  0  0  0  0
  151.6276  144.4357  157.6631 C   0  0  0  0  0  0  0  0  0  0  0  0
  152.2315  143.3313  159.7853 C   0  0  0  0  0  0  0  0  0  0  0  0
  152.3043  144.3872  160.4143 O   0  0  0  0  0  0  0  0  0  0  0  0
  152.4498  142.0043  160.5170 C   0  0  0  0  0  0  0  0  0  0  0  0
  152.9873  140.9029  159.5836 C   0  0  0  0  0  0  0  0  0  0  0  0
  152.6602  138.5273  153.6707 H   0  0  0  0  0  0  0  0  0  0  0  0
  152.6825  137.7559  155.2538 H   0  0  0  0  0  0  0  0  0  0  0  0
  153.4164  139.3435  155.0315 H   0  0  0  0  0  0  0  0  0  0  0  0
  151.1875  140.3152  154.5096 H   0  0  0  0  0  0  0  0  0  0  0  0
  150.3046  137.9412  153.7491 H   0  0  0  0  0  0  0  0  0  0  0  0
  149.8049  137.7705  155.4117 H   0  0  0  0  0  0  0  0  0  0  0  0
  148.4583  138.7345  152.2734 H   0  0  0  0  0  0  0  0  0  0  0  0
  146.3049  140.4457  152.6097 H   0  0  0  0  0  0  0  0  0  0  0  0
  148.4456  140.2674  156.1825 H   0  0  0  0  0  0  0  0  0  0  0  0
  151.6235  145.3650  158.2340 H   0  0  0  0  0  0  0  0  0  0  0  0
  150.6432  144.3320  157.2052 H   0  0  0  0  0  0  0  0  0  0  0  0
  152.3593  144.5474  156.8620 H   0  0  0  0  0  0  0  0  0  0  0  0
  153.1233  142.1465  161.3627 H   0  0  0  0  0  0  0  0  0  0  0  0
  151.4882  141.6962  160.9295 H   0  0  0  0  0  0  0  0  0  0  0  0
  152.8067  139.9408  160.0645 H   0  0  0  0  0  0  0  0  0  0  0  0
  154.0685  140.9961  159.4758 H   0  0  0  0  0  0  0  0  0  0  0  0
  1  2  1  0  0  0  0
  1 20  1  0  0  0  0
  1 21  1  0  0  0  0
  1 22  1  0  0  0  0
  2  3  1  0  0  0  0
  2  9  1  0  0  0  0
  2 23  1  0  0  0  0
  3  4  1  0  0  0  0
  3 24  1  0  0  0  0
  3 25  1  0  0  0  0
  4  8  1  0  0  0  0
  4  5  1  0  0  0  0
  5  6  2  0  0  0  0
  5 26  1  0  0  0  0
  6  7  1  0  0  0  0
  6 27  1  0  0  0  0
  7  8  2  0  0  0  0
  8 28  1  0  0  0  0
  9 10  1  0  0  0  0
 10 11  2  0  0  0  0
 10 12  1  0  0  0  0
 12 19  1  0  0  0  0
 12 13  2  0  0  0  0
 13 14  1  0  0  0  0
 14 15  1  0  0  0  0
 14 16  1  0  0  0  0
 15 29  1  0  0  0  0
 15 30  1  0  0  0  0
 15 31  1  0  0  0  0
 16 17  2  0  0  0  0
 16 18  1  0  0  0  0
 18 19  1  0  0  0  0
 18 32  1  0  0  0  0
 18 33  1  0  0  0  0
 19 34  1  0  0  0  0
 19 35  1  0  0  0  0
M  CHG  1   9  -1
M  END
> <s_m_source_file>
AV-unprocessed.smi

> <i_m_source_file_index>
561

> <i_lp_mmshare_version>
43012

> <i_f3d_flags>
0

> <s_epik_input>
W2NIXTFuW2NIXVtjSF1uMVtDSDJdW0NAQEhdKFtDSDNdKVtOSF1DKD1PKUMyPU5OKFtDSDNdKUMoPU8pW0NIMl1bQ0gyXTI=

> <s_epik_cmdline>
J2VwaWtfcHl0aG9uJywgJy1waCcsICc3LjAnLCAnLXRuJywgJzgnLCAnLW1hJywgJzIwMCcsICctbWV0YWxfYmluZGluZycsICctaW1hZScsICc8aW5maWxlLm1hZT4nLCAnLW9tYWUnLCAnPG91dGZpbGUubWFlPic=

> <r_lp_tautomer_probability>
1

> <r_epik_Ionization_Penalty>
6.06239

> <r_epik_Ionization_Penalty_Charging>
6.06239

> <r_epik_Ionization_Penalty_Neutral>
3.91387e-09

> <r_epik_State_Penalty>
5.76729

> <r_epik_Charging_Adjusted_Penalty>
11.8297

> <i_epik_Tot_Q>
-1

> <i_epik_Tot_abs_Q>
1

> <r_epik_Metal_State_Penalty>
2.02369

> <b_epik_Metal_Only>
1

> <s_epik_Chemistry_Notes>
This compound has an imine and may undergo hydrolysis.

> <s_lp_Force_Field>
OPLS_2005

> <r_lp_Energy>
27.3289

> <b_lp_Chiralities_Consistent>
1

> <s_lp_Variant>
AV-unprocessed.smi:561-8

> <Gold.Version>
5.8.1

> <Gold.Id.Protein>
6NUR|6NUR_protein|mol2

> <Gold.PLP.Fitness>
40.6713

> <Gold.PLP.PLP>
-33.1194

> <Gold.PLP.part.hbond>
-1.0000

> <Gold.PLP.part.metal>
0.0000

> <Gold.PLP.part.buried>
0.6808

> <Gold.PLP.part.nonpolar>
-33.0843

> <Gold.PLP.part.repulsive>
0.1958

> <Gold.PLP.ligand.clash>
0.0000

> <Gold.PLP.ligand.torsion>
1.5834

> <Gold.PLP.Chemscore.Hbond>
1.0000

> <Gold.PLP.Chemscore.CHOScore>
2.5529

> <Gold.PLP.Chemscore.Metal>
0.0000

> <Gold.Chemscore.Hbonds>
donor molecule, donor type, donor heavy atom, donor atom, acceptor molecule, acceptor atom, score
      P1  H  7997  8009       L1    11  0.95
      L1  C     5    26       P1  7948  0.96
      L1  C     5    26       P1  7957  0.53
      L1  C     6    27       P1 10175  0.79

> <Gold.PLP.Chemscore.Internal.Correction>
0.0600

> <Gold.Rescore>
     Score         DG    S(hbond)    S(metal)    S(lipo)     H(rot)  DE(clash)    DE(int)     intcor
      9.34     -12.43       0.84        0.00      72.07       1.68       0.13       2.96       ----

> <Gold.Chemscore.Fitness>
9.3415

> <Gold.Chemscore.DG>
-12.4334

> <Gold.Chemscore.ZeroCoef>
-5.4800

> <Gold.Chemscore.Hbond>
0.8445

> <Gold.Chemscore.Metal>
0.0000

> <Gold.Chemscore.Lipo>
72.0721

> <Gold.Chemscore.Internal_Hbond>
0.0000

> <Gold.Chemscore.DEClash>
0.1289

> <Gold.Chemscore.DEInternal>
2.9630

> <Gold.Chemscore.Rot>
1.6796

> <Gold.Chemscore.Internal.Correction>
   9.000000E+99

> <Gold.Chemscore.Hbonds>
donor molecule, donor type, donor heavy atom, donor atom, acceptor molecule, acceptor atom, score
      P1  H  7997  8009       L1    11  0.21

> <Gold.Chemscore.Hbond.Weighted>
-2.8207

> <Gold.Chemscore.Metal.Weighted>
-0.0000

> <Gold.Chemscore.Lipo.Weighted>
-8.4324

> <Gold.Chemscore.Internal_Hbond.Weighted>
0.0000

> <Gold.Chemscore.DEClash.Weighted>
0.1289

> <Gold.Chemscore.DEInternal.Weighted>
2.9630

> <Gold.Chemscore.Rot.Weighted>
4.2997

> <Gold.Chemscore.Internal.Correction.Weighted>
   9.000000E+99

> <Gold.Protein.RotatedTorsions>
[ 6907 6896 6895 6894 ] final  -50.88 input  -60.11 | X-H torsion
[ 7974 7965 7964 7962 ] final  125.80 input  175.53 | X-H torsion
[ 8008 7997 7996 7995 ] final  154.65 input   59.86 | X-H torsion
[ 10167 10162 10161 10158 ] final  -48.74 input  -65.29 | X-H torsion
[ 10718 10713 10712 10709 ] final   32.36 input   66.30 | X-H torsion
[ 10763 10752 10751 10750 ] final   36.08 input  -60.55 | X-H torsion
[ 11005 11000 10999 10996 ] final  127.33 input  -57.11 | X-H torsion

> <Gold.Protein.ActiveResidues>
 VAL166  LYS551  ARG553  GLY616  TRP617  ASP618  TYR619  PRO620  LYS621  CYS622 
 ASP623  PHE694  ASN695  SER759  ASP760  ASP761  ALA762  ILE779  LEU786  VAL792 
 PHE793  MET794  SER795  GLU796  ALA797  LYS798  CYS799  TRP800  GLU811  SER814 

> <Gold.Protein.RotatedAtoms>
  150.8665  134.8029  159.7122 H   0  0  0  0  0  0  0  0  0  0  0  0  # atno 6907 bound_to 6896
  152.4684  134.5016  159.9736 H   0  0  0  0  0  0  0  0  0  0  0  0  # atno 6908 bound_to 6896
  151.5111  133.3446  159.2920 H   0  0  0  0  0  0  0  0  0  0  0  0  # atno 6909 bound_to 6896
  145.0689  139.3745  143.4968 H   0  0  0  0  0  0  0  0  0  0  0  0  # atno 7974 bound_to 7965
  156.2520  140.1961  156.6679 H   0  0  0  0  0  0  0  0  0  0  0  0  # atno 8008 bound_to 7997
  154.6415  140.0583  156.9877 H   0  0  0  0  0  0  0  0  0  0  0  0  # atno 8009 bound_to 7997
  155.1555  140.3255  155.4425 H   0  0  0  0  0  0  0  0  0  0  0  0  # atno 8010 bound_to 7997
  140.6717  143.2727  151.4114 H   0  0  0  0  0  0  0  0  0  0  0  0  # atno 10167 bound_to 10162
  157.2843  130.7270  149.6574 H   0  0  0  0  0  0  0  0  0  0  0  0  # atno 10718 bound_to 10713
  153.0092  135.6315  154.1929 H   0  0  0  0  0  0  0  0  0  0  0  0  # atno 10763 bound_to 10752
  154.1672  135.2820  155.3093 H   0  0  0  0  0  0  0  0  0  0  0  0  # atno 10764 bound_to 10752
  154.5937  135.5609  153.7364 H   0  0  0  0  0  0  0  0  0  0  0  0  # atno 10765 bound_to 10752
  139.9502  134.9623  156.8839 H   0  0  0  0  0  0  0  0  0  0  0  0  # atno 11005 bound_to 11000
  146.3528  140.0424  142.8642 LP  0  0  0  0  0  0  0  0  0  0  0  0  # atno 17320 bound_to 7965
  145.1317  140.9521  143.4541 LP  0  0  0  0  0  0  0  0  0  0  0  0  # atno 17321 bound_to 7965
  139.5989  144.1338  152.2175 LP  0  0  0  0  0  0  0  0  0  0  0  0  # atno 17342 bound_to 10162
  140.0716  144.5775  150.7188 LP  0  0  0  0  0  0  0  0  0  0  0  0  # atno 17343 bound_to 10162
  155.9665  130.4328  150.4981 LP  0  0  0  0  0  0  0  0  0  0  0  0  # atno 17370 bound_to 10713
  157.2931  131.0630  151.2120 LP  0  0  0  0  0  0  0  0  0  0  0  0  # atno 17371 bound_to 10713
  140.5737  134.0418  155.7439 LP  0  0  0  0  0  0  0  0  0  0  0  0  # atno 17394 bound_to 11000
  141.1163  133.9535  157.2816 LP  0  0  0  0  0  0  0  0  0  0  0  0  # atno 17395 bound_to 11000

$$$$
