AV-unprocessed.smi:2886|AV-procd|sdf|11088|dock10
  -GOLD-   2272015563D 1   1.00000     0.00000
 Structure written by MMmdl.
 28 30  0  0  0  0  0  0  0  0  1 V2000
  148.2877  139.5728  153.8013 O   0  0  0  0  0  0  0  0  0  0  0  0
  149.2892  139.9103  154.4295 C   0  0  0  0  0  0  0  0  0  0  0  0
  150.4201  139.1666  154.4093 N   0  0  0  0  0  0  0  0  0  0  0  0
  151.5903  139.4380  155.0756 N   0  0  0  0  0  0  0  0  0  0  0  0
  151.6532  140.5060  155.7949 C   0  0  0  0  0  0  0  0  0  0  0  0
  150.5386  141.4388  155.9256 C   0  0  0  0  0  0  0  0  0  0  0  0
  150.6074  142.5888  156.7013 N   0  0  0  0  0  0  0  0  0  0  0  0
  151.7220  143.0844  157.4977 C   0  0  1  0  0  0  0  0  0  0  0  0
  151.9041  144.5994  157.3973 C   0  0  0  0  0  0  0  0  0  0  0  0
  151.8958  145.0101  158.8771 C   0  0  1  0  0  0  0  0  0  0  0  0
  150.4795  144.9653  159.4650 C   0  0  0  0  0  0  0  0  0  0  0  0
  150.2322  143.4612  159.5657 C   0  0  0  0  0  0  0  0  0  0  0  0
  151.5464  142.8845  159.0128 C   0  0  2  0  0  0  0  0  0  0  0  0
  152.4620  143.8593  159.4838 O   0  0  0  0  0  0  0  0  0  0  0  0
  149.3956  141.1200  155.2571 C   0  0  0  0  0  0  0  0  0  0  0  0
  148.0050  142.1480  155.3538 Cl  0  0  0  0  0  0  0  0  0  0  0  0
  150.4414  138.3164  153.8647 H   0  0  0  0  0  0  0  0  0  0  0  0
  152.5572  140.7564  156.3486 H   0  0  0  0  0  0  0  0  0  0  0  0
  149.8415  143.2406  156.6041 H   0  0  0  0  0  0  0  0  0  0  0  0
  152.6510  142.6137  157.1760 H   0  0  0  0  0  0  0  0  0  0  0  0
  152.8607  144.8362  156.9309 H   0  0  0  0  0  0  0  0  0  0  0  0
  151.1179  145.0999  156.8301 H   0  0  0  0  0  0  0  0  0  0  0  0
  152.4307  145.9377  159.0825 H   0  0  0  0  0  0  0  0  0  0  0  0
  150.4546  145.4234  160.4544 H   0  0  0  0  0  0  0  0  0  0  0  0
  149.7504  145.4743  158.8338 H   0  0  0  0  0  0  0  0  0  0  0  0
  150.0953  143.1701  160.6076 H   0  0  0  0  0  0  0  0  0  0  0  0
  149.3534  143.1355  159.0087 H   0  0  0  0  0  0  0  0  0  0  0  0
  151.7591  141.8695  159.3496 H   0  0  0  0  0  0  0  0  0  0  0  0
  1  2  2  0  0  0  0
  2 15  1  0  0  0  0
  2  3  1  0  0  0  0
  3 17  1  0  0  0  0
  3  4  1  0  0  0  0
  4  5  2  0  0  0  0
  5  6  1  0  0  0  0
  5 18  1  0  0  0  0
  6  7  1  0  0  0  0
  6 15  2  0  0  0  0
  7  8  1  0  0  0  0
  7 19  1  0  0  0  0
  8 13  1  0  0  0  0
  8  9  1  0  0  0  0
  8 20  1  0  0  0  0
  9 10  1  0  0  0  0
  9 21  1  0  0  0  0
  9 22  1  0  0  0  0
 10 14  1  0  0  0  0
 10 11  1  0  0  0  0
 10 23  1  0  0  0  0
 11 12  1  0  0  0  0
 11 24  1  0  0  0  0
 11 25  1  0  0  0  0
 12 13  1  0  0  0  0
 12 26  1  0  0  0  0
 12 27  1  0  0  0  0
 13 14  1  0  0  0  0
 13 28  1  0  0  0  0
 15 16  1  0  0  0  0
M  END
> <s_m_source_file>
AV-unprocessed.smi

> <i_m_source_file_index>
2886

> <i_lp_mmshare_version>
43012

> <i_f3d_flags>
0

> <s_epik_input>
Tz1jMVtuSF1uW2NIXWMoYzFDbClbTkhdW0NASF0oW0NIMl1bQ0BASF0yMylbQ0BASF0oTzMpW0NIMl1bQ0gyXTI=

> <s_epik_cmdline>
J2VwaWtfcHl0aG9uJywgJy1waCcsICc3LjAnLCAnLXRuJywgJzgnLCAnLW1hJywgJzIwMCcsICctbWV0YWxfYmluZGluZycsICctaW1hZScsICc8aW5maWxlLm1hZT4nLCAnLW9tYWUnLCAnPG91dGZpbGUubWFlPic=

> <r_lp_tautomer_probability>
0.986175

> <r_epik_Ionization_Penalty>
0.000975594

> <r_epik_Ionization_Penalty_Charging>
0.000940184

> <r_epik_Ionization_Penalty_Neutral>
3.54099e-05

> <r_epik_State_Penalty>
0.00620319

> <r_epik_Charging_Adjusted_Penalty>
0.00714337

> <i_epik_Tot_Q>
0

> <i_epik_Tot_abs_Q>
0

> <r_epik_Metal_State_Penalty>
0.287699

> <b_epik_Metal_Only>
0

> <s_lp_Force_Field>
OPLS_2005

> <r_lp_Energy>
55.2825

> <b_lp_Chiralities_Consistent>
1

> <s_lp_Variant>
AV-unprocessed.smi:2886-2

> <Gold.Version>
5.8.1

> <Gold.Id.Protein>
6NUR|6NUR_protein|mol2

> <Gold.PLP.Fitness>
31.0427

> <Gold.PLP.PLP>
-28.4950

> <Gold.PLP.part.hbond>
-1.8381

> <Gold.PLP.part.metal>
0.0000

> <Gold.PLP.part.buried>
-2.0904

> <Gold.PLP.part.nonpolar>
-25.1889

> <Gold.PLP.part.repulsive>
1.2434

> <Gold.PLP.ligand.clash>
0.0000

> <Gold.PLP.ligand.torsion>
0.2306

> <Gold.PLP.Chemscore.Hbond>
1.0000

> <Gold.PLP.Chemscore.CHOScore>
0.0000

> <Gold.PLP.Chemscore.Metal>
0.0000

> <Gold.Chemscore.Hbonds>
donor molecule, donor type, donor heavy atom, donor atom, acceptor molecule, acceptor atom, score
      L1  H     7    19       P1  8028  1.00

> <Gold.PLP.Chemscore.Internal.Correction>
0.0090

> <Gold.Rescore>
     Score         DG    S(hbond)    S(metal)    S(lipo)     H(rot)  DE(clash)    DE(int)     intcor
     15.24     -16.28       0.93        0.00      87.53       1.00       0.76       0.28       ----

> <Gold.Chemscore.Fitness>
15.2440

> <Gold.Chemscore.DG>
-16.2827

> <Gold.Chemscore.ZeroCoef>
-5.4800

> <Gold.Chemscore.Hbond>
0.9346

> <Gold.Chemscore.Metal>
0.0000

> <Gold.Chemscore.Lipo>
87.5296

> <Gold.Chemscore.Internal_Hbond>
0.0000

> <Gold.Chemscore.DEClash>
0.7617

> <Gold.Chemscore.DEInternal>
0.2769

> <Gold.Chemscore.Rot>
1.0000

> <Gold.Chemscore.Internal.Correction>
   9.000000E+99

> <Gold.Chemscore.Hbonds>
donor molecule, donor type, donor heavy atom, donor atom, acceptor molecule, acceptor atom, score
      L1  H     7    19       P1  8028  0.93

> <Gold.Chemscore.Hbond.Weighted>
-3.1217

> <Gold.Chemscore.Metal.Weighted>
-0.0000

> <Gold.Chemscore.Lipo.Weighted>
-10.2410

> <Gold.Chemscore.Internal_Hbond.Weighted>
0.0000

> <Gold.Chemscore.DEClash.Weighted>
0.7617

> <Gold.Chemscore.DEInternal.Weighted>
0.2769

> <Gold.Chemscore.Rot.Weighted>
2.5600

> <Gold.Chemscore.Internal.Correction.Weighted>
   9.000000E+99

> <Gold.Protein.RotatedTorsions>
[ 6907 6896 6895 6894 ] final   19.04 input  -60.11 | X-H torsion
[ 7974 7965 7964 7962 ] final  -96.82 input  175.53 | X-H torsion
[ 8008 7997 7996 7995 ] final  -53.20 input   59.86 | X-H torsion
[ 10167 10162 10161 10158 ] final   38.05 input  -65.29 | X-H torsion
[ 10718 10713 10712 10709 ] final  135.00 input   66.30 | X-H torsion
[ 10763 10752 10751 10750 ] final -102.28 input  -60.55 | X-H torsion
[ 11005 11000 10999 10996 ] final  -91.40 input  -57.11 | X-H torsion

> <Gold.Protein.ActiveResidues>
 VAL166  LYS551  ARG553  GLY616  TRP617  ASP618  TYR619  PRO620  LYS621  CYS622 
 ASP623  PHE694  ASN695  SER759  ASP760  ASP761  ALA762  ILE779  LEU786  VAL792 
 PHE793  MET794  SER795  GLU796  ALA797  LYS798  CYS799  TRP800  GLU811  SER814 

> <Gold.Protein.RotatedAtoms>
  151.8747  135.0476  160.0482 H   0  0  0  0  0  0  0  0  0  0  0  0  # atno 6907 bound_to 6896
  152.2561  133.5252  159.5362 H   0  0  0  0  0  0  0  0  0  0  0  0  # atno 6908 bound_to 6896
  150.7100  134.0810  159.3940 H   0  0  0  0  0  0  0  0  0  0  0  0  # atno 6909 bound_to 6896
  145.3418  140.9461  143.2603 H   0  0  0  0  0  0  0  0  0  0  0  0  # atno 7974 bound_to 7965
  154.4127  140.1205  156.5115 H   0  0  0  0  0  0  0  0  0  0  0  0  # atno 8008 bound_to 7997
  155.6794  140.3496  155.4830 H   0  0  0  0  0  0  0  0  0  0  0  0  # atno 8009 bound_to 7997
  155.9564  140.1114  157.0923 H   0  0  0  0  0  0  0  0  0  0  0  0  # atno 8010 bound_to 7997
  140.3973  144.1771  150.6132 H   0  0  0  0  0  0  0  0  0  0  0  0  # atno 10167 bound_to 10162
  157.4615  131.1074  150.9914 H   0  0  0  0  0  0  0  0  0  0  0  0  # atno 10718 bound_to 10713
  154.7722  135.4866  153.9672 H   0  0  0  0  0  0  0  0  0  0  0  0  # atno 10763 bound_to 10752
  153.1382  135.6767  153.9076 H   0  0  0  0  0  0  0  0  0  0  0  0  # atno 10764 bound_to 10752
  153.8758  135.3138  155.3422 H   0  0  0  0  0  0  0  0  0  0  0  0  # atno 10765 bound_to 10752
  141.1545  133.7753  156.9874 H   0  0  0  0  0  0  0  0  0  0  0  0  # atno 11005 bound_to 11000
  144.8784  139.4938  143.6734 LP  0  0  0  0  0  0  0  0  0  0  0  0  # atno 17320 bound_to 7965
  146.3004  139.7408  142.9095 LP  0  0  0  0  0  0  0  0  0  0  0  0  # atno 17321 bound_to 7965
  140.4776  143.2390  151.9000 LP  0  0  0  0  0  0  0  0  0  0  0  0  # atno 17342 bound_to 10162
  139.4786  144.5303  151.8676 LP  0  0  0  0  0  0  0  0  0  0  0  0  # atno 17343 bound_to 10162
  157.0709  130.5864  149.5402 LP  0  0  0  0  0  0  0  0  0  0  0  0  # atno 17370 bound_to 10713
  156.0031  130.5113  150.7734 LP  0  0  0  0  0  0  0  0  0  0  0  0  # atno 17371 bound_to 10713
  140.1025  134.9526  157.1945 LP  0  0  0  0  0  0  0  0  0  0  0  0  # atno 17394 bound_to 11000
  140.3299  134.2821  155.7230 LP  0  0  0  0  0  0  0  0  0  0  0  0  # atno 17395 bound_to 11000

$$$$
