AV-unprocessed.smi:290|AV-procd|sdf|2222|dock3
  -GOLD-   2262022 73D 1   1.00000     0.00000
 Structure written by MMmdl.
 59 62  0  0  0  0  0  0  0  0  2 V2000
  152.0460  140.3367  157.3815 C   0  0  0  0  0  0  0  0  0  0  0  0
  151.9310  140.2418  155.8520 C   0  0  1  0  0  0  0  0  0  0  0  0
  153.0449  139.4435  155.4463 O   0  0  0  0  0  0  0  0  0  0  0  0
  152.6421  138.4744  154.4928 C   0  0  0  0  0  0  0  0  0  0  0  0
  151.2073  138.1643  154.8915 C   0  0  0  0  0  0  0  0  0  0  0  0
  150.6679  139.5323  155.2850 C   0  0  2  0  0  0  0  0  0  0  0  0
  150.2979  140.1937  154.0869 O   0  0  0  0  0  0  0  0  0  0  0  0
  149.4064  139.4269  156.1870 C   0  0  0  0  0  0  0  0  0  0  0  0
  148.3285  138.5815  155.6821 N   0  0  0  0  0  0  0  0  0  0  0  0
  147.6813  137.5512  156.3333 C   0  0  0  0  0  0  0  0  0  0  0  0
  146.7253  136.9731  155.6584 N   0  0  0  0  0  0  0  0  0  0  0  0
  146.6887  137.6752  154.4627 C   0  0  0  0  0  0  0  0  0  0  0  0
  145.8883  137.5881  153.2948 C   0  0  0  0  0  0  0  0  0  0  0  0
  144.9071  136.6653  153.1758 N   0  0  0  0  0  0  0  0  0  0  0  0
  144.3651  136.2037  154.4392 C   0  0  0  0  0  0  0  0  0  0  0  0
  143.6122  134.9132  154.1155 C   0  0  0  0  0  0  0  0  0  0  0  0
  144.0768  134.4875  152.7061 C   0  0  2  0  0  0  0  0  0  0  0  0
  144.4207  133.0309  152.6636 N   0  3  1  0  0  0  0  0  0  0  0  0
  144.2026  132.4707  151.3042 C   0  0  0  0  0  0  0  0  0  0  0  0
  145.7594  132.6749  153.2158 C   0  0  0  0  0  0  0  0  0  0  0  0
  145.9529  133.0637  154.6937 C   0  0  0  0  0  0  0  0  0  0  0  0
  145.4280  132.0610  155.5385 O   0  0  0  0  0  0  0  0  0  0  0  0
  145.2225  135.4794  152.3888 C   0  0  1  0  0  0  0  0  0  0  0  0
  145.3432  135.8548  150.8950 C   0  0  0  0  0  0  0  0  0  0  0  0
  146.1235  138.4754  152.2923 N   0  0  0  0  0  0  0  0  0  0  0  0
  147.0868  139.3920  152.4277 C   0  0  0  0  0  0  0  0  0  0  0  0
  147.9107  139.5906  153.4593 N   0  0  0  0  0  0  0  0  0  0  0  0
  147.6759  138.6983  154.4650 C   0  0  0  0  0  0  0  0  0  0  0  0
  143.2627  134.6750  152.0029 H   0  0  0  0  0  0  0  0  0  0  0  0
  146.1670  135.0677  152.7478 H   0  0  0  0  0  0  0  0  0  0  0  0
  151.3473  141.0607  157.7946 H   0  0  0  0  0  0  0  0  0  0  0  0
  153.0434  140.6690  157.6703 H   0  0  0  0  0  0  0  0  0  0  0  0
  151.8698  139.3726  157.8590 H   0  0  0  0  0  0  0  0  0  0  0  0
  152.0397  141.2424  155.4302 H   0  0  0  0  0  0  0  0  0  0  0  0
  152.6874  138.9073  153.4925 H   0  0  0  0  0  0  0  0  0  0  0  0
  153.2868  137.5957  154.5170 H   0  0  0  0  0  0  0  0  0  0  0  0
  150.6381  137.6776  154.0983 H   0  0  0  0  0  0  0  0  0  0  0  0
  151.2123  137.4971  155.7546 H   0  0  0  0  0  0  0  0  0  0  0  0
  149.7538  139.6118  153.5788 H   0  0  0  0  0  0  0  0  0  0  0  0
  149.6862  139.0509  157.1719 H   0  0  0  0  0  0  0  0  0  0  0  0
  149.0027  140.4247  156.3604 H   0  0  0  0  0  0  0  0  0  0  0  0
  147.9308  137.2326  157.3340 H   0  0  0  0  0  0  0  0  0  0  0  0
  145.1635  136.0037  155.1556 H   0  0  0  0  0  0  0  0  0  0  0  0
  143.7036  136.9539  154.8740 H   0  0  0  0  0  0  0  0  0  0  0  0
  143.8278  134.1622  154.8767 H   0  0  0  0  0  0  0  0  0  0  0  0
  142.5347  135.0826  154.1211 H   0  0  0  0  0  0  0  0  0  0  0  0
  144.9910  132.7890  150.6210 H   0  0  0  0  0  0  0  0  0  0  0  0
  143.2501  132.7887  150.8815 H   0  0  0  0  0  0  0  0  0  0  0  0
  144.1769  131.3820  151.3194 H   0  0  0  0  0  0  0  0  0  0  0  0
  145.9231  131.6035  153.0931 H   0  0  0  0  0  0  0  0  0  0  0  0
  146.5442  133.1846  152.6598 H   0  0  0  0  0  0  0  0  0  0  0  0
  146.9962  133.2547  154.9419 H   0  0  0  0  0  0  0  0  0  0  0  0
  145.4189  133.9917  154.8997 H   0  0  0  0  0  0  0  0  0  0  0  0
  144.4961  131.9978  155.3925 H   0  0  0  0  0  0  0  0  0  0  0  0
  145.5182  134.9948  150.2525 H   0  0  0  0  0  0  0  0  0  0  0  0
  146.1697  136.5462  150.7284 H   0  0  0  0  0  0  0  0  0  0  0  0
  144.4344  136.3424  150.5405 H   0  0  0  0  0  0  0  0  0  0  0  0
  147.2163  140.0627  151.5911 H   0  0  0  0  0  0  0  0  0  0  0  0
  143.7525  132.5769  153.2705 H   0  0  0  0  0  0  0  0  0  0  0  0
  1  2  1  0  0  0  0
  1 31  1  0  0  0  0
  1 32  1  0  0  0  0
  1 33  1  0  0  0  0
  2  6  1  0  0  0  0
  2  3  1  0  0  0  0
  2 34  1  0  0  0  0
  3  4  1  0  0  0  0
  4  5  1  0  0  0  0
  4 35  1  0  0  0  0
  4 36  1  0  0  0  0
  5  6  1  0  0  0  0
  5 37  1  0  0  0  0
  5 38  1  0  0  0  0
  6  7  1  0  0  0  0
  6  8  1  0  0  0  0
  7 39  1  0  0  0  0
  8  9  1  0  0  0  0
  8 40  1  0  0  0  0
  8 41  1  0  0  0  0
  9 28  1  0  0  0  0
  9 10  1  0  0  0  0
 10 11  2  0  0  0  0
 10 42  1  0  0  0  0
 11 12  1  0  0  0  0
 12 28  2  0  0  0  0
 12 13  1  0  0  0  0
 13 14  1  0  0  0  0
 13 25  2  0  0  0  0
 14 23  1  0  0  0  0
 14 15  1  0  0  0  0
 15 16  1  0  0  0  0
 15 43  1  0  0  0  0
 15 44  1  0  0  0  0
 16 17  1  0  0  0  0
 16 45  1  0  0  0  0
 16 46  1  0  0  0  0
 17 29  1  0  0  0  0
 17 18  1  0  0  0  0
 17 23  1  0  0  0  0
 18 19  1  0  0  0  0
 18 20  1  0  0  0  0
 18 59  1  0  0  0  0
 19 47  1  0  0  0  0
 19 48  1  0  0  0  0
 19 49  1  0  0  0  0
 20 21  1  0  0  0  0
 20 50  1  0  0  0  0
 20 51  1  0  0  0  0
 21 22  1  0  0  0  0
 21 52  1  0  0  0  0
 21 53  1  0  0  0  0
 22 54  1  0  0  0  0
 23 30  1  0  0  0  0
 23 24  1  0  0  0  0
 24 55  1  0  0  0  0
 24 56  1  0  0  0  0
 24 57  1  0  0  0  0
 25 26  1  0  0  0  0
 26 27  2  0  0  0  0
 26 58  1  0  0  0  0
 27 28  1  0  0  0  0
M  CHG  1  18   1
M  END
> <s_m_source_file>
AV-unprocessed.smi

> <i_m_source_file_index>
290

> <i_lp_mmshare_version>
43012

> <i_f3d_flags>
0

> <s_epik_input>
W0NIMl0xW0NIMl1PW0NAQEhdKFtDSDNdKVtDQEBdMShbT0hdKVtDSDJdbihbY0hdbjIpYyhjMjMpbltjSF1uYzNONFtDSDJdW0NIMl1bQ0BIXShbQ0BIXTRbQ0gzXSlOKFtDSDNdKVtDSDJdW0NIMl1bT0hd

> <s_epik_cmdline>
J2VwaWtfcHl0aG9uJywgJy1waCcsICc3LjAnLCAnLXRuJywgJzgnLCAnLW1hJywgJzIwMCcsICctbWV0YWxfYmluZGluZycsICctaW1hZScsICc8aW5maWxlLm1hZT4nLCAnLW9tYWUnLCAnPG91dGZpbGUubWFlPic=

> <r_lp_tautomer_probability>
1

> <r_epik_Ionization_Penalty>
0.0036983

> <r_epik_Ionization_Penalty_Charging>
0.0032725

> <r_epik_Ionization_Penalty_Neutral>
0.000425798

> <r_epik_State_Penalty>
-0

> <r_epik_Charging_Adjusted_Penalty>
0.0032725

> <i_epik_Tot_Q>
1

> <i_epik_Tot_abs_Q>
1

> <r_epik_Metal_State_Penalty>
-0

> <b_epik_Metal_Only>
0

> <s_lp_Force_Field>
OPLS_2005

> <r_lp_Energy>
67.3345

> <b_lp_Chiralities_Consistent>
1

> <s_lp_Variant>
AV-unprocessed.smi:290-8

> <Gold.Version>
5.8.1

> <Gold.Id.Protein>
6NUR|6NUR_protein|mol2

> <Gold.PLP.Fitness>
46.8254

> <Gold.PLP.PLP>
-32.9032

> <Gold.PLP.part.hbond>
-5.0252

> <Gold.PLP.part.metal>
0.0000

> <Gold.PLP.part.buried>
-5.9755

> <Gold.PLP.part.nonpolar>
-25.5311

> <Gold.PLP.part.repulsive>
2.1259

> <Gold.PLP.ligand.clash>
0.0000

> <Gold.PLP.ligand.torsion>
1.4174

> <Gold.PLP.Chemscore.Hbond>
5.0000

> <Gold.PLP.Chemscore.CHOScore>
0.5296

> <Gold.PLP.Chemscore.Metal>
0.0000

> <Gold.Chemscore.Hbonds>
donor molecule, donor type, donor heavy atom, donor atom, acceptor molecule, acceptor atom, score
      L1  H    18    59       P1 10957  2.00
      L1  H    22    54       P1 10957  1.00
      P1  H  7989  7998       L1     7  0.98
      P1  H  7997  8009       L1     3  1.00
      L1  C    26    58       P1  7957  0.51

> <Gold.PLP.Chemscore.Internal.Correction>
0.1681

> <Gold.Rescore>
     Score         DG    S(hbond)    S(metal)    S(lipo)     H(rot)  DE(clash)    DE(int)     intcor
      9.52     -15.41       3.57        0.00      63.24       3.67       0.15       5.75       ----

> <Gold.Chemscore.Fitness>
9.5160

> <Gold.Chemscore.DG>
-15.4090

> <Gold.Chemscore.ZeroCoef>
-5.4800

> <Gold.Chemscore.Hbond>
3.5672

> <Gold.Chemscore.Metal>
0.0000

> <Gold.Chemscore.Lipo>
63.2395

> <Gold.Chemscore.Internal_Hbond>
0.0000

> <Gold.Chemscore.DEClash>
0.1465

> <Gold.Chemscore.DEInternal>
5.7465

> <Gold.Chemscore.Rot>
3.6658

> <Gold.Chemscore.Internal.Correction>
   9.000000E+99

> <Gold.Chemscore.Hbonds>
donor molecule, donor type, donor heavy atom, donor atom, acceptor molecule, acceptor atom, score
      L1  H     7    39       P1  7957  0.01
      L1  H    18    59       P1 10957  0.24
      L1  H    22    54       P1 10957  0.65
      P1  H  7989  7998       L1     7  0.59
      P1  H  7997  8009       L1     3  0.38

> <Gold.Chemscore.Hbond.Weighted>
-11.9144

> <Gold.Chemscore.Metal.Weighted>
-0.0000

> <Gold.Chemscore.Lipo.Weighted>
-7.3990

> <Gold.Chemscore.Internal_Hbond.Weighted>
0.0000

> <Gold.Chemscore.DEClash.Weighted>
0.1465

> <Gold.Chemscore.DEInternal.Weighted>
5.7465

> <Gold.Chemscore.Rot.Weighted>
9.3844

> <Gold.Chemscore.Internal.Correction.Weighted>
   9.000000E+99

> <Gold.Protein.RotatedTorsions>
[ 6907 6896 6895 6894 ] final  171.71 input  -60.11 | X-H torsion
[ 7974 7965 7964 7962 ] final   43.64 input  175.53 | X-H torsion
[ 8008 7997 7996 7995 ] final -163.86 input   59.86 | X-H torsion
[ 10167 10162 10161 10158 ] final -144.76 input  -65.29 | X-H torsion
[ 10718 10713 10712 10709 ] final -172.10 input   66.30 | X-H torsion
[ 10763 10752 10751 10750 ] final   85.65 input  -60.55 | X-H torsion
[ 11005 11000 10999 10996 ] final  153.52 input  -57.11 | X-H torsion

> <Gold.Protein.ActiveResidues>
 VAL166  LYS551  ARG553  GLY616  TRP617  ASP618  TYR619  PRO620  LYS621  CYS622 
 ASP623  PHE694  ASN695  SER759  ASP760  ASP761  ALA762  ILE779  LEU786  VAL792 
 PHE793  MET794  SER795  GLU796  ALA797  LYS798  CYS799  TRP800  GLU811  SER814 

> <Gold.Protein.RotatedAtoms>
  151.7959  133.3364  159.3512 H   0  0  0  0  0  0  0  0  0  0  0  0  # atno 6907 bound_to 6896
  150.7375  134.5799  159.5942 H   0  0  0  0  0  0  0  0  0  0  0  0  # atno 6908 bound_to 6896
  152.3177  134.7420  160.0372 H   0  0  0  0  0  0  0  0  0  0  0  0  # atno 6909 bound_to 6896
  146.0638  139.5164  142.9641 H   0  0  0  0  0  0  0  0  0  0  0  0  # atno 7974 bound_to 7965
  155.8274  140.0928  157.1813 H   0  0  0  0  0  0  0  0  0  0  0  0  # atno 8008 bound_to 7997
  154.3979  140.1425  156.3633 H   0  0  0  0  0  0  0  0  0  0  0  0  # atno 8009 bound_to 7997
  155.8202  140.3446  155.5512 H   0  0  0  0  0  0  0  0  0  0  0  0  # atno 8010 bound_to 7997
  139.7869  143.8022  152.2645 H   0  0  0  0  0  0  0  0  0  0  0  0  # atno 10167 bound_to 10162
  156.7506  130.9376  151.3114 H   0  0  0  0  0  0  0  0  0  0  0  0  # atno 10718 bound_to 10713
  153.1495  135.4609  154.9615 H   0  0  0  0  0  0  0  0  0  0  0  0  # atno 10763 bound_to 10752
  154.7813  135.3189  154.7985 H   0  0  0  0  0  0  0  0  0  0  0  0  # atno 10764 bound_to 10752
  153.8493  135.6923  153.4848 H   0  0  0  0  0  0  0  0  0  0  0  0  # atno 10765 bound_to 10752
  140.1405  134.8742  157.2325 H   0  0  0  0  0  0  0  0  0  0  0  0  # atno 11005 bound_to 11000
  145.6513  141.0262  143.1758 LP  0  0  0  0  0  0  0  0  0  0  0  0  # atno 17320 bound_to 7965
  144.7190  139.8095  143.7388 LP  0  0  0  0  0  0  0  0  0  0  0  0  # atno 17321 bound_to 7965
  139.8101  144.7339  150.9709 LP  0  0  0  0  0  0  0  0  0  0  0  0  # atno 17342 bound_to 10162
  140.7820  143.4259  151.0769 LP  0  0  0  0  0  0  0  0  0  0  0  0  # atno 17343 bound_to 10162
  157.6779  130.9111  150.0194 LP  0  0  0  0  0  0  0  0  0  0  0  0  # atno 17370 bound_to 10713
  156.1404  130.3642  149.9591 LP  0  0  0  0  0  0  0  0  0  0  0  0  # atno 17371 bound_to 10713
  140.2728  134.3440  155.7368 LP  0  0  0  0  0  0  0  0  0  0  0  0  # atno 17394 bound_to 11000
  141.2185  133.7433  156.9248 LP  0  0  0  0  0  0  0  0  0  0  0  0  # atno 17395 bound_to 11000

$$$$
