AV-unprocessed.smi:37|AV-procd|sdf|307|dock3
  -GOLD-   2262016113D 1   1.00000     0.00000
 Structure written by MMmdl.
 44 45  0  0  0  0  0  0  0  0  1 V2000
  150.7852  142.0215  156.0865 C   0  0  0  0  0  0  0  0  0  0  0  0
  150.6590  140.5803  155.5700 C   0  0  0  0  0  0  0  0  0  0  0  0
  151.3621  139.5490  156.4553 C   0  0  0  0  0  0  0  0  0  0  0  0
  152.5822  139.3764  156.4277 O   0  0  0  0  0  0  0  0  0  0  0  0
  150.4966  138.8837  157.2360 O   0  0  0  0  0  0  0  0  0  0  0  0
  150.9848  137.9479  158.1830 C   0  0  0  0  0  0  0  0  0  0  0  0
  150.1382  136.6710  158.1256 C   0  0  2  0  0  0  0  0  0  0  0  0
  149.8933  136.3097  156.7654 O   0  0  0  0  0  0  0  0  0  0  0  0
  148.5711  135.8908  156.6018 C   0  0  1  0  0  0  0  0  0  0  0  0
  148.5627  134.5751  155.8546 N   0  0  0  0  0  0  0  0  0  0  0  0
  148.1388  134.5324  154.5335 C   0  0  0  0  0  0  0  0  0  0  0  0
  148.1304  133.3969  153.7956 C   0  0  0  0  0  0  0  0  0  0  0  0
  147.6977  133.4349  152.5239 F   0  0  0  0  0  0  0  0  0  0  0  0
  148.5892  132.1345  154.3672 C   0  0  0  0  0  0  0  0  0  0  0  0
  148.6125  131.0537  153.7820 O   0  0  0  0  0  0  0  0  0  0  0  0
  149.0302  132.2280  155.6904 N   0  0  0  0  0  0  0  0  0  0  0  0
  149.0488  133.3925  156.4603 C   0  0  0  0  0  0  0  0  0  0  0  0
  149.4807  133.3556  157.6113 O   0  0  0  0  0  0  0  0  0  0  0  0
  147.9415  135.8013  157.9939 C   0  0  2  0  0  0  0  0  0  0  0  0
  146.0062  136.2653  157.9571 Br  0  0  0  0  0  0  0  0  0  0  0  0
  148.7474  136.8340  158.7500 C   0  0  1  0  0  0  0  0  0  0  0  0
  148.7313  136.5203  160.1364 O   0  0  0  0  0  0  0  0  0  0  0  0
  147.6284  136.7405  160.8741 C   0  0  0  0  0  0  0  0  0  0  0  0
  146.6483  137.4020  160.5316 O   0  0  0  0  0  0  0  0  0  0  0  0
  147.6982  136.0756  162.2468 C   0  0  0  0  0  0  0  0  0  0  0  0
  146.6141  135.0044  162.4268 C   0  0  0  0  0  0  0  0  0  0  0  0
  149.3696  131.3815  156.1239 H   0  0  0  0  0  0  0  0  0  0  0  0
  150.2772  142.7151  155.4164 H   0  0  0  0  0  0  0  0  0  0  0  0
  151.8290  142.3313  156.1509 H   0  0  0  0  0  0  0  0  0  0  0  0
  150.3374  142.1308  157.0750 H   0  0  0  0  0  0  0  0  0  0  0  0
  149.6059  140.3093  155.4925 H   0  0  0  0  0  0  0  0  0  0  0  0
  151.0760  140.5140  154.5648 H   0  0  0  0  0  0  0  0  0  0  0  0
  152.0217  137.7147  157.9384 H   0  0  0  0  0  0  0  0  0  0  0  0
  150.9723  138.3731  159.1876 H   0  0  0  0  0  0  0  0  0  0  0  0
  150.6581  135.8437  158.6114 H   0  0  0  0  0  0  0  0  0  0  0  0
  148.0700  136.6225  155.9667 H   0  0  0  0  0  0  0  0  0  0  0  0
  147.7896  135.4394  154.0607 H   0  0  0  0  0  0  0  0  0  0  0  0
  148.0553  134.8084  158.4277 H   0  0  0  0  0  0  0  0  0  0  0  0
  148.3499  137.8269  158.5328 H   0  0  0  0  0  0  0  0  0  0  0  0
  148.6863  135.6332  162.3748 H   0  0  0  0  0  0  0  0  0  0  0  0
  147.5923  136.8417  163.0152 H   0  0  0  0  0  0  0  0  0  0  0  0
  146.6613  134.5757  163.4278 H   0  0  0  0  0  0  0  0  0  0  0  0
  146.7345  134.1885  161.7135 H   0  0  0  0  0  0  0  0  0  0  0  0
  145.6161  135.4238  162.2936 H   0  0  0  0  0  0  0  0  0  0  0  0
  1  2  1  0  0  0  0
  1 28  1  0  0  0  0
  1 29  1  0  0  0  0
  1 30  1  0  0  0  0
  2  3  1  0  0  0  0
  2 31  1  0  0  0  0
  2 32  1  0  0  0  0
  3  4  2  0  0  0  0
  3  5  1  0  0  0  0
  5  6  1  0  0  0  0
  6  7  1  0  0  0  0
  6 33  1  0  0  0  0
  6 34  1  0  0  0  0
  7 21  1  0  0  0  0
  7  8  1  0  0  0  0
  7 35  1  0  0  0  0
  8  9  1  0  0  0  0
  9 10  1  0  0  0  0
  9 19  1  0  0  0  0
  9 36  1  0  0  0  0
 10 17  1  0  0  0  0
 10 11  1  0  0  0  0
 11 12  2  0  0  0  0
 11 37  1  0  0  0  0
 12 13  1  0  0  0  0
 12 14  1  0  0  0  0
 14 15  2  0  0  0  0
 14 16  1  0  0  0  0
 16 27  1  0  0  0  0
 16 17  1  0  0  0  0
 17 18  2  0  0  0  0
 19 20  1  0  0  0  0
 19 21  1  0  0  0  0
 19 38  1  0  0  0  0
 21 22  1  0  0  0  0
 21 39  1  0  0  0  0
 22 23  1  0  0  0  0
 23 24  2  0  0  0  0
 23 25  1  0  0  0  0
 25 26  1  0  0  0  0
 25 40  1  0  0  0  0
 25 41  1  0  0  0  0
 26 42  1  0  0  0  0
 26 43  1  0  0  0  0
 26 44  1  0  0  0  0
M  END
> <s_m_source_file>
AV-unprocessed.smi

> <i_m_source_file_index>
37

> <i_lp_mmshare_version>
43012

> <i_f3d_flags>
0

> <s_epik_input>
W0NIM11bQ0gyXUMoPU8pT1tDSDJdW0NAQEhdMU9bQ0BASF0objJbY0hdYyhGKWMoPU8pW25IXWMyPU8pW0NAQEhdKEJyKVtDQEhdMU9DKD1PKVtDSDJdW0NIM10=

> <s_epik_cmdline>
J2VwaWtfcHl0aG9uJywgJy1waCcsICc3LjAnLCAnLXRuJywgJzgnLCAnLW1hJywgJzIwMCcsICctbWV0YWxfYmluZGluZycsICctaW1hZScsICc8aW5maWxlLm1hZT4nLCAnLW9tYWUnLCAnPG91dGZpbGUubWFlPic=

> <r_lp_tautomer_probability>
0.999537

> <r_epik_Ionization_Penalty>
0.104106

> <r_epik_Ionization_Penalty_Charging>
0.104106

> <r_epik_Ionization_Penalty_Neutral>
3.94675e-16

> <r_epik_State_Penalty>
0.0940182

> <r_epik_Charging_Adjusted_Penalty>
0.198124

> <i_epik_Tot_Q>
0

> <i_epik_Tot_abs_Q>
0

> <r_epik_Metal_State_Penalty>
3.05314

> <b_epik_Metal_Only>
0

> <s_epik_Chemistry_Notes>
This compound has an ester and may undergo hydrolysis at high or low pH. This compound contains an acetal/aminal-like group ( X-CH(R)-Y where X, Y are N, S, or O) that may be acid/base labile, releasing an aldehyde.

> <s_lp_Force_Field>
OPLS_2005

> <r_lp_Energy>
20.0289

> <b_lp_Chiralities_Consistent>
1

> <s_lp_Variant>
AV-unprocessed.smi:37-5

> <Gold.Version>
5.8.1

> <Gold.Id.Protein>
6NUR|6NUR_protein|mol2

> <Gold.PLP.Fitness>
46.5112

> <Gold.PLP.PLP>
-36.9833

> <Gold.PLP.part.hbond>
-3.2051

> <Gold.PLP.part.metal>
0.0000

> <Gold.PLP.part.buried>
-3.9375

> <Gold.PLP.part.nonpolar>
-30.5980

> <Gold.PLP.part.repulsive>
0.0893

> <Gold.PLP.ligand.clash>
0.0000

> <Gold.PLP.ligand.torsion>
1.1268

> <Gold.PLP.Chemscore.Hbond>
3.0000

> <Gold.PLP.Chemscore.CHOScore>
0.8136

> <Gold.PLP.Chemscore.Metal>
0.0000

> <Gold.Chemscore.Hbonds>
donor molecule, donor type, donor heavy atom, donor atom, acceptor molecule, acceptor atom, score
      P1  H  6896  6907       L1    18  0.71
      P1  H  6934  6947       L1    24  1.00
      P1  H  7997  8009       L1     4  1.00
      L1  C    11    37       P1  7948  0.62

> <Gold.PLP.Chemscore.Internal.Correction>
0.3407

> <Gold.Rescore>
     Score         DG    S(hbond)    S(metal)    S(lipo)     H(rot)  DE(clash)    DE(int)     intcor
     10.91     -13.57       2.98        0.00      56.96       3.33       0.07       2.59       ----

> <Gold.Chemscore.Fitness>
10.9054

> <Gold.Chemscore.DG>
-13.5702

> <Gold.Chemscore.ZeroCoef>
-5.4800

> <Gold.Chemscore.Hbond>
2.9795

> <Gold.Chemscore.Metal>
0.0000

> <Gold.Chemscore.Lipo>
56.9603

> <Gold.Chemscore.Internal_Hbond>
0.0000

> <Gold.Chemscore.DEClash>
0.0735

> <Gold.Chemscore.DEInternal>
2.5913

> <Gold.Chemscore.Rot>
3.3303

> <Gold.Chemscore.Internal.Correction>
   9.000000E+99

> <Gold.Chemscore.Hbonds>
donor molecule, donor type, donor heavy atom, donor atom, acceptor molecule, acceptor atom, score
      P1  H  6896  6907       L1    18  0.71
      P1  H  6934  6947       L1    24  0.35
      P1  H  7997  8009       L1     4  1.00

> <Gold.Chemscore.Hbond.Weighted>
-9.9514

> <Gold.Chemscore.Metal.Weighted>
-0.0000

> <Gold.Chemscore.Lipo.Weighted>
-6.6644

> <Gold.Chemscore.Internal_Hbond.Weighted>
0.0000

> <Gold.Chemscore.DEClash.Weighted>
0.0735

> <Gold.Chemscore.DEInternal.Weighted>
2.5913

> <Gold.Chemscore.Rot.Weighted>
8.5256

> <Gold.Chemscore.Internal.Correction.Weighted>
   9.000000E+99

> <Gold.Protein.RotatedTorsions>
[ 6907 6896 6895 6894 ] final -120.21 input  -60.11 | X-H torsion
[ 7974 7965 7964 7962 ] final  -25.99 input  175.53 | X-H torsion
[ 8008 7997 7996 7995 ] final -164.02 input   59.86 | X-H torsion
[ 10167 10162 10161 10158 ] final  106.65 input  -65.29 | X-H torsion
[ 10718 10713 10712 10709 ] final  -80.55 input   66.30 | X-H torsion
[ 10763 10752 10751 10750 ] final -125.74 input  -60.55 | X-H torsion
[ 11005 11000 10999 10996 ] final  148.74 input  -57.11 | X-H torsion

> <Gold.Protein.ActiveResidues>
 VAL166  LYS551  ARG553  GLY616  TRP617  ASP618  TYR619  PRO620  LYS621  CYS622 
 ASP623  PHE694  ASN695  SER759  ASP760  ASP761  ALA762  ILE779  LEU786  VAL792 
 PHE793  MET794  SER795  GLU796  ALA797  LYS798  CYS799  TRP800  GLU811  SER814 

> <Gold.Protein.RotatedAtoms>
  150.8373  133.7993  159.3074 H   0  0  0  0  0  0  0  0  0  0  0  0  # atno 6907 bound_to 6896
  151.5705  135.1061  160.0003 H   0  0  0  0  0  0  0  0  0  0  0  0  # atno 6908 bound_to 6896
  152.4443  133.7465  159.6726 H   0  0  0  0  0  0  0  0  0  0  0  0  # atno 6909 bound_to 6896
  146.1455  140.4959  142.8633 H   0  0  0  0  0  0  0  0  0  0  0  0  # atno 7974 bound_to 7965
  155.8297  140.0932  157.1800 H   0  0  0  0  0  0  0  0  0  0  0  0  # atno 8008 bound_to 7997
  154.3979  140.1421  156.3659 H   0  0  0  0  0  0  0  0  0  0  0  0  # atno 8009 bound_to 7997
  155.8179  140.3447  155.5499 H   0  0  0  0  0  0  0  0  0  0  0  0  # atno 8010 bound_to 7997
  139.6991  144.7097  151.1215 H   0  0  0  0  0  0  0  0  0  0  0  0  # atno 10167 bound_to 10162
  156.0068  130.4577  150.3817 H   0  0  0  0  0  0  0  0  0  0  0  0  # atno 10718 bound_to 10713
  154.8739  135.4019  154.3317 H   0  0  0  0  0  0  0  0  0  0  0  0  # atno 10763 bound_to 10752
  153.4130  135.7021  153.6352 H   0  0  0  0  0  0  0  0  0  0  0  0  # atno 10764 bound_to 10752
  153.5046  135.3720  155.2527 H   0  0  0  0  0  0  0  0  0  0  0  0  # atno 10765 bound_to 10752
  140.0985  134.8997  157.1760 H   0  0  0  0  0  0  0  0  0  0  0  0  # atno 11005 bound_to 11000
  144.7841  140.5901  143.6585 LP  0  0  0  0  0  0  0  0  0  0  0  0  # atno 17320 bound_to 7965
  145.4947  139.1486  143.3690 LP  0  0  0  0  0  0  0  0  0  0  0  0  # atno 17321 bound_to 7965
  140.7705  143.5449  150.9270 LP  0  0  0  0  0  0  0  0  0  0  0  0  # atno 17342 bound_to 10162
  139.9130  143.6697  152.3111 LP  0  0  0  0  0  0  0  0  0  0  0  0  # atno 17343 bound_to 10162
  157.1896  131.0412  151.2707 LP  0  0  0  0  0  0  0  0  0  0  0  0  # atno 17370 bound_to 10713
  157.4073  130.7366  149.6812 LP  0  0  0  0  0  0  0  0  0  0  0  0  # atno 17371 bound_to 10713
  140.3252  134.2871  155.7238 LP  0  0  0  0  0  0  0  0  0  0  0  0  # atno 17394 bound_to 11000
  141.2099  133.7735  156.9967 LP  0  0  0  0  0  0  0  0  0  0  0  0  # atno 17395 bound_to 11000

$$$$
