AV-unprocessed.smi:2158|AV-procd|sdf|8788|dock7
  -GOLD-   2272011563D 1   1.00000     0.00000
 Structure written by MMmdl.
 31 31  0  0  0  0  0  0  0  0  1 V2000
  152.3603  143.4425  161.1573 C   0  0  0  0  0  0  0  0  0  0  0  0
  152.5207  142.7859  159.7783 C   0  0  0  0  0  0  0  0  0  0  0  0
  151.3590  143.0730  158.8056 C   0  0  1  0  0  0  0  0  0  0  0  0
  151.2312  144.5730  158.5060 C   0  0  0  0  0  0  0  0  0  0  0  0
  151.5399  142.3496  157.5477 N   0  0  0  0  0  0  0  0  0  0  0  0
  150.9004  141.2260  157.1851 C   0  0  0  0  0  0  0  0  0  0  0  0
  150.0815  140.6513  157.9040 O   0  0  0  0  0  0  0  0  0  0  0  0
  151.2695  140.6600  155.8062 C   0  0  0  0  0  0  0  0  0  0  0  0
  150.0975  140.3579  154.9712 N   0  0  0  0  0  0  0  0  0  0  0  0
  149.1018  141.3078  154.7925 C   0  0  0  0  0  0  0  0  0  0  0  0
  148.0013  141.1003  154.0311 C   0  0  0  0  0  0  0  0  0  0  0  0
  147.8086  139.8286  153.3425 C   0  0  0  0  0  0  0  0  0  0  0  0
  146.8453  139.5444  152.6342 O   0  0  0  0  0  0  0  0  0  0  0  0
  148.8341  138.9008  153.5432 N   0  0  0  0  0  0  0  0  0  0  0  0
  149.9714  139.1087  154.3251 C   0  0  0  0  0  0  0  0  0  0  0  0
  150.8189  138.2230  154.4317 O   0  0  0  0  0  0  0  0  0  0  0  0
  148.7473  138.0067  153.0822 H   0  0  0  0  0  0  0  0  0  0  0  0
  153.2394  143.2622  161.7759 H   0  0  0  0  0  0  0  0  0  0  0  0
  151.4972  143.0466  161.6927 H   0  0  0  0  0  0  0  0  0  0  0  0
  152.2330  144.5216  161.0668 H   0  0  0  0  0  0  0  0  0  0  0  0
  153.4506  143.1428  159.3344 H   0  0  0  0  0  0  0  0  0  0  0  0
  152.6408  141.7092  159.9040 H   0  0  0  0  0  0  0  0  0  0  0  0
  150.4293  142.7616  159.2849 H   0  0  0  0  0  0  0  0  0  0  0  0
  151.0619  145.1427  159.4203 H   0  0  0  0  0  0  0  0  0  0  0  0
  150.3924  144.7696  157.8374 H   0  0  0  0  0  0  0  0  0  0  0  0
  152.1330  144.9634  158.0334 H   0  0  0  0  0  0  0  0  0  0  0  0
  152.2028  142.7420  156.8947 H   0  0  0  0  0  0  0  0  0  0  0  0
  151.9298  141.3583  155.2876 H   0  0  0  0  0  0  0  0  0  0  0  0
  151.8660  139.7592  155.9581 H   0  0  0  0  0  0  0  0  0  0  0  0
  149.2047  142.2668  155.2803 H   0  0  0  0  0  0  0  0  0  0  0  0
  147.2601  141.8799  153.9304 H   0  0  0  0  0  0  0  0  0  0  0  0
  1  2  1  0  0  0  0
  1 18  1  0  0  0  0
  1 19  1  0  0  0  0
  1 20  1  0  0  0  0
  2  3  1  0  0  0  0
  2 21  1  0  0  0  0
  2 22  1  0  0  0  0
  3  4  1  0  0  0  0
  3  5  1  0  0  0  0
  3 23  1  0  0  0  0
  4 24  1  0  0  0  0
  4 25  1  0  0  0  0
  4 26  1  0  0  0  0
  5  6  1  0  0  0  0
  5 27  1  0  0  0  0
  6  7  2  0  0  0  0
  6  8  1  0  0  0  0
  8  9  1  0  0  0  0
  8 28  1  0  0  0  0
  8 29  1  0  0  0  0
  9 15  1  0  0  0  0
  9 10  1  0  0  0  0
 10 11  2  0  0  0  0
 10 30  1  0  0  0  0
 11 12  1  0  0  0  0
 11 31  1  0  0  0  0
 12 13  2  0  0  0  0
 12 14  1  0  0  0  0
 14 17  1  0  0  0  0
 14 15  1  0  0  0  0
 15 16  2  0  0  0  0
M  END
> <s_m_source_file>
AV-unprocessed.smi

> <i_m_source_file_index>
2158

> <i_lp_mmshare_version>
43012

> <i_f3d_flags>
0

> <s_epik_input>
W0NIM11bQ0gyXVtDQEhdKFtDSDNdKVtOSF1DKD1PKVtDSDJdbjFbY0hdW2NIXWMoPU8pW25IXWMxPU8=

> <s_epik_cmdline>
J2VwaWtfcHl0aG9uJywgJy1waCcsICc3LjAnLCAnLXRuJywgJzgnLCAnLW1hJywgJzIwMCcsICctbWV0YWxfYmluZGluZycsICctaW1hZScsICc8aW5maWxlLm1hZT4nLCAnLW9tYWUnLCAnPG91dGZpbGUubWFlPic=

> <r_lp_tautomer_probability>
0.999537

> <r_epik_Ionization_Penalty>
0.00326083

> <r_epik_Ionization_Penalty_Charging>
0.00326081

> <r_epik_Ionization_Penalty_Neutral>
1.93017e-08

> <r_epik_State_Penalty>
0.00230249

> <r_epik_Charging_Adjusted_Penalty>
0.0055633

> <i_epik_Tot_Q>
0

> <i_epik_Tot_abs_Q>
0

> <r_epik_Metal_State_Penalty>
0.364899

> <b_epik_Metal_Only>
0

> <s_lp_Force_Field>
OPLS_2005

> <r_lp_Energy>
2.92089

> <b_lp_Chiralities_Consistent>
1

> <s_lp_Variant>
AV-unprocessed.smi:2158-2

> <Gold.Version>
5.8.1

> <Gold.Id.Protein>
6NUR|6NUR_protein|mol2

> <Gold.PLP.Fitness>
37.7307

> <Gold.PLP.PLP>
-33.3072

> <Gold.PLP.part.hbond>
-1.7051

> <Gold.PLP.part.metal>
0.0000

> <Gold.PLP.part.buried>
-1.4578

> <Gold.PLP.part.nonpolar>
-31.0334

> <Gold.PLP.part.repulsive>
0.6717

> <Gold.PLP.ligand.clash>
0.0000

> <Gold.PLP.ligand.torsion>
0.3933

> <Gold.PLP.Chemscore.Hbond>
0.7313

> <Gold.PLP.Chemscore.CHOScore>
1.0000

> <Gold.PLP.Chemscore.Metal>
0.0000

> <Gold.Chemscore.Hbonds>
donor molecule, donor type, donor heavy atom, donor atom, acceptor molecule, acceptor atom, score
      L1  H    14    17       P1  7948  0.71
      L1  C    10    30       P1  8028  1.00

> <Gold.PLP.Chemscore.Internal.Correction>
0.0162

> <Gold.Rescore>
     Score         DG    S(hbond)    S(metal)    S(lipo)     H(rot)  DE(clash)    DE(int)     intcor
     10.80     -11.32       0.99        0.00      65.23       1.99       0.11       0.41       ----

> <Gold.Chemscore.Fitness>
10.8039

> <Gold.Chemscore.DG>
-11.3239

> <Gold.Chemscore.ZeroCoef>
-5.4800

> <Gold.Chemscore.Hbond>
0.9902

> <Gold.Chemscore.Metal>
0.0000

> <Gold.Chemscore.Lipo>
65.2307

> <Gold.Chemscore.Internal_Hbond>
0.0000

> <Gold.Chemscore.DEClash>
0.1052

> <Gold.Chemscore.DEInternal>
0.4148

> <Gold.Chemscore.Rot>
1.9904

> <Gold.Chemscore.Internal.Correction>
   9.000000E+99

> <Gold.Chemscore.Hbonds>
donor molecule, donor type, donor heavy atom, donor atom, acceptor molecule, acceptor atom, score
      L1  H    14    17       P1  7948  0.73

> <Gold.Chemscore.Hbond.Weighted>
-3.3074

> <Gold.Chemscore.Metal.Weighted>
-0.0000

> <Gold.Chemscore.Lipo.Weighted>
-7.6320

> <Gold.Chemscore.Internal_Hbond.Weighted>
0.0000

> <Gold.Chemscore.DEClash.Weighted>
0.1052

> <Gold.Chemscore.DEInternal.Weighted>
0.4148

> <Gold.Chemscore.Rot.Weighted>
5.0955

> <Gold.Chemscore.Internal.Correction.Weighted>
   9.000000E+99

> <Gold.Protein.RotatedTorsions>
[ 6907 6896 6895 6894 ] final -136.08 input  -60.11 | X-H torsion
[ 7974 7965 7964 7962 ] final -116.21 input  175.53 | X-H torsion
[ 8008 7997 7996 7995 ] final  -39.69 input   59.86 | X-H torsion
[ 10167 10162 10161 10158 ] final   70.33 input  -65.29 | X-H torsion
[ 10718 10713 10712 10709 ] final  100.19 input   66.30 | X-H torsion
[ 10763 10752 10751 10750 ] final    3.82 input  -60.55 | X-H torsion
[ 11005 11000 10999 10996 ] final   85.53 input  -57.11 | X-H torsion

> <Gold.Protein.ActiveResidues>
 VAL166  LYS551  ARG553  GLY616  TRP617  ASP618  TYR619  PRO620  LYS621  CYS622 
 ASP623  PHE694  ASN695  SER759  ASP760  ASP761  ALA762  ILE779  LEU786  VAL792 
 PHE793  MET794  SER795  GLU796  ALA797  LYS798  CYS799  TRP800  GLU811  SER814 

> <Gold.Protein.RotatedAtoms>
  151.0057  133.6013  159.2688 H   0  0  0  0  0  0  0  0  0  0  0  0  # atno 6907 bound_to 6896
  151.3183  135.0811  159.9306 H   0  0  0  0  0  0  0  0  0  0  0  0  # atno 6908 bound_to 6896
  152.5286  133.9709  159.7816 H   0  0  0  0  0  0  0  0  0  0  0  0  # atno 6909 bound_to 6896
  145.0994  140.8542  143.3935 H   0  0  0  0  0  0  0  0  0  0  0  0  # atno 7974 bound_to 7965
  154.4020  140.1545  156.2904 H   0  0  0  0  0  0  0  0  0  0  0  0  # atno 8008 bound_to 7997
  155.8790  140.3445  155.5852 H   0  0  0  0  0  0  0  0  0  0  0  0  # atno 8009 bound_to 7997
  155.7688  140.0827  157.2109 H   0  0  0  0  0  0  0  0  0  0  0  0  # atno 8010 bound_to 7997
  140.0581  144.5256  150.7314 H   0  0  0  0  0  0  0  0  0  0  0  0  # atno 10167 bound_to 10162
  157.6859  131.0691  150.5063 H   0  0  0  0  0  0  0  0  0  0  0  0  # atno 10718 bound_to 10713
  153.2787  135.6938  153.7407 H   0  0  0  0  0  0  0  0  0  0  0  0  # atno 10763 bound_to 10752
  153.6403  135.3394  155.3070 H   0  0  0  0  0  0  0  0  0  0  0  0  # atno 10764 bound_to 10752
  154.8488  135.4430  154.1833 H   0  0  0  0  0  0  0  0  0  0  0  0  # atno 10765 bound_to 10752
  139.8969  134.8293  156.2595 H   0  0  0  0  0  0  0  0  0  0  0  0  # atno 11005 bound_to 11000
  145.0973  139.2847  143.5704 LP  0  0  0  0  0  0  0  0  0  0  0  0  # atno 17320 bound_to 7965
  146.3530  140.0529  142.8634 LP  0  0  0  0  0  0  0  0  0  0  0  0  # atno 17321 bound_to 7965
  140.7185  143.2566  151.4357 LP  0  0  0  0  0  0  0  0  0  0  0  0  # atno 17342 bound_to 10162
  139.5911  144.1498  152.2089 LP  0  0  0  0  0  0  0  0  0  0  0  0  # atno 17343 bound_to 10162
  156.5382  130.4201  149.6167 LP  0  0  0  0  0  0  0  0  0  0  0  0  # atno 17370 bound_to 10713
  156.3008  130.7176  151.2047 LP  0  0  0  0  0  0  0  0  0  0  0  0  # atno 17371 bound_to 10713
  141.0172  133.7062  156.1208 LP  0  0  0  0  0  0  0  0  0  0  0  0  # atno 17394 bound_to 11000
  140.7285  134.4281  157.5568 LP  0  0  0  0  0  0  0  0  0  0  0  0  # atno 17395 bound_to 11000

$$$$
