AV-unprocessed.smi:888|AV-procd|sdf|4054|dock1
  -GOLD-   22720 1543D 1   1.00000     0.00000
 Structure written by MMmdl.
 45 46  0  0  0  0  0  0  0  0  1 V2000
  151.7011  140.1596  158.1813 C   0  0  0  0  0  0  0  0  0  0  0  0
  151.0392  138.9140  157.5793 C   0  0  0  0  0  0  0  0  0  0  0  0
  150.7293  139.0707  156.1200 C   0  0  0  0  0  0  0  0  0  0  0  0
  150.9959  140.1979  155.4476 N   0  0  0  0  0  0  0  0  0  0  0  0
  150.5826  139.9712  154.1518 N   0  0  0  0  0  0  0  0  0  0  0  0
  150.1180  138.7239  154.1645 C   0  0  0  0  0  0  0  0  0  0  0  0
  150.1834  138.1001  155.3509 N   0  0  0  0  0  0  0  0  0  0  0  0
  149.7730  136.7366  155.6502 C   0  0  0  0  0  0  0  0  0  0  0  0
  148.2497  136.5339  155.5355 C   0  0  0  0  0  0  0  0  0  0  0  0
  147.8532  135.8923  154.2818 N   0  0  0  0  0  0  0  0  0  0  0  0
  146.8513  135.0181  154.0800 C   0  0  0  0  0  0  0  0  0  0  0  0
  146.1281  134.6371  154.9980 O   0  0  0  0  0  0  0  0  0  0  0  0
  146.7254  134.5951  152.8112 N   0  0  0  0  0  0  0  0  0  0  0  0
  145.7444  133.6217  152.3339 C   0  0  2  0  0  0  0  0  0  0  0  0
  146.4488  132.5148  151.5248 C   0  0  0  0  0  0  0  0  0  0  0  0
  145.8993  132.6044  150.1038 C   0  0  0  0  0  0  0  0  0  0  0  0
  144.5022  133.1880  150.2841 C   0  0  0  0  0  0  0  0  0  0  0  0
  144.6405  134.2285  151.4111 C   0  0  0  0  0  0  0  0  0  0  0  0
  143.3095  134.3921  152.1689 C   0  0  0  0  0  0  0  0  0  0  0  0
  145.0287  135.5936  150.7922 C   0  0  0  0  0  0  0  0  0  0  0  0
  151.8862  140.0239  159.2470 H   0  0  0  0  0  0  0  0  0  0  0  0
  151.0724  141.0415  158.0617 H   0  0  0  0  0  0  0  0  0  0  0  0
  152.6580  140.3682  157.7023 H   0  0  0  0  0  0  0  0  0  0  0  0
  151.7011  138.0557  157.6988 H   0  0  0  0  0  0  0  0  0  0  0  0
  150.1378  138.6794  158.1416 H   0  0  0  0  0  0  0  0  0  0  0  0
  149.7233  138.2476  153.2790 H   0  0  0  0  0  0  0  0  0  0  0  0
  150.2698  136.0810  154.9340 H   0  0  0  0  0  0  0  0  0  0  0  0
  150.1498  136.4375  156.6269 H   0  0  0  0  0  0  0  0  0  0  0  0
  147.8957  135.9143  156.3599 H   0  0  0  0  0  0  0  0  0  0  0  0
  147.7353  137.4905  155.6404 H   0  0  0  0  0  0  0  0  0  0  0  0
  148.4199  136.1184  153.4767 H   0  0  0  0  0  0  0  0  0  0  0  0
  147.3642  134.9684  152.1244 H   0  0  0  0  0  0  0  0  0  0  0  0
  145.2831  133.1373  153.1969 H   0  0  0  0  0  0  0  0  0  0  0  0
  147.5370  132.5929  151.5389 H   0  0  0  0  0  0  0  0  0  0  0  0
  146.1952  131.5424  151.9492 H   0  0  0  0  0  0  0  0  0  0  0  0
  146.5127  133.2830  149.5100 H   0  0  0  0  0  0  0  0  0  0  0  0
  145.8880  131.6386  149.5979 H   0  0  0  0  0  0  0  0  0  0  0  0
  144.1039  133.6057  149.3587 H   0  0  0  0  0  0  0  0  0  0  0  0
  143.8264  132.3880  150.5904 H   0  0  0  0  0  0  0  0  0  0  0  0
  142.5194  134.7484  151.5073 H   0  0  0  0  0  0  0  0  0  0  0  0
  143.4056  135.1090  152.9847 H   0  0  0  0  0  0  0  0  0  0  0  0
  142.9748  133.4482  152.6007 H   0  0  0  0  0  0  0  0  0  0  0  0
  144.2782  135.9272  150.0746 H   0  0  0  0  0  0  0  0  0  0  0  0
  145.9823  135.5456  150.2658 H   0  0  0  0  0  0  0  0  0  0  0  0
  145.1080  136.3729  151.5510 H   0  0  0  0  0  0  0  0  0  0  0  0
  1  2  1  0  0  0  0
  1 21  1  0  0  0  0
  1 22  1  0  0  0  0
  1 23  1  0  0  0  0
  2  3  1  0  0  0  0
  2 24  1  0  0  0  0
  2 25  1  0  0  0  0
  3  7  1  0  0  0  0
  3  4  2  0  0  0  0
  4  5  1  0  0  0  0
  5  6  2  0  0  0  0
  6  7  1  0  0  0  0
  6 26  1  0  0  0  0
  7  8  1  0  0  0  0
  8  9  1  0  0  0  0
  8 27  1  0  0  0  0
  8 28  1  0  0  0  0
  9 10  1  0  0  0  0
  9 29  1  0  0  0  0
  9 30  1  0  0  0  0
 10 11  1  0  0  0  0
 10 31  1  0  0  0  0
 11 12  2  0  0  0  0
 11 13  1  0  0  0  0
 13 14  1  0  0  0  0
 13 32  1  0  0  0  0
 14 18  1  0  0  0  0
 14 15  1  0  0  0  0
 14 33  1  0  0  0  0
 15 16  1  0  0  0  0
 15 34  1  0  0  0  0
 15 35  1  0  0  0  0
 16 17  1  0  0  0  0
 16 36  1  0  0  0  0
 16 37  1  0  0  0  0
 17 18  1  0  0  0  0
 17 38  1  0  0  0  0
 17 39  1  0  0  0  0
 18 19  1  0  0  0  0
 18 20  1  0  0  0  0
 19 40  1  0  0  0  0
 19 41  1  0  0  0  0
 19 42  1  0  0  0  0
 20 43  1  0  0  0  0
 20 44  1  0  0  0  0
 20 45  1  0  0  0  0
M  END
> <s_m_source_file>
AV-unprocessed.smi

> <i_m_source_file_index>
888

> <i_lp_mmshare_version>
43012

> <i_f3d_flags>
0

> <s_epik_input>
W0NIM11bQ0gyXWMxbm5bY0hdbjFbQ0gyXVtDSDJdW05IXUMoPU8pW05IXVtDQEBIXShDMihbQ0gzXSlbQ0gzXSlbQ0gyXVtDSDJdW0NIMl0y

> <s_epik_cmdline>
J2VwaWtfcHl0aG9uJywgJy1waCcsICc3LjAnLCAnLXRuJywgJzgnLCAnLW1hJywgJzIwMCcsICctbWV0YWxfYmluZGluZycsICctaW1hZScsICc8aW5maWxlLm1hZT4nLCAnLW9tYWUnLCAnPG91dGZpbGUubWFlPic=

> <r_lp_tautomer_probability>
1

> <r_epik_Ionization_Penalty>
0.000379534

> <r_epik_Ionization_Penalty_Charging>
0

> <r_epik_Ionization_Penalty_Neutral>
0.000379534

> <r_epik_State_Penalty>
-0

> <r_epik_Charging_Adjusted_Penalty>
0

> <i_epik_Tot_Q>
0

> <i_epik_Tot_abs_Q>
0

> <r_epik_Metal_State_Penalty>
-0

> <b_epik_Metal_Only>
0

> <s_lp_Force_Field>
OPLS_2005

> <r_lp_Energy>
31.9266

> <b_lp_Chiralities_Consistent>
1

> <s_lp_Variant>
AV-unprocessed.smi:888-1

> <Gold.Version>
5.8.1

> <Gold.Id.Protein>
6NUR|6NUR_protein|mol2

> <Gold.PLP.Fitness>
40.9626

> <Gold.PLP.PLP>
-30.0849

> <Gold.PLP.part.hbond>
-3.6806

> <Gold.PLP.part.metal>
0.0000

> <Gold.PLP.part.buried>
-5.3485

> <Gold.PLP.part.nonpolar>
-22.4158

> <Gold.PLP.part.repulsive>
0.2195

> <Gold.PLP.ligand.clash>
0.0000

> <Gold.PLP.ligand.torsion>
0.5870

> <Gold.PLP.Chemscore.Hbond>
2.7546

> <Gold.PLP.Chemscore.CHOScore>
1.2449

> <Gold.PLP.Chemscore.Metal>
0.0000

> <Gold.Chemscore.Hbonds>
donor molecule, donor type, donor heavy atom, donor atom, acceptor molecule, acceptor atom, score
      L1  H    10    31       P1  7948  1.00
      L1  H    13    32       P1  7948  0.91
      P1  H  7989  7998       L1     5  0.83
      L1  C     6    26       P1  7948  0.97
      L1  C     6    26       P1  7957  0.27

> <Gold.PLP.Chemscore.Internal.Correction>
0.0535

> <Gold.Rescore>
     Score         DG    S(hbond)    S(metal)    S(lipo)     H(rot)  DE(clash)    DE(int)     intcor
     16.40     -16.82       2.93        0.00      57.78       2.03       0.00       0.42       ----

> <Gold.Chemscore.Fitness>
16.3957

> <Gold.Chemscore.DG>
-16.8178

> <Gold.Chemscore.ZeroCoef>
-5.4800

> <Gold.Chemscore.Hbond>
2.9258

> <Gold.Chemscore.Metal>
0.0000

> <Gold.Chemscore.Lipo>
57.7836

> <Gold.Chemscore.Internal_Hbond>
0.0000

> <Gold.Chemscore.DEClash>
0.0038

> <Gold.Chemscore.DEInternal>
0.4183

> <Gold.Chemscore.Rot>
2.0293

> <Gold.Chemscore.Internal.Correction>
   9.000000E+99

> <Gold.Chemscore.Hbonds>
donor molecule, donor type, donor heavy atom, donor atom, acceptor molecule, acceptor atom, score
      L1  H    10    31       P1  7948  1.00
      L1  H    13    32       P1  7948  0.80
      P1  H  7989  7998       L1     5  0.13

> <Gold.Chemscore.Hbond.Weighted>
-9.7721

> <Gold.Chemscore.Metal.Weighted>
-0.0000

> <Gold.Chemscore.Lipo.Weighted>
-6.7607

> <Gold.Chemscore.Internal_Hbond.Weighted>
0.0000

> <Gold.Chemscore.DEClash.Weighted>
0.0038

> <Gold.Chemscore.DEInternal.Weighted>
0.4183

> <Gold.Chemscore.Rot.Weighted>
5.1950

> <Gold.Chemscore.Internal.Correction.Weighted>
   9.000000E+99

> <Gold.Protein.RotatedTorsions>
[ 6907 6896 6895 6894 ] final -176.72 input  -60.11 | X-H torsion
[ 7974 7965 7964 7962 ] final  -30.57 input  175.53 | X-H torsion
[ 8008 7997 7996 7995 ] final   53.75 input   59.86 | X-H torsion
[ 10167 10162 10161 10158 ] final  173.36 input  -65.29 | X-H torsion
[ 10718 10713 10712 10709 ] final -151.76 input   66.30 | X-H torsion
[ 10763 10752 10751 10750 ] final  -28.99 input  -60.55 | X-H torsion
[ 11005 11000 10999 10996 ] final  -66.89 input  -57.11 | X-H torsion

> <Gold.Protein.ActiveResidues>
 VAL166  LYS551  ARG553  GLY616  TRP617  ASP618  TYR619  PRO620  LYS621  CYS622 
 ASP623  PHE694  ASN695  SER759  ASP760  ASP761  ALA762  ILE779  LEU786  VAL792 
 PHE793  MET794  SER795  GLU796  ALA797  LYS798  CYS799  TRP800  GLU811  SER814 

> <Gold.Protein.RotatedAtoms>
  151.6093  133.3349  159.3063 H   0  0  0  0  0  0  0  0  0  0  0  0  # atno 6907 bound_to 6896
  150.8165  134.7353  159.6746 H   0  0  0  0  0  0  0  0  0  0  0  0  # atno 6908 bound_to 6896
  152.4261  134.5871  160.0015 H   0  0  0  0  0  0  0  0  0  0  0  0  # atno 6909 bound_to 6896
  146.1133  140.5557  142.8768 H   0  0  0  0  0  0  0  0  0  0  0  0  # atno 7974 bound_to 7965
  155.4734  140.3466  155.4329 H   0  0  0  0  0  0  0  0  0  0  0  0  # atno 8008 bound_to 7997
  156.1086  140.1454  156.9399 H   0  0  0  0  0  0  0  0  0  0  0  0  # atno 8009 bound_to 7997
  154.4741  140.0891  156.7196 H   0  0  0  0  0  0  0  0  0  0  0  0  # atno 8010 bound_to 7997
  139.5106  144.3269  152.0149 H   0  0  0  0  0  0  0  0  0  0  0  0  # atno 10167 bound_to 10162
  156.4636  130.8225  151.2455 H   0  0  0  0  0  0  0  0  0  0  0  0  # atno 10718 bound_to 10713
  153.7573  135.6922  153.4933 H   0  0  0  0  0  0  0  0  0  0  0  0  # atno 10763 bound_to 10752
  153.1962  135.4453  155.0209 H   0  0  0  0  0  0  0  0  0  0  0  0  # atno 10764 bound_to 10752
  154.8166  135.3401  154.7090 H   0  0  0  0  0  0  0  0  0  0  0  0  # atno 10765 bound_to 10752
  141.1494  133.6708  156.6208 H   0  0  0  0  0  0  0  0  0  0  0  0  # atno 11005 bound_to 11000
  144.7530  140.5239  143.6788 LP  0  0  0  0  0  0  0  0  0  0  0  0  # atno 17320 bound_to 7965
  145.5619  139.1480  143.3336 LP  0  0  0  0  0  0  0  0  0  0  0  0  # atno 17321 bound_to 7965
  140.2710  144.3964  150.6151 LP  0  0  0  0  0  0  0  0  0  0  0  0  # atno 17342 bound_to 10162
  140.6089  143.2168  151.6926 LP  0  0  0  0  0  0  0  0  0  0  0  0  # atno 17343 bound_to 10162
  157.7496  131.0099  150.3286 LP  0  0  0  0  0  0  0  0  0  0  0  0  # atno 17370 bound_to 10713
  156.3691  130.3860  149.7190 LP  0  0  0  0  0  0  0  0  0  0  0  0  # atno 17371 bound_to 10713
  140.3542  134.7743  157.4488 LP  0  0  0  0  0  0  0  0  0  0  0  0  # atno 17394 bound_to 11000
  140.0836  134.5696  155.8515 LP  0  0  0  0  0  0  0  0  0  0  0  0  # atno 17395 bound_to 11000

$$$$
