AV-unprocessed.smi:1258|AV-procd|sdf|5287|dock10
  -GOLD-   22720 4403D 1   1.00000     0.00000
 Structure written by MMmdl.
 33 34  0  0  0  0  0  0  0  0  1 V2000
  151.9054  145.4844  159.5284 C   0  0  0  0  0  0  0  0  0  0  0  0
  152.1054  144.0538  160.0479 C   0  0  2  0  0  0  0  0  0  0  0  0
  152.2377  144.0252  161.5828 C   0  0  0  0  0  0  0  0  0  0  0  0
  152.4461  142.5960  162.1088 C   0  0  0  0  0  0  0  0  0  0  0  0
  153.6575  141.9213  161.4403 C   0  0  0  0  0  0  0  0  0  0  0  0
  153.5551  141.9398  159.9031 C   0  0  1  0  0  0  0  0  0  0  0  0
  152.4810  141.0514  159.4676 N   0  0  0  0  0  0  0  0  0  0  0  0
  152.6204  139.9778  158.6741 C   0  0  0  0  0  0  0  0  0  0  0  0
  153.7104  139.5530  158.2931 O   0  0  0  0  0  0  0  0  0  0  0  0
  151.3302  139.2829  158.2316 C   0  0  0  0  0  0  0  0  0  0  0  0
  151.1686  139.3345  156.7887 N   0  0  0  0  0  0  0  0  0  0  0  0
  151.2291  140.3599  155.9365 C   0  0  0  0  0  0  0  0  0  0  0  0
  151.0531  139.9670  154.6845 N   0  0  0  0  0  0  0  0  0  0  0  0
  150.8708  138.5997  154.8069 N   0  0  0  0  0  0  0  0  0  0  0  0
  150.9371  138.2184  156.0531 N   0  0  0  0  0  0  0  0  0  0  0  0
  153.3294  143.3804  159.3912 C   0  0  0  0  0  0  0  0  0  0  0  0
  152.7612  146.1171  159.7657 H   0  0  0  0  0  0  0  0  0  0  0  0
  151.0201  145.9421  159.9708 H   0  0  0  0  0  0  0  0  0  0  0  0
  151.7741  145.4939  158.4459 H   0  0  0  0  0  0  0  0  0  0  0  0
  151.2148  143.4852  159.7753 H   0  0  0  0  0  0  0  0  0  0  0  0
  153.0769  144.6502  161.8916 H   0  0  0  0  0  0  0  0  0  0  0  0
  151.3475  144.4562  162.0423 H   0  0  0  0  0  0  0  0  0  0  0  0
  152.5861  142.6173  163.1899 H   0  0  0  0  0  0  0  0  0  0  0  0
  151.5466  142.0059  161.9290 H   0  0  0  0  0  0  0  0  0  0  0  0
  154.5669  142.4413  161.7442 H   0  0  0  0  0  0  0  0  0  0  0  0
  153.7601  140.8967  161.7998 H   0  0  0  0  0  0  0  0  0  0  0  0
  154.4946  141.5626  159.4953 H   0  0  0  0  0  0  0  0  0  0  0  0
  151.5455  141.3162  159.7392 H   0  0  0  0  0  0  0  0  0  0  0  0
  151.3329  138.2400  158.5522 H   0  0  0  0  0  0  0  0  0  0  0  0
  150.4736  139.7662  158.7025 H   0  0  0  0  0  0  0  0  0  0  0  0
  151.4114  141.3831  156.2305 H   0  0  0  0  0  0  0  0  0  0  0  0
  153.2197  143.3826  158.3059 H   0  0  0  0  0  0  0  0  0  0  0  0
  154.2208  143.9733  159.6008 H   0  0  0  0  0  0  0  0  0  0  0  0
  1  2  1  0  0  0  0
  1 17  1  0  0  0  0
  1 18  1  0  0  0  0
  1 19  1  0  0  0  0
  2 16  1  0  0  0  0
  2  3  1  0  0  0  0
  2 20  1  0  0  0  0
  3  4  1  0  0  0  0
  3 21  1  0  0  0  0
  3 22  1  0  0  0  0
  4  5  1  0  0  0  0
  4 23  1  0  0  0  0
  4 24  1  0  0  0  0
  5  6  1  0  0  0  0
  5 25  1  0  0  0  0
  5 26  1  0  0  0  0
  6  7  1  0  0  0  0
  6 16  1  0  0  0  0
  6 27  1  0  0  0  0
  7  8  1  0  0  0  0
  7 28  1  0  0  0  0
  8  9  2  0  0  0  0
  8 10  1  0  0  0  0
 10 11  1  0  0  0  0
 10 29  1  0  0  0  0
 10 30  1  0  0  0  0
 11 15  1  0  0  0  0
 11 12  1  0  0  0  0
 12 13  2  0  0  0  0
 12 31  1  0  0  0  0
 13 14  1  0  0  0  0
 14 15  2  0  0  0  0
 16 32  1  0  0  0  0
 16 33  1  0  0  0  0
M  END
> <s_m_source_file>
AV-unprocessed.smi

> <i_m_source_file_index>
1258

> <i_lp_mmshare_version>
43012

> <i_f3d_flags>
0

> <s_epik_input>
W0NIM11bQ0BASF0xW0NIMl1bQ0gyXVtDSDJdW0NASF0oW0NIMl0xKVtOSF1DKD1PKVtDSDJdbjJbY0hdbm5uMg==

> <s_epik_cmdline>
J2VwaWtfcHl0aG9uJywgJy1waCcsICc3LjAnLCAnLXRuJywgJzgnLCAnLW1hJywgJzIwMCcsICctbWV0YWxfYmluZGluZycsICctaW1hZScsICc8aW5maWxlLm1hZT4nLCAnLW9tYWUnLCAnPG91dGZpbGUubWFlPic=

> <r_lp_tautomer_probability>
1

> <r_epik_Ionization_Penalty>
5.03816e-07

> <r_epik_Ionization_Penalty_Charging>
0

> <r_epik_Ionization_Penalty_Neutral>
5.03816e-07

> <r_epik_State_Penalty>
-0

> <r_epik_Charging_Adjusted_Penalty>
0

> <i_epik_Tot_Q>
0

> <i_epik_Tot_abs_Q>
0

> <r_epik_Metal_State_Penalty>
-0

> <b_epik_Metal_Only>
0

> <s_lp_Force_Field>
OPLS_2005

> <r_lp_Energy>
9.71314

> <b_lp_Chiralities_Consistent>
1

> <s_lp_Variant>
AV-unprocessed.smi:1258-1

> <Gold.Version>
5.8.1

> <Gold.Id.Protein>
6NUR|6NUR_protein|mol2

> <Gold.PLP.Fitness>
44.5293

> <Gold.PLP.PLP>
-38.6684

> <Gold.PLP.part.hbond>
-2.0000

> <Gold.PLP.part.metal>
0.0000

> <Gold.PLP.part.buried>
-4.8429

> <Gold.PLP.part.nonpolar>
-32.0802

> <Gold.PLP.part.repulsive>
0.3233

> <Gold.PLP.ligand.clash>
0.0000

> <Gold.PLP.ligand.torsion>
0.0731

> <Gold.PLP.Chemscore.Hbond>
2.0000

> <Gold.PLP.Chemscore.CHOScore>
0.0000

> <Gold.PLP.Chemscore.Metal>
0.0000

> <Gold.Chemscore.Hbonds>
donor molecule, donor type, donor heavy atom, donor atom, acceptor molecule, acceptor atom, score
      P1  H  7989  7998       L1    13  1.00
      P1  H  7997  8008       L1     9  1.00

> <Gold.PLP.Chemscore.Internal.Correction>
0.0070

> <Gold.Rescore>
     Score         DG    S(hbond)    S(metal)    S(lipo)     H(rot)  DE(clash)    DE(int)     intcor
     17.56     -17.59       1.99        0.00      88.60       1.92       0.00       0.03       ----

> <Gold.Chemscore.Fitness>
17.5586

> <Gold.Chemscore.DG>
-17.5869

> <Gold.Chemscore.ZeroCoef>
-5.4800

> <Gold.Chemscore.Hbond>
1.9905

> <Gold.Chemscore.Metal>
0.0000

> <Gold.Chemscore.Lipo>
88.5962

> <Gold.Chemscore.Internal_Hbond>
0.0000

> <Gold.Chemscore.DEClash>
0.0029

> <Gold.Chemscore.DEInternal>
0.0254

> <Gold.Chemscore.Rot>
1.9169

> <Gold.Chemscore.Internal.Correction>
   9.000000E+99

> <Gold.Chemscore.Hbonds>
donor molecule, donor type, donor heavy atom, donor atom, acceptor molecule, acceptor atom, score
      P1  H  7989  7998       L1    13  0.96
      P1  H  7997  8008       L1     9  0.98

> <Gold.Chemscore.Hbond.Weighted>
-6.6484

> <Gold.Chemscore.Metal.Weighted>
-0.0000

> <Gold.Chemscore.Lipo.Weighted>
-10.3658

> <Gold.Chemscore.Internal_Hbond.Weighted>
0.0000

> <Gold.Chemscore.DEClash.Weighted>
0.0029

> <Gold.Chemscore.DEInternal.Weighted>
0.0254

> <Gold.Chemscore.Rot.Weighted>
4.9073

> <Gold.Chemscore.Internal.Correction.Weighted>
   9.000000E+99

> <Gold.Protein.RotatedTorsions>
[ 6907 6896 6895 6894 ] final  143.85 input  -60.11 | X-H torsion
[ 7974 7965 7964 7962 ] final   48.30 input  175.53 | X-H torsion
[ 8008 7997 7996 7995 ] final  -95.84 input   59.86 | X-H torsion
[ 10167 10162 10161 10158 ] final  -78.35 input  -65.29 | X-H torsion
[ 10718 10713 10712 10709 ] final -102.47 input   66.30 | X-H torsion
[ 10763 10752 10751 10750 ] final  -26.47 input  -60.55 | X-H torsion
[ 11005 11000 10999 10996 ] final  -36.30 input  -57.11 | X-H torsion

> <Gold.Protein.ActiveResidues>
 VAL166  LYS551  ARG553  GLY616  TRP617  ASP618  TYR619  PRO620  LYS621  CYS622 
 ASP623  PHE694  ASN695  SER759  ASP760  ASP761  ALA762  ILE779  LEU786  VAL792 
 PHE793  MET794  SER795  GLU796  ALA797  LYS798  CYS799  TRP800  GLU811  SER814 

> <Gold.Protein.RotatedAtoms>
  152.2011  133.4841  159.5058 H   0  0  0  0  0  0  0  0  0  0  0  0  # atno 6907 bound_to 6896
  150.6970  134.1590  159.4178 H   0  0  0  0  0  0  0  0  0  0  0  0  # atno 6908 bound_to 6896
  151.9507  135.0170  160.0592 H   0  0  0  0  0  0  0  0  0  0  0  0  # atno 6909 bound_to 6896
  146.0217  139.4658  142.9893 H   0  0  0  0  0  0  0  0  0  0  0  0  # atno 7974 bound_to 7965
  154.7666  140.0476  157.1017 H   0  0  0  0  0  0  0  0  0  0  0  0  # atno 8008 bound_to 7997
  154.9871  140.3108  155.4902 H   0  0  0  0  0  0  0  0  0  0  0  0  # atno 8009 bound_to 7997
  156.2914  140.2225  156.4974 H   0  0  0  0  0  0  0  0  0  0  0  0  # atno 8010 bound_to 7997
  140.4690  143.2432  151.8234 H   0  0  0  0  0  0  0  0  0  0  0  0  # atno 10167 bound_to 10162
  156.0230  130.5422  150.7113 H   0  0  0  0  0  0  0  0  0  0  0  0  # atno 10718 bound_to 10713
  153.7165  135.6947  153.5024 H   0  0  0  0  0  0  0  0  0  0  0  0  # atno 10763 bound_to 10752
  153.2235  135.4362  155.0514 H   0  0  0  0  0  0  0  0  0  0  0  0  # atno 10764 bound_to 10752
  154.8298  135.3466  154.6700 H   0  0  0  0  0  0  0  0  0  0  0  0  # atno 10765 bound_to 10752
  140.9864  133.7028  156.1773 H   0  0  0  0  0  0  0  0  0  0  0  0  # atno 11005 bound_to 11000
  145.7183  141.0083  143.1416 LP  0  0  0  0  0  0  0  0  0  0  0  0  # atno 17320 bound_to 7965
  144.6992  139.8840  143.7449 LP  0  0  0  0  0  0  0  0  0  0  0  0  # atno 17321 bound_to 7965
  139.4816  144.4915  151.9179 LP  0  0  0  0  0  0  0  0  0  0  0  0  # atno 17342 bound_to 10162
  140.4000  144.2505  150.5893 LP  0  0  0  0  0  0  0  0  0  0  0  0  # atno 17343 bound_to 10162
  157.4751  131.0897  151.0599 LP  0  0  0  0  0  0  0  0  0  0  0  0  # atno 17370 bound_to 10713
  157.1049  130.5997  149.5468 LP  0  0  0  0  0  0  0  0  0  0  0  0  # atno 17371 bound_to 10713
  140.7108  134.4464  157.5581 LP  0  0  0  0  0  0  0  0  0  0  0  0  # atno 17394 bound_to 11000
  139.8972  134.8641  156.2053 LP  0  0  0  0  0  0  0  0  0  0  0  0  # atno 17395 bound_to 11000

$$$$
