AV-unprocessed.smi:2006|AV-procd|sdf|8131|dock6
  -GOLD-   2272010363D 1   1.00000     0.00000
 Structure written by MMmdl.
 32 33  0  0  0  0  0  0  0  0  1 V2000
  152.9339  142.8690  161.6635 C   0  0  0  0  0  0  0  0  0  0  0  0
  152.0455  143.2221  160.4659 C   0  0  2  0  0  0  0  0  0  0  0  0
  152.1082  142.1488  159.3617 C   0  0  0  0  0  0  0  0  0  0  0  0
  151.3275  142.5715  158.2057 N   0  0  0  0  0  0  0  0  0  0  0  0
  151.2413  141.5889  157.2094 C   0  0  0  0  0  0  0  0  0  0  0  0
  150.2540  141.7136  156.2093 C   0  0  0  0  0  0  0  0  0  0  0  0
  150.1651  140.7180  155.2175 C   0  0  0  0  0  0  0  0  0  0  0  0
  151.0649  139.6340  155.2594 C   0  0  0  0  0  0  0  0  0  0  0  0
  151.0037  138.5321  154.2222 C   0  0  0  0  0  0  0  0  0  0  0  0
  149.8596  138.6665  153.3432 N   0  0  0  0  0  0  0  0  0  0  0  0
  152.0165  139.5977  156.2994 C   0  0  0  0  0  0  0  0  0  0  0  0
  152.1089  140.5489  157.2532 N   0  0  0  0  0  0  0  0  0  0  0  0
  151.7347  143.8794  157.7081 C   0  0  0  0  0  0  0  0  0  0  0  0
  151.6799  144.9123  158.8459 C   0  0  0  0  0  0  0  0  0  0  0  0
  152.4886  144.4682  159.9319 O   0  0  0  0  0  0  0  0  0  0  0  0
  152.6274  141.9252  162.1153 H   0  0  0  0  0  0  0  0  0  0  0  0
  152.8758  143.6403  162.4318 H   0  0  0  0  0  0  0  0  0  0  0  0
  153.9785  142.7738  161.3652 H   0  0  0  0  0  0  0  0  0  0  0  0
  151.0171  143.3296  160.8154 H   0  0  0  0  0  0  0  0  0  0  0  0
  153.1440  141.9810  159.0629 H   0  0  0  0  0  0  0  0  0  0  0  0
  151.7233  141.2001  159.7382 H   0  0  0  0  0  0  0  0  0  0  0  0
  149.5755  142.5543  156.2019 H   0  0  0  0  0  0  0  0  0  0  0  0
  149.4175  140.7855  154.4409 H   0  0  0  0  0  0  0  0  0  0  0  0
  151.9155  138.5417  153.6244 H   0  0  0  0  0  0  0  0  0  0  0  0
  150.9594  137.5623  154.7191 H   0  0  0  0  0  0  0  0  0  0  0  0
  150.1095  139.2461  152.5545 H   0  0  0  0  0  0  0  0  0  0  0  0
  149.6234  137.7624  152.9596 H   0  0  0  0  0  0  0  0  0  0  0  0
  152.7220  138.7830  156.3711 H   0  0  0  0  0  0  0  0  0  0  0  0
  152.7480  143.8255  157.3074 H   0  0  0  0  0  0  0  0  0  0  0  0
  151.0788  144.1851  156.8918 H   0  0  0  0  0  0  0  0  0  0  0  0
  152.0507  145.8762  158.4976 H   0  0  0  0  0  0  0  0  0  0  0  0
  150.6534  145.0674  159.1820 H   0  0  0  0  0  0  0  0  0  0  0  0
  1  2  1  0  0  0  0
  1 16  1  0  0  0  0
  1 17  1  0  0  0  0
  1 18  1  0  0  0  0
  2 15  1  0  0  0  0
  2  3  1  0  0  0  0
  2 19  1  0  0  0  0
  3  4  1  0  0  0  0
  3 20  1  0  0  0  0
  3 21  1  0  0  0  0
  4  5  1  0  0  0  0
  4 13  1  0  0  0  0
  5 12  1  0  0  0  0
  5  6  2  0  0  0  0
  6  7  1  0  0  0  0
  6 22  1  0  0  0  0
  7  8  2  0  0  0  0
  7 23  1  0  0  0  0
  8  9  1  0  0  0  0
  8 11  1  0  0  0  0
  9 10  1  0  0  0  0
  9 24  1  0  0  0  0
  9 25  1  0  0  0  0
 10 26  1  0  0  0  0
 10 27  1  0  0  0  0
 11 12  2  0  0  0  0
 11 28  1  0  0  0  0
 13 14  1  0  0  0  0
 13 29  1  0  0  0  0
 13 30  1  0  0  0  0
 14 15  1  0  0  0  0
 14 31  1  0  0  0  0
 14 32  1  0  0  0  0
M  END
> <s_m_source_file>
AV-unprocessed.smi

> <i_m_source_file_index>
2006

> <i_lp_mmshare_version>
43012

> <i_f3d_flags>
0

> <s_epik_input>
W0NIM11bQ0BASF0xW0NIMl1OKFtDSDJdW0NIMl1PMSljMltjSF1bY0hdYyhbY0hdbjIpW0NIMl1bTkgyXQ==

> <s_epik_cmdline>
J2VwaWtfcHl0aG9uJywgJy1waCcsICc3LjAnLCAnLXRuJywgJzgnLCAnLW1hJywgJzIwMCcsICctbWV0YWxfYmluZGluZycsICctaW1hZScsICc8aW5maWxlLm1hZT4nLCAnLW9tYWUnLCAnPG91dGZpbGUubWFlPic=

> <r_lp_tautomer_probability>
1

> <r_epik_Ionization_Penalty>
1.39389

> <r_epik_Ionization_Penalty_Charging>
0

> <r_epik_Ionization_Penalty_Neutral>
1.39389

> <r_epik_State_Penalty>
1.46818

> <r_epik_Charging_Adjusted_Penalty>
1.46818

> <i_epik_Tot_Q>
0

> <i_epik_Tot_abs_Q>
0

> <r_epik_Metal_State_Penalty>
1.46201

> <b_epik_Metal_Only>
0

> <s_lp_Force_Field>
OPLS_2005

> <r_lp_Energy>
16.9161

> <b_lp_Chiralities_Consistent>
1

> <s_lp_Variant>
AV-unprocessed.smi:2006-3

> <Gold.Version>
5.8.1

> <Gold.Id.Protein>
6NUR|6NUR_protein|mol2

> <Gold.PLP.Fitness>
42.2801

> <Gold.PLP.PLP>
-36.7678

> <Gold.PLP.part.hbond>
-2.1088

> <Gold.PLP.part.metal>
0.0000

> <Gold.PLP.part.buried>
-3.4693

> <Gold.PLP.part.nonpolar>
-30.9378

> <Gold.PLP.part.repulsive>
0.0829

> <Gold.PLP.ligand.clash>
0.0000

> <Gold.PLP.ligand.torsion>
0.2937

> <Gold.PLP.Chemscore.Hbond>
2.0000

> <Gold.PLP.Chemscore.CHOScore>
0.0000

> <Gold.PLP.Chemscore.Metal>
0.0000

> <Gold.Chemscore.Hbonds>
donor molecule, donor type, donor heavy atom, donor atom, acceptor molecule, acceptor atom, score
      L1  H    10    26       P1  7957  0.98
      L1  H    10    27       P1  7948  1.00

> <Gold.PLP.Chemscore.Internal.Correction>
0.0997

> <Gold.Rescore>
     Score         DG    S(hbond)    S(metal)    S(lipo)     H(rot)  DE(clash)    DE(int)     intcor
     19.44     -19.83       1.97        0.00      94.36       1.28       0.01       0.38       ----

> <Gold.Chemscore.Fitness>
19.4435

> <Gold.Chemscore.DG>
-19.8272

> <Gold.Chemscore.ZeroCoef>
-5.4800

> <Gold.Chemscore.Hbond>
1.9683

> <Gold.Chemscore.Metal>
0.0000

> <Gold.Chemscore.Lipo>
94.3598

> <Gold.Chemscore.Internal_Hbond>
0.0000

> <Gold.Chemscore.DEClash>
0.0061

> <Gold.Chemscore.DEInternal>
0.3775

> <Gold.Chemscore.Rot>
1.2762

> <Gold.Chemscore.Internal.Correction>
   9.000000E+99

> <Gold.Chemscore.Hbonds>
donor molecule, donor type, donor heavy atom, donor atom, acceptor molecule, acceptor atom, score
      L1  H    10    26       P1  7957  0.68
      L1  H    10    27       P1  7948  0.69

> <Gold.Chemscore.Hbond.Weighted>
-6.5742

> <Gold.Chemscore.Metal.Weighted>
-0.0000

> <Gold.Chemscore.Lipo.Weighted>
-11.0401

> <Gold.Chemscore.Internal_Hbond.Weighted>
0.0000

> <Gold.Chemscore.DEClash.Weighted>
0.0061

> <Gold.Chemscore.DEInternal.Weighted>
0.3775

> <Gold.Chemscore.Rot.Weighted>
3.2671

> <Gold.Chemscore.Internal.Correction.Weighted>
   9.000000E+99

> <Gold.Protein.RotatedTorsions>
[ 6907 6896 6895 6894 ] final  -56.18 input  -60.11 | X-H torsion
[ 7974 7965 7964 7962 ] final -143.50 input  175.53 | X-H torsion
[ 8008 7997 7996 7995 ] final    8.59 input   59.86 | X-H torsion
[ 10167 10162 10161 10158 ] final -131.29 input  -65.29 | X-H torsion
[ 10718 10713 10712 10709 ] final -132.19 input   66.30 | X-H torsion
[ 10763 10752 10751 10750 ] final  105.95 input  -60.55 | X-H torsion
[ 11005 11000 10999 10996 ] final   -4.27 input  -57.11 | X-H torsion

> <Gold.Protein.ActiveResidues>
 VAL166  LYS551  ARG553  GLY616  TRP617  ASP618  TYR619  PRO620  LYS621  CYS622 
 ASP623  PHE694  ASN695  SER759  ASP760  ASP761  ALA762  ILE779  LEU786  VAL792 
 PHE793  MET794  SER795  GLU796  ALA797  LYS798  CYS799  TRP800  GLU811  SER814 

> <Gold.Protein.RotatedAtoms>
  150.8189  134.7387  159.6754 H   0  0  0  0  0  0  0  0  0  0  0  0  # atno 6907 bound_to 6896
  152.4306  134.5781  159.9950 H   0  0  0  0  0  0  0  0  0  0  0  0  # atno 6908 bound_to 6896
  151.5970  133.3323  159.3075 H   0  0  0  0  0  0  0  0  0  0  0  0  # atno 6909 bound_to 6896
  144.8365  140.5827  143.5481 H   0  0  0  0  0  0  0  0  0  0  0  0  # atno 7974 bound_to 7965
  154.7689  140.2798  155.6154 H   0  0  0  0  0  0  0  0  0  0  0  0  # atno 8008 bound_to 7997
  156.2930  140.2645  156.2414 H   0  0  0  0  0  0  0  0  0  0  0  0  # atno 8009 bound_to 7997
  154.9925  140.0373  157.2315 H   0  0  0  0  0  0  0  0  0  0  0  0  # atno 8010 bound_to 7997
  139.9204  143.6389  152.2555 H   0  0  0  0  0  0  0  0  0  0  0  0  # atno 10167 bound_to 10162
  156.2320  130.7043  151.0868 H   0  0  0  0  0  0  0  0  0  0  0  0  # atno 10718 bound_to 10713
  153.3864  135.3893  155.1892 H   0  0  0  0  0  0  0  0  0  0  0  0  # atno 10763 bound_to 10752
  154.8714  135.3737  154.4793 H   0  0  0  0  0  0  0  0  0  0  0  0  # atno 10764 bound_to 10752
  153.5275  135.7086  153.5761 H   0  0  0  0  0  0  0  0  0  0  0  0  # atno 10765 bound_to 10752
  140.6784  133.9175  155.8539 H   0  0  0  0  0  0  0  0  0  0  0  0  # atno 11005 bound_to 11000
  145.4784  139.1497  143.3775 LP  0  0  0  0  0  0  0  0  0  0  0  0  # atno 17320 bound_to 7965
  146.2663  140.4920  142.8833 LP  0  0  0  0  0  0  0  0  0  0  0  0  # atno 17321 bound_to 7965
  139.6866  144.7651  151.1513 LP  0  0  0  0  0  0  0  0  0  0  0  0  # atno 17342 bound_to 10162
  140.7663  143.5648  150.9059 LP  0  0  0  0  0  0  0  0  0  0  0  0  # atno 17343 bound_to 10162
  157.7137  131.0721  150.6406 LP  0  0  0  0  0  0  0  0  0  0  0  0  # atno 17370 bound_to 10713
  156.6474  130.4475  149.5731 LP  0  0  0  0  0  0  0  0  0  0  0  0  # atno 17371 bound_to 10713
  141.0337  134.0720  157.3984 LP  0  0  0  0  0  0  0  0  0  0  0  0  # atno 17394 bound_to 11000
  139.8959  135.0143  156.7026 LP  0  0  0  0  0  0  0  0  0  0  0  0  # atno 17395 bound_to 11000

$$$$
