AV-unprocessed.smi:1008|AV-procd|sdf|4410|dock2
  -GOLD-   22720 2353D 1   1.00000     0.00000
 Structure written by MMmdl.
 23 23  0  0  0  0  0  0  0  0  1 V2000
  152.5722  139.2271  157.2843 C   0  0  0  0  0  0  0  0  0  0  0  0
  151.6623  140.2936  156.7005 C   0  0  0  0  0  0  0  0  0  0  0  0
  151.6260  141.5084  157.3986 N   0  0  0  0  0  0  0  0  0  0  0  0
  150.8753  142.4706  156.9707 C   0  0  0  0  0  0  0  0  0  0  0  0
  150.7427  143.7126  157.5565 N   0  0  0  0  0  0  0  0  0  0  0  0
  150.0986  142.3233  155.8214 N   0  0  0  0  0  0  0  0  0  0  0  0
  150.0699  141.1945  155.0777 C   0  0  0  0  0  0  0  0  0  0  0  0
  149.3689  141.1302  154.0689 O   0  0  0  0  0  0  0  0  0  0  0  0
  150.9258  140.1009  155.5695 C   0  0  0  0  0  0  0  0  0  0  0  0
  150.9230  138.7903  154.7875 C   0  0  0  0  0  0  0  0  0  0  0  0
  152.3397  138.3484  154.3936 C   0  0  0  0  0  0  0  0  0  0  0  0
  152.2767  137.1551  153.6436 O   0  0  0  0  0  0  0  0  0  0  0  0
  149.5256  143.0975  155.5195 H   0  0  0  0  0  0  0  0  0  0  0  0
  153.2561  138.8457  156.5257 H   0  0  0  0  0  0  0  0  0  0  0  0
  151.9827  138.3956  157.6709 H   0  0  0  0  0  0  0  0  0  0  0  0
  153.1721  139.6233  158.1043 H   0  0  0  0  0  0  0  0  0  0  0  0
  151.2355  143.9847  158.3950 H   0  0  0  0  0  0  0  0  0  0  0  0
  150.1460  144.4428  157.1956 H   0  0  0  0  0  0  0  0  0  0  0  0
  150.4449  138.0052  155.3727 H   0  0  0  0  0  0  0  0  0  0  0  0
  150.3028  138.8987  153.8963 H   0  0  0  0  0  0  0  0  0  0  0  0
  152.8339  139.1160  153.7974 H   0  0  0  0  0  0  0  0  0  0  0  0
  152.9514  138.1778  155.2799 H   0  0  0  0  0  0  0  0  0  0  0  0
  151.5340  137.2047  153.0614 H   0  0  0  0  0  0  0  0  0  0  0  0
  1  2  1  0  0  0  0
  1 14  1  0  0  0  0
  1 15  1  0  0  0  0
  1 16  1  0  0  0  0
  2  9  2  0  0  0  0
  2  3  1  0  0  0  0
  3  4  2  0  0  0  0
  4  5  1  0  0  0  0
  4  6  1  0  0  0  0
  5 17  1  0  0  0  0
  5 18  1  0  0  0  0
  6 13  1  0  0  0  0
  6  7  1  0  0  0  0
  7  8  2  0  0  0  0
  7  9  1  0  0  0  0
  9 10  1  0  0  0  0
 10 11  1  0  0  0  0
 10 19  1  0  0  0  0
 10 20  1  0  0  0  0
 11 12  1  0  0  0  0
 11 21  1  0  0  0  0
 11 22  1  0  0  0  0
 12 23  1  0  0  0  0
M  END
> <s_m_source_file>
AV-unprocessed.smi

> <i_m_source_file_index>
1008

> <i_lp_mmshare_version>
43012

> <i_f3d_flags>
0

> <s_epik_input>
W0NIM11jMW5jKFtOSDJdKVtuSF1jKD1PKWMxW0NIMl1bQ0gyXVtPSF0=

> <s_epik_cmdline>
J2VwaWtfcHl0aG9uJywgJy1waCcsICc3LjAnLCAnLXRuJywgJzgnLCAnLW1hJywgJzIwMCcsICctbWV0YWxfYmluZGluZycsICctaW1hZScsICc8aW5maWxlLm1hZT4nLCAnLW9tYWUnLCAnPG91dGZpbGUubWFlPic=

> <r_lp_tautomer_probability>
0.878315

> <r_epik_Ionization_Penalty>
0.000554322

> <r_epik_Ionization_Penalty_Charging>
3.57358e-05

> <r_epik_Ionization_Penalty_Neutral>
0.000518586

> <r_epik_State_Penalty>
0.0663044

> <r_epik_Charging_Adjusted_Penalty>
0.0663402

> <i_epik_Tot_Q>
0

> <i_epik_Tot_abs_Q>
0

> <r_epik_Metal_State_Penalty>
0.196169

> <b_epik_Metal_Only>
0

> <s_lp_Force_Field>
OPLS_2005

> <r_lp_Energy>
7.47934

> <b_lp_Chiralities_Consistent>
1

> <s_lp_Variant>
AV-unprocessed.smi:1008-1

> <Gold.Version>
5.8.1

> <Gold.Id.Protein>
6NUR|6NUR_protein|mol2

> <Gold.PLP.Fitness>
35.2433

> <Gold.PLP.PLP>
-23.2083

> <Gold.PLP.part.hbond>
-6.0000

> <Gold.PLP.part.metal>
0.0000

> <Gold.PLP.part.buried>
-1.8648

> <Gold.PLP.part.nonpolar>
-15.5319

> <Gold.PLP.part.repulsive>
0.8100

> <Gold.PLP.ligand.clash>
0.0000

> <Gold.PLP.ligand.torsion>
0.0368

> <Gold.PLP.Chemscore.Hbond>
4.0360

> <Gold.PLP.Chemscore.CHOScore>
0.0000

> <Gold.PLP.Chemscore.Metal>
0.0000

> <Gold.Chemscore.Hbonds>
donor molecule, donor type, donor heavy atom, donor atom, acceptor molecule, acceptor atom, score
      L1  H     5    18       P1  8028  0.80
      L1  H     6    13       P1  8028  1.00
      L1  H    12    23       P1  7949  0.51
      P1  H  8011  8017       L1     8  0.47
      P1  H 10752 10765       L1    12  1.00

> <Gold.PLP.Chemscore.Internal.Correction>
0.0006

> <Gold.Rescore>
     Score         DG    S(hbond)    S(metal)    S(lipo)     H(rot)  DE(clash)    DE(int)     intcor
     14.81     -15.54       3.43        0.00      33.06       2.06       0.73       0.00       ----

> <Gold.Chemscore.Fitness>
14.8088

> <Gold.Chemscore.DG>
-15.5406

> <Gold.Chemscore.ZeroCoef>
-5.4800

> <Gold.Chemscore.Hbond>
3.4325

> <Gold.Chemscore.Metal>
0.0000

> <Gold.Chemscore.Lipo>
33.0649

> <Gold.Chemscore.Internal_Hbond>
0.0000

> <Gold.Chemscore.DEClash>
0.7297

> <Gold.Chemscore.DEInternal>
0.0022

> <Gold.Chemscore.Rot>
2.0595

> <Gold.Chemscore.Internal.Correction>
   9.000000E+99

> <Gold.Chemscore.Hbonds>
donor molecule, donor type, donor heavy atom, donor atom, acceptor molecule, acceptor atom, score
      L1  H     5    18       P1  8028  0.47
      L1  H     6    13       P1  8028  0.98
      L1  H    12    23       P1  7949  0.45
      P1  H  8011  8017       L1     8  0.46
      P1  H 10752 10765       L1    12  0.94

> <Gold.Chemscore.Hbond.Weighted>
-11.4644

> <Gold.Chemscore.Metal.Weighted>
-0.0000

> <Gold.Chemscore.Lipo.Weighted>
-3.8686

> <Gold.Chemscore.Internal_Hbond.Weighted>
0.0000

> <Gold.Chemscore.DEClash.Weighted>
0.7297

> <Gold.Chemscore.DEInternal.Weighted>
0.0022

> <Gold.Chemscore.Rot.Weighted>
5.2724

> <Gold.Chemscore.Internal.Correction.Weighted>
   9.000000E+99

> <Gold.Protein.RotatedTorsions>
[ 6907 6896 6895 6894 ] final   26.31 input  -60.11 | X-H torsion
[ 7974 7965 7964 7962 ] final  152.82 input  175.53 | X-H torsion
[ 8008 7997 7996 7995 ] final -161.76 input   59.86 | X-H torsion
[ 10167 10162 10161 10158 ] final  169.11 input  -65.29 | X-H torsion
[ 10718 10713 10712 10709 ] final  -96.54 input   66.30 | X-H torsion
[ 10763 10752 10751 10750 ] final  140.28 input  -60.55 | X-H torsion
[ 11005 11000 10999 10996 ] final   32.95 input  -57.11 | X-H torsion

> <Gold.Protein.ActiveResidues>
 VAL166  LYS551  ARG553  GLY616  TRP617  ASP618  TYR619  PRO620  LYS621  CYS622 
 ASP623  PHE694  ASN695  SER759  ASP760  ASP761  ALA762  ILE779  LEU786  VAL792 
 PHE793  MET794  SER795  GLU796  ALA797  LYS798  CYS799  TRP800  GLU811  SER814 

> <Gold.Protein.RotatedAtoms>
  151.9855  135.0006  160.0559 H   0  0  0  0  0  0  0  0  0  0  0  0  # atno 6907 bound_to 6896
  152.1657  133.4606  159.4892 H   0  0  0  0  0  0  0  0  0  0  0  0  # atno 6908 bound_to 6896
  150.6894  134.1934  159.4337 H   0  0  0  0  0  0  0  0  0  0  0  0  # atno 6909 bound_to 6896
  144.8196  139.6719  143.6106 H   0  0  0  0  0  0  0  0  0  0  0  0  # atno 7974 bound_to 7965
  155.7969  140.0886  157.1978 H   0  0  0  0  0  0  0  0  0  0  0  0  # atno 8008 bound_to 7997
  154.3983  140.1479  156.3287 H   0  0  0  0  0  0  0  0  0  0  0  0  # atno 8009 bound_to 7997
  155.8502  140.3435  155.5691 H   0  0  0  0  0  0  0  0  0  0  0  0  # atno 8010 bound_to 7997
  139.4984  144.3742  151.9692 H   0  0  0  0  0  0  0  0  0  0  0  0  # atno 10167 bound_to 10162
  156.0064  130.5155  150.6240 H   0  0  0  0  0  0  0  0  0  0  0  0  # atno 10718 bound_to 10713
  153.9201  135.3001  155.3448 H   0  0  0  0  0  0  0  0  0  0  0  0  # atno 10763 bound_to 10752
  154.7580  135.4948  153.9414 H   0  0  0  0  0  0  0  0  0  0  0  0  # atno 10764 bound_to 10752
  153.1146  135.6767  153.9543 H   0  0  0  0  0  0  0  0  0  0  0  0  # atno 10765 bound_to 10752
  140.2681  134.3114  155.7836 H   0  0  0  0  0  0  0  0  0  0  0  0  # atno 11005 bound_to 11000
  146.2501  139.6182  142.9433 LP  0  0  0  0  0  0  0  0  0  0  0  0  # atno 17320 bound_to 7965
  145.5135  141.0434  143.2475 LP  0  0  0  0  0  0  0  0  0  0  0  0  # atno 17321 bound_to 7965
  140.3178  144.3463  150.6017 LP  0  0  0  0  0  0  0  0  0  0  0  0  # atno 17342 bound_to 10162
  140.5747  143.2177  151.7536 LP  0  0  0  0  0  0  0  0  0  0  0  0  # atno 17343 bound_to 10162
  157.4051  131.0815  151.1273 LP  0  0  0  0  0  0  0  0  0  0  0  0  # atno 17370 bound_to 10713
  157.1922  130.6357  149.5708 LP  0  0  0  0  0  0  0  0  0  0  0  0  # atno 17371 bound_to 10713
  141.2181  133.7450  156.9292 LP  0  0  0  0  0  0  0  0  0  0  0  0  # atno 17394 bound_to 11000
  140.1399  134.9300  157.2453 LP  0  0  0  0  0  0  0  0  0  0  0  0  # atno 17395 bound_to 11000

$$$$
