AV-unprocessed.smi:2843|AV-procd|sdf|10938|dock3
  -GOLD-   2272015383D 1   1.00000     0.00000
 Structure written by MMmdl.
 28 28  0  0  0  0  0  0  0  0  2 V2000
  153.3420  142.3291  161.3106 C   0  0  0  0  0  0  0  0  0  0  0  0
  152.7509  141.8698  160.0219 C   0  0  0  0  0  0  0  0  0  0  0  0
  151.9630  142.4830  159.0905 C   0  0  0  0  0  0  0  0  0  0  0  0
  151.7729  141.4822  158.0975 C   0  0  0  0  0  0  0  0  0  0  0  0
  150.9878  141.5706  156.8173 C   0  0  0  0  0  0  0  0  0  0  0  0
  151.1001  139.9879  155.8706 S   0  0  0  0  0  0  0  0  0  0  0  0
  152.5318  139.7897  155.5919 O   0  0  0  0  0  0  0  0  0  0  0  0
  150.4280  138.9625  156.6862 O   0  0  0  0  0  0  0  0  0  0  0  0
  150.2662  140.3734  154.5351 N   0  5  0  0  0  0  0  0  0  0  0  0
  149.2494  141.4086  154.6003 C   0  0  0  0  0  0  0  0  0  0  0  0
  147.8502  140.7924  154.3959 C   0  0  0  0  0  0  0  0  0  0  0  0
  146.7469  141.7995  154.0061 C   0  0  0  0  0  0  0  0  0  0  0  0
  145.4913  141.3211  154.4423 O   0  0  0  0  0  0  0  0  0  0  0  0
  152.3837  140.3527  158.4196 N   0  0  0  0  0  0  0  0  0  0  0  0
  153.0165  140.5928  159.6442 O   0  0  0  0  0  0  0  0  0  0  0  0
  152.6646  143.0099  161.8261 H   0  0  0  0  0  0  0  0  0  0  0  0
  154.2815  142.8536  161.1369 H   0  0  0  0  0  0  0  0  0  0  0  0
  153.5418  141.4863  161.9728 H   0  0  0  0  0  0  0  0  0  0  0  0
  151.5888  143.4958  159.1082 H   0  0  0  0  0  0  0  0  0  0  0  0
  149.9365  141.7990  156.9940 H   0  0  0  0  0  0  0  0  0  0  0  0
  151.3914  142.3605  156.1850 H   0  0  0  0  0  0  0  0  0  0  0  0
  149.2698  141.9199  155.5632 H   0  0  0  0  0  0  0  0  0  0  0  0
  149.4046  142.1845  153.8499 H   0  0  0  0  0  0  0  0  0  0  0  0
  147.9062  139.9997  153.6480 H   0  0  0  0  0  0  0  0  0  0  0  0
  147.5576  140.3028  155.3254 H   0  0  0  0  0  0  0  0  0  0  0  0
  146.9158  142.7779  154.4598 H   0  0  0  0  0  0  0  0  0  0  0  0
  146.6976  141.9448  152.9252 H   0  0  0  0  0  0  0  0  0  0  0  0
  144.9722  141.1095  153.6817 H   0  0  0  0  0  0  0  0  0  0  0  0
  1  2  1  0  0  0  0
  1 16  1  0  0  0  0
  1 17  1  0  0  0  0
  1 18  1  0  0  0  0
  2 15  1  0  0  0  0
  2  3  2  0  0  0  0
  3  4  1  0  0  0  0
  3 19  1  0  0  0  0
  4  5  1  0  0  0  0
  4 14  2  0  0  0  0
  5  6  1  0  0  0  0
  5 20  1  0  0  0  0
  5 21  1  0  0  0  0
  6  7  2  0  0  0  0
  6  8  2  0  0  0  0
  6  9  1  0  0  0  0
  9 10  1  0  0  0  0
 10 11  1  0  0  0  0
 10 22  1  0  0  0  0
 10 23  1  0  0  0  0
 11 12  1  0  0  0  0
 11 24  1  0  0  0  0
 11 25  1  0  0  0  0
 12 13  1  0  0  0  0
 12 26  1  0  0  0  0
 12 27  1  0  0  0  0
 13 28  1  0  0  0  0
 14 15  1  0  0  0  0
M  CHG  1   9  -1
M  END
> <s_m_source_file>
AV-unprocessed.smi

> <i_m_source_file_index>
2843

> <i_lp_mmshare_version>
43012

> <i_f3d_flags>
0

> <s_epik_input>
W0NIM11jMVtjSF1jKG5vMSlbQ0gyXVMoPU8pKD1PKVtOSF1bQ0gyXVtDSDJdW0NIMl1bT0hd

> <s_epik_cmdline>
J2VwaWtfcHl0aG9uJywgJy1waCcsICc3LjAnLCAnLXRuJywgJzgnLCAnLW1hJywgJzIwMCcsICctbWV0YWxfYmluZGluZycsICctaW1hZScsICc8aW5maWxlLm1hZT4nLCAnLW9tYWUnLCAnPG91dGZpbGUubWFlPic=

> <r_lp_tautomer_probability>
1

> <r_epik_Ionization_Penalty>
4.89444

> <r_epik_Ionization_Penalty_Charging>
4.89444

> <r_epik_Ionization_Penalty_Neutral>
8.7324e-07

> <r_epik_State_Penalty>
4.89429

> <r_epik_Charging_Adjusted_Penalty>
9.78873

> <i_epik_Tot_Q>
-1

> <i_epik_Tot_abs_Q>
1

> <r_epik_Metal_State_Penalty>
1.04833

> <b_epik_Metal_Only>
1

> <s_lp_Force_Field>
OPLS_2005

> <r_lp_Energy>
1.63452

> <b_lp_Chiralities_Consistent>
1

> <s_lp_Variant>
AV-unprocessed.smi:2843-2

> <Gold.Version>
5.8.1

> <Gold.Id.Protein>
6NUR|6NUR_protein|mol2

> <Gold.PLP.Fitness>
38.9849

> <Gold.PLP.PLP>
-30.8344

> <Gold.PLP.part.hbond>
-3.1758

> <Gold.PLP.part.metal>
0.0000

> <Gold.PLP.part.buried>
-4.2246

> <Gold.PLP.part.nonpolar>
-23.6151

> <Gold.PLP.part.repulsive>
0.1063

> <Gold.PLP.ligand.clash>
0.0000

> <Gold.PLP.ligand.torsion>
0.9029

> <Gold.PLP.Chemscore.Hbond>
2.9760

> <Gold.PLP.Chemscore.CHOScore>
0.0000

> <Gold.PLP.Chemscore.Metal>
0.0000

> <Gold.Chemscore.Hbonds>
donor molecule, donor type, donor heavy atom, donor atom, acceptor molecule, acceptor atom, score
      L1  H    13    28       P1 10175  1.00
      P1  H  7989  7998       L1     9  0.95
      P1  H  7997  8010       L1     7  1.00

> <Gold.PLP.Chemscore.Internal.Correction>
1.0282

> <Gold.Rescore>
     Score         DG    S(hbond)    S(metal)    S(lipo)     H(rot)  DE(clash)    DE(int)     intcor
     11.58     -14.97       2.59        0.00      66.21       2.69       0.01       3.38       ----

> <Gold.Chemscore.Fitness>
11.5763

> <Gold.Chemscore.DG>
-14.9674

> <Gold.Chemscore.ZeroCoef>
-5.4800

> <Gold.Chemscore.Hbond>
2.5854

> <Gold.Chemscore.Metal>
0.0000

> <Gold.Chemscore.Lipo>
66.2117

> <Gold.Chemscore.Internal_Hbond>
0.0000

> <Gold.Chemscore.DEClash>
0.0089

> <Gold.Chemscore.DEInternal>
3.3822

> <Gold.Chemscore.Rot>
2.6932

> <Gold.Chemscore.Internal.Correction>
   9.000000E+99

> <Gold.Chemscore.Hbonds>
donor molecule, donor type, donor heavy atom, donor atom, acceptor molecule, acceptor atom, score
      L1  H    13    28       P1 10175  0.60
      P1  H  7989  7998       L1     9  0.16
      P1  H  7997  8010       L1     7  0.99

> <Gold.Chemscore.Hbond.Weighted>
-8.6351

> <Gold.Chemscore.Metal.Weighted>
-0.0000

> <Gold.Chemscore.Lipo.Weighted>
-7.7468

> <Gold.Chemscore.Internal_Hbond.Weighted>
0.0000

> <Gold.Chemscore.DEClash.Weighted>
0.0089

> <Gold.Chemscore.DEInternal.Weighted>
3.3822

> <Gold.Chemscore.Rot.Weighted>
6.8945

> <Gold.Chemscore.Internal.Correction.Weighted>
   9.000000E+99

> <Gold.Protein.RotatedTorsions>
[ 6907 6896 6895 6894 ] final  -51.44 input  -60.11 | X-H torsion
[ 7974 7965 7964 7962 ] final  -33.07 input  175.53 | X-H torsion
[ 8008 7997 7996 7995 ] final   92.85 input   59.86 | X-H torsion
[ 10167 10162 10161 10158 ] final   -8.76 input  -65.29 | X-H torsion
[ 10718 10713 10712 10709 ] final  175.69 input   66.30 | X-H torsion
[ 10763 10752 10751 10750 ] final  106.18 input  -60.55 | X-H torsion
[ 11005 11000 10999 10996 ] final   73.86 input  -57.11 | X-H torsion

> <Gold.Protein.ActiveResidues>
 VAL166  LYS551  ARG553  GLY616  TRP617  ASP618  TYR619  PRO620  LYS621  CYS622 
 ASP623  PHE694  ASN695  SER759  ASP760  ASP761  ALA762  ILE779  LEU786  VAL792 
 PHE793  MET794  SER795  GLU796  ALA797  LYS798  CYS799  TRP800  GLU811  SER814 

> <Gold.Protein.RotatedAtoms>
  150.8612  134.7964  159.7083 H   0  0  0  0  0  0  0  0  0  0  0  0  # atno 6907 bound_to 6896
  152.4648  134.5098  159.9760 H   0  0  0  0  0  0  0  0  0  0  0  0  # atno 6908 bound_to 6896
  151.5201  133.3430  159.2935 H   0  0  0  0  0  0  0  0  0  0  0  0  # atno 6909 bound_to 6896
  146.0940  140.5870  142.8851 H   0  0  0  0  0  0  0  0  0  0  0  0  # atno 7974 bound_to 7965
  156.0401  140.3320  155.7234 H   0  0  0  0  0  0  0  0  0  0  0  0  # atno 8008 bound_to 7997
  155.5757  140.0632  157.2813 H   0  0  0  0  0  0  0  0  0  0  0  0  # atno 8009 bound_to 7997
  154.4389  140.1853  156.0914 H   0  0  0  0  0  0  0  0  0  0  0  0  # atno 8010 bound_to 7997
  140.7068  143.5933  150.8871 H   0  0  0  0  0  0  0  0  0  0  0  0  # atno 10167 bound_to 10162
  156.9312  130.9971  151.2986 H   0  0  0  0  0  0  0  0  0  0  0  0  # atno 10718 bound_to 10713
  153.3894  135.3885  155.1912 H   0  0  0  0  0  0  0  0  0  0  0  0  # atno 10763 bound_to 10752
  154.8717  135.3744  154.4756 H   0  0  0  0  0  0  0  0  0  0  0  0  # atno 10764 bound_to 10752
  153.5242  135.7086  153.5777 H   0  0  0  0  0  0  0  0  0  0  0  0  # atno 10765 bound_to 10752
  139.9419  134.7383  156.1077 H   0  0  0  0  0  0  0  0  0  0  0  0  # atno 11005 bound_to 11000
  144.7381  140.4866  143.6889 LP  0  0  0  0  0  0  0  0  0  0  0  0  # atno 17320 bound_to 7965
  145.5984  139.1501  143.3143 LP  0  0  0  0  0  0  0  0  0  0  0  0  # atno 17321 bound_to 7965
  139.9658  143.6112  152.2988 LP  0  0  0  0  0  0  0  0  0  0  0  0  # atno 17342 bound_to 10162
  139.6681  144.7661  151.1835 LP  0  0  0  0  0  0  0  0  0  0  0  0  # atno 17343 bound_to 10162
  157.5845  130.8400  149.8570 LP  0  0  0  0  0  0  0  0  0  0  0  0  # atno 17370 bound_to 10713
  156.0446  130.3731  150.1349 LP  0  0  0  0  0  0  0  0  0  0  0  0  # atno 17371 bound_to 10713
  141.1056  133.6661  156.2857 LP  0  0  0  0  0  0  0  0  0  0  0  0  # atno 17394 bound_to 11000
  140.5930  134.5631  157.5503 LP  0  0  0  0  0  0  0  0  0  0  0  0  # atno 17395 bound_to 11000

$$$$
