AV-unprocessed.smi:1159|AV-procd|sdf|4914|dock9
  -GOLD-   22720 3493D 1   1.00000     0.00000
 Structure written by MMmdl.
 41 42  0  0  0  0  0  0  0  0  1 V2000
  146.3567  137.4228  155.2136 O   0  0  0  0  0  0  0  0  0  0  0  0
  147.1493  137.0916  154.3327 C   0  0  0  0  0  0  0  0  0  0  0  0
  148.3994  137.5645  154.1861 N   0  0  0  0  0  0  0  0  0  0  0  0
  149.0850  138.5496  154.9496 C   0  0  0  0  0  0  0  0  0  0  0  0
  148.7551  138.9183  156.2764 C   0  0  0  0  0  0  0  0  0  0  0  0
  149.5101  139.9230  156.9116 C   0  0  0  0  0  0  0  0  0  0  0  0
  150.5648  140.5343  156.2057 C   0  0  0  0  0  0  0  0  0  0  0  0
  151.2966  141.5193  156.8359 O   0  0  0  0  0  0  0  0  0  0  0  0
  150.7896  142.0750  158.0465 C   0  0  0  0  0  0  0  0  0  0  0  0
  151.6238  143.3042  158.4265 C   0  0  0  0  0  0  0  0  0  0  0  0
  150.9759  144.0062  159.3555 F   0  0  0  0  0  0  0  0  0  0  0  0
  152.8022  142.9263  158.9215 F   0  0  0  0  0  0  0  0  0  0  0  0
  151.8146  144.0798  157.3597 F   0  0  0  0  0  0  0  0  0  0  0  0
  150.8816  140.1933  154.9323 N   0  0  0  0  0  0  0  0  0  0  0  0
  150.1544  139.2291  154.3295 C   0  0  0  0  0  0  0  0  0  0  0  0
  146.8643  136.1836  153.3871 N   0  0  0  0  0  0  0  0  0  0  0  0
  145.5820  135.4920  153.2319 C   0  0  2  0  0  0  0  0  0  0  0  0
  145.7414  134.4665  152.0859 C   0  0  0  0  0  0  0  0  0  0  0  0
  144.7186  133.3181  152.1326 C   0  0  0  0  0  0  0  0  0  0  0  0
  143.2578  133.7419  151.9178 C   0  0  0  0  0  0  0  0  0  0  0  0
  142.7255  134.6954  153.0007 C   0  0  0  0  0  0  0  0  0  0  0  0
  143.1942  136.0614  152.8074 N   0  0  0  0  0  0  0  0  0  0  0  0
  144.4627  136.4950  152.8655 C   0  0  0  0  0  0  0  0  0  0  0  0
  144.7276  137.6729  152.6251 O   0  0  0  0  0  0  0  0  0  0  0  0
  148.9407  137.1478  153.4428 H   0  0  0  0  0  0  0  0  0  0  0  0
  147.9393  138.4674  156.8181 H   0  0  0  0  0  0  0  0  0  0  0  0
  149.2796  140.2232  157.9233 H   0  0  0  0  0  0  0  0  0  0  0  0
  149.7450  142.3651  157.9208 H   0  0  0  0  0  0  0  0  0  0  0  0
  150.8376  141.3376  158.8497 H   0  0  0  0  0  0  0  0  0  0  0  0
  150.4390  138.9918  153.3147 H   0  0  0  0  0  0  0  0  0  0  0  0
  147.5755  135.9733  152.7026 H   0  0  0  0  0  0  0  0  0  0  0  0
  145.3366  134.9793  154.1636 H   0  0  0  0  0  0  0  0  0  0  0  0
  145.7115  134.9592  151.1125 H   0  0  0  0  0  0  0  0  0  0  0  0
  146.7316  134.0124  152.1517 H   0  0  0  0  0  0  0  0  0  0  0  0
  144.9821  132.5882  151.3666 H   0  0  0  0  0  0  0  0  0  0  0  0
  144.8075  132.7925  153.0841 H   0  0  0  0  0  0  0  0  0  0  0  0
  143.1359  134.1880  150.9298 H   0  0  0  0  0  0  0  0  0  0  0  0
  142.6411  132.8426  151.9170 H   0  0  0  0  0  0  0  0  0  0  0  0
  141.6368  134.7210  152.9513 H   0  0  0  0  0  0  0  0  0  0  0  0
  142.9790  134.3409  154.0008 H   0  0  0  0  0  0  0  0  0  0  0  0
  142.4875  136.7447  152.5760 H   0  0  0  0  0  0  0  0  0  0  0  0
  1  2  2  0  0  0  0
  2  3  1  0  0  0  0
  2 16  1  0  0  0  0
  3  4  1  0  0  0  0
  3 25  1  0  0  0  0
  4 15  1  0  0  0  0
  4  5  2  0  0  0  0
  5  6  1  0  0  0  0
  5 26  1  0  0  0  0
  6  7  2  0  0  0  0
  6 27  1  0  0  0  0
  7  8  1  0  0  0  0
  7 14  1  0  0  0  0
  8  9  1  0  0  0  0
  9 10  1  0  0  0  0
  9 28  1  0  0  0  0
  9 29  1  0  0  0  0
 10 11  1  0  0  0  0
 10 12  1  0  0  0  0
 10 13  1  0  0  0  0
 14 15  2  0  0  0  0
 15 30  1  0  0  0  0
 16 17  1  0  0  0  0
 16 31  1  0  0  0  0
 17 23  1  0  0  0  0
 17 18  1  0  0  0  0
 17 32  1  0  0  0  0
 18 19  1  0  0  0  0
 18 33  1  0  0  0  0
 18 34  1  0  0  0  0
 19 20  1  0  0  0  0
 19 35  1  0  0  0  0
 19 36  1  0  0  0  0
 20 21  1  0  0  0  0
 20 37  1  0  0  0  0
 20 38  1  0  0  0  0
 21 22  1  0  0  0  0
 21 39  1  0  0  0  0
 21 40  1  0  0  0  0
 22 23  1  0  0  0  0
 22 41  1  0  0  0  0
 23 24  2  0  0  0  0
M  END
> <s_m_source_file>
AV-unprocessed.smi

> <i_m_source_file_index>
1159

> <i_lp_mmshare_version>
43012

> <i_f3d_flags>
0

> <s_epik_input>
Tz1DMVtOSF1bQ0gyXVtDSDJdW0NIMl1bQ0gyXVtDQEhdMVtOSF1DKD1PKVtOSF1jMltjSF1bY0hdYyhuW2NIXTIpT1tDSDJdQyhGKShGKUY=

> <s_epik_cmdline>
J2VwaWtfcHl0aG9uJywgJy1waCcsICc3LjAnLCAnLXRuJywgJzgnLCAnLW1hJywgJzIwMCcsICctbWV0YWxfYmluZGluZycsICctaW1hZScsICc8aW5maWxlLm1hZT4nLCAnLW9tYWUnLCAnPG91dGZpbGUubWFlPic=

> <r_lp_tautomer_probability>
1

> <r_epik_Ionization_Penalty>
3.53205e-05

> <r_epik_Ionization_Penalty_Charging>
0

> <r_epik_Ionization_Penalty_Neutral>
3.53205e-05

> <r_epik_State_Penalty>
-0

> <r_epik_Charging_Adjusted_Penalty>
0

> <i_epik_Tot_Q>
0

> <i_epik_Tot_abs_Q>
0

> <r_epik_Metal_State_Penalty>
-0

> <b_epik_Metal_Only>
0

> <s_lp_Force_Field>
OPLS_2005

> <r_lp_Energy>
13.2476

> <b_lp_Chiralities_Consistent>
1

> <s_lp_Variant>
AV-unprocessed.smi:1159-1

> <Gold.Version>
5.8.1

> <Gold.Id.Protein>
6NUR|6NUR_protein|mol2

> <Gold.PLP.Fitness>
44.3010

> <Gold.PLP.PLP>
-33.4934

> <Gold.PLP.part.hbond>
-3.0000

> <Gold.PLP.part.metal>
0.0000

> <Gold.PLP.part.buried>
-6.1113

> <Gold.PLP.part.nonpolar>
-26.8449

> <Gold.PLP.part.repulsive>
1.7867

> <Gold.PLP.ligand.clash>
0.0438

> <Gold.PLP.ligand.torsion>
0.4763

> <Gold.PLP.Chemscore.Hbond>
2.9420

> <Gold.PLP.Chemscore.CHOScore>
0.9846

> <Gold.PLP.Chemscore.Metal>
0.0000

> <Gold.Chemscore.Hbonds>
donor molecule, donor type, donor heavy atom, donor atom, acceptor molecule, acceptor atom, score
      L1  H     3    25       P1  7948  0.99
      L1  H    16    31       P1  7948  1.00
      P1  H  7989  7998       L1    14  0.90
      L1  C    15    30       P1  7957  0.99

> <Gold.PLP.Chemscore.Internal.Correction>
0.0241

> <Gold.Rescore>
     Score         DG    S(hbond)    S(metal)    S(lipo)     H(rot)  DE(clash)    DE(int)     intcor
     13.03     -15.48       2.42        0.00      55.97       1.81       0.34       2.11       ----

> <Gold.Chemscore.Fitness>
13.0264

> <Gold.Chemscore.DG>
-15.4786

> <Gold.Chemscore.ZeroCoef>
-5.4800

> <Gold.Chemscore.Hbond>
2.4173

> <Gold.Chemscore.Metal>
0.0000

> <Gold.Chemscore.Lipo>
55.9701

> <Gold.Chemscore.Internal_Hbond>
0.0000

> <Gold.Chemscore.DEClash>
0.3391

> <Gold.Chemscore.DEInternal>
2.1130

> <Gold.Chemscore.Rot>
1.8062

> <Gold.Chemscore.Internal.Correction>
   9.000000E+99

> <Gold.Chemscore.Hbonds>
donor molecule, donor type, donor heavy atom, donor atom, acceptor molecule, acceptor atom, score
      L1  H     3    25       P1  7948  0.93
      L1  H    16    31       P1  7948  0.98
      P1  H  7989  7998       L1    14  0.18

> <Gold.Chemscore.Hbond.Weighted>
-8.0739

> <Gold.Chemscore.Metal.Weighted>
-0.0000

> <Gold.Chemscore.Lipo.Weighted>
-6.5485

> <Gold.Chemscore.Internal_Hbond.Weighted>
0.0000

> <Gold.Chemscore.DEClash.Weighted>
0.3391

> <Gold.Chemscore.DEInternal.Weighted>
2.1130

> <Gold.Chemscore.Rot.Weighted>
4.6238

> <Gold.Chemscore.Internal.Correction.Weighted>
   9.000000E+99

> <Gold.Protein.RotatedTorsions>
[ 6907 6896 6895 6894 ] final  -31.27 input  -60.11 | X-H torsion
[ 7974 7965 7964 7962 ] final   71.62 input  175.53 | X-H torsion
[ 8008 7997 7996 7995 ] final -160.33 input   59.86 | X-H torsion
[ 10167 10162 10161 10158 ] final   41.36 input  -65.29 | X-H torsion
[ 10718 10713 10712 10709 ] final  143.33 input   66.30 | X-H torsion
[ 10763 10752 10751 10750 ] final -154.25 input  -60.55 | X-H torsion
[ 11005 11000 10999 10996 ] final -151.45 input  -57.11 | X-H torsion

> <Gold.Protein.ActiveResidues>
 VAL166  LYS551  ARG553  GLY616  TRP617  ASP618  TYR619  PRO620  LYS621  CYS622 
 ASP623  PHE694  ASN695  SER759  ASP760  ASP761  ALA762  ILE779  LEU786  VAL792 
 PHE793  MET794  SER795  GLU796  ALA797  LYS798  CYS799  TRP800  GLU811  SER814 

> <Gold.Protein.RotatedAtoms>
  151.0943  134.9935  159.8417 H   0  0  0  0  0  0  0  0  0  0  0  0  # atno 6907 bound_to 6896
  152.5432  134.2027  159.8729 H   0  0  0  0  0  0  0  0  0  0  0  0  # atno 6908 bound_to 6896
  151.2066  133.4536  159.2630 H   0  0  0  0  0  0  0  0  0  0  0  0  # atno 6909 bound_to 6896
  145.7635  139.2811  143.1362 H   0  0  0  0  0  0  0  0  0  0  0  0  # atno 7974 bound_to 7965
  155.7758  140.0858  157.2084 H   0  0  0  0  0  0  0  0  0  0  0  0  # atno 8008 bound_to 7997
  154.3993  140.1517  156.3052 H   0  0  0  0  0  0  0  0  0  0  0  0  # atno 8009 bound_to 7997
  155.8702  140.3426  155.5818 H   0  0  0  0  0  0  0  0  0  0  0  0  # atno 8010 bound_to 7997
  140.3651  144.2177  150.6136 H   0  0  0  0  0  0  0  0  0  0  0  0  # atno 10167 bound_to 10162
  157.3702  131.0978  151.0835 H   0  0  0  0  0  0  0  0  0  0  0  0  # atno 10718 bound_to 10713
  154.7872  135.3194  154.7860 H   0  0  0  0  0  0  0  0  0  0  0  0  # atno 10763 bound_to 10752
  153.8557  135.6858  153.4792 H   0  0  0  0  0  0  0  0  0  0  0  0  # atno 10764 bound_to 10752
  153.1528  135.4692  154.9600 H   0  0  0  0  0  0  0  0  0  0  0  0  # atno 10765 bound_to 10752
  140.7295  134.3637  157.5169 H   0  0  0  0  0  0  0  0  0  0  0  0  # atno 11005 bound_to 11000
  146.0240  140.8321  142.9909 LP  0  0  0  0  0  0  0  0  0  0  0  0  # atno 17320 bound_to 7965
  144.6826  140.2671  143.7311 LP  0  0  0  0  0  0  0  0  0  0  0  0  # atno 17321 bound_to 7965
  140.5088  143.2296  151.8566 LP  0  0  0  0  0  0  0  0  0  0  0  0  # atno 17342 bound_to 10162
  139.4809  144.4974  151.9106 LP  0  0  0  0  0  0  0  0  0  0  0  0  # atno 17343 bound_to 10162
  157.1943  130.6366  149.5715 LP  0  0  0  0  0  0  0  0  0  0  0  0  # atno 17370 bound_to 10713
  155.9754  130.4712  150.6456 LP  0  0  0  0  0  0  0  0  0  0  0  0  # atno 17371 bound_to 10713
  139.8829  134.9008  156.2798 LP  0  0  0  0  0  0  0  0  0  0  0  0  # atno 17394 bound_to 11000
  140.9934  133.7195  156.0848 LP  0  0  0  0  0  0  0  0  0  0  0  0  # atno 17395 bound_to 11000

$$$$
