AV-unprocessed.smi:3298|AV-procd|sdf|12645|dock2
  -GOLD-   2272018583D 1   1.00000     0.00000
 Structure written by MMmdl.
 36 37  0  0  0  0  0  0  0  0  2 V2000
  146.1123  143.0859  154.0115 C   0  0  0  0  0  0  0  0  0  0  0  0
  147.1680  142.0027  154.0809 C   0  0  0  0  0  0  0  0  0  0  0  0
  146.9328  140.6892  153.6208 C   0  0  0  0  0  0  0  0  0  0  0  0
  147.9548  139.7196  153.7239 C   0  0  0  0  0  0  0  0  0  0  0  0
  147.6803  138.4147  153.2327 N   0  0  0  0  0  0  0  0  0  0  0  0
  146.5266  137.7277  153.2959 C   0  0  0  0  0  0  0  0  0  0  0  0
  145.4723  138.1531  153.7680 O   0  0  0  0  0  0  0  0  0  0  0  0
  146.6560  136.5078  152.7557 N   0  0  0  0  0  0  0  0  0  0  0  0
  145.5867  135.5198  152.6657 C   0  0  1  0  0  0  0  0  0  0  0  0
  144.3967  136.0927  151.9465 C   0  0  0  0  0  0  0  0  0  0  0  0
  144.0722  135.4011  150.8565 C   0  0  0  0  0  0  0  0  0  0  0  0
  144.9924  134.2353  150.6054 C   0  0  2  0  0  0  0  0  0  0  0  0
  144.2232  132.9092  150.4881 C   0  0  0  0  0  0  0  0  0  0  0  0
  143.3741  132.9354  149.3606 O   0  0  0  0  0  0  0  0  0  0  0  0
  145.9749  134.2889  151.8048 C   0  0  0  0  0  0  0  0  0  0  0  0
  149.2059  140.1077  154.2664 C   0  0  0  0  0  0  0  0  0  0  0  0
  149.3842  141.4341  154.7087 C   0  0  0  0  0  0  0  0  0  0  0  0
  148.3721  142.3216  154.6044 N   0  3  0  0  0  0  0  0  0  0  0  0
  145.2724  135.2119  153.6646 H   0  0  0  0  0  0  0  0  0  0  0  0
  145.5272  134.4351  149.6757 H   0  0  0  0  0  0  0  0  0  0  0  0
  145.2296  142.7399  153.4730 H   0  0  0  0  0  0  0  0  0  0  0  0
  146.5008  143.9652  153.4968 H   0  0  0  0  0  0  0  0  0  0  0  0
  145.8058  143.3809  155.0154 H   0  0  0  0  0  0  0  0  0  0  0  0
  145.9732  140.4265  153.1990 H   0  0  0  0  0  0  0  0  0  0  0  0
  148.4342  137.9712  152.7284 H   0  0  0  0  0  0  0  0  0  0  0  0
  147.5563  136.2376  152.3878 H   0  0  0  0  0  0  0  0  0  0  0  0
  143.8725  136.9659  152.3060 H   0  0  0  0  0  0  0  0  0  0  0  0
  143.2515  135.6366  150.1952 H   0  0  0  0  0  0  0  0  0  0  0  0
  144.9091  132.0652  150.4058 H   0  0  0  0  0  0  0  0  0  0  0  0
  143.6118  132.7439  151.3759 H   0  0  0  0  0  0  0  0  0  0  0  0
  142.5616  133.3517  149.6053 H   0  0  0  0  0  0  0  0  0  0  0  0
  147.0035  134.3479  151.4465 H   0  0  0  0  0  0  0  0  0  0  0  0
  145.9107  133.3834  152.4097 H   0  0  0  0  0  0  0  0  0  0  0  0
  150.0334  139.4182  154.3393 H   0  0  0  0  0  0  0  0  0  0  0  0
  150.3030  141.8105  155.1339 H   0  0  0  0  0  0  0  0  0  0  0  0
  148.5254  143.2762  154.9307 H   0  0  0  0  0  0  0  0  0  0  0  0
  1  2  1  0  0  0  0
  1 21  1  0  0  0  0
  1 22  1  0  0  0  0
  1 23  1  0  0  0  0
  2 18  1  0  0  0  0
  2  3  2  0  0  0  0
  3  4  1  0  0  0  0
  3 24  1  0  0  0  0
  4  5  1  0  0  0  0
  4 16  2  0  0  0  0
  5  6  1  0  0  0  0
  5 25  1  0  0  0  0
  6  7  2  0  0  0  0
  6  8  1  0  0  0  0
  8  9  1  0  0  0  0
  8 26  1  0  0  0  0
  9 19  1  0  0  0  0
  9 15  1  0  0  0  0
  9 10  1  0  0  0  0
 10 11  2  0  0  0  0
 10 27  1  0  0  0  0
 11 12  1  0  0  0  0
 11 28  1  0  0  0  0
 12 20  1  0  0  0  0
 12 13  1  0  0  0  0
 12 15  1  0  0  0  0
 13 14  1  0  0  0  0
 13 29  1  0  0  0  0
 13 30  1  0  0  0  0
 14 31  1  0  0  0  0
 15 32  1  0  0  0  0
 15 33  1  0  0  0  0
 16 17  1  0  0  0  0
 16 34  1  0  0  0  0
 17 18  2  0  0  0  0
 17 35  1  0  0  0  0
 18 36  1  0  0  0  0
M  CHG  1  18   1
M  END
> <s_m_source_file>
AV-unprocessed.smi

> <i_m_source_file_index>
3298

> <i_lp_mmshare_version>
43012

> <i_f3d_flags>
0

> <s_epik_input>
W0NIM11jMVtjSF1jKFtjSF1bY0hdbjEpW05IXUMoPU8pW05IXVtDQEBIXTJbQ0hdPVtDSF1bQ0BASF0oW0NIMl0yKVtDSDJdW09IXQ==

> <s_epik_cmdline>
J2VwaWtfcHl0aG9uJywgJy1waCcsICc3LjAnLCAnLXRuJywgJzgnLCAnLW1hJywgJzIwMCcsICctbWV0YWxfYmluZGluZycsICctaW1hZScsICc8aW5maWxlLm1hZT4nLCAnLW9tYWUnLCAnPG91dGZpbGUubWFlPic=

> <r_epik_Ionization_Penalty>
0.443901

> <r_epik_Ionization_Penalty_Charging>
0.443881

> <r_epik_Ionization_Penalty_Neutral>
1.94967e-05

> <r_epik_State_Penalty>
0.446172

> <r_epik_Charging_Adjusted_Penalty>
0.890053

> <i_epik_Tot_Q>
1

> <i_epik_Tot_abs_Q>
1

> <r_epik_Metal_State_Penalty>
0.675842

> <b_epik_Metal_Only>
0

> <s_lp_Force_Field>
OPLS_2005

> <r_lp_Energy>
25.7998

> <b_lp_Chiralities_Consistent>
1

> <s_lp_Variant>
AV-unprocessed.smi:3298-6

> <Gold.Version>
5.8.1

> <Gold.Id.Protein>
6NUR|6NUR_protein|mol2

> <Gold.PLP.Fitness>
49.9980

> <Gold.PLP.PLP>
-35.8629

> <Gold.PLP.part.hbond>
-4.0000

> <Gold.PLP.part.metal>
0.0000

> <Gold.PLP.part.buried>
-6.0035

> <Gold.PLP.part.nonpolar>
-27.2367

> <Gold.PLP.part.repulsive>
0.4279

> <Gold.PLP.ligand.clash>
0.0000

> <Gold.PLP.ligand.torsion>
0.3081

> <Gold.PLP.Chemscore.Hbond>
4.9120

> <Gold.PLP.Chemscore.CHOScore>
0.0000

> <Gold.PLP.Chemscore.Metal>
0.0000

> <Gold.Chemscore.Hbonds>
donor molecule, donor type, donor heavy atom, donor atom, acceptor molecule, acceptor atom, score
      L1  H     5    25       P1  7948  0.86
      L1  H     8    26       P1  7948  0.88
      L1  H    14    31       P1 10186  1.00
      L1  H    18    36       P1  8028  2.00

> <Gold.PLP.Chemscore.Internal.Correction>
0.0154

> <Gold.Rescore>
     Score         DG    S(hbond)    S(metal)    S(lipo)     H(rot)  DE(clash)    DE(int)     intcor
     20.02     -22.46       3.93        0.00      72.51       1.81       0.06       2.38       ----

> <Gold.Chemscore.Fitness>
20.0219

> <Gold.Chemscore.DG>
-22.4571

> <Gold.Chemscore.ZeroCoef>
-5.4800

> <Gold.Chemscore.Hbond>
3.9272

> <Gold.Chemscore.Metal>
0.0000

> <Gold.Chemscore.Lipo>
72.5107

> <Gold.Chemscore.Internal_Hbond>
0.0000

> <Gold.Chemscore.DEClash>
0.0584

> <Gold.Chemscore.DEInternal>
2.3768

> <Gold.Chemscore.Rot>
1.8061

> <Gold.Chemscore.Internal.Correction>
   9.000000E+99

> <Gold.Chemscore.Hbonds>
donor molecule, donor type, donor heavy atom, donor atom, acceptor molecule, acceptor atom, score
      L1  H     5    25       P1  7948  0.82
      L1  H     8    26       P1  7948  0.86
      L1  H    14    31       P1 10186  1.00
      L1  H    18    36       P1  8028  1.00

> <Gold.Chemscore.Hbond.Weighted>
-13.1170

> <Gold.Chemscore.Metal.Weighted>
-0.0000

> <Gold.Chemscore.Lipo.Weighted>
-8.4837

> <Gold.Chemscore.Internal_Hbond.Weighted>
0.0000

> <Gold.Chemscore.DEClash.Weighted>
0.0584

> <Gold.Chemscore.DEInternal.Weighted>
2.3768

> <Gold.Chemscore.Rot.Weighted>
4.6237

> <Gold.Chemscore.Internal.Correction.Weighted>
   9.000000E+99

> <Gold.Protein.RotatedTorsions>
[ 6907 6896 6895 6894 ] final  -83.20 input  -60.11 | X-H torsion
[ 7974 7965 7964 7962 ] final   65.69 input  175.53 | X-H torsion
[ 8008 7997 7996 7995 ] final  164.57 input   59.86 | X-H torsion
[ 10167 10162 10161 10158 ] final  127.84 input  -65.29 | X-H torsion
[ 10718 10713 10712 10709 ] final  -76.77 input   66.30 | X-H torsion
[ 10763 10752 10751 10750 ] final -117.72 input  -60.55 | X-H torsion
[ 11005 11000 10999 10996 ] final  -48.81 input  -57.11 | X-H torsion

> <Gold.Protein.ActiveResidues>
 VAL166  LYS551  ARG553  GLY616  TRP617  ASP618  TYR619  PRO620  LYS621  CYS622 
 ASP623  PHE694  ASN695  SER759  ASP760  ASP761  ALA762  ILE779  LEU786  VAL792 
 PHE793  MET794  SER795  GLU796  ALA797  LYS798  CYS799  TRP800  GLU811  SER814 

> <Gold.Protein.RotatedAtoms>
  150.6888  134.3548  159.4924 H   0  0  0  0  0  0  0  0  0  0  0  0  # atno 6907 bound_to 6896
  152.1384  134.9078  160.0564 H   0  0  0  0  0  0  0  0  0  0  0  0  # atno 6908 bound_to 6896
  152.0221  133.3868  159.4299 H   0  0  0  0  0  0  0  0  0  0  0  0  # atno 6909 bound_to 6896
  145.8354  139.3164  143.0962 H   0  0  0  0  0  0  0  0  0  0  0  0  # atno 7974 bound_to 7965
  156.1869  140.1693  156.8168 H   0  0  0  0  0  0  0  0  0  0  0  0  # atno 8008 bound_to 7997
  154.5425  140.0734  156.8566 H   0  0  0  0  0  0  0  0  0  0  0  0  # atno 8009 bound_to 7997
  155.3187  140.3372  155.4244 H   0  0  0  0  0  0  0  0  0  0  0  0  # atno 8010 bound_to 7997
  139.5558  144.6847  151.4188 H   0  0  0  0  0  0  0  0  0  0  0  0  # atno 10167 bound_to 10162
  156.0165  130.4474  150.3244 H   0  0  0  0  0  0  0  0  0  0  0  0  # atno 10718 bound_to 10713
  154.8564  135.4299  154.2024 H   0  0  0  0  0  0  0  0  0  0  0  0  # atno 10763 bound_to 10752
  153.3068  135.6973  153.7158 H   0  0  0  0  0  0  0  0  0  0  0  0  # atno 10764 bound_to 10752
  153.6267  135.3492  155.3002 H   0  0  0  0  0  0  0  0  0  0  0  0  # atno 10765 bound_to 10752
  141.0722  133.6676  156.3494 H   0  0  0  0  0  0  0  0  0  0  0  0  # atno 11005 bound_to 11000
  145.9524  140.8898  143.0252 LP  0  0  0  0  0  0  0  0  0  0  0  0  # atno 17320 bound_to 7965
  144.6737  140.1698  143.7415 LP  0  0  0  0  0  0  0  0  0  0  0  0  # atno 17321 bound_to 7965
  140.6830  143.8039  150.7147 LP  0  0  0  0  0  0  0  0  0  0  0  0  # atno 17342 bound_to 10162
  140.1498  143.4368  152.2139 LP  0  0  0  0  0  0  0  0  0  0  0  0  # atno 17343 bound_to 10162
  157.1343  131.0280  151.2955 LP  0  0  0  0  0  0  0  0  0  0  0  0  # atno 17370 bound_to 10713
  157.4524  130.7606  149.7163 LP  0  0  0  0  0  0  0  0  0  0  0  0  # atno 17371 bound_to 10713
  140.5649  134.5898  157.5443 LP  0  0  0  0  0  0  0  0  0  0  0  0  # atno 17394 bound_to 11000
  139.9535  134.7575  156.0394 LP  0  0  0  0  0  0  0  0  0  0  0  0  # atno 17395 bound_to 11000

$$$$
