AV-unprocessed.smi:100|AV-procd|sdf|911|dock6
  -GOLD-   2262017413D 1   1.00000     0.00000
 Structure written by MMmdl.
 31 33  0  0  0  0  0  0  0  0  1 V2000
  154.4073  137.7852  155.7047 N   0  0  0  0  0  0  0  0  0  0  0  0
  153.2775  138.4469  155.9916 C   0  0  0  0  0  0  0  0  0  0  0  0
  153.2596  139.2442  157.0853 N   0  0  0  0  0  0  0  0  0  0  0  0
  152.1452  139.9162  157.3920 C   0  0  0  0  0  0  0  0  0  0  0  0
  150.9737  139.9281  156.7507 N   0  0  0  0  0  0  0  0  0  0  0  0
  150.9929  139.1242  155.6472 C   0  0  0  0  0  0  0  0  0  0  0  0
  152.1023  138.3517  155.2039 C   0  0  0  0  0  0  0  0  0  0  0  0
  151.7630  137.6528  154.0536 N   0  0  0  0  0  0  0  0  0  0  0  0
  150.5226  137.9966  153.8321 C   0  0  0  0  0  0  0  0  0  0  0  0
  149.9792  138.8776  154.7417 N   0  0  0  0  0  0  0  0  0  0  0  0
  148.5912  139.4411  154.7414 C   0  0  2  0  0  0  0  0  0  0  0  0
  147.7750  138.6759  153.9093 O   0  0  0  0  0  0  0  0  0  0  0  0
  146.8739  139.5084  153.1777 C   0  0  2  0  0  0  0  0  0  0  0  0
  147.1370  139.3053  151.6762 C   0  0  0  0  0  0  0  0  0  0  0  0
  147.0890  137.9320  151.3506 O   0  0  0  0  0  0  0  0  0  0  0  0
  147.1305  140.9443  153.6594 C   0  0  1  0  0  0  0  0  0  0  0  0
  146.2612  141.2487  154.6249 F   0  0  0  0  0  0  0  0  0  0  0  0
  148.5268  140.8926  154.2493 C   0  0  2  0  0  0  0  0  0  0  0  0
  149.5125  141.2306  153.2904 O   0  0  0  0  0  0  0  0  0  0  0  0
  154.4467  137.1844  154.8941 H   0  0  0  0  0  0  0  0  0  0  0  0
  155.2184  137.8934  156.2963 H   0  0  0  0  0  0  0  0  0  0  0  0
  152.1995  140.5328  158.2771 H   0  0  0  0  0  0  0  0  0  0  0  0
  149.9637  137.6121  152.9913 H   0  0  0  0  0  0  0  0  0  0  0  0
  148.2406  139.3334  155.7691 H   0  0  0  0  0  0  0  0  0  0  0  0
  145.8532  139.2000  153.4092 H   0  0  0  0  0  0  0  0  0  0  0  0
  146.4154  139.8512  151.0684 H   0  0  0  0  0  0  0  0  0  0  0  0
  148.1268  139.6812  151.4157 H   0  0  0  0  0  0  0  0  0  0  0  0
  147.6590  137.4639  151.9415 H   0  0  0  0  0  0  0  0  0  0  0  0
  147.0108  141.7000  152.8818 H   0  0  0  0  0  0  0  0  0  0  0  0
  148.6407  141.5700  155.0965 H   0  0  0  0  0  0  0  0  0  0  0  0
  149.5626  140.5326  152.6551 H   0  0  0  0  0  0  0  0  0  0  0  0
  1  2  1  0  0  0  0
  1 20  1  0  0  0  0
  1 21  1  0  0  0  0
  2  7  1  0  0  0  0
  2  3  2  0  0  0  0
  3  4  1  0  0  0  0
  4  5  2  0  0  0  0
  4 22  1  0  0  0  0
  5  6  1  0  0  0  0
  6 10  1  0  0  0  0
  6  7  2  0  0  0  0
  7  8  1  0  0  0  0
  8  9  2  0  0  0  0
  9 10  1  0  0  0  0
  9 23  1  0  0  0  0
 10 11  1  0  0  0  0
 11 18  1  0  0  0  0
 11 12  1  0  0  0  0
 11 24  1  0  0  0  0
 12 13  1  0  0  0  0
 13 14  1  0  0  0  0
 13 16  1  0  0  0  0
 13 25  1  0  0  0  0
 14 15  1  0  0  0  0
 14 26  1  0  0  0  0
 14 27  1  0  0  0  0
 15 28  1  0  0  0  0
 16 17  1  0  0  0  0
 16 18  1  0  0  0  0
 16 29  1  0  0  0  0
 18 19  1  0  0  0  0
 18 30  1  0  0  0  0
 19 31  1  0  0  0  0
M  END
> <s_m_source_file>
AV-unprocessed.smi

> <i_m_source_file_index>
100

> <i_lp_mmshare_version>
43012

> <i_f3d_flags>
0

> <s_epik_input>
bjFbY0hdbmMoW05IMl0pYyhjMTIpbltjSF1uMltDQEBIXTNPW0NAQEhdKFtDSDJdW09IXSlbQ0BIXShGKVtDQEhdM1tPSF0=

> <s_epik_cmdline>
J2VwaWtfcHl0aG9uJywgJy1waCcsICc3LjAnLCAnLXRuJywgJzgnLCAnLW1hJywgJzIwMCcsICctbWV0YWxfYmluZGluZycsICctaW1hZScsICc8aW5maWxlLm1hZT4nLCAnLW9tYWUnLCAnPG91dGZpbGUubWFlPic=

> <r_lp_tautomer_probability>
1

> <r_epik_Ionization_Penalty>
0.000750324

> <r_epik_Ionization_Penalty_Charging>
0

> <r_epik_Ionization_Penalty_Neutral>
0.000750324

> <r_epik_State_Penalty>
-0

> <r_epik_Charging_Adjusted_Penalty>
0

> <i_epik_Tot_Q>
0

> <i_epik_Tot_abs_Q>
0

> <r_epik_Metal_State_Penalty>
-0

> <b_epik_Metal_Only>
0

> <s_epik_Chemistry_Notes>
This compound contains an acetal/aminal-like group ( X-CH(R)-Y where X, Y are N, S, or O) that may be acid/base labile, releasing an aldehyde.

> <s_lp_Force_Field>
OPLS_2005

> <r_lp_Energy>
38.301

> <b_lp_Chiralities_Consistent>
1

> <s_lp_Variant>
AV-unprocessed.smi:100-15

> <Gold.Version>
5.8.1

> <Gold.Id.Protein>
6NUR|6NUR_protein|mol2

> <Gold.PLP.Fitness>
42.2538

> <Gold.PLP.PLP>
-25.5372

> <Gold.PLP.part.hbond>
-5.9724

> <Gold.PLP.part.metal>
0.0000

> <Gold.PLP.part.buried>
3.3460

> <Gold.PLP.part.nonpolar>
-26.3574

> <Gold.PLP.part.repulsive>
2.9139

> <Gold.PLP.ligand.clash>
0.0000

> <Gold.PLP.ligand.torsion>
0.4752

> <Gold.PLP.Chemscore.Hbond>
4.8885

> <Gold.PLP.Chemscore.CHOScore>
1.0000

> <Gold.PLP.Chemscore.Metal>
0.0000

> <Gold.Chemscore.Hbonds>
donor molecule, donor type, donor heavy atom, donor atom, acceptor molecule, acceptor atom, score
      L1  H    15    28       P1  7948  0.74
      L1  H    19    31       P1  7957  0.99
      P1  H  7954  7966       L1    15  0.85
      P1  H  7989  7998       L1    19  0.01
      P1  H  7997  8008       L1     3  0.96
      P1  H  8011  8017       L1    19  0.90
      P1  H 10752 10764       L1     8  0.29
      L1  C     9    23       P1  7948  0.92

> <Gold.PLP.Chemscore.Internal.Correction>
0.0014

> <Gold.Rescore>
     Score         DG    S(hbond)    S(metal)    S(lipo)     H(rot)  DE(clash)    DE(int)     intcor
      8.00     -11.43       2.87        0.00      38.73       3.19       2.95       0.48       ----

> <Gold.Chemscore.Fitness>
8.0009

> <Gold.Chemscore.DG>
-11.4315

> <Gold.Chemscore.ZeroCoef>
-5.4800

> <Gold.Chemscore.Hbond>
2.8705

> <Gold.Chemscore.Metal>
0.0000

> <Gold.Chemscore.Lipo>
38.7252

> <Gold.Chemscore.Internal_Hbond>
0.0000

> <Gold.Chemscore.DEClash>
2.9477

> <Gold.Chemscore.DEInternal>
0.4830

> <Gold.Chemscore.Rot>
3.1901

> <Gold.Chemscore.Internal.Correction>
   9.000000E+99

> <Gold.Chemscore.Hbonds>
donor molecule, donor type, donor heavy atom, donor atom, acceptor molecule, acceptor atom, score
      L1  H    15    28       P1  7948  0.74
      L1  H    19    31       P1  7957  0.91
      P1  H  7954  7966       L1    15  0.04
      P1  H  7997  8008       L1     3  0.34
      P1  H  8011  8017       L1    19  0.17
      P1  H 10752 10764       L1     8  0.13

> <Gold.Chemscore.Hbond.Weighted>
-9.5873

> <Gold.Chemscore.Metal.Weighted>
-0.0000

> <Gold.Chemscore.Lipo.Weighted>
-4.5308

> <Gold.Chemscore.Internal_Hbond.Weighted>
0.0000

> <Gold.Chemscore.DEClash.Weighted>
2.9477

> <Gold.Chemscore.DEInternal.Weighted>
0.4830

> <Gold.Chemscore.Rot.Weighted>
8.1667

> <Gold.Chemscore.Internal.Correction.Weighted>
   9.000000E+99

> <Gold.Protein.RotatedTorsions>
[ 6907 6896 6895 6894 ] final  127.96 input  -60.11 | X-H torsion
[ 7974 7965 7964 7962 ] final  -23.16 input  175.53 | X-H torsion
[ 8008 7997 7996 7995 ] final  -82.58 input   59.86 | X-H torsion
[ 10167 10162 10161 10158 ] final   20.48 input  -65.29 | X-H torsion
[ 10718 10713 10712 10709 ] final  178.85 input   66.30 | X-H torsion
[ 10763 10752 10751 10750 ] final  -81.48 input  -60.55 | X-H torsion
[ 11005 11000 10999 10996 ] final  -23.00 input  -57.11 | X-H torsion

> <Gold.Protein.ActiveResidues>
 VAL166  LYS551  ARG553  GLY616  TRP617  ASP618  TYR619  PRO620  LYS621  CYS622 
 ASP623  PHE694  ASN695  SER759  ASP760  ASP761  ALA762  ILE779  LEU786  VAL792 
 PHE793  MET794  SER795  GLU796  ALA797  LYS798  CYS799  TRP800  GLU811  SER814 

> <Gold.Protein.RotatedAtoms>
  152.3764  133.6487  159.6126 H   0  0  0  0  0  0  0  0  0  0  0  0  # atno 6907 bound_to 6896
  150.7707  133.9186  159.3400 H   0  0  0  0  0  0  0  0  0  0  0  0  # atno 6908 bound_to 6896
  151.6999  135.0933  160.0300 H   0  0  0  0  0  0  0  0  0  0  0  0  # atno 6909 bound_to 6896
  146.1633  140.4578  142.8562 H   0  0  0  0  0  0  0  0  0  0  0  0  # atno 7974 bound_to 7965
  154.6101  140.0631  156.9482 H   0  0  0  0  0  0  0  0  0  0  0  0  # atno 8008 bound_to 7997
  155.1988  140.3313  155.4328 H   0  0  0  0  0  0  0  0  0  0  0  0  # atno 8009 bound_to 7997
  156.2371  140.1868  156.7073 H   0  0  0  0  0  0  0  0  0  0  0  0  # atno 8010 bound_to 7997
  140.5500  143.9526  150.6572 H   0  0  0  0  0  0  0  0  0  0  0  0  # atno 10167 bound_to 10162
  156.8844  130.9826  151.3058 H   0  0  0  0  0  0  0  0  0  0  0  0  # atno 10718 bound_to 10713
  154.5641  135.5625  153.7034 H   0  0  0  0  0  0  0  0  0  0  0  0  # atno 10763 bound_to 10752
  153.0027  135.6281  154.2205 H   0  0  0  0  0  0  0  0  0  0  0  0  # atno 10764 bound_to 10752
  154.2143  135.2872  155.2927 H   0  0  0  0  0  0  0  0  0  0  0  0  # atno 10765 bound_to 10752
  140.8710  133.7720  156.0187 H   0  0  0  0  0  0  0  0  0  0  0  0  # atno 11005 bound_to 11000
  144.8057  140.6294  143.6449 LP  0  0  0  0  0  0  0  0  0  0  0  0  # atno 17320 bound_to 7965
  145.4533  139.1521  143.3906 LP  0  0  0  0  0  0  0  0  0  0  0  0  # atno 17321 bound_to 7965
  140.2949  143.3299  152.1027 LP  0  0  0  0  0  0  0  0  0  0  0  0  # atno 17342 bound_to 10162
  139.5023  144.6732  151.6191 LP  0  0  0  0  0  0  0  0  0  0  0  0  # atno 17343 bound_to 10162
  157.6121  130.8591  149.8968 LP  0  0  0  0  0  0  0  0  0  0  0  0  # atno 17370 bound_to 10713
  156.0660  130.3692  150.0876 LP  0  0  0  0  0  0  0  0  0  0  0  0  # atno 17371 bound_to 10713
  140.8573  134.2883  157.5250 LP  0  0  0  0  0  0  0  0  0  0  0  0  # atno 17394 bound_to 11000
  139.8712  134.9499  156.4040 LP  0  0  0  0  0  0  0  0  0  0  0  0  # atno 17395 bound_to 11000

$$$$
