AV-unprocessed.smi:3058|AV-procd|sdf|11670|dock4
  -GOLD-   2272017 73D 1   1.00000     0.00000
 Structure written by MMmdl.
 38 40  0  0  0  0  0  0  0  0  1 V2000
  150.0619  141.5503  158.6746 O   0  0  0  0  0  0  0  0  0  0  0  0
  149.9882  142.4876  157.8786 C   0  0  0  0  0  0  0  0  0  0  0  0
  149.4370  142.3689  156.6610 N   0  0  0  0  0  0  0  0  0  0  0  0
  148.8745  141.1403  156.1138 C   0  0  0  0  0  0  0  0  0  0  0  0
  149.6479  140.6680  154.8721 C   0  0  0  0  0  0  0  0  0  0  0  0
  150.7264  139.6623  155.2227 C   0  0  0  0  0  0  0  0  0  0  0  0
  151.6076  139.8941  156.2987 C   0  0  0  0  0  0  0  0  0  0  0  0
  152.5896  138.9282  156.5912 C   0  0  0  0  0  0  0  0  0  0  0  0
  152.6477  137.7681  155.7930 C   0  0  0  0  0  0  0  0  0  0  0  0
  151.8084  137.5354  154.7606 N   0  0  0  0  0  0  0  0  0  0  0  0
  150.8700  138.4670  154.4867 C   0  0  0  0  0  0  0  0  0  0  0  0
  150.5150  143.8854  158.2484 C   0  0  1  0  0  0  0  0  0  0  0  0
  149.8707  144.5077  159.5121 C   0  0  0  0  0  0  0  0  0  0  0  0
  151.0910  144.8800  160.3753 C   0  0  1  0  0  0  0  0  0  0  0  0
  151.7209  143.5998  160.9559 C   0  0  0  0  0  0  0  0  0  0  0  0
  152.4219  142.9819  159.7323 C   0  0  0  0  0  0  0  0  0  0  0  0
  152.0275  143.9460  158.5915 C   0  0  2  0  0  0  0  0  0  0  0  0
  152.1106  145.2860  159.3170 C   0  0  0  0  0  0  0  0  0  0  0  0
  149.4078  143.1877  156.0709 H   0  0  0  0  0  0  0  0  0  0  0  0
  148.8643  140.3616  156.8785 H   0  0  0  0  0  0  0  0  0  0  0  0
  147.8333  141.3321  155.8527 H   0  0  0  0  0  0  0  0  0  0  0  0
  148.9628  140.2183  154.1521 H   0  0  0  0  0  0  0  0  0  0  0  0
  150.1106  141.5171  154.3670 H   0  0  0  0  0  0  0  0  0  0  0  0
  151.5323  140.7939  156.8917 H   0  0  0  0  0  0  0  0  0  0  0  0
  153.2810  139.0724  157.4082 H   0  0  0  0  0  0  0  0  0  0  0  0
  153.3879  137.0067  155.9896 H   0  0  0  0  0  0  0  0  0  0  0  0
  150.2124  138.2495  153.6577 H   0  0  0  0  0  0  0  0  0  0  0  0
  150.3240  144.5537  157.4063 H   0  0  0  0  0  0  0  0  0  0  0  0
  149.3081  145.4028  159.2435 H   0  0  0  0  0  0  0  0  0  0  0  0
  149.1851  143.8460  160.0431 H   0  0  0  0  0  0  0  0  0  0  0  0
  150.8775  145.6406  161.1265 H   0  0  0  0  0  0  0  0  0  0  0  0
  152.4469  143.8374  161.7344 H   0  0  0  0  0  0  0  0  0  0  0  0
  150.9731  142.9327  161.3865 H   0  0  0  0  0  0  0  0  0  0  0  0
  153.5031  142.9932  159.8762 H   0  0  0  0  0  0  0  0  0  0  0  0
  152.1375  141.9452  159.5563 H   0  0  0  0  0  0  0  0  0  0  0  0
  152.6738  143.8719  157.7165 H   0  0  0  0  0  0  0  0  0  0  0  0
  151.7889  146.1323  158.7072 H   0  0  0  0  0  0  0  0  0  0  0  0
  153.0991  145.4987  159.7280 H   0  0  0  0  0  0  0  0  0  0  0  0
  1  2  2  0  0  0  0
  2  3  1  0  0  0  0
  2 12  1  0  0  0  0
  3  4  1  0  0  0  0
  3 19  1  0  0  0  0
  4  5  1  0  0  0  0
  4 20  1  0  0  0  0
  4 21  1  0  0  0  0
  5  6  1  0  0  0  0
  5 22  1  0  0  0  0
  5 23  1  0  0  0  0
  6 11  1  0  0  0  0
  6  7  2  0  0  0  0
  7  8  1  0  0  0  0
  7 24  1  0  0  0  0
  8  9  2  0  0  0  0
  8 25  1  0  0  0  0
  9 10  1  0  0  0  0
  9 26  1  0  0  0  0
 10 11  2  0  0  0  0
 11 27  1  0  0  0  0
 12 17  1  0  0  0  0
 12 13  1  0  0  0  0
 12 28  1  0  0  0  0
 13 14  1  0  0  0  0
 13 29  1  0  0  0  0
 13 30  1  0  0  0  0
 14 18  1  0  0  0  0
 14 15  1  0  0  0  0
 14 31  1  0  0  0  0
 15 16  1  0  0  0  0
 15 32  1  0  0  0  0
 15 33  1  0  0  0  0
 16 17  1  0  0  0  0
 16 34  1  0  0  0  0
 16 35  1  0  0  0  0
 17 18  1  0  0  0  0
 17 36  1  0  0  0  0
 18 37  1  0  0  0  0
 18 38  1  0  0  0  0
M  END
> <s_m_source_file>
AV-unprocessed.smi

> <i_m_source_file_index>
3058

> <i_lp_mmshare_version>
43012

> <i_f3d_flags>
0

> <s_epik_input>
W0NIMl0xW0NIMl1bQ0BIXShbQ0gyXTIpW0NAQEhdKFtDSDJdW0NAQEhdMTIpQyg9TylbTkhdW0NIMl1bQ0gyXWMzW2NIXVtjSF1bY0hdbltjSF0z

> <s_epik_cmdline>
J2VwaWtfcHl0aG9uJywgJy1waCcsICc3LjAnLCAnLXRuJywgJzgnLCAnLW1hJywgJzIwMCcsICctbWV0YWxfYmluZGluZycsICctaW1hZScsICc8aW5maWxlLm1hZT4nLCAnLW9tYWUnLCAnPG91dGZpbGUubWFlPic=

> <r_epik_Ionization_Penalty>
0.0135821

> <r_epik_Ionization_Penalty_Charging>
0

> <r_epik_Ionization_Penalty_Neutral>
0.0135821

> <r_epik_State_Penalty>
0.0105782

> <r_epik_Charging_Adjusted_Penalty>
0.0105782

> <i_epik_Tot_Q>
0

> <i_epik_Tot_abs_Q>
0

> <r_epik_Metal_State_Penalty>
0.0103407

> <b_epik_Metal_Only>
0

> <s_lp_Force_Field>
OPLS_2005

> <r_lp_Energy>
46.4092

> <b_lp_Chiralities_Consistent>
1

> <s_lp_Variant>
AV-unprocessed.smi:3058-2

> <Gold.Version>
5.8.1

> <Gold.Id.Protein>
6NUR|6NUR_protein|mol2

> <Gold.PLP.Fitness>
48.2457

> <Gold.PLP.PLP>
-43.7131

> <Gold.PLP.part.hbond>
-1.0000

> <Gold.PLP.part.metal>
0.0000

> <Gold.PLP.part.buried>
-3.0735

> <Gold.PLP.part.nonpolar>
-40.1582

> <Gold.PLP.part.repulsive>
0.2447

> <Gold.PLP.ligand.clash>
0.0000

> <Gold.PLP.ligand.torsion>
0.3803

> <Gold.PLP.Chemscore.Hbond>
1.0000

> <Gold.PLP.Chemscore.CHOScore>
0.7597

> <Gold.PLP.Chemscore.Metal>
0.0000

> <Gold.Chemscore.Hbonds>
donor molecule, donor type, donor heavy atom, donor atom, acceptor molecule, acceptor atom, score
      L1  H     3    19       P1  8028  1.00

> <Gold.PLP.Chemscore.Internal.Correction>
0.0141

> <Gold.Rescore>
     Score         DG    S(hbond)    S(metal)    S(lipo)     H(rot)  DE(clash)    DE(int)     intcor
     19.06     -20.52       0.99        0.00     130.07       1.37       0.04       1.43       ----

> <Gold.Chemscore.Fitness>
19.0558

> <Gold.Chemscore.DG>
-20.5241

> <Gold.Chemscore.ZeroCoef>
-5.4800

> <Gold.Chemscore.Hbond>
0.9943

> <Gold.Chemscore.Metal>
0.0000

> <Gold.Chemscore.Lipo>
130.0722

> <Gold.Chemscore.Internal_Hbond>
0.0000

> <Gold.Chemscore.DEClash>
0.0402

> <Gold.Chemscore.DEInternal>
1.4281

> <Gold.Chemscore.Rot>
1.3653

> <Gold.Chemscore.Internal.Correction>
   9.000000E+99

> <Gold.Chemscore.Hbonds>
donor molecule, donor type, donor heavy atom, donor atom, acceptor molecule, acceptor atom, score
      L1  H     3    19       P1  8028  0.97

> <Gold.Chemscore.Hbond.Weighted>
-3.3208

> <Gold.Chemscore.Metal.Weighted>
-0.0000

> <Gold.Chemscore.Lipo.Weighted>
-15.2185

> <Gold.Chemscore.Internal_Hbond.Weighted>
0.0000

> <Gold.Chemscore.DEClash.Weighted>
0.0402

> <Gold.Chemscore.DEInternal.Weighted>
1.4281

> <Gold.Chemscore.Rot.Weighted>
3.4951

> <Gold.Chemscore.Internal.Correction.Weighted>
   9.000000E+99

> <Gold.Protein.RotatedTorsions>
[ 6907 6896 6895 6894 ] final   46.43 input  -60.11 | X-H torsion
[ 7974 7965 7964 7962 ] final   63.43 input  175.53 | X-H torsion
[ 8008 7997 7996 7995 ] final -156.03 input   59.86 | X-H torsion
[ 10167 10162 10161 10158 ] final -141.98 input  -65.29 | X-H torsion
[ 10718 10713 10712 10709 ] final  -53.14 input   66.30 | X-H torsion
[ 10763 10752 10751 10750 ] final -165.77 input  -60.55 | X-H torsion
[ 11005 11000 10999 10996 ] final  -13.84 input  -57.11 | X-H torsion

> <Gold.Protein.ActiveResidues>
 VAL166  LYS551  ARG553  GLY616  TRP617  ASP618  TYR619  PRO620  LYS621  CYS622 
 ASP623  PHE694  ASN695  SER759  ASP760  ASP761  ALA762  ILE779  LEU786  VAL792 
 PHE793  MET794  SER795  GLU796  ALA797  LYS798  CYS799  TRP800  GLU811  SER814 

> <Gold.Protein.RotatedAtoms>
  152.2563  134.8080  160.0437 H   0  0  0  0  0  0  0  0  0  0  0  0  # atno 6907 bound_to 6896
  151.8742  133.3477  159.3753 H   0  0  0  0  0  0  0  0  0  0  0  0  # atno 6908 bound_to 6896
  150.7101  134.5009  159.5605 H   0  0  0  0  0  0  0  0  0  0  0  0  # atno 6909 bound_to 6896
  145.8620  139.3321  143.0813 H   0  0  0  0  0  0  0  0  0  0  0  0  # atno 7974 bound_to 7965
  155.7109  140.0778  157.2371 H   0  0  0  0  0  0  0  0  0  0  0  0  # atno 8008 bound_to 7997
  154.4058  140.1630  156.2349 H   0  0  0  0  0  0  0  0  0  0  0  0  # atno 8009 bound_to 7997
  155.9283  140.3393  155.6231 H   0  0  0  0  0  0  0  0  0  0  0  0  # atno 8010 bound_to 7997
  139.8132  143.7674  152.2664 H   0  0  0  0  0  0  0  0  0  0  0  0  # atno 10167 bound_to 10162
  156.1560  130.4150  149.9868 H   0  0  0  0  0  0  0  0  0  0  0  0  # atno 10718 bound_to 10713
  154.6899  135.2969  154.9495 H   0  0  0  0  0  0  0  0  0  0  0  0  # atno 10763 bound_to 10752
  154.0461  135.6651  153.4799 H   0  0  0  0  0  0  0  0  0  0  0  0  # atno 10764 bound_to 10752
  153.0605  135.5119  154.7986 H   0  0  0  0  0  0  0  0  0  0  0  0  # atno 10765 bound_to 10752
  140.7802  133.8369  155.9285 H   0  0  0  0  0  0  0  0  0  0  0  0  # atno 11005 bound_to 11000
  145.9237  140.9097  143.0392 LP  0  0  0  0  0  0  0  0  0  0  0  0  # atno 17320 bound_to 7965
  144.6726  140.1324  143.7443 LP  0  0  0  0  0  0  0  0  0  0  0  0  # atno 17321 bound_to 7965
  139.7829  144.7438  151.0062 LP  0  0  0  0  0  0  0  0  0  0  0  0  # atno 17342 bound_to 10162
  140.7817  143.4522  151.0396 LP  0  0  0  0  0  0  0  0  0  0  0  0  # atno 17343 bound_to 10162
  156.7711  130.9187  151.3644 LP  0  0  0  0  0  0  0  0  0  0  0  0  # atno 17370 bound_to 10713
  157.6695  130.9038  150.0008 LP  0  0  0  0  0  0  0  0  0  0  0  0  # atno 17371 bound_to 10713
  140.9489  134.1804  157.4742 LP  0  0  0  0  0  0  0  0  0  0  0  0  # atno 17394 bound_to 11000
  139.8743  134.9901  156.5489 LP  0  0  0  0  0  0  0  0  0  0  0  0  # atno 17395 bound_to 11000

$$$$
