AV-unprocessed.smi:45|AV-procd|sdf|413|dock10
  -GOLD-   2262016283D 1   1.00000     0.00000
 Structure written by MMmdl.
 59 62  0  0  0  0  0  0  0  0  2 V2000
  155.5506  131.0381  157.5758 C   0  0  0  0  0  0  0  0  0  0  0  0
  154.7304  130.1896  156.7865 O   0  0  0  0  0  0  0  0  0  0  0  0
  153.5164  130.6785  156.3505 C   0  0  0  0  0  0  0  0  0  0  0  0
  152.9648  131.9126  156.7778 C   0  0  0  0  0  0  0  0  0  0  0  0
  151.7298  132.3580  156.2704 C   0  0  0  0  0  0  0  0  0  0  0  0
  151.0228  131.5820  155.3316 C   0  0  0  0  0  0  0  0  0  0  0  0
  149.7079  132.1037  154.7661 C   0  0  0  0  0  0  0  0  0  0  0  0
  148.8094  132.7361  155.7266 N   0  0  0  0  0  0  0  0  0  0  0  0
  148.0309  133.8286  155.3049 C   0  0  0  0  0  0  0  0  0  0  0  0
  147.3078  133.6863  154.1680 N   0  0  0  0  0  0  0  0  0  0  0  0
  146.5180  134.6988  153.8067 C   0  0  0  0  0  0  0  0  0  0  0  0
  145.7279  134.4774  152.6919 N   0  0  0  0  0  0  0  0  0  0  0  0
  145.7386  133.1530  152.0808 C   0  0  0  0  0  0  0  0  0  0  0  0
  145.4517  133.3498  150.5861 C   0  0  0  0  0  0  0  0  0  0  0  0
  144.9830  134.7985  150.4815 C   0  0  0  0  0  0  0  0  0  0  0  0
  145.7446  135.4691  151.6241 C   0  0  1  0  0  0  0  0  0  0  0  0
  145.1682  136.8294  152.0604 C   0  0  0  0  0  0  0  0  0  0  0  0
  143.7575  136.7964  152.0382 O   0  0  0  0  0  0  0  0  0  0  0  0
  146.3771  135.8641  154.4449 N   0  0  0  0  0  0  0  0  0  0  0  0
  147.0966  136.0279  155.5758 C   0  0  0  0  0  0  0  0  0  0  0  0
  147.9543  135.0201  156.0744 C   0  0  0  0  0  0  0  0  0  0  0  0
  148.7237  135.2136  157.3519 C   0  0  0  0  0  0  0  0  0  0  0  0
  149.7994  134.6197  157.4849 O   0  0  0  0  0  0  0  0  0  0  0  0
  148.0526  136.0161  158.2238 N   0  5  0  0  0  0  0  0  0  0  0  0
  148.6340  136.5405  159.4602 C   0  0  0  0  0  0  0  0  0  0  0  0
  147.8737  136.0710  160.6965 C   0  0  0  0  0  0  0  0  0  0  0  0
  147.7995  134.7494  160.8957 N   0  0  0  0  0  0  0  0  0  0  0  0
  147.1595  134.3308  162.0088 C   0  0  0  0  0  0  0  0  0  0  0  0
  146.5900  135.2389  162.9234 C   0  0  0  0  0  0  0  0  0  0  0  0
  146.7241  136.6057  162.6081 C   0  0  0  0  0  0  0  0  0  0  0  0
  147.3641  137.0191  161.4932 N   0  0  0  0  0  0  0  0  0  0  0  0
  151.5523  130.3389  154.9240 C   0  0  0  0  0  0  0  0  0  0  0  0
  152.7928  129.8967  155.4229 C   0  0  0  0  0  0  0  0  0  0  0  0
  153.4310  128.3884  154.8760 Cl  0  0  0  0  0  0  0  0  0  0  0  0
  146.7831  135.6085  151.3186 H   0  0  0  0  0  0  0  0  0  0  0  0
  156.4833  130.5233  157.8056 H   0  0  0  0  0  0  0  0  0  0  0  0
  155.0705  131.2884  158.5226 H   0  0  0  0  0  0  0  0  0  0  0  0
  155.8037  131.9561  157.0435 H   0  0  0  0  0  0  0  0  0  0  0  0
  153.4765  132.5453  157.4867 H   0  0  0  0  0  0  0  0  0  0  0  0
  151.3333  133.3091  156.5944 H   0  0  0  0  0  0  0  0  0  0  0  0
  149.9389  132.8333  153.9901 H   0  0  0  0  0  0  0  0  0  0  0  0
  149.1729  131.2902  154.2744 H   0  0  0  0  0  0  0  0  0  0  0  0
  148.3487  132.1062  156.3688 H   0  0  0  0  0  0  0  0  0  0  0  0
  146.6855  132.6346  152.2364 H   0  0  0  0  0  0  0  0  0  0  0  0
  144.9536  132.5545  152.5435 H   0  0  0  0  0  0  0  0  0  0  0  0
  146.3738  133.2207  150.0179 H   0  0  0  0  0  0  0  0  0  0  0  0
  144.7184  132.6412  150.2002 H   0  0  0  0  0  0  0  0  0  0  0  0
  145.1949  135.2439  149.5091 H   0  0  0  0  0  0  0  0  0  0  0  0
  143.9073  134.8553  150.6554 H   0  0  0  0  0  0  0  0  0  0  0  0
  145.5092  137.0965  153.0610 H   0  0  0  0  0  0  0  0  0  0  0  0
  145.4933  137.6211  151.3851 H   0  0  0  0  0  0  0  0  0  0  0  0
  143.4623  137.1929  151.2326 H   0  0  0  0  0  0  0  0  0  0  0  0
  146.9760  136.9711  156.0886 H   0  0  0  0  0  0  0  0  0  0  0  0
  149.6852  136.2659  159.5668 H   0  0  0  0  0  0  0  0  0  0  0  0
  148.6342  137.6313  159.4569 H   0  0  0  0  0  0  0  0  0  0  0  0
  147.1040  133.2647  162.1722 H   0  0  0  0  0  0  0  0  0  0  0  0
  146.0796  134.9066  163.8147 H   0  0  0  0  0  0  0  0  0  0  0  0
  146.3165  137.3702  163.2527 H   0  0  0  0  0  0  0  0  0  0  0  0
  151.0199  129.7274  154.2092 H   0  0  0  0  0  0  0  0  0  0  0  0
  1  2  1  0  0  0  0
  1 36  1  0  0  0  0
  1 37  1  0  0  0  0
  1 38  1  0  0  0  0
  2  3  1  0  0  0  0
  3 33  1  0  0  0  0
  3  4  2  0  0  0  0
  4  5  1  0  0  0  0
  4 39  1  0  0  0  0
  5  6  2  0  0  0  0
  5 40  1  0  0  0  0
  6  7  1  0  0  0  0
  6 32  1  0  0  0  0
  7  8  1  0  0  0  0
  7 41  1  0  0  0  0
  7 42  1  0  0  0  0
  8  9  1  0  0  0  0
  8 43  1  0  0  0  0
  9 21  1  0  0  0  0
  9 10  2  0  0  0  0
 10 11  1  0  0  0  0
 11 12  1  0  0  0  0
 11 19  2  0  0  0  0
 12 16  1  0  0  0  0
 12 13  1  0  0  0  0
 13 14  1  0  0  0  0
 13 44  1  0  0  0  0
 13 45  1  0  0  0  0
 14 15  1  0  0  0  0
 14 46  1  0  0  0  0
 14 47  1  0  0  0  0
 15 16  1  0  0  0  0
 15 48  1  0  0  0  0
 15 49  1  0  0  0  0
 16 35  1  0  0  0  0
 16 17  1  0  0  0  0
 17 18  1  0  0  0  0
 17 50  1  0  0  0  0
 17 51  1  0  0  0  0
 18 52  1  0  0  0  0
 19 20  1  0  0  0  0
 20 21  2  0  0  0  0
 20 53  1  0  0  0  0
 21 22  1  0  0  0  0
 22 23  2  0  0  0  0
 22 24  1  0  0  0  0
 24 25  1  0  0  0  0
 25 26  1  0  0  0  0
 25 54  1  0  0  0  0
 25 55  1  0  0  0  0
 26 31  1  0  0  0  0
 26 27  2  0  0  0  0
 27 28  1  0  0  0  0
 28 29  2  0  0  0  0
 28 56  1  0  0  0  0
 29 30  1  0  0  0  0
 29 57  1  0  0  0  0
 30 31  2  0  0  0  0
 30 58  1  0  0  0  0
 32 33  2  0  0  0  0
 32 59  1  0  0  0  0
 33 34  1  0  0  0  0
M  CHG  1  24  -1
M  END
> <s_m_source_file>
AV-unprocessed.smi

> <i_m_source_file_index>
45

> <i_lp_mmshare_version>
43012

> <i_f3d_flags>
0

> <s_epik_input>
W0NIM11PYzFbY0hdW2NIXWMoW2NIXWMxQ2wpW0NIMl1bTkhdYzJuYyhOM1tDSDJdW0NIMl1bQ0gyXVtDQEhdM1tDSDJdW09IXSluW2NIXWMyQyg9TylbTkhdW0NIMl1jNG5bY0hdW2NIXVtjSF1uNA==

> <s_epik_cmdline>
J2VwaWtfcHl0aG9uJywgJy1waCcsICc3LjAnLCAnLXRuJywgJzgnLCAnLW1hJywgJzIwMCcsICctbWV0YWxfYmluZGluZycsICctaW1hZScsICc8aW5maWxlLm1hZT4nLCAnLW9tYWUnLCAnPG91dGZpbGUubWFlPic=

> <r_lp_tautomer_probability>
1

> <r_epik_Ionization_Penalty>
7.35269

> <r_epik_Ionization_Penalty_Charging>
6.82087

> <r_epik_Ionization_Penalty_Neutral>
0.53182

> <r_epik_State_Penalty>
6.85781

> <r_epik_Charging_Adjusted_Penalty>
13.6787

> <i_epik_Tot_Q>
-1

> <i_epik_Tot_abs_Q>
1

> <r_epik_Metal_State_Penalty>
2.8146

> <b_epik_Metal_Only>
1

> <s_epik_Chemistry_Notes>
This compound contains an electron-poor aromatic ring that is susceptible to covalent hydrolysis at low pH, typically resulting in measured values for nitrogen ring protonation that are around two units higher than predicted values.

> <s_lp_Force_Field>
OPLS_2005

> <r_lp_Energy>
41.892

> <b_lp_Chiralities_Consistent>
1

> <s_lp_Variant>
AV-unprocessed.smi:45-7

> <Gold.Version>
5.8.1

> <Gold.Id.Protein>
6NUR|6NUR_protein|mol2

> <Gold.PLP.Fitness>
55.5046

> <Gold.PLP.PLP>
-46.5291

> <Gold.PLP.part.hbond>
-4.0000

> <Gold.PLP.part.metal>
0.0000

> <Gold.PLP.part.buried>
-4.1657

> <Gold.PLP.part.nonpolar>
-38.2996

> <Gold.PLP.part.repulsive>
0.2258

> <Gold.PLP.ligand.clash>
0.0000

> <Gold.PLP.ligand.torsion>
1.3575

> <Gold.PLP.Chemscore.Hbond>
3.6605

> <Gold.PLP.Chemscore.CHOScore>
0.0000

> <Gold.PLP.Chemscore.Metal>
0.0000

> <Gold.Chemscore.Hbonds>
donor molecule, donor type, donor heavy atom, donor atom, acceptor molecule, acceptor atom, score
      L1  H    18    52       P1 10171  0.93
      P1  H  6896  6909       L1    23  0.74
      P1  H  6931  6943       L1    31  0.78
      P1  H  6934  6947       L1    31  0.81

> <Gold.PLP.Chemscore.Internal.Correction>
0.7092

> <Gold.Rescore>
     Score         DG    S(hbond)    S(metal)    S(lipo)     H(rot)  DE(clash)    DE(int)     intcor
     14.45     -18.46       2.96        0.00      99.99       3.36       0.03       3.98       ----

> <Gold.Chemscore.Fitness>
14.4476

> <Gold.Chemscore.DG>
-18.4641

> <Gold.Chemscore.ZeroCoef>
-5.4800

> <Gold.Chemscore.Hbond>
2.9571

> <Gold.Chemscore.Metal>
0.0000

> <Gold.Chemscore.Lipo>
99.9897

> <Gold.Chemscore.Internal_Hbond>
0.0000

> <Gold.Chemscore.DEClash>
0.0350

> <Gold.Chemscore.DEInternal>
3.9815

> <Gold.Chemscore.Rot>
3.3560

> <Gold.Chemscore.Internal.Correction>
   9.000000E+99

> <Gold.Chemscore.Hbonds>
donor molecule, donor type, donor heavy atom, donor atom, acceptor molecule, acceptor atom, score
      L1  H    18    52       P1 10171  0.83
      P1  H  6896  6909       L1    23  0.71
      P1  H  6931  6943       L1    31  0.28
      P1  H  6934  6947       L1    31  0.73

> <Gold.Chemscore.Hbond.Weighted>
-9.8766

> <Gold.Chemscore.Metal.Weighted>
-0.0000

> <Gold.Chemscore.Lipo.Weighted>
-11.6988

> <Gold.Chemscore.Internal_Hbond.Weighted>
0.0000

> <Gold.Chemscore.DEClash.Weighted>
0.0350

> <Gold.Chemscore.DEInternal.Weighted>
3.9815

> <Gold.Chemscore.Rot.Weighted>
8.5912

> <Gold.Chemscore.Internal.Correction.Weighted>
   9.000000E+99

> <Gold.Protein.RotatedTorsions>
[ 6907 6896 6895 6894 ] final   19.60 input  -60.11 | X-H torsion
[ 7974 7965 7964 7962 ] final -104.85 input  175.53 | X-H torsion
[ 8008 7997 7996 7995 ] final -121.92 input   59.86 | X-H torsion
[ 10167 10162 10161 10158 ] final    9.89 input  -65.29 | X-H torsion
[ 10718 10713 10712 10709 ] final   39.77 input   66.30 | X-H torsion
[ 10763 10752 10751 10750 ] final  138.51 input  -60.55 | X-H torsion
[ 11005 11000 10999 10996 ] final -137.64 input  -57.11 | X-H torsion

> <Gold.Protein.ActiveResidues>
 VAL166  LYS551  ARG553  GLY616  TRP617  ASP618  TYR619  PRO620  LYS621  CYS622 
 ASP623  PHE694  ASN695  SER759  ASP760  ASP761  ALA762  ILE779  LEU786  VAL792 
 PHE793  MET794  SER795  GLU796  ALA797  LYS798  CYS799  TRP800  GLU811  SER814 

> <Gold.Protein.RotatedAtoms>
  151.8833  135.0445  160.0490 H   0  0  0  0  0  0  0  0  0  0  0  0  # atno 6907 bound_to 6896
  152.2495  133.5198  159.5325 H   0  0  0  0  0  0  0  0  0  0  0  0  # atno 6908 bound_to 6896
  150.7079  134.0896  159.3969 H   0  0  0  0  0  0  0  0  0  0  0  0  # atno 6909 bound_to 6896
  145.2379  140.9194  143.3167 H   0  0  0  0  0  0  0  0  0  0  0  0  # atno 7974 bound_to 7965
  155.1558  140.0405  157.2831 H   0  0  0  0  0  0  0  0  0  0  0  0  # atno 8008 bound_to 7997
  154.6372  140.2538  155.7338 H   0  0  0  0  0  0  0  0  0  0  0  0  # atno 8009 bound_to 7997
  156.2514  140.2863  156.0749 H   0  0  0  0  0  0  0  0  0  0  0  0  # atno 8010 bound_to 7997
  140.6227  143.8168  150.7195 H   0  0  0  0  0  0  0  0  0  0  0  0  # atno 10167 bound_to 10162
  157.3744  130.7719  149.7144 H   0  0  0  0  0  0  0  0  0  0  0  0  # atno 10718 bound_to 10713
  153.8908  135.3033  155.3447 H   0  0  0  0  0  0  0  0  0  0  0  0  # atno 10763 bound_to 10752
  154.7717  135.4882  153.9666 H   0  0  0  0  0  0  0  0  0  0  0  0  # atno 10764 bound_to 10752
  153.1299  135.6801  153.9294 H   0  0  0  0  0  0  0  0  0  0  0  0  # atno 10765 bound_to 10752
  140.8691  134.2073  157.4661 H   0  0  0  0  0  0  0  0  0  0  0  0  # atno 11005 bound_to 11000
  144.9616  139.3974  143.6353 LP  0  0  0  0  0  0  0  0  0  0  0  0  # atno 17320 bound_to 7965
  146.3336  139.8672  142.8846 LP  0  0  0  0  0  0  0  0  0  0  0  0  # atno 17321 bound_to 7965
  140.1762  143.4153  152.1966 LP  0  0  0  0  0  0  0  0  0  0  0  0  # atno 17342 bound_to 10162
  139.5453  144.7293  151.4603 LP  0  0  0  0  0  0  0  0  0  0  0  0  # atno 17343 bound_to 10162
  155.9762  130.4078  150.3795 LP  0  0  0  0  0  0  0  0  0  0  0  0  # atno 17370 bound_to 10713
  157.1890  131.0410  151.2710 LP  0  0  0  0  0  0  0  0  0  0  0  0  # atno 17371 bound_to 10713
  139.8711  134.9766  156.4927 LP  0  0  0  0  0  0  0  0  0  0  0  0  # atno 17394 bound_to 11000
  140.8594  133.8071  155.9249 LP  0  0  0  0  0  0  0  0  0  0  0  0  # atno 17395 bound_to 11000

$$$$
