AV-unprocessed.smi:561|AV-procd|sdf|2938|dock6
  -GOLD-   2262023433D 1   1.00000     0.00000
 Structure written by MMmdl.
 36 37  0  0  0  0  0  0  0  0  1 V2000
  144.8358  135.2759  151.3941 C   0  0  0  0  0  0  0  0  0  0  0  0
  143.8719  134.6036  152.3807 C   0  0  2  0  0  0  0  0  0  0  0  0
  143.1544  133.3996  151.7359 C   0  0  0  0  0  0  0  0  0  0  0  0
  143.9530  132.7574  150.7079 N   0  0  0  0  0  0  0  0  0  0  0  0
  145.2208  132.2086  150.8526 C   0  0  0  0  0  0  0  0  0  0  0  0
  145.5830  131.7251  149.6159 C   0  0  0  0  0  0  0  0  0  0  0  0
  144.5576  131.9584  148.7024 N   0  0  0  0  0  0  0  0  0  0  0  0
  143.6263  132.5714  149.4216 C   0  0  0  0  0  0  0  0  0  0  0  0
  142.9004  135.5924  152.8461 N   0  0  0  0  0  0  0  0  0  0  0  0
  141.7607  135.3257  153.5116 C   0  0  0  0  0  0  0  0  0  0  0  0
  141.4250  134.1882  153.8422 O   0  0  0  0  0  0  0  0  0  0  0  0
  140.8984  136.4974  153.8178 C   0  0  0  0  0  0  0  0  0  0  0  0
  139.9003  136.3724  154.6358 N   0  0  0  0  0  0  0  0  0  0  0  0
  139.0857  137.4364  154.9649 N   0  0  0  0  0  0  0  0  0  0  0  0
  138.1931  137.1983  156.0975 C   0  0  0  0  0  0  0  0  0  0  0  0
  139.0601  138.6211  154.3051 C   0  0  0  0  0  0  0  0  0  0  0  0
  138.3387  139.5665  154.6234 O   0  0  0  0  0  0  0  0  0  0  0  0
  139.9728  138.7401  153.0811 C   0  0  0  0  0  0  0  0  0  0  0  0
  141.2197  137.8408  153.1939 C   0  0  0  0  0  0  0  0  0  0  0  0
  145.5902  134.5717  151.0419 H   0  0  0  0  0  0  0  0  0  0  0  0
  145.3590  136.1101  151.8628 H   0  0  0  0  0  0  0  0  0  0  0  0
  144.3074  135.6612  150.5214 H   0  0  0  0  0  0  0  0  0  0  0  0
  144.4702  134.2433  153.2195 H   0  0  0  0  0  0  0  0  0  0  0  0
  142.8947  132.6578  152.4925 H   0  0  0  0  0  0  0  0  0  0  0  0
  142.2173  133.7214  151.2797 H   0  0  0  0  0  0  0  0  0  0  0  0
  145.7480  132.2138  151.7953 H   0  0  0  0  0  0  0  0  0  0  0  0
  146.4953  131.2309  149.3159 H   0  0  0  0  0  0  0  0  0  0  0  0
  142.6863  132.8985  149.0016 H   0  0  0  0  0  0  0  0  0  0  0  0
  143.0924  136.5575  152.6186 H   0  0  0  0  0  0  0  0  0  0  0  0
  137.1505  137.3209  155.7998 H   0  0  0  0  0  0  0  0  0  0  0  0
  138.4028  137.9026  156.9039 H   0  0  0  0  0  0  0  0  0  0  0  0
  138.3037  136.1909  156.5024 H   0  0  0  0  0  0  0  0  0  0  0  0
  139.3883  138.4490  152.2076 H   0  0  0  0  0  0  0  0  0  0  0  0
  140.2669  139.7793  152.9306 H   0  0  0  0  0  0  0  0  0  0  0  0
  141.9854  138.3391  153.7896 H   0  0  0  0  0  0  0  0  0  0  0  0
  141.6422  137.7111  152.1967 H   0  0  0  0  0  0  0  0  0  0  0  0
  1  2  1  0  0  0  0
  1 20  1  0  0  0  0
  1 21  1  0  0  0  0
  1 22  1  0  0  0  0
  2  3  1  0  0  0  0
  2  9  1  0  0  0  0
  2 23  1  0  0  0  0
  3  4  1  0  0  0  0
  3 24  1  0  0  0  0
  3 25  1  0  0  0  0
  4  8  1  0  0  0  0
  4  5  1  0  0  0  0
  5  6  2  0  0  0  0
  5 26  1  0  0  0  0
  6  7  1  0  0  0  0
  6 27  1  0  0  0  0
  7  8  2  0  0  0  0
  8 28  1  0  0  0  0
  9 10  1  0  0  0  0
  9 29  1  0  0  0  0
 10 11  2  0  0  0  0
 10 12  1  0  0  0  0
 12 19  1  0  0  0  0
 12 13  2  0  0  0  0
 13 14  1  0  0  0  0
 14 15  1  0  0  0  0
 14 16  1  0  0  0  0
 15 30  1  0  0  0  0
 15 31  1  0  0  0  0
 15 32  1  0  0  0  0
 16 17  2  0  0  0  0
 16 18  1  0  0  0  0
 18 19  1  0  0  0  0
 18 33  1  0  0  0  0
 18 34  1  0  0  0  0
 19 35  1  0  0  0  0
 19 36  1  0  0  0  0
M  END
> <s_m_source_file>
AV-unprocessed.smi

> <i_m_source_file_index>
561

> <i_lp_mmshare_version>
43012

> <i_f3d_flags>
0

> <s_epik_input>
W2NIXTFuW2NIXVtjSF1uMVtDSDJdW0NAQEhdKFtDSDNdKVtOSF1DKD1PKUMyPU5OKFtDSDNdKUMoPU8pW0NIMl1bQ0gyXTI=

> <s_epik_cmdline>
J2VwaWtfcHl0aG9uJywgJy1waCcsICc3LjAnLCAnLXRuJywgJzgnLCAnLW1hJywgJzIwMCcsICctbWV0YWxfYmluZGluZycsICctaW1hZScsICc8aW5maWxlLm1hZT4nLCAnLW9tYWUnLCAnPG91dGZpbGUubWFlPic=

> <r_lp_tautomer_probability>
1

> <r_epik_Ionization_Penalty>
0.46798

> <r_epik_Ionization_Penalty_Charging>
0.467902

> <r_epik_Ionization_Penalty_Neutral>
7.78263e-05

> <r_epik_State_Penalty>
0.47192

> <r_epik_Charging_Adjusted_Penalty>
0.939822

> <i_epik_Tot_Q>
0

> <i_epik_Tot_abs_Q>
0

> <r_epik_Metal_State_Penalty>
0.280825

> <b_epik_Metal_Only>
0

> <s_epik_Chemistry_Notes>
This compound has an imine and may undergo hydrolysis.

> <s_lp_Force_Field>
OPLS_2005

> <r_lp_Energy>
18.1828

> <b_lp_Chiralities_Consistent>
1

> <s_lp_Variant>
AV-unprocessed.smi:561-3

> <Gold.Version>
5.8.1

> <Gold.Id.Protein>
6NUR|6NUR_protein|mol2

> <Gold.PLP.Fitness>
47.5431

> <Gold.PLP.PLP>
-39.7285

> <Gold.PLP.part.hbond>
-3.8692

> <Gold.PLP.part.metal>
0.0000

> <Gold.PLP.part.buried>
-7.1210

> <Gold.PLP.part.nonpolar>
-32.1694

> <Gold.PLP.part.repulsive>
2.6071

> <Gold.PLP.ligand.clash>
0.0000

> <Gold.PLP.ligand.torsion>
0.6131

> <Gold.PLP.Chemscore.Hbond>
1.0000

> <Gold.PLP.Chemscore.CHOScore>
2.0000

> <Gold.PLP.Chemscore.Metal>
0.0000

> <Gold.Chemscore.Hbonds>
donor molecule, donor type, donor heavy atom, donor atom, acceptor molecule, acceptor atom, score
      P1  H 10785 10796       L1     7  0.06
      P1  H 11000 11005       L1    13  0.73
      L1  C     6    27       P1 10747  0.68
      L1  C     8    28       P1 10186  1.00

> <Gold.PLP.Chemscore.Internal.Correction>
0.0409

> <Gold.Rescore>
     Score         DG    S(hbond)    S(metal)    S(lipo)     H(rot)  DE(clash)    DE(int)     intcor
      7.69     -10.87       0.87        0.00      58.48       1.71       1.37       1.81       ----

> <Gold.Chemscore.Fitness>
7.6937

> <Gold.Chemscore.DG>
-10.8688

> <Gold.Chemscore.ZeroCoef>
-5.4800

> <Gold.Chemscore.Hbond>
0.8743

> <Gold.Chemscore.Metal>
0.0000

> <Gold.Chemscore.Lipo>
58.4823

> <Gold.Chemscore.Internal_Hbond>
0.0000

> <Gold.Chemscore.DEClash>
1.3678

> <Gold.Chemscore.DEInternal>
1.8072

> <Gold.Chemscore.Rot>
1.7086

> <Gold.Chemscore.Internal.Correction>
   9.000000E+99

> <Gold.Chemscore.Hbonds>
donor molecule, donor type, donor heavy atom, donor atom, acceptor molecule, acceptor atom, score
      P1  H 11000 11005       L1    13  0.62

> <Gold.Chemscore.Hbond.Weighted>
-2.9203

> <Gold.Chemscore.Metal.Weighted>
-0.0000

> <Gold.Chemscore.Lipo.Weighted>
-6.8424

> <Gold.Chemscore.Internal_Hbond.Weighted>
0.0000

> <Gold.Chemscore.DEClash.Weighted>
1.3678

> <Gold.Chemscore.DEInternal.Weighted>
1.8072

> <Gold.Chemscore.Rot.Weighted>
4.3739

> <Gold.Chemscore.Internal.Correction.Weighted>
   9.000000E+99

> <Gold.Protein.RotatedTorsions>
[ 6907 6896 6895 6894 ] final -157.48 input  -60.11 | X-H torsion
[ 7974 7965 7964 7962 ] final -167.29 input  175.53 | X-H torsion
[ 8008 7997 7996 7995 ] final   56.80 input   59.86 | X-H torsion
[ 10167 10162 10161 10158 ] final -148.65 input  -65.29 | X-H torsion
[ 10718 10713 10712 10709 ] final   39.90 input   66.30 | X-H torsion
[ 10763 10752 10751 10750 ] final   56.33 input  -60.55 | X-H torsion
[ 11005 11000 10999 10996 ] final   60.32 input  -57.11 | X-H torsion

> <Gold.Protein.ActiveResidues>
 VAL166  LYS551  ARG553  GLY616  TRP617  ASP618  TYR619  PRO620  LYS621  CYS622 
 ASP623  PHE694  ASN695  SER759  ASP760  ASP761  ALA762  ILE779  LEU786  VAL792 
 PHE793  MET794  SER795  GLU796  ALA797  LYS798  CYS799  TRP800  GLU811  SER814 

> <Gold.Protein.RotatedAtoms>
  151.3034  133.4112  159.2641 H   0  0  0  0  0  0  0  0  0  0  0  0  # atno 6907 bound_to 6896
  151.0175  134.9445  159.8052 H   0  0  0  0  0  0  0  0  0  0  0  0  # atno 6908 bound_to 6896
  152.5316  134.2998  159.9126 H   0  0  0  0  0  0  0  0  0  0  0  0  # atno 6909 bound_to 6896
  144.7226  140.2540  143.6274 H   0  0  0  0  0  0  0  0  0  0  0  0  # atno 7974 bound_to 7965
  155.5233  140.3480  155.4411 H   0  0  0  0  0  0  0  0  0  0  0  0  # atno 8008 bound_to 7997
  156.0769  140.1377  156.9787 H   0  0  0  0  0  0  0  0  0  0  0  0  # atno 8009 bound_to 7997
  154.4558  140.0954  156.6729 H   0  0  0  0  0  0  0  0  0  0  0  0  # atno 8010 bound_to 7997
  139.7512  143.8515  152.2587 H   0  0  0  0  0  0  0  0  0  0  0  0  # atno 10167 bound_to 10162
  157.3759  130.7727  149.7155 H   0  0  0  0  0  0  0  0  0  0  0  0  # atno 10718 bound_to 10713
  152.9830  135.5680  154.5211 H   0  0  0  0  0  0  0  0  0  0  0  0  # atno 10763 bound_to 10752
  154.4699  135.2784  155.1653 H   0  0  0  0  0  0  0  0  0  0  0  0  # atno 10764 bound_to 10752
  154.3205  135.6270  153.5559 H   0  0  0  0  0  0  0  0  0  0  0  0  # atno 10765 bound_to 10752
  140.0240  134.6110  155.9599 H   0  0  0  0  0  0  0  0  0  0  0  0  # atno 11005 bound_to 11000
  145.8200  139.2039  143.1943 LP  0  0  0  0  0  0  0  0  0  0  0  0  # atno 17320 bound_to 7965
  146.0522  140.8057  142.9776 LP  0  0  0  0  0  0  0  0  0  0  0  0  # atno 17321 bound_to 7965
  139.8494  144.7172  150.9233 LP  0  0  0  0  0  0  0  0  0  0  0  0  # atno 17342 bound_to 10162
  140.7798  143.3912  151.1306 LP  0  0  0  0  0  0  0  0  0  0  0  0  # atno 17343 bound_to 10162
  155.9765  130.4074  150.3773 LP  0  0  0  0  0  0  0  0  0  0  0  0  # atno 17370 bound_to 10713
  157.1871  131.0406  151.2719 LP  0  0  0  0  0  0  0  0  0  0  0  0  # atno 17371 bound_to 10713
  141.1791  133.6544  156.4949 LP  0  0  0  0  0  0  0  0  0  0  0  0  # atno 17394 bound_to 11000
  140.4338  134.7078  157.4956 LP  0  0  0  0  0  0  0  0  0  0  0  0  # atno 17395 bound_to 11000

$$$$
