AV-unprocessed.smi:2657|AV-procd|sdf|10307|dock3
  -GOLD-   2272014323D 1   1.00000     0.00000
 Structure written by MMmdl.
 46 48  0  0  0  0  0  0  0  0  1 V2000
  146.0529  138.1504  154.5225 O   0  0  0  0  0  0  0  0  0  0  0  0
  146.9444  137.7104  153.7973 C   0  0  0  0  0  0  0  0  0  0  0  0
  146.7149  136.8769  152.7729 N   0  0  0  0  0  0  0  0  0  0  0  0
  145.3968  136.4137  152.3557 C   0  0  0  0  0  0  0  0  0  0  0  0
  145.4352  135.7806  150.9494 C   0  0  0  0  0  0  0  0  0  0  0  0
  145.2014  134.3323  150.9847 N   0  0  0  0  0  0  0  0  0  0  0  0
  144.4419  133.6727  150.0983 C   0  0  0  0  0  0  0  0  0  0  0  0
  143.8529  134.1623  149.1350 O   0  0  0  0  0  0  0  0  0  0  0  0
  144.3773  132.1884  150.4307 C   0  0  0  0  0  0  0  0  0  0  0  0
  145.2517  132.0758  151.6831 C   0  0  0  0  0  0  0  0  0  0  0  0
  145.7007  133.5112  151.9193 C   0  0  0  0  0  0  0  0  0  0  0  0
  146.4237  133.8348  152.8611 O   0  0  0  0  0  0  0  0  0  0  0  0
  148.2538  137.9954  153.9029 N   0  0  0  0  0  0  0  0  0  0  0  0
  148.9199  138.8701  154.8057 C   0  0  0  0  0  0  0  0  0  0  0  0
  148.4970  139.1548  156.1257 C   0  0  0  0  0  0  0  0  0  0  0  0
  149.2583  140.0424  156.9098 C   0  0  0  0  0  0  0  0  0  0  0  0
  150.4275  140.6237  156.3653 C   0  0  0  0  0  0  0  0  0  0  0  0
  151.2050  141.5158  157.1358 N   0  0  0  0  0  0  0  0  0  0  0  0
  151.6944  141.0552  158.4341 C   0  0  0  0  0  0  0  0  0  0  0  0
  152.7491  142.0287  158.9867 C   0  0  0  0  0  0  0  0  0  0  0  0
  152.2070  143.3438  159.0388 O   0  0  0  0  0  0  0  0  0  0  0  0
  151.8403  143.8159  157.7467 C   0  0  0  0  0  0  0  0  0  0  0  0
  150.7548  142.9057  157.1467 C   0  0  0  0  0  0  0  0  0  0  0  0
  150.8287  140.3496  155.1002 N   0  0  0  0  0  0  0  0  0  0  0  0
  150.0968  139.4984  154.3519 C   0  0  0  0  0  0  0  0  0  0  0  0
  147.5035  136.5612  152.2274 H   0  0  0  0  0  0  0  0  0  0  0  0
  145.1005  135.6493  153.0743 H   0  0  0  0  0  0  0  0  0  0  0  0
  144.6453  137.2014  152.4348 H   0  0  0  0  0  0  0  0  0  0  0  0
  144.7407  136.2845  150.2745 H   0  0  0  0  0  0  0  0  0  0  0  0
  146.4220  135.9505  150.5153 H   0  0  0  0  0  0  0  0  0  0  0  0
  143.3476  131.8874  150.6264 H   0  0  0  0  0  0  0  0  0  0  0  0
  144.7685  131.5932  149.6051 H   0  0  0  0  0  0  0  0  0  0  0  0
  144.6893  131.7054  152.5406 H   0  0  0  0  0  0  0  0  0  0  0  0
  146.1138  131.4280  151.5202 H   0  0  0  0  0  0  0  0  0  0  0  0
  148.8514  137.5582  153.2165 H   0  0  0  0  0  0  0  0  0  0  0  0
  147.6134  138.7185  156.5617 H   0  0  0  0  0  0  0  0  0  0  0  0
  148.9283  140.2753  157.9111 H   0  0  0  0  0  0  0  0  0  0  0  0
  150.8571  140.9783  159.1293 H   0  0  0  0  0  0  0  0  0  0  0  0
  152.1349  140.0616  158.3416 H   0  0  0  0  0  0  0  0  0  0  0  0
  153.0481  141.7274  159.9908 H   0  0  0  0  0  0  0  0  0  0  0  0
  153.6492  142.0181  158.3698 H   0  0  0  0  0  0  0  0  0  0  0  0
  151.4669  144.8362  157.8347 H   0  0  0  0  0  0  0  0  0  0  0  0
  152.7178  143.8530  157.0992 H   0  0  0  0  0  0  0  0  0  0  0  0
  150.5098  143.2606  156.1468 H   0  0  0  0  0  0  0  0  0  0  0  0
  149.8419  142.9742  157.7397 H   0  0  0  0  0  0  0  0  0  0  0  0
  150.4651  139.3158  153.3530 H   0  0  0  0  0  0  0  0  0  0  0  0
  1  2  2  0  0  0  0
  2  3  1  0  0  0  0
  2 13  1  0  0  0  0
  3  4  1  0  0  0  0
  3 26  1  0  0  0  0
  4  5  1  0  0  0  0
  4 27  1  0  0  0  0
  4 28  1  0  0  0  0
  5  6  1  0  0  0  0
  5 29  1  0  0  0  0
  5 30  1  0  0  0  0
  6 11  1  0  0  0  0
  6  7  1  0  0  0  0
  7  8  2  0  0  0  0
  7  9  1  0  0  0  0
  9 10  1  0  0  0  0
  9 31  1  0  0  0  0
  9 32  1  0  0  0  0
 10 11  1  0  0  0  0
 10 33  1  0  0  0  0
 10 34  1  0  0  0  0
 11 12  2  0  0  0  0
 13 14  1  0  0  0  0
 13 35  1  0  0  0  0
 14 25  1  0  0  0  0
 14 15  2  0  0  0  0
 15 16  1  0  0  0  0
 15 36  1  0  0  0  0
 16 17  2  0  0  0  0
 16 37  1  0  0  0  0
 17 18  1  0  0  0  0
 17 24  1  0  0  0  0
 18 23  1  0  0  0  0
 18 19  1  0  0  0  0
 19 20  1  0  0  0  0
 19 38  1  0  0  0  0
 19 39  1  0  0  0  0
 20 21  1  0  0  0  0
 20 40  1  0  0  0  0
 20 41  1  0  0  0  0
 21 22  1  0  0  0  0
 22 23  1  0  0  0  0
 22 42  1  0  0  0  0
 22 43  1  0  0  0  0
 23 44  1  0  0  0  0
 23 45  1  0  0  0  0
 24 25  2  0  0  0  0
 25 46  1  0  0  0  0
M  END
> <s_m_source_file>
AV-unprocessed.smi

> <i_m_source_file_index>
2657

> <i_lp_mmshare_version>
43012

> <i_f3d_flags>
0

> <s_epik_input>
Tz1DMVtDSDJdW0NIMl1DKD1PKU4xW0NIMl1bQ0gyXVtOSF1DKD1PKVtOSF1jMltjSF1bY0hdYyhuW2NIXTIpTjNbQ0gyXVtDSDJdT1tDSDJdW0NIMl0z

> <s_epik_cmdline>
J2VwaWtfcHl0aG9uJywgJy1waCcsICc3LjAnLCAnLXRuJywgJzgnLCAnLW1hJywgJzIwMCcsICctbWV0YWxfYmluZGluZycsICctaW1hZScsICc8aW5maWxlLm1hZT4nLCAnLW9tYWUnLCAnPG91dGZpbGUubWFlPic=

> <r_lp_tautomer_probability>
1

> <r_epik_Ionization_Penalty>
0.00195667

> <r_epik_Ionization_Penalty_Charging>
0

> <r_epik_Ionization_Penalty_Neutral>
0.00195667

> <r_epik_State_Penalty>
0.0013118

> <r_epik_Charging_Adjusted_Penalty>
0.0013118

> <i_epik_Tot_Q>
0

> <i_epik_Tot_abs_Q>
0

> <r_epik_Metal_State_Penalty>
-0

> <b_epik_Metal_Only>
0

> <s_lp_Force_Field>
OPLS_2005

> <r_lp_Energy>
27.686

> <b_lp_Chiralities_Consistent>
1

> <s_lp_Variant>
AV-unprocessed.smi:2657-1

> <Gold.Version>
5.8.1

> <Gold.Id.Protein>
6NUR|6NUR_protein|mol2

> <Gold.PLP.Fitness>
42.7350

> <Gold.PLP.PLP>
-34.9056

> <Gold.PLP.part.hbond>
-2.9582

> <Gold.PLP.part.metal>
0.0000

> <Gold.PLP.part.buried>
-6.4605

> <Gold.PLP.part.nonpolar>
-29.0571

> <Gold.PLP.part.repulsive>
3.4429

> <Gold.PLP.ligand.clash>
0.0000

> <Gold.PLP.ligand.torsion>
1.2770

> <Gold.PLP.Chemscore.Hbond>
2.3440

> <Gold.PLP.Chemscore.CHOScore>
1.0000

> <Gold.PLP.Chemscore.Metal>
0.0000

> <Gold.Chemscore.Hbonds>
donor molecule, donor type, donor heavy atom, donor atom, acceptor molecule, acceptor atom, score
      L1  H     3    26       P1  7948  0.98
      L1  H    13    35       P1  7948  0.93
      P1  H  7989  7998       L1    24  0.35
      L1  C    25    46       P1  7957  1.00

> <Gold.PLP.Chemscore.Internal.Correction>
0.3515

> <Gold.Rescore>
     Score         DG    S(hbond)    S(metal)    S(lipo)     H(rot)  DE(clash)    DE(int)     intcor
     11.08     -16.82       2.06        0.00      81.26       1.97       2.97       2.77       ----

> <Gold.Chemscore.Fitness>
11.0824

> <Gold.Chemscore.DG>
-16.8193

> <Gold.Chemscore.ZeroCoef>
-5.4800

> <Gold.Chemscore.Hbond>
2.0616

> <Gold.Chemscore.Metal>
0.0000

> <Gold.Chemscore.Lipo>
81.2609

> <Gold.Chemscore.Internal_Hbond>
0.0000

> <Gold.Chemscore.DEClash>
2.9662

> <Gold.Chemscore.DEInternal>
2.7707

> <Gold.Chemscore.Rot>
1.9742

> <Gold.Chemscore.Internal.Correction>
   9.000000E+99

> <Gold.Chemscore.Hbonds>
donor molecule, donor type, donor heavy atom, donor atom, acceptor molecule, acceptor atom, score
      L1  H     3    26       P1  7948  0.91
      L1  H    13    35       P1  7948  0.89
      P1  H  7989  7998       L1    24  0.01

> <Gold.Chemscore.Hbond.Weighted>
-6.8858

> <Gold.Chemscore.Metal.Weighted>
-0.0000

> <Gold.Chemscore.Lipo.Weighted>
-9.5075

> <Gold.Chemscore.Internal_Hbond.Weighted>
0.0000

> <Gold.Chemscore.DEClash.Weighted>
2.9662

> <Gold.Chemscore.DEInternal.Weighted>
2.7707

> <Gold.Chemscore.Rot.Weighted>
5.0540

> <Gold.Chemscore.Internal.Correction.Weighted>
   9.000000E+99

> <Gold.Protein.RotatedTorsions>
[ 6907 6896 6895 6894 ] final  134.65 input  -60.11 | X-H torsion
[ 7974 7965 7964 7962 ] final -157.71 input  175.53 | X-H torsion
[ 8008 7997 7996 7995 ] final -104.43 input   59.86 | X-H torsion
[ 10167 10162 10161 10158 ] final   61.30 input  -65.29 | X-H torsion
[ 10718 10713 10712 10709 ] final   67.97 input   66.30 | X-H torsion
[ 10763 10752 10751 10750 ] final   85.18 input  -60.55 | X-H torsion
[ 11005 11000 10999 10996 ] final   63.08 input  -57.11 | X-H torsion

> <Gold.Protein.ActiveResidues>
 VAL166  LYS551  ARG553  GLY616  TRP617  ASP618  TYR619  PRO620  LYS621  CYS622 
 ASP623  PHE694  ASN695  SER759  ASP760  ASP761  ALA762  ILE779  LEU786  VAL792 
 PHE793  MET794  SER795  GLU796  ALA797  LYS798  CYS799  TRP800  GLU811  SER814 

> <Gold.Protein.RotatedAtoms>
  152.3090  133.5733  159.5668 H   0  0  0  0  0  0  0  0  0  0  0  0  # atno 6907 bound_to 6896
  150.7314  134.0180  159.3700 H   0  0  0  0  0  0  0  0  0  0  0  0  # atno 6908 bound_to 6896
  151.8074  135.0691  160.0459 H   0  0  0  0  0  0  0  0  0  0  0  0  # atno 6909 bound_to 6896
  144.7536  140.3930  143.6029 H   0  0  0  0  0  0  0  0  0  0  0  0  # atno 7974 bound_to 7965
  154.8852  140.0418  157.1806 H   0  0  0  0  0  0  0  0  0  0  0  0  # atno 8008 bound_to 7997
  154.8598  140.2942  155.5525 H   0  0  0  0  0  0  0  0  0  0  0  0  # atno 8009 bound_to 7997
  156.2998  140.2449  156.3570 H   0  0  0  0  0  0  0  0  0  0  0  0  # atno 8010 bound_to 7997
  140.1563  144.4414  150.6732 H   0  0  0  0  0  0  0  0  0  0  0  0  # atno 10167 bound_to 10162
  157.6262  130.9349  150.0315 H   0  0  0  0  0  0  0  0  0  0  0  0  # atno 10718 bound_to 10713
  153.1450  135.4627  154.9553 H   0  0  0  0  0  0  0  0  0  0  0  0  # atno 10763 bound_to 10752
  154.7779  135.3179  154.8055 H   0  0  0  0  0  0  0  0  0  0  0  0  # atno 10764 bound_to 10752
  153.8571  135.6916  153.4840 H   0  0  0  0  0  0  0  0  0  0  0  0  # atno 10765 bound_to 10752
  140.0048  134.6386  155.9872 H   0  0  0  0  0  0  0  0  0  0  0  0  # atno 11005 bound_to 11000
  145.6856  139.1628  143.2676 LP  0  0  0  0  0  0  0  0  0  0  0  0  # atno 17320 bound_to 7965
  146.1519  140.6913  142.9318 LP  0  0  0  0  0  0  0  0  0  0  0  0  # atno 17321 bound_to 7965
  140.6671  143.2272  151.5716 LP  0  0  0  0  0  0  0  0  0  0  0  0  # atno 17342 bound_to 10162
  139.5402  144.2669  152.1335 LP  0  0  0  0  0  0  0  0  0  0  0  0  # atno 17343 bound_to 10162
  156.1436  130.3642  149.9545 LP  0  0  0  0  0  0  0  0  0  0  0  0  # atno 17370 bound_to 10713
  156.7580  130.9140  151.3640 LP  0  0  0  0  0  0  0  0  0  0  0  0  # atno 17371 bound_to 10713
  141.1669  133.6537  156.4511 LP  0  0  0  0  0  0  0  0  0  0  0  0  # atno 17394 bound_to 11000
  140.4661  134.6797  157.5108 LP  0  0  0  0  0  0  0  0  0  0  0  0  # atno 17395 bound_to 11000

$$$$
