AV-unprocessed.smi:72|AV-procd|sdf|748|dock1
  -GOLD-   2262017 83D 1   1.00000     0.00000
 Structure written by MMmdl.
 29 30  0  0  0  0  0  0  0  0  1 V2000
  154.5149  138.8239  160.4007 N   0  0  0  0  0  0  0  0  0  0  0  0
  153.4523  138.6655  159.5356 C   0  0  0  0  0  0  0  0  0  0  0  0
  153.4919  139.4196  158.3549 N   0  0  0  0  0  0  0  0  0  0  0  0
  152.4949  139.2761  157.5400 C   0  0  0  0  0  0  0  0  0  0  0  0
  151.3963  138.3741  157.8432 N   0  0  0  0  0  0  0  0  0  0  0  0
  150.2119  138.1858  156.9098 C   0  0  1  0  0  0  0  0  0  0  0  0
  149.7180  139.4297  156.5027 O   0  0  0  0  0  0  0  0  0  0  0  0
  150.0340  139.6610  155.1330 C   0  0  2  0  0  0  0  0  0  0  0  0
  149.0815  140.6954  154.5086 C   0  0  0  0  0  0  0  0  0  0  0  0
  149.6891  141.2994  153.3865 O   0  0  0  0  0  0  0  0  0  0  0  0
  149.9744  138.2539  154.5255 C   0  0  2  0  0  0  0  0  0  0  0  0
  148.6388  137.8716  154.2478 O   0  0  0  0  0  0  0  0  0  0  0  0
  150.5581  137.3837  155.6309 C   0  0  1  0  0  0  0  0  0  0  0  0
  151.9491  137.2144  155.4170 O   0  0  0  0  0  0  0  0  0  0  0  0
  151.4241  137.6380  159.0595 C   0  0  0  0  0  0  0  0  0  0  0  0
  150.5089  136.8605  159.3308 O   0  0  0  0  0  0  0  0  0  0  0  0
  152.5227  137.8321  159.9049 N   0  0  0  0  0  0  0  0  0  0  0  0
  149.4367  137.7134  157.5150 H   0  0  0  0  0  0  0  0  0  0  0  0
  151.0647  140.0129  155.0596 H   0  0  0  0  0  0  0  0  0  0  0  0
  150.5413  138.1882  153.5956 H   0  0  0  0  0  0  0  0  0  0  0  0
  150.0940  136.3974  155.6763 H   0  0  0  0  0  0  0  0  0  0  0  0
  154.5928  138.3325  161.2793 H   0  0  0  0  0  0  0  0  0  0  0  0
  155.2941  139.4398  160.2189 H   0  0  0  0  0  0  0  0  0  0  0  0
  152.4232  139.8145  156.5952 H   0  0  0  0  0  0  0  0  0  0  0  0
  148.1713  140.2057  154.1610 H   0  0  0  0  0  0  0  0  0  0  0  0
  148.7876  141.4550  155.2334 H   0  0  0  0  0  0  0  0  0  0  0  0
  149.7063  140.6727  152.6794 H   0  0  0  0  0  0  0  0  0  0  0  0
  148.6168  137.4473  153.4038 H   0  0  0  0  0  0  0  0  0  0  0  0
  152.2687  137.9583  154.9295 H   0  0  0  0  0  0  0  0  0  0  0  0
  1  2  1  0  0  0  0
  1 22  1  0  0  0  0
  1 23  1  0  0  0  0
  2 17  2  0  0  0  0
  2  3  1  0  0  0  0
  3  4  2  0  0  0  0
  4  5  1  0  0  0  0
  4 24  1  0  0  0  0
  5  6  1  0  0  0  0
  5 15  1  0  0  0  0
  6 18  1  0  0  0  0
  6 13  1  0  0  0  0
  6  7  1  0  0  0  0
  7  8  1  0  0  0  0
  8 19  1  0  0  0  0
  8  9  1  0  0  0  0
  8 11  1  0  0  0  0
  9 10  1  0  0  0  0
  9 25  1  0  0  0  0
  9 26  1  0  0  0  0
 10 27  1  0  0  0  0
 11 20  1  0  0  0  0
 11 12  1  0  0  0  0
 11 13  1  0  0  0  0
 12 28  1  0  0  0  0
 13 21  1  0  0  0  0
 13 14  1  0  0  0  0
 14 29  1  0  0  0  0
 15 16  2  0  0  0  0
 15 17  1  0  0  0  0
M  END
> <s_m_source_file>
AV-unprocessed.smi

> <i_m_source_file_index>
72

> <i_lp_mmshare_version>
43012

> <i_f3d_flags>
0

> <s_epik_input>
W05IMl1jMW5bY0hdbihjKD1PKW4xKVtDQEBIXTJPW0NASF0oW0NIMl1bT0hdKVtDQEBIXShbT0hdKVtDQEhdMltPSF0=

> <s_epik_cmdline>
J2VwaWtfcHl0aG9uJywgJy1waCcsICc3LjAnLCAnLXRuJywgJzgnLCAnLW1hJywgJzIwMCcsICctbWV0YWxfYmluZGluZycsICctaW1hZScsICc8aW5maWxlLm1hZT4nLCAnLW9tYWUnLCAnPG91dGZpbGUubWFlPic=

> <r_lp_tautomer_probability>
4.77166e-05

> <r_epik_Ionization_Penalty>
1.3546

> <r_epik_Ionization_Penalty_Charging>
1.46833e-10

> <r_epik_Ionization_Penalty_Neutral>
1.3546

> <r_epik_State_Penalty>
3.51908

> <r_epik_Charging_Adjusted_Penalty>
3.51908

> <i_epik_Tot_Q>
0

> <i_epik_Tot_abs_Q>
0

> <r_epik_Metal_State_Penalty>
3.44088

> <b_epik_Metal_Only>
1

> <s_epik_Chemistry_Notes>
This compound contains an acetal/aminal-like group ( X-CH(R)-Y where X, Y are N, S, or O) that may be acid/base labile, releasing an aldehyde.

> <s_lp_Force_Field>
OPLS_2005

> <r_lp_Energy>
33.7939

> <b_lp_Chiralities_Consistent>
1

> <s_lp_Variant>
AV-unprocessed.smi:72-86

> <Gold.Version>
5.8.1

> <Gold.Id.Protein>
6NUR|6NUR_protein|mol2

> <Gold.PLP.Fitness>
37.3944

> <Gold.PLP.PLP>
-20.7823

> <Gold.PLP.part.hbond>
-6.5329

> <Gold.PLP.part.metal>
0.0000

> <Gold.PLP.part.buried>
-3.4643

> <Gold.PLP.part.nonpolar>
-10.6202

> <Gold.PLP.part.repulsive>
0.0438

> <Gold.PLP.ligand.clash>
0.0000

> <Gold.PLP.ligand.torsion>
0.5435

> <Gold.PLP.Chemscore.Hbond>
5.8853

> <Gold.PLP.Chemscore.CHOScore>
0.0000

> <Gold.PLP.Chemscore.Metal>
0.0000

> <Gold.Chemscore.Hbonds>
donor molecule, donor type, donor heavy atom, donor atom, acceptor molecule, acceptor atom, score
      L1  H    10    27       P1  7957  1.00
      L1  H    12    28       P1  7948  1.00
      P1  H  6896  6908       L1    16  1.00
      P1  H  7989  7998       L1    10  0.01
      P1  H  7997  8008       L1     3  0.85
      P1  H  8011  8017       L1    10  0.40
      P1  H 10752 10764       L1    14  0.89

> <Gold.PLP.Chemscore.Internal.Correction>
0.0434

> <Gold.Rescore>
     Score         DG    S(hbond)    S(metal)    S(lipo)     H(rot)  DE(clash)    DE(int)     intcor
     11.89     -13.59       4.76        0.00      22.26       4.06       0.01       1.68       ----

> <Gold.Chemscore.Fitness>
11.8930

> <Gold.Chemscore.DG>
-13.5863

> <Gold.Chemscore.ZeroCoef>
-5.4800

> <Gold.Chemscore.Hbond>
4.7593

> <Gold.Chemscore.Metal>
0.0000

> <Gold.Chemscore.Lipo>
22.2552

> <Gold.Chemscore.Internal_Hbond>
0.0000

> <Gold.Chemscore.DEClash>
0.0149

> <Gold.Chemscore.DEInternal>
1.6784

> <Gold.Chemscore.Rot>
4.0600

> <Gold.Chemscore.Internal.Correction>
   9.000000E+99

> <Gold.Chemscore.Hbonds>
donor molecule, donor type, donor heavy atom, donor atom, acceptor molecule, acceptor atom, score
      L1  H    10    27       P1  7957  0.99
      L1  H    12    28       P1  7948  0.97
      P1  H  6896  6908       L1    16  0.81
      P1  H  7997  8008       L1     3  0.15
      P1  H  8011  8017       L1    10  0.01
      P1  H 10752 10764       L1    14  0.49

> <Gold.Chemscore.Hbond.Weighted>
-15.8960

> <Gold.Chemscore.Metal.Weighted>
-0.0000

> <Gold.Chemscore.Lipo.Weighted>
-2.6039

> <Gold.Chemscore.Internal_Hbond.Weighted>
0.0000

> <Gold.Chemscore.DEClash.Weighted>
0.0149

> <Gold.Chemscore.DEInternal.Weighted>
1.6784

> <Gold.Chemscore.Rot.Weighted>
10.3936

> <Gold.Chemscore.Internal.Correction.Weighted>
   9.000000E+99

> <Gold.Protein.RotatedTorsions>
[ 6907 6896 6895 6894 ] final -143.94 input  -60.11 | X-H torsion
[ 7974 7965 7964 7962 ] final  159.52 input  175.53 | X-H torsion
[ 8008 7997 7996 7995 ] final  -94.59 input   59.86 | X-H torsion
[ 10167 10162 10161 10158 ] final  135.63 input  -65.29 | X-H torsion
[ 10718 10713 10712 10709 ] final  118.25 input   66.30 | X-H torsion
[ 10763 10752 10751 10750 ] final  -49.44 input  -60.55 | X-H torsion
[ 11005 11000 10999 10996 ] final  148.83 input  -57.11 | X-H torsion

> <Gold.Protein.ActiveResidues>
 VAL166  LYS551  ARG553  GLY616  TRP617  ASP618  TYR619  PRO620  LYS621  CYS622 
 ASP623  PHE694  ASN695  SER759  ASP760  ASP761  ALA762  ILE779  LEU786  VAL792 
 PHE793  MET794  SER795  GLU796  ALA797  LYS798  CYS799  TRP800  GLU811  SER814 

> <Gold.Protein.RotatedAtoms>
  151.1072  133.5199  159.2607 H   0  0  0  0  0  0  0  0  0  0  0  0  # atno 6907 bound_to 6896
  151.2007  135.0441  159.8881 H   0  0  0  0  0  0  0  0  0  0  0  0  # atno 6908 bound_to 6896
  152.5447  134.0901  159.8326 H   0  0  0  0  0  0  0  0  0  0  0  0  # atno 6909 bound_to 6896
  144.7786  139.7628  143.6269 H   0  0  0  0  0  0  0  0  0  0  0  0  # atno 7974 bound_to 7965
  154.7503  140.0488  157.0888 H   0  0  0  0  0  0  0  0  0  0  0  0  # atno 8008 bound_to 7997
  155.0065  140.3131  155.4827 H   0  0  0  0  0  0  0  0  0  0  0  0  # atno 8009 bound_to 7997
  156.2884  140.2192  156.5177 H   0  0  0  0  0  0  0  0  0  0  0  0  # atno 8010 bound_to 7997
  139.5210  144.6507  151.5311 H   0  0  0  0  0  0  0  0  0  0  0  0  # atno 10167 bound_to 10162
  157.6043  131.1046  150.7729 H   0  0  0  0  0  0  0  0  0  0  0  0  # atno 10718 bound_to 10713
  154.0941  135.6573  153.4857 H   0  0  0  0  0  0  0  0  0  0  0  0  # atno 10763 bound_to 10752
  153.0311  135.5209  154.7351 H   0  0  0  0  0  0  0  0  0  0  0  0  # atno 10764 bound_to 10752
  154.6484  135.2998  154.9986 H   0  0  0  0  0  0  0  0  0  0  0  0  # atno 10765 bound_to 10752
  140.0993  134.8993  157.1771 H   0  0  0  0  0  0  0  0  0  0  0  0  # atno 11005 bound_to 11000
  146.1981  139.5259  142.9761 LP  0  0  0  0  0  0  0  0  0  0  0  0  # atno 17320 bound_to 7965
  145.6115  141.0339  143.1964 LP  0  0  0  0  0  0  0  0  0  0  0  0  # atno 17321 bound_to 7965
  140.6310  143.9076  150.6606 LP  0  0  0  0  0  0  0  0  0  0  0  0  # atno 17342 bound_to 10162
  140.2380  143.3685  152.1511 LP  0  0  0  0  0  0  0  0  0  0  0  0  # atno 17343 bound_to 10162
  156.8121  130.4956  149.5354 LP  0  0  0  0  0  0  0  0  0  0  0  0  # atno 17370 bound_to 10713
  156.1124  130.6050  151.0068 LP  0  0  0  0  0  0  0  0  0  0  0  0  # atno 17371 bound_to 10713
  140.3243  134.2881  155.7240 LP  0  0  0  0  0  0  0  0  0  0  0  0  # atno 17394 bound_to 11000
  141.2101  133.7729  156.9954 LP  0  0  0  0  0  0  0  0  0  0  0  0  # atno 17395 bound_to 11000

$$$$
