AV-unprocessed.smi:148|AV-procd|sdf|1217|dock2
  -GOLD-   2262018403D 1   1.00000     0.00000
 Structure written by MMmdl.
 63 67  0  0  0  0  0  0  0  0  1 V2000
  150.6576  140.5654  155.0961 O   0  0  0  0  0  0  0  0  0  0  0  0
  151.0419  141.5503  156.0325 C   0  0  0  0  0  0  0  0  0  0  0  0
  150.9806  141.0232  157.4866 C   0  0  1  0  0  0  0  0  0  0  0  0
  151.7966  139.7100  157.6269 C   0  0  0  0  0  0  0  0  0  0  0  0
  151.0163  138.5636  158.0745 N   0  0  0  0  0  0  0  0  0  0  0  0
  151.4521  137.5405  158.8886 C   0  0  0  0  0  0  0  0  0  0  0  0
  150.5658  136.6214  159.1578 N   0  0  0  0  0  0  0  0  0  0  0  0
  149.4386  137.0307  158.4594 C   0  0  0  0  0  0  0  0  0  0  0  0
  148.1322  136.4994  158.3025 C   0  0  0  0  0  0  0  0  0  0  0  0
  147.7456  135.3606  158.9240 N   0  0  0  0  0  0  0  0  0  0  0  0
  148.3608  134.2131  158.2569 C   0  0  0  0  0  0  0  0  0  0  0  0
  147.7850  132.8887  158.7703 C   0  0  0  0  0  0  0  0  0  0  0  0
  147.9404  132.8038  160.2907 C   0  0  0  0  0  0  0  0  0  0  0  0
  147.2607  134.0094  160.9523 C   0  0  0  0  0  0  0  0  0  0  0  0
  147.7919  135.3590  160.3991 C   0  0  2  0  0  0  0  0  0  0  0  0
  147.0714  136.5987  161.0190 C   0  0  1  0  0  0  0  0  0  0  0  0
  145.5719  136.7416  160.6937 C   0  0  0  0  0  0  0  0  0  0  0  0
  144.9436  137.5041  161.8721 C   0  0  0  0  0  0  0  0  0  0  0  0
  146.0841  137.7996  162.8520 C   0  0  0  0  0  0  0  0  0  0  0  0
  147.1367  136.7343  162.5474 C   0  0  2  0  0  0  0  0  0  0  0  0
  148.4162  137.1309  162.9959 O   0  0  0  0  0  0  0  0  0  0  0  0
  147.2546  137.1849  157.5228 N   0  0  0  0  0  0  0  0  0  0  0  0
  147.6415  138.3124  156.9189 C   0  0  0  0  0  0  0  0  0  0  0  0
  148.8288  138.9207  156.9683 N   0  0  0  0  0  0  0  0  0  0  0  0
  149.7050  138.2426  157.7635 C   0  0  0  0  0  0  0  0  0  0  0  0
  151.4113  142.0898  158.5315 C   0  0  2  0  0  0  0  0  0  0  0  0
  151.1797  143.5275  158.0938 C   0  0  0  0  0  0  0  0  0  0  0  0
  152.0544  144.3122  159.0659 C   0  0  0  0  0  0  0  0  0  0  0  0
  153.1402  143.4508  159.3890 O   0  0  0  0  0  0  0  0  0  0  0  0
  152.9106  142.1582  158.8393 C   0  0  0  0  0  0  0  0  0  0  0  0
  150.3738  139.7964  155.5666 H   0  0  0  0  0  0  0  0  0  0  0  0
  152.0617  141.8391  155.7777 H   0  0  0  0  0  0  0  0  0  0  0  0
  150.4177  142.4358  155.9084 H   0  0  0  0  0  0  0  0  0  0  0  0
  149.9422  140.7574  157.6913 H   0  0  0  0  0  0  0  0  0  0  0  0
  152.2856  139.4530  156.6874 H   0  0  0  0  0  0  0  0  0  0  0  0
  152.6053  139.8602  158.3432 H   0  0  0  0  0  0  0  0  0  0  0  0
  152.4553  137.4990  159.2869 H   0  0  0  0  0  0  0  0  0  0  0  0
  148.2055  134.2796  157.1786 H   0  0  0  0  0  0  0  0  0  0  0  0
  149.4389  134.2344  158.4239 H   0  0  0  0  0  0  0  0  0  0  0  0
  146.7310  132.8139  158.4995 H   0  0  0  0  0  0  0  0  0  0  0  0
  148.2922  132.0505  158.2922 H   0  0  0  0  0  0  0  0  0  0  0  0
  147.5059  131.8756  160.6628 H   0  0  0  0  0  0  0  0  0  0  0  0
  148.9984  132.7832  160.5551 H   0  0  0  0  0  0  0  0  0  0  0  0
  146.1854  133.9275  160.7989 H   0  0  0  0  0  0  0  0  0  0  0  0
  147.4258  133.9420  162.0265 H   0  0  0  0  0  0  0  0  0  0  0  0
  148.8441  135.4204  160.6810 H   0  0  0  0  0  0  0  0  0  0  0  0
  147.5489  137.5004  160.6325 H   0  0  0  0  0  0  0  0  0  0  0  0
  145.4262  137.2730  159.7528 H   0  0  0  0  0  0  0  0  0  0  0  0
  145.0833  135.7743  160.5883 H   0  0  0  0  0  0  0  0  0  0  0  0
  144.4489  138.4203  161.5482 H   0  0  0  0  0  0  0  0  0  0  0  0
  144.1900  136.8796  162.3536 H   0  0  0  0  0  0  0  0  0  0  0  0
  146.4867  138.7926  162.6454 H   0  0  0  0  0  0  0  0  0  0  0  0
  145.7591  137.7849  163.8928 H   0  0  0  0  0  0  0  0  0  0  0  0
  146.8467  135.8102  163.0456 H   0  0  0  0  0  0  0  0  0  0  0  0
  148.9906  136.3811  162.9666 H   0  0  0  0  0  0  0  0  0  0  0  0
  146.8931  138.7976  156.3098 H   0  0  0  0  0  0  0  0  0  0  0  0
  150.8851  141.9172  159.4713 H   0  0  0  0  0  0  0  0  0  0  0  0
  151.5359  143.6746  157.0731 H   0  0  0  0  0  0  0  0  0  0  0  0
  150.1377  143.8407  158.1323 H   0  0  0  0  0  0  0  0  0  0  0  0
  152.4037  145.2542  158.6429 H   0  0  0  0  0  0  0  0  0  0  0  0
  151.5033  144.5340  159.9806 H   0  0  0  0  0  0  0  0  0  0  0  0
  153.2342  141.3796  159.5304 H   0  0  0  0  0  0  0  0  0  0  0  0
  153.4983  142.0683  157.9245 H   0  0  0  0  0  0  0  0  0  0  0  0
  1  2  1  0  0  0  0
  1 31  1  0  0  0  0
  2  3  1  0  0  0  0
  2 32  1  0  0  0  0
  2 33  1  0  0  0  0
  3  4  1  0  0  0  0
  3 26  1  0  0  0  0
  3 34  1  0  0  0  0
  4  5  1  0  0  0  0
  4 35  1  0  0  0  0
  4 36  1  0  0  0  0
  5 25  1  0  0  0  0
  5  6  1  0  0  0  0
  6  7  2  0  0  0  0
  6 37  1  0  0  0  0
  7  8  1  0  0  0  0
  8 25  2  0  0  0  0
  8  9  1  0  0  0  0
  9 10  1  0  0  0  0
  9 22  2  0  0  0  0
 10 15  1  0  0  0  0
 10 11  1  0  0  0  0
 11 12  1  0  0  0  0
 11 38  1  0  0  0  0
 11 39  1  0  0  0  0
 12 13  1  0  0  0  0
 12 40  1  0  0  0  0
 12 41  1  0  0  0  0
 13 14  1  0  0  0  0
 13 42  1  0  0  0  0
 13 43  1  0  0  0  0
 14 15  1  0  0  0  0
 14 44  1  0  0  0  0
 14 45  1  0  0  0  0
 15 16  1  0  0  0  0
 15 46  1  0  0  0  0
 16 20  1  0  0  0  0
 16 17  1  0  0  0  0
 16 47  1  0  0  0  0
 17 18  1  0  0  0  0
 17 48  1  0  0  0  0
 17 49  1  0  0  0  0
 18 19  1  0  0  0  0
 18 50  1  0  0  0  0
 18 51  1  0  0  0  0
 19 20  1  0  0  0  0
 19 52  1  0  0  0  0
 19 53  1  0  0  0  0
 20 21  1  0  0  0  0
 20 54  1  0  0  0  0
 21 55  1  0  0  0  0
 22 23  1  0  0  0  0
 23 24  2  0  0  0  0
 23 56  1  0  0  0  0
 24 25  1  0  0  0  0
 26 30  1  0  0  0  0
 26 27  1  0  0  0  0
 26 57  1  0  0  0  0
 27 28  1  0  0  0  0
 27 58  1  0  0  0  0
 27 59  1  0  0  0  0
 28 29  1  0  0  0  0
 28 60  1  0  0  0  0
 28 61  1  0  0  0  0
 29 30  1  0  0  0  0
 30 62  1  0  0  0  0
 30 63  1  0  0  0  0
M  END
> <s_m_source_file>
AV-unprocessed.smi

> <i_m_source_file_index>
148

> <i_lp_mmshare_version>
43012

> <i_f3d_flags>
0

> <s_epik_input>
W0NIMl0xT1tDSDJdW0NIMl1bQ0BIXTFbQ0BIXShbQ0gyXVtPSF0pW0NIMl1uKFtjSF1uMiljKGMyMyluW2NIXW5jM040W0NIMl1bQ0gyXVtDSDJdW0NIMl1bQ0BIXTRbQ0BASF01W0NIMl1bQ0gyXVtDSDJdW0NASF01W09IXQ==

> <s_epik_cmdline>
J2VwaWtfcHl0aG9uJywgJy1waCcsICc3LjAnLCAnLXRuJywgJzgnLCAnLW1hJywgJzIwMCcsICctbWV0YWxfYmluZGluZycsICctaW1hZScsICc8aW5maWxlLm1hZT4nLCAnLW9tYWUnLCAnPG91dGZpbGUubWFlPic=

> <r_lp_tautomer_probability>
1

> <r_epik_Ionization_Penalty>
0.00556303

> <r_epik_Ionization_Penalty_Charging>
0

> <r_epik_Ionization_Penalty_Neutral>
0.00556303

> <r_epik_State_Penalty>
0.00401767

> <r_epik_Charging_Adjusted_Penalty>
0.00401767

> <i_epik_Tot_Q>
0

> <i_epik_Tot_abs_Q>
0

> <r_epik_Metal_State_Penalty>
-0

> <b_epik_Metal_Only>
0

> <s_lp_Force_Field>
OPLS_2005

> <r_lp_Energy>
67.8341

> <b_lp_Chiralities_Consistent>
1

> <s_lp_Variant>
AV-unprocessed.smi:148-16

> <Gold.Version>
5.8.1

> <Gold.Id.Protein>
6NUR|6NUR_protein|mol2

> <Gold.PLP.Fitness>
50.4035

> <Gold.PLP.PLP>
-45.6928

> <Gold.PLP.part.hbond>
-2.8434

> <Gold.PLP.part.metal>
0.0000

> <Gold.PLP.part.buried>
-7.8624

> <Gold.PLP.part.nonpolar>
-33.8259

> <Gold.PLP.part.repulsive>
0.0000

> <Gold.PLP.ligand.clash>
0.0000

> <Gold.PLP.ligand.torsion>
1.9199

> <Gold.PLP.Chemscore.Hbond>
2.6720

> <Gold.PLP.Chemscore.CHOScore>
0.0000

> <Gold.PLP.Chemscore.Metal>
0.0000

> <Gold.Chemscore.Hbonds>
donor molecule, donor type, donor heavy atom, donor atom, acceptor molecule, acceptor atom, score
      P1  H  6896  6907       L1     7  1.00
      P1  H  6931  6943       L1    21  0.70
      P1  H  7989  7998       L1     1  0.98

> <Gold.PLP.Chemscore.Internal.Correction>
0.5345

> <Gold.Rescore>
     Score         DG    S(hbond)    S(metal)    S(lipo)     H(rot)  DE(clash)    DE(int)     intcor
     15.90     -17.79       2.25        0.00     113.60       3.32       0.09       1.80       ----

> <Gold.Chemscore.Fitness>
15.8986

> <Gold.Chemscore.DG>
-17.7894

> <Gold.Chemscore.ZeroCoef>
-5.4800

> <Gold.Chemscore.Hbond>
2.2510

> <Gold.Chemscore.Metal>
0.0000

> <Gold.Chemscore.Lipo>
113.5987

> <Gold.Chemscore.Internal_Hbond>
0.0000

> <Gold.Chemscore.DEClash>
0.0929

> <Gold.Chemscore.DEInternal>
1.7979

> <Gold.Chemscore.Rot>
3.3203

> <Gold.Chemscore.Internal.Correction>
   9.000000E+99

> <Gold.Chemscore.Hbonds>
donor molecule, donor type, donor heavy atom, donor atom, acceptor molecule, acceptor atom, score
      P1  H  6896  6907       L1     7  0.96
      P1  H  6931  6943       L1    21  0.32
      P1  H  7989  7998       L1     1  0.56

> <Gold.Chemscore.Hbond.Weighted>
-7.5184

> <Gold.Chemscore.Metal.Weighted>
-0.0000

> <Gold.Chemscore.Lipo.Weighted>
-13.2910

> <Gold.Chemscore.Internal_Hbond.Weighted>
0.0000

> <Gold.Chemscore.DEClash.Weighted>
0.0929

> <Gold.Chemscore.DEInternal.Weighted>
1.7979

> <Gold.Chemscore.Rot.Weighted>
8.5000

> <Gold.Chemscore.Internal.Correction.Weighted>
   9.000000E+99

> <Gold.Protein.RotatedTorsions>
[ 6907 6896 6895 6894 ] final  -45.90 input  -60.11 | X-H torsion
[ 7974 7965 7964 7962 ] final   31.93 input  175.53 | X-H torsion
[ 8008 7997 7996 7995 ] final  163.18 input   59.86 | X-H torsion
[ 10167 10162 10161 10158 ] final   61.99 input  -65.29 | X-H torsion
[ 10718 10713 10712 10709 ] final -139.99 input   66.30 | X-H torsion
[ 10763 10752 10751 10750 ] final  -71.90 input  -60.55 | X-H torsion
[ 11005 11000 10999 10996 ] final   53.87 input  -57.11 | X-H torsion

> <Gold.Protein.ActiveResidues>
 VAL166  LYS551  ARG553  GLY616  TRP617  ASP618  TYR619  PRO620  LYS621  CYS622 
 ASP623  PHE694  ASN695  SER759  ASP760  ASP761  ALA762  ILE779  LEU786  VAL792 
 PHE793  MET794  SER795  GLU796  ALA797  LYS798  CYS799  TRP800  GLU811  SER814 

> <Gold.Protein.RotatedAtoms>
  150.9170  134.8588  159.7463 H   0  0  0  0  0  0  0  0  0  0  0  0  # atno 6907 bound_to 6896
  152.4973  134.4274  159.9511 H   0  0  0  0  0  0  0  0  0  0  0  0  # atno 6908 bound_to 6896
  151.4312  133.3630  159.2804 H   0  0  0  0  0  0  0  0  0  0  0  0  # atno 6909 bound_to 6896
  146.1519  139.6593  142.9093 H   0  0  0  0  0  0  0  0  0  0  0  0  # atno 7974 bound_to 7965
  156.1976  140.1730  156.7966 H   0  0  0  0  0  0  0  0  0  0  0  0  # atno 8008 bound_to 7997
  154.5550  140.0710  156.8759 H   0  0  0  0  0  0  0  0  0  0  0  0  # atno 8009 bound_to 7997
  155.2957  140.3358  155.4252 H   0  0  0  0  0  0  0  0  0  0  0  0  # atno 8010 bound_to 7997
  140.1487  144.4483  150.6771 H   0  0  0  0  0  0  0  0  0  0  0  0  # atno 10167 bound_to 10162
  156.3171  130.7514  151.1603 H   0  0  0  0  0  0  0  0  0  0  0  0  # atno 10718 bound_to 10713
  154.4383  135.5947  153.6112 H   0  0  0  0  0  0  0  0  0  0  0  0  # atno 10763 bound_to 10752
  152.9803  135.5992  154.3754 H   0  0  0  0  0  0  0  0  0  0  0  0  # atno 10764 bound_to 10752
  154.3601  135.2841  155.2303 H   0  0  0  0  0  0  0  0  0  0  0  0  # atno 10765 bound_to 10752
  140.0732  134.5441  155.9024 H   0  0  0  0  0  0  0  0  0  0  0  0  # atno 11005 bound_to 11000
  145.4802  141.0438  143.2650 LP  0  0  0  0  0  0  0  0  0  0  0  0  # atno 17320 bound_to 7965
  144.7915  139.6320  143.7111 LP  0  0  0  0  0  0  0  0  0  0  0  0  # atno 17321 bound_to 7965
  140.6716  143.2288  151.5612 LP  0  0  0  0  0  0  0  0  0  0  0  0  # atno 17342 bound_to 10162
  139.5436  144.2581  152.1399 LP  0  0  0  0  0  0  0  0  0  0  0  0  # atno 17343 bound_to 10162
  157.7404  131.0517  150.5169 LP  0  0  0  0  0  0  0  0  0  0  0  0  # atno 17370 bound_to 10713
  156.5316  130.4186  149.6198 LP  0  0  0  0  0  0  0  0  0  0  0  0  # atno 17371 bound_to 10713
  141.2020  133.6622  156.5980 LP  0  0  0  0  0  0  0  0  0  0  0  0  # atno 17394 bound_to 11000
  140.3596  134.7699  157.4524 LP  0  0  0  0  0  0  0  0  0  0  0  0  # atno 17395 bound_to 11000

$$$$
