AV-unprocessed.smi:1673|AV-procd|sdf|6712|dock4
  -GOLD-   22720 7453D 1   1.00000     0.00000
 Structure written by MMmdl.
 39 40  0  0  0  0  0  0  0  0  1 V2000
  150.2336  135.5402  156.0414 C   0  0  0  0  0  0  0  0  0  0  0  0
  150.1554  134.0805  155.6891 C   0  0  0  0  0  0  0  0  0  0  0  0
  150.7615  133.1971  156.4686 N   0  0  0  0  0  0  0  0  0  0  0  0
  150.4640  131.9281  155.9481 O   0  0  0  0  0  0  0  0  0  0  0  0
  149.6760  132.0764  154.8514 C   0  0  0  0  0  0  0  0  0  0  0  0
  149.2320  130.8307  154.1622 C   0  0  0  0  0  0  0  0  0  0  0  0
  149.4787  133.4074  154.6296 C   0  0  0  0  0  0  0  0  0  0  0  0
  148.6836  133.9425  153.5854 N   0  0  0  0  0  0  0  0  0  0  0  0
  147.5717  133.4015  153.0650 C   0  0  0  0  0  0  0  0  0  0  0  0
  147.0471  132.3606  153.4596 O   0  0  0  0  0  0  0  0  0  0  0  0
  147.0875  134.1508  152.0639 N   0  0  0  0  0  0  0  0  0  0  0  0
  145.8850  133.8630  151.2829 C   0  0  1  0  0  0  0  0  0  0  0  0
  146.1840  132.6882  150.3310 C   0  0  0  0  0  0  0  0  0  0  0  0
  144.9468  132.2881  149.5145 C   0  0  0  0  0  0  0  0  0  0  0  0
  143.7653  131.9561  150.4355 C   0  0  0  0  0  0  0  0  0  0  0  0
  143.4525  133.1305  151.3750 C   0  0  0  0  0  0  0  0  0  0  0  0
  144.6821  133.5444  152.2092 C   0  0  2  0  0  0  0  0  0  0  0  0
  144.3247  134.7100  153.1491 C   0  0  0  0  0  0  0  0  0  0  0  0
  149.3186  136.0631  155.7629 H   0  0  0  0  0  0  0  0  0  0  0  0
  151.0667  136.0223  155.5301 H   0  0  0  0  0  0  0  0  0  0  0  0
  150.3756  135.6849  157.1128 H   0  0  0  0  0  0  0  0  0  0  0  0
  148.5252  131.0542  153.3631 H   0  0  0  0  0  0  0  0  0  0  0  0
  148.7441  130.1544  154.8643 H   0  0  0  0  0  0  0  0  0  0  0  0
  150.0827  130.3085  153.7242 H   0  0  0  0  0  0  0  0  0  0  0  0
  148.9387  134.8634  153.2602 H   0  0  0  0  0  0  0  0  0  0  0  0
  147.5912  134.9905  151.8188 H   0  0  0  0  0  0  0  0  0  0  0  0
  145.6241  134.7263  150.6674 H   0  0  0  0  0  0  0  0  0  0  0  0
  146.9965  132.9546  149.6538 H   0  0  0  0  0  0  0  0  0  0  0  0
  146.5304  131.8264  150.9037 H   0  0  0  0  0  0  0  0  0  0  0  0
  144.6715  133.1024  148.8429 H   0  0  0  0  0  0  0  0  0  0  0  0
  145.1789  131.4302  148.8828 H   0  0  0  0  0  0  0  0  0  0  0  0
  142.8860  131.7122  149.8387 H   0  0  0  0  0  0  0  0  0  0  0  0
  143.9968  131.0671  151.0237 H   0  0  0  0  0  0  0  0  0  0  0  0
  143.1045  133.9811  150.7868 H   0  0  0  0  0  0  0  0  0  0  0  0
  142.6288  132.8564  152.0350 H   0  0  0  0  0  0  0  0  0  0  0  0
  144.9547  132.6935  152.8357 H   0  0  0  0  0  0  0  0  0  0  0  0
  144.0846  135.6121  152.5854 H   0  0  0  0  0  0  0  0  0  0  0  0
  145.1447  134.9487  153.8264 H   0  0  0  0  0  0  0  0  0  0  0  0
  143.4606  134.4641  153.7667 H   0  0  0  0  0  0  0  0  0  0  0  0
  1  2  1  0  0  0  0
  1 19  1  0  0  0  0
  1 20  1  0  0  0  0
  1 21  1  0  0  0  0
  2  7  1  0  0  0  0
  2  3  2  0  0  0  0
  3  4  1  0  0  0  0
  4  5  1  0  0  0  0
  5  6  1  0  0  0  0
  5  7  2  0  0  0  0
  6 22  1  0  0  0  0
  6 23  1  0  0  0  0
  6 24  1  0  0  0  0
  7  8  1  0  0  0  0
  8  9  1  0  0  0  0
  8 25  1  0  0  0  0
  9 10  2  0  0  0  0
  9 11  1  0  0  0  0
 11 12  1  0  0  0  0
 11 26  1  0  0  0  0
 12 17  1  0  0  0  0
 12 13  1  0  0  0  0
 12 27  1  0  0  0  0
 13 14  1  0  0  0  0
 13 28  1  0  0  0  0
 13 29  1  0  0  0  0
 14 15  1  0  0  0  0
 14 30  1  0  0  0  0
 14 31  1  0  0  0  0
 15 16  1  0  0  0  0
 15 32  1  0  0  0  0
 15 33  1  0  0  0  0
 16 17  1  0  0  0  0
 16 34  1  0  0  0  0
 16 35  1  0  0  0  0
 17 18  1  0  0  0  0
 17 36  1  0  0  0  0
 18 37  1  0  0  0  0
 18 38  1  0  0  0  0
 18 39  1  0  0  0  0
M  END
> <s_m_source_file>
AV-unprocessed.smi

> <i_m_source_file_index>
1673

> <i_lp_mmshare_version>
43012

> <i_f3d_flags>
0

> <s_epik_input>
W0NIM11jMW5vYyhbQ0gzXSljMVtOSF1DKD1PKVtOSF1bQ0BASF0yW0NIMl1bQ0gyXVtDSDJdW0NIMl1bQ0BIXTJbQ0gzXQ==

> <s_epik_cmdline>
J2VwaWtfcHl0aG9uJywgJy1waCcsICc3LjAnLCAnLXRuJywgJzgnLCAnLW1hJywgJzIwMCcsICctbWV0YWxfYmluZGluZycsICctaW1hZScsICc8aW5maWxlLm1hZT4nLCAnLW9tYWUnLCAnPG91dGZpbGUubWFlPic=

> <r_lp_tautomer_probability>
1

> <r_epik_Ionization_Penalty>
4.01865e-05

> <r_epik_Ionization_Penalty_Charging>
0

> <r_epik_Ionization_Penalty_Neutral>
4.01865e-05

> <r_epik_State_Penalty>
-0

> <r_epik_Charging_Adjusted_Penalty>
0

> <i_epik_Tot_Q>
0

> <i_epik_Tot_abs_Q>
0

> <r_epik_Metal_State_Penalty>
-0

> <b_epik_Metal_Only>
0

> <s_lp_Force_Field>
OPLS_2005

> <r_lp_Energy>
12.0286

> <b_lp_Chiralities_Consistent>
1

> <s_lp_Variant>
AV-unprocessed.smi:1673-4

> <Gold.Version>
5.8.1

> <Gold.Id.Protein>
6NUR|6NUR_protein|mol2

> <Gold.PLP.Fitness>
38.7773

> <Gold.PLP.PLP>
-33.7203

> <Gold.PLP.part.hbond>
-2.0000

> <Gold.PLP.part.metal>
0.0000

> <Gold.PLP.part.buried>
-5.4591

> <Gold.PLP.part.nonpolar>
-26.5672

> <Gold.PLP.part.repulsive>
0.1312

> <Gold.PLP.ligand.clash>
0.0000

> <Gold.PLP.ligand.torsion>
0.3785

> <Gold.PLP.Chemscore.Hbond>
1.8500

> <Gold.PLP.Chemscore.CHOScore>
0.0000

> <Gold.PLP.Chemscore.Metal>
0.0000

> <Gold.Chemscore.Hbonds>
donor molecule, donor type, donor heavy atom, donor atom, acceptor molecule, acceptor atom, score
      L1  H     8    25       P1  7948  0.94
      L1  H    11    26       P1  7948  1.00

> <Gold.PLP.Chemscore.Internal.Correction>
0.2639

> <Gold.Rescore>
     Score         DG    S(hbond)    S(metal)    S(lipo)     H(rot)  DE(clash)    DE(int)     intcor
     13.61     -17.30       1.53        0.00      79.35       1.00       0.11       3.58       ----

> <Gold.Chemscore.Fitness>
13.6070

> <Gold.Chemscore.DG>
-17.3025

> <Gold.Chemscore.ZeroCoef>
-5.4800

> <Gold.Chemscore.Hbond>
1.5267

> <Gold.Chemscore.Metal>
0.0000

> <Gold.Chemscore.Lipo>
79.3452

> <Gold.Chemscore.Internal_Hbond>
0.0000

> <Gold.Chemscore.DEClash>
0.1107

> <Gold.Chemscore.DEInternal>
3.5848

> <Gold.Chemscore.Rot>
1.0000

> <Gold.Chemscore.Internal.Correction>
   9.000000E+99

> <Gold.Chemscore.Hbonds>
donor molecule, donor type, donor heavy atom, donor atom, acceptor molecule, acceptor atom, score
      L1  H     8    25       P1  7948  0.20
      L1  H    11    26       P1  7948  0.74

> <Gold.Chemscore.Hbond.Weighted>
-5.0991

> <Gold.Chemscore.Metal.Weighted>
-0.0000

> <Gold.Chemscore.Lipo.Weighted>
-9.2834

> <Gold.Chemscore.Internal_Hbond.Weighted>
0.0000

> <Gold.Chemscore.DEClash.Weighted>
0.1107

> <Gold.Chemscore.DEInternal.Weighted>
3.5848

> <Gold.Chemscore.Rot.Weighted>
2.5600

> <Gold.Chemscore.Internal.Correction.Weighted>
   9.000000E+99

> <Gold.Protein.RotatedTorsions>
[ 6907 6896 6895 6894 ] final  -50.40 input  -60.11 | X-H torsion
[ 7974 7965 7964 7962 ] final  -59.54 input  175.53 | X-H torsion
[ 8008 7997 7996 7995 ] final    5.26 input   59.86 | X-H torsion
[ 10167 10162 10161 10158 ] final  -56.87 input  -65.29 | X-H torsion
[ 10718 10713 10712 10709 ] final -135.21 input   66.30 | X-H torsion
[ 10763 10752 10751 10750 ] final  145.81 input  -60.55 | X-H torsion
[ 11005 11000 10999 10996 ] final  -89.63 input  -57.11 | X-H torsion

> <Gold.Protein.ActiveResidues>
 VAL166  LYS551  ARG553  GLY616  TRP617  ASP618  TYR619  PRO620  LYS621  CYS622 
 ASP623  PHE694  ASN695  SER759  ASP760  ASP761  ALA762  ILE779  LEU786  VAL792 
 PHE793  MET794  SER795  GLU796  ALA797  LYS798  CYS799  TRP800  GLU811  SER814 

> <Gold.Protein.RotatedAtoms>
  150.8711  134.8084  159.7154 H   0  0  0  0  0  0  0  0  0  0  0  0  # atno 6907 bound_to 6896
  152.4715  134.4946  159.9715 H   0  0  0  0  0  0  0  0  0  0  0  0  # atno 6908 bound_to 6896
  151.5034  133.3461  159.2908 H   0  0  0  0  0  0  0  0  0  0  0  0  # atno 6909 bound_to 6896
  145.8262  140.8509  143.0107 H   0  0  0  0  0  0  0  0  0  0  0  0  # atno 7974 bound_to 7965
  154.7262  140.2721  155.6497 H   0  0  0  0  0  0  0  0  0  0  0  0  # atno 8008 bound_to 7997
  156.2837  140.2725  156.1873 H   0  0  0  0  0  0  0  0  0  0  0  0  # atno 8009 bound_to 7997
  155.0442  140.0371  157.2510 H   0  0  0  0  0  0  0  0  0  0  0  0  # atno 8010 bound_to 7997
  140.6292  143.2451  151.5286 H   0  0  0  0  0  0  0  0  0  0  0  0  # atno 10167 bound_to 10162
  156.2638  130.7225  151.1168 H   0  0  0  0  0  0  0  0  0  0  0  0  # atno 10718 bound_to 10713
  154.0116  135.2914  155.3391 H   0  0  0  0  0  0  0  0  0  0  0  0  # atno 10763 bound_to 10752
  154.7100  135.5153  153.8655 H   0  0  0  0  0  0  0  0  0  0  0  0  # atno 10764 bound_to 10752
  153.0721  135.6651  154.0347 H   0  0  0  0  0  0  0  0  0  0  0  0  # atno 10765 bound_to 10752
  141.1581  133.7642  156.9623 H   0  0  0  0  0  0  0  0  0  0  0  0  # atno 11005 bound_to 11000
  144.6743  140.0605  143.7476 LP  0  0  0  0  0  0  0  0  0  0  0  0  # atno 17320 bound_to 7965
  145.9621  139.2808  143.1149 LP  0  0  0  0  0  0  0  0  0  0  0  0  # atno 17321 bound_to 7965
  139.5508  144.2401  152.1526 LP  0  0  0  0  0  0  0  0  0  0  0  0  # atno 17342 bound_to 10162
  140.1640  144.4999  150.6616 LP  0  0  0  0  0  0  0  0  0  0  0  0  # atno 17343 bound_to 10162
  157.7260  131.0649  150.5929 LP  0  0  0  0  0  0  0  0  0  0  0  0  # atno 17370 bound_to 10713
  156.6019  130.4357  149.5894 LP  0  0  0  0  0  0  0  0  0  0  0  0  # atno 17371 bound_to 10713
  140.1185  134.9432  157.2169 LP  0  0  0  0  0  0  0  0  0  0  0  0  # atno 17394 bound_to 11000
  140.3103  134.3032  155.7268 LP  0  0  0  0  0  0  0  0  0  0  0  0  # atno 17395 bound_to 11000

$$$$
