AV-unprocessed.smi:3255|AV-procd|sdf|12460|dock3
  -GOLD-   2272018353D 1   1.00000     0.00000
 Structure written by MMmdl.
 39 40  0  0  0  0  0  0  0  0  2 V2000
  149.1323  141.6916  154.6777 C   0  0  0  0  0  0  0  0  0  0  0  0
  148.8282  140.1834  154.7029 C   0  0  1  0  0  0  0  0  0  0  0  0
  148.4018  139.7446  153.3768 N   0  0  0  0  0  0  0  0  0  0  0  0
  147.3001  139.0284  153.1152 C   0  0  0  0  0  0  0  0  0  0  0  0
  146.4880  138.6701  153.9688 O   0  0  0  0  0  0  0  0  0  0  0  0
  147.1887  138.7443  151.8102 N   0  0  0  0  0  0  0  0  0  0  0  0
  146.0979  137.9802  151.2178 C   0  0  0  0  0  0  0  0  0  0  0  0
  145.6990  136.7865  152.1017 C   0  0  0  0  0  0  0  0  0  0  0  0
  145.5513  135.5593  151.3189 N   0  0  0  0  0  0  0  0  0  0  0  0
  146.3615  134.4539  151.3503 C   0  0  0  0  0  0  0  0  0  0  0  0
  145.8328  133.5574  150.4577 C   0  0  0  0  0  0  0  0  0  0  0  0
  144.7225  134.1532  149.9211 N   0  3  0  0  0  0  0  0  0  0  0  0
  144.5534  135.3713  150.4463 C   0  0  0  0  0  0  0  0  0  0  0  0
  150.0479  139.3501  155.1394 C   0  0  1  0  0  0  0  0  0  0  0  0
  150.0216  137.8882  154.6883 C   0  0  0  0  0  0  0  0  0  0  0  0
  151.4918  137.5042  154.6103 C   0  0  0  0  0  0  0  0  0  0  0  0
  152.2334  138.8404  154.6970 C   0  0  0  0  0  0  0  0  0  0  0  0
  151.2298  139.8280  154.5147 O   0  0  0  0  0  0  0  0  0  0  0  0
  149.4229  142.0548  155.6635 H   0  0  0  0  0  0  0  0  0  0  0  0
  148.2586  142.2659  154.3682 H   0  0  0  0  0  0  0  0  0  0  0  0
  149.9435  141.9212  153.9859 H   0  0  0  0  0  0  0  0  0  0  0  0
  148.0196  140.0022  155.4138 H   0  0  0  0  0  0  0  0  0  0  0  0
  149.0069  139.9859  152.6056 H   0  0  0  0  0  0  0  0  0  0  0  0
  147.9068  139.0809  151.1852 H   0  0  0  0  0  0  0  0  0  0  0  0
  145.2401  138.6329  151.0451 H   0  0  0  0  0  0  0  0  0  0  0  0
  146.4223  137.6278  150.2383 H   0  0  0  0  0  0  0  0  0  0  0  0
  146.4433  136.6109  152.8799 H   0  0  0  0  0  0  0  0  0  0  0  0
  144.7483  136.9722  152.6034 H   0  0  0  0  0  0  0  0  0  0  0  0
  147.2308  134.3897  151.9893 H   0  0  0  0  0  0  0  0  0  0  0  0
  146.1546  132.5663  150.1727 H   0  0  0  0  0  0  0  0  0  0  0  0
  143.7650  136.0647  150.2124 H   0  0  0  0  0  0  0  0  0  0  0  0
  150.1781  139.4016  156.2225 H   0  0  0  0  0  0  0  0  0  0  0  0
  149.4544  137.2499  155.3665 H   0  0  0  0  0  0  0  0  0  0  0  0
  149.5730  137.8064  153.6972 H   0  0  0  0  0  0  0  0  0  0  0  0
  151.7817  136.8474  155.4311 H   0  0  0  0  0  0  0  0  0  0  0  0
  151.7058  136.9872  153.6743 H   0  0  0  0  0  0  0  0  0  0  0  0
  152.6838  138.9657  155.6827 H   0  0  0  0  0  0  0  0  0  0  0  0
  153.0207  138.9339  153.9487 H   0  0  0  0  0  0  0  0  0  0  0  0
  144.1150  133.7346  149.2279 H   0  0  0  0  0  0  0  0  0  0  0  0
  1  2  1  0  0  0  0
  1 19  1  0  0  0  0
  1 20  1  0  0  0  0
  1 21  1  0  0  0  0
  2  3  1  0  0  0  0
  2 14  1  0  0  0  0
  2 22  1  0  0  0  0
  3  4  1  0  0  0  0
  3 23  1  0  0  0  0
  4  5  2  0  0  0  0
  4  6  1  0  0  0  0
  6  7  1  0  0  0  0
  6 24  1  0  0  0  0
  7  8  1  0  0  0  0
  7 25  1  0  0  0  0
  7 26  1  0  0  0  0
  8  9  1  0  0  0  0
  8 27  1  0  0  0  0
  8 28  1  0  0  0  0
  9 13  1  0  0  0  0
  9 10  1  0  0  0  0
 10 11  2  0  0  0  0
 10 29  1  0  0  0  0
 11 12  1  0  0  0  0
 11 30  1  0  0  0  0
 12 13  2  0  0  0  0
 12 39  1  0  0  0  0
 13 31  1  0  0  0  0
 14 18  1  0  0  0  0
 14 15  1  0  0  0  0
 14 32  1  0  0  0  0
 15 16  1  0  0  0  0
 15 33  1  0  0  0  0
 15 34  1  0  0  0  0
 16 17  1  0  0  0  0
 16 35  1  0  0  0  0
 16 36  1  0  0  0  0
 17 18  1  0  0  0  0
 17 37  1  0  0  0  0
 17 38  1  0  0  0  0
M  CHG  1  12   1
M  END
> <s_m_source_file>
AV-unprocessed.smi

> <i_m_source_file_index>
3255

> <i_lp_mmshare_version>
43012

> <i_f3d_flags>
0

> <s_epik_input>
TzFbQ0gyXVtDSDJdW0NIMl1bQ0BIXTFbQ0BIXShbQ0gzXSlbTkhdQyg9TylbTkhdW0NIMl1bQ0gyXW4yW2NIXVtjSF1uW2NIXTI=

> <s_epik_cmdline>
J2VwaWtfcHl0aG9uJywgJy1waCcsICc3LjAnLCAnLXRuJywgJzgnLCAnLW1hJywgJzIwMCcsICctbWV0YWxfYmluZGluZycsICctaW1hZScsICc8aW5maWxlLm1hZT4nLCAnLW9tYWUnLCAnPG91dGZpbGUubWFlPic=

> <r_lp_tautomer_probability>
1

> <r_epik_Ionization_Penalty>
0.256241

> <r_epik_Ionization_Penalty_Charging>
0

> <r_epik_Ionization_Penalty_Neutral>
0.256241

> <r_epik_State_Penalty>
0.247735

> <r_epik_Charging_Adjusted_Penalty>
0.247735

> <i_epik_Tot_Q>
1

> <i_epik_Tot_abs_Q>
1

> <r_epik_Metal_State_Penalty>
0.537184

> <b_epik_Metal_Only>
0

> <s_lp_Force_Field>
OPLS_2005

> <r_lp_Energy>
17.8763

> <b_lp_Chiralities_Consistent>
1

> <s_lp_Variant>
AV-unprocessed.smi:3255-4

> <Gold.Version>
5.8.1

> <Gold.Id.Protein>
6NUR|6NUR_protein|mol2

> <Gold.PLP.Fitness>
48.0426

> <Gold.PLP.PLP>
-36.2029

> <Gold.PLP.part.hbond>
-4.9769

> <Gold.PLP.part.metal>
0.0000

> <Gold.PLP.part.buried>
0.4810

> <Gold.PLP.part.nonpolar>
-32.1749

> <Gold.PLP.part.repulsive>
0.5031

> <Gold.PLP.ligand.clash>
0.0000

> <Gold.PLP.ligand.torsion>
1.0651

> <Gold.PLP.Chemscore.Hbond>
2.8800

> <Gold.PLP.Chemscore.CHOScore>
1.7532

> <Gold.PLP.Chemscore.Metal>
0.0000

> <Gold.Chemscore.Hbonds>
donor molecule, donor type, donor heavy atom, donor atom, acceptor molecule, acceptor atom, score
      L1  H     3    23       P1  7957  1.00
      L1  H     6    24       P1  7957  0.88
      P1  H  7989  7998       L1    18  0.94
      L1  C    10    29       P1  7948  0.76
      L1  C    13    31       P1 10171  1.00

> <Gold.PLP.Chemscore.Internal.Correction>
0.0704

> <Gold.Rescore>
     Score         DG    S(hbond)    S(metal)    S(lipo)     H(rot)  DE(clash)    DE(int)     intcor
     13.95     -17.09       2.86        0.00      67.11       2.26       1.02       2.12       ----

> <Gold.Chemscore.Fitness>
13.9517

> <Gold.Chemscore.DG>
-17.0873

> <Gold.Chemscore.ZeroCoef>
-5.4800

> <Gold.Chemscore.Hbond>
2.8598

> <Gold.Chemscore.Metal>
0.0000

> <Gold.Chemscore.Lipo>
67.1057

> <Gold.Chemscore.Internal_Hbond>
0.0000

> <Gold.Chemscore.DEClash>
1.0196

> <Gold.Chemscore.DEInternal>
2.1160

> <Gold.Chemscore.Rot>
2.2640

> <Gold.Chemscore.Internal.Correction>
   9.000000E+99

> <Gold.Chemscore.Hbonds>
donor molecule, donor type, donor heavy atom, donor atom, acceptor molecule, acceptor atom, score
      L1  H     3    23       P1  7957  0.96
      L1  H     6    24       P1  7957  0.48
      P1  H  7989  7998       L1    18  0.74

> <Gold.Chemscore.Hbond.Weighted>
-9.5517

> <Gold.Chemscore.Metal.Weighted>
-0.0000

> <Gold.Chemscore.Lipo.Weighted>
-7.8514

> <Gold.Chemscore.Internal_Hbond.Weighted>
0.0000

> <Gold.Chemscore.DEClash.Weighted>
1.0196

> <Gold.Chemscore.DEInternal.Weighted>
2.1160

> <Gold.Chemscore.Rot.Weighted>
5.7958

> <Gold.Chemscore.Internal.Correction.Weighted>
   9.000000E+99

> <Gold.Protein.RotatedTorsions>
[ 6907 6896 6895 6894 ] final  100.45 input  -60.11 | X-H torsion
[ 7974 7965 7964 7962 ] final  170.08 input  175.53 | X-H torsion
[ 8008 7997 7996 7995 ] final  148.52 input   59.86 | X-H torsion
[ 10167 10162 10161 10158 ] final -173.92 input  -65.29 | X-H torsion
[ 10718 10713 10712 10709 ] final  136.15 input   66.30 | X-H torsion
[ 10763 10752 10751 10750 ] final   40.45 input  -60.55 | X-H torsion
[ 11005 11000 10999 10996 ] final  121.60 input  -57.11 | X-H torsion

> <Gold.Protein.ActiveResidues>
 VAL166  LYS551  ARG553  GLY616  TRP617  ASP618  TYR619  PRO620  LYS621  CYS622 
 ASP623  PHE694  ASN695  SER759  ASP760  ASP761  ALA762  ILE779  LEU786  VAL792 
 PHE793  MET794  SER795  GLU796  ALA797  LYS798  CYS799  TRP800  GLU811  SER814 

> <Gold.Protein.RotatedAtoms>
  152.5372  134.0276  159.8009 H   0  0  0  0  0  0  0  0  0  0  0  0  # atno 6907 bound_to 6896
  151.0452  133.5664  159.2654 H   0  0  0  0  0  0  0  0  0  0  0  0  # atno 6908 bound_to 6896
  151.2619  135.0664  159.9155 H   0  0  0  0  0  0  0  0  0  0  0  0  # atno 6909 bound_to 6896
  144.7335  139.9149  143.6417 H   0  0  0  0  0  0  0  0  0  0  0  0  # atno 7974 bound_to 7965
  156.2788  140.2126  156.5711 H   0  0  0  0  0  0  0  0  0  0  0  0  # atno 8008 bound_to 7997
  154.7135  140.0510  157.0595 H   0  0  0  0  0  0  0  0  0  0  0  0  # atno 8009 bound_to 7997
  155.0574  140.3163  155.4675 H   0  0  0  0  0  0  0  0  0  0  0  0  # atno 8010 bound_to 7997
  139.5662  144.1750  152.1315 H   0  0  0  0  0  0  0  0  0  0  0  0  # atno 10167 bound_to 10162
  157.4497  131.1065  151.0048 H   0  0  0  0  0  0  0  0  0  0  0  0  # atno 10718 bound_to 10713
  152.9936  135.6191  154.2629 H   0  0  0  0  0  0  0  0  0  0  0  0  # atno 10763 bound_to 10752
  154.2364  135.2790  155.2872 H   0  0  0  0  0  0  0  0  0  0  0  0  # atno 10764 bound_to 10752
  154.5406  135.5762  153.6894 H   0  0  0  0  0  0  0  0  0  0  0  0  # atno 10765 bound_to 10752
  139.9233  134.9639  156.7983 H   0  0  0  0  0  0  0  0  0  0  0  0  # atno 11005 bound_to 11000
  146.0973  139.3966  143.0368 LP  0  0  0  0  0  0  0  0  0  0  0  0  # atno 17320 bound_to 7965
  145.7627  140.9928  143.1191 LP  0  0  0  0  0  0  0  0  0  0  0  0  # atno 17321 bound_to 7965
  140.1274  144.5319  150.6824 LP  0  0  0  0  0  0  0  0  0  0  0  0  # atno 17342 bound_to 10162
  140.6945  143.2395  151.5039 LP  0  0  0  0  0  0  0  0  0  0  0  0  # atno 17343 bound_to 10162
  157.0882  130.5931  149.5434 LP  0  0  0  0  0  0  0  0  0  0  0  0  # atno 17370 bound_to 10713
  155.9982  130.5055  150.7562 LP  0  0  0  0  0  0  0  0  0  0  0  0  # atno 17371 bound_to 10713
  140.6411  133.9818  155.7708 LP  0  0  0  0  0  0  0  0  0  0  0  0  # atno 17394 bound_to 11000
  141.0771  134.0119  157.3442 LP  0  0  0  0  0  0  0  0  0  0  0  0  # atno 17395 bound_to 11000

$$$$
