AV-unprocessed.smi:2092|AV-procd|sdf|8542|dock3
  -GOLD-   2272011263D 1   1.00000     0.00000
 Structure written by MMmdl.
 44 45  0  0  0  0  0  0  0  0  1 V2000
  144.7466  144.5696  156.2124 C   0  0  0  0  0  0  0  0  0  0  0  0
  145.7800  143.5674  156.7467 C   0  0  2  0  0  0  0  0  0  0  0  0
  146.6279  144.2687  157.6568 O   0  0  0  0  0  0  0  0  0  0  0  0
  146.1270  144.4315  158.9814 C   0  0  0  0  0  0  0  0  0  0  0  0
  146.8952  145.5518  159.6917 C   0  0  0  0  0  0  0  0  0  0  0  0
  146.5944  146.7182  159.1212 F   0  0  0  0  0  0  0  0  0  0  0  0
  146.5519  145.6041  160.9784 F   0  0  0  0  0  0  0  0  0  0  0  0
  148.2081  145.3488  159.5851 F   0  0  0  0  0  0  0  0  0  0  0  0
  146.5981  142.9459  155.6031 C   0  0  0  0  0  0  0  0  0  0  0  0
  146.4023  143.2928  154.4381 O   0  0  0  0  0  0  0  0  0  0  0  0
  147.5415  142.0601  155.9593 N   0  0  0  0  0  0  0  0  0  0  0  0
  148.5221  141.4764  155.0498 C   0  0  0  0  0  0  0  0  0  0  0  0
  149.7554  140.9354  155.7586 C   0  0  0  0  0  0  0  0  0  0  0  0
  150.2839  139.6783  155.4074 C   0  0  0  0  0  0  0  0  0  0  0  0
  151.4447  139.2328  156.0664 C   0  0  0  0  0  0  0  0  0  0  0  0
  152.0776  139.9500  157.0187 N   0  0  0  0  0  0  0  0  0  0  0  0
  151.5706  141.1557  157.3760 C   0  0  0  0  0  0  0  0  0  0  0  0
  152.2499  141.9059  158.3595 N   0  0  0  0  0  0  0  0  0  0  0  0
  152.4508  141.2992  159.6737 C   0  0  0  0  0  0  0  0  0  0  0  0
  153.4719  142.1134  160.4858 C   0  0  0  0  0  0  0  0  0  0  0  0
  153.0502  143.4711  160.5637 O   0  0  0  0  0  0  0  0  0  0  0  0
  152.9662  144.0745  159.2770 C   0  0  0  0  0  0  0  0  0  0  0  0
  151.9301  143.3298  158.4175 C   0  0  0  0  0  0  0  0  0  0  0  0
  150.4016  141.6756  156.7728 C   0  0  0  0  0  0  0  0  0  0  0  0
  144.0635  144.0968  155.5057 H   0  0  0  0  0  0  0  0  0  0  0  0
  145.2256  145.4085  155.7061 H   0  0  0  0  0  0  0  0  0  0  0  0
  144.1471  144.9767  157.0267 H   0  0  0  0  0  0  0  0  0  0  0  0
  145.2509  142.7819  157.2900 H   0  0  0  0  0  0  0  0  0  0  0  0
  145.0633  144.6729  158.9580 H   0  0  0  0  0  0  0  0  0  0  0  0
  146.2427  143.5069  159.5468 H   0  0  0  0  0  0  0  0  0  0  0  0
  147.6316  141.8282  156.9378 H   0  0  0  0  0  0  0  0  0  0  0  0
  148.0460  140.6555  154.5136 H   0  0  0  0  0  0  0  0  0  0  0  0
  148.8132  142.2118  154.2977 H   0  0  0  0  0  0  0  0  0  0  0  0
  149.8215  139.0720  154.6424 H   0  0  0  0  0  0  0  0  0  0  0  0
  151.8818  138.2773  155.8169 H   0  0  0  0  0  0  0  0  0  0  0  0
  151.4978  141.2592  160.2028 H   0  0  0  0  0  0  0  0  0  0  0  0
  152.8091  140.2744  159.5673 H   0  0  0  0  0  0  0  0  0  0  0  0
  153.5572  141.7092  161.4945 H   0  0  0  0  0  0  0  0  0  0  0  0
  154.4636  142.0545  160.0338 H   0  0  0  0  0  0  0  0  0  0  0  0
  152.6752  145.1184  159.3940 H   0  0  0  0  0  0  0  0  0  0  0  0
  153.9458  144.0700  158.7963 H   0  0  0  0  0  0  0  0  0  0  0  0
  151.9015  143.7808  157.4268 H   0  0  0  0  0  0  0  0  0  0  0  0
  150.9351  143.4483  158.8479 H   0  0  0  0  0  0  0  0  0  0  0  0
  150.0192  142.6440  157.0577 H   0  0  0  0  0  0  0  0  0  0  0  0
  1  2  1  0  0  0  0
  1 25  1  0  0  0  0
  1 26  1  0  0  0  0
  1 27  1  0  0  0  0
  2  3  1  0  0  0  0
  2  9  1  0  0  0  0
  2 28  1  0  0  0  0
  3  4  1  0  0  0  0
  4  5  1  0  0  0  0
  4 29  1  0  0  0  0
  4 30  1  0  0  0  0
  5  6  1  0  0  0  0
  5  7  1  0  0  0  0
  5  8  1  0  0  0  0
  9 10  2  0  0  0  0
  9 11  1  0  0  0  0
 11 12  1  0  0  0  0
 11 31  1  0  0  0  0
 12 13  1  0  0  0  0
 12 32  1  0  0  0  0
 12 33  1  0  0  0  0
 13 24  1  0  0  0  0
 13 14  2  0  0  0  0
 14 15  1  0  0  0  0
 14 34  1  0  0  0  0
 15 16  2  0  0  0  0
 15 35  1  0  0  0  0
 16 17  1  0  0  0  0
 17 18  1  0  0  0  0
 17 24  2  0  0  0  0
 18 23  1  0  0  0  0
 18 19  1  0  0  0  0
 19 20  1  0  0  0  0
 19 36  1  0  0  0  0
 19 37  1  0  0  0  0
 20 21  1  0  0  0  0
 20 38  1  0  0  0  0
 20 39  1  0  0  0  0
 21 22  1  0  0  0  0
 22 23  1  0  0  0  0
 22 40  1  0  0  0  0
 22 41  1  0  0  0  0
 23 42  1  0  0  0  0
 23 43  1  0  0  0  0
 24 44  1  0  0  0  0
M  END
> <s_m_source_file>
AV-unprocessed.smi

> <i_m_source_file_index>
2092

> <i_lp_mmshare_version>
43012

> <i_f3d_flags>
0

> <s_epik_input>
RkMoRikoRilbQ0gyXU9bQ0BASF0oW0NIM10pQyg9TylbTkhdW0NIMl1jMVtjSF1bY0hdbmMoW2NIXTEpTjJbQ0gyXVtDSDJdT1tDSDJdW0NIMl0y

> <s_epik_cmdline>
J2VwaWtfcHl0aG9uJywgJy1waCcsICc3LjAnLCAnLXRuJywgJzgnLCAnLW1hJywgJzIwMCcsICctbWV0YWxfYmluZGluZycsICctaW1hZScsICc8aW5maWxlLm1hZT4nLCAnLW9tYWUnLCAnPG91dGZpbGUubWFlPic=

> <r_lp_tautomer_probability>
1

> <r_epik_Ionization_Penalty>
0.00451782

> <r_epik_Ionization_Penalty_Charging>
0

> <r_epik_Ionization_Penalty_Neutral>
0.00451782

> <r_epik_State_Penalty>
0.00326147

> <r_epik_Charging_Adjusted_Penalty>
0.00326147

> <i_epik_Tot_Q>
0

> <i_epik_Tot_abs_Q>
0

> <r_epik_Metal_State_Penalty>
-0

> <b_epik_Metal_Only>
0

> <s_lp_Force_Field>
OPLS_2005

> <r_lp_Energy>
14.8319

> <b_lp_Chiralities_Consistent>
1

> <s_lp_Variant>
AV-unprocessed.smi:2092-1

> <Gold.Version>
5.8.1

> <Gold.Id.Protein>
6NUR|6NUR_protein|mol2

> <Gold.PLP.Fitness>
43.2420

> <Gold.PLP.PLP>
-41.8339

> <Gold.PLP.part.hbond>
-1.0183

> <Gold.PLP.part.metal>
0.0000

> <Gold.PLP.part.buried>
-5.4268

> <Gold.PLP.part.nonpolar>
-34.7526

> <Gold.PLP.part.repulsive>
0.8369

> <Gold.PLP.ligand.clash>
0.0000

> <Gold.PLP.ligand.torsion>
0.9652

> <Gold.PLP.Chemscore.Hbond>
0.9750

> <Gold.PLP.Chemscore.CHOScore>
0.0000

> <Gold.PLP.Chemscore.Metal>
0.0000

> <Gold.Chemscore.Hbonds>
donor molecule, donor type, donor heavy atom, donor atom, acceptor molecule, acceptor atom, score
      P1  H  7997  8010       L1    16  0.26

> <Gold.PLP.Chemscore.Internal.Correction>
0.4134

> <Gold.Rescore>
     Score         DG    S(hbond)    S(metal)    S(lipo)     H(rot)  DE(clash)    DE(int)     intcor
     10.85     -11.75       0.82        0.00      84.80       2.49       0.02       0.89       ----

> <Gold.Chemscore.Fitness>
10.8475

> <Gold.Chemscore.DG>
-11.7545

> <Gold.Chemscore.ZeroCoef>
-5.4800

> <Gold.Chemscore.Hbond>
0.8163

> <Gold.Chemscore.Metal>
0.0000

> <Gold.Chemscore.Lipo>
84.8043

> <Gold.Chemscore.Internal_Hbond>
0.0000

> <Gold.Chemscore.DEClash>
0.0174

> <Gold.Chemscore.DEInternal>
0.8896

> <Gold.Chemscore.Rot>
2.4899

> <Gold.Chemscore.Internal.Correction>
   9.000000E+99

> <Gold.Chemscore.Hbonds>
donor molecule, donor type, donor heavy atom, donor atom, acceptor molecule, acceptor atom, score
      P1  H  7997  8010       L1    16  0.14

> <Gold.Chemscore.Hbond.Weighted>
-2.7266

> <Gold.Chemscore.Metal.Weighted>
-0.0000

> <Gold.Chemscore.Lipo.Weighted>
-9.9221

> <Gold.Chemscore.Internal_Hbond.Weighted>
0.0000

> <Gold.Chemscore.DEClash.Weighted>
0.0174

> <Gold.Chemscore.DEInternal.Weighted>
0.8896

> <Gold.Chemscore.Rot.Weighted>
6.3741

> <Gold.Chemscore.Internal.Correction.Weighted>
   9.000000E+99

> <Gold.Protein.RotatedTorsions>
[ 6907 6896 6895 6894 ] final  -19.42 input  -60.11 | X-H torsion
[ 7974 7965 7964 7962 ] final   60.81 input  175.53 | X-H torsion
[ 8008 7997 7996 7995 ] final   69.13 input   59.86 | X-H torsion
[ 10167 10162 10161 10158 ] final -117.23 input  -65.29 | X-H torsion
[ 10718 10713 10712 10709 ] final  -94.14 input   66.30 | X-H torsion
[ 10763 10752 10751 10750 ] final  118.04 input  -60.55 | X-H torsion
[ 11005 11000 10999 10996 ] final  -11.93 input  -57.11 | X-H torsion

> <Gold.Protein.ActiveResidues>
 VAL166  LYS551  ARG553  GLY616  TRP617  ASP618  TYR619  PRO620  LYS621  CYS622 
 ASP623  PHE694  ASN695  SER759  ASP760  ASP761  ALA762  ILE779  LEU786  VAL792 
 PHE793  MET794  SER795  GLU796  ALA797  LYS798  CYS799  TRP800  GLU811  SER814 

> <Gold.Protein.RotatedAtoms>
  151.2635  135.0661  159.9106 H   0  0  0  0  0  0  0  0  0  0  0  0  # atno 6907 bound_to 6896
  152.5362  134.0206  159.7990 H   0  0  0  0  0  0  0  0  0  0  0  0  # atno 6908 bound_to 6896
  151.0433  133.5637  159.2680 H   0  0  0  0  0  0  0  0  0  0  0  0  # atno 6909 bound_to 6896
  145.8918  139.3516  143.0645 H   0  0  0  0  0  0  0  0  0  0  0  0  # atno 7974 bound_to 7965
  155.7189  140.3493  155.5007 H   0  0  0  0  0  0  0  0  0  0  0  0  # atno 8008 bound_to 7997
  155.9288  140.1080  157.1170 H   0  0  0  0  0  0  0  0  0  0  0  0  # atno 8009 bound_to 7997
  154.4082  140.1235  156.4762 H   0  0  0  0  0  0  0  0  0  0  0  0  # atno 8010 bound_to 7997
  140.0706  143.4881  152.1982 H   0  0  0  0  0  0  0  0  0  0  0  0  # atno 10167 bound_to 10162
  156.0023  130.5056  150.5882 H   0  0  0  0  0  0  0  0  0  0  0  0  # atno 10718 bound_to 10713
  153.5616  135.3519  155.2801 H   0  0  0  0  0  0  0  0  0  0  0  0  # atno 10763 bound_to 10752
  154.8694  135.4138  154.2824 H   0  0  0  0  0  0  0  0  0  0  0  0  # atno 10764 bound_to 10752
  153.3571  135.7058  153.6811 H   0  0  0  0  0  0  0  0  0  0  0  0  # atno 10765 bound_to 10752
  140.7605  133.8519  155.9120 H   0  0  0  0  0  0  0  0  0  0  0  0  # atno 11005 bound_to 11000
  145.8899  140.9310  143.0557 LP  0  0  0  0  0  0  0  0  0  0  0  0  # atno 17320 bound_to 7965
  144.6731  140.0892  143.7466 LP  0  0  0  0  0  0  0  0  0  0  0  0  # atno 17321 bound_to 7965
  139.5838  144.7522  151.3571 LP  0  0  0  0  0  0  0  0  0  0  0  0  # atno 17342 bound_to 10162
  140.7127  143.7347  150.7598 LP  0  0  0  0  0  0  0  0  0  0  0  0  # atno 17343 bound_to 10162
  157.3751  131.0772  151.1524 LP  0  0  0  0  0  0  0  0  0  0  0  0  # atno 17370 bound_to 10713
  157.2265  130.6505  149.5832 LP  0  0  0  0  0  0  0  0  0  0  0  0  # atno 17371 bound_to 10713
  140.9668  134.1584  157.4609 LP  0  0  0  0  0  0  0  0  0  0  0  0  # atno 17394 bound_to 11000
  139.8772  134.9964  156.5795 LP  0  0  0  0  0  0  0  0  0  0  0  0  # atno 17395 bound_to 11000

$$$$
