AV-unprocessed.smi:2153|AV-procd|sdf|8766|dock9
  -GOLD-   2272011543D 1   1.00000     0.00000
 Structure written by MMmdl.
 48 49  0  0  0  0  0  0  0  0  1 V2000
  151.5352  140.4776  158.4183 C   0  0  0  0  0  0  0  0  0  0  0  0
  151.6575  141.9786  158.7274 C   0  0  2  0  0  0  0  0  0  0  0  0
  151.1373  142.8203  157.5443 C   0  0  0  0  0  0  0  0  0  0  0  0
  151.2533  144.3266  157.8216 C   0  0  0  0  0  0  0  0  0  0  0  0
  152.6987  144.7131  158.1628 C   0  0  0  0  0  0  0  0  0  0  0  0
  153.2232  143.8899  159.3479 C   0  0  0  0  0  0  0  0  0  0  0  0
  153.1092  142.3734  159.0827 C   0  0  1  0  0  0  0  0  0  0  0  0
  153.4819  141.6621  160.2565 O   0  0  0  0  0  0  0  0  0  0  0  0
  154.1555  140.4357  160.0120 C   0  0  0  0  0  0  0  0  0  0  0  0
  153.5048  139.3340  160.8549 C   0  0  0  0  0  0  0  0  0  0  0  0
  154.4281  138.2249  161.0507 N   0  0  0  0  0  0  0  0  0  0  0  0
  154.1864  136.9616  160.6758 C   0  0  0  0  0  0  0  0  0  0  0  0
  153.1429  136.6131  160.1214 O   0  0  0  0  0  0  0  0  0  0  0  0
  155.2925  135.9458  160.9951 C   0  0  0  0  0  0  0  0  0  0  0  0
  154.8298  134.8145  161.8104 N   0  0  0  0  0  0  0  0  0  0  0  0
  154.6059  133.5889  161.2096 C   0  0  0  0  0  0  0  0  0  0  0  0
  154.1889  132.4940  161.8818 C   0  0  0  0  0  0  0  0  0  0  0  0
  153.9470  132.5478  163.3178 C   0  0  0  0  0  0  0  0  0  0  0  0
  153.5583  131.5820  163.9766 O   0  0  0  0  0  0  0  0  0  0  0  0
  154.1895  133.8084  163.9096 N   0  0  0  0  0  0  0  0  0  0  0  0
  153.9572  133.9045  165.3359 C   0  0  0  0  0  0  0  0  0  0  0  0
  154.6220  134.9538  163.2004 C   0  0  0  0  0  0  0  0  0  0  0  0
  154.8155  136.0397  163.7517 O   0  0  0  0  0  0  0  0  0  0  0  0
  152.1576  140.1961  157.5685 H   0  0  0  0  0  0  0  0  0  0  0  0
  150.5057  140.2091  158.1801 H   0  0  0  0  0  0  0  0  0  0  0  0
  151.8412  139.8695  159.2700 H   0  0  0  0  0  0  0  0  0  0  0  0
  151.0268  142.1915  159.5919 H   0  0  0  0  0  0  0  0  0  0  0  0
  151.6991  142.5749  156.6420 H   0  0  0  0  0  0  0  0  0  0  0  0
  150.0968  142.5688  157.3361 H   0  0  0  0  0  0  0  0  0  0  0  0
  150.9118  144.8925  156.9542 H   0  0  0  0  0  0  0  0  0  0  0  0
  150.5952  144.5991  158.6477 H   0  0  0  0  0  0  0  0  0  0  0  0
  153.3369  144.5515  157.2932 H   0  0  0  0  0  0  0  0  0  0  0  0
  152.7541  145.7769  158.3951 H   0  0  0  0  0  0  0  0  0  0  0  0
  154.2574  144.1688  159.5474 H   0  0  0  0  0  0  0  0  0  0  0  0
  152.6576  144.1464  160.2447 H   0  0  0  0  0  0  0  0  0  0  0  0
  153.7568  142.0955  158.2483 H   0  0  0  0  0  0  0  0  0  0  0  0
  154.0735  140.1817  158.9542 H   0  0  0  0  0  0  0  0  0  0  0  0
  155.2173  140.5107  160.2477 H   0  0  0  0  0  0  0  0  0  0  0  0
  153.1917  139.7340  161.8205 H   0  0  0  0  0  0  0  0  0  0  0  0
  152.6091  138.9670  160.3516 H   0  0  0  0  0  0  0  0  0  0  0  0
  155.3041  138.4319  161.5084 H   0  0  0  0  0  0  0  0  0  0  0  0
  155.7334  135.5864  160.0636 H   0  0  0  0  0  0  0  0  0  0  0  0
  156.0959  136.4689  161.5157 H   0  0  0  0  0  0  0  0  0  0  0  0
  154.7752  133.4988  160.1463 H   0  0  0  0  0  0  0  0  0  0  0  0
  154.0328  131.5667  161.3504 H   0  0  0  0  0  0  0  0  0  0  0  0
  154.2673  134.8734  165.7252 H   0  0  0  0  0  0  0  0  0  0  0  0
  154.5436  133.1198  165.8174 H   0  0  0  0  0  0  0  0  0  0  0  0
  152.8878  133.7570  165.4963 H   0  0  0  0  0  0  0  0  0  0  0  0
  1  2  1  0  0  0  0
  1 24  1  0  0  0  0
  1 25  1  0  0  0  0
  1 26  1  0  0  0  0
  2  7  1  0  0  0  0
  2  3  1  0  0  0  0
  2 27  1  0  0  0  0
  3  4  1  0  0  0  0
  3 28  1  0  0  0  0
  3 29  1  0  0  0  0
  4  5  1  0  0  0  0
  4 30  1  0  0  0  0
  4 31  1  0  0  0  0
  5  6  1  0  0  0  0
  5 32  1  0  0  0  0
  5 33  1  0  0  0  0
  6  7  1  0  0  0  0
  6 34  1  0  0  0  0
  6 35  1  0  0  0  0
  7  8  1  0  0  0  0
  7 36  1  0  0  0  0
  8  9  1  0  0  0  0
  9 10  1  0  0  0  0
  9 37  1  0  0  0  0
  9 38  1  0  0  0  0
 10 11  1  0  0  0  0
 10 39  1  0  0  0  0
 10 40  1  0  0  0  0
 11 12  1  0  0  0  0
 11 41  1  0  0  0  0
 12 13  2  0  0  0  0
 12 14  1  0  0  0  0
 14 15  1  0  0  0  0
 14 42  1  0  0  0  0
 14 43  1  0  0  0  0
 15 22  1  0  0  0  0
 15 16  1  0  0  0  0
 16 17  2  0  0  0  0
 16 44  1  0  0  0  0
 17 18  1  0  0  0  0
 17 45  1  0  0  0  0
 18 19  2  0  0  0  0
 18 20  1  0  0  0  0
 20 21  1  0  0  0  0
 20 22  1  0  0  0  0
 21 46  1  0  0  0  0
 21 47  1  0  0  0  0
 21 48  1  0  0  0  0
 22 23  2  0  0  0  0
M  END
> <s_m_source_file>
AV-unprocessed.smi

> <i_m_source_file_index>
2153

> <i_lp_mmshare_version>
43012

> <i_f3d_flags>
0

> <s_epik_input>
W0NIM11bQ0BASF0xW0NIMl1bQ0gyXVtDSDJdW0NIMl1bQ0BIXTFPW0NIMl1bQ0gyXVtOSF1DKD1PKVtDSDJdbjJbY0hdW2NIXWMoPU8pbihbQ0gzXSljMj1P

> <s_epik_cmdline>
J2VwaWtfcHl0aG9uJywgJy1waCcsICc3LjAnLCAnLXRuJywgJzgnLCAnLW1hJywgJzIwMCcsICctbWV0YWxfYmluZGluZycsICctaW1hZScsICc8aW5maWxlLm1hZT4nLCAnLW9tYWUnLCAnPG91dGZpbGUubWFlPic=

> <r_lp_tautomer_probability>
1

> <r_epik_Ionization_Penalty>
4.02205e-08

> <r_epik_Ionization_Penalty_Charging>
1.23606e-08

> <r_epik_Ionization_Penalty_Neutral>
2.78599e-08

> <r_epik_State_Penalty>
-0

> <r_epik_Charging_Adjusted_Penalty>
1.23606e-08

> <i_epik_Tot_Q>
0

> <i_epik_Tot_abs_Q>
0

> <r_epik_Metal_State_Penalty>
-0

> <b_epik_Metal_Only>
0

> <s_lp_Force_Field>
OPLS_2005

> <r_lp_Energy>
20.2875

> <b_lp_Chiralities_Consistent>
1

> <s_lp_Variant>
AV-unprocessed.smi:2153-1

> <Gold.Version>
5.8.1

> <Gold.Id.Protein>
6NUR|6NUR_protein|mol2

> <Gold.PLP.Fitness>
42.0454

> <Gold.PLP.PLP>
-41.2919

> <Gold.PLP.part.hbond>
-1.0000

> <Gold.PLP.part.metal>
0.0000

> <Gold.PLP.part.buried>
-5.2159

> <Gold.PLP.part.nonpolar>
-34.5785

> <Gold.PLP.part.repulsive>
0.0557

> <Gold.PLP.ligand.clash>
0.0000

> <Gold.PLP.ligand.torsion>
1.1564

> <Gold.PLP.Chemscore.Hbond>
1.0000

> <Gold.PLP.Chemscore.CHOScore>
0.0000

> <Gold.PLP.Chemscore.Metal>
0.0000

> <Gold.Chemscore.Hbonds>
donor molecule, donor type, donor heavy atom, donor atom, acceptor molecule, acceptor atom, score
      P1  H  6896  6909       L1    13  1.00

> <Gold.PLP.Chemscore.Internal.Correction>
0.0662

> <Gold.Rescore>
     Score         DG    S(hbond)    S(metal)    S(lipo)     H(rot)  DE(clash)    DE(int)     intcor
     15.24     -16.36       0.99        0.00     112.92       2.20       0.02       1.10       ----

> <Gold.Chemscore.Fitness>
15.2369

> <Gold.Chemscore.DG>
-16.3624

> <Gold.Chemscore.ZeroCoef>
-5.4800

> <Gold.Chemscore.Hbond>
0.9863

> <Gold.Chemscore.Metal>
0.0000

> <Gold.Chemscore.Lipo>
112.9210

> <Gold.Chemscore.Internal_Hbond>
0.0000

> <Gold.Chemscore.DEClash>
0.0215

> <Gold.Chemscore.DEInternal>
1.1040

> <Gold.Chemscore.Rot>
2.1968

> <Gold.Chemscore.Internal.Correction>
   9.000000E+99

> <Gold.Chemscore.Hbonds>
donor molecule, donor type, donor heavy atom, donor atom, acceptor molecule, acceptor atom, score
      P1  H  6896  6909       L1    13  1.00

> <Gold.Chemscore.Hbond.Weighted>
-3.2944

> <Gold.Chemscore.Metal.Weighted>
-0.0000

> <Gold.Chemscore.Lipo.Weighted>
-13.2118

> <Gold.Chemscore.Internal_Hbond.Weighted>
0.0000

> <Gold.Chemscore.DEClash.Weighted>
0.0215

> <Gold.Chemscore.DEInternal.Weighted>
1.1040

> <Gold.Chemscore.Rot.Weighted>
5.6238

> <Gold.Chemscore.Internal.Correction.Weighted>
   9.000000E+99

> <Gold.Protein.RotatedTorsions>
[ 6907 6896 6895 6894 ] final  155.94 input  -60.11 | X-H torsion
[ 7974 7965 7964 7962 ] final   91.11 input  175.53 | X-H torsion
[ 8008 7997 7996 7995 ] final  142.77 input   59.86 | X-H torsion
[ 10167 10162 10161 10158 ] final  -22.18 input  -65.29 | X-H torsion
[ 10718 10713 10712 10709 ] final  115.75 input   66.30 | X-H torsion
[ 10763 10752 10751 10750 ] final -178.68 input  -60.55 | X-H torsion
[ 11005 11000 10999 10996 ] final  109.89 input  -57.11 | X-H torsion

> <Gold.Protein.ActiveResidues>
 VAL166  LYS551  ARG553  GLY616  TRP617  ASP618  TYR619  PRO620  LYS621  CYS622 
 ASP623  PHE694  ASN695  SER759  ASP760  ASP761  ALA762  ILE779  LEU786  VAL792 
 PHE793  MET794  SER795  GLU796  ALA797  LYS798  CYS799  TRP800  GLU811  SER814 

> <Gold.Protein.RotatedAtoms>
  152.0369  133.3961  159.4320 H   0  0  0  0  0  0  0  0  0  0  0  0  # atno 6907 bound_to 6896
  150.6878  134.3458  159.4897 H   0  0  0  0  0  0  0  0  0  0  0  0  # atno 6908 bound_to 6896
  152.1252  134.9176  160.0612 H   0  0  0  0  0  0  0  0  0  0  0  0  # atno 6909 bound_to 6896
  145.5101  139.2277  143.2729 H   0  0  0  0  0  0  0  0  0  0  0  0  # atno 7974 bound_to 7965
  156.2943  140.2280  156.4782 H   0  0  0  0  0  0  0  0  0  0  0  0  # atno 8008 bound_to 7997
  154.7875  140.0456  157.1197 H   0  0  0  0  0  0  0  0  0  0  0  0  # atno 8009 bound_to 7997
  154.9684  140.3063  155.5002 H   0  0  0  0  0  0  0  0  0  0  0  0  # atno 8010 bound_to 7997
  140.7285  143.4558  151.0450 H   0  0  0  0  0  0  0  0  0  0  0  0  # atno 10167 bound_to 10162
  157.6203  131.1016  150.7375 H   0  0  0  0  0  0  0  0  0  0  0  0  # atno 10718 bound_to 10713
  154.5446  135.2808  155.1064 H   0  0  0  0  0  0  0  0  0  0  0  0  # atno 10763 bound_to 10752
  154.2533  135.6335  153.5252 H   0  0  0  0  0  0  0  0  0  0  0  0  # atno 10764 bound_to 10752
  152.9987  135.5588  154.5995 H   0  0  0  0  0  0  0  0  0  0  0  0  # atno 10765 bound_to 10752
  139.8871  134.9470  156.6195 H   0  0  0  0  0  0  0  0  0  0  0  0  # atno 11005 bound_to 11000
  146.2172  140.5907  142.9033 LP  0  0  0  0  0  0  0  0  0  0  0  0  # atno 17320 bound_to 7965
  144.7732  140.5683  143.6656 LP  0  0  0  0  0  0  0  0  0  0  0  0  # atno 17321 bound_to 7965
  139.8239  143.7783  152.3178 LP  0  0  0  0  0  0  0  0  0  0  0  0  # atno 17342 bound_to 10162
  139.7875  144.7422  151.0002 LP  0  0  0  0  0  0  0  0  0  0  0  0  # atno 17343 bound_to 10162
  156.7734  130.4836  149.5414 LP  0  0  0  0  0  0  0  0  0  0  0  0  # atno 17370 bound_to 10713
  156.1345  130.6201  151.0380 LP  0  0  0  0  0  0  0  0  0  0  0  0  # atno 17371 bound_to 10713
  140.7750  133.8707  155.8522 LP  0  0  0  0  0  0  0  0  0  0  0  0  # atno 17394 bound_to 11000
  140.9809  134.1407  157.4495 LP  0  0  0  0  0  0  0  0  0  0  0  0  # atno 17395 bound_to 11000

$$$$
