AV-unprocessed.smi:884|AV-procd|sdf|4042|dock7
  -GOLD-   22720 1533D 1   1.00000     0.00000
 Structure written by MMmdl.
 47 49  0  0  0  0  0  0  0  0  1 V2000
  147.2956  136.5402  155.2829 O   0  0  0  0  0  0  0  0  0  0  0  0
  146.7523  137.4652  154.6774 C   0  0  0  0  0  0  0  0  0  0  0  0
  145.8968  137.2527  153.6619 N   0  0  0  0  0  0  0  0  0  0  0  0
  145.5470  135.9516  153.0966 C   0  0  0  0  0  0  0  0  0  0  0  0
  145.4026  136.0003  151.5635 C   0  0  0  0  0  0  0  0  0  0  0  0
  145.2802  134.6336  150.9086 C   0  0  0  0  0  0  0  0  0  0  0  0
  144.1371  134.3014  150.1513 C   0  0  0  0  0  0  0  0  0  0  0  0
  144.0616  133.0170  149.5785 C   0  0  0  0  0  0  0  0  0  0  0  0
  145.1279  132.1198  149.7811 C   0  0  0  0  0  0  0  0  0  0  0  0
  146.2251  132.5471  150.5548 C   0  0  0  0  0  0  0  0  0  0  0  0
  146.3040  133.7735  151.1148 N   0  0  0  0  0  0  0  0  0  0  0  0
  146.9789  138.7726  154.9672 N   0  0  0  0  0  0  0  0  0  0  0  0
  146.4940  139.9287  154.1978 C   0  0  0  0  0  0  0  0  0  0  0  0
  147.6413  140.4655  153.3322 C   0  0  0  0  0  0  0  0  0  0  0  0
  149.0155  141.0561  154.3684 S   0  0  0  0  0  0  0  0  0  0  0  0
  149.2693  139.6350  155.4998 C   0  0  0  0  0  0  0  0  0  0  0  0
  149.9900  138.4728  154.7652 C   0  0  0  0  0  0  0  0  0  0  0  0
  151.4421  138.7986  154.3750 C   0  0  0  0  0  0  0  0  0  0  0  0
  152.2624  139.2314  155.5968 C   0  0  0  0  0  0  0  0  0  0  0  0
  151.5961  140.4143  156.3115 C   0  0  0  0  0  0  0  0  0  0  0  0
  150.1419  140.0868  156.6978 C   0  0  0  0  0  0  0  0  0  0  0  0
  147.8869  139.1854  156.0482 C   0  0  0  0  0  0  0  0  0  0  0  0
  145.4915  138.0626  153.2160 H   0  0  0  0  0  0  0  0  0  0  0  0
  146.2868  135.1959  153.3657 H   0  0  0  0  0  0  0  0  0  0  0  0
  144.6077  135.6244  153.5424 H   0  0  0  0  0  0  0  0  0  0  0  0
  144.5298  136.5975  151.2975 H   0  0  0  0  0  0  0  0  0  0  0  0
  146.2614  136.5205  151.1362 H   0  0  0  0  0  0  0  0  0  0  0  0
  143.3336  135.0109  150.0175 H   0  0  0  0  0  0  0  0  0  0  0  0
  143.2010  132.7254  148.9944 H   0  0  0  0  0  0  0  0  0  0  0  0
  145.1039  131.1265  149.3580 H   0  0  0  0  0  0  0  0  0  0  0  0
  147.0567  131.8826  150.7378 H   0  0  0  0  0  0  0  0  0  0  0  0
  145.6318  139.7008  153.5709 H   0  0  0  0  0  0  0  0  0  0  0  0
  146.1455  140.7074  154.8775 H   0  0  0  0  0  0  0  0  0  0  0  0
  148.0046  139.6939  152.6540 H   0  0  0  0  0  0  0  0  0  0  0  0
  147.2935  141.2929  152.7136 H   0  0  0  0  0  0  0  0  0  0  0  0
  149.9940  137.5902  155.4065 H   0  0  0  0  0  0  0  0  0  0  0  0
  149.4417  138.1858  153.8704 H   0  0  0  0  0  0  0  0  0  0  0  0
  151.9028  137.9255  153.9129 H   0  0  0  0  0  0  0  0  0  0  0  0
  151.4586  139.5863  153.6212 H   0  0  0  0  0  0  0  0  0  0  0  0
  152.3593  138.3935  156.2882 H   0  0  0  0  0  0  0  0  0  0  0  0
  153.2738  139.5007  155.2913 H   0  0  0  0  0  0  0  0  0  0  0  0
  152.1650  140.6716  157.2053 H   0  0  0  0  0  0  0  0  0  0  0  0
  151.6247  141.2953  155.6695 H   0  0  0  0  0  0  0  0  0  0  0  0
  149.6911  140.9538  157.1827 H   0  0  0  0  0  0  0  0  0  0  0  0
  150.1575  139.2976  157.4510 H   0  0  0  0  0  0  0  0  0  0  0  0
  147.4273  140.0015  156.6080 H   0  0  0  0  0  0  0  0  0  0  0  0
  148.0178  138.3888  156.7824 H   0  0  0  0  0  0  0  0  0  0  0  0
  1  2  2  0  0  0  0
  2  3  1  0  0  0  0
  2 12  1  0  0  0  0
  3  4  1  0  0  0  0
  3 23  1  0  0  0  0
  4  5  1  0  0  0  0
  4 24  1  0  0  0  0
  4 25  1  0  0  0  0
  5  6  1  0  0  0  0
  5 26  1  0  0  0  0
  5 27  1  0  0  0  0
  6 11  1  0  0  0  0
  6  7  2  0  0  0  0
  7  8  1  0  0  0  0
  7 28  1  0  0  0  0
  8  9  2  0  0  0  0
  8 29  1  0  0  0  0
  9 10  1  0  0  0  0
  9 30  1  0  0  0  0
 10 11  2  0  0  0  0
 10 31  1  0  0  0  0
 12 22  1  0  0  0  0
 12 13  1  0  0  0  0
 13 14  1  0  0  0  0
 13 32  1  0  0  0  0
 13 33  1  0  0  0  0
 14 15  1  0  0  0  0
 14 34  1  0  0  0  0
 14 35  1  0  0  0  0
 15 16  1  0  0  0  0
 16 21  1  0  0  0  0
 16 17  1  0  0  0  0
 16 22  1  0  0  0  0
 17 18  1  0  0  0  0
 17 36  1  0  0  0  0
 17 37  1  0  0  0  0
 18 19  1  0  0  0  0
 18 38  1  0  0  0  0
 18 39  1  0  0  0  0
 19 20  1  0  0  0  0
 19 40  1  0  0  0  0
 19 41  1  0  0  0  0
 20 21  1  0  0  0  0
 20 42  1  0  0  0  0
 20 43  1  0  0  0  0
 21 44  1  0  0  0  0
 21 45  1  0  0  0  0
 22 46  1  0  0  0  0
 22 47  1  0  0  0  0
M  END
> <s_m_source_file>
AV-unprocessed.smi

> <i_m_source_file_index>
884

> <i_lp_mmshare_version>
43012

> <i_f3d_flags>
0

> <s_epik_input>
bjFbY0hdW2NIXVtjSF1bY0hdYzFbQ0gyXVtDSDJdW05IXUMoPU8pTihbQ0gyXTIpW0NIMl1bQ0gyXVNDMjNbQ0gyXVtDSDJdW0NIMl1bQ0gyXVtDSDJdMw==

> <s_epik_cmdline>
J2VwaWtfcHl0aG9uJywgJy1waCcsICc3LjAnLCAnLXRuJywgJzgnLCAnLW1hJywgJzIwMCcsICctbWV0YWxfYmluZGluZycsICctaW1hZScsICc8aW5maWxlLm1hZT4nLCAnLW9tYWUnLCAnPG91dGZpbGUubWFlPic=

> <r_epik_Ionization_Penalty>
0.0449137

> <r_epik_Ionization_Penalty_Charging>
0

> <r_epik_Ionization_Penalty_Neutral>
0.0449137

> <r_epik_State_Penalty>
0.0380475

> <r_epik_Charging_Adjusted_Penalty>
0.0380475

> <i_epik_Tot_Q>
0

> <i_epik_Tot_abs_Q>
0

> <r_epik_Metal_State_Penalty>
0.0353559

> <b_epik_Metal_Only>
0

> <s_lp_Force_Field>
OPLS_2005

> <r_lp_Energy>
30.1612

> <b_lp_Chiralities_Consistent>
1

> <s_lp_Variant>
AV-unprocessed.smi:884-1

> <Gold.Version>
5.8.1

> <Gold.Id.Protein>
6NUR|6NUR_protein|mol2

> <Gold.PLP.Fitness>
37.2649

> <Gold.PLP.PLP>
-34.6209

> <Gold.PLP.part.hbond>
0.0000

> <Gold.PLP.part.metal>
0.0000

> <Gold.PLP.part.buried>
-2.1005

> <Gold.PLP.part.nonpolar>
-33.6217

> <Gold.PLP.part.repulsive>
0.2596

> <Gold.PLP.ligand.clash>
0.0000

> <Gold.PLP.ligand.torsion>
0.1884

> <Gold.PLP.Chemscore.Hbond>
0.0000

> <Gold.PLP.Chemscore.CHOScore>
1.0000

> <Gold.PLP.Chemscore.Metal>
0.0000

> <Gold.Chemscore.Hbonds>
donor molecule, donor type, donor heavy atom, donor atom, acceptor molecule, acceptor atom, score
      L1  C    10    31       P1 10747  1.00

> <Gold.PLP.Chemscore.Internal.Correction>
0.0208

> <Gold.Rescore>
     Score         DG    S(hbond)    S(metal)    S(lipo)     H(rot)  DE(clash)    DE(int)     intcor
     14.79     -15.01       0.00        0.00     108.35       1.23       0.05       0.18       ----

> <Gold.Chemscore.Fitness>
14.7872

> <Gold.Chemscore.DG>
-15.0138

> <Gold.Chemscore.ZeroCoef>
-5.4800

> <Gold.Chemscore.Hbond>
0.0000

> <Gold.Chemscore.Metal>
0.0000

> <Gold.Chemscore.Lipo>
108.3464

> <Gold.Chemscore.Internal_Hbond>
0.0000

> <Gold.Chemscore.DEClash>
0.0466

> <Gold.Chemscore.DEInternal>
0.1800

> <Gold.Chemscore.Rot>
1.2276

> <Gold.Chemscore.Internal.Correction>
   9.000000E+99

> <Gold.Chemscore.Hbond.Weighted>
-0.0000

> <Gold.Chemscore.Metal.Weighted>
-0.0000

> <Gold.Chemscore.Lipo.Weighted>
-12.6765

> <Gold.Chemscore.Internal_Hbond.Weighted>
0.0000

> <Gold.Chemscore.DEClash.Weighted>
0.0466

> <Gold.Chemscore.DEInternal.Weighted>
0.1800

> <Gold.Chemscore.Rot.Weighted>
3.1427

> <Gold.Chemscore.Internal.Correction.Weighted>
   9.000000E+99

> <Gold.Protein.RotatedTorsions>
[ 6907 6896 6895 6894 ] final   91.39 input  -60.11 | X-H torsion
[ 7974 7965 7964 7962 ] final  153.42 input  175.53 | X-H torsion
[ 8008 7997 7996 7995 ] final   60.03 input   59.86 | X-H torsion
[ 10167 10162 10161 10158 ] final -137.13 input  -65.29 | X-H torsion
[ 10718 10713 10712 10709 ] final -128.01 input   66.30 | X-H torsion
[ 10763 10752 10751 10750 ] final  -71.69 input  -60.55 | X-H torsion
[ 11005 11000 10999 10996 ] final  144.85 input  -57.11 | X-H torsion

> <Gold.Protein.ActiveResidues>
 VAL166  LYS551  ARG553  GLY616  TRP617  ASP618  TYR619  PRO620  LYS621  CYS622 
 ASP623  PHE694  ASN695  SER759  ASP760  ASP761  ALA762  ILE779  LEU786  VAL792 
 PHE793  MET794  SER795  GLU796  ALA797  LYS798  CYS799  TRP800  GLU811  SER814 

> <Gold.Protein.RotatedAtoms>
  152.5450  134.1664  159.8578 H   0  0  0  0  0  0  0  0  0  0  0  0  # atno 6907 bound_to 6896
  151.1678  133.4797  159.2601 H   0  0  0  0  0  0  0  0  0  0  0  0  # atno 6908 bound_to 6896
  151.1306  135.0139  159.8636 H   0  0  0  0  0  0  0  0  0  0  0  0  # atno 6909 bound_to 6896
  144.8156  139.6798  143.6123 H   0  0  0  0  0  0  0  0  0  0  0  0  # atno 7974 bound_to 7965
  155.5757  140.3490  155.4527 H   0  0  0  0  0  0  0  0  0  0  0  0  # atno 8008 bound_to 7997
  156.0411  140.1296  157.0180 H   0  0  0  0  0  0  0  0  0  0  0  0  # atno 8009 bound_to 7997
  154.4392  140.1024  156.6224 H   0  0  0  0  0  0  0  0  0  0  0  0  # atno 8010 bound_to 7997
  139.8608  143.7079  152.2650 H   0  0  0  0  0  0  0  0  0  0  0  0  # atno 10167 bound_to 10162
  156.1910  130.6795  151.0424 H   0  0  0  0  0  0  0  0  0  0  0  0  # atno 10718 bound_to 10713
  154.4353  135.5954  153.6094 H   0  0  0  0  0  0  0  0  0  0  0  0  # atno 10763 bound_to 10752
  152.9801  135.5985  154.3789 H   0  0  0  0  0  0  0  0  0  0  0  0  # atno 10764 bound_to 10752
  154.3632  135.2841  155.2287 H   0  0  0  0  0  0  0  0  0  0  0  0  # atno 10765 bound_to 10752
  140.0665  134.9176  157.1273 H   0  0  0  0  0  0  0  0  0  0  0  0  # atno 11005 bound_to 11000
  146.2459  139.6096  142.9460 LP  0  0  0  0  0  0  0  0  0  0  0  0  # atno 17320 bound_to 7965
  145.5222  141.0431  143.2429 LP  0  0  0  0  0  0  0  0  0  0  0  0  # atno 17321 bound_to 7965
  139.7375  144.7567  151.0704 LP  0  0  0  0  0  0  0  0  0  0  0  0  # atno 17342 bound_to 10162
  140.7775  143.5012  150.9768 LP  0  0  0  0  0  0  0  0  0  0  0  0  # atno 17343 bound_to 10162
  157.6929  131.0804  150.7055 LP  0  0  0  0  0  0  0  0  0  0  0  0  # atno 17370 bound_to 10713
  156.7111  130.4652  149.5547 LP  0  0  0  0  0  0  0  0  0  0  0  0  # atno 17371 bound_to 10713
  140.3691  134.2410  155.7179 LP  0  0  0  0  0  0  0  0  0  0  0  0  # atno 17394 bound_to 11000
  141.1995  133.8011  157.0535 LP  0  0  0  0  0  0  0  0  0  0  0  0  # atno 17395 bound_to 11000

$$$$
