AV-unprocessed.smi:999|AV-procd|sdf|4354|dock3
  -GOLD-   22720 2253D 1   1.00000     0.00000
 Structure written by MMmdl.
 37 38  0  0  0  0  0  0  0  0  2 V2000
  152.9967  142.6081  161.6752 C   0  0  0  0  0  0  0  0  0  0  0  0
  153.1156  142.3588  160.1575 C   0  0  1  0  0  0  0  0  0  0  0  0
  152.7955  140.9077  159.7645 C   0  0  0  0  0  0  0  0  0  0  0  0
  153.4309  139.9690  160.2466 O   0  0  0  0  0  0  0  0  0  0  0  0
  151.8021  140.7428  158.8768 N   0  0  0  0  0  0  0  0  0  0  0  0
  151.3279  139.4631  158.3607 C   0  0  2  0  0  0  0  0  0  0  0  0
  152.4983  138.6574  157.7594 C   0  0  0  0  0  0  0  0  0  0  0  0
  152.0082  137.3494  157.1101 C   0  0  0  0  0  0  0  0  0  0  0  0
  150.9175  137.5945  156.0386 C   0  0  2  0  0  0  0  0  0  0  0  0
  151.4756  138.2548  154.7556 C   0  0  0  0  0  0  0  0  0  0  0  0
  151.0179  139.3723  154.4285 O   0  0  0  0  0  0  0  0  0  0  0  0
  152.3314  137.6234  154.0966 O   0  5  0  0  0  0  0  0  0  0  0  0
  149.7520  138.3994  156.6639 C   0  0  0  0  0  0  0  0  0  0  0  0
  150.2271  139.7134  157.3122 C   0  0  0  0  0  0  0  0  0  0  0  0
  152.3034  143.2852  159.3765 N   0  0  0  0  0  0  0  0  0  0  0  0
  152.7290  144.1865  158.4214 C   0  0  0  0  0  0  0  0  0  0  0  0
  151.6221  144.8113  157.9228 C   0  0  0  0  0  0  0  0  0  0  0  0
  150.5463  144.2082  158.6313 C   0  0  0  0  0  0  0  0  0  0  0  0
  150.9546  143.2906  159.4920 N   0  0  0  0  0  0  0  0  0  0  0  0
  153.6650  141.9513  162.2333 H   0  0  0  0  0  0  0  0  0  0  0  0
  151.9840  142.4369  162.0427 H   0  0  0  0  0  0  0  0  0  0  0  0
  153.2679  143.6351  161.9222 H   0  0  0  0  0  0  0  0  0  0  0  0
  154.1566  142.5427  159.8863 H   0  0  0  0  0  0  0  0  0  0  0  0
  151.3376  141.5688  158.5286 H   0  0  0  0  0  0  0  0  0  0  0  0
  150.8888  138.8876  159.1780 H   0  0  0  0  0  0  0  0  0  0  0  0
  153.0232  139.2629  157.0193 H   0  0  0  0  0  0  0  0  0  0  0  0
  153.2295  138.4242  158.5339 H   0  0  0  0  0  0  0  0  0  0  0  0
  152.8532  136.8001  156.6933 H   0  0  0  0  0  0  0  0  0  0  0  0
  151.5990  136.7026  157.8868 H   0  0  0  0  0  0  0  0  0  0  0  0
  150.5291  136.6250  155.7244 H   0  0  0  0  0  0  0  0  0  0  0  0
  148.9764  138.6073  155.9258 H   0  0  0  0  0  0  0  0  0  0  0  0
  149.2688  137.7851  157.4242 H   0  0  0  0  0  0  0  0  0  0  0  0
  149.3787  140.2156  157.7786 H   0  0  0  0  0  0  0  0  0  0  0  0
  150.5956  140.3915  156.5409 H   0  0  0  0  0  0  0  0  0  0  0  0
  153.7748  144.3066  158.1784 H   0  0  0  0  0  0  0  0  0  0  0  0
  151.5855  145.5778  157.1632 H   0  0  0  0  0  0  0  0  0  0  0  0
  149.4881  144.4048  158.5428 H   0  0  0  0  0  0  0  0  0  0  0  0
  1  2  1  0  0  0  0
  1 20  1  0  0  0  0
  1 21  1  0  0  0  0
  1 22  1  0  0  0  0
  2  3  1  0  0  0  0
  2 15  1  0  0  0  0
  2 23  1  0  0  0  0
  3  4  2  0  0  0  0
  3  5  1  0  0  0  0
  5  6  1  0  0  0  0
  5 24  1  0  0  0  0
  6 14  1  0  0  0  0
  6  7  1  0  0  0  0
  6 25  1  0  0  0  0
  7  8  1  0  0  0  0
  7 26  1  0  0  0  0
  7 27  1  0  0  0  0
  8  9  1  0  0  0  0
  8 28  1  0  0  0  0
  8 29  1  0  0  0  0
  9 10  1  0  0  0  0
  9 13  1  0  0  0  0
  9 30  1  0  0  0  0
 10 11  2  0  0  0  0
 10 12  1  0  0  0  0
 13 14  1  0  0  0  0
 13 31  1  0  0  0  0
 13 32  1  0  0  0  0
 14 33  1  0  0  0  0
 14 34  1  0  0  0  0
 15 19  1  0  0  0  0
 15 16  1  0  0  0  0
 16 17  2  0  0  0  0
 16 35  1  0  0  0  0
 17 18  1  0  0  0  0
 17 36  1  0  0  0  0
 18 19  2  0  0  0  0
 18 37  1  0  0  0  0
M  CHG  1  12  -1
M  END
> <s_m_source_file>
AV-unprocessed.smi

> <i_m_source_file_index>
999

> <i_lp_mmshare_version>
43012

> <i_f3d_flags>
0

> <s_epik_input>
bjFbY0hdW2NIXVtjSF1uMVtDQEhdKFtDSDNdKUMoPU8pW05IXVtDQEBIXTJbQ0gyXVtDSDJdW0NAQEhdKEMoPU8pW09IXSlbQ0gyXVtDSDJdMg==

> <s_epik_cmdline>
J2VwaWtfcHl0aG9uJywgJy1waCcsICc3LjAnLCAnLXRuJywgJzgnLCAnLW1hJywgJzIwMCcsICctbWV0YWxfYmluZGluZycsICctaW1hZScsICc8aW5maWxlLm1hZT4nLCAnLW9tYWUnLCAnPG91dGZpbGUubWFlPic=

> <r_lp_tautomer_probability>
1

> <r_epik_Ionization_Penalty>
0.00221712

> <r_epik_Ionization_Penalty_Charging>
0.00217268

> <r_epik_Ionization_Penalty_Neutral>
4.44343e-05

> <r_epik_State_Penalty>
0.0014925

> <r_epik_Charging_Adjusted_Penalty>
0.00366518

> <i_epik_Tot_Q>
-1

> <i_epik_Tot_abs_Q>
1

> <r_epik_Metal_State_Penalty>
-0

> <b_epik_Metal_Only>
0

> <s_lp_Force_Field>
OPLS_2005

> <r_lp_Energy>
8.81329

> <b_lp_Chiralities_Consistent>
1

> <s_lp_Variant>
AV-unprocessed.smi:999-4

> <Gold.Version>
5.8.1

> <Gold.Id.Protein>
6NUR|6NUR_protein|mol2

> <Gold.PLP.Fitness>
46.8450

> <Gold.PLP.PLP>
-36.1206

> <Gold.PLP.part.hbond>
-2.0000

> <Gold.PLP.part.metal>
0.0000

> <Gold.PLP.part.buried>
-6.4410

> <Gold.PLP.part.nonpolar>
-27.9226

> <Gold.PLP.part.repulsive>
0.4731

> <Gold.PLP.ligand.clash>
0.0000

> <Gold.PLP.ligand.torsion>
0.1185

> <Gold.PLP.Chemscore.Hbond>
2.6000

> <Gold.PLP.Chemscore.CHOScore>
1.0061

> <Gold.PLP.Chemscore.Metal>
0.0000

> <Gold.Chemscore.Hbonds>
donor molecule, donor type, donor heavy atom, donor atom, acceptor molecule, acceptor atom, score
      P1  H  7989  7998       L1    11  1.00
      P1  H 10752 10764       L1    12  1.50
      L1  C    18    37       P1  8029  0.96

> <Gold.PLP.Chemscore.Internal.Correction>
0.1429

> <Gold.Rescore>
     Score         DG    S(hbond)    S(metal)    S(lipo)     H(rot)  DE(clash)    DE(int)     intcor
     12.34     -16.26       1.83        0.00      83.21       1.98       0.21       3.72       ----

> <Gold.Chemscore.Fitness>
12.3379

> <Gold.Chemscore.DG>
-16.2643

> <Gold.Chemscore.ZeroCoef>
-5.4800

> <Gold.Chemscore.Hbond>
1.8295

> <Gold.Chemscore.Metal>
0.0000

> <Gold.Chemscore.Lipo>
83.2135

> <Gold.Chemscore.Internal_Hbond>
0.0000

> <Gold.Chemscore.DEClash>
0.2109

> <Gold.Chemscore.DEInternal>
3.7155

> <Gold.Chemscore.Rot>
1.9774

> <Gold.Chemscore.Internal.Correction>
   9.000000E+99

> <Gold.Chemscore.Hbonds>
donor molecule, donor type, donor heavy atom, donor atom, acceptor molecule, acceptor atom, score
      P1  H  7989  7998       L1    11  1.00
      P1  H 10752 10764       L1    12  0.69

> <Gold.Chemscore.Hbond.Weighted>
-6.1104

> <Gold.Chemscore.Metal.Weighted>
-0.0000

> <Gold.Chemscore.Lipo.Weighted>
-9.7360

> <Gold.Chemscore.Internal_Hbond.Weighted>
0.0000

> <Gold.Chemscore.DEClash.Weighted>
0.2109

> <Gold.Chemscore.DEInternal.Weighted>
3.7155

> <Gold.Chemscore.Rot.Weighted>
5.0620

> <Gold.Chemscore.Internal.Correction.Weighted>
   9.000000E+99

> <Gold.Protein.RotatedTorsions>
[ 6907 6896 6895 6894 ] final -131.85 input  -60.11 | X-H torsion
[ 7974 7965 7964 7962 ] final  155.87 input  175.53 | X-H torsion
[ 8008 7997 7996 7995 ] final  157.43 input   59.86 | X-H torsion
[ 10167 10162 10161 10158 ] final -115.64 input  -65.29 | X-H torsion
[ 10718 10713 10712 10709 ] final  115.28 input   66.30 | X-H torsion
[ 10763 10752 10751 10750 ] final  -90.53 input  -60.55 | X-H torsion
[ 11005 11000 10999 10996 ] final   89.46 input  -57.11 | X-H torsion

> <Gold.Protein.ActiveResidues>
 VAL166  LYS551  ARG553  GLY616  TRP617  ASP618  TYR619  PRO620  LYS621  CYS622 
 ASP623  PHE694  ASN695  SER759  ASP760  ASP761  ALA762  ILE779  LEU786  VAL792 
 PHE793  MET794  SER795  GLU796  ALA797  LYS798  CYS799  TRP800  GLU811  SER814 

> <Gold.Protein.RotatedAtoms>
  150.9556  133.6501  159.2763 H   0  0  0  0  0  0  0  0  0  0  0  0  # atno 6907 bound_to 6896
  151.3841  135.0944  159.9515 H   0  0  0  0  0  0  0  0  0  0  0  0  # atno 6908 bound_to 6896
  152.5127  133.9084  159.7530 H   0  0  0  0  0  0  0  0  0  0  0  0  # atno 6909 bound_to 6896
  144.7998  139.7126  143.6186 H   0  0  0  0  0  0  0  0  0  0  0  0  # atno 7974 bound_to 7965
  156.2364  140.1885  156.7107 H   0  0  0  0  0  0  0  0  0  0  0  0  # atno 8008 bound_to 7997
  154.6115  140.0621  156.9526 H   0  0  0  0  0  0  0  0  0  0  0  0  # atno 8009 bound_to 7997
  155.2009  140.3292  155.4346 H   0  0  0  0  0  0  0  0  0  0  0  0  # atno 8010 bound_to 7997
  140.0879  143.4727  152.1887 H   0  0  0  0  0  0  0  0  0  0  0  0  # atno 10167 bound_to 10162
  157.6231  131.1010  150.7307 H   0  0  0  0  0  0  0  0  0  0  0  0  # atno 10718 bound_to 10713
  154.6668  135.5301  153.8087 H   0  0  0  0  0  0  0  0  0  0  0  0  # atno 10763 bound_to 10752
  153.0476  135.6519  154.0787 H   0  0  0  0  0  0  0  0  0  0  0  0  # atno 10764 bound_to 10752
  154.0690  135.2955  155.3291 H   0  0  0  0  0  0  0  0  0  0  0  0  # atno 10765 bound_to 10752
  139.8875  134.8553  156.3146 H   0  0  0  0  0  0  0  0  0  0  0  0  # atno 11005 bound_to 11000
  146.2276  139.5753  142.9576 LP  0  0  0  0  0  0  0  0  0  0  0  0  # atno 17320 bound_to 7965
  145.5581  141.0407  143.2241 LP  0  0  0  0  0  0  0  0  0  0  0  0  # atno 17321 bound_to 7965
  139.5741  144.7478  151.3811 LP  0  0  0  0  0  0  0  0  0  0  0  0  # atno 17342 bound_to 10162
  140.7044  143.7551  150.7456 LP  0  0  0  0  0  0  0  0  0  0  0  0  # atno 17343 bound_to 10162
  156.7661  130.4814  149.5427 LP  0  0  0  0  0  0  0  0  0  0  0  0  # atno 17370 bound_to 10713
  156.1387  130.6229  151.0437 LP  0  0  0  0  0  0  0  0  0  0  0  0  # atno 17371 bound_to 10713
  140.9828  133.7257  156.0697 LP  0  0  0  0  0  0  0  0  0  0  0  0  # atno 17394 bound_to 11000
  140.7728  134.3814  157.5504 LP  0  0  0  0  0  0  0  0  0  0  0  0  # atno 17395 bound_to 11000

$$$$
