AV-unprocessed.smi:2322|AV-procd|sdf|9286|dock5
  -GOLD-   2272012513D 1   1.00000     0.00000
 Structure written by MMmdl.
 38 40  0  0  0  0  0  0  0  0  1 V2000
  147.5636  132.8000  152.2974 C   0  0  0  0  0  0  0  0  0  0  0  0
  148.4986  132.2667  153.2694 N   0  0  0  0  0  0  0  0  0  0  0  0
  148.5185  130.9449  153.5599 N   0  0  0  0  0  0  0  0  0  0  0  0
  149.4892  130.8588  154.4685 C   0  0  0  0  0  0  0  0  0  0  0  0
  150.1096  132.0312  154.7935 N   0  0  0  0  0  0  0  0  0  0  0  0
  149.4396  132.8677  154.0049 C   0  0  0  0  0  0  0  0  0  0  0  0
  149.6317  134.2766  153.8880 N   0  0  0  0  0  0  0  0  0  0  0  0
  150.2162  135.1663  154.7177 C   0  0  0  0  0  0  0  0  0  0  0  0
  150.7005  134.8095  155.7904 O   0  0  0  0  0  0  0  0  0  0  0  0
  150.2314  136.4432  154.3018 N   0  0  0  0  0  0  0  0  0  0  0  0
  150.7942  137.5705  155.0374 C   0  0  1  0  0  0  0  0  0  0  0  0
  152.1166  138.0345  154.4050 C   0  0  0  0  0  0  0  0  0  0  0  0
  152.6166  139.3212  155.0809 C   0  0  0  0  0  0  0  0  0  0  0  0
  151.6159  140.3318  155.0102 O   0  0  0  0  0  0  0  0  0  0  0  0
  150.4174  139.9840  155.6974 C   0  0  1  0  0  0  0  0  0  0  0  0
  149.4804  141.1742  155.6433 C   0  0  0  0  0  0  0  0  0  0  0  0
  147.9861  140.9796  155.5332 C   0  0  0  0  0  0  0  0  0  0  0  0
  148.7627  141.5317  154.3624 C   0  0  0  0  0  0  0  0  0  0  0  0
  149.7966  138.7374  155.0405 C   0  0  0  0  0  0  0  0  0  0  0  0
  148.1020  133.0957  151.3969 H   0  0  0  0  0  0  0  0  0  0  0  0
  147.0561  133.6710  152.7125 H   0  0  0  0  0  0  0  0  0  0  0  0
  146.8160  132.0507  152.0345 H   0  0  0  0  0  0  0  0  0  0  0  0
  149.7609  129.9136  154.9148 H   0  0  0  0  0  0  0  0  0  0  0  0
  149.2644  134.6776  153.0373 H   0  0  0  0  0  0  0  0  0  0  0  0
  149.8134  136.6480  153.4050 H   0  0  0  0  0  0  0  0  0  0  0  0
  150.9773  137.2734  156.0721 H   0  0  0  0  0  0  0  0  0  0  0  0
  152.8732  137.2535  154.4857 H   0  0  0  0  0  0  0  0  0  0  0  0
  151.9728  138.2217  153.3399 H   0  0  0  0  0  0  0  0  0  0  0  0
  152.8859  139.1342  156.1216 H   0  0  0  0  0  0  0  0  0  0  0  0
  153.5158  139.6810  154.5805 H   0  0  0  0  0  0  0  0  0  0  0  0
  150.6506  139.7726  156.7428 H   0  0  0  0  0  0  0  0  0  0  0  0
  149.8075  142.0167  156.2502 H   0  0  0  0  0  0  0  0  0  0  0  0
  147.6111  139.9614  155.4517 H   0  0  0  0  0  0  0  0  0  0  0  0
  147.3492  141.6680  156.0848 H   0  0  0  0  0  0  0  0  0  0  0  0
  148.6445  142.5884  154.1324 H   0  0  0  0  0  0  0  0  0  0  0  0
  148.9057  140.8801  153.5025 H   0  0  0  0  0  0  0  0  0  0  0  0
  149.5026  138.9749  154.0168 H   0  0  0  0  0  0  0  0  0  0  0  0
  148.8862  138.4498  155.5678 H   0  0  0  0  0  0  0  0  0  0  0  0
  1  2  1  0  0  0  0
  1 20  1  0  0  0  0
  1 21  1  0  0  0  0
  1 22  1  0  0  0  0
  2  6  1  0  0  0  0
  2  3  1  0  0  0  0
  3  4  2  0  0  0  0
  4  5  1  0  0  0  0
  4 23  1  0  0  0  0
  5  6  2  0  0  0  0
  6  7  1  0  0  0  0
  7  8  1  0  0  0  0
  7 24  1  0  0  0  0
  8  9  2  0  0  0  0
  8 10  1  0  0  0  0
 10 11  1  0  0  0  0
 10 25  1  0  0  0  0
 11 19  1  0  0  0  0
 11 12  1  0  0  0  0
 11 26  1  0  0  0  0
 12 13  1  0  0  0  0
 12 27  1  0  0  0  0
 12 28  1  0  0  0  0
 13 14  1  0  0  0  0
 13 29  1  0  0  0  0
 13 30  1  0  0  0  0
 14 15  1  0  0  0  0
 15 16  1  0  0  0  0
 15 19  1  0  0  0  0
 15 31  1  0  0  0  0
 16 18  1  0  0  0  0
 16 17  1  0  0  0  0
 16 32  1  0  0  0  0
 17 18  1  0  0  0  0
 17 33  1  0  0  0  0
 17 34  1  0  0  0  0
 18 35  1  0  0  0  0
 18 36  1  0  0  0  0
 19 37  1  0  0  0  0
 19 38  1  0  0  0  0
M  END
> <s_m_source_file>
AV-unprocessed.smi

> <i_m_source_file_index>
2322

> <i_lp_mmshare_version>
43012

> <i_f3d_flags>
0

> <s_epik_input>
W0NIM11uMW5bY0hdbmMxW05IXUMoPU8pW05IXVtDQEBIXTJbQ0gyXVtDSDJdT1tDQEhdKFtDSDJdMilbQ0hdM1tDSDJdW0NIMl0z

> <s_epik_cmdline>
J2VwaWtfcHl0aG9uJywgJy1waCcsICc3LjAnLCAnLXRuJywgJzgnLCAnLW1hJywgJzIwMCcsICctbWV0YWxfYmluZGluZycsICctaW1hZScsICc8aW5maWxlLm1hZT4nLCAnLW9tYWUnLCAnPG91dGZpbGUubWFlPic=

> <r_lp_tautomer_probability>
1

> <r_epik_Ionization_Penalty>
2.16399e-05

> <r_epik_Ionization_Penalty_Charging>
0

> <r_epik_Ionization_Penalty_Neutral>
2.16399e-05

> <r_epik_State_Penalty>
-0

> <r_epik_Charging_Adjusted_Penalty>
0

> <i_epik_Tot_Q>
0

> <i_epik_Tot_abs_Q>
0

> <r_epik_Metal_State_Penalty>
-0

> <b_epik_Metal_Only>
0

> <s_lp_Force_Field>
OPLS_2005

> <r_lp_Energy>
20.3548

> <b_lp_Chiralities_Consistent>
1

> <s_lp_Variant>
AV-unprocessed.smi:2322-2

> <Gold.Version>
5.8.1

> <Gold.Id.Protein>
6NUR|6NUR_protein|mol2

> <Gold.PLP.Fitness>
40.3793

> <Gold.PLP.PLP>
-33.1023

> <Gold.PLP.part.hbond>
-3.7148

> <Gold.PLP.part.metal>
0.0000

> <Gold.PLP.part.buried>
-1.6790

> <Gold.PLP.part.nonpolar>
-28.7215

> <Gold.PLP.part.repulsive>
0.2633

> <Gold.PLP.ligand.clash>
0.0000

> <Gold.PLP.ligand.torsion>
0.8056

> <Gold.PLP.Chemscore.Hbond>
2.6048

> <Gold.PLP.Chemscore.CHOScore>
0.0000

> <Gold.PLP.Chemscore.Metal>
0.0000

> <Gold.Chemscore.Hbonds>
donor molecule, donor type, donor heavy atom, donor atom, acceptor molecule, acceptor atom, score
      L1  H     7    24       P1  7948  0.30
      L1  H    10    25       P1  7948  1.00
      P1  H  7989  7998       L1    14  0.93

> <Gold.PLP.Chemscore.Internal.Correction>
1.0738

> <Gold.Rescore>
     Score         DG    S(hbond)    S(metal)    S(lipo)     H(rot)  DE(clash)    DE(int)     intcor
     14.94     -16.57       2.30        0.00      57.88       1.31       0.00       1.63       ----

> <Gold.Chemscore.Fitness>
14.9397

> <Gold.Chemscore.DG>
-16.5746

> <Gold.Chemscore.ZeroCoef>
-5.4800

> <Gold.Chemscore.Hbond>
2.2963

> <Gold.Chemscore.Metal>
0.0000

> <Gold.Chemscore.Lipo>
57.8764

> <Gold.Chemscore.Internal_Hbond>
0.0000

> <Gold.Chemscore.DEClash>
0.0013

> <Gold.Chemscore.DEInternal>
1.6336

> <Gold.Chemscore.Rot>
1.3072

> <Gold.Chemscore.Internal.Correction>
   9.000000E+99

> <Gold.Chemscore.Hbonds>
donor molecule, donor type, donor heavy atom, donor atom, acceptor molecule, acceptor atom, score
      L1  H    10    25       P1  7948  0.29
      P1  H  7989  7998       L1    14  0.48

> <Gold.Chemscore.Hbond.Weighted>
-7.6695

> <Gold.Chemscore.Metal.Weighted>
-0.0000

> <Gold.Chemscore.Lipo.Weighted>
-6.7715

> <Gold.Chemscore.Internal_Hbond.Weighted>
0.0000

> <Gold.Chemscore.DEClash.Weighted>
0.0013

> <Gold.Chemscore.DEInternal.Weighted>
1.6336

> <Gold.Chemscore.Rot.Weighted>
3.3464

> <Gold.Chemscore.Internal.Correction.Weighted>
   9.000000E+99

> <Gold.Protein.RotatedTorsions>
[ 6907 6896 6895 6894 ] final -125.86 input  -60.11 | X-H torsion
[ 7974 7965 7964 7962 ] final  -31.03 input  175.53 | X-H torsion
[ 8008 7997 7996 7995 ] final -153.39 input   59.86 | X-H torsion
[ 10167 10162 10161 10158 ] final   95.29 input  -65.29 | X-H torsion
[ 10718 10713 10712 10709 ] final  125.42 input   66.30 | X-H torsion
[ 10763 10752 10751 10750 ] final  -38.89 input  -60.55 | X-H torsion
[ 11005 11000 10999 10996 ] final   62.08 input  -57.11 | X-H torsion

> <Gold.Protein.ActiveResidues>
 VAL166  LYS551  ARG553  GLY616  TRP617  ASP618  TYR619  PRO620  LYS621  CYS622 
 ASP623  PHE694  ASN695  SER759  ASP760  ASP761  ALA762  ILE779  LEU786  VAL792 
 PHE793  MET794  SER795  GLU796  ALA797  LYS798  CYS799  TRP800  GLU811  SER814 

> <Gold.Protein.RotatedAtoms>
  150.8910  133.7243  159.2904 H   0  0  0  0  0  0  0  0  0  0  0  0  # atno 6907 bound_to 6896
  151.4793  135.1049  159.9783 H   0  0  0  0  0  0  0  0  0  0  0  0  # atno 6908 bound_to 6896
  152.4820  133.8231  159.7119 H   0  0  0  0  0  0  0  0  0  0  0  0  # atno 6909 bound_to 6896
  146.1098  140.5616  142.8783 H   0  0  0  0  0  0  0  0  0  0  0  0  # atno 7974 bound_to 7965
  155.6701  140.0732  157.2523 H   0  0  0  0  0  0  0  0  0  0  0  0  # atno 8008 bound_to 7997
  154.4125  140.1700  156.1921 H   0  0  0  0  0  0  0  0  0  0  0  0  # atno 8009 bound_to 7997
  155.9624  140.3369  155.6505 H   0  0  0  0  0  0  0  0  0  0  0  0  # atno 8010 bound_to 7997
  139.8002  144.6817  150.9775 H   0  0  0  0  0  0  0  0  0  0  0  0  # atno 10167 bound_to 10162
  157.5504  131.1094  150.8711 H   0  0  0  0  0  0  0  0  0  0  0  0  # atno 10718 bound_to 10713
  153.9203  135.6783  153.4748 H   0  0  0  0  0  0  0  0  0  0  0  0  # atno 10763 bound_to 10752
  153.1032  135.4818  154.8901 H   0  0  0  0  0  0  0  0  0  0  0  0  # atno 10764 bound_to 10752
  154.7481  135.3177  154.8564 H   0  0  0  0  0  0  0  0  0  0  0  0  # atno 10765 bound_to 10752
  140.0117  134.6287  155.9771 H   0  0  0  0  0  0  0  0  0  0  0  0  # atno 11005 bound_to 11000
  144.7502  140.5171  143.6807 LP  0  0  0  0  0  0  0  0  0  0  0  0  # atno 17320 bound_to 7965
  145.5686  139.1482  143.3301 LP  0  0  0  0  0  0  0  0  0  0  0  0  # atno 17321 bound_to 7965
  140.7820  143.4289  151.0725 LP  0  0  0  0  0  0  0  0  0  0  0  0  # atno 17342 bound_to 10162
  139.7961  143.8149  152.3158 LP  0  0  0  0  0  0  0  0  0  0  0  0  # atno 17343 bound_to 10162
  156.9237  130.5324  149.5279 LP  0  0  0  0  0  0  0  0  0  0  0  0  # atno 17370 bound_to 10713
  156.0572  130.5631  150.9117 LP  0  0  0  0  0  0  0  0  0  0  0  0  # atno 17371 bound_to 10713
  141.1715  133.6537  156.4670 LP  0  0  0  0  0  0  0  0  0  0  0  0  # atno 17394 bound_to 11000
  140.4543  134.6900  157.5055 LP  0  0  0  0  0  0  0  0  0  0  0  0  # atno 17395 bound_to 11000

$$$$
