AV-unprocessed.smi:3280|AV-procd|sdf|12554|dock10
  -GOLD-   2272018473D 1   1.00000     0.00000
 Structure written by MMmdl.
 38 39  0  0  0  0  0  0  0  0  1 V2000
  146.8938  139.9139  153.0718 C   0  0  0  0  0  0  0  0  0  0  0  0
  147.3746  140.7069  154.2959 C   0  0  0  0  0  0  0  0  0  0  0  0
  147.1139  142.2157  154.1724 C   0  0  0  0  0  0  0  0  0  0  0  0
  148.8088  140.4143  154.6151 C   0  0  0  0  0  0  0  0  0  0  0  0
  149.5562  139.6710  153.8071 N   0  0  0  0  0  0  0  0  0  0  0  0
  150.8078  139.6607  154.4390 O   0  0  0  0  0  0  0  0  0  0  0  0
  150.6567  140.3906  155.5702 C   0  0  0  0  0  0  0  0  0  0  0  0
  151.8422  140.6149  156.4475 C   0  0  0  0  0  0  0  0  0  0  0  0
  151.4551  141.2370  157.7950 C   0  0  0  0  0  0  0  0  0  0  0  0
  152.6486  141.4315  158.6069 N   0  0  0  0  0  0  0  0  0  0  0  0
  152.3453  142.0738  159.8811 C   0  0  2  0  0  0  0  0  0  0  0  0
  151.9971  143.5659  159.6748 C   0  0  0  0  0  0  0  0  0  0  0  0
  151.6658  144.2818  160.9943 C   0  0  0  0  0  0  0  0  0  0  0  0
  152.8373  144.2623  161.9853 C   0  0  0  0  0  0  0  0  0  0  0  0
  153.2704  142.5651  162.4518 S   0  0  0  0  0  0  0  0  0  0  0  0
  153.5759  141.9037  160.7910 C   0  0  0  0  0  0  0  0  0  0  0  0
  149.4366  140.8984  155.7237 N   0  0  0  0  0  0  0  0  0  0  0  0
  147.0293  138.8422  153.2214 H   0  0  0  0  0  0  0  0  0  0  0  0
  147.4441  140.1971  152.1738 H   0  0  0  0  0  0  0  0  0  0  0  0
  145.8349  140.0894  152.8813 H   0  0  0  0  0  0  0  0  0  0  0  0
  146.7769  140.3603  155.1408 H   0  0  0  0  0  0  0  0  0  0  0  0
  147.4020  142.7395  155.0845 H   0  0  0  0  0  0  0  0  0  0  0  0
  146.0572  142.4175  153.9955 H   0  0  0  0  0  0  0  0  0  0  0  0
  147.6772  142.6502  153.3460 H   0  0  0  0  0  0  0  0  0  0  0  0
  152.3464  139.6599  156.6012 H   0  0  0  0  0  0  0  0  0  0  0  0
  152.5457  141.2612  155.9208 H   0  0  0  0  0  0  0  0  0  0  0  0
  150.9481  142.1866  157.6266 H   0  0  0  0  0  0  0  0  0  0  0  0
  150.7580  140.5801  158.3171 H   0  0  0  0  0  0  0  0  0  0  0  0
  153.0656  140.5291  158.7869 H   0  0  0  0  0  0  0  0  0  0  0  0
  151.5039  141.5580  160.3466 H   0  0  0  0  0  0  0  0  0  0  0  0
  152.8256  144.0764  159.1817 H   0  0  0  0  0  0  0  0  0  0  0  0
  151.1389  143.6706  159.0119 H   0  0  0  0  0  0  0  0  0  0  0  0
  151.3934  145.3160  160.7818 H   0  0  0  0  0  0  0  0  0  0  0  0
  150.7882  143.8234  161.4518 H   0  0  0  0  0  0  0  0  0  0  0  0
  153.7121  144.7467  161.5502 H   0  0  0  0  0  0  0  0  0  0  0  0
  152.5786  144.8176  162.8871 H   0  0  0  0  0  0  0  0  0  0  0  0
  153.8371  140.8495  160.8905 H   0  0  0  0  0  0  0  0  0  0  0  0
  154.4442  142.4095  160.3663 H   0  0  0  0  0  0  0  0  0  0  0  0
  1  2  1  0  0  0  0
  1 18  1  0  0  0  0
  1 19  1  0  0  0  0
  1 20  1  0  0  0  0
  2  3  1  0  0  0  0
  2  4  1  0  0  0  0
  2 21  1  0  0  0  0
  3 22  1  0  0  0  0
  3 23  1  0  0  0  0
  3 24  1  0  0  0  0
  4 17  1  0  0  0  0
  4  5  2  0  0  0  0
  5  6  1  0  0  0  0
  6  7  1  0  0  0  0
  7  8  1  0  0  0  0
  7 17  2  0  0  0  0
  8  9  1  0  0  0  0
  8 25  1  0  0  0  0
  8 26  1  0  0  0  0
  9 10  1  0  0  0  0
  9 27  1  0  0  0  0
  9 28  1  0  0  0  0
 10 11  1  0  0  0  0
 10 29  1  0  0  0  0
 11 16  1  0  0  0  0
 11 12  1  0  0  0  0
 11 30  1  0  0  0  0
 12 13  1  0  0  0  0
 12 31  1  0  0  0  0
 12 32  1  0  0  0  0
 13 14  1  0  0  0  0
 13 33  1  0  0  0  0
 13 34  1  0  0  0  0
 14 15  1  0  0  0  0
 14 35  1  0  0  0  0
 14 36  1  0  0  0  0
 15 16  1  0  0  0  0
 16 37  1  0  0  0  0
 16 38  1  0  0  0  0
M  END
> <s_m_source_file>
AV-unprocessed.smi

> <i_m_source_file_index>
3280

> <i_lp_mmshare_version>
43012

> <i_f3d_flags>
0

> <s_epik_input>
W0NIM11bQ0hdKFtDSDNdKWMxbm9jKG4xKVtDSDJdW0NIMl1bTkhdW0NAQEhdMltDSDJdW0NIMl1bQ0gyXVNbQ0gyXTI=

> <s_epik_cmdline>
J2VwaWtfcHl0aG9uJywgJy1waCcsICc3LjAnLCAnLXRuJywgJzgnLCAnLW1hJywgJzIwMCcsICctbWV0YWxfYmluZGluZycsICctaW1hZScsICc8aW5maWxlLm1hZT4nLCAnLW9tYWUnLCAnPG91dGZpbGUubWFlPic=

> <r_lp_tautomer_probability>
1

> <r_epik_Ionization_Penalty>
2.40576

> <r_epik_Ionization_Penalty_Charging>
0

> <r_epik_Ionization_Penalty_Neutral>
2.40576

> <r_epik_State_Penalty>
2.56401

> <r_epik_Charging_Adjusted_Penalty>
2.56401

> <i_epik_Tot_Q>
0

> <i_epik_Tot_abs_Q>
0

> <r_epik_Metal_State_Penalty>
2.56401

> <b_epik_Metal_Only>
0

> <s_lp_Force_Field>
OPLS_2005

> <r_lp_Energy>
1.17925

> <b_lp_Chiralities_Consistent>
1

> <s_lp_Variant>
AV-unprocessed.smi:3280-3

> <Gold.Version>
5.8.1

> <Gold.Id.Protein>
6NUR|6NUR_protein|mol2

> <Gold.PLP.Fitness>
38.5438

> <Gold.PLP.PLP>
-36.1404

> <Gold.PLP.part.hbond>
-1.5688

> <Gold.PLP.part.metal>
0.0000

> <Gold.PLP.part.buried>
-5.5610

> <Gold.PLP.part.nonpolar>
-32.1818

> <Gold.PLP.part.repulsive>
3.5912

> <Gold.PLP.ligand.clash>
0.0000

> <Gold.PLP.ligand.torsion>
0.2729

> <Gold.PLP.Chemscore.Hbond>
0.9500

> <Gold.PLP.Chemscore.CHOScore>
0.0000

> <Gold.PLP.Chemscore.Metal>
0.0000

> <Gold.Chemscore.Hbonds>
donor molecule, donor type, donor heavy atom, donor atom, acceptor molecule, acceptor atom, score
      P1  H  7989  7998       L1     6  0.90

> <Gold.PLP.Chemscore.Internal.Correction>
0.0993

> <Gold.Rescore>
     Score         DG    S(hbond)    S(metal)    S(lipo)     H(rot)  DE(clash)    DE(int)     intcor
     11.48     -13.30       0.16        0.00      99.02       1.68       1.52       0.30       ----

> <Gold.Chemscore.Fitness>
11.4798

> <Gold.Chemscore.DG>
-13.2991

> <Gold.Chemscore.ZeroCoef>
-5.4800

> <Gold.Chemscore.Hbond>
0.1626

> <Gold.Chemscore.Metal>
0.0000

> <Gold.Chemscore.Lipo>
99.0179

> <Gold.Chemscore.Internal_Hbond>
0.0000

> <Gold.Chemscore.DEClash>
1.5209

> <Gold.Chemscore.DEInternal>
0.2984

> <Gold.Chemscore.Rot>
1.6833

> <Gold.Chemscore.Internal.Correction>
   9.000000E+99

> <Gold.Chemscore.Hbonds>
donor molecule, donor type, donor heavy atom, donor atom, acceptor molecule, acceptor atom, score
      P1  H  7989  7998       L1     6  0.05

> <Gold.Chemscore.Hbond.Weighted>
-0.5432

> <Gold.Chemscore.Metal.Weighted>
-0.0000

> <Gold.Chemscore.Lipo.Weighted>
-11.5851

> <Gold.Chemscore.Internal_Hbond.Weighted>
0.0000

> <Gold.Chemscore.DEClash.Weighted>
1.5209

> <Gold.Chemscore.DEInternal.Weighted>
0.2984

> <Gold.Chemscore.Rot.Weighted>
4.3092

> <Gold.Chemscore.Internal.Correction.Weighted>
   9.000000E+99

> <Gold.Protein.RotatedTorsions>
[ 6907 6896 6895 6894 ] final -116.70 input  -60.11 | X-H torsion
[ 7974 7965 7964 7962 ] final -139.01 input  175.53 | X-H torsion
[ 8008 7997 7996 7995 ] final  -83.40 input   59.86 | X-H torsion
[ 10167 10162 10161 10158 ] final   -1.75 input  -65.29 | X-H torsion
[ 10718 10713 10712 10709 ] final -145.39 input   66.30 | X-H torsion
[ 10763 10752 10751 10750 ] final  147.06 input  -60.55 | X-H torsion
[ 11005 11000 10999 10996 ] final   33.32 input  -57.11 | X-H torsion

> <Gold.Protein.ActiveResidues>
 VAL166  LYS551  ARG553  GLY616  TRP617  ASP618  TYR619  PRO620  LYS621  CYS622 
 ASP623  PHE694  ASN695  SER759  ASP760  ASP761  ALA762  ILE779  LEU786  VAL792 
 PHE793  MET794  SER795  GLU796  ALA797  LYS798  CYS799  TRP800  GLU811  SER814 

> <Gold.Protein.RotatedAtoms>
  150.8077  133.8480  159.3197 H   0  0  0  0  0  0  0  0  0  0  0  0  # atno 6907 bound_to 6896
  151.6274  135.1024  160.0124 H   0  0  0  0  0  0  0  0  0  0  0  0  # atno 6908 bound_to 6896
  152.4168  133.7011  159.6481 H   0  0  0  0  0  0  0  0  0  0  0  0  # atno 6909 bound_to 6896
  144.8711  140.6368  143.5266 H   0  0  0  0  0  0  0  0  0  0  0  0  # atno 7974 bound_to 7965
  154.6187  140.0619  156.9588 H   0  0  0  0  0  0  0  0  0  0  0  0  # atno 8008 bound_to 7997
  155.1853  140.3302  155.4349 H   0  0  0  0  0  0  0  0  0  0  0  0  # atno 8009 bound_to 7997
  156.2419  140.1890  156.6946 H   0  0  0  0  0  0  0  0  0  0  0  0  # atno 8010 bound_to 7997
  140.6823  143.6739  150.8162 H   0  0  0  0  0  0  0  0  0  0  0  0  # atno 10167 bound_to 10162
  156.3818  130.7841  151.2034 H   0  0  0  0  0  0  0  0  0  0  0  0  # atno 10718 bound_to 10713
  154.0322  135.2897  155.3367 H   0  0  0  0  0  0  0  0  0  0  0  0  # atno 10763 bound_to 10752
  154.6981  135.5199  153.8491 H   0  0  0  0  0  0  0  0  0  0  0  0  # atno 10764 bound_to 10752
  153.0635  135.6622  154.0533 H   0  0  0  0  0  0  0  0  0  0  0  0  # atno 10765 bound_to 10752
  140.2643  134.3156  155.7847 H   0  0  0  0  0  0  0  0  0  0  0  0  # atno 11005 bound_to 11000
  145.4128  139.1577  143.4116 LP  0  0  0  0  0  0  0  0  0  0  0  0  # atno 17320 bound_to 7965
  146.2931  140.4233  142.8732 LP  0  0  0  0  0  0  0  0  0  0  0  0  # atno 17321 bound_to 7965
  140.0441  143.5316  152.2704 LP  0  0  0  0  0  0  0  0  0  0  0  0  # atno 17342 bound_to 10162
  139.6154  144.7618  151.2858 LP  0  0  0  0  0  0  0  0  0  0  0  0  # atno 17343 bound_to 10162
  157.7493  131.0341  150.4304 LP  0  0  0  0  0  0  0  0  0  0  0  0  # atno 17370 bound_to 10713
  156.4550  130.4019  149.6612 LP  0  0  0  0  0  0  0  0  0  0  0  0  # atno 17371 bound_to 10713
  141.2186  133.7428  156.9236 LP  0  0  0  0  0  0  0  0  0  0  0  0  # atno 17394 bound_to 11000
  140.1434  134.9278  157.2497 LP  0  0  0  0  0  0  0  0  0  0  0  0  # atno 17395 bound_to 11000

$$$$
