AV-unprocessed.smi:1555|AV-procd|sdf|6266|dock9
  -GOLD-   22720 6453D 1   1.00000     0.00000
 Structure written by MMmdl.
 41 42  0  0  0  0  0  0  0  0  1 V2000
  150.1497  141.1826  155.1692 C   0  0  0  0  0  0  0  0  0  0  0  0
  148.7056  141.4167  155.6419 C   0  0  2  0  0  0  0  0  0  0  0  0
  147.8097  142.0527  154.5563 C   0  0  0  0  0  0  0  0  0  0  0  0
  147.8176  141.3022  153.3151 N   0  0  0  0  0  0  0  0  0  0  0  0
  147.3012  140.0305  153.1056 C   0  0  0  0  0  0  0  0  0  0  0  0
  147.5315  139.7255  151.7831 C   0  0  0  0  0  0  0  0  0  0  0  0
  148.1818  140.7900  151.1630 N   0  0  0  0  0  0  0  0  0  0  0  0
  148.3138  141.6876  152.1313 C   0  0  0  0  0  0  0  0  0  0  0  0
  148.7270  142.2548  156.8372 N   0  0  0  0  0  0  0  0  0  0  0  0
  149.4240  143.3951  156.9843 C   0  0  0  0  0  0  0  0  0  0  0  0
  150.1389  143.8446  156.0873 O   0  0  0  0  0  0  0  0  0  0  0  0
  149.2762  143.9997  158.1907 N   0  0  0  0  0  0  0  0  0  0  0  0
  148.8212  143.3640  159.4388 C   0  0  0  0  0  0  0  0  0  0  0  0
  150.0250  143.2148  160.3861 C   0  0  0  0  0  0  0  0  0  0  0  0
  150.6969  144.5809  160.6614 C   0  0  0  0  0  0  0  0  0  0  0  0
  151.9740  144.4431  161.5100 C   0  0  0  0  0  0  0  0  0  0  0  0
  152.8950  143.5691  160.8915 O   0  0  0  0  0  0  0  0  0  0  0  0
  150.9850  145.3212  159.3362 C   0  0  0  0  0  0  0  0  0  0  0  0
  149.7367  145.3718  158.4359 C   0  0  0  0  0  0  0  0  0  0  0  0
  150.1896  140.4845  154.3327 H   0  0  0  0  0  0  0  0  0  0  0  0
  150.7608  140.7626  155.9687 H   0  0  0  0  0  0  0  0  0  0  0  0
  150.6163  142.1146  154.8479 H   0  0  0  0  0  0  0  0  0  0  0  0
  148.2894  140.4444  155.9127 H   0  0  0  0  0  0  0  0  0  0  0  0
  146.7767  142.1176  154.9000 H   0  0  0  0  0  0  0  0  0  0  0  0
  148.1327  143.0739  154.3477 H   0  0  0  0  0  0  0  0  0  0  0  0
  146.8270  139.4636  153.8934 H   0  0  0  0  0  0  0  0  0  0  0  0
  147.2796  138.8300  151.2346 H   0  0  0  0  0  0  0  0  0  0  0  0
  148.7875  142.6460  151.9766 H   0  0  0  0  0  0  0  0  0  0  0  0
  148.1639  141.9471  157.6166 H   0  0  0  0  0  0  0  0  0  0  0  0
  148.0605  143.9931  159.9035 H   0  0  0  0  0  0  0  0  0  0  0  0
  148.3412  142.3962  159.2951 H   0  0  0  0  0  0  0  0  0  0  0  0
  149.6975  142.7614  161.3220 H   0  0  0  0  0  0  0  0  0  0  0  0
  150.7484  142.5271  159.9458 H   0  0  0  0  0  0  0  0  0  0  0  0
  149.9875  145.1931  161.2208 H   0  0  0  0  0  0  0  0  0  0  0  0
  152.4452  145.4142  161.6652 H   0  0  0  0  0  0  0  0  0  0  0  0
  151.7342  144.0407  162.4946 H   0  0  0  0  0  0  0  0  0  0  0  0
  153.3334  143.0698  161.5637 H   0  0  0  0  0  0  0  0  0  0  0  0
  151.3312  146.3345  159.5425 H   0  0  0  0  0  0  0  0  0  0  0  0
  151.7944  144.8211  158.8023 H   0  0  0  0  0  0  0  0  0  0  0  0
  149.9641  145.9129  157.5164 H   0  0  0  0  0  0  0  0  0  0  0  0
  148.9434  145.9399  158.9238 H   0  0  0  0  0  0  0  0  0  0  0  0
  1  2  1  0  0  0  0
  1 20  1  0  0  0  0
  1 21  1  0  0  0  0
  1 22  1  0  0  0  0
  2  3  1  0  0  0  0
  2  9  1  0  0  0  0
  2 23  1  0  0  0  0
  3  4  1  0  0  0  0
  3 24  1  0  0  0  0
  3 25  1  0  0  0  0
  4  8  1  0  0  0  0
  4  5  1  0  0  0  0
  5  6  2  0  0  0  0
  5 26  1  0  0  0  0
  6  7  1  0  0  0  0
  6 27  1  0  0  0  0
  7  8  2  0  0  0  0
  8 28  1  0  0  0  0
  9 10  1  0  0  0  0
  9 29  1  0  0  0  0
 10 11  2  0  0  0  0
 10 12  1  0  0  0  0
 12 19  1  0  0  0  0
 12 13  1  0  0  0  0
 13 14  1  0  0  0  0
 13 30  1  0  0  0  0
 13 31  1  0  0  0  0
 14 15  1  0  0  0  0
 14 32  1  0  0  0  0
 14 33  1  0  0  0  0
 15 16  1  0  0  0  0
 15 18  1  0  0  0  0
 15 34  1  0  0  0  0
 16 17  1  0  0  0  0
 16 35  1  0  0  0  0
 16 36  1  0  0  0  0
 17 37  1  0  0  0  0
 18 19  1  0  0  0  0
 18 38  1  0  0  0  0
 18 39  1  0  0  0  0
 19 40  1  0  0  0  0
 19 41  1  0  0  0  0
M  END
> <s_m_source_file>
AV-unprocessed.smi

> <i_m_source_file_index>
1555

> <i_lp_mmshare_version>
43012

> <i_f3d_flags>
0

> <s_epik_input>
W2NIXTFuW2NIXVtjSF1uMVtDSDJdW0NAQEhdKFtDSDNdKVtOSF1DKD1PKU4yW0NIMl1bQ0gyXVtDSF0oW0NIMl1bT0hdKVtDSDJdW0NIMl0y

> <s_epik_cmdline>
J2VwaWtfcHl0aG9uJywgJy1waCcsICc3LjAnLCAnLXRuJywgJzgnLCAnLW1hJywgJzIwMCcsICctbWV0YWxfYmluZGluZycsICctaW1hZScsICc8aW5maWxlLm1hZT4nLCAnLW9tYWUnLCAnPG91dGZpbGUubWFlPic=

> <r_lp_tautomer_probability>
1

> <r_epik_Ionization_Penalty>
0.625883

> <r_epik_Ionization_Penalty_Charging>
0.625812

> <r_epik_Ionization_Penalty_Neutral>
7.07114e-05

> <r_epik_State_Penalty>
0.642234

> <r_epik_Charging_Adjusted_Penalty>
1.26805

> <i_epik_Tot_Q>
0

> <i_epik_Tot_abs_Q>
0

> <r_epik_Metal_State_Penalty>
0.307949

> <b_epik_Metal_Only>
0

> <s_lp_Force_Field>
OPLS_2005

> <r_lp_Energy>
32.8415

> <b_lp_Chiralities_Consistent>
1

> <s_lp_Variant>
AV-unprocessed.smi:1555-3

> <Gold.Version>
5.8.1

> <Gold.Id.Protein>
6NUR|6NUR_protein|mol2

> <Gold.PLP.Fitness>
42.8248

> <Gold.PLP.PLP>
-36.9384

> <Gold.PLP.part.hbond>
-3.7882

> <Gold.PLP.part.metal>
0.0000

> <Gold.PLP.part.buried>
0.1753

> <Gold.PLP.part.nonpolar>
-33.7454

> <Gold.PLP.part.repulsive>
0.3270

> <Gold.PLP.ligand.clash>
0.0000

> <Gold.PLP.ligand.torsion>
0.3816

> <Gold.PLP.Chemscore.Hbond>
0.9363

> <Gold.PLP.Chemscore.CHOScore>
1.2580

> <Gold.PLP.Chemscore.Metal>
0.0000

> <Gold.PLP.Chemscore.Internal.Correction>
0.0669

> <Gold.Rescore>
     Score         DG    S(hbond)    S(metal)    S(lipo)     H(rot)  DE(clash)    DE(int)     intcor
     10.62     -13.98       1.09        0.00      95.98       2.49       2.01       1.35       ----

> <Gold.Chemscore.Fitness>
10.6216

> <Gold.Chemscore.DG>
-13.9778

> <Gold.Chemscore.ZeroCoef>
-5.4800

> <Gold.Chemscore.Hbond>
1.0879

> <Gold.Chemscore.Metal>
0.0000

> <Gold.Chemscore.Lipo>
95.9846

> <Gold.Chemscore.Internal_Hbond>
0.0000

> <Gold.Chemscore.DEClash>
2.0107

> <Gold.Chemscore.DEInternal>
1.3454

> <Gold.Chemscore.Rot>
2.4867

> <Gold.Chemscore.Internal.Correction>
   9.000000E+99

> <Gold.Chemscore.Hbond.Weighted>
-3.6336

> <Gold.Chemscore.Metal.Weighted>
-0.0000

> <Gold.Chemscore.Lipo.Weighted>
-11.2302

> <Gold.Chemscore.Internal_Hbond.Weighted>
0.0000

> <Gold.Chemscore.DEClash.Weighted>
2.0107

> <Gold.Chemscore.DEInternal.Weighted>
1.3454

> <Gold.Chemscore.Rot.Weighted>
6.3660

> <Gold.Chemscore.Internal.Correction.Weighted>
   9.000000E+99

> <Gold.Protein.RotatedTorsions>
[ 6907 6896 6895 6894 ] final  -94.30 input  -60.11 | X-H torsion
[ 7974 7965 7964 7962 ] final  112.61 input  175.53 | X-H torsion
[ 8008 7997 7996 7995 ] final  128.76 input   59.86 | X-H torsion
[ 10167 10162 10161 10158 ] final -144.83 input  -65.29 | X-H torsion
[ 10718 10713 10712 10709 ] final   24.76 input   66.30 | X-H torsion
[ 10763 10752 10751 10750 ] final  -40.36 input  -60.55 | X-H torsion
[ 11005 11000 10999 10996 ] final  -32.90 input  -57.11 | X-H torsion

> <Gold.Protein.ActiveResidues>
 VAL166  LYS551  ARG553  GLY616  TRP617  ASP618  TYR619  PRO620  LYS621  CYS622 
 ASP623  PHE694  ASN695  SER759  ASP760  ASP761  ALA762  ILE779  LEU786  VAL792 
 PHE793  MET794  SER795  GLU796  ALA797  LYS798  CYS799  TRP800  GLU811  SER814 

> <Gold.Protein.RotatedAtoms>
  150.6939  134.1834  159.4257 H   0  0  0  0  0  0  0  0  0  0  0  0  # atno 6907 bound_to 6896
  151.9808  135.0027  160.0566 H   0  0  0  0  0  0  0  0  0  0  0  0  # atno 6908 bound_to 6896
  152.1757  133.4638  159.4969 H   0  0  0  0  0  0  0  0  0  0  0  0  # atno 6909 bound_to 6896
  145.2274  139.2835  143.4186 H   0  0  0  0  0  0  0  0  0  0  0  0  # atno 7974 bound_to 7965
  156.2922  140.2637  156.2489 H   0  0  0  0  0  0  0  0  0  0  0  0  # atno 8008 bound_to 7997
  154.9903  140.0389  157.2335 H   0  0  0  0  0  0  0  0  0  0  0  0  # atno 8009 bound_to 7997
  154.7692  140.2775  155.6156 H   0  0  0  0  0  0  0  0  0  0  0  0  # atno 8010 bound_to 7997
  139.7862  143.8031  152.2645 H   0  0  0  0  0  0  0  0  0  0  0  0  # atno 10167 bound_to 10162
  157.1841  130.6816  149.6124 H   0  0  0  0  0  0  0  0  0  0  0  0  # atno 10718 bound_to 10713
  153.9446  135.6757  153.4744 H   0  0  0  0  0  0  0  0  0  0  0  0  # atno 10763 bound_to 10752
  153.0914  135.4873  154.8694 H   0  0  0  0  0  0  0  0  0  0  0  0  # atno 10764 bound_to 10752
  154.7358  135.3149  154.8772 H   0  0  0  0  0  0  0  0  0  0  0  0  # atno 10765 bound_to 10752
  140.9591  133.7175  156.1340 H   0  0  0  0  0  0  0  0  0  0  0  0  # atno 11005 bound_to 11000
  146.3361  140.2598  142.8601 LP  0  0  0  0  0  0  0  0  0  0  0  0  # atno 17320 bound_to 7965
  144.9709  140.8367  143.5456 LP  0  0  0  0  0  0  0  0  0  0  0  0  # atno 17321 bound_to 7965
  139.8108  144.7336  150.9700 LP  0  0  0  0  0  0  0  0  0  0  0  0  # atno 17342 bound_to 10162
  140.7819  143.4252  151.0779 LP  0  0  0  0  0  0  0  0  0  0  0  0  # atno 17343 bound_to 10162
  155.9720  130.4637  150.6190 LP  0  0  0  0  0  0  0  0  0  0  0  0  # atno 17370 bound_to 10713
  157.3924  131.0797  151.1382 LP  0  0  0  0  0  0  0  0  0  0  0  0  # atno 17371 bound_to 10713
  140.7494  134.4062  157.5543 LP  0  0  0  0  0  0  0  0  0  0  0  0  # atno 17394 bound_to 11000
  139.8872  134.8889  156.2542 LP  0  0  0  0  0  0  0  0  0  0  0  0  # atno 17395 bound_to 11000

$$$$
