AV-unprocessed.smi:2439|AV-procd|sdf|9611|dock4
  -GOLD-   2272013243D 1   1.00000     0.00000
 Structure written by MMmdl.
 40 42  0  0  0  0  0  0  0  0  1 V2000
  146.5107  141.4839  158.8515 N   0  0  0  0  0  0  0  0  0  0  0  0
  146.8487  141.4144  157.7471 C   0  0  0  0  0  0  0  0  0  0  0  0
  147.2748  141.3278  156.3555 C   0  0  0  0  0  0  0  0  0  0  0  0
  146.3168  141.0212  155.3663 C   0  0  0  0  0  0  0  0  0  0  0  0
  146.7218  140.9370  154.0217 C   0  0  0  0  0  0  0  0  0  0  0  0
  148.0771  141.1613  153.7197 C   0  0  0  0  0  0  0  0  0  0  0  0
  149.0037  141.4529  154.6561 N   0  0  0  0  0  0  0  0  0  0  0  0
  148.6212  141.5407  155.9540 C   0  0  0  0  0  0  0  0  0  0  0  0
  149.6088  141.8463  156.9093 N   0  0  0  0  0  0  0  0  0  0  0  0
  150.8755  142.4653  156.5375 C   0  0  0  0  0  0  0  0  0  0  0  0
  151.6505  142.9953  157.7550 C   0  0  2  0  0  0  0  0  0  0  0  0
  152.1212  141.8501  158.6698 C   0  0  0  0  0  0  0  0  0  0  0  0
  152.7921  142.3489  159.8635 N   0  0  0  0  0  0  0  0  0  0  0  0
  153.2288  141.2522  160.7257 C   0  0  0  0  0  0  0  0  0  0  0  0
  153.9709  141.7500  161.9758 C   0  0  0  0  0  0  0  0  0  0  0  0
  153.0891  142.7287  162.7647 C   0  0  0  0  0  0  0  0  0  0  0  0
  152.5881  143.8496  161.8408 C   0  0  0  0  0  0  0  0  0  0  0  0
  151.9061  143.2670  160.5857 C   0  0  1  0  0  0  0  0  0  0  0  0
  151.4117  144.3969  159.6596 C   0  0  0  0  0  0  0  0  0  0  0  0
  150.7849  143.8412  158.5080 O   0  0  0  0  0  0  0  0  0  0  0  0
  145.2824  140.8519  155.6293 H   0  0  0  0  0  0  0  0  0  0  0  0
  146.0116  140.7060  153.2418 H   0  0  0  0  0  0  0  0  0  0  0  0
  148.4272  141.1045  152.6997 H   0  0  0  0  0  0  0  0  0  0  0  0
  149.3655  141.8196  157.8892 H   0  0  0  0  0  0  0  0  0  0  0  0
  151.4789  141.7266  156.0094 H   0  0  0  0  0  0  0  0  0  0  0  0
  150.6917  143.2692  155.8239 H   0  0  0  0  0  0  0  0  0  0  0  0
  152.5193  143.5669  157.4236 H   0  0  0  0  0  0  0  0  0  0  0  0
  151.2637  141.2387  158.9562 H   0  0  0  0  0  0  0  0  0  0  0  0
  152.7970  141.1980  158.1151 H   0  0  0  0  0  0  0  0  0  0  0  0
  152.3676  140.6549  161.0293 H   0  0  0  0  0  0  0  0  0  0  0  0
  153.8845  140.5849  160.1652 H   0  0  0  0  0  0  0  0  0  0  0  0
  154.2548  140.9071  162.6064 H   0  0  0  0  0  0  0  0  0  0  0  0
  154.8967  142.2447  161.6794 H   0  0  0  0  0  0  0  0  0  0  0  0
  152.2368  142.1944  163.1863 H   0  0  0  0  0  0  0  0  0  0  0  0
  153.6437  143.1479  163.6045 H   0  0  0  0  0  0  0  0  0  0  0  0
  151.8946  144.4926  162.3838 H   0  0  0  0  0  0  0  0  0  0  0  0
  153.4285  144.4790  161.5448 H   0  0  0  0  0  0  0  0  0  0  0  0
  151.0277  142.7093  160.9155 H   0  0  0  0  0  0  0  0  0  0  0  0
  150.6907  145.0277  160.1798 H   0  0  0  0  0  0  0  0  0  0  0  0
  152.2376  145.0412  159.3533 H   0  0  0  0  0  0  0  0  0  0  0  0
  1  2  3  0  0  0  0
  2  3  1  0  0  0  0
  3  8  1  0  0  0  0
  3  4  2  0  0  0  0
  4  5  1  0  0  0  0
  4 21  1  0  0  0  0
  5  6  2  0  0  0  0
  5 22  1  0  0  0  0
  6  7  1  0  0  0  0
  6 23  1  0  0  0  0
  7  8  2  0  0  0  0
  8  9  1  0  0  0  0
  9 10  1  0  0  0  0
  9 24  1  0  0  0  0
 10 11  1  0  0  0  0
 10 25  1  0  0  0  0
 10 26  1  0  0  0  0
 11 20  1  0  0  0  0
 11 12  1  0  0  0  0
 11 27  1  0  0  0  0
 12 13  1  0  0  0  0
 12 28  1  0  0  0  0
 12 29  1  0  0  0  0
 13 18  1  0  0  0  0
 13 14  1  0  0  0  0
 14 15  1  0  0  0  0
 14 30  1  0  0  0  0
 14 31  1  0  0  0  0
 15 16  1  0  0  0  0
 15 32  1  0  0  0  0
 15 33  1  0  0  0  0
 16 17  1  0  0  0  0
 16 34  1  0  0  0  0
 16 35  1  0  0  0  0
 17 18  1  0  0  0  0
 17 36  1  0  0  0  0
 17 37  1  0  0  0  0
 18 19  1  0  0  0  0
 18 38  1  0  0  0  0
 19 20  1  0  0  0  0
 19 39  1  0  0  0  0
 19 40  1  0  0  0  0
M  END
> <s_m_source_file>
AV-unprocessed.smi

> <i_m_source_file_index>
2439

> <i_lp_mmshare_version>
43012

> <i_f3d_flags>
0

> <s_epik_input>
TiNDYzFbY0hdW2NIXVtjSF1uYzFbTkhdW0NIMl1bQ0BIXShbQ0gyXTIpT1tDSDJdW0NAQEhdKE4yMylbQ0gyXVtDSDJdW0NIMl1bQ0gyXTM=

> <s_epik_cmdline>
J2VwaWtfcHl0aG9uJywgJy1waCcsICc3LjAnLCAnLXRuJywgJzgnLCAnLW1hJywgJzIwMCcsICctbWV0YWxfYmluZGluZycsICctaW1hZScsICc8aW5maWxlLm1hZT4nLCAnLW9tYWUnLCAnPG91dGZpbGUubWFlPic=

> <r_epik_Ionization_Penalty>
1.22355

> <r_epik_Ionization_Penalty_Charging>
0

> <r_epik_Ionization_Penalty_Neutral>
1.22355

> <r_epik_State_Penalty>
1.29103

> <r_epik_Charging_Adjusted_Penalty>
1.29103

> <i_epik_Tot_Q>
0

> <i_epik_Tot_abs_Q>
0

> <r_epik_Metal_State_Penalty>
1.29103

> <b_epik_Metal_Only>
0

> <s_lp_Force_Field>
OPLS_2005

> <r_lp_Energy>
37.4104

> <b_lp_Chiralities_Consistent>
1

> <s_lp_Variant>
AV-unprocessed.smi:2439-9

> <Gold.Version>
5.8.1

> <Gold.Id.Protein>
6NUR|6NUR_protein|mol2

> <Gold.PLP.Fitness>
42.8241

> <Gold.PLP.PLP>
-37.9807

> <Gold.PLP.part.hbond>
-1.9850

> <Gold.PLP.part.metal>
0.0000

> <Gold.PLP.part.buried>
-3.3823

> <Gold.PLP.part.nonpolar>
-33.3492

> <Gold.PLP.part.repulsive>
0.3209

> <Gold.PLP.ligand.clash>
0.0000

> <Gold.PLP.ligand.torsion>
0.1833

> <Gold.PLP.Chemscore.Hbond>
0.7360

> <Gold.PLP.Chemscore.CHOScore>
1.0000

> <Gold.PLP.Chemscore.Metal>
0.0000

> <Gold.Chemscore.Hbonds>
donor molecule, donor type, donor heavy atom, donor atom, acceptor molecule, acceptor atom, score
      P1  H  6934  6946       L1     1  0.64
      L1  C     6    23       P1  7957  1.00

> <Gold.PLP.Chemscore.Internal.Correction>
0.0019

> <Gold.Rescore>
     Score         DG    S(hbond)    S(metal)    S(lipo)     H(rot)  DE(clash)    DE(int)     intcor
     17.07     -18.09       0.79        0.00     112.67       1.25       0.88       0.15       ----

> <Gold.Chemscore.Fitness>
17.0656

> <Gold.Chemscore.DG>
-18.0943

> <Gold.Chemscore.ZeroCoef>
-5.4800

> <Gold.Chemscore.Hbond>
0.7870

> <Gold.Chemscore.Metal>
0.0000

> <Gold.Chemscore.Lipo>
112.6654

> <Gold.Chemscore.Internal_Hbond>
0.0000

> <Gold.Chemscore.DEClash>
0.8820

> <Gold.Chemscore.DEInternal>
0.1467

> <Gold.Chemscore.Rot>
1.2485

> <Gold.Chemscore.Internal.Correction>
   9.000000E+99

> <Gold.Chemscore.Hbonds>
donor molecule, donor type, donor heavy atom, donor atom, acceptor molecule, acceptor atom, score
      P1  H  6934  6946       L1     1  0.62

> <Gold.Chemscore.Hbond.Weighted>
-2.6286

> <Gold.Chemscore.Metal.Weighted>
-0.0000

> <Gold.Chemscore.Lipo.Weighted>
-13.1818

> <Gold.Chemscore.Internal_Hbond.Weighted>
0.0000

> <Gold.Chemscore.DEClash.Weighted>
0.8820

> <Gold.Chemscore.DEInternal.Weighted>
0.1467

> <Gold.Chemscore.Rot.Weighted>
3.1961

> <Gold.Chemscore.Internal.Correction.Weighted>
   9.000000E+99

> <Gold.Protein.RotatedTorsions>
[ 6907 6896 6895 6894 ] final  -72.10 input  -60.11 | X-H torsion
[ 7974 7965 7964 7962 ] final   60.51 input  175.53 | X-H torsion
[ 8008 7997 7996 7995 ] final -116.64 input   59.86 | X-H torsion
[ 10167 10162 10161 10158 ] final    9.61 input  -65.29 | X-H torsion
[ 10718 10713 10712 10709 ] final  153.63 input   66.30 | X-H torsion
[ 10763 10752 10751 10750 ] final   16.72 input  -60.55 | X-H torsion
[ 11005 11000 10999 10996 ] final   20.66 input  -57.11 | X-H torsion

> <Gold.Protein.ActiveResidues>
 VAL166  LYS551  ARG553  GLY616  TRP617  ASP618  TYR619  PRO620  LYS621  CYS622 
 ASP623  PHE694  ASN695  SER759  ASP760  ASP761  ALA762  ILE779  LEU786  VAL792 
 PHE793  MET794  SER795  GLU796  ALA797  LYS798  CYS799  TRP800  GLU811  SER814 

> <Gold.Protein.RotatedAtoms>
  150.7184  134.5213  159.5654 H   0  0  0  0  0  0  0  0  0  0  0  0  # atno 6907 bound_to 6896
  152.2767  134.7870  160.0413 H   0  0  0  0  0  0  0  0  0  0  0  0  # atno 6908 bound_to 6896
  151.8531  133.3408  159.3716 H   0  0  0  0  0  0  0  0  0  0  0  0  # atno 6909 bound_to 6896
  145.8952  139.3540  143.0625 H   0  0  0  0  0  0  0  0  0  0  0  0  # atno 7974 bound_to 7965
  155.0710  140.0393  157.2608 H   0  0  0  0  0  0  0  0  0  0  0  0  # atno 8008 bound_to 7997
  154.6982  140.2668  155.6720 H   0  0  0  0  0  0  0  0  0  0  0  0  # atno 8009 bound_to 7997
  156.2752  140.2746  156.1584 H   0  0  0  0  0  0  0  0  0  0  0  0  # atno 8010 bound_to 7997
  140.6245  143.8132  150.7215 H   0  0  0  0  0  0  0  0  0  0  0  0  # atno 10167 bound_to 10162
  157.2422  131.0761  151.1785 H   0  0  0  0  0  0  0  0  0  0  0  0  # atno 10718 bound_to 10713
  153.1404  135.6759  153.9036 H   0  0  0  0  0  0  0  0  0  0  0  0  # atno 10763 bound_to 10752
  153.8494  135.3095  155.3432 H   0  0  0  0  0  0  0  0  0  0  0  0  # atno 10764 bound_to 10752
  154.7783  135.4902  153.9874 H   0  0  0  0  0  0  0  0  0  0  0  0  # atno 10765 bound_to 10752
  140.4001  134.1727  155.7664 H   0  0  0  0  0  0  0  0  0  0  0  0  # atno 11005 bound_to 11000
  145.8859  140.9334  143.0577 LP  0  0  0  0  0  0  0  0  0  0  0  0  # atno 17320 bound_to 7965
  144.6732  140.0841  143.7468 LP  0  0  0  0  0  0  0  0  0  0  0  0  # atno 17321 bound_to 7965
  140.1730  143.4179  152.1987 LP  0  0  0  0  0  0  0  0  0  0  0  0  # atno 17342 bound_to 10162
  139.5467  144.7304  151.4560 LP  0  0  0  0  0  0  0  0  0  0  0  0  # atno 17343 bound_to 10162
  157.3366  130.7012  149.6356 LP  0  0  0  0  0  0  0  0  0  0  0  0  # atno 17370 bound_to 10713
  155.9669  130.4292  150.4821 LP  0  0  0  0  0  0  0  0  0  0  0  0  # atno 17371 bound_to 10713
  141.1859  133.8312  157.1086 LP  0  0  0  0  0  0  0  0  0  0  0  0  # atno 17394 bound_to 11000
  140.0342  134.9886  157.0839 LP  0  0  0  0  0  0  0  0  0  0  0  0  # atno 17395 bound_to 11000

$$$$
