AV-unprocessed.smi:907|AV-procd|sdf|4109|dock2
  -GOLD-   22720 2 03D 1   1.00000     0.00000
 Structure written by MMmdl.
 53 56  0  0  0  0  0  0  0  0  2 V2000
  152.4287  139.7287  156.2817 O   0  0  0  0  0  0  0  0  0  0  0  0
  151.4348  139.9167  155.5790 C   0  0  0  0  0  0  0  0  0  0  0  0
  150.6948  141.0344  155.6706 N   0  0  0  0  0  0  0  0  0  0  0  0
  150.9710  142.1561  156.5607 C   0  0  0  0  0  0  0  0  0  0  0  0
  151.2092  141.6889  158.0064 C   0  0  0  0  0  0  0  0  0  0  0  0
  151.5142  142.8463  158.9378 C   0  0  0  0  0  0  0  0  0  0  0  0
  151.4269  144.1793  158.4825 C   0  0  0  0  0  0  0  0  0  0  0  0
  151.7069  145.2183  159.3912 C   0  0  0  0  0  0  0  0  0  0  0  0
  152.0619  144.8860  160.7128 C   0  0  0  0  0  0  0  0  0  0  0  0
  152.1207  143.5237  161.0686 C   0  0  0  0  0  0  0  0  0  0  0  0
  151.8524  142.5197  160.2058 N   0  0  0  0  0  0  0  0  0  0  0  0
  150.9649  138.9970  154.6995 N   0  0  0  0  0  0  0  0  0  0  0  0
  151.5968  137.7128  154.3693 C   0  0  0  0  0  0  0  0  0  0  0  0
  150.8155  136.5771  155.0568 C   0  0  0  0  0  0  0  0  0  0  0  0
  149.3682  136.5992  154.6949 N   0  3  0  0  0  0  0  0  0  0  0  0
  148.5786  135.5226  155.3601 C   0  0  1  0  0  0  0  0  0  0  0  0
  147.2065  135.2353  154.7018 C   0  0  0  0  0  0  0  0  0  0  0  0
  147.2096  133.7033  154.5388 C   0  0  1  0  0  0  0  0  0  0  0  0
  148.1247  133.3335  153.3592 C   0  0  0  0  0  0  0  0  0  0  0  0
  149.5267  133.6336  153.9186 C   0  0  0  0  0  0  0  0  0  0  0  0
  149.2324  134.1178  155.3556 C   0  0  2  0  0  0  0  0  0  0  0  0
  148.0401  133.2438  155.7311 C   0  0  0  0  0  0  0  0  0  0  0  0
  148.7631  137.9496  154.8810 C   0  0  0  0  0  0  0  0  0  0  0  0
  149.5939  139.0436  154.1878 C   0  0  0  0  0  0  0  0  0  0  0  0
  149.8771  141.1115  155.0835 H   0  0  0  0  0  0  0  0  0  0  0  0
  151.8300  142.7224  156.1959 H   0  0  0  0  0  0  0  0  0  0  0  0
  150.1164  142.8322  156.5240 H   0  0  0  0  0  0  0  0  0  0  0  0
  150.3315  141.1576  158.3776 H   0  0  0  0  0  0  0  0  0  0  0  0
  152.0353  140.9774  158.0430 H   0  0  0  0  0  0  0  0  0  0  0  0
  151.1486  144.4022  157.4628 H   0  0  0  0  0  0  0  0  0  0  0  0
  151.6494  146.2510  159.0804 H   0  0  0  0  0  0  0  0  0  0  0  0
  152.2833  145.6564  161.4366 H   0  0  0  0  0  0  0  0  0  0  0  0
  152.3891  143.2324  162.0733 H   0  0  0  0  0  0  0  0  0  0  0  0
  151.5770  137.5751  153.2870 H   0  0  0  0  0  0  0  0  0  0  0  0
  152.6487  137.6528  154.6489 H   0  0  0  0  0  0  0  0  0  0  0  0
  151.2650  135.6271  154.7699 H   0  0  0  0  0  0  0  0  0  0  0  0
  150.9176  136.6622  156.1400 H   0  0  0  0  0  0  0  0  0  0  0  0
  148.4169  135.8201  156.3982 H   0  0  0  0  0  0  0  0  0  0  0  0
  146.3954  135.5598  155.3548 H   0  0  0  0  0  0  0  0  0  0  0  0
  147.0727  135.7261  153.7372 H   0  0  0  0  0  0  0  0  0  0  0  0
  146.2130  133.2658  154.4719 H   0  0  0  0  0  0  0  0  0  0  0  0
  148.0291  132.2756  153.1105 H   0  0  0  0  0  0  0  0  0  0  0  0
  147.9011  133.9089  152.4599 H   0  0  0  0  0  0  0  0  0  0  0  0
  150.1295  132.7246  153.9359 H   0  0  0  0  0  0  0  0  0  0  0  0
  150.0625  134.3713  153.3210 H   0  0  0  0  0  0  0  0  0  0  0  0
  150.0804  134.0227  156.0345 H   0  0  0  0  0  0  0  0  0  0  0  0
  147.5956  133.5024  156.6940 H   0  0  0  0  0  0  0  0  0  0  0  0
  148.2638  132.1753  155.7168 H   0  0  0  0  0  0  0  0  0  0  0  0
  147.7487  137.9747  154.4850 H   0  0  0  0  0  0  0  0  0  0  0  0
  148.6888  138.1671  155.9478 H   0  0  0  0  0  0  0  0  0  0  0  0
  149.1249  140.0183  154.3314 H   0  0  0  0  0  0  0  0  0  0  0  0
  149.6054  138.8798  153.1091 H   0  0  0  0  0  0  0  0  0  0  0  0
  149.3291  136.4075  153.7039 H   0  0  0  0  0  0  0  0  0  0  0  0
  1  2  2  0  0  0  0
  2  3  1  0  0  0  0
  2 12  1  0  0  0  0
  3  4  1  0  0  0  0
  3 25  1  0  0  0  0
  4  5  1  0  0  0  0
  4 26  1  0  0  0  0
  4 27  1  0  0  0  0
  5  6  1  0  0  0  0
  5 28  1  0  0  0  0
  5 29  1  0  0  0  0
  6 11  1  0  0  0  0
  6  7  2  0  0  0  0
  7  8  1  0  0  0  0
  7 30  1  0  0  0  0
  8  9  2  0  0  0  0
  8 31  1  0  0  0  0
  9 10  1  0  0  0  0
  9 32  1  0  0  0  0
 10 11  2  0  0  0  0
 10 33  1  0  0  0  0
 12 24  1  0  0  0  0
 12 13  1  0  0  0  0
 13 14  1  0  0  0  0
 13 34  1  0  0  0  0
 13 35  1  0  0  0  0
 14 15  1  0  0  0  0
 14 36  1  0  0  0  0
 14 37  1  0  0  0  0
 15 16  1  0  0  0  0
 15 23  1  0  0  0  0
 15 53  1  0  0  0  0
 16 21  1  0  0  0  0
 16 17  1  0  0  0  0
 16 38  1  0  0  0  0
 17 18  1  0  0  0  0
 17 39  1  0  0  0  0
 17 40  1  0  0  0  0
 18 22  1  0  0  0  0
 18 19  1  0  0  0  0
 18 41  1  0  0  0  0
 19 20  1  0  0  0  0
 19 42  1  0  0  0  0
 19 43  1  0  0  0  0
 20 21  1  0  0  0  0
 20 44  1  0  0  0  0
 20 45  1  0  0  0  0
 21 22  1  0  0  0  0
 21 46  1  0  0  0  0
 22 47  1  0  0  0  0
 22 48  1  0  0  0  0
 23 24  1  0  0  0  0
 23 49  1  0  0  0  0
 23 50  1  0  0  0  0
 24 51  1  0  0  0  0
 24 52  1  0  0  0  0
M  CHG  1  15   1
M  END
> <s_m_source_file>
AV-unprocessed.smi

> <i_m_source_file_index>
907

> <i_lp_mmshare_version>
43012

> <i_f3d_flags>
0

> <s_epik_input>
W0NIMl0xW0NIMl1bQ0BASF0oW0NIMl0yKVtDQEBIXShbQ0gyXVtDQEhdMTIpTihbQ0gyXVtDSDJdMylbQ0gyXVtDSDJdTjNDKD1PKVtOSF1bQ0gyXVtDSDJdYzRbY0hdW2NIXVtjSF1bY0hdbjQ=

> <s_epik_cmdline>
J2VwaWtfcHl0aG9uJywgJy1waCcsICc3LjAnLCAnLXRuJywgJzgnLCAnLW1hJywgJzIwMCcsICctbWV0YWxfYmluZGluZycsICctaW1hZScsICc8aW5maWxlLm1hZT4nLCAnLW9tYWUnLCAnPG91dGZpbGUubWFlPic=

> <r_epik_Ionization_Penalty>
0.0419258

> <r_epik_Ionization_Penalty_Charging>
0.00262064

> <r_epik_Ionization_Penalty_Neutral>
0.0393052

> <r_epik_State_Penalty>
0.0329887

> <r_epik_Charging_Adjusted_Penalty>
0.0356093

> <i_epik_Tot_Q>
1

> <i_epik_Tot_abs_Q>
1

> <r_epik_Metal_State_Penalty>
0.0309172

> <b_epik_Metal_Only>
0

> <s_lp_Force_Field>
OPLS_2005

> <r_lp_Energy>
94.2881

> <b_lp_Chiralities_Consistent>
1

> <s_lp_Variant>
AV-unprocessed.smi:907-4

> <Gold.Version>
5.8.1

> <Gold.Id.Protein>
6NUR|6NUR_protein|mol2

> <Gold.PLP.Fitness>
56.0629

> <Gold.PLP.PLP>
-48.8146

> <Gold.PLP.part.hbond>
-2.0964

> <Gold.PLP.part.metal>
0.0000

> <Gold.PLP.part.buried>
-6.4111

> <Gold.PLP.part.nonpolar>
-40.8772

> <Gold.PLP.part.repulsive>
0.1814

> <Gold.PLP.ligand.clash>
1.2483

> <Gold.PLP.ligand.torsion>
0.3218

> <Gold.PLP.Chemscore.Hbond>
3.0000

> <Gold.PLP.Chemscore.CHOScore>
0.0000

> <Gold.PLP.Chemscore.Metal>
0.0000

> <Gold.Chemscore.Hbonds>
donor molecule, donor type, donor heavy atom, donor atom, acceptor molecule, acceptor atom, score
      L1  H    15    53       P1  7948  2.00
      P1  H  7997  8009       L1     1  1.00

> <Gold.PLP.Chemscore.Internal.Correction>
0.1403

> <Gold.Rescore>
     Score         DG    S(hbond)    S(metal)    S(lipo)     H(rot)  DE(clash)    DE(int)     intcor
     21.40     -23.01       1.94        0.00     124.40       1.37       0.05       1.56       ----

> <Gold.Chemscore.Fitness>
21.4038

> <Gold.Chemscore.DG>
-23.0089

> <Gold.Chemscore.ZeroCoef>
-5.4800

> <Gold.Chemscore.Hbond>
1.9430

> <Gold.Chemscore.Metal>
0.0000

> <Gold.Chemscore.Lipo>
124.3982

> <Gold.Chemscore.Internal_Hbond>
0.0000

> <Gold.Chemscore.DEClash>
0.0474

> <Gold.Chemscore.DEInternal>
1.5578

> <Gold.Chemscore.Rot>
1.3731

> <Gold.Chemscore.Internal.Correction>
   9.000000E+99

> <Gold.Chemscore.Hbonds>
donor molecule, donor type, donor heavy atom, donor atom, acceptor molecule, acceptor atom, score
      L1  H    15    53       P1  7948  0.88
      P1  H  7997  8009       L1     1  0.99

> <Gold.Chemscore.Hbond.Weighted>
-6.4895

> <Gold.Chemscore.Metal.Weighted>
-0.0000

> <Gold.Chemscore.Lipo.Weighted>
-14.5546

> <Gold.Chemscore.Internal_Hbond.Weighted>
0.0000

> <Gold.Chemscore.DEClash.Weighted>
0.0474

> <Gold.Chemscore.DEInternal.Weighted>
1.5578

> <Gold.Chemscore.Rot.Weighted>
3.5152

> <Gold.Chemscore.Internal.Correction.Weighted>
   9.000000E+99

> <Gold.Protein.RotatedTorsions>
[ 6907 6896 6895 6894 ] final   45.96 input  -60.11 | X-H torsion
[ 7974 7965 7964 7962 ] final  -16.47 input  175.53 | X-H torsion
[ 8008 7997 7996 7995 ] final -161.91 input   59.86 | X-H torsion
[ 10167 10162 10161 10158 ] final  144.67 input  -65.29 | X-H torsion
[ 10718 10713 10712 10709 ] final  -37.71 input   66.30 | X-H torsion
[ 10763 10752 10751 10750 ] final   -9.16 input  -60.55 | X-H torsion
[ 11005 11000 10999 10996 ] final  -52.43 input  -57.11 | X-H torsion

> <Gold.Protein.ActiveResidues>
 VAL166  LYS551  ARG553  GLY616  TRP617  ASP618  TYR619  PRO620  LYS621  CYS622 
 ASP623  PHE694  ASN695  SER759  ASP760  ASP761  ALA762  ILE779  LEU786  VAL792 
 PHE793  MET794  SER795  GLU796  ALA797  LYS798  CYS799  TRP800  GLU811  SER814 

> <Gold.Protein.RotatedAtoms>
  152.2508  134.8135  160.0446 H   0  0  0  0  0  0  0  0  0  0  0  0  # atno 6907 bound_to 6896
  151.8816  133.3491  159.3776 H   0  0  0  0  0  0  0  0  0  0  0  0  # atno 6908 bound_to 6896
  150.7083  134.4940  159.5573 H   0  0  0  0  0  0  0  0  0  0  0  0  # atno 6909 bound_to 6896
  146.1986  140.3641  142.8431 H   0  0  0  0  0  0  0  0  0  0  0  0  # atno 7974 bound_to 7965
  155.7992  140.0889  157.1966 H   0  0  0  0  0  0  0  0  0  0  0  0  # atno 8008 bound_to 7997
  154.3982  140.1475  156.3313 H   0  0  0  0  0  0  0  0  0  0  0  0  # atno 8009 bound_to 7997
  155.8480  140.3436  155.5677 H   0  0  0  0  0  0  0  0  0  0  0  0  # atno 8010 bound_to 7997
  139.4942  144.5956  151.6590 H   0  0  0  0  0  0  0  0  0  0  0  0  # atno 10167 bound_to 10162
  156.3121  130.4254  149.8041 H   0  0  0  0  0  0  0  0  0  0  0  0  # atno 10718 bound_to 10713
  153.4508  135.7015  153.6110 H   0  0  0  0  0  0  0  0  0  0  0  0  # atno 10763 bound_to 10752
  153.4446  135.3772  155.2248 H   0  0  0  0  0  0  0  0  0  0  0  0  # atno 10764 bound_to 10752
  154.8728  135.3982  154.3920 H   0  0  0  0  0  0  0  0  0  0  0  0  # atno 10765 bound_to 10752
  141.0924  133.6630  156.4024 H   0  0  0  0  0  0  0  0  0  0  0  0  # atno 11005 bound_to 11000
  144.8633  140.7170  143.6093 LP  0  0  0  0  0  0  0  0  0  0  0  0  # atno 17320 bound_to 7965
  145.3561  139.1693  143.4408 LP  0  0  0  0  0  0  0  0  0  0  0  0  # atno 17321 bound_to 7965
  140.5593  144.0296  150.6162 LP  0  0  0  0  0  0  0  0  0  0  0  0  # atno 17342 bound_to 10162
  140.3376  143.3039  152.0622 LP  0  0  0  0  0  0  0  0  0  0  0  0  # atno 17343 bound_to 10162
  156.5380  130.8287  151.3259 LP  0  0  0  0  0  0  0  0  0  0  0  0  # atno 17370 bound_to 10713
  157.7393  130.9829  150.2306 LP  0  0  0  0  0  0  0  0  0  0  0  0  # atno 17371 bound_to 10713
  140.5221  134.6294  157.5321 LP  0  0  0  0  0  0  0  0  0  0  0  0  # atno 17394 bound_to 11000
  139.9753  134.7226  155.9962 LP  0  0  0  0  0  0  0  0  0  0  0  0  # atno 17395 bound_to 11000

$$$$
