AV-unprocessed.smi:713|AV-procd|sdf|3474|dock7
  -GOLD-   22720 0463D 1   1.00000     0.00000
 Structure written by MMmdl.
 41 42  0  0  0  0  0  0  0  0  1 V2000
  151.4123  144.1036  158.8146 C   0  0  0  0  0  0  0  0  0  0  0  0
  152.5761  143.1165  159.0390 C   0  0  2  0  0  0  0  0  0  0  0  0
  152.4244  141.8108  158.2382 C   0  0  0  0  0  0  0  0  0  0  0  0
  153.1119  140.8237  158.5036 O   0  0  0  0  0  0  0  0  0  0  0  0
  151.5021  141.8165  157.2617 N   0  0  0  0  0  0  0  0  0  0  0  0
  151.2008  140.6948  156.3790 C   0  0  2  0  0  0  0  0  0  0  0  0
  150.1546  141.1279  155.3365 C   0  0  0  0  0  0  0  0  0  0  0  0
  149.7673  139.9681  154.4057 C   0  0  0  0  0  0  0  0  0  0  0  0
  149.2998  138.7343  155.1996 C   0  0  0  0  0  0  0  0  0  0  0  0
  150.2870  138.2956  156.3057 C   0  0  1  0  0  0  0  0  0  0  0  0
  151.7919  137.4151  155.6553 S   0  0  0  0  0  0  0  0  0  0  0  0
  152.5807  138.7021  154.6019 C   0  0  0  0  0  0  0  0  0  0  0  0
  152.7170  137.1165  156.7583 O   0  0  0  0  0  0  0  0  0  0  0  0
  151.3385  136.3232  154.7808 O   0  0  0  0  0  0  0  0  0  0  0  0
  150.6834  139.4915  157.1941 C   0  0  0  0  0  0  0  0  0  0  0  0
  152.7811  142.8361  160.4562 N   0  0  0  0  0  0  0  0  0  0  0  0
  153.6739  141.9505  161.0255 C   0  0  0  0  0  0  0  0  0  0  0  0
  153.4919  141.9962  162.3779 C   0  0  0  0  0  0  0  0  0  0  0  0
  152.4464  142.9462  162.5462 C   0  0  0  0  0  0  0  0  0  0  0  0
  152.0193  143.4422  161.3969 N   0  0  0  0  0  0  0  0  0  0  0  0
  151.3201  144.3716  157.7617 H   0  0  0  0  0  0  0  0  0  0  0  0
  151.5735  145.0266  159.3720 H   0  0  0  0  0  0  0  0  0  0  0  0
  150.4564  143.6873  159.1354 H   0  0  0  0  0  0  0  0  0  0  0  0
  153.4832  143.6006  158.6738 H   0  0  0  0  0  0  0  0  0  0  0  0
  150.9794  142.6669  157.1104 H   0  0  0  0  0  0  0  0  0  0  0  0
  152.1134  140.4148  155.8515 H   0  0  0  0  0  0  0  0  0  0  0  0
  149.2607  141.4963  155.8422 H   0  0  0  0  0  0  0  0  0  0  0  0
  150.5385  141.9593  154.7440 H   0  0  0  0  0  0  0  0  0  0  0  0
  148.9717  140.2909  153.7337 H   0  0  0  0  0  0  0  0  0  0  0  0
  150.6084  139.7153  153.7629 H   0  0  0  0  0  0  0  0  0  0  0  0
  148.3458  138.9756  155.6701 H   0  0  0  0  0  0  0  0  0  0  0  0
  149.0895  137.9110  154.5186 H   0  0  0  0  0  0  0  0  0  0  0  0
  149.7830  137.5661  156.9401 H   0  0  0  0  0  0  0  0  0  0  0  0
  153.4256  138.2624  154.0722 H   0  0  0  0  0  0  0  0  0  0  0  0
  152.9401  139.5235  155.2205 H   0  0  0  0  0  0  0  0  0  0  0  0
  151.8578  139.0759  153.8775 H   0  0  0  0  0  0  0  0  0  0  0  0
  151.4306  139.1784  157.9240 H   0  0  0  0  0  0  0  0  0  0  0  0
  149.8123  139.8016  157.7730 H   0  0  0  0  0  0  0  0  0  0  0  0
  154.3574  141.3669  160.4265 H   0  0  0  0  0  0  0  0  0  0  0  0
  154.0230  141.4348  163.1321 H   0  0  0  0  0  0  0  0  0  0  0  0
  151.9863  143.2857  163.4625 H   0  0  0  0  0  0  0  0  0  0  0  0
  1  2  1  0  0  0  0
  1 21  1  0  0  0  0
  1 22  1  0  0  0  0
  1 23  1  0  0  0  0
  2  3  1  0  0  0  0
  2 16  1  0  0  0  0
  2 24  1  0  0  0  0
  3  4  2  0  0  0  0
  3  5  1  0  0  0  0
  5  6  1  0  0  0  0
  5 25  1  0  0  0  0
  6 15  1  0  0  0  0
  6  7  1  0  0  0  0
  6 26  1  0  0  0  0
  7  8  1  0  0  0  0
  7 27  1  0  0  0  0
  7 28  1  0  0  0  0
  8  9  1  0  0  0  0
  8 29  1  0  0  0  0
  8 30  1  0  0  0  0
  9 10  1  0  0  0  0
  9 31  1  0  0  0  0
  9 32  1  0  0  0  0
 10 11  1  0  0  0  0
 10 15  1  0  0  0  0
 10 33  1  0  0  0  0
 11 12  1  0  0  0  0
 11 13  2  0  0  0  0
 11 14  2  0  0  0  0
 12 34  1  0  0  0  0
 12 35  1  0  0  0  0
 12 36  1  0  0  0  0
 15 37  1  0  0  0  0
 15 38  1  0  0  0  0
 16 20  1  0  0  0  0
 16 17  1  0  0  0  0
 17 18  2  0  0  0  0
 17 39  1  0  0  0  0
 18 19  1  0  0  0  0
 18 40  1  0  0  0  0
 19 20  2  0  0  0  0
 19 41  1  0  0  0  0
M  END
> <s_m_source_file>
AV-unprocessed.smi

> <i_m_source_file_index>
713

> <i_lp_mmshare_version>
43012

> <i_f3d_flags>
0

> <s_epik_input>
bjFbY0hdW2NIXVtjSF1uMVtDQEhdKFtDSDNdKUMoPU8pW05IXVtDQEBIXTJbQ0gyXVtDSDJdW0NIMl1bQ0BIXShbQ0gyXTIpUyg9TykoPU8pW0NIM10=

> <s_epik_cmdline>
J2VwaWtfcHl0aG9uJywgJy1waCcsICc3LjAnLCAnLXRuJywgJzgnLCAnLW1hJywgJzIwMCcsICctbWV0YWxfYmluZGluZycsICctaW1hZScsICc8aW5maWxlLm1hZT4nLCAnLW9tYWUnLCAnPG91dGZpbGUubWFlPic=

> <r_lp_tautomer_probability>
1

> <r_epik_Ionization_Penalty>
4.07816e-05

> <r_epik_Ionization_Penalty_Charging>
0

> <r_epik_Ionization_Penalty_Neutral>
4.07816e-05

> <r_epik_State_Penalty>
-0

> <r_epik_Charging_Adjusted_Penalty>
0

> <i_epik_Tot_Q>
0

> <i_epik_Tot_abs_Q>
0

> <r_epik_Metal_State_Penalty>
-0

> <b_epik_Metal_Only>
0

> <s_lp_Force_Field>
OPLS_2005

> <r_lp_Energy>
4.10812

> <b_lp_Chiralities_Consistent>
1

> <s_lp_Variant>
AV-unprocessed.smi:713-1

> <Gold.Version>
5.8.1

> <Gold.Id.Protein>
6NUR|6NUR_protein|mol2

> <Gold.PLP.Fitness>
41.4052

> <Gold.PLP.PLP>
-38.5651

> <Gold.PLP.part.hbond>
-2.2496

> <Gold.PLP.part.metal>
0.0000

> <Gold.PLP.part.buried>
-0.7108

> <Gold.PLP.part.nonpolar>
-34.5599

> <Gold.PLP.part.repulsive>
0.3647

> <Gold.PLP.ligand.clash>
0.0000

> <Gold.PLP.ligand.torsion>
0.6774

> <Gold.PLP.Chemscore.Hbond>
1.3018

> <Gold.PLP.Chemscore.CHOScore>
0.0000

> <Gold.PLP.Chemscore.Metal>
0.0000

> <Gold.Chemscore.Hbonds>
donor molecule, donor type, donor heavy atom, donor atom, acceptor molecule, acceptor atom, score
      P1  H  7997  8008       L1     4  0.34
      P1  H 10752 10764       L1    14  0.95

> <Gold.PLP.Chemscore.Internal.Correction>
0.2894

> <Gold.Rescore>
     Score         DG    S(hbond)    S(metal)    S(lipo)     H(rot)  DE(clash)    DE(int)     intcor
      9.74     -14.40       0.56        0.00      98.04       1.72       0.49       4.17       ----

> <Gold.Chemscore.Fitness>
9.7449

> <Gold.Chemscore.DG>
-14.4025

> <Gold.Chemscore.ZeroCoef>
-5.4800

> <Gold.Chemscore.Hbond>
0.5590

> <Gold.Chemscore.Metal>
0.0000

> <Gold.Chemscore.Lipo>
98.0445

> <Gold.Chemscore.Internal_Hbond>
0.0000

> <Gold.Chemscore.DEClash>
0.4888

> <Gold.Chemscore.DEInternal>
4.1688

> <Gold.Chemscore.Rot>
1.7249

> <Gold.Chemscore.Internal.Correction>
   9.000000E+99

> <Gold.Chemscore.Hbonds>
donor molecule, donor type, donor heavy atom, donor atom, acceptor molecule, acceptor atom, score
      P1  H  7997  8008       L1     4  0.33
      P1  H 10752 10764       L1    14  0.22

> <Gold.Chemscore.Hbond.Weighted>
-1.8670

> <Gold.Chemscore.Metal.Weighted>
-0.0000

> <Gold.Chemscore.Lipo.Weighted>
-11.4712

> <Gold.Chemscore.Internal_Hbond.Weighted>
0.0000

> <Gold.Chemscore.DEClash.Weighted>
0.4888

> <Gold.Chemscore.DEInternal.Weighted>
4.1688

> <Gold.Chemscore.Rot.Weighted>
4.4157

> <Gold.Chemscore.Internal.Correction.Weighted>
   9.000000E+99

> <Gold.Protein.RotatedTorsions>
[ 6907 6896 6895 6894 ] final  153.84 input  -60.11 | X-H torsion
[ 7974 7965 7964 7962 ] final   39.00 input  175.53 | X-H torsion
[ 8008 7997 7996 7995 ] final  -89.84 input   59.86 | X-H torsion
[ 10167 10162 10161 10158 ] final  170.92 input  -65.29 | X-H torsion
[ 10718 10713 10712 10709 ] final -130.69 input   66.30 | X-H torsion
[ 10763 10752 10751 10750 ] final  -75.47 input  -60.55 | X-H torsion
[ 11005 11000 10999 10996 ] final   36.76 input  -57.11 | X-H torsion

> <Gold.Protein.ActiveResidues>
 VAL166  LYS551  ARG553  GLY616  TRP617  ASP618  TYR619  PRO620  LYS621  CYS622 
 ASP623  PHE694  ASN695  SER759  ASP760  ASP761  ALA762  ILE779  LEU786  VAL792 
 PHE793  MET794  SER795  GLU796  ALA797  LYS798  CYS799  TRP800  GLU811  SER814 

> <Gold.Protein.RotatedAtoms>
  152.0670  133.4089  159.4442 H   0  0  0  0  0  0  0  0  0  0  0  0  # atno 6907 bound_to 6896
  150.6864  134.3135  159.4765 H   0  0  0  0  0  0  0  0  0  0  0  0  # atno 6908 bound_to 6896
  152.0962  134.9372  160.0621 H   0  0  0  0  0  0  0  0  0  0  0  0  # atno 6909 bound_to 6896
  146.1018  139.5704  142.9409 H   0  0  0  0  0  0  0  0  0  0  0  0  # atno 7974 bound_to 7965
  154.6914  140.0537  157.0367 H   0  0  0  0  0  0  0  0  0  0  0  0  # atno 8008 bound_to 7997
  155.0811  140.3209  155.4582 H   0  0  0  0  0  0  0  0  0  0  0  0  # atno 8009 bound_to 7997
  156.2729  140.2064  156.5939 H   0  0  0  0  0  0  0  0  0  0  0  0  # atno 8010 bound_to 7997
  139.5032  144.3543  151.9890 H   0  0  0  0  0  0  0  0  0  0  0  0  # atno 10167 bound_to 10162
  156.2170  130.6954  151.0713 H   0  0  0  0  0  0  0  0  0  0  0  0  # atno 10718 bound_to 10713
  154.4870  135.5830  153.6431 H   0  0  0  0  0  0  0  0  0  0  0  0  # atno 10763 bound_to 10752
  152.9856  135.6103  154.3174 H   0  0  0  0  0  0  0  0  0  0  0  0  # atno 10764 bound_to 10752
  154.3070  135.2845  155.2563 H   0  0  0  0  0  0  0  0  0  0  0  0  # atno 10765 bound_to 10752
  140.2293  134.3547  155.7971 H   0  0  0  0  0  0  0  0  0  0  0  0  # atno 11005 bound_to 11000
  145.5839  141.0379  143.2107 LP  0  0  0  0  0  0  0  0  0  0  0  0  # atno 17320 bound_to 7965
  144.7439  139.7373  143.7300 LP  0  0  0  0  0  0  0  0  0  0  0  0  # atno 17321 bound_to 7965
  140.2980  144.3679  150.6068 LP  0  0  0  0  0  0  0  0  0  0  0  0  # atno 17342 bound_to 10162
  140.5895  143.2168  151.7279 LP  0  0  0  0  0  0  0  0  0  0  0  0  # atno 17343 bound_to 10162
  157.7068  131.0753  150.6639 LP  0  0  0  0  0  0  0  0  0  0  0  0  # atno 17370 bound_to 10713
  156.6701  130.4537  149.5660 LP  0  0  0  0  0  0  0  0  0  0  0  0  # atno 17371 bound_to 10713
  141.2219  133.7236  156.8705 LP  0  0  0  0  0  0  0  0  0  0  0  0  # atno 17394 bound_to 11000
  140.1767  134.9062  157.2899 LP  0  0  0  0  0  0  0  0  0  0  0  0  # atno 17395 bound_to 11000

$$$$
