AV-unprocessed.smi:1368|AV-procd|sdf|5577|dock7
  -GOLD-   22720 5173D 1   1.00000     0.00000
 Structure written by MMmdl.
 47 49  0  0  0  0  0  0  0  0  2 V2000
  150.7072  128.9813  154.7256 C   0  0  0  0  0  0  0  0  0  0  0  0
  151.3099  130.3181  155.1467 C   0  0  0  0  0  0  0  0  0  0  0  0
  152.4131  130.3352  155.6910 O   0  0  0  0  0  0  0  0  0  0  0  0
  150.5506  131.4030  154.9044 N   0  0  0  0  0  0  0  0  0  0  0  0
  150.8373  132.7713  155.1644 C   0  0  0  0  0  0  0  0  0  0  0  0
  151.6277  133.0603  156.2946 C   0  0  0  0  0  0  0  0  0  0  0  0
  151.9375  134.3921  156.6293 C   0  0  0  0  0  0  0  0  0  0  0  0
  151.4582  135.4631  155.8494 C   0  0  0  0  0  0  0  0  0  0  0  0
  151.8075  136.7357  156.2486 O   0  0  0  0  0  0  0  0  0  0  0  0
  151.4713  137.8233  155.3969 C   0  0  0  0  0  0  0  0  0  0  0  0
  152.1100  139.1076  155.9486 C   0  0  2  0  0  0  0  0  0  0  0  0
  153.4377  138.8160  156.3386 O   0  0  0  0  0  0  0  0  0  0  0  0
  151.3310  139.6565  157.1609 C   0  0  0  0  0  0  0  0  0  0  0  0
  151.0315  141.0937  157.0508 N   0  0  0  0  0  0  0  0  0  0  0  0
  150.3515  141.7725  156.0833 C   0  0  0  0  0  0  0  0  0  0  0  0
  149.7289  141.1912  154.8587 C   0  0  0  0  0  0  0  0  0  0  0  0
  150.3406  143.0870  156.4427 N   0  3  0  0  0  0  0  0  0  0  0  0
  151.0206  143.2518  157.6502 C   0  0  0  0  0  0  0  0  0  0  0  0
  151.2709  144.3935  158.4054 C   0  0  0  0  0  0  0  0  0  0  0  0
  152.0039  144.2161  159.5971 C   0  0  0  0  0  0  0  0  0  0  0  0
  152.4582  142.9425  159.9965 C   0  0  0  0  0  0  0  0  0  0  0  0
  152.1972  141.7923  159.2230 C   0  0  0  0  0  0  0  0  0  0  0  0
  151.4697  141.9753  158.0469 C   0  0  0  0  0  0  0  0  0  0  0  0
  150.6522  135.1740  154.7204 C   0  0  0  0  0  0  0  0  0  0  0  0
  150.3407  133.8423  154.3840 C   0  0  0  0  0  0  0  0  0  0  0  0
  150.0298  129.1020  153.8792 H   0  0  0  0  0  0  0  0  0  0  0  0
  150.1499  128.5426  155.5534 H   0  0  0  0  0  0  0  0  0  0  0  0
  151.4923  128.2834  154.4330 H   0  0  0  0  0  0  0  0  0  0  0  0
  149.6298  131.2194  154.5329 H   0  0  0  0  0  0  0  0  0  0  0  0
  152.0056  132.2580  156.9113 H   0  0  0  0  0  0  0  0  0  0  0  0
  152.5495  134.5936  157.4964 H   0  0  0  0  0  0  0  0  0  0  0  0
  151.8767  137.6180  154.4046 H   0  0  0  0  0  0  0  0  0  0  0  0
  150.3905  137.9401  155.2979 H   0  0  0  0  0  0  0  0  0  0  0  0
  152.1318  139.8694  155.1683 H   0  0  0  0  0  0  0  0  0  0  0  0
  153.6942  137.9991  155.9376 H   0  0  0  0  0  0  0  0  0  0  0  0
  150.3757  139.1381  157.2515 H   0  0  0  0  0  0  0  0  0  0  0  0
  151.8633  139.4676  158.0934 H   0  0  0  0  0  0  0  0  0  0  0  0
  149.3069  141.9770  154.2319 H   0  0  0  0  0  0  0  0  0  0  0  0
  148.9312  140.5017  155.1353 H   0  0  0  0  0  0  0  0  0  0  0  0
  150.4740  140.6479  154.2778 H   0  0  0  0  0  0  0  0  0  0  0  0
  150.9256  145.3705  158.1002 H   0  0  0  0  0  0  0  0  0  0  0  0
  152.2237  145.0740  160.2161 H   0  0  0  0  0  0  0  0  0  0  0  0
  153.0202  142.8452  160.9139 H   0  0  0  0  0  0  0  0  0  0  0  0
  152.5567  140.8233  159.5359 H   0  0  0  0  0  0  0  0  0  0  0  0
  150.2531  135.9579  154.0952 H   0  0  0  0  0  0  0  0  0  0  0  0
  149.7052  133.6714  153.5293 H   0  0  0  0  0  0  0  0  0  0  0  0
  149.8996  143.8175  155.8988 H   0  0  0  0  0  0  0  0  0  0  0  0
  1  2  1  0  0  0  0
  1 26  1  0  0  0  0
  1 27  1  0  0  0  0
  1 28  1  0  0  0  0
  2  3  2  0  0  0  0
  2  4  1  0  0  0  0
  4  5  1  0  0  0  0
  4 29  1  0  0  0  0
  5 25  1  0  0  0  0
  5  6  2  0  0  0  0
  6  7  1  0  0  0  0
  6 30  1  0  0  0  0
  7  8  2  0  0  0  0
  7 31  1  0  0  0  0
  8  9  1  0  0  0  0
  8 24  1  0  0  0  0
  9 10  1  0  0  0  0
 10 11  1  0  0  0  0
 10 32  1  0  0  0  0
 10 33  1  0  0  0  0
 11 12  1  0  0  0  0
 11 13  1  0  0  0  0
 11 34  1  0  0  0  0
 12 35  1  0  0  0  0
 13 14  1  0  0  0  0
 13 36  1  0  0  0  0
 13 37  1  0  0  0  0
 14 23  1  0  0  0  0
 14 15  1  0  0  0  0
 15 16  1  0  0  0  0
 15 17  2  0  0  0  0
 16 38  1  0  0  0  0
 16 39  1  0  0  0  0
 16 40  1  0  0  0  0
 17 18  1  0  0  0  0
 17 47  1  0  0  0  0
 18 23  2  0  0  0  0
 18 19  1  0  0  0  0
 19 20  2  0  0  0  0
 19 41  1  0  0  0  0
 20 21  1  0  0  0  0
 20 42  1  0  0  0  0
 21 22  2  0  0  0  0
 21 43  1  0  0  0  0
 22 23  1  0  0  0  0
 22 44  1  0  0  0  0
 24 25  2  0  0  0  0
 24 45  1  0  0  0  0
 25 46  1  0  0  0  0
M  CHG  1  17   1
M  END
> <s_m_source_file>
AV-unprocessed.smi

> <i_m_source_file_index>
1368

> <i_lp_mmshare_version>
43012

> <i_f3d_flags>
0

> <s_epik_input>
W0NIM11DKD1PKVtOSF1jMVtjSF1bY0hdYyhbY0hdW2NIXTEpT1tDSDJdW0NASF0oW09IXSlbQ0gyXW4oYyhuMilbQ0gzXSljKGMyMylbY0hdW2NIXVtjSF1bY0hdMw==

> <s_epik_cmdline>
J2VwaWtfcHl0aG9uJywgJy1waCcsICc3LjAnLCAnLXRuJywgJzgnLCAnLW1hJywgJzIwMCcsICctbWV0YWxfYmluZGluZycsICctaW1hZScsICc8aW5maWxlLm1hZT4nLCAnLW9tYWUnLCAnPG91dGZpbGUubWFlPic=

> <r_lp_tautomer_probability>
1

> <r_epik_Ionization_Penalty>
1.00673

> <r_epik_Ionization_Penalty_Charging>
1.00673

> <r_epik_Ionization_Penalty_Neutral>
2.60899e-06

> <r_epik_State_Penalty>
1.05579

> <r_epik_Charging_Adjusted_Penalty>
2.06252

> <i_epik_Tot_Q>
1

> <i_epik_Tot_abs_Q>
1

> <r_epik_Metal_State_Penalty>
1.15682

> <b_epik_Metal_Only>
0

> <s_lp_Force_Field>
OPLS_2005

> <r_lp_Energy>
25.0727

> <b_lp_Chiralities_Consistent>
1

> <s_lp_Variant>
AV-unprocessed.smi:1368-3

> <Gold.Version>
5.8.1

> <Gold.Id.Protein>
6NUR|6NUR_protein|mol2

> <Gold.PLP.Fitness>
57.0295

> <Gold.PLP.PLP>
-50.4641

> <Gold.PLP.part.hbond>
-1.7923

> <Gold.PLP.part.metal>
0.0000

> <Gold.PLP.part.buried>
-4.9878

> <Gold.PLP.part.nonpolar>
-43.8907

> <Gold.PLP.part.repulsive>
0.0981

> <Gold.PLP.ligand.clash>
0.0000

> <Gold.PLP.ligand.torsion>
1.0979

> <Gold.PLP.Chemscore.Hbond>
2.8960

> <Gold.PLP.Chemscore.CHOScore>
0.0000

> <Gold.PLP.Chemscore.Metal>
0.0000

> <Gold.Chemscore.Hbonds>
donor molecule, donor type, donor heavy atom, donor atom, acceptor molecule, acceptor atom, score
      L1  H    17    47       P1  8028  1.20
      P1  H  7997  8009       L1    12  0.93

> <Gold.PLP.Chemscore.Internal.Correction>
0.0733

> <Gold.Rescore>
     Score         DG    S(hbond)    S(metal)    S(lipo)     H(rot)  DE(clash)    DE(int)     intcor
     16.95     -19.18       1.73        0.00     121.71       2.47       0.01       2.21       ----

> <Gold.Chemscore.Fitness>
16.9524

> <Gold.Chemscore.DG>
-19.1771

> <Gold.Chemscore.ZeroCoef>
-5.4800

> <Gold.Chemscore.Hbond>
1.7319

> <Gold.Chemscore.Metal>
0.0000

> <Gold.Chemscore.Lipo>
121.7058

> <Gold.Chemscore.Internal_Hbond>
0.0000

> <Gold.Chemscore.DEClash>
0.0149

> <Gold.Chemscore.DEInternal>
2.2099

> <Gold.Chemscore.Rot>
2.4715

> <Gold.Chemscore.Internal.Correction>
   9.000000E+99

> <Gold.Chemscore.Hbonds>
donor molecule, donor type, donor heavy atom, donor atom, acceptor molecule, acceptor atom, score
      L1  H    17    47       P1  8028  0.59
      P1  H  7997  8009       L1    12  0.82

> <Gold.Chemscore.Hbond.Weighted>
-5.7846

> <Gold.Chemscore.Metal.Weighted>
-0.0000

> <Gold.Chemscore.Lipo.Weighted>
-14.2396

> <Gold.Chemscore.Internal_Hbond.Weighted>
0.0000

> <Gold.Chemscore.DEClash.Weighted>
0.0149

> <Gold.Chemscore.DEInternal.Weighted>
2.2099

> <Gold.Chemscore.Rot.Weighted>
6.3271

> <Gold.Chemscore.Internal.Correction.Weighted>
   9.000000E+99

> <Gold.Protein.RotatedTorsions>
[ 6907 6896 6895 6894 ] final -114.31 input  -60.11 | X-H torsion
[ 7974 7965 7964 7962 ] final  -62.02 input  175.53 | X-H torsion
[ 8008 7997 7996 7995 ] final -177.80 input   59.86 | X-H torsion
[ 10167 10162 10161 10158 ] final  -89.34 input  -65.29 | X-H torsion
[ 10718 10713 10712 10709 ] final   32.50 input   66.30 | X-H torsion
[ 10763 10752 10751 10750 ] final -101.95 input  -60.55 | X-H torsion
[ 11005 11000 10999 10996 ] final -173.64 input  -57.11 | X-H torsion

> <Gold.Protein.ActiveResidues>
 VAL166  LYS551  ARG553  GLY616  TRP617  ASP618  TYR619  PRO620  LYS621  CYS622 
 ASP623  PHE694  ASN695  SER759  ASP760  ASP761  ALA762  ILE779  LEU786  VAL792 
 PHE793  MET794  SER795  GLU796  ALA797  LYS798  CYS799  TRP800  GLU811  SER814 

> <Gold.Protein.RotatedAtoms>
  150.7893  133.8819  159.3288 H   0  0  0  0  0  0  0  0  0  0  0  0  # atno 6907 bound_to 6896
  151.6662  135.0981  160.0198 H   0  0  0  0  0  0  0  0  0  0  0  0  # atno 6908 bound_to 6896
  152.3963  133.6713  159.6314 H   0  0  0  0  0  0  0  0  0  0  0  0  # atno 6909 bound_to 6896
  145.7964  140.8680  143.0254 H   0  0  0  0  0  0  0  0  0  0  0  0  # atno 7974 bound_to 7965
  156.0112  140.1241  157.0451 H   0  0  0  0  0  0  0  0  0  0  0  0  # atno 8008 bound_to 7997
  154.4276  140.1087  156.5902 H   0  0  0  0  0  0  0  0  0  0  0  0  # atno 8009 bound_to 7997
  155.6077  140.3471  155.4615 H   0  0  0  0  0  0  0  0  0  0  0  0  # atno 8010 bound_to 7997
  140.3657  143.2819  151.9560 H   0  0  0  0  0  0  0  0  0  0  0  0  # atno 10167 bound_to 10162
  157.2860  130.7279  149.6583 H   0  0  0  0  0  0  0  0  0  0  0  0  # atno 10718 bound_to 10713
  154.7697  135.4878  153.9624 H   0  0  0  0  0  0  0  0  0  0  0  0  # atno 10763 bound_to 10752
  153.1352  135.6761  153.9122 H   0  0  0  0  0  0  0  0  0  0  0  0  # atno 10764 bound_to 10752
  153.8813  135.3132  155.3424 H   0  0  0  0  0  0  0  0  0  0  0  0  # atno 10765 bound_to 10752
  140.4835  134.6052  157.4928 H   0  0  0  0  0  0  0  0  0  0  0  0  # atno 11005 bound_to 11000
  144.6774  140.0196  143.7484 LP  0  0  0  0  0  0  0  0  0  0  0  0  # atno 17320 bound_to 7965
  145.9923  139.3025  143.0977 LP  0  0  0  0  0  0  0  0  0  0  0  0  # atno 17321 bound_to 7965
  139.4809  144.5952  151.7702 LP  0  0  0  0  0  0  0  0  0  0  0  0  # atno 17342 bound_to 10162
  140.5083  144.1065  150.5988 LP  0  0  0  0  0  0  0  0  0  0  0  0  # atno 17343 bound_to 10162
  155.9665  130.4323  150.4958 LP  0  0  0  0  0  0  0  0  0  0  0  0  # atno 17370 bound_to 10713
  157.2912  131.0626  151.2132 LP  0  0  0  0  0  0  0  0  0  0  0  0  # atno 17371 bound_to 10713
  139.9812  134.7134  155.9856 LP  0  0  0  0  0  0  0  0  0  0  0  0  # atno 17394 bound_to 11000
  141.1519  133.6547  156.4041 LP  0  0  0  0  0  0  0  0  0  0  0  0  # atno 17395 bound_to 11000

$$$$
