AV-unprocessed.smi:1697|AV-procd|sdf|6810|dock3
  -GOLD-   22720 7583D 1   1.00000     0.00000
 Structure written by MMmdl.
 55 57  0  0  0  0  0  0  0  0  3 V2000
  147.2496  135.2389  162.9166 C   0  0  0  0  0  0  0  0  0  0  0  0
  147.8642  136.6048  162.6048 C   0  0  0  0  0  0  0  0  0  0  0  0
  147.2893  137.1012  161.4049 O   0  0  0  0  0  0  0  0  0  0  0  0
  147.2727  136.1713  160.3275 C   0  0  2  0  0  0  0  0  0  0  0  0
  148.6998  135.7772  159.9034 C   0  0  0  0  0  0  0  0  0  0  0  0
  149.4670  136.9794  159.3278 C   0  0  0  0  0  0  0  0  0  0  0  0
  148.7396  137.5793  158.1772 N   0  3  2  0  0  0  0  0  0  0  0  0
  149.4945  138.6676  157.5026 C   0  0  0  0  0  0  0  0  0  0  0  0
  150.8954  138.2262  157.0319 C   0  0  1  0  0  0  0  0  0  0  0  0
  150.8050  136.9325  156.4681 O   0  0  0  0  0  0  0  0  0  0  0  0
  151.4752  139.1929  155.9807 C   0  0  0  0  0  0  0  0  0  0  0  0
  151.0415  140.5821  156.1823 N   0  0  0  0  0  0  0  0  0  0  0  0
  150.1738  141.3446  155.4623 C   0  0  0  0  0  0  0  0  0  0  0  0
  150.1088  142.5668  156.0603 N   0  3  0  0  0  0  0  0  0  0  0  0
  150.9418  142.5828  157.1814 C   0  0  0  0  0  0  0  0  0  0  0  0
  151.2105  143.5868  158.1044 C   0  0  0  0  0  0  0  0  0  0  0  0
  152.1176  143.2813  159.1445 C   0  0  0  0  0  0  0  0  0  0  0  0
  152.4339  144.3567  160.1698 C   0  0  0  0  0  0  0  0  0  0  0  0
  152.7221  142.0005  159.2338 C   0  0  0  0  0  0  0  0  0  0  0  0
  153.6959  141.6830  160.3560 C   0  0  0  0  0  0  0  0  0  0  0  0
  152.4351  140.9924  158.2857 C   0  0  0  0  0  0  0  0  0  0  0  0
  151.5409  141.3112  157.2667 C   0  0  0  0  0  0  0  0  0  0  0  0
  147.3695  138.0053  158.5635 C   0  0  0  0  0  0  0  0  0  0  0  0
  146.5563  136.8322  159.1401 C   0  0  0  0  0  0  0  0  0  0  0  0
  147.6685  134.8235  163.8334 H   0  0  0  0  0  0  0  0  0  0  0  0
  147.4406  134.5300  162.1108 H   0  0  0  0  0  0  0  0  0  0  0  0
  146.1700  135.3168  163.0468 H   0  0  0  0  0  0  0  0  0  0  0  0
  147.6805  137.2843  163.4366 H   0  0  0  0  0  0  0  0  0  0  0  0
  148.9447  136.5061  162.4916 H   0  0  0  0  0  0  0  0  0  0  0  0
  146.7101  135.2828  160.6190 H   0  0  0  0  0  0  0  0  0  0  0  0
  149.2521  135.3464  160.7377 H   0  0  0  0  0  0  0  0  0  0  0  0
  148.6453  134.9931  159.1470 H   0  0  0  0  0  0  0  0  0  0  0  0
  149.6157  137.7350  160.1011 H   0  0  0  0  0  0  0  0  0  0  0  0
  150.4572  136.6437  159.0240 H   0  0  0  0  0  0  0  0  0  0  0  0
  148.9357  139.0187  156.6335 H   0  0  0  0  0  0  0  0  0  0  0  0
  149.5699  139.5209  158.1787 H   0  0  0  0  0  0  0  0  0  0  0  0
  151.5824  138.1784  157.8753 H   0  0  0  0  0  0  0  0  0  0  0  0
  149.9511  136.8355  156.0735 H   0  0  0  0  0  0  0  0  0  0  0  0
  152.5658  139.1809  156.0107 H   0  0  0  0  0  0  0  0  0  0  0  0
  151.1906  138.8900  154.9722 H   0  0  0  0  0  0  0  0  0  0  0  0
  149.6367  141.0379  154.5758 H   0  0  0  0  0  0  0  0  0  0  0  0
  150.7460  144.5594  158.0309 H   0  0  0  0  0  0  0  0  0  0  0  0
  153.4919  144.6180  160.1355 H   0  0  0  0  0  0  0  0  0  0  0  0
  152.1941  144.0115  161.1757 H   0  0  0  0  0  0  0  0  0  0  0  0
  151.8595  145.2652  159.9855 H   0  0  0  0  0  0  0  0  0  0  0  0
  154.0864  140.6685  160.2706 H   0  0  0  0  0  0  0  0  0  0  0  0
  153.2044  141.7697  161.3254 H   0  0  0  0  0  0  0  0  0  0  0  0
  154.5431  142.3686  160.3343 H   0  0  0  0  0  0  0  0  0  0  0  0
  152.8940  140.0173  158.3543 H   0  0  0  0  0  0  0  0  0  0  0  0
  147.4317  138.8162  159.2912 H   0  0  0  0  0  0  0  0  0  0  0  0
  146.8477  138.4026  157.6921 H   0  0  0  0  0  0  0  0  0  0  0  0
  146.3912  136.0897  158.3582 H   0  0  0  0  0  0  0  0  0  0  0  0
  145.5683  137.1780  159.4461 H   0  0  0  0  0  0  0  0  0  0  0  0
  148.6226  136.8504  157.4872 H   0  0  0  0  0  0  0  0  0  0  0  0
  149.5346  143.3310  155.7274 H   0  0  0  0  0  0  0  0  0  0  0  0
  1  2  1  0  0  0  0
  1 25  1  0  0  0  0
  1 26  1  0  0  0  0
  1 27  1  0  0  0  0
  2  3  1  0  0  0  0
  2 28  1  0  0  0  0
  2 29  1  0  0  0  0
  3  4  1  0  0  0  0
  4 24  1  0  0  0  0
  4  5  1  0  0  0  0
  4 30  1  0  0  0  0
  5  6  1  0  0  0  0
  5 31  1  0  0  0  0
  5 32  1  0  0  0  0
  6  7  1  0  0  0  0
  6 33  1  0  0  0  0
  6 34  1  0  0  0  0
  7  8  1  0  0  0  0
  7 23  1  0  0  0  0
  7 54  1  0  0  0  0
  8  9  1  0  0  0  0
  8 35  1  0  0  0  0
  8 36  1  0  0  0  0
  9 10  1  0  0  0  0
  9 11  1  0  0  0  0
  9 37  1  0  0  0  0
 10 38  1  0  0  0  0
 11 12  1  0  0  0  0
 11 39  1  0  0  0  0
 11 40  1  0  0  0  0
 12 22  1  0  0  0  0
 12 13  1  0  0  0  0
 13 14  2  0  0  0  0
 13 41  1  0  0  0  0
 14 15  1  0  0  0  0
 14 55  1  0  0  0  0
 15 22  2  0  0  0  0
 15 16  1  0  0  0  0
 16 17  2  0  0  0  0
 16 42  1  0  0  0  0
 17 18  1  0  0  0  0
 17 19  1  0  0  0  0
 18 43  1  0  0  0  0
 18 44  1  0  0  0  0
 18 45  1  0  0  0  0
 19 20  1  0  0  0  0
 19 21  2  0  0  0  0
 20 46  1  0  0  0  0
 20 47  1  0  0  0  0
 20 48  1  0  0  0  0
 21 22  1  0  0  0  0
 21 49  1  0  0  0  0
 23 24  1  0  0  0  0
 23 50  1  0  0  0  0
 23 51  1  0  0  0  0
 24 52  1  0  0  0  0
 24 53  1  0  0  0  0
M  CHG  1   7   1
M  CHG  1  14   1
M  END
> <s_m_source_file>
AV-unprocessed.smi

> <i_m_source_file_index>
1697

> <i_lp_mmshare_version>
43012

> <i_f3d_flags>
0

> <s_epik_input>
W0NIM11bQ0gyXU9bQ0hdMVtDSDJdW0NIMl1OKFtDSDJdW0NIMl0xKVtDSDJdW0NASF0oW09IXSlbQ0gyXW4oW2NIXW4yKWMoYzIzKVtjSF1jKFtDSDNdKWMoW2NIXTMpW0NIM10=

> <s_epik_cmdline>
J2VwaWtfcHl0aG9uJywgJy1waCcsICc3LjAnLCAnLXRuJywgJzgnLCAnLW1hJywgJzIwMCcsICctbWV0YWxfYmluZGluZycsICctaW1hZScsICc8aW5maWxlLm1hZT4nLCAnLW9tYWUnLCAnPG91dGZpbGUubWFlPic=

> <r_epik_Ionization_Penalty>
1.20016

> <r_epik_Ionization_Penalty_Charging>
1.20016

> <r_epik_Ionization_Penalty_Neutral>
1.70998e-06

> <r_epik_State_Penalty>
1.27959

> <r_epik_Charging_Adjusted_Penalty>
2.47975

> <i_epik_Tot_Q>
2

> <i_epik_Tot_abs_Q>
2

> <r_epik_Metal_State_Penalty>
5.29682

> <b_epik_Metal_Only>
0

> <s_lp_Force_Field>
OPLS_2005

> <r_lp_Energy>
32.2175

> <b_lp_Chiralities_Consistent>
1

> <s_lp_Variant>
AV-unprocessed.smi:1697-8

> <Gold.Version>
5.8.1

> <Gold.Id.Protein>
6NUR|6NUR_protein|mol2

> <Gold.PLP.Fitness>
54.6615

> <Gold.PLP.PLP>
-46.7666

> <Gold.PLP.part.hbond>
-2.4424

> <Gold.PLP.part.metal>
0.0000

> <Gold.PLP.part.buried>
-4.4505

> <Gold.PLP.part.nonpolar>
-40.2443

> <Gold.PLP.part.repulsive>
0.2291

> <Gold.PLP.ligand.clash>
0.0000

> <Gold.PLP.ligand.torsion>
0.6400

> <Gold.PLP.Chemscore.Hbond>
3.0000

> <Gold.PLP.Chemscore.CHOScore>
0.0000

> <Gold.PLP.Chemscore.Metal>
0.0000

> <Gold.Chemscore.Hbonds>
donor molecule, donor type, donor heavy atom, donor atom, acceptor molecule, acceptor atom, score
      L1  H    14    55       P1  8028  2.00
      P1  H  6934  6947       L1     3  0.99

> <Gold.PLP.Chemscore.Internal.Correction>
0.1749

> <Gold.Rescore>
     Score         DG    S(hbond)    S(metal)    S(lipo)     H(rot)  DE(clash)    DE(int)     intcor
     19.82     -20.50       1.91        0.00     125.12       2.35       0.05       0.63       ----

> <Gold.Chemscore.Fitness>
19.8239

> <Gold.Chemscore.DG>
-20.5048

> <Gold.Chemscore.ZeroCoef>
-5.4800

> <Gold.Chemscore.Hbond>
1.9141

> <Gold.Chemscore.Metal>
0.0000

> <Gold.Chemscore.Lipo>
125.1243

> <Gold.Chemscore.Internal_Hbond>
0.0000

> <Gold.Chemscore.DEClash>
0.0504

> <Gold.Chemscore.DEInternal>
0.6305

> <Gold.Chemscore.Rot>
2.3468

> <Gold.Chemscore.Internal.Correction>
   9.000000E+99

> <Gold.Chemscore.Hbonds>
donor molecule, donor type, donor heavy atom, donor atom, acceptor molecule, acceptor atom, score
      L1  H    14    55       P1  8028  0.93
      P1  H  6934  6947       L1     3  0.87

> <Gold.Chemscore.Hbond.Weighted>
-6.3930

> <Gold.Chemscore.Metal.Weighted>
-0.0000

> <Gold.Chemscore.Lipo.Weighted>
-14.6395

> <Gold.Chemscore.Internal_Hbond.Weighted>
0.0000

> <Gold.Chemscore.DEClash.Weighted>
0.0504

> <Gold.Chemscore.DEInternal.Weighted>
0.6305

> <Gold.Chemscore.Rot.Weighted>
6.0077

> <Gold.Chemscore.Internal.Correction.Weighted>
   9.000000E+99

> <Gold.Protein.RotatedTorsions>
[ 6907 6896 6895 6894 ] final  -87.16 input  -60.11 | X-H torsion
[ 7974 7965 7964 7962 ] final -179.54 input  175.53 | X-H torsion
[ 8008 7997 7996 7995 ] final  173.10 input   59.86 | X-H torsion
[ 10167 10162 10161 10158 ] final   53.74 input  -65.29 | X-H torsion
[ 10718 10713 10712 10709 ] final  -73.15 input   66.30 | X-H torsion
[ 10763 10752 10751 10750 ] final   40.67 input  -60.55 | X-H torsion
[ 11005 11000 10999 10996 ] final  129.51 input  -57.11 | X-H torsion

> <Gold.Protein.ActiveResidues>
 VAL166  LYS551  ARG553  GLY616  TRP617  ASP618  TYR619  PRO620  LYS621  CYS622 
 ASP623  PHE694  ASN695  SER759  ASP760  ASP761  ALA762  ILE779  LEU786  VAL792 
 PHE793  MET794  SER795  GLU796  ALA797  LYS798  CYS799  TRP800  GLU811  SER814 

> <Gold.Protein.RotatedAtoms>
  150.6866  134.2939  159.4677 H   0  0  0  0  0  0  0  0  0  0  0  0  # atno 6907 bound_to 6896
  152.0841  134.9449  160.0582 H   0  0  0  0  0  0  0  0  0  0  0  0  # atno 6908 bound_to 6896
  152.0790  133.4108  159.4529 H   0  0  0  0  0  0  0  0  0  0  0  0  # atno 6909 bound_to 6896
  144.7137  140.0702  143.6429 H   0  0  0  0  0  0  0  0  0  0  0  0  # atno 7974 bound_to 7965
  156.1109  140.1469  156.9340 H   0  0  0  0  0  0  0  0  0  0  0  0  # atno 8008 bound_to 7997
  154.4766  140.0892  156.7320 H   0  0  0  0  0  0  0  0  0  0  0  0  # atno 8009 bound_to 7997
  155.4598  140.3438  155.4313 H   0  0  0  0  0  0  0  0  0  0  0  0  # atno 8010 bound_to 7997
  140.2375  144.3620  150.6392 H   0  0  0  0  0  0  0  0  0  0  0  0  # atno 10167 bound_to 10162
  156.0291  130.4388  150.2700 H   0  0  0  0  0  0  0  0  0  0  0  0  # atno 10718 bound_to 10713
  152.9929  135.6184  154.2664 H   0  0  0  0  0  0  0  0  0  0  0  0  # atno 10763 bound_to 10752
  154.2398  135.2789  155.2860 H   0  0  0  0  0  0  0  0  0  0  0  0  # atno 10764 bound_to 10752
  154.5379  135.5769  153.6872 H   0  0  0  0  0  0  0  0  0  0  0  0  # atno 10765 bound_to 10752
  139.9619  134.9600  156.9158 H   0  0  0  0  0  0  0  0  0  0  0  0  # atno 11005 bound_to 11000
  145.9790  139.2927  143.1053 LP  0  0  0  0  0  0  0  0  0  0  0  0  # atno 17320 bound_to 7965
  145.9032  140.9229  143.0492 LP  0  0  0  0  0  0  0  0  0  0  0  0  # atno 17321 bound_to 7965
  140.6139  143.2171  151.6832 LP  0  0  0  0  0  0  0  0  0  0  0  0  # atno 17342 bound_to 10162
  139.5088  144.3597  152.0574 LP  0  0  0  0  0  0  0  0  0  0  0  0  # atno 17343 bound_to 10162
  157.0803  131.0141  151.3159 LP  0  0  0  0  0  0  0  0  0  0  0  0  # atno 17370 bound_to 10713
  157.4932  130.7835  149.7529 LP  0  0  0  0  0  0  0  0  0  0  0  0  # atno 17371 bound_to 10713
  140.5481  134.0654  155.7361 LP  0  0  0  0  0  0  0  0  0  0  0  0  # atno 17394 bound_to 11000
  141.1297  133.9323  157.2562 LP  0  0  0  0  0  0  0  0  0  0  0  0  # atno 17395 bound_to 11000

$$$$
