AV-unprocessed.smi:1195|AV-procd|sdf|4994|dock7
  -GOLD-   22720 3593D 1   1.00000     0.00000
 Structure written by MMmdl.
 39 40  0  0  0  0  0  0  0  0  1 V2000
  151.3976  129.1297  154.2123 N   0  0  0  0  0  0  0  0  0  0  0  0
  152.0929  129.7115  155.1925 C   0  0  0  0  0  0  0  0  0  0  0  0
  153.3178  129.6207  155.2638 O   0  0  0  0  0  0  0  0  0  0  0  0
  151.2806  130.5020  156.2267 C   0  0  0  0  0  0  0  0  0  0  0  0
  150.6541  131.6893  155.6681 N   0  0  0  0  0  0  0  0  0  0  0  0
  149.8471  131.7827  154.5507 C   0  0  0  0  0  0  0  0  0  0  0  0
  149.5132  133.1032  154.4449 C   0  0  0  0  0  0  0  0  0  0  0  0
  148.7009  133.7511  153.4807 N   0  0  0  0  0  0  0  0  0  0  0  0
  147.6286  133.2480  152.8478 C   0  0  0  0  0  0  0  0  0  0  0  0
  147.1787  132.1134  153.0096 O   0  0  0  0  0  0  0  0  0  0  0  0
  147.0973  134.1441  152.0037 N   0  0  0  0  0  0  0  0  0  0  0  0
  145.9272  133.9179  151.1609 C   0  0  2  0  0  0  0  0  0  0  0  0
  144.7109  133.5907  152.0481 C   0  0  0  0  0  0  0  0  0  0  0  0
  143.4643  133.2777  151.2046 C   0  0  0  0  0  0  0  0  0  0  0  0
  143.7411  132.1375  150.2100 C   0  0  1  0  0  0  0  0  0  0  0  0
  142.5987  131.9238  149.4084 O   0  0  0  0  0  0  0  0  0  0  0  0
  144.9452  132.4691  149.3121 C   0  0  0  0  0  0  0  0  0  0  0  0
  146.1936  132.7793  150.1537 C   0  0  0  0  0  0  0  0  0  0  0  0
  150.1518  133.7526  155.5331 C   0  0  0  0  0  0  0  0  0  0  0  0
  150.8416  132.8926  156.2665 N   0  0  0  0  0  0  0  0  0  0  0  0
  151.8820  128.5978  153.5036 H   0  0  0  0  0  0  0  0  0  0  0  0
  150.3927  129.2232  154.1808 H   0  0  0  0  0  0  0  0  0  0  0  0
  150.5121  129.8570  156.6555 H   0  0  0  0  0  0  0  0  0  0  0  0
  151.9339  130.8108  157.0436 H   0  0  0  0  0  0  0  0  0  0  0  0
  149.5917  130.9193  153.9544 H   0  0  0  0  0  0  0  0  0  0  0  0
  148.9668  134.6962  153.2458 H   0  0  0  0  0  0  0  0  0  0  0  0
  147.5343  135.0518  151.9381 H   0  0  0  0  0  0  0  0  0  0  0  0
  145.7066  134.8337  150.6084 H   0  0  0  0  0  0  0  0  0  0  0  0
  144.9377  132.7346  152.6854 H   0  0  0  0  0  0  0  0  0  0  0  0
  144.5002  134.4262  152.7169 H   0  0  0  0  0  0  0  0  0  0  0  0
  142.6337  133.0114  151.8592 H   0  0  0  0  0  0  0  0  0  0  0  0
  143.1581  134.1754  150.6654 H   0  0  0  0  0  0  0  0  0  0  0  0
  143.9419  131.2177  150.7607 H   0  0  0  0  0  0  0  0  0  0  0  0
  141.9993  132.6422  149.5422 H   0  0  0  0  0  0  0  0  0  0  0  0
  145.1532  131.6373  148.6381 H   0  0  0  0  0  0  0  0  0  0  0  0
  144.7127  133.3287  148.6816 H   0  0  0  0  0  0  0  0  0  0  0  0
  147.0200  133.0442  149.4930 H   0  0  0  0  0  0  0  0  0  0  0  0
  146.5021  131.8790  150.6871 H   0  0  0  0  0  0  0  0  0  0  0  0
  150.1403  134.7967  155.8086 H   0  0  0  0  0  0  0  0  0  0  0  0
  1  2  1  0  0  0  0
  1 21  1  0  0  0  0
  1 22  1  0  0  0  0
  2  3  2  0  0  0  0
  2  4  1  0  0  0  0
  4  5  1  0  0  0  0
  4 23  1  0  0  0  0
  4 24  1  0  0  0  0
  5 20  1  0  0  0  0
  5  6  1  0  0  0  0
  6  7  2  0  0  0  0
  6 25  1  0  0  0  0
  7  8  1  0  0  0  0
  7 19  1  0  0  0  0
  8  9  1  0  0  0  0
  8 26  1  0  0  0  0
  9 10  2  0  0  0  0
  9 11  1  0  0  0  0
 11 12  1  0  0  0  0
 11 27  1  0  0  0  0
 12 18  1  0  0  0  0
 12 13  1  0  0  0  0
 12 28  1  0  0  0  0
 13 14  1  0  0  0  0
 13 29  1  0  0  0  0
 13 30  1  0  0  0  0
 14 15  1  0  0  0  0
 14 31  1  0  0  0  0
 14 32  1  0  0  0  0
 15 16  1  0  0  0  0
 15 17  1  0  0  0  0
 15 33  1  0  0  0  0
 16 34  1  0  0  0  0
 17 18  1  0  0  0  0
 17 35  1  0  0  0  0
 17 36  1  0  0  0  0
 18 37  1  0  0  0  0
 18 38  1  0  0  0  0
 19 20  2  0  0  0  0
 19 39  1  0  0  0  0
M  END
> <s_m_source_file>
AV-unprocessed.smi

> <i_m_source_file_index>
1195

> <i_lp_mmshare_version>
43012

> <i_f3d_flags>
0

> <s_epik_input>
W05IMl1DKD1PKVtDSDJdbjFbY0hdYyhbY0hdbjEpW05IXUMoPU8pW05IXVtDQEBIXTJbQ0gyXVtDSDJdW0NAQEhdKFtPSF0pW0NIMl1bQ0gyXTI=

> <s_epik_cmdline>
J2VwaWtfcHl0aG9uJywgJy1waCcsICc3LjAnLCAnLXRuJywgJzgnLCAnLW1hJywgJzIwMCcsICctbWV0YWxfYmluZGluZycsICctaW1hZScsICc8aW5maWxlLm1hZT4nLCAnLW9tYWUnLCAnPG91dGZpbGUubWFlPic=

> <r_lp_tautomer_probability>
1

> <r_epik_Ionization_Penalty>
4.75851e-05

> <r_epik_Ionization_Penalty_Charging>
0

> <r_epik_Ionization_Penalty_Neutral>
4.75851e-05

> <r_epik_State_Penalty>
-0

> <r_epik_Charging_Adjusted_Penalty>
0

> <i_epik_Tot_Q>
0

> <i_epik_Tot_abs_Q>
0

> <r_epik_Metal_State_Penalty>
-0

> <b_epik_Metal_Only>
0

> <s_lp_Force_Field>
OPLS_2005

> <r_lp_Energy>
13.1232

> <b_lp_Chiralities_Consistent>
1

> <s_lp_Variant>
AV-unprocessed.smi:1195-1

> <Gold.Version>
5.8.1

> <Gold.Id.Protein>
6NUR|6NUR_protein|mol2

> <Gold.PLP.Fitness>
50.1808

> <Gold.PLP.PLP>
-37.2776

> <Gold.PLP.part.hbond>
-5.4786

> <Gold.PLP.part.metal>
0.0000

> <Gold.PLP.part.buried>
-4.3063

> <Gold.PLP.part.nonpolar>
-28.3953

> <Gold.PLP.part.repulsive>
0.2576

> <Gold.PLP.ligand.clash>
0.0000

> <Gold.PLP.ligand.torsion>
0.3291

> <Gold.PLP.Chemscore.Hbond>
4.5180

> <Gold.PLP.Chemscore.CHOScore>
0.0000

> <Gold.PLP.Chemscore.Metal>
0.0000

> <Gold.Chemscore.Hbonds>
donor molecule, donor type, donor heavy atom, donor atom, acceptor molecule, acceptor atom, score
      L1  H     1    21       P1 10737  1.00
      L1  H     8    26       P1  7948  0.76
      L1  H    11    27       P1  7948  1.00
      L1  H    16    34       P1 10186  1.00
      P1  H 10785 10796       L1    16  0.75

> <Gold.PLP.Chemscore.Internal.Correction>
0.0074

> <Gold.Rescore>
     Score         DG    S(hbond)    S(metal)    S(lipo)     H(rot)  DE(clash)    DE(int)     intcor
     14.67     -16.20       2.69        0.00      72.20       2.62       0.08       1.46       ----

> <Gold.Chemscore.Fitness>
14.6656

> <Gold.Chemscore.DG>
-16.1973

> <Gold.Chemscore.ZeroCoef>
-5.4800

> <Gold.Chemscore.Hbond>
2.6887

> <Gold.Chemscore.Metal>
0.0000

> <Gold.Chemscore.Lipo>
72.2004

> <Gold.Chemscore.Internal_Hbond>
0.0000

> <Gold.Chemscore.DEClash>
0.0760

> <Gold.Chemscore.DEInternal>
1.4557

> <Gold.Chemscore.Rot>
2.6212

> <Gold.Chemscore.Internal.Correction>
   9.000000E+99

> <Gold.Chemscore.Hbonds>
donor molecule, donor type, donor heavy atom, donor atom, acceptor molecule, acceptor atom, score
      L1  H     1    21       P1 10737  0.72
      L1  H     8    26       P1  7948  0.10
      L1  H    11    27       P1  7948  0.86
      L1  H    16    34       P1 10186  0.93
      P1  H 10785 10796       L1    16  0.09

> <Gold.Chemscore.Hbond.Weighted>
-8.9802

> <Gold.Chemscore.Metal.Weighted>
-0.0000

> <Gold.Chemscore.Lipo.Weighted>
-8.4474

> <Gold.Chemscore.Internal_Hbond.Weighted>
0.0000

> <Gold.Chemscore.DEClash.Weighted>
0.0760

> <Gold.Chemscore.DEInternal.Weighted>
1.4557

> <Gold.Chemscore.Rot.Weighted>
6.7103

> <Gold.Chemscore.Internal.Correction.Weighted>
   9.000000E+99

> <Gold.Protein.RotatedTorsions>
[ 6907 6896 6895 6894 ] final  -41.16 input  -60.11 | X-H torsion
[ 7974 7965 7964 7962 ] final    0.42 input  175.53 | X-H torsion
[ 8008 7997 7996 7995 ] final   58.18 input   59.86 | X-H torsion
[ 10167 10162 10161 10158 ] final -144.07 input  -65.29 | X-H torsion
[ 10718 10713 10712 10709 ] final   87.17 input   66.30 | X-H torsion
[ 10763 10752 10751 10750 ] final  159.16 input  -60.55 | X-H torsion
[ 11005 11000 10999 10996 ] final   -7.82 input  -57.11 | X-H torsion

> <Gold.Protein.ActiveResidues>
 VAL166  LYS551  ARG553  GLY616  TRP617  ASP618  TYR619  PRO620  LYS621  CYS622 
 ASP623  PHE694  ASN695  SER759  ASP760  ASP761  ALA762  ILE779  LEU786  VAL792 
 PHE793  MET794  SER795  GLU796  ALA797  LYS798  CYS799  TRP800  GLU811  SER814 

> <Gold.Protein.RotatedAtoms>
  150.9700  134.9075  159.7782 H   0  0  0  0  0  0  0  0  0  0  0  0  # atno 6907 bound_to 6896
  152.5187  134.3554  159.9276 H   0  0  0  0  0  0  0  0  0  0  0  0  # atno 6908 bound_to 6896
  151.3563  133.3865  159.2720 H   0  0  0  0  0  0  0  0  0  0  0  0  # atno 6909 bound_to 6896
  146.2434  140.1140  142.8343 H   0  0  0  0  0  0  0  0  0  0  0  0  # atno 7974 bound_to 7965
  155.5458  140.3485  155.4457 H   0  0  0  0  0  0  0  0  0  0  0  0  # atno 8008 bound_to 7997
  156.0618  140.1342  156.9958 H   0  0  0  0  0  0  0  0  0  0  0  0  # atno 8009 bound_to 7997
  154.4483  140.0983  156.6513 H   0  0  0  0  0  0  0  0  0  0  0  0  # atno 8010 bound_to 7997
  139.7933  143.7935  152.2652 H   0  0  0  0  0  0  0  0  0  0  0  0  # atno 10167 bound_to 10162
  157.6937  131.0245  150.3084 H   0  0  0  0  0  0  0  0  0  0  0  0  # atno 10718 bound_to 10713
  154.2274  135.2779  155.2903 H   0  0  0  0  0  0  0  0  0  0  0  0  # atno 10763 bound_to 10752
  154.5652  135.5635  153.7047 H   0  0  0  0  0  0  0  0  0  0  0  0  # atno 10764 bound_to 10752
  153.0028  135.6308  154.2415 H   0  0  0  0  0  0  0  0  0  0  0  0  # atno 10765 bound_to 10752
  140.7168  133.8862  155.8791 H   0  0  0  0  0  0  0  0  0  0  0  0  # atno 11005 bound_to 11000
  145.0462  140.8983  143.5022 LP  0  0  0  0  0  0  0  0  0  0  0  0  # atno 17320 bound_to 7965
  145.1230  139.2681  143.5578 LP  0  0  0  0  0  0  0  0  0  0  0  0  # atno 17321 bound_to 7965
  139.8033  144.7365  150.9795 LP  0  0  0  0  0  0  0  0  0  0  0  0  # atno 17342 bound_to 10162
  140.7820  143.4323  151.0676 LP  0  0  0  0  0  0  0  0  0  0  0  0  # atno 17343 bound_to 10162
  156.3589  130.3843  149.7268 LP  0  0  0  0  0  0  0  0  0  0  0  0  # atno 17370 bound_to 10713
  156.4721  130.8001  151.3019 LP  0  0  0  0  0  0  0  0  0  0  0  0  # atno 17371 bound_to 10713
  141.0037  134.1115  157.4291 LP  0  0  0  0  0  0  0  0  0  0  0  0  # atno 17394 bound_to 11000
  139.8858  135.0075  156.6456 LP  0  0  0  0  0  0  0  0  0  0  0  0  # atno 17395 bound_to 11000

$$$$
