AV-unprocessed.smi:72|AV-procd|sdf|681|dock4
  -GOLD-   2262016593D 1   1.00000     0.00000
 Structure written by MMmdl.
 29 30  0  0  0  0  0  0  0  0  1 V2000
  154.2867  138.4645  154.4330 N   0  0  0  0  0  0  0  0  0  0  0  0
  153.0140  138.6189  154.5144 C   0  0  0  0  0  0  0  0  0  0  0  0
  152.0539  137.7344  154.0013 N   0  0  0  0  0  0  0  0  0  0  0  0
  150.7980  138.0282  154.1435 C   0  0  0  0  0  0  0  0  0  0  0  0
  150.3542  139.2532  154.7986 N   0  0  0  0  0  0  0  0  0  0  0  0
  148.8865  139.6056  154.9811 C   0  0  2  0  0  0  0  0  0  0  0  0
  148.0892  138.7326  154.2330 O   0  0  0  0  0  0  0  0  0  0  0  0
  147.7261  139.3468  152.9997 C   0  0  1  0  0  0  0  0  0  0  0  0
  146.5353  138.6261  152.3444 C   0  0  0  0  0  0  0  0  0  0  0  0
  146.9645  137.9434  151.1857 O   0  0  0  0  0  0  0  0  0  0  0  0
  147.4748  140.7939  153.4331 C   0  0  1  0  0  0  0  0  0  0  0  0
  146.1808  140.9231  154.0002 O   0  0  0  0  0  0  0  0  0  0  0  0
  148.5901  141.0269  154.4525 C   0  0  1  0  0  0  0  0  0  0  0  0
  148.2139  141.9390  155.4676 O   0  0  0  0  0  0  0  0  0  0  0  0
  151.3148  140.1335  155.3564 C   0  0  0  0  0  0  0  0  0  0  0  0
  150.9975  141.1586  155.9597 O   0  0  0  0  0  0  0  0  0  0  0  0
  152.6061  139.7799  155.1816 N   0  0  0  0  0  0  0  0  0  0  0  0
  148.6866  139.4646  156.0449 H   0  0  0  0  0  0  0  0  0  0  0  0
  148.5822  139.3407  152.3226 H   0  0  0  0  0  0  0  0  0  0  0  0
  147.5481  141.4864  152.5941 H   0  0  0  0  0  0  0  0  0  0  0  0
  149.4700  141.4123  153.9347 H   0  0  0  0  0  0  0  0  0  0  0  0
  154.5009  137.6089  153.9408 H   0  0  0  0  0  0  0  0  0  0  0  0
  150.0073  137.3717  153.7802 H   0  0  0  0  0  0  0  0  0  0  0  0
  146.0581  137.9318  153.0370 H   0  0  0  0  0  0  0  0  0  0  0  0
  145.7809  139.3505  152.0363 H   0  0  0  0  0  0  0  0  0  0  0  0
  146.5405  137.0993  151.1607 H   0  0  0  0  0  0  0  0  0  0  0  0
  145.5541  140.5650  153.3898 H   0  0  0  0  0  0  0  0  0  0  0  0
  148.4128  142.8142  155.1699 H   0  0  0  0  0  0  0  0  0  0  0  0
  153.3151  140.3910  155.5596 H   0  0  0  0  0  0  0  0  0  0  0  0
  1  2  2  0  0  0  0
  1 22  1  0  0  0  0
  2 17  1  0  0  0  0
  2  3  1  0  0  0  0
  3  4  2  0  0  0  0
  4  5  1  0  0  0  0
  4 23  1  0  0  0  0
  5  6  1  0  0  0  0
  5 15  1  0  0  0  0
  6 18  1  0  0  0  0
  6 13  1  0  0  0  0
  6  7  1  0  0  0  0
  7  8  1  0  0  0  0
  8 19  1  0  0  0  0
  8  9  1  0  0  0  0
  8 11  1  0  0  0  0
  9 10  1  0  0  0  0
  9 24  1  0  0  0  0
  9 25  1  0  0  0  0
 10 26  1  0  0  0  0
 11 20  1  0  0  0  0
 11 12  1  0  0  0  0
 11 13  1  0  0  0  0
 12 27  1  0  0  0  0
 13 21  1  0  0  0  0
 13 14  1  0  0  0  0
 14 28  1  0  0  0  0
 15 16  2  0  0  0  0
 15 17  1  0  0  0  0
 17 29  1  0  0  0  0
M  END
> <s_m_source_file>
AV-unprocessed.smi

> <i_m_source_file_index>
72

> <i_lp_mmshare_version>
43012

> <i_f3d_flags>
0

> <s_epik_input>
W05IMl1jMW5bY0hdbihjKD1PKW4xKVtDQEBIXTJPW0NASF0oW0NIMl1bT0hdKVtDQEBIXShbT0hdKVtDQEhdMltPSF0=

> <s_epik_cmdline>
J2VwaWtfcHl0aG9uJywgJy1waCcsICc3LjAnLCAnLXRuJywgJzgnLCAnLW1hJywgJzIwMCcsICctbWV0YWxfYmluZGluZycsICctaW1hZScsICc8aW5maWxlLm1hZT4nLCAnLW9tYWUnLCAnPG91dGZpbGUubWFlPic=

> <r_lp_tautomer_probability>
7.17554e-07

> <r_epik_Ionization_Penalty>
0.0066451

> <r_epik_Ionization_Penalty_Charging>
0.00663793

> <r_epik_Ionization_Penalty_Neutral>
7.17052e-06

> <r_epik_State_Penalty>
0.419231

> <r_epik_Charging_Adjusted_Penalty>
0.425868

> <i_epik_Tot_Q>
0

> <i_epik_Tot_abs_Q>
0

> <r_epik_Metal_State_Penalty>
1.44144

> <b_epik_Metal_Only>
0

> <s_epik_Chemistry_Notes>
This compound contains an acetal/aminal-like group ( X-CH(R)-Y where X, Y are N, S, or O) that may be acid/base labile, releasing an aldehyde.

> <s_lp_Force_Field>
OPLS_2005

> <r_lp_Energy>
42.1864

> <b_lp_Chiralities_Consistent>
1

> <s_lp_Variant>
AV-unprocessed.smi:72-19

> <Gold.Version>
5.8.1

> <Gold.Id.Protein>
6NUR|6NUR_protein|mol2

> <Gold.PLP.Fitness>
44.9792

> <Gold.PLP.PLP>
-31.7914

> <Gold.PLP.part.hbond>
-6.5192

> <Gold.PLP.part.metal>
0.0000

> <Gold.PLP.part.buried>
-3.3294

> <Gold.PLP.part.nonpolar>
-24.0238

> <Gold.PLP.part.repulsive>
1.0114

> <Gold.PLP.ligand.clash>
0.0000

> <Gold.PLP.ligand.torsion>
0.7962

> <Gold.PLP.Chemscore.Hbond>
3.9191

> <Gold.PLP.Chemscore.CHOScore>
1.0000

> <Gold.PLP.Chemscore.Metal>
0.0000

> <Gold.Chemscore.Hbonds>
donor molecule, donor type, donor heavy atom, donor atom, acceptor molecule, acceptor atom, score
      L1  H    12    27       P1 10175  0.88
      L1  H    14    28       P1  8028  0.98
      P1  H  7954  7966       L1    10  1.00
      P1  H  7997  8009       L1     1  0.40
      P1  H 10752 10763       L1     3  0.39
      L1  C     4    23       P1  7948  1.00

> <Gold.PLP.Chemscore.Internal.Correction>
0.0229

> <Gold.Rescore>
     Score         DG    S(hbond)    S(metal)    S(lipo)     H(rot)  DE(clash)    DE(int)     intcor
      4.61      -8.86       3.05        0.00      30.59       4.06       1.28       2.98       ----

> <Gold.Chemscore.Fitness>
4.6108

> <Gold.Chemscore.DG>
-8.8639

> <Gold.Chemscore.ZeroCoef>
-5.4800

> <Gold.Chemscore.Hbond>
3.0534

> <Gold.Chemscore.Metal>
0.0000

> <Gold.Chemscore.Lipo>
30.5915

> <Gold.Chemscore.Internal_Hbond>
0.0000

> <Gold.Chemscore.DEClash>
1.2764

> <Gold.Chemscore.DEInternal>
2.9767

> <Gold.Chemscore.Rot>
4.0600

> <Gold.Chemscore.Internal.Correction>
   9.000000E+99

> <Gold.Chemscore.Hbonds>
donor molecule, donor type, donor heavy atom, donor atom, acceptor molecule, acceptor atom, score
      L1  H    12    27       P1 10175  0.78
      L1  H    14    28       P1  8028  0.89
      P1  H  7954  7966       L1    10  0.45
      P1  H  7997  8009       L1     1  0.05
      P1  H 10752 10763       L1     3  0.19

> <Gold.Chemscore.Hbond.Weighted>
-10.1983

> <Gold.Chemscore.Metal.Weighted>
-0.0000

> <Gold.Chemscore.Lipo.Weighted>
-3.5792

> <Gold.Chemscore.Internal_Hbond.Weighted>
0.0000

> <Gold.Chemscore.DEClash.Weighted>
1.2764

> <Gold.Chemscore.DEInternal.Weighted>
2.9767

> <Gold.Chemscore.Rot.Weighted>
10.3936

> <Gold.Chemscore.Internal.Correction.Weighted>
   9.000000E+99

> <Gold.Protein.RotatedTorsions>
[ 6907 6896 6895 6894 ] final  -26.45 input  -60.11 | X-H torsion
[ 7974 7965 7964 7962 ] final  -14.29 input  175.53 | X-H torsion
[ 8008 7997 7996 7995 ] final -110.13 input   59.86 | X-H torsion
[ 10167 10162 10161 10158 ] final  146.78 input  -65.29 | X-H torsion
[ 10718 10713 10712 10709 ] final   57.98 input   66.30 | X-H torsion
[ 10763 10752 10751 10750 ] final   35.42 input  -60.55 | X-H torsion
[ 11005 11000 10999 10996 ] final  -65.79 input  -57.11 | X-H torsion

> <Gold.Protein.ActiveResidues>
 VAL166  LYS551  ARG553  GLY616  TRP617  ASP618  TYR619  PRO620  LYS621  CYS622 
 ASP623  PHE694  ASN695  SER759  ASP760  ASP761  ALA762  ILE779  LEU786  VAL792 
 PHE793  MET794  SER795  GLU796  ALA797  LYS798  CYS799  TRP800  GLU811  SER814 

> <Gold.Protein.RotatedAtoms>
  151.1608  135.0272  159.8709 H   0  0  0  0  0  0  0  0  0  0  0  0  # atno 6907 bound_to 6896
  152.5451  134.1281  159.8438 H   0  0  0  0  0  0  0  0  0  0  0  0  # atno 6908 bound_to 6896
  151.1376  133.4947  159.2630 H   0  0  0  0  0  0  0  0  0  0  0  0  # atno 6909 bound_to 6896
  146.2080  140.3327  142.8400 H   0  0  0  0  0  0  0  0  0  0  0  0  # atno 7974 bound_to 7965
  154.9699  140.0398  157.2229 H   0  0  0  0  0  0  0  0  0  0  0  0  # atno 8008 bound_to 7997
  154.7811  140.2819  155.6041 H   0  0  0  0  0  0  0  0  0  0  0  0  # atno 8009 bound_to 7997
  156.2936  140.2591  156.2637 H   0  0  0  0  0  0  0  0  0  0  0  0  # atno 8010 bound_to 7997
  139.4901  144.5804  151.6883 H   0  0  0  0  0  0  0  0  0  0  0  0  # atno 10167 bound_to 10162
  157.5559  130.8800  149.9035 H   0  0  0  0  0  0  0  0  0  0  0  0  # atno 10718 bound_to 10713
  153.0120  135.6333  154.1824 H   0  0  0  0  0  0  0  0  0  0  0  0  # atno 10763 bound_to 10752
  154.1566  135.2826  155.3122 H   0  0  0  0  0  0  0  0  0  0  0  0  # atno 10764 bound_to 10752
  154.6013  135.5586  153.7438 H   0  0  0  0  0  0  0  0  0  0  0  0  # atno 10765 bound_to 10752
  141.1464  133.6687  156.6040 H   0  0  0  0  0  0  0  0  0  0  0  0  # atno 11005 bound_to 11000
  144.8841  140.7439  143.5968 LP  0  0  0  0  0  0  0  0  0  0  0  0  # atno 17320 bound_to 7965
  145.3248  139.1777  143.4568 LP  0  0  0  0  0  0  0  0  0  0  0  0  # atno 17321 bound_to 7965
  140.5409  144.0581  150.6088 LP  0  0  0  0  0  0  0  0  0  0  0  0  # atno 17342 bound_to 10162
  140.3603  143.2912  152.0391 LP  0  0  0  0  0  0  0  0  0  0  0  0  # atno 17343 bound_to 10162
  156.0618  130.3698  150.0965 LP  0  0  0  0  0  0  0  0  0  0  0  0  # atno 17370 bound_to 10713
  156.9134  130.9659  151.3559 LP  0  0  0  0  0  0  0  0  0  0  0  0  # atno 17371 bound_to 10713
  140.3666  134.7641  157.4570 LP  0  0  0  0  0  0  0  0  0  0  0  0  # atno 17394 bound_to 11000
  140.0743  134.5819  155.8608 LP  0  0  0  0  0  0  0  0  0  0  0  0  # atno 17395 bound_to 11000

$$$$
