AV-unprocessed.smi:235|AV-procd|sdf|1806|dock10
  -GOLD-   2262020383D 1   1.00000     0.00000
 Structure written by MMmdl.
 54 58  0  0  0  0  0  0  0  0  1 V2000
  148.5802  132.3941  159.3679 O   0  0  0  0  0  0  0  0  0  0  0  0
  148.2790  133.5285  158.9936 C   0  0  0  0  0  0  0  0  0  0  0  0
  148.6510  134.0402  157.8113 N   0  0  0  0  0  0  0  0  0  0  0  0
  149.4457  133.3724  156.8327 C   0  0  0  0  0  0  0  0  0  0  0  0
  150.7660  134.0049  156.4501 C   0  0  0  0  0  0  0  0  0  0  0  0
  149.6122  134.0430  155.4863 C   0  0  0  0  0  0  0  0  0  0  0  0
  147.4322  134.4455  159.8908 C   0  0  1  0  0  0  0  0  0  0  0  0
  147.1262  133.7857  161.2452 C   0  0  0  0  0  0  0  0  0  0  0  0
  146.9459  134.9691  162.1902 C   0  0  0  0  0  0  0  0  0  0  0  0
  147.9539  135.9923  161.6686 C   0  0  0  0  0  0  0  0  0  0  0  0
  148.1414  135.6745  160.2583 N   0  0  0  0  0  0  0  0  0  0  0  0
  148.3728  136.6792  159.3707 C   0  0  0  0  0  0  0  0  0  0  0  0
  147.3557  137.1226  158.5838 N   0  0  0  0  0  0  0  0  0  0  0  0
  147.5566  138.1064  157.7032 C   0  0  0  0  0  0  0  0  0  0  0  0
  148.6796  138.7775  157.4448 N   0  0  0  0  0  0  0  0  0  0  0  0
  149.7069  138.3362  158.2248 C   0  0  0  0  0  0  0  0  0  0  0  0
  149.6434  137.3034  159.2036 C   0  0  0  0  0  0  0  0  0  0  0  0
  150.8961  137.1307  159.7833 N   0  0  0  0  0  0  0  0  0  0  0  0
  151.6510  138.0141  159.1895 C   0  0  0  0  0  0  0  0  0  0  0  0
  151.0151  138.7845  158.2431 N   0  0  0  0  0  0  0  0  0  0  0  0
  151.6045  139.8377  157.4371 C   0  0  0  0  0  0  0  0  0  0  0  0
  150.8831  141.1935  157.5909 C   0  0  2  0  0  0  0  0  0  0  0  0
  150.3354  141.5206  156.3296 O   0  0  0  0  0  0  0  0  0  0  0  0
  151.7943  142.3491  158.0609 C   0  0  1  0  0  0  0  0  0  0  0  0
  151.1347  143.7291  158.0335 C   0  0  0  0  0  0  0  0  0  0  0  0
  151.9517  144.5341  159.0308 C   0  0  0  0  0  0  0  0  0  0  0  0
  152.6570  143.4687  159.8737 C   0  0  0  0  0  0  0  0  0  0  0  0
  152.1122  142.2306  159.4400 O   0  0  0  0  0  0  0  0  0  0  0  0
  148.3573  134.9812  157.5927 H   0  0  0  0  0  0  0  0  0  0  0  0
  149.4122  132.2839  156.8198 H   0  0  0  0  0  0  0  0  0  0  0  0
  151.0445  134.9369  156.9387 H   0  0  0  0  0  0  0  0  0  0  0  0
  151.5926  133.3362  156.2189 H   0  0  0  0  0  0  0  0  0  0  0  0
  149.6702  133.4010  154.6097 H   0  0  0  0  0  0  0  0  0  0  0  0
  149.1205  135.0013  155.3296 H   0  0  0  0  0  0  0  0  0  0  0  0
  146.4920  134.7048  159.4001 H   0  0  0  0  0  0  0  0  0  0  0  0
  146.2439  133.1463  161.2085 H   0  0  0  0  0  0  0  0  0  0  0  0
  147.9649  133.1764  161.5878 H   0  0  0  0  0  0  0  0  0  0  0  0
  145.9339  135.3643  162.0910 H   0  0  0  0  0  0  0  0  0  0  0  0
  147.1056  134.7097  163.2371 H   0  0  0  0  0  0  0  0  0  0  0  0
  147.5926  137.0094  161.8280 H   0  0  0  0  0  0  0  0  0  0  0  0
  148.9105  135.8848  162.1815 H   0  0  0  0  0  0  0  0  0  0  0  0
  146.6937  138.3974  157.1228 H   0  0  0  0  0  0  0  0  0  0  0  0
  152.6971  138.1325  159.4317 H   0  0  0  0  0  0  0  0  0  0  0  0
  152.6558  139.9358  157.7120 H   0  0  0  0  0  0  0  0  0  0  0  0
  151.5841  139.5144  156.3955 H   0  0  0  0  0  0  0  0  0  0  0  0
  150.0516  141.0867  158.2885 H   0  0  0  0  0  0  0  0  0  0  0  0
  149.9382  140.7442  155.9656 H   0  0  0  0  0  0  0  0  0  0  0  0
  152.7187  142.3673  157.4799 H   0  0  0  0  0  0  0  0  0  0  0  0
  151.1250  144.1740  157.0381 H   0  0  0  0  0  0  0  0  0  0  0  0
  150.1027  143.6584  158.3804 H   0  0  0  0  0  0  0  0  0  0  0  0
  152.6839  145.1630  158.5231 H   0  0  0  0  0  0  0  0  0  0  0  0
  151.3141  145.1799  159.6352 H   0  0  0  0  0  0  0  0  0  0  0  0
  153.7310  143.4758  159.6838 H   0  0  0  0  0  0  0  0  0  0  0  0
  152.4991  143.6082  160.9434 H   0  0  0  0  0  0  0  0  0  0  0  0
  1  2  2  0  0  0  0
  2  3  1  0  0  0  0
  2  7  1  0  0  0  0
  3  4  1  0  0  0  0
  3 29  1  0  0  0  0
  4  6  1  0  0  0  0
  4  5  1  0  0  0  0
  4 30  1  0  0  0  0
  5  6  1  0  0  0  0
  5 31  1  0  0  0  0
  5 32  1  0  0  0  0
  6 33  1  0  0  0  0
  6 34  1  0  0  0  0
  7 11  1  0  0  0  0
  7  8  1  0  0  0  0
  7 35  1  0  0  0  0
  8  9  1  0  0  0  0
  8 36  1  0  0  0  0
  8 37  1  0  0  0  0
  9 10  1  0  0  0  0
  9 38  1  0  0  0  0
  9 39  1  0  0  0  0
 10 11  1  0  0  0  0
 10 40  1  0  0  0  0
 10 41  1  0  0  0  0
 11 12  1  0  0  0  0
 12 17  1  0  0  0  0
 12 13  2  0  0  0  0
 13 14  1  0  0  0  0
 14 15  2  0  0  0  0
 14 42  1  0  0  0  0
 15 16  1  0  0  0  0
 16 20  1  0  0  0  0
 16 17  2  0  0  0  0
 17 18  1  0  0  0  0
 18 19  2  0  0  0  0
 19 20  1  0  0  0  0
 19 43  1  0  0  0  0
 20 21  1  0  0  0  0
 21 22  1  0  0  0  0
 21 44  1  0  0  0  0
 21 45  1  0  0  0  0
 22 23  1  0  0  0  0
 22 24  1  0  0  0  0
 22 46  1  0  0  0  0
 23 47  1  0  0  0  0
 24 28  1  0  0  0  0
 24 25  1  0  0  0  0
 24 48  1  0  0  0  0
 25 26  1  0  0  0  0
 25 49  1  0  0  0  0
 25 50  1  0  0  0  0
 26 27  1  0  0  0  0
 26 51  1  0  0  0  0
 26 52  1  0  0  0  0
 27 28  1  0  0  0  0
 27 53  1  0  0  0  0
 27 54  1  0  0  0  0
M  END
> <s_m_source_file>
AV-unprocessed.smi

> <i_m_source_file_index>
235

> <i_lp_mmshare_version>
43012

> <i_f3d_flags>
0

> <s_epik_input>
W0NIMl0xW0NIMl1bQ0hdMVtOSF1DKD1PKVtDQEBIXTJbQ0gyXVtDSDJdW0NIMl1OMmMobltjSF1uMyljKGMzNCluW2NIXW40W0NIMl1bQ0BIXShbT0hdKVtDQEBIXTVbQ0gyXVtDSDJdW0NIMl1PNQ==

> <s_epik_cmdline>
J2VwaWtfcHl0aG9uJywgJy1waCcsICc3LjAnLCAnLXRuJywgJzgnLCAnLW1hJywgJzIwMCcsICctbWV0YWxfYmluZGluZycsICctaW1hZScsICc8aW5maWxlLm1hZT4nLCAnLW9tYWUnLCAnPG91dGZpbGUubWFlPic=

> <r_lp_tautomer_probability>
1

> <r_epik_Ionization_Penalty>
0.000526714

> <r_epik_Ionization_Penalty_Charging>
0

> <r_epik_Ionization_Penalty_Neutral>
0.000526714

> <r_epik_State_Penalty>
0.000272704

> <r_epik_Charging_Adjusted_Penalty>
0.000272704

> <i_epik_Tot_Q>
0

> <i_epik_Tot_abs_Q>
0

> <r_epik_Metal_State_Penalty>
-0

> <b_epik_Metal_Only>
0

> <s_lp_Force_Field>
OPLS_2005

> <r_lp_Energy>
59.6109

> <b_lp_Chiralities_Consistent>
1

> <s_lp_Variant>
AV-unprocessed.smi:235-6

> <Gold.Version>
5.8.1

> <Gold.Id.Protein>
6NUR|6NUR_protein|mol2

> <Gold.PLP.Fitness>
43.8768

> <Gold.PLP.PLP>
-44.6661

> <Gold.PLP.part.hbond>
-0.9490

> <Gold.PLP.part.metal>
0.0000

> <Gold.PLP.part.buried>
-7.8183

> <Gold.PLP.part.nonpolar>
-36.1861

> <Gold.PLP.part.repulsive>
0.0794

> <Gold.PLP.ligand.clash>
0.0000

> <Gold.PLP.ligand.torsion>
2.0568

> <Gold.PLP.Chemscore.Hbond>
0.9913

> <Gold.PLP.Chemscore.CHOScore>
0.0000

> <Gold.PLP.Chemscore.Metal>
0.0000

> <Gold.Chemscore.Hbonds>
donor molecule, donor type, donor heavy atom, donor atom, acceptor molecule, acceptor atom, score
      P1  H  6896  6909       L1    18  1.00

> <Gold.PLP.Chemscore.Internal.Correction>
0.3506

> <Gold.Rescore>
     Score         DG    S(hbond)    S(metal)    S(lipo)     H(rot)  DE(clash)    DE(int)     intcor
     11.83     -13.81       0.93        0.00     103.24       2.68       0.00       1.98       ----

> <Gold.Chemscore.Fitness>
11.8345

> <Gold.Chemscore.DG>
-13.8131

> <Gold.Chemscore.ZeroCoef>
-5.4800

> <Gold.Chemscore.Hbond>
0.9294

> <Gold.Chemscore.Metal>
0.0000

> <Gold.Chemscore.Lipo>
103.2437

> <Gold.Chemscore.Internal_Hbond>
0.0000

> <Gold.Chemscore.DEClash>
0.0015

> <Gold.Chemscore.DEInternal>
1.9771

> <Gold.Chemscore.Rot>
2.6760

> <Gold.Chemscore.Internal.Correction>
   9.000000E+99

> <Gold.Chemscore.Hbonds>
donor molecule, donor type, donor heavy atom, donor atom, acceptor molecule, acceptor atom, score
      P1  H  6896  6909       L1    18  0.69

> <Gold.Chemscore.Hbond.Weighted>
-3.1042

> <Gold.Chemscore.Metal.Weighted>
-0.0000

> <Gold.Chemscore.Lipo.Weighted>
-12.0795

> <Gold.Chemscore.Internal_Hbond.Weighted>
0.0000

> <Gold.Chemscore.DEClash.Weighted>
0.0015

> <Gold.Chemscore.DEInternal.Weighted>
1.9771

> <Gold.Chemscore.Rot.Weighted>
6.8506

> <Gold.Chemscore.Internal.Correction.Weighted>
   9.000000E+99

> <Gold.Protein.RotatedTorsions>
[ 6907 6896 6895 6894 ] final  106.27 input  -60.11 | X-H torsion
[ 7974 7965 7964 7962 ] final   56.27 input  175.53 | X-H torsion
[ 8008 7997 7996 7995 ] final -138.15 input   59.86 | X-H torsion
[ 10167 10162 10161 10158 ] final  -80.95 input  -65.29 | X-H torsion
[ 10718 10713 10712 10709 ] final  -18.10 input   66.30 | X-H torsion
[ 10763 10752 10751 10750 ] final -148.44 input  -60.55 | X-H torsion
[ 11005 11000 10999 10996 ] final -122.21 input  -57.11 | X-H torsion

> <Gold.Protein.ActiveResidues>
 VAL166  LYS551  ARG553  GLY616  TRP617  ASP618  TYR619  PRO620  LYS621  CYS622 
 ASP623  PHE694  ASN695  SER759  ASP760  ASP761  ALA762  ILE779  LEU786  VAL792 
 PHE793  MET794  SER795  GLU796  ALA797  LYS798  CYS799  TRP800  GLU811  SER814 

> <Gold.Protein.RotatedAtoms>
  152.5200  133.9405  159.7623 H   0  0  0  0  0  0  0  0  0  0  0  0  # atno 6907 bound_to 6896
  150.9736  133.6310  159.2741 H   0  0  0  0  0  0  0  0  0  0  0  0  # atno 6908 bound_to 6896
  151.3512  135.0890  159.9456 H   0  0  0  0  0  0  0  0  0  0  0  0  # atno 6909 bound_to 6896
  145.9415  139.3893  143.0360 H   0  0  0  0  0  0  0  0  0  0  0  0  # atno 7974 bound_to 7965
  155.4235  140.0520  157.3024 H   0  0  0  0  0  0  0  0  0  0  0  0  # atno 8008 bound_to 7997
  154.4892  140.2113  155.9546 H   0  0  0  0  0  0  0  0  0  0  0  0  # atno 8009 bound_to 7997
  156.1318  140.3170  155.8365 H   0  0  0  0  0  0  0  0  0  0  0  0  # atno 8010 bound_to 7997
  140.4456  143.2500  151.8563 H   0  0  0  0  0  0  0  0  0  0  0  0  # atno 10167 bound_to 10162
  156.5643  130.4733  149.6392 H   0  0  0  0  0  0  0  0  0  0  0  0  # atno 10718 bound_to 10713
  154.8233  135.3334  154.6974 H   0  0  0  0  0  0  0  0  0  0  0  0  # atno 10763 bound_to 10752
  153.7603  135.6933  153.4931 H   0  0  0  0  0  0  0  0  0  0  0  0  # atno 10764 bound_to 10752
  153.2114  135.4481  155.0334 H   0  0  0  0  0  0  0  0  0  0  0  0  # atno 10765 bound_to 10752
  141.0012  134.0399  157.3534 H   0  0  0  0  0  0  0  0  0  0  0  0  # atno 11005 bound_to 11000
  145.8293  140.9639  143.0857 LP  0  0  0  0  0  0  0  0  0  0  0  0  # atno 17320 bound_to 7965
  144.6780  140.0142  143.7484 LP  0  0  0  0  0  0  0  0  0  0  0  0  # atno 17321 bound_to 7965
  139.4792  144.5179  151.8842 LP  0  0  0  0  0  0  0  0  0  0  0  0  # atno 17342 bound_to 10162
  140.4267  144.2170  150.5887 LP  0  0  0  0  0  0  0  0  0  0  0  0  # atno 17343 bound_to 10162
  156.2771  130.7050  151.1864 LP  0  0  0  0  0  0  0  0  0  0  0  0  # atno 17370 bound_to 10713
  157.7362  131.0565  150.5428 LP  0  0  0  0  0  0  0  0  0  0  0  0  # atno 17371 bound_to 10713
  139.9040  135.0174  156.7400 LP  0  0  0  0  0  0  0  0  0  0  0  0  # atno 17394 bound_to 11000
  140.6885  133.9411  155.7952 LP  0  0  0  0  0  0  0  0  0  0  0  0  # atno 17395 bound_to 11000

$$$$
