AV-unprocessed.smi:1144|AV-procd|sdf|4881|dock4
  -GOLD-   22720 3453D 1   1.00000     0.00000
 Structure written by MMmdl.
 34 35  0  0  0  0  0  0  0  0  1 V2000
  149.2497  144.9737  160.5277 C   0  0  0  0  0  0  0  0  0  0  0  0
  150.1837  143.9391  160.1109 N   0  0  0  0  0  0  0  0  0  0  0  0
  151.4829  144.0989  160.7498 C   0  0  0  0  0  0  0  0  0  0  0  0
  152.4739  143.0137  160.2973 C   0  0  0  0  0  0  0  0  0  0  0  0
  152.5836  143.0333  158.8773 O   0  0  0  0  0  0  0  0  0  0  0  0
  151.3380  142.8203  158.2145 C   0  0  2  0  0  0  0  0  0  0  0  0
  151.5812  142.8617  156.7001 C   0  0  0  0  0  0  0  0  0  0  0  0
  150.3557  142.6241  155.9523 N   0  0  0  0  0  0  0  0  0  0  0  0
  150.0128  141.4094  155.3901 C   0  0  0  0  0  0  0  0  0  0  0  0
  148.8169  141.2988  154.8005 N   0  0  0  0  0  0  0  0  0  0  0  0
  148.5082  140.1010  154.2590 C   0  0  0  0  0  0  0  0  0  0  0  0
  149.4000  139.0116  154.3093 C   0  0  0  0  0  0  0  0  0  0  0  0
  150.6344  139.2425  154.9569 C   0  0  0  0  0  0  0  0  0  0  0  0
  151.6954  138.1598  155.0853 C   0  0  0  0  0  0  0  0  0  0  0  0
  151.2874  137.0086  154.5497 F   0  0  0  0  0  0  0  0  0  0  0  0
  152.8087  138.5449  154.4613 F   0  0  0  0  0  0  0  0  0  0  0  0
  151.9729  137.9523  156.3726 F   0  0  0  0  0  0  0  0  0  0  0  0
  150.9324  140.4478  155.4960 N   0  0  0  0  0  0  0  0  0  0  0  0
  150.3505  143.9163  158.6631 C   0  0  0  0  0  0  0  0  0  0  0  0
  149.1131  144.9571  161.6095 H   0  0  0  0  0  0  0  0  0  0  0  0
  148.2732  144.8205  160.0676 H   0  0  0  0  0  0  0  0  0  0  0  0
  149.6069  145.9649  160.2453 H   0  0  0  0  0  0  0  0  0  0  0  0
  151.8929  145.0821  160.5135 H   0  0  0  0  0  0  0  0  0  0  0  0
  151.3707  144.0598  161.8338 H   0  0  0  0  0  0  0  0  0  0  0  0
  153.4566  143.1909  160.7346 H   0  0  0  0  0  0  0  0  0  0  0  0
  152.1473  142.0273  160.6304 H   0  0  0  0  0  0  0  0  0  0  0  0
  150.9400  141.8421  158.4922 H   0  0  0  0  0  0  0  0  0  0  0  0
  151.9699  143.8411  156.4181 H   0  0  0  0  0  0  0  0  0  0  0  0
  152.3329  142.1239  156.4171 H   0  0  0  0  0  0  0  0  0  0  0  0
  149.6815  143.3728  155.8878 H   0  0  0  0  0  0  0  0  0  0  0  0
  147.5434  140.0111  153.7821 H   0  0  0  0  0  0  0  0  0  0  0  0
  149.1448  138.0573  153.8733 H   0  0  0  0  0  0  0  0  0  0  0  0
  149.3838  143.7516  158.1854 H   0  0  0  0  0  0  0  0  0  0  0  0
  150.7066  144.8882  158.3178 H   0  0  0  0  0  0  0  0  0  0  0  0
  1  2  1  0  0  0  0
  1 20  1  0  0  0  0
  1 21  1  0  0  0  0
  1 22  1  0  0  0  0
  2 19  1  0  0  0  0
  2  3  1  0  0  0  0
  3  4  1  0  0  0  0
  3 23  1  0  0  0  0
  3 24  1  0  0  0  0
  4  5  1  0  0  0  0
  4 25  1  0  0  0  0
  4 26  1  0  0  0  0
  5  6  1  0  0  0  0
  6  7  1  0  0  0  0
  6 19  1  0  0  0  0
  6 27  1  0  0  0  0
  7  8  1  0  0  0  0
  7 28  1  0  0  0  0
  7 29  1  0  0  0  0
  8  9  1  0  0  0  0
  8 30  1  0  0  0  0
  9 18  1  0  0  0  0
  9 10  2  0  0  0  0
 10 11  1  0  0  0  0
 11 12  2  0  0  0  0
 11 31  1  0  0  0  0
 12 13  1  0  0  0  0
 12 32  1  0  0  0  0
 13 14  1  0  0  0  0
 13 18  2  0  0  0  0
 14 15  1  0  0  0  0
 14 16  1  0  0  0  0
 14 17  1  0  0  0  0
 19 33  1  0  0  0  0
 19 34  1  0  0  0  0
M  END
> <s_m_source_file>
AV-unprocessed.smi

> <i_m_source_file_index>
1144

> <i_lp_mmshare_version>
43012

> <i_f3d_flags>
0

> <s_epik_input>
W0NIM11OMVtDSDJdW0NIMl1PW0NASF0oW0NIMl0xKVtDSDJdW05IXWMybltjSF1bY0hdYyhuMilDKEYpKEYpRg==

> <s_epik_cmdline>
J2VwaWtfcHl0aG9uJywgJy1waCcsICc3LjAnLCAnLXRuJywgJzgnLCAnLW1hJywgJzIwMCcsICctbWV0YWxfYmluZGluZycsICctaW1hZScsICc8aW5maWxlLm1hZT4nLCAnLW9tYWUnLCAnPG91dGZpbGUubWFlPic=

> <r_lp_tautomer_probability>
1

> <r_epik_Ionization_Penalty>
0.797829

> <r_epik_Ionization_Penalty_Charging>
0

> <r_epik_Ionization_Penalty_Neutral>
0.797829

> <r_epik_State_Penalty>
0.828842

> <r_epik_Charging_Adjusted_Penalty>
0.828842

> <i_epik_Tot_Q>
0

> <i_epik_Tot_abs_Q>
0

> <r_epik_Metal_State_Penalty>
0.828842

> <b_epik_Metal_Only>
0

> <s_lp_Force_Field>
OPLS_2005

> <r_lp_Energy>
14.496

> <b_lp_Chiralities_Consistent>
1

> <s_lp_Variant>
AV-unprocessed.smi:1144-6

> <Gold.Version>
5.8.1

> <Gold.Id.Protein>
6NUR|6NUR_protein|mol2

> <Gold.PLP.Fitness>
38.1157

> <Gold.PLP.PLP>
-35.2265

> <Gold.PLP.part.hbond>
-2.8556

> <Gold.PLP.part.metal>
0.0000

> <Gold.PLP.part.buried>
-5.3300

> <Gold.PLP.part.nonpolar>
-27.6498

> <Gold.PLP.part.repulsive>
0.4657

> <Gold.PLP.ligand.clash>
0.0000

> <Gold.PLP.ligand.torsion>
0.1542

> <Gold.PLP.Chemscore.Hbond>
1.0572

> <Gold.PLP.Chemscore.CHOScore>
0.0000

> <Gold.PLP.Chemscore.Metal>
0.0000

> <Gold.Chemscore.Hbonds>
donor molecule, donor type, donor heavy atom, donor atom, acceptor molecule, acceptor atom, score
      L1  H     8    30       P1  8028  1.00
      P1  H  7989  7998       L1    18  0.07

> <Gold.PLP.Chemscore.Internal.Correction>
0.0259

> <Gold.Rescore>
     Score         DG    S(hbond)    S(metal)    S(lipo)     H(rot)  DE(clash)    DE(int)     intcor
     14.00     -15.59       0.99        0.00      86.91       1.31       1.42       0.18       ----

> <Gold.Chemscore.Fitness>
13.9955

> <Gold.Chemscore.DG>
-15.5946

> <Gold.Chemscore.ZeroCoef>
-5.4800

> <Gold.Chemscore.Hbond>
0.9918

> <Gold.Chemscore.Metal>
0.0000

> <Gold.Chemscore.Lipo>
86.9083

> <Gold.Chemscore.Internal_Hbond>
0.0000

> <Gold.Chemscore.DEClash>
1.4157

> <Gold.Chemscore.DEInternal>
0.1834

> <Gold.Chemscore.Rot>
1.3149

> <Gold.Chemscore.Internal.Correction>
   9.000000E+99

> <Gold.Chemscore.Hbonds>
donor molecule, donor type, donor heavy atom, donor atom, acceptor molecule, acceptor atom, score
      L1  H     8    30       P1  8028  0.97

> <Gold.Chemscore.Hbond.Weighted>
-3.3126

> <Gold.Chemscore.Metal.Weighted>
-0.0000

> <Gold.Chemscore.Lipo.Weighted>
-10.1683

> <Gold.Chemscore.Internal_Hbond.Weighted>
0.0000

> <Gold.Chemscore.DEClash.Weighted>
1.4157

> <Gold.Chemscore.DEInternal.Weighted>
0.1834

> <Gold.Chemscore.Rot.Weighted>
3.3662

> <Gold.Chemscore.Internal.Correction.Weighted>
   9.000000E+99

> <Gold.Protein.RotatedTorsions>
[ 6907 6896 6895 6894 ] final   85.52 input  -60.11 | X-H torsion
[ 7974 7965 7964 7962 ] final  -56.87 input  175.53 | X-H torsion
[ 8008 7997 7996 7995 ] final  -34.04 input   59.86 | X-H torsion
[ 10167 10162 10161 10158 ] final   49.01 input  -65.29 | X-H torsion
[ 10718 10713 10712 10709 ] final -113.83 input   66.30 | X-H torsion
[ 10763 10752 10751 10750 ] final -157.00 input  -60.55 | X-H torsion
[ 11005 11000 10999 10996 ] final   16.78 input  -57.11 | X-H torsion

> <Gold.Protein.ActiveResidues>
 VAL166  LYS551  ARG553  GLY616  TRP617  ASP618  TYR619  PRO620  LYS621  CYS622 
 ASP623  PHE694  ASN695  SER759  ASP760  ASP761  ALA762  ILE779  LEU786  VAL792 
 PHE793  MET794  SER795  GLU796  ALA797  LYS798  CYS799  TRP800  GLU811  SER814 

> <Gold.Protein.RotatedAtoms>
  152.5376  134.2573  159.8921 H   0  0  0  0  0  0  0  0  0  0  0  0  # atno 6907 bound_to 6896
  151.2534  133.4331  159.2620 H   0  0  0  0  0  0  0  0  0  0  0  0  # atno 6908 bound_to 6896
  151.0518  134.9692  159.8272 H   0  0  0  0  0  0  0  0  0  0  0  0  # atno 6909 bound_to 6896
  145.8576  140.8308  142.9953 H   0  0  0  0  0  0  0  0  0  0  0  0  # atno 7974 bound_to 7965
  154.4132  140.1694  156.1985 H   0  0  0  0  0  0  0  0  0  0  0  0  # atno 8008 bound_to 7997
  155.9544  140.3398  155.6412 H   0  0  0  0  0  0  0  0  0  0  0  0  # atno 8009 bound_to 7997
  155.6829  140.0724  157.2468 H   0  0  0  0  0  0  0  0  0  0  0  0  # atno 8010 bound_to 7997
  140.2873  144.3087  150.6249 H   0  0  0  0  0  0  0  0  0  0  0  0  # atno 10167 bound_to 10162
  156.0791  130.5994  150.8695 H   0  0  0  0  0  0  0  0  0  0  0  0  # atno 10718 bound_to 10713
  154.7669  135.3134  154.8267 H   0  0  0  0  0  0  0  0  0  0  0  0  # atno 10763 bound_to 10752
  153.9013  135.6815  153.4759 H   0  0  0  0  0  0  0  0  0  0  0  0  # atno 10764 bound_to 10752
  153.1277  135.4794  154.9232 H   0  0  0  0  0  0  0  0  0  0  0  0  # atno 10765 bound_to 10752
  140.4433  134.1299  155.7693 H   0  0  0  0  0  0  0  0  0  0  0  0  # atno 11005 bound_to 11000
  144.6727  140.1047  143.7458 LP  0  0  0  0  0  0  0  0  0  0  0  0  # atno 17320 bound_to 7965
  145.9285  139.2591  143.1339 LP  0  0  0  0  0  0  0  0  0  0  0  0  # atno 17321 bound_to 7965
  140.5762  143.2176  151.7511 LP  0  0  0  0  0  0  0  0  0  0  0  0  # atno 17342 bound_to 10162
  139.4947  144.4146  152.0043 LP  0  0  0  0  0  0  0  0  0  0  0  0  # atno 17343 bound_to 10162
  157.5900  131.0944  150.9133 LP  0  0  0  0  0  0  0  0  0  0  0  0  # atno 17370 bound_to 10713
  156.9311  130.5350  149.5279 LP  0  0  0  0  0  0  0  0  0  0  0  0  # atno 17371 bound_to 10713
  141.1696  133.8635  157.1611 LP  0  0  0  0  0  0  0  0  0  0  0  0  # atno 17394 bound_to 11000
  140.0055  135.0010  157.0283 LP  0  0  0  0  0  0  0  0  0  0  0  0  # atno 17395 bound_to 11000

$$$$
