AV-unprocessed.smi:2191|AV-procd|sdf|8895|dock9
  -GOLD-   2272012103D 1   1.00000     0.00000
 Structure written by MMmdl.
 37 39  0  0  0  0  0  0  0  0  2 V2000
  152.8466  138.9195  156.9324 O   0  0  0  0  0  0  0  0  0  0  0  0
  151.6927  139.7199  157.0975 C   0  0  1  0  0  0  0  0  0  0  0  0
  151.8817  140.6040  158.3385 C   0  0  0  0  0  0  0  0  0  0  0  0
  152.4261  141.8536  157.9344 O   0  0  0  0  0  0  0  0  0  0  0  0
  152.2165  142.9492  158.7441 C   0  0  0  0  0  0  0  0  0  0  0  0
  152.0849  142.7073  160.1274 C   0  0  0  0  0  0  0  0  0  0  0  0
  151.8667  143.7679  161.0277 C   0  0  0  0  0  0  0  0  0  0  0  0
  151.7793  145.0887  160.5506 C   0  0  0  0  0  0  0  0  0  0  0  0
  151.9113  145.3453  159.1734 C   0  0  0  0  0  0  0  0  0  0  0  0
  152.1285  144.2841  158.2728 C   0  0  0  0  0  0  0  0  0  0  0  0
  151.4452  140.5438  155.8175 C   0  0  0  0  0  0  0  0  0  0  0  0
  150.5690  139.8577  154.8592 N   0  0  0  0  0  0  0  0  0  0  0  0
  150.6890  138.6302  154.2846 C   0  0  0  0  0  0  0  0  0  0  0  0
  149.6140  138.4522  153.4672 N   0  3  0  0  0  0  0  0  0  0  0  0
  148.7959  139.5831  153.5199 C   0  0  0  0  0  0  0  0  0  0  0  0
  147.5992  139.8746  152.8723 C   0  0  0  0  0  0  0  0  0  0  0  0
  147.0176  141.1288  153.1523 C   0  0  0  0  0  0  0  0  0  0  0  0
  147.6239  142.0382  154.0435 C   0  0  0  0  0  0  0  0  0  0  0  0
  148.8382  141.7330  154.6934 C   0  0  0  0  0  0  0  0  0  0  0  0
  149.4049  140.4906  154.4121 C   0  0  0  0  0  0  0  0  0  0  0  0
  152.6240  138.0250  157.1405 H   0  0  0  0  0  0  0  0  0  0  0  0
  150.8527  139.0463  157.2703 H   0  0  0  0  0  0  0  0  0  0  0  0
  150.9168  140.7682  158.8219 H   0  0  0  0  0  0  0  0  0  0  0  0
  152.5402  140.1087  159.0543 H   0  0  0  0  0  0  0  0  0  0  0  0
  152.1503  141.6964  160.5026 H   0  0  0  0  0  0  0  0  0  0  0  0
  151.7663  143.5678  162.0842 H   0  0  0  0  0  0  0  0  0  0  0  0
  151.6121  145.9037  161.2395 H   0  0  0  0  0  0  0  0  0  0  0  0
  151.8462  146.3586  158.8055 H   0  0  0  0  0  0  0  0  0  0  0  0
  152.2258  144.5218  157.2244 H   0  0  0  0  0  0  0  0  0  0  0  0
  151.0009  141.5117  156.0531 H   0  0  0  0  0  0  0  0  0  0  0  0
  152.3884  140.7520  155.3101 H   0  0  0  0  0  0  0  0  0  0  0  0
  151.4901  137.9241  154.4495 H   0  0  0  0  0  0  0  0  0  0  0  0
  147.1319  139.1805  152.1892 H   0  0  0  0  0  0  0  0  0  0  0  0
  146.0873  141.3989  152.6737 H   0  0  0  0  0  0  0  0  0  0  0  0
  147.1479  142.9893  154.2334 H   0  0  0  0  0  0  0  0  0  0  0  0
  149.2950  142.4344  155.3762 H   0  0  0  0  0  0  0  0  0  0  0  0
  149.4532  137.6189  152.9159 H   0  0  0  0  0  0  0  0  0  0  0  0
  1  2  1  0  0  0  0
  1 21  1  0  0  0  0
  2  3  1  0  0  0  0
  2 11  1  0  0  0  0
  2 22  1  0  0  0  0
  3  4  1  0  0  0  0
  3 23  1  0  0  0  0
  3 24  1  0  0  0  0
  4  5  1  0  0  0  0
  5 10  1  0  0  0  0
  5  6  2  0  0  0  0
  6  7  1  0  0  0  0
  6 25  1  0  0  0  0
  7  8  2  0  0  0  0
  7 26  1  0  0  0  0
  8  9  1  0  0  0  0
  8 27  1  0  0  0  0
  9 10  2  0  0  0  0
  9 28  1  0  0  0  0
 10 29  1  0  0  0  0
 11 12  1  0  0  0  0
 11 30  1  0  0  0  0
 11 31  1  0  0  0  0
 12 20  1  0  0  0  0
 12 13  1  0  0  0  0
 13 14  2  0  0  0  0
 13 32  1  0  0  0  0
 14 15  1  0  0  0  0
 14 37  1  0  0  0  0
 15 20  2  0  0  0  0
 15 16  1  0  0  0  0
 16 17  2  0  0  0  0
 16 33  1  0  0  0  0
 17 18  1  0  0  0  0
 17 34  1  0  0  0  0
 18 19  2  0  0  0  0
 18 35  1  0  0  0  0
 19 20  1  0  0  0  0
 19 36  1  0  0  0  0
M  CHG  1  14   1
M  END
> <s_m_source_file>
AV-unprocessed.smi

> <i_m_source_file_index>
2191

> <i_lp_mmshare_version>
43012

> <i_f3d_flags>
0

> <s_epik_input>
W2NIXTFbY0hdW2NIXVtjSF1jKGMxMiluKFtjSF1uMilbQ0gyXVtDQEhdKFtPSF0pW0NIMl1PYzNbY0hdW2NIXVtjSF1bY0hdW2NIXTM=

> <s_epik_cmdline>
J2VwaWtfcHl0aG9uJywgJy1waCcsICc3LjAnLCAnLXRuJywgJzgnLCAnLW1hJywgJzIwMCcsICctbWV0YWxfYmluZGluZycsICctaW1hZScsICc8aW5maWxlLm1hZT4nLCAnLW9tYWUnLCAnPG91dGZpbGUubWFlPic=

> <r_lp_tautomer_probability>
1

> <r_epik_Ionization_Penalty>
1.35015

> <r_epik_Ionization_Penalty_Charging>
1.35015

> <r_epik_Ionization_Penalty_Neutral>
2.3993e-06

> <r_epik_State_Penalty>
1.42814

> <r_epik_Charging_Adjusted_Penalty>
2.77829

> <i_epik_Tot_Q>
1

> <i_epik_Tot_abs_Q>
1

> <r_epik_Metal_State_Penalty>
5.46522

> <b_epik_Metal_Only>
0

> <s_lp_Force_Field>
OPLS_2005

> <r_lp_Energy>
19.3108

> <b_lp_Chiralities_Consistent>
1

> <s_lp_Variant>
AV-unprocessed.smi:2191-4

> <Gold.Version>
5.8.1

> <Gold.Id.Protein>
6NUR|6NUR_protein|mol2

> <Gold.PLP.Fitness>
54.8507

> <Gold.PLP.PLP>
-48.5099

> <Gold.PLP.part.hbond>
-3.0000

> <Gold.PLP.part.metal>
0.0000

> <Gold.PLP.part.buried>
4.3639

> <Gold.PLP.part.nonpolar>
-50.0940

> <Gold.PLP.part.repulsive>
0.0622

> <Gold.PLP.ligand.clash>
0.0000

> <Gold.PLP.ligand.torsion>
1.3443

> <Gold.PLP.Chemscore.Hbond>
3.0000

> <Gold.PLP.Chemscore.CHOScore>
0.0000

> <Gold.PLP.Chemscore.Metal>
0.0000

> <Gold.Chemscore.Hbonds>
donor molecule, donor type, donor heavy atom, donor atom, acceptor molecule, acceptor atom, score
      L1  H    14    37       P1  7948  2.00
      P1  H  7997  8008       L1     1  1.00

> <Gold.PLP.Chemscore.Internal.Correction>
0.0294

> <Gold.Rescore>
     Score         DG    S(hbond)    S(metal)    S(lipo)     H(rot)  DE(clash)    DE(int)     intcor
     17.97     -19.61       1.52        0.00     127.84       2.31       0.30       1.34       ----

> <Gold.Chemscore.Fitness>
17.9731

> <Gold.Chemscore.DG>
-19.6126

> <Gold.Chemscore.ZeroCoef>
-5.4800

> <Gold.Chemscore.Hbond>
1.5201

> <Gold.Chemscore.Metal>
0.0000

> <Gold.Chemscore.Lipo>
127.8369

> <Gold.Chemscore.Internal_Hbond>
0.0000

> <Gold.Chemscore.DEClash>
0.3014

> <Gold.Chemscore.DEInternal>
1.3381

> <Gold.Chemscore.Rot>
2.3053

> <Gold.Chemscore.Internal.Correction>
   9.000000E+99

> <Gold.Chemscore.Hbonds>
donor molecule, donor type, donor heavy atom, donor atom, acceptor molecule, acceptor atom, score
      L1  H    14    37       P1  7948  0.85
      P1  H  7997  8008       L1     1  0.75

> <Gold.Chemscore.Hbond.Weighted>
-5.0772

> <Gold.Chemscore.Metal.Weighted>
-0.0000

> <Gold.Chemscore.Lipo.Weighted>
-14.9569

> <Gold.Chemscore.Internal_Hbond.Weighted>
0.0000

> <Gold.Chemscore.DEClash.Weighted>
0.3014

> <Gold.Chemscore.DEInternal.Weighted>
1.3381

> <Gold.Chemscore.Rot.Weighted>
5.9015

> <Gold.Chemscore.Internal.Correction.Weighted>
   9.000000E+99

> <Gold.Protein.RotatedTorsions>
[ 6907 6896 6895 6894 ] final   82.89 input  -60.11 | X-H torsion
[ 7974 7965 7964 7962 ] final   15.75 input  175.53 | X-H torsion
[ 8008 7997 7996 7995 ] final  -79.21 input   59.86 | X-H torsion
[ 10167 10162 10161 10158 ] final  155.39 input  -65.29 | X-H torsion
[ 10718 10713 10712 10709 ] final    7.03 input   66.30 | X-H torsion
[ 10763 10752 10751 10750 ] final  -76.27 input  -60.55 | X-H torsion
[ 11005 11000 10999 10996 ] final  174.25 input  -57.11 | X-H torsion

> <Gold.Protein.ActiveResidues>
 VAL166  LYS551  ARG553  GLY616  TRP617  ASP618  TYR619  PRO620  LYS621  CYS622 
 ASP623  PHE694  ASN695  SER759  ASP760  ASP761  ALA762  ILE779  LEU786  VAL792 
 PHE793  MET794  SER795  GLU796  ALA797  LYS798  CYS799  TRP800  GLU811  SER814 

> <Gold.Protein.RotatedAtoms>
  152.5312  134.2980  159.9067 H   0  0  0  0  0  0  0  0  0  0  0  0  # atno 6907 bound_to 6896
  151.2931  133.4150  159.2642 H   0  0  0  0  0  0  0  0  0  0  0  0  # atno 6908 bound_to 6896
  151.0184  134.9466  159.8103 H   0  0  0  0  0  0  0  0  0  0  0  0  # atno 6909 bound_to 6896
  146.2269  139.8848  142.8564 H   0  0  0  0  0  0  0  0  0  0  0  0  # atno 7974 bound_to 7965
  154.5763  140.0682  156.9039 H   0  0  0  0  0  0  0  0  0  0  0  0  # atno 8008 bound_to 7997
  155.2543  140.3354  155.4261 H   0  0  0  0  0  0  0  0  0  0  0  0  # atno 8009 bound_to 7997
  156.2156  140.1777  156.7581 H   0  0  0  0  0  0  0  0  0  0  0  0  # atno 8010 bound_to 7997
  139.4821  144.5103  151.8035 H   0  0  0  0  0  0  0  0  0  0  0  0  # atno 10167 bound_to 10162
  156.9310  130.5826  149.5649 H   0  0  0  0  0  0  0  0  0  0  0  0  # atno 10718 bound_to 10713
  154.4976  135.5803  153.6506 H   0  0  0  0  0  0  0  0  0  0  0  0  # atno 10763 bound_to 10752
  152.9873  135.6128  154.3044 H   0  0  0  0  0  0  0  0  0  0  0  0  # atno 10764 bound_to 10752
  154.2949  135.2848  155.2617 H   0  0  0  0  0  0  0  0  0  0  0  0  # atno 10765 bound_to 10752
  140.3492  134.7209  157.4256 H   0  0  0  0  0  0  0  0  0  0  0  0  # atno 11005 bound_to 11000
  145.2476  141.0032  143.3899 LP  0  0  0  0  0  0  0  0  0  0  0  0  # atno 17320 bound_to 7965
  144.9401  139.4199  143.6453 LP  0  0  0  0  0  0  0  0  0  0  0  0  # atno 17321 bound_to 7965
  140.4605  144.1729  150.5906 LP  0  0  0  0  0  0  0  0  0  0  0  0  # atno 17342 bound_to 10162
  140.4490  143.2495  151.9373 LP  0  0  0  0  0  0  0  0  0  0  0  0  # atno 17343 bound_to 10162
  156.0447  130.5525  150.8854 LP  0  0  0  0  0  0  0  0  0  0  0  0  # atno 17370 bound_to 10713
  157.5847  131.0946  150.9215 LP  0  0  0  0  0  0  0  0  0  0  0  0  # atno 17371 bound_to 10713
  140.0717  134.5854  155.8635 LP  0  0  0  0  0  0  0  0  0  0  0  0  # atno 17394 bound_to 11000
  141.2017  133.6620  156.5964 LP  0  0  0  0  0  0  0  0  0  0  0  0  # atno 17395 bound_to 11000

$$$$
