AV-unprocessed.smi:1036|AV-procd|sdf|4516|dock2
  -GOLD-   22720 2523D 1   1.00000     0.00000
 Structure written by MMmdl.
 42 44  0  0  0  0  0  0  0  0  2 V2000
  152.0117  135.1275  156.7246 O   0  0  0  0  0  0  0  0  0  0  0  0
  150.7101  135.1687  156.1841 C   0  0  0  0  0  0  0  0  0  0  0  0
  150.6780  136.1496  155.0070 C   0  0  0  0  0  0  0  0  0  0  0  0
  150.8040  137.5245  155.4598 N   0  0  0  0  0  0  0  0  0  0  0  0
  149.8766  138.4601  154.9889 C   0  0  0  0  0  0  0  0  0  0  0  0
  149.1096  138.3344  153.8730 N   0  3  0  0  0  0  0  0  0  0  0  0
  148.3016  139.4704  153.7656 C   0  0  0  0  0  0  0  0  0  0  0  0
  147.3488  139.8203  152.8138 C   0  0  0  0  0  0  0  0  0  0  0  0
  146.6913  141.0540  152.9993 C   0  0  0  0  0  0  0  0  0  0  0  0
  146.9878  141.8883  154.0970 C   0  0  0  0  0  0  0  0  0  0  0  0
  147.9553  141.5265  155.0571 C   0  0  0  0  0  0  0  0  0  0  0  0
  148.6035  140.3067  154.8675 C   0  0  0  0  0  0  0  0  0  0  0  0
  149.5912  139.6384  155.6013 N   0  0  0  0  0  0  0  0  0  0  0  0
  150.1102  140.2326  156.8423 C   0  0  0  0  0  0  0  0  0  0  0  0
  151.3824  141.0706  156.6022 C   0  0  2  0  0  0  0  0  0  0  0  0
  152.3863  140.2099  156.1052 O   0  0  0  0  0  0  0  0  0  0  0  0
  151.8229  141.8152  157.8582 C   0  0  0  0  0  0  0  0  0  0  0  0
  151.7799  143.2269  157.9026 C   0  0  0  0  0  0  0  0  0  0  0  0
  152.2221  143.9176  159.0472 C   0  0  0  0  0  0  0  0  0  0  0  0
  152.1824  145.2704  159.0781 F   0  0  0  0  0  0  0  0  0  0  0  0
  152.7133  143.2025  160.1554 C   0  0  0  0  0  0  0  0  0  0  0  0
  152.7614  141.7961  160.1182 C   0  0  0  0  0  0  0  0  0  0  0  0
  152.3188  141.1031  158.9748 C   0  0  0  0  0  0  0  0  0  0  0  0
  152.3920  139.7504  158.9491 F   0  0  0  0  0  0  0  0  0  0  0  0
  151.9478  134.9418  157.6494 H   0  0  0  0  0  0  0  0  0  0  0  0
  150.4274  134.1658  155.8631 H   0  0  0  0  0  0  0  0  0  0  0  0
  150.0102  135.4742  156.9626 H   0  0  0  0  0  0  0  0  0  0  0  0
  151.4899  135.9248  154.3140 H   0  0  0  0  0  0  0  0  0  0  0  0
  149.7413  136.0392  154.4583 H   0  0  0  0  0  0  0  0  0  0  0  0
  151.2597  137.6969  156.3446 H   0  0  0  0  0  0  0  0  0  0  0  0
  147.1168  139.1833  151.9728 H   0  0  0  0  0  0  0  0  0  0  0  0
  145.9426  141.3665  152.2858 H   0  0  0  0  0  0  0  0  0  0  0  0
  146.4616  142.8256  154.2055 H   0  0  0  0  0  0  0  0  0  0  0  0
  148.1730  142.1715  155.8955 H   0  0  0  0  0  0  0  0  0  0  0  0
  149.3206  140.8468  157.2771 H   0  0  0  0  0  0  0  0  0  0  0  0
  150.2986  139.4278  157.5541 H   0  0  0  0  0  0  0  0  0  0  0  0
  151.1885  141.7945  155.8103 H   0  0  0  0  0  0  0  0  0  0  0  0
  151.9703  139.4518  155.7234 H   0  0  0  0  0  0  0  0  0  0  0  0
  151.4173  143.7873  157.0534 H   0  0  0  0  0  0  0  0  0  0  0  0
  153.0567  143.7319  161.0320 H   0  0  0  0  0  0  0  0  0  0  0  0
  153.1438  141.2481  160.9666 H   0  0  0  0  0  0  0  0  0  0  0  0
  149.1344  137.5415  153.2449 H   0  0  0  0  0  0  0  0  0  0  0  0
  1  2  1  0  0  0  0
  1 25  1  0  0  0  0
  2  3  1  0  0  0  0
  2 26  1  0  0  0  0
  2 27  1  0  0  0  0
  3  4  1  0  0  0  0
  3 28  1  0  0  0  0
  3 29  1  0  0  0  0
  4  5  1  0  0  0  0
  4 30  1  0  0  0  0
  5 13  1  0  0  0  0
  5  6  2  0  0  0  0
  6  7  1  0  0  0  0
  6 42  1  0  0  0  0
  7 12  2  0  0  0  0
  7  8  1  0  0  0  0
  8  9  2  0  0  0  0
  8 31  1  0  0  0  0
  9 10  1  0  0  0  0
  9 32  1  0  0  0  0
 10 11  2  0  0  0  0
 10 33  1  0  0  0  0
 11 12  1  0  0  0  0
 11 34  1  0  0  0  0
 12 13  1  0  0  0  0
 13 14  1  0  0  0  0
 14 15  1  0  0  0  0
 14 35  1  0  0  0  0
 14 36  1  0  0  0  0
 15 16  1  0  0  0  0
 15 17  1  0  0  0  0
 15 37  1  0  0  0  0
 16 38  1  0  0  0  0
 17 23  1  0  0  0  0
 17 18  2  0  0  0  0
 18 19  1  0  0  0  0
 18 39  1  0  0  0  0
 19 20  1  0  0  0  0
 19 21  2  0  0  0  0
 21 22  1  0  0  0  0
 21 40  1  0  0  0  0
 22 23  2  0  0  0  0
 22 41  1  0  0  0  0
 23 24  1  0  0  0  0
M  CHG  1   6   1
M  END
> <s_m_source_file>
AV-unprocessed.smi

> <i_m_source_file_index>
1036

> <i_lp_mmshare_version>
43012

> <i_f3d_flags>
0

> <s_epik_input>
W09IXVtDSDJdW0NIMl1bTkhdYyhuMSluKGMoYzEyKVtjSF1bY0hdW2NIXVtjSF0yKVtDSDJdW0NASF0oW09IXSljM1tjSF1jKEYpW2NIXVtjSF1jM0Y=

> <s_epik_cmdline>
J2VwaWtfcHl0aG9uJywgJy1waCcsICc3LjAnLCAnLXRuJywgJzgnLCAnLW1hJywgJzIwMCcsICctbWV0YWxfYmluZGluZycsICctaW1hZScsICc8aW5maWxlLm1hZT4nLCAnLW9tYWUnLCAnPG91dGZpbGUubWFlPic=

> <r_epik_Ionization_Penalty>
0.0688114

> <r_epik_Ionization_Penalty_Charging>
0.0688055

> <r_epik_Ionization_Penalty_Neutral>
5.85933e-06

> <r_epik_State_Penalty>
0.0602293

> <r_epik_Charging_Adjusted_Penalty>
0.129035

> <i_epik_Tot_Q>
1

> <i_epik_Tot_abs_Q>
1

> <r_epik_Metal_State_Penalty>
2.77411

> <b_epik_Metal_Only>
0

> <s_lp_Force_Field>
OPLS_2005

> <r_lp_Energy>
18.4992

> <b_lp_Chiralities_Consistent>
1

> <s_lp_Variant>
AV-unprocessed.smi:1036-1

> <Gold.Version>
5.8.1

> <Gold.Id.Protein>
6NUR|6NUR_protein|mol2

> <Gold.PLP.Fitness>
56.0279

> <Gold.PLP.PLP>
-45.0376

> <Gold.PLP.part.hbond>
-3.3165

> <Gold.PLP.part.metal>
0.0000

> <Gold.PLP.part.buried>
-0.3122

> <Gold.PLP.part.nonpolar>
-40.9442

> <Gold.PLP.part.repulsive>
0.0879

> <Gold.PLP.ligand.clash>
0.0000

> <Gold.PLP.ligand.torsion>
0.5319

> <Gold.PLP.Chemscore.Hbond>
4.0000

> <Gold.PLP.Chemscore.CHOScore>
0.0000

> <Gold.PLP.Chemscore.Metal>
0.0000

> <Gold.Chemscore.Hbonds>
donor molecule, donor type, donor heavy atom, donor atom, acceptor molecule, acceptor atom, score
      L1  H     6    42       P1  7948  2.00
      P1  H  7997  8009       L1    16  1.00
      P1  H 10752 10763       L1     1  0.99

> <Gold.PLP.Chemscore.Internal.Correction>
0.0540

> <Gold.Rescore>
     Score         DG    S(hbond)    S(metal)    S(lipo)     H(rot)  DE(clash)    DE(int)     intcor
     16.60     -20.44       2.70        0.00     122.81       3.29       1.94       1.90       ----

> <Gold.Chemscore.Fitness>
16.6045

> <Gold.Chemscore.DG>
-20.4399

> <Gold.Chemscore.ZeroCoef>
-5.4800

> <Gold.Chemscore.Hbond>
2.6966

> <Gold.Chemscore.Metal>
0.0000

> <Gold.Chemscore.Lipo>
122.8130

> <Gold.Chemscore.Internal_Hbond>
0.0000

> <Gold.Chemscore.DEClash>
1.9366

> <Gold.Chemscore.DEInternal>
1.8988

> <Gold.Chemscore.Rot>
3.2874

> <Gold.Chemscore.Internal.Correction>
   9.000000E+99

> <Gold.Chemscore.Hbonds>
donor molecule, donor type, donor heavy atom, donor atom, acceptor molecule, acceptor atom, score
      L1  H     6    42       P1  7948  1.00
      P1  H  7997  8009       L1    16  0.90
      P1  H 10752 10763       L1     1  0.31

> <Gold.Chemscore.Hbond.Weighted>
-9.0066

> <Gold.Chemscore.Metal.Weighted>
-0.0000

> <Gold.Chemscore.Lipo.Weighted>
-14.3691

> <Gold.Chemscore.Internal_Hbond.Weighted>
0.0000

> <Gold.Chemscore.DEClash.Weighted>
1.9366

> <Gold.Chemscore.DEInternal.Weighted>
1.8988

> <Gold.Chemscore.Rot.Weighted>
8.4158

> <Gold.Chemscore.Internal.Correction.Weighted>
   9.000000E+99

> <Gold.Protein.RotatedTorsions>
[ 6907 6896 6895 6894 ] final -120.11 input  -60.11 | X-H torsion
[ 7974 7965 7964 7962 ] final    4.29 input  175.53 | X-H torsion
[ 8008 7997 7996 7995 ] final -155.86 input   59.86 | X-H torsion
[ 10167 10162 10161 10158 ] final   68.13 input  -65.29 | X-H torsion
[ 10718 10713 10712 10709 ] final   60.86 input   66.30 | X-H torsion
[ 10763 10752 10751 10750 ] final   89.79 input  -60.55 | X-H torsion
[ 11005 11000 10999 10996 ] final  124.80 input  -57.11 | X-H torsion

> <Gold.Protein.ActiveResidues>
 VAL166  LYS551  ARG553  GLY616  TRP617  ASP618  TYR619  PRO620  LYS621  CYS622 
 ASP623  PHE694  ASN695  SER759  ASP760  ASP761  ALA762  ILE779  LEU786  VAL792 
 PHE793  MET794  SER795  GLU796  ALA797  LYS798  CYS799  TRP800  GLU811  SER814 

> <Gold.Protein.RotatedAtoms>
  150.8364  133.8006  159.3077 H   0  0  0  0  0  0  0  0  0  0  0  0  # atno 6907 bound_to 6896
  151.5720  135.1060  160.0007 H   0  0  0  0  0  0  0  0  0  0  0  0  # atno 6908 bound_to 6896
  152.4436  133.7452  159.6719 H   0  0  0  0  0  0  0  0  0  0  0  0  # atno 6909 bound_to 6896
  146.2444  140.0557  142.8372 H   0  0  0  0  0  0  0  0  0  0  0  0  # atno 7974 bound_to 7965
  155.7083  140.0775  157.2381 H   0  0  0  0  0  0  0  0  0  0  0  0  # atno 8008 bound_to 7997
  154.4062  140.1634  156.2321 H   0  0  0  0  0  0  0  0  0  0  0  0  # atno 8009 bound_to 7997
  155.9305  140.3391  155.6248 H   0  0  0  0  0  0  0  0  0  0  0  0  # atno 8010 bound_to 7997
  140.0820  144.5063  150.7156 H   0  0  0  0  0  0  0  0  0  0  0  0  # atno 10167 bound_to 10162
  157.5785  130.8962  149.9388 H   0  0  0  0  0  0  0  0  0  0  0  0  # atno 10718 bound_to 10713
  153.1907  135.4457  155.0146 H   0  0  0  0  0  0  0  0  0  0  0  0  # atno 10763 bound_to 10752
  154.8088  135.3286  154.7362 H   0  0  0  0  0  0  0  0  0  0  0  0  # atno 10764 bound_to 10752
  153.7816  135.6977  153.4942 H   0  0  0  0  0  0  0  0  0  0  0  0  # atno 10765 bound_to 10752
  139.9375  134.9638  156.8462 H   0  0  0  0  0  0  0  0  0  0  0  0  # atno 11005 bound_to 11000
  145.0944  140.9305  143.4750 LP  0  0  0  0  0  0  0  0  0  0  0  0  # atno 17320 bound_to 7965
  145.0737  139.3012  143.5819 LP  0  0  0  0  0  0  0  0  0  0  0  0  # atno 17321 bound_to 7965
  140.7073  143.2477  151.4688 LP  0  0  0  0  0  0  0  0  0  0  0  0  # atno 17342 bound_to 10162
  139.5774  144.1788  152.1922 LP  0  0  0  0  0  0  0  0  0  0  0  0  # atno 17343 bound_to 10162
  156.0830  130.3671  150.0543 LP  0  0  0  0  0  0  0  0  0  0  0  0  # atno 17370 bound_to 10713
  156.8686  130.9516  151.3611 LP  0  0  0  0  0  0  0  0  0  0  0  0  # atno 17371 bound_to 10713
  140.6036  134.0148  155.7547 LP  0  0  0  0  0  0  0  0  0  0  0  0  # atno 17394 bound_to 11000
  141.0996  133.9789  157.3101 LP  0  0  0  0  0  0  0  0  0  0  0  0  # atno 17395 bound_to 11000

$$$$
