AV-unprocessed.smi:551|AV-procd|sdf|2900|dock3
  -GOLD-   2262023393D 1   1.00000     0.00000
 Structure written by MMmdl.
 38 39  0  0  0  0  0  0  0  0  1 V2000
  152.7855  137.7816  159.3665 C   0  0  0  0  0  0  0  0  0  0  0  0
  152.2897  138.8053  158.3303 C   0  0  2  0  0  0  0  0  0  0  0  0
  152.9697  138.6203  156.9542 C   0  0  0  0  0  0  0  0  0  0  0  0
  152.0701  138.8893  155.8475 N   0  0  0  0  0  0  0  0  0  0  0  0
  151.7154  138.0179  154.8258 C   0  0  0  0  0  0  0  0  0  0  0  0
  150.8465  138.7040  154.0080 C   0  0  0  0  0  0  0  0  0  0  0  0
  150.6512  139.9903  154.5059 N   0  0  0  0  0  0  0  0  0  0  0  0
  151.4056  140.0255  155.5969 C   0  0  0  0  0  0  0  0  0  0  0  0
  152.3955  140.1759  158.8393 N   0  0  0  0  0  0  0  0  0  0  0  0
  153.5107  140.8254  159.2152 C   0  0  0  0  0  0  0  0  0  0  0  0
  154.6335  140.3209  159.1933 O   0  0  0  0  0  0  0  0  0  0  0  0
  153.3268  142.2760  159.6796 C   0  0  0  0  0  0  0  0  0  0  0  0
  152.6216  142.3265  161.0519 C   0  0  0  0  0  0  0  0  0  0  0  0
  152.4179  143.7758  161.5231 C   0  0  0  0  0  0  0  0  0  0  0  0
  151.6419  144.5968  160.4812 C   0  0  0  0  0  0  0  0  0  0  0  0
  152.3315  144.5476  159.1088 C   0  0  0  0  0  0  0  0  0  0  0  0
  152.5352  143.0978  158.6394 C   0  0  0  0  0  0  0  0  0  0  0  0
  152.5880  136.7631  159.0314 H   0  0  0  0  0  0  0  0  0  0  0  0
  152.2817  137.9148  160.3242 H   0  0  0  0  0  0  0  0  0  0  0  0
  153.8586  137.8663  159.5394 H   0  0  0  0  0  0  0  0  0  0  0  0
  151.2221  138.6273  158.1955 H   0  0  0  0  0  0  0  0  0  0  0  0
  153.8474  139.2596  156.8556 H   0  0  0  0  0  0  0  0  0  0  0  0
  153.3286  137.5952  156.8529 H   0  0  0  0  0  0  0  0  0  0  0  0
  152.1039  137.0115  154.7656 H   0  0  0  0  0  0  0  0  0  0  0  0
  150.3511  138.3734  153.1071 H   0  0  0  0  0  0  0  0  0  0  0  0
  151.4790  140.8999  156.2268 H   0  0  0  0  0  0  0  0  0  0  0  0
  151.5287  140.6906  158.8958 H   0  0  0  0  0  0  0  0  0  0  0  0
  154.3139  142.7295  159.7881 H   0  0  0  0  0  0  0  0  0  0  0  0
  151.6525  141.8277  160.9958 H   0  0  0  0  0  0  0  0  0  0  0  0
  153.2053  141.7810  161.7949 H   0  0  0  0  0  0  0  0  0  0  0  0
  151.8863  143.7860  162.4750 H   0  0  0  0  0  0  0  0  0  0  0  0
  153.3878  144.2402  161.7058 H   0  0  0  0  0  0  0  0  0  0  0  0
  150.6264  144.2088  160.3934 H   0  0  0  0  0  0  0  0  0  0  0  0
  151.5500  145.6309  160.8143 H   0  0  0  0  0  0  0  0  0  0  0  0
  151.7389  145.0958  158.3759 H   0  0  0  0  0  0  0  0  0  0  0  0
  153.2965  145.0525  159.1658 H   0  0  0  0  0  0  0  0  0  0  0  0
  153.0579  143.0952  157.6820 H   0  0  0  0  0  0  0  0  0  0  0  0
  151.5609  142.6404  158.4599 H   0  0  0  0  0  0  0  0  0  0  0  0
  1  2  1  0  0  0  0
  1 18  1  0  0  0  0
  1 19  1  0  0  0  0
  1 20  1  0  0  0  0
  2  3  1  0  0  0  0
  2  9  1  0  0  0  0
  2 21  1  0  0  0  0
  3  4  1  0  0  0  0
  3 22  1  0  0  0  0
  3 23  1  0  0  0  0
  4  8  1  0  0  0  0
  4  5  1  0  0  0  0
  5  6  2  0  0  0  0
  5 24  1  0  0  0  0
  6  7  1  0  0  0  0
  6 25  1  0  0  0  0
  7  8  2  0  0  0  0
  8 26  1  0  0  0  0
  9 10  1  0  0  0  0
  9 27  1  0  0  0  0
 10 11  2  0  0  0  0
 10 12  1  0  0  0  0
 12 17  1  0  0  0  0
 12 13  1  0  0  0  0
 12 28  1  0  0  0  0
 13 14  1  0  0  0  0
 13 29  1  0  0  0  0
 13 30  1  0  0  0  0
 14 15  1  0  0  0  0
 14 31  1  0  0  0  0
 14 32  1  0  0  0  0
 15 16  1  0  0  0  0
 15 33  1  0  0  0  0
 15 34  1  0  0  0  0
 16 17  1  0  0  0  0
 16 35  1  0  0  0  0
 16 36  1  0  0  0  0
 17 37  1  0  0  0  0
 17 38  1  0  0  0  0
M  END
> <s_m_source_file>
AV-unprocessed.smi

> <i_m_source_file_index>
551

> <i_lp_mmshare_version>
43012

> <i_f3d_flags>
0

> <s_epik_input>
W2NIXTFuW2NIXVtjSF1uMVtDSDJdW0NAQEhdKFtDSDNdKVtOSF1DKD1PKVtDSF0yW0NIMl1bQ0gyXVtDSDJdW0NIMl1bQ0gyXTI=

> <s_epik_cmdline>
J2VwaWtfcHl0aG9uJywgJy1waCcsICc3LjAnLCAnLXRuJywgJzgnLCAnLW1hJywgJzIwMCcsICctbWV0YWxfYmluZGluZycsICctaW1hZScsICc8aW5maWxlLm1hZT4nLCAnLW9tYWUnLCAnPG91dGZpbGUubWFlPic=

> <r_lp_tautomer_probability>
1

> <r_epik_Ionization_Penalty>
0.642614

> <r_epik_Ionization_Penalty_Charging>
0.642614

> <r_epik_Ionization_Penalty_Neutral>
3.29891e-08

> <r_epik_State_Penalty>
0.660429

> <r_epik_Charging_Adjusted_Penalty>
1.30304

> <i_epik_Tot_Q>
0

> <i_epik_Tot_abs_Q>
0

> <r_epik_Metal_State_Penalty>
0.31224

> <b_epik_Metal_Only>
0

> <s_lp_Force_Field>
OPLS_2005

> <r_lp_Energy>
12.8339

> <b_lp_Chiralities_Consistent>
1

> <s_lp_Variant>
AV-unprocessed.smi:551-3

> <Gold.Version>
5.8.1

> <Gold.Id.Protein>
6NUR|6NUR_protein|mol2

> <Gold.PLP.Fitness>
50.4699

> <Gold.PLP.PLP>
-42.1687

> <Gold.PLP.part.hbond>
-2.0000

> <Gold.PLP.part.metal>
0.0000

> <Gold.PLP.part.buried>
-3.6780

> <Gold.PLP.part.nonpolar>
-35.3202

> <Gold.PLP.part.repulsive>
0.2241

> <Gold.PLP.ligand.clash>
0.0000

> <Gold.PLP.ligand.torsion>
0.6134

> <Gold.PLP.Chemscore.Hbond>
1.8857

> <Gold.PLP.Chemscore.CHOScore>
1.2660

> <Gold.PLP.Chemscore.Metal>
0.0000

> <Gold.Chemscore.Hbonds>
donor molecule, donor type, donor heavy atom, donor atom, acceptor molecule, acceptor atom, score
      P1  H  7989  7998       L1     7  0.95
      P1  H  7997  8008       L1    11  0.86
      L1  C     6    25       P1  7948  0.32
      L1  C     6    25       P1  7957  0.62

> <Gold.PLP.Chemscore.Internal.Correction>
0.0728

> <Gold.Rescore>
     Score         DG    S(hbond)    S(metal)    S(lipo)     H(rot)  DE(clash)    DE(int)     intcor
     16.76     -17.51       1.35        0.00     102.16       1.73       0.02       0.73       ----

> <Gold.Chemscore.Fitness>
16.7647

> <Gold.Chemscore.DG>
-17.5128

> <Gold.Chemscore.ZeroCoef>
-5.4800

> <Gold.Chemscore.Hbond>
1.3515

> <Gold.Chemscore.Metal>
0.0000

> <Gold.Chemscore.Lipo>
102.1594

> <Gold.Chemscore.Internal_Hbond>
0.0000

> <Gold.Chemscore.DEClash>
0.0202

> <Gold.Chemscore.DEInternal>
0.7279

> <Gold.Chemscore.Rot>
1.7319

> <Gold.Chemscore.Internal.Correction>
   9.000000E+99

> <Gold.Chemscore.Hbonds>
donor molecule, donor type, donor heavy atom, donor atom, acceptor molecule, acceptor atom, score
      P1  H  7989  7998       L1     7  0.06
      P1  H  7997  8008       L1    11  0.51

> <Gold.Chemscore.Hbond.Weighted>
-4.5140

> <Gold.Chemscore.Metal.Weighted>
-0.0000

> <Gold.Chemscore.Lipo.Weighted>
-11.9526

> <Gold.Chemscore.Internal_Hbond.Weighted>
0.0000

> <Gold.Chemscore.DEClash.Weighted>
0.0202

> <Gold.Chemscore.DEInternal.Weighted>
0.7279

> <Gold.Chemscore.Rot.Weighted>
4.4338

> <Gold.Chemscore.Internal.Correction.Weighted>
   9.000000E+99

> <Gold.Protein.RotatedTorsions>
[ 6907 6896 6895 6894 ] final   66.05 input  -60.11 | X-H torsion
[ 7974 7965 7964 7962 ] final -106.01 input  175.53 | X-H torsion
[ 8008 7997 7996 7995 ] final -119.65 input   59.86 | X-H torsion
[ 10167 10162 10161 10158 ] final   65.64 input  -65.29 | X-H torsion
[ 10718 10713 10712 10709 ] final -148.48 input   66.30 | X-H torsion
[ 10763 10752 10751 10750 ] final   90.56 input  -60.55 | X-H torsion
[ 11005 11000 10999 10996 ] final  -61.36 input  -57.11 | X-H torsion

> <Gold.Protein.ActiveResidues>
 VAL166  LYS551  ARG553  GLY616  TRP617  ASP618  TYR619  PRO620  LYS621  CYS622 
 ASP623  PHE694  ASN695  SER759  ASP760  ASP761  ALA762  ILE779  LEU786  VAL792 
 PHE793  MET794  SER795  GLU796  ALA797  LYS798  CYS799  TRP800  GLU811  SER814 

> <Gold.Protein.RotatedAtoms>
  152.4452  134.5508  159.9866 H   0  0  0  0  0  0  0  0  0  0  0  0  # atno 6907 bound_to 6896
  151.5595  133.3399  159.2976 H   0  0  0  0  0  0  0  0  0  0  0  0  # atno 6908 bound_to 6896
  150.8367  134.7676  159.6962 H   0  0  0  0  0  0  0  0  0  0  0  0  # atno 6909 bound_to 6896
  145.2233  140.9142  143.3247 H   0  0  0  0  0  0  0  0  0  0  0  0  # atno 7974 bound_to 7965
  155.1191  140.0398  157.2745 H   0  0  0  0  0  0  0  0  0  0  0  0  # atno 8008 bound_to 7997
  154.6627  140.2594  155.7066 H   0  0  0  0  0  0  0  0  0  0  0  0  # atno 8009 bound_to 7997
  156.2626  140.2813  156.1105 H   0  0  0  0  0  0  0  0  0  0  0  0  # atno 8010 bound_to 7997
  140.1091  144.4835  150.6989 H   0  0  0  0  0  0  0  0  0  0  0  0  # atno 10167 bound_to 10162
  156.4208  130.8028  151.2250 H   0  0  0  0  0  0  0  0  0  0  0  0  # atno 10718 bound_to 10713
  153.1989  135.4429  155.0242 H   0  0  0  0  0  0  0  0  0  0  0  0  # atno 10763 bound_to 10752
  154.8135  135.3305  154.7243 H   0  0  0  0  0  0  0  0  0  0  0  0  # atno 10764 bound_to 10752
  153.7690  135.6986  153.4965 H   0  0  0  0  0  0  0  0  0  0  0  0  # atno 10765 bound_to 10752
  141.1322  133.6629  156.5364 H   0  0  0  0  0  0  0  0  0  0  0  0  # atno 11005 bound_to 11000
  144.9745  139.3846  143.6292 LP  0  0  0  0  0  0  0  0  0  0  0  0  # atno 17320 bound_to 7965
  146.3371  139.8858  142.8817 LP  0  0  0  0  0  0  0  0  0  0  0  0  # atno 17321 bound_to 7965
  140.6936  143.2390  151.5064 LP  0  0  0  0  0  0  0  0  0  0  0  0  # atno 17342 bound_to 10162
  139.5629  144.2112  152.1720 LP  0  0  0  0  0  0  0  0  0  0  0  0  # atno 17343 bound_to 10162
  157.7508  131.0229  150.3810 LP  0  0  0  0  0  0  0  0  0  0  0  0  # atno 17370 bound_to 10713
  156.4127  130.3937  149.6880 LP  0  0  0  0  0  0  0  0  0  0  0  0  # atno 17371 bound_to 10713
  140.4174  134.7217  157.4871 LP  0  0  0  0  0  0  0  0  0  0  0  0  # atno 17394 bound_to 11000
  140.0384  134.6304  155.9013 LP  0  0  0  0  0  0  0  0  0  0  0  0  # atno 17395 bound_to 11000

$$$$
