AV-unprocessed.smi:284|AV-procd|sdf|2159|dock7
  -GOLD-   2262021513D 1   1.00000     0.00000
 Structure written by MMmdl.
 60 62  0  0  0  0  0  0  0  0  1 V2000
  147.2374  128.3133  153.7705 C   0  0  0  0  0  0  0  0  0  0  0  0
  147.7671  129.7359  153.6767 C   0  0  0  0  0  0  0  0  0  0  0  0
  147.2242  130.6524  152.8428 C   0  0  0  0  0  0  0  0  0  0  0  0
  147.6854  131.9494  152.7243 N   0  0  0  0  0  0  0  0  0  0  0  0
  146.9872  132.9021  151.7774 C   0  0  2  0  0  0  0  0  0  0  0  0
  146.1826  133.9979  152.4914 C   0  0  0  0  0  0  0  0  0  0  0  0
  145.0631  134.2341  151.4978 C   0  0  2  0  0  0  0  0  0  0  0  0
  143.9139  134.7441  152.1425 O   0  0  0  0  0  0  0  0  0  0  0  0
  144.8405  132.8237  150.9349 C   0  0  1  0  0  0  0  0  0  0  0  0
  144.2159  132.7248  149.5318 C   0  0  0  0  0  0  0  0  0  0  0  0
  143.0254  131.9638  149.5365 O   0  0  0  0  0  0  0  0  0  0  0  0
  146.1093  132.1751  150.9695 O   0  0  0  0  0  0  0  0  0  0  0  0
  148.7528  132.3859  153.5403 C   0  0  0  0  0  0  0  0  0  0  0  0
  149.1616  133.5474  153.4881 O   0  0  0  0  0  0  0  0  0  0  0  0
  149.3429  131.4523  154.4223 N   0  0  0  0  0  0  0  0  0  0  0  0
  150.4932  131.8826  155.2494 C   0  0  0  0  0  0  0  0  0  0  0  0
  150.1123  132.2218  156.6996 C   0  0  0  0  0  0  0  0  0  0  0  0
  150.8880  131.9738  157.6241 O   0  0  0  0  0  0  0  0  0  0  0  0
  148.9169  132.8203  156.8519 N   0  0  0  0  0  0  0  0  0  0  0  0
  148.2833  133.2339  158.0548 C   0  0  0  0  0  0  0  0  0  0  0  0
  148.7403  132.6664  159.2600 C   0  0  0  0  0  0  0  0  0  0  0  0
  148.1695  133.0393  160.4921 C   0  0  0  0  0  0  0  0  0  0  0  0
  147.1306  134.0011  160.5495 C   0  0  0  0  0  0  0  0  0  0  0  0
  146.4757  134.4319  161.8761 C   0  0  0  0  0  0  0  0  0  0  0  0
  145.4461  135.5489  161.6067 C   0  0  0  0  0  0  0  0  0  0  0  0
  147.4949  134.9715  162.9049 C   0  0  0  0  0  0  0  0  0  0  0  0
  145.7603  133.2240  162.5167 C   0  0  0  0  0  0  0  0  0  0  0  0
  146.6934  134.5817  159.3356 C   0  0  0  0  0  0  0  0  0  0  0  0
  147.2625  134.2106  158.1029 C   0  0  0  0  0  0  0  0  0  0  0  0
  148.9005  130.1105  154.5252 C   0  0  0  0  0  0  0  0  0  0  0  0
  149.4583  129.3223  155.2912 O   0  0  0  0  0  0  0  0  0  0  0  0
  146.4064  128.1437  153.0852 H   0  0  0  0  0  0  0  0  0  0  0  0
  146.8853  128.1033  154.7811 H   0  0  0  0  0  0  0  0  0  0  0  0
  148.0220  127.5965  153.5248 H   0  0  0  0  0  0  0  0  0  0  0  0
  146.3875  130.3467  152.2309 H   0  0  0  0  0  0  0  0  0  0  0  0
  147.7607  133.3250  151.1357 H   0  0  0  0  0  0  0  0  0  0  0  0
  145.7927  133.6441  153.4453 H   0  0  0  0  0  0  0  0  0  0  0  0
  146.7981  134.8789  152.6748 H   0  0  0  0  0  0  0  0  0  0  0  0
  145.4014  134.9282  150.7280 H   0  0  0  0  0  0  0  0  0  0  0  0
  144.0442  134.6878  153.0771 H   0  0  0  0  0  0  0  0  0  0  0  0
  144.2097  132.2657  151.6287 H   0  0  0  0  0  0  0  0  0  0  0  0
  144.0129  133.7182  149.1312 H   0  0  0  0  0  0  0  0  0  0  0  0
  144.9180  132.2429  148.8511 H   0  0  0  0  0  0  0  0  0  0  0  0
  142.8280  131.7201  150.4280 H   0  0  0  0  0  0  0  0  0  0  0  0
  151.2750  131.1219  155.2697 H   0  0  0  0  0  0  0  0  0  0  0  0
  150.9846  132.7496  154.8045 H   0  0  0  0  0  0  0  0  0  0  0  0
  148.4312  133.0614  156.0003 H   0  0  0  0  0  0  0  0  0  0  0  0
  149.5319  131.9311  159.2451 H   0  0  0  0  0  0  0  0  0  0  0  0
  148.5526  132.5659  161.3824 H   0  0  0  0  0  0  0  0  0  0  0  0
  144.9783  135.8883  162.5316 H   0  0  0  0  0  0  0  0  0  0  0  0
  144.6438  135.2185  160.9468 H   0  0  0  0  0  0  0  0  0  0  0  0
  145.9174  136.4155  161.1415 H   0  0  0  0  0  0  0  0  0  0  0  0
  148.0173  135.8531  162.5314 H   0  0  0  0  0  0  0  0  0  0  0  0
  148.2410  134.2201  163.1665 H   0  0  0  0  0  0  0  0  0  0  0  0
  147.0017  135.2650  163.8323 H   0  0  0  0  0  0  0  0  0  0  0  0
  145.3039  133.4926  163.4701 H   0  0  0  0  0  0  0  0  0  0  0  0
  146.4584  132.4078  162.7069 H   0  0  0  0  0  0  0  0  0  0  0  0
  144.9646  132.8337  161.8822 H   0  0  0  0  0  0  0  0  0  0  0  0
  145.9124  135.3272  159.3378 H   0  0  0  0  0  0  0  0  0  0  0  0
  146.9081  134.6989  157.2081 H   0  0  0  0  0  0  0  0  0  0  0  0
  1  2  1  0  0  0  0
  1 32  1  0  0  0  0
  1 33  1  0  0  0  0
  1 34  1  0  0  0  0
  2 30  1  0  0  0  0
  2  3  2  0  0  0  0
  3  4  1  0  0  0  0
  3 35  1  0  0  0  0
  4  5  1  0  0  0  0
  4 13  1  0  0  0  0
  5 12  1  0  0  0  0
  5  6  1  0  0  0  0
  5 36  1  0  0  0  0
  6  7  1  0  0  0  0
  6 37  1  0  0  0  0
  6 38  1  0  0  0  0
  7  8  1  0  0  0  0
  7  9  1  0  0  0  0
  7 39  1  0  0  0  0
  8 40  1  0  0  0  0
  9 10  1  0  0  0  0
  9 12  1  0  0  0  0
  9 41  1  0  0  0  0
 10 11  1  0  0  0  0
 10 42  1  0  0  0  0
 10 43  1  0  0  0  0
 11 44  1  0  0  0  0
 13 14  2  0  0  0  0
 13 15  1  0  0  0  0
 15 16  1  0  0  0  0
 15 30  1  0  0  0  0
 16 17  1  0  0  0  0
 16 45  1  0  0  0  0
 16 46  1  0  0  0  0
 17 18  2  0  0  0  0
 17 19  1  0  0  0  0
 19 20  1  0  0  0  0
 19 47  1  0  0  0  0
 20 29  1  0  0  0  0
 20 21  2  0  0  0  0
 21 22  1  0  0  0  0
 21 48  1  0  0  0  0
 22 23  2  0  0  0  0
 22 49  1  0  0  0  0
 23 24  1  0  0  0  0
 23 28  1  0  0  0  0
 24 25  1  0  0  0  0
 24 26  1  0  0  0  0
 24 27  1  0  0  0  0
 25 50  1  0  0  0  0
 25 51  1  0  0  0  0
 25 52  1  0  0  0  0
 26 53  1  0  0  0  0
 26 54  1  0  0  0  0
 26 55  1  0  0  0  0
 27 56  1  0  0  0  0
 27 57  1  0  0  0  0
 27 58  1  0  0  0  0
 28 29  2  0  0  0  0
 28 59  1  0  0  0  0
 29 60  1  0  0  0  0
 30 31  2  0  0  0  0
M  END
> <s_m_source_file>
AV-unprocessed.smi

> <i_m_source_file_index>
284

> <i_lp_mmshare_version>
43012

> <i_f3d_flags>
0

> <s_epik_input>
W09IXVtDSDJdW0NAQEhdKE8xKVtDQEhdKFtPSF0pW0NIMl1bQ0BIXTFuKFtjSF1jMltDSDNdKWMoPU8pbihjMj1PKVtDSDJdQyg9TylbTkhdYzNbY0hdW2NIXWMoQyhbQ0gzXSkoW0NIM10pW0NIM10pW2NIXVtjSF0z

> <s_epik_cmdline>
J2VwaWtfcHl0aG9uJywgJy1waCcsICc3LjAnLCAnLXRuJywgJzgnLCAnLW1hJywgJzIwMCcsICctbWV0YWxfYmluZGluZycsICctaW1hZScsICc8aW5maWxlLm1hZT4nLCAnLW9tYWUnLCAnPG91dGZpbGUubWFlPic=

> <r_lp_tautomer_probability>
1

> <r_epik_Ionization_Penalty>
4.92358e-06

> <r_epik_Ionization_Penalty_Charging>
1.29777e-07

> <r_epik_Ionization_Penalty_Neutral>
4.79381e-06

> <r_epik_State_Penalty>
-0

> <r_epik_Charging_Adjusted_Penalty>
1.29777e-07

> <i_epik_Tot_Q>
0

> <i_epik_Tot_abs_Q>
0

> <r_epik_Metal_State_Penalty>
-0

> <b_epik_Metal_Only>
0

> <s_epik_Chemistry_Notes>
This compound contains an acetal/aminal-like group ( X-CH(R)-Y where X, Y are N, S, or O) that may be acid/base labile, releasing an aldehyde.

> <s_lp_Force_Field>
OPLS_2005

> <r_lp_Energy>
37.3901

> <b_lp_Chiralities_Consistent>
1

> <s_lp_Variant>
AV-unprocessed.smi:284-3

> <Gold.Version>
5.8.1

> <Gold.Id.Protein>
6NUR|6NUR_protein|mol2

> <Gold.PLP.Fitness>
48.9116

> <Gold.PLP.PLP>
-46.2664

> <Gold.PLP.part.hbond>
-3.7611

> <Gold.PLP.part.metal>
0.0000

> <Gold.PLP.part.buried>
-5.0313

> <Gold.PLP.part.nonpolar>
-37.6866

> <Gold.PLP.part.repulsive>
0.9589

> <Gold.PLP.ligand.clash>
0.0000

> <Gold.PLP.ligand.torsion>
1.6688

> <Gold.PLP.Chemscore.Hbond>
1.9825

> <Gold.PLP.Chemscore.CHOScore>
0.0000

> <Gold.PLP.Chemscore.Metal>
0.0000

> <Gold.Chemscore.Hbonds>
donor molecule, donor type, donor heavy atom, donor atom, acceptor molecule, acceptor atom, score
      P1  H  6896  6907       L1    18  0.68
      P1  H 10785 10796       L1    11  0.95

> <Gold.PLP.Chemscore.Internal.Correction>
0.0353

> <Gold.Rescore>
     Score         DG    S(hbond)    S(metal)    S(lipo)     H(rot)  DE(clash)    DE(int)     intcor
     11.82     -14.76       1.85        0.00      98.08       3.27       0.06       2.88       ----

> <Gold.Chemscore.Fitness>
11.8216

> <Gold.Chemscore.DG>
-14.7615

> <Gold.Chemscore.ZeroCoef>
-5.4800

> <Gold.Chemscore.Hbond>
1.8523

> <Gold.Chemscore.Metal>
0.0000

> <Gold.Chemscore.Lipo>
98.0766

> <Gold.Chemscore.Internal_Hbond>
0.0000

> <Gold.Chemscore.DEClash>
0.0582

> <Gold.Chemscore.DEInternal>
2.8817

> <Gold.Chemscore.Rot>
3.2735

> <Gold.Chemscore.Internal.Correction>
   9.000000E+99

> <Gold.Chemscore.Hbonds>
donor molecule, donor type, donor heavy atom, donor atom, acceptor molecule, acceptor atom, score
      P1  H  6896  6907       L1    18  0.66
      P1  H 10785 10796       L1    11  0.19

> <Gold.Chemscore.Hbond.Weighted>
-6.1866

> <Gold.Chemscore.Metal.Weighted>
-0.0000

> <Gold.Chemscore.Lipo.Weighted>
-11.4750

> <Gold.Chemscore.Internal_Hbond.Weighted>
0.0000

> <Gold.Chemscore.DEClash.Weighted>
0.0582

> <Gold.Chemscore.DEInternal.Weighted>
2.8817

> <Gold.Chemscore.Rot.Weighted>
8.3801

> <Gold.Chemscore.Internal.Correction.Weighted>
   9.000000E+99

> <Gold.Protein.RotatedTorsions>
[ 6907 6896 6895 6894 ] final -151.42 input  -60.11 | X-H torsion
[ 7974 7965 7964 7962 ] final   -9.75 input  175.53 | X-H torsion
[ 8008 7997 7996 7995 ] final   72.05 input   59.86 | X-H torsion
[ 10167 10162 10161 10158 ] final  115.75 input  -65.29 | X-H torsion
[ 10718 10713 10712 10709 ] final  -10.23 input   66.30 | X-H torsion
[ 10763 10752 10751 10750 ] final  -19.08 input  -60.55 | X-H torsion
[ 11005 11000 10999 10996 ] final  141.40 input  -57.11 | X-H torsion

> <Gold.Protein.ActiveResidues>
 VAL166  LYS551  ARG553  GLY616  TRP617  ASP618  TYR619  PRO620  LYS621  CYS622 
 ASP623  PHE694  ASN695  SER759  ASP760  ASP761  ALA762  ILE779  LEU786  VAL792 
 PHE793  MET794  SER795  GLU796  ALA797  LYS798  CYS799  TRP800  GLU811  SER814 

> <Gold.Protein.RotatedAtoms>
  151.2129  133.4546  159.2598 H   0  0  0  0  0  0  0  0  0  0  0  0  # atno 6907 bound_to 6896
  151.0959  134.9944  159.8435 H   0  0  0  0  0  0  0  0  0  0  0  0  # atno 6908 bound_to 6896
  152.5439  134.2059  159.8783 H   0  0  0  0  0  0  0  0  0  0  0  0  # atno 6909 bound_to 6896
  146.2242  140.2662  142.8354 H   0  0  0  0  0  0  0  0  0  0  0  0  # atno 7974 bound_to 7965
  155.7630  140.3486  155.5207 H   0  0  0  0  0  0  0  0  0  0  0  0  # atno 8008 bound_to 7997
  155.8896  140.1015  157.1449 H   0  0  0  0  0  0  0  0  0  0  0  0  # atno 8009 bound_to 7997
  154.4032  140.1307  156.4286 H   0  0  0  0  0  0  0  0  0  0  0  0  # atno 8010 bound_to 7997
  139.6295  144.7113  151.2462 H   0  0  0  0  0  0  0  0  0  0  0  0  # atno 10167 bound_to 10162
  156.6766  130.5024  149.5984 H   0  0  0  0  0  0  0  0  0  0  0  0  # atno 10718 bound_to 10713
  153.5993  135.7000  153.5391 H   0  0  0  0  0  0  0  0  0  0  0  0  # atno 10763 bound_to 10752
  153.3111  135.4101  155.1336 H   0  0  0  0  0  0  0  0  0  0  0  0  # atno 10764 bound_to 10752
  154.8585  135.3672  154.5528 H   0  0  0  0  0  0  0  0  0  0  0  0  # atno 10765 bound_to 10752
  140.0399  134.9310  157.0823 H   0  0  0  0  0  0  0  0  0  0  0  0  # atno 11005 bound_to 11000
  144.9302  140.7966  143.5694 LP  0  0  0  0  0  0  0  0  0  0  0  0  # atno 17320 bound_to 7965
  145.2605  139.1994  143.4894 LP  0  0  0  0  0  0  0  0  0  0  0  0  # atno 17321 bound_to 7965
  140.7431  143.6506  150.8252 LP  0  0  0  0  0  0  0  0  0  0  0  0  # atno 17342 bound_to 10162
  140.0129  143.5623  152.2832 LP  0  0  0  0  0  0  0  0  0  0  0  0  # atno 17343 bound_to 10162
  156.1899  130.6553  151.1049 LP  0  0  0  0  0  0  0  0  0  0  0  0  # atno 17370 bound_to 10713
  157.7058  131.0757  150.6670 LP  0  0  0  0  0  0  0  0  0  0  0  0  # atno 17371 bound_to 10713
  140.4086  134.2005  155.7163 LP  0  0  0  0  0  0  0  0  0  0  0  0  # atno 17394 bound_to 11000
  141.1877  133.8275  157.1021 LP  0  0  0  0  0  0  0  0  0  0  0  0  # atno 17395 bound_to 11000

$$$$
