AV-unprocessed.smi:510|AV-procd|sdf|2762|dock2
  -GOLD-   2262023223D 1   1.00000     0.00000
 Structure written by MMmdl.
 30 31  0  0  0  0  0  0  0  0  1 V2000
  153.0627  139.8590  159.4420 C   0  0  0  0  0  0  0  0  0  0  0  0
  153.2077  139.4589  158.0914 O   0  0  0  0  0  0  0  0  0  0  0  0
  152.0103  139.6095  157.3463 C   0  0  0  0  0  0  0  0  0  0  0  0
  152.2608  139.2581  155.8726 C   0  0  0  0  0  0  0  0  0  0  0  0
  151.0278  139.2540  155.0917 N   0  0  0  0  0  0  0  0  0  0  0  0
  150.5754  138.2777  154.2661 C   0  0  0  0  0  0  0  0  0  0  0  0
  151.3032  137.1109  154.0840 N   0  0  0  0  0  0  0  0  0  0  0  0
  149.4114  138.5358  153.6665 N   0  0  0  0  0  0  0  0  0  0  0  0
  149.0951  139.7973  154.1526 C   0  0  0  0  0  0  0  0  0  0  0  0
  150.0501  140.2455  155.0071 C   0  0  0  0  0  0  0  0  0  0  0  0
  149.9689  141.5575  155.6612 C   0  0  0  0  0  0  0  0  0  0  0  0
  150.8238  141.9859  156.4329 O   0  0  0  0  0  0  0  0  0  0  0  0
  148.8527  142.2487  155.3247 N   0  0  0  0  0  0  0  0  0  0  0  0
  147.8535  141.8563  154.4758 C   0  0  0  0  0  0  0  0  0  0  0  0
  146.8975  142.6043  154.2742 O   0  0  0  0  0  0  0  0  0  0  0  0
  147.9702  140.6243  153.8805 N   0  0  0  0  0  0  0  0  0  0  0  0
  146.9600  140.1131  152.9519 C   0  0  0  0  0  0  0  0  0  0  0  0
  148.7465  143.1588  155.7485 H   0  0  0  0  0  0  0  0  0  0  0  0
  154.0074  139.7214  159.9679 H   0  0  0  0  0  0  0  0  0  0  0  0
  152.3042  139.2625  159.9506 H   0  0  0  0  0  0  0  0  0  0  0  0
  152.7875  140.9120  159.5138 H   0  0  0  0  0  0  0  0  0  0  0  0
  151.2347  138.9605  157.7560 H   0  0  0  0  0  0  0  0  0  0  0  0
  151.6493  140.6361  157.4231 H   0  0  0  0  0  0  0  0  0  0  0  0
  152.9572  139.9723  155.4330 H   0  0  0  0  0  0  0  0  0  0  0  0
  152.7477  138.2878  155.7887 H   0  0  0  0  0  0  0  0  0  0  0  0
  152.1821  136.9610  154.5587 H   0  0  0  0  0  0  0  0  0  0  0  0
  150.9811  136.3761  153.4712 H   0  0  0  0  0  0  0  0  0  0  0  0
  146.1209  140.7903  152.7904 H   0  0  0  0  0  0  0  0  0  0  0  0
  146.5529  139.1729  153.3256 H   0  0  0  0  0  0  0  0  0  0  0  0
  147.4134  139.9186  151.9794 H   0  0  0  0  0  0  0  0  0  0  0  0
  1  2  1  0  0  0  0
  1 19  1  0  0  0  0
  1 20  1  0  0  0  0
  1 21  1  0  0  0  0
  2  3  1  0  0  0  0
  3  4  1  0  0  0  0
  3 22  1  0  0  0  0
  3 23  1  0  0  0  0
  4  5  1  0  0  0  0
  4 24  1  0  0  0  0
  4 25  1  0  0  0  0
  5 10  1  0  0  0  0
  5  6  1  0  0  0  0
  6  7  1  0  0  0  0
  6  8  2  0  0  0  0
  7 26  1  0  0  0  0
  7 27  1  0  0  0  0
  8  9  1  0  0  0  0
  9 16  1  0  0  0  0
  9 10  2  0  0  0  0
 10 11  1  0  0  0  0
 11 12  2  0  0  0  0
 11 13  1  0  0  0  0
 13 18  1  0  0  0  0
 13 14  1  0  0  0  0
 14 15  2  0  0  0  0
 14 16  1  0  0  0  0
 16 17  1  0  0  0  0
 17 28  1  0  0  0  0
 17 29  1  0  0  0  0
 17 30  1  0  0  0  0
M  END
> <s_m_source_file>
AV-unprocessed.smi

> <i_m_source_file_index>
510

> <i_lp_mmshare_version>
43012

> <i_f3d_flags>
0

> <s_epik_input>
W0NIM11PW0NIMl1bQ0gyXW4oYyhuMSlbTkgyXSljKGMxMiljKD1PKVtuSF1jKD1PKW4yW0NIM10=

> <s_epik_cmdline>
J2VwaWtfcHl0aG9uJywgJy1waCcsICc3LjAnLCAnLXRuJywgJzgnLCAnLW1hJywgJzIwMCcsICctbWV0YWxfYmluZGluZycsICctaW1hZScsICc8aW5maWxlLm1hZT4nLCAnLW9tYWUnLCAnPG91dGZpbGUubWFlPic=

> <r_lp_tautomer_probability>
1

> <r_epik_Ionization_Penalty>
0.000102378

> <r_epik_Ionization_Penalty_Charging>
3.81714e-05

> <r_epik_Ionization_Penalty_Neutral>
6.42066e-05

> <r_epik_State_Penalty>
-0

> <r_epik_Charging_Adjusted_Penalty>
3.81714e-05

> <i_epik_Tot_Q>
0

> <i_epik_Tot_abs_Q>
0

> <r_epik_Metal_State_Penalty>
0.0348186

> <b_epik_Metal_Only>
0

> <s_lp_Force_Field>
OPLS_2005

> <r_lp_Energy>
22.8727

> <b_lp_Chiralities_Consistent>
1

> <s_lp_Variant>
AV-unprocessed.smi:510-1

> <Gold.Version>
5.8.1

> <Gold.Id.Protein>
6NUR|6NUR_protein|mol2

> <Gold.PLP.Fitness>
37.0250

> <Gold.PLP.PLP>
-29.0302

> <Gold.PLP.part.hbond>
-2.7401

> <Gold.PLP.part.metal>
0.0000

> <Gold.PLP.part.buried>
-2.0671

> <Gold.PLP.part.nonpolar>
-26.9514

> <Gold.PLP.part.repulsive>
3.1428

> <Gold.PLP.ligand.clash>
0.0000

> <Gold.PLP.ligand.torsion>
0.0909

> <Gold.PLP.Chemscore.Hbond>
2.7252

> <Gold.PLP.Chemscore.CHOScore>
0.0000

> <Gold.PLP.Chemscore.Metal>
0.0000

> <Gold.Chemscore.Hbonds>
donor molecule, donor type, donor heavy atom, donor atom, acceptor molecule, acceptor atom, score
      L1  H     7    27       P1  7949  0.67
      L1  H    13    18       P1  8028  0.99
      P1  H  7997  8008       L1     2  1.00

> <Gold.PLP.Chemscore.Internal.Correction>
0.0010

> <Gold.Rescore>
     Score         DG    S(hbond)    S(metal)    S(lipo)     H(rot)  DE(clash)    DE(int)     intcor
     10.88     -12.56       2.31        0.00      33.65       1.78       1.61       0.07       ----

> <Gold.Chemscore.Fitness>
10.8756

> <Gold.Chemscore.DG>
-12.5605

> <Gold.Chemscore.ZeroCoef>
-5.4800

> <Gold.Chemscore.Hbond>
2.3077

> <Gold.Chemscore.Metal>
0.0000

> <Gold.Chemscore.Lipo>
33.6529

> <Gold.Chemscore.Internal_Hbond>
0.0000

> <Gold.Chemscore.DEClash>
1.6148

> <Gold.Chemscore.DEInternal>
0.0700

> <Gold.Chemscore.Rot>
1.7830

> <Gold.Chemscore.Internal.Correction>
   9.000000E+99

> <Gold.Chemscore.Hbonds>
donor molecule, donor type, donor heavy atom, donor atom, acceptor molecule, acceptor atom, score
      L1  H     7    27       P1  7949  0.14
      L1  H    13    18       P1  8028  0.91
      P1  H  7997  8008       L1     2  0.83

> <Gold.Chemscore.Hbond.Weighted>
-7.7077

> <Gold.Chemscore.Metal.Weighted>
-0.0000

> <Gold.Chemscore.Lipo.Weighted>
-3.9374

> <Gold.Chemscore.Internal_Hbond.Weighted>
0.0000

> <Gold.Chemscore.DEClash.Weighted>
1.6148

> <Gold.Chemscore.DEInternal.Weighted>
0.0700

> <Gold.Chemscore.Rot.Weighted>
4.5646

> <Gold.Chemscore.Internal.Correction.Weighted>
   9.000000E+99

> <Gold.Protein.RotatedTorsions>
[ 6907 6896 6895 6894 ] final   68.19 input  -60.11 | X-H torsion
[ 7974 7965 7964 7962 ] final -154.21 input  175.53 | X-H torsion
[ 8008 7997 7996 7995 ] final -100.84 input   59.86 | X-H torsion
[ 10167 10162 10161 10158 ] final  -29.15 input  -65.29 | X-H torsion
[ 10718 10713 10712 10709 ] final -156.60 input   66.30 | X-H torsion
[ 10763 10752 10751 10750 ] final -179.23 input  -60.55 | X-H torsion
[ 11005 11000 10999 10996 ] final   45.30 input  -57.11 | X-H torsion

> <Gold.Protein.ActiveResidues>
 VAL166  LYS551  ARG553  GLY616  TRP617  ASP618  TYR619  PRO620  LYS621  CYS622 
 ASP623  PHE694  ASN695  SER759  ASP760  ASP761  ALA762  ILE779  LEU786  VAL792 
 PHE793  MET794  SER795  GLU796  ALA797  LYS798  CYS799  TRP800  GLU811  SER814 

> <Gold.Protein.RotatedAtoms>
  152.4603  134.5198  159.9778 H   0  0  0  0  0  0  0  0  0  0  0  0  # atno 6907 bound_to 6896
  151.5249  133.3454  159.2916 H   0  0  0  0  0  0  0  0  0  0  0  0  # atno 6908 bound_to 6896
  150.8564  134.7933  159.7111 H   0  0  0  0  0  0  0  0  0  0  0  0  # atno 6909 bound_to 6896
  144.7701  140.4419  143.5913 H   0  0  0  0  0  0  0  0  0  0  0  0  # atno 7974 bound_to 7965
  154.8343  140.0438  157.1498 H   0  0  0  0  0  0  0  0  0  0  0  0  # atno 8008 bound_to 7997
  154.9118  140.3014  155.5242 H   0  0  0  0  0  0  0  0  0  0  0  0  # atno 8009 bound_to 7997
  156.2989  140.2357  156.4158 H   0  0  0  0  0  0  0  0  0  0  0  0  # atno 8010 bound_to 7997
  140.7263  143.3952  151.1360 H   0  0  0  0  0  0  0  0  0  0  0  0  # atno 10167 bound_to 10162
  156.5288  130.8511  151.2709 H   0  0  0  0  0  0  0  0  0  0  0  0  # atno 10718 bound_to 10713
  154.5377  135.2804  155.1123 H   0  0  0  0  0  0  0  0  0  0  0  0  # atno 10763 bound_to 10752
  154.2618  135.6320  153.5281 H   0  0  0  0  0  0  0  0  0  0  0  0  # atno 10764 bound_to 10752
  152.9971  135.5607  154.5908 H   0  0  0  0  0  0  0  0  0  0  0  0  # atno 10765 bound_to 10752
  140.1472  134.4507  155.8407 H   0  0  0  0  0  0  0  0  0  0  0  0  # atno 11005 bound_to 11000
  145.6351  139.1542  143.2947 LP  0  0  0  0  0  0  0  0  0  0  0  0  # atno 17320 bound_to 7965
  146.1840  140.6452  142.9176 LP  0  0  0  0  0  0  0  0  0  0  0  0  # atno 17321 bound_to 7965
  139.7563  143.8702  152.3089 LP  0  0  0  0  0  0  0  0  0  0  0  0  # atno 17342 bound_to 10162
  139.8573  144.7135  150.9142 LP  0  0  0  0  0  0  0  0  0  0  0  0  # atno 17343 bound_to 10162
  157.7425  130.9892  150.2522 LP  0  0  0  0  0  0  0  0  0  0  0  0  # atno 17370 bound_to 10713
  156.3079  130.3767  149.7689 LP  0  0  0  0  0  0  0  0  0  0  0  0  # atno 17371 bound_to 10713
  141.2194  133.6857  156.7356 LP  0  0  0  0  0  0  0  0  0  0  0  0  # atno 17394 bound_to 11000
  140.2649  134.8438  157.3793 LP  0  0  0  0  0  0  0  0  0  0  0  0  # atno 17395 bound_to 11000

$$$$
