AV-unprocessed.smi:814|AV-procd|sdf|3821|dock10
  -GOLD-   22720 1263D 1   1.00000     0.00000
 Structure written by MMmdl.
 37 38  0  0  0  0  0  0  0  0  2 V2000
  148.4639  139.1306  153.8963 C   0  0  0  0  0  0  0  0  0  0  0  0
  147.9966  140.5064  154.0788 N   0  0  0  0  0  0  0  0  0  0  0  0
  146.7925  141.0212  153.6710 C   0  0  0  0  0  0  0  0  0  0  0  0
  146.7815  142.3394  154.0457 C   0  0  0  0  0  0  0  0  0  0  0  0
  147.9787  142.5750  154.6649 N   0  3  0  0  0  0  0  0  0  0  0  0
  148.7181  141.4600  154.6908 C   0  0  0  0  0  0  0  0  0  0  0  0
  150.0903  141.3453  155.2766 C   0  0  0  0  0  0  0  0  0  0  0  0
  150.1715  140.2938  156.3947 C   0  0  0  0  0  0  0  0  0  0  0  0
  150.5423  140.8962  157.6691 N   0  0  0  0  0  0  0  0  0  0  0  0
  151.7337  140.7502  158.2696 C   0  0  0  0  0  0  0  0  0  0  0  0
  152.6540  140.0900  157.7859 O   0  0  0  0  0  0  0  0  0  0  0  0
  151.9108  141.4520  159.6226 C   0  0  2  0  0  0  0  0  0  0  0  0
  151.6414  142.9707  159.5110 C   0  0  0  0  0  0  0  0  0  0  0  0
  152.0554  143.7191  160.7663 C   0  0  0  0  0  0  0  0  0  0  0  0
  152.8591  143.1954  161.7078 C   0  0  0  0  0  0  0  0  0  0  0  0
  153.4492  141.7990  161.6203 C   0  0  0  0  0  0  0  0  0  0  0  0
  153.3140  141.1974  160.2084 C   0  0  0  0  0  0  0  0  0  0  0  0
  147.7148  138.5604  153.3460 H   0  0  0  0  0  0  0  0  0  0  0  0
  148.6218  138.6697  154.8717 H   0  0  0  0  0  0  0  0  0  0  0  0
  149.3969  139.1350  153.3327 H   0  0  0  0  0  0  0  0  0  0  0  0
  146.0507  140.4272  153.1563 H   0  0  0  0  0  0  0  0  0  0  0  0
  146.0323  143.1077  153.9206 H   0  0  0  0  0  0  0  0  0  0  0  0
  150.7620  141.0944  154.4546 H   0  0  0  0  0  0  0  0  0  0  0  0
  150.3800  142.3319  155.6390 H   0  0  0  0  0  0  0  0  0  0  0  0
  149.2068  139.8026  156.5208 H   0  0  0  0  0  0  0  0  0  0  0  0
  150.8848  139.5105  156.1323 H   0  0  0  0  0  0  0  0  0  0  0  0
  149.8405  141.4535  158.1352 H   0  0  0  0  0  0  0  0  0  0  0  0
  151.1828  141.0324  160.3199 H   0  0  0  0  0  0  0  0  0  0  0  0
  152.1774  143.4102  158.6686 H   0  0  0  0  0  0  0  0  0  0  0  0
  150.5789  143.1454  159.3367 H   0  0  0  0  0  0  0  0  0  0  0  0
  151.6819  144.7264  160.8791 H   0  0  0  0  0  0  0  0  0  0  0  0
  153.1062  143.7743  162.5857 H   0  0  0  0  0  0  0  0  0  0  0  0
  154.4994  141.8320  161.9112 H   0  0  0  0  0  0  0  0  0  0  0  0
  152.9371  141.1699  162.3489 H   0  0  0  0  0  0  0  0  0  0  0  0
  153.5327  140.1292  160.2430 H   0  0  0  0  0  0  0  0  0  0  0  0
  154.0673  141.6444  159.5573 H   0  0  0  0  0  0  0  0  0  0  0  0
  148.2681  143.4657  155.0496 H   0  0  0  0  0  0  0  0  0  0  0  0
  1  2  1  0  0  0  0
  1 18  1  0  0  0  0
  1 19  1  0  0  0  0
  1 20  1  0  0  0  0
  2  6  1  0  0  0  0
  2  3  1  0  0  0  0
  3  4  2  0  0  0  0
  3 21  1  0  0  0  0
  4  5  1  0  0  0  0
  4 22  1  0  0  0  0
  5  6  2  0  0  0  0
  5 37  1  0  0  0  0
  6  7  1  0  0  0  0
  7  8  1  0  0  0  0
  7 23  1  0  0  0  0
  7 24  1  0  0  0  0
  8  9  1  0  0  0  0
  8 25  1  0  0  0  0
  8 26  1  0  0  0  0
  9 10  1  0  0  0  0
  9 27  1  0  0  0  0
 10 11  2  0  0  0  0
 10 12  1  0  0  0  0
 12 17  1  0  0  0  0
 12 13  1  0  0  0  0
 12 28  1  0  0  0  0
 13 14  1  0  0  0  0
 13 29  1  0  0  0  0
 13 30  1  0  0  0  0
 14 15  2  0  0  0  0
 14 31  1  0  0  0  0
 15 16  1  0  0  0  0
 15 32  1  0  0  0  0
 16 17  1  0  0  0  0
 16 33  1  0  0  0  0
 16 34  1  0  0  0  0
 17 35  1  0  0  0  0
 17 36  1  0  0  0  0
M  CHG  1   5   1
M  END
> <s_m_source_file>
AV-unprocessed.smi

> <i_m_source_file_index>
814

> <i_lp_mmshare_version>
43012

> <i_f3d_flags>
0

> <s_epik_input>
W0NIM11uMVtjSF1bY0hdbmMxW0NIMl1bQ0gyXVtOSF1DKD1PKVtDQEBIXTJbQ0gyXVtDSF09W0NIXVtDSDJdW0NIMl0y

> <s_epik_cmdline>
J2VwaWtfcHl0aG9uJywgJy1waCcsICc3LjAnLCAnLXRuJywgJzgnLCAnLW1hJywgJzIwMCcsICctbWV0YWxfYmluZGluZycsICctaW1hZScsICc8aW5maWxlLm1hZT4nLCAnLW9tYWUnLCAnPG91dGZpbGUubWFlPic=

> <r_lp_tautomer_probability>
1

> <r_epik_Ionization_Penalty>
0.0819619

> <r_epik_Ionization_Penalty_Charging>
0

> <r_epik_Ionization_Penalty_Neutral>
0.0819619

> <r_epik_State_Penalty>
0.0726933

> <r_epik_Charging_Adjusted_Penalty>
0.0726933

> <i_epik_Tot_Q>
1

> <i_epik_Tot_abs_Q>
1

> <r_epik_Metal_State_Penalty>
0.411758

> <b_epik_Metal_Only>
0

> <s_lp_Force_Field>
OPLS_2005

> <r_lp_Energy>
9.54254

> <b_lp_Chiralities_Consistent>
1

> <s_lp_Variant>
AV-unprocessed.smi:814-1

> <Gold.Version>
5.8.1

> <Gold.Id.Protein>
6NUR|6NUR_protein|mol2

> <Gold.PLP.Fitness>
49.4656

> <Gold.PLP.PLP>
-38.3512

> <Gold.PLP.part.hbond>
-2.0000

> <Gold.PLP.part.metal>
0.0000

> <Gold.PLP.part.buried>
-4.3365

> <Gold.PLP.part.nonpolar>
-32.7505

> <Gold.PLP.part.repulsive>
0.2604

> <Gold.PLP.ligand.clash>
0.0000

> <Gold.PLP.ligand.torsion>
0.4507

> <Gold.PLP.Chemscore.Hbond>
3.0000

> <Gold.PLP.Chemscore.CHOScore>
1.0000

> <Gold.PLP.Chemscore.Metal>
0.0000

> <Gold.Chemscore.Hbonds>
donor molecule, donor type, donor heavy atom, donor atom, acceptor molecule, acceptor atom, score
      L1  H     5    37       P1  8028  1.82
      P1  H  7997  8009       L1    11  0.99
      L1  C     3    21       P1 10175  1.00

> <Gold.PLP.Chemscore.Internal.Correction>
0.0158

> <Gold.Rescore>
     Score         DG    S(hbond)    S(metal)    S(lipo)     H(rot)  DE(clash)    DE(int)     intcor
     18.13     -18.74       1.94        0.00      94.21       1.65       0.12       0.49       ----

> <Gold.Chemscore.Fitness>
18.1302

> <Gold.Chemscore.DG>
-18.7408

> <Gold.Chemscore.ZeroCoef>
-5.4800

> <Gold.Chemscore.Hbond>
1.9362

> <Gold.Chemscore.Metal>
0.0000

> <Gold.Chemscore.Lipo>
94.2100

> <Gold.Chemscore.Internal_Hbond>
0.0000

> <Gold.Chemscore.DEClash>
0.1183

> <Gold.Chemscore.DEInternal>
0.4923

> <Gold.Chemscore.Rot>
1.6518

> <Gold.Chemscore.Internal.Correction>
   9.000000E+99

> <Gold.Chemscore.Hbonds>
donor molecule, donor type, donor heavy atom, donor atom, acceptor molecule, acceptor atom, score
      L1  H     5    37       P1  8028  0.83
      P1  H  7997  8009       L1    11  0.90

> <Gold.Chemscore.Hbond.Weighted>
-6.4669

> <Gold.Chemscore.Metal.Weighted>
-0.0000

> <Gold.Chemscore.Lipo.Weighted>
-11.0226

> <Gold.Chemscore.Internal_Hbond.Weighted>
0.0000

> <Gold.Chemscore.DEClash.Weighted>
0.1183

> <Gold.Chemscore.DEInternal.Weighted>
0.4923

> <Gold.Chemscore.Rot.Weighted>
4.2287

> <Gold.Chemscore.Internal.Correction.Weighted>
   9.000000E+99

> <Gold.Protein.RotatedTorsions>
[ 6907 6896 6895 6894 ] final   -6.00 input  -60.11 | X-H torsion
[ 7974 7965 7964 7962 ] final  -32.88 input  175.53 | X-H torsion
[ 8008 7997 7996 7995 ] final  166.86 input   59.86 | X-H torsion
[ 10167 10162 10161 10158 ] final  -77.12 input  -65.29 | X-H torsion
[ 10718 10713 10712 10709 ] final -113.69 input   66.30 | X-H torsion
[ 10763 10752 10751 10750 ] final  140.64 input  -60.55 | X-H torsion
[ 11005 11000 10999 10996 ] final -124.12 input  -57.11 | X-H torsion

> <Gold.Protein.ActiveResidues>
 VAL166  LYS551  ARG553  GLY616  TRP617  ASP618  TYR619  PRO620  LYS621  CYS622 
 ASP623  PHE694  ASN695  SER759  ASP760  ASP761  ALA762  ILE779  LEU786  VAL792 
 PHE793  MET794  SER795  GLU796  ALA797  LYS798  CYS799  TRP800  GLU811  SER814 

> <Gold.Protein.RotatedAtoms>
  151.4726  135.1047  159.9755 H   0  0  0  0  0  0  0  0  0  0  0  0  # atno 6907 bound_to 6896
  152.4810  133.8251  159.7084 H   0  0  0  0  0  0  0  0  0  0  0  0  # atno 6908 bound_to 6896
  150.8883  133.7217  159.2939 H   0  0  0  0  0  0  0  0  0  0  0  0  # atno 6909 bound_to 6896
  146.0955  140.5847  142.8845 H   0  0  0  0  0  0  0  0  0  0  0  0  # atno 7974 bound_to 7965
  156.1683  140.1632  156.8492 H   0  0  0  0  0  0  0  0  0  0  0  0  # atno 8008 bound_to 7997
  154.5230  140.0774  156.8242 H   0  0  0  0  0  0  0  0  0  0  0  0  # atno 8009 bound_to 7997
  155.3565  140.3393  155.4242 H   0  0  0  0  0  0  0  0  0  0  0  0  # atno 8010 bound_to 7997
  140.4797  143.2405  151.8076 H   0  0  0  0  0  0  0  0  0  0  0  0  # atno 10167 bound_to 10162
  156.0782  130.5987  150.8676 H   0  0  0  0  0  0  0  0  0  0  0  0  # atno 10718 bound_to 10713
  153.9260  135.2995  155.3447 H   0  0  0  0  0  0  0  0  0  0  0  0  # atno 10763 bound_to 10752
  154.7551  135.4961  153.9363 H   0  0  0  0  0  0  0  0  0  0  0  0  # atno 10764 bound_to 10752
  153.1116  135.6760  153.9594 H   0  0  0  0  0  0  0  0  0  0  0  0  # atno 10765 bound_to 10752
  140.9866  134.0598  157.3704 H   0  0  0  0  0  0  0  0  0  0  0  0  # atno 11005 bound_to 11000
  144.7392  140.4895  143.6881 LP  0  0  0  0  0  0  0  0  0  0  0  0  # atno 17320 bound_to 7965
  145.5956  139.1499  143.3157 LP  0  0  0  0  0  0  0  0  0  0  0  0  # atno 17321 bound_to 7965
  139.4831  144.4787  151.9333 LP  0  0  0  0  0  0  0  0  0  0  0  0  # atno 17342 bound_to 10162
  140.3873  144.2660  150.5903 LP  0  0  0  0  0  0  0  0  0  0  0  0  # atno 17343 bound_to 10162
  157.5888  131.0945  150.9153 LP  0  0  0  0  0  0  0  0  0  0  0  0  # atno 17370 bound_to 10713
  156.9333  130.5358  149.5279 LP  0  0  0  0  0  0  0  0  0  0  0  0  # atno 17371 bound_to 10713
  139.8973  135.0150  156.7094 LP  0  0  0  0  0  0  0  0  0  0  0  0  # atno 17394 bound_to 11000
  140.7105  133.9227  155.8081 LP  0  0  0  0  0  0  0  0  0  0  0  0  # atno 17395 bound_to 11000

$$$$
