AV-unprocessed.smi:899|AV-procd|sdf|4087|dock8
  -GOLD-   22720 1573D 1   1.00000     0.00000
 Structure written by MMmdl.
 33 34  0  0  0  0  0  0  0  0  1 V2000
  154.2080  143.4698  164.5440 N   0  0  0  0  0  0  0  0  0  0  0  0
  154.3460  142.7921  163.6166 C   0  0  0  0  0  0  0  0  0  0  0  0
  154.5213  141.9303  162.4377 C   0  0  0  0  0  0  0  0  0  0  0  0
  153.4691  142.1908  161.3796 C   0  0  0  0  0  0  0  0  0  0  0  0
  152.4329  143.1122  161.6266 C   0  0  0  0  0  0  0  0  0  0  0  0
  151.4560  143.3565  160.6425 C   0  0  0  0  0  0  0  0  0  0  0  0
  151.4983  142.6897  159.4007 C   0  0  0  0  0  0  0  0  0  0  0  0
  150.5058  142.9937  158.4938 O   0  0  0  0  0  0  0  0  0  0  0  0
  150.7439  142.7209  157.1202 C   0  0  0  0  0  0  0  0  0  0  0  0
  150.5768  141.2113  156.8867 C   0  0  0  0  0  0  0  0  0  0  0  0
  149.4985  140.8994  155.9818 N   0  0  0  0  0  0  0  0  0  0  0  0
  148.1867  141.2730  156.2303 C   0  0  0  0  0  0  0  0  0  0  0  0
  147.1593  140.9734  155.3992 C   0  0  0  0  0  0  0  0  0  0  0  0
  145.5500  141.4743  155.7779 Cl  0  0  0  0  0  0  0  0  0  0  0  0
  147.4073  140.2175  154.1718 C   0  0  0  0  0  0  0  0  0  0  0  0
  146.5528  139.8946  153.3490 O   0  0  0  0  0  0  0  0  0  0  0  0
  148.7423  139.8555  153.9668 N   0  0  0  0  0  0  0  0  0  0  0  0
  149.8058  140.1577  154.8180 C   0  0  0  0  0  0  0  0  0  0  0  0
  150.9431  139.7783  154.5384 O   0  0  0  0  0  0  0  0  0  0  0  0
  152.5425  141.7607  159.1603 C   0  0  0  0  0  0  0  0  0  0  0  0
  153.5196  141.5151  160.1445 C   0  0  0  0  0  0  0  0  0  0  0  0
  148.9546  139.3281  153.1323 H   0  0  0  0  0  0  0  0  0  0  0  0
  155.5139  142.1090  162.0237 H   0  0  0  0  0  0  0  0  0  0  0  0
  154.4837  140.8904  162.7630 H   0  0  0  0  0  0  0  0  0  0  0  0
  152.3848  143.6334  162.5716 H   0  0  0  0  0  0  0  0  0  0  0  0
  150.6662  144.0657  160.8427 H   0  0  0  0  0  0  0  0  0  0  0  0
  150.0402  143.2784  156.5003 H   0  0  0  0  0  0  0  0  0  0  0  0
  151.7555  143.0257  156.8471 H   0  0  0  0  0  0  0  0  0  0  0  0
  151.4794  140.7882  156.4432 H   0  0  0  0  0  0  0  0  0  0  0  0
  150.4036  140.6599  157.8135 H   0  0  0  0  0  0  0  0  0  0  0  0
  147.9672  141.8290  157.1310 H   0  0  0  0  0  0  0  0  0  0  0  0
  152.6175  141.2228  158.2275 H   0  0  0  0  0  0  0  0  0  0  0  0
  154.3095  140.8053  159.9468 H   0  0  0  0  0  0  0  0  0  0  0  0
  1  2  3  0  0  0  0
  2  3  1  0  0  0  0
  3  4  1  0  0  0  0
  3 23  1  0  0  0  0
  3 24  1  0  0  0  0
  4 21  1  0  0  0  0
  4  5  2  0  0  0  0
  5  6  1  0  0  0  0
  5 25  1  0  0  0  0
  6  7  2  0  0  0  0
  6 26  1  0  0  0  0
  7  8  1  0  0  0  0
  7 20  1  0  0  0  0
  8  9  1  0  0  0  0
  9 10  1  0  0  0  0
  9 27  1  0  0  0  0
  9 28  1  0  0  0  0
 10 11  1  0  0  0  0
 10 29  1  0  0  0  0
 10 30  1  0  0  0  0
 11 18  1  0  0  0  0
 11 12  1  0  0  0  0
 12 13  2  0  0  0  0
 12 31  1  0  0  0  0
 13 14  1  0  0  0  0
 13 15  1  0  0  0  0
 15 16  2  0  0  0  0
 15 17  1  0  0  0  0
 17 22  1  0  0  0  0
 17 18  1  0  0  0  0
 18 19  2  0  0  0  0
 20 21  2  0  0  0  0
 20 32  1  0  0  0  0
 21 33  1  0  0  0  0
M  END
> <s_m_source_file>
AV-unprocessed.smi

> <i_m_source_file_index>
899

> <i_lp_mmshare_version>
43012

> <i_f3d_flags>
0

> <s_epik_input>
TiNDW0NIMl1jMVtjSF1bY0hdYyhbY0hdW2NIXTEpT1tDSDJdW0NIMl1uMltjSF1jKENsKWMoPU8pW25IXWMyPU8=

> <s_epik_cmdline>
J2VwaWtfcHl0aG9uJywgJy1waCcsICc3LjAnLCAnLXRuJywgJzgnLCAnLW1hJywgJzIwMCcsICctbWV0YWxfYmluZGluZycsICctaW1hZScsICc8aW5maWxlLm1hZT4nLCAnLW9tYWUnLCAnPG91dGZpbGUubWFlPic=

> <r_lp_tautomer_probability>
0.999537

> <r_epik_Ionization_Penalty>
0.0457407

> <r_epik_Ionization_Penalty_Charging>
0.0457407

> <r_epik_Ionization_Penalty_Neutral>
1.03254e-10

> <r_epik_State_Penalty>
0.0388483

> <r_epik_Charging_Adjusted_Penalty>
0.0845889

> <i_epik_Tot_Q>
0

> <i_epik_Tot_abs_Q>
0

> <r_epik_Metal_State_Penalty>
2.50663

> <b_epik_Metal_Only>
0

> <s_lp_Force_Field>
OPLS_2005

> <r_lp_Energy>
13.2906

> <b_lp_Chiralities_Consistent>
1

> <s_lp_Variant>
AV-unprocessed.smi:899-1

> <Gold.Version>
5.8.1

> <Gold.Id.Protein>
6NUR|6NUR_protein|mol2

> <Gold.PLP.Fitness>
47.8540

> <Gold.PLP.PLP>
-43.3202

> <Gold.PLP.part.hbond>
-2.5779

> <Gold.PLP.part.metal>
0.0000

> <Gold.PLP.part.buried>
2.0308

> <Gold.PLP.part.nonpolar>
-42.8505

> <Gold.PLP.part.repulsive>
0.6577

> <Gold.PLP.ligand.clash>
0.0000

> <Gold.PLP.ligand.torsion>
0.7560

> <Gold.PLP.Chemscore.Hbond>
1.6700

> <Gold.PLP.Chemscore.CHOScore>
0.3403

> <Gold.PLP.Chemscore.Metal>
0.0000

> <Gold.Chemscore.Hbonds>
donor molecule, donor type, donor heavy atom, donor atom, acceptor molecule, acceptor atom, score
      L1  H    17    22       P1  7957  0.37
      P1  H  7989  7998       L1    19  1.00

> <Gold.PLP.Chemscore.Internal.Correction>
0.0149

> <Gold.Rescore>
     Score         DG    S(hbond)    S(metal)    S(lipo)     H(rot)  DE(clash)    DE(int)     intcor
     11.47     -12.67       0.56        0.00      96.27       2.32       0.64       0.55       ----

> <Gold.Chemscore.Fitness>
11.4729

> <Gold.Chemscore.DG>
-12.6712

> <Gold.Chemscore.ZeroCoef>
-5.4800

> <Gold.Chemscore.Hbond>
0.5568

> <Gold.Chemscore.Metal>
0.0000

> <Gold.Chemscore.Lipo>
96.2724

> <Gold.Chemscore.Internal_Hbond>
0.0000

> <Gold.Chemscore.DEClash>
0.6448

> <Gold.Chemscore.DEInternal>
0.5535

> <Gold.Chemscore.Rot>
2.3174

> <Gold.Chemscore.Internal.Correction>
   9.000000E+99

> <Gold.Chemscore.Hbonds>
donor molecule, donor type, donor heavy atom, donor atom, acceptor molecule, acceptor atom, score
      L1  H    17    22       P1  7957  0.35
      P1  H  7989  7998       L1    19  0.70

> <Gold.Chemscore.Hbond.Weighted>
-1.8598

> <Gold.Chemscore.Metal.Weighted>
-0.0000

> <Gold.Chemscore.Lipo.Weighted>
-11.2639

> <Gold.Chemscore.Internal_Hbond.Weighted>
0.0000

> <Gold.Chemscore.DEClash.Weighted>
0.6448

> <Gold.Chemscore.DEInternal.Weighted>
0.5535

> <Gold.Chemscore.Rot.Weighted>
5.9324

> <Gold.Chemscore.Internal.Correction.Weighted>
   9.000000E+99

> <Gold.Protein.RotatedTorsions>
[ 6907 6896 6895 6894 ] final  174.73 input  -60.11 | X-H torsion
[ 7974 7965 7964 7962 ] final -101.75 input  175.53 | X-H torsion
[ 8008 7997 7996 7995 ] final -108.95 input   59.86 | X-H torsion
[ 10167 10162 10161 10158 ] final -143.58 input  -65.29 | X-H torsion
[ 10718 10713 10712 10709 ] final -164.09 input   66.30 | X-H torsion
[ 10763 10752 10751 10750 ] final    0.18 input  -60.55 | X-H torsion
[ 11005 11000 10999 10996 ] final   54.92 input  -57.11 | X-H torsion

> <Gold.Protein.ActiveResidues>
 VAL166  LYS551  ARG553  GLY616  TRP617  ASP618  TYR619  PRO620  LYS621  CYS622 
 ASP623  PHE694  ASN695  SER759  ASP760  ASP761  ALA762  ILE779  LEU786  VAL792 
 PHE793  MET794  SER795  GLU796  ALA797  LYS798  CYS799  TRP800  GLU811  SER814 

> <Gold.Protein.RotatedAtoms>
  151.7476  133.3325  159.3382 H   0  0  0  0  0  0  0  0  0  0  0  0  # atno 6907 bound_to 6896
  150.7548  134.6221  159.6151 H   0  0  0  0  0  0  0  0  0  0  0  0  # atno 6908 bound_to 6896
  152.3489  134.7034  160.0293 H   0  0  0  0  0  0  0  0  0  0  0  0  # atno 6909 bound_to 6896
  145.2776  140.9317  143.2950 H   0  0  0  0  0  0  0  0  0  0  0  0  # atno 7974 bound_to 7965
  154.9520  140.0400  157.2149 H   0  0  0  0  0  0  0  0  0  0  0  0  # atno 8008 bound_to 7997
  154.7969  140.2845  155.5928 H   0  0  0  0  0  0  0  0  0  0  0  0  # atno 8009 bound_to 7997
  156.2957  140.2562  156.2829 H   0  0  0  0  0  0  0  0  0  0  0  0  # atno 8010 bound_to 7997
  139.7980  143.7873  152.2656 H   0  0  0  0  0  0  0  0  0  0  0  0  # atno 10167 bound_to 10162
  156.6340  130.8941  151.2983 H   0  0  0  0  0  0  0  0  0  0  0  0  # atno 10718 bound_to 10713
  153.3240  135.6971  153.7006 H   0  0  0  0  0  0  0  0  0  0  0  0  # atno 10763 bound_to 10752
  153.5834  135.3493  155.2884 H   0  0  0  0  0  0  0  0  0  0  0  0  # atno 10764 bound_to 10752
  154.8604  135.4300  154.2411 H   0  0  0  0  0  0  0  0  0  0  0  0  # atno 10765 bound_to 10752
  140.0648  134.5552  155.9111 H   0  0  0  0  0  0  0  0  0  0  0  0  # atno 11005 bound_to 11000
  144.9281  139.4331  143.6508 LP  0  0  0  0  0  0  0  0  0  0  0  0  # atno 17320 bound_to 7965
  146.3227  139.8177  142.8933 LP  0  0  0  0  0  0  0  0  0  0  0  0  # atno 17321 bound_to 7965
  139.7985  144.7383  150.9858 LP  0  0  0  0  0  0  0  0  0  0  0  0  # atno 17342 bound_to 10162
  140.7820  143.4369  151.0609 LP  0  0  0  0  0  0  0  0  0  0  0  0  # atno 17343 bound_to 10162
  157.7191  130.9535  150.1369 LP  0  0  0  0  0  0  0  0  0  0  0  0  # atno 17370 bound_to 10713
  156.2211  130.3674  149.8554 LP  0  0  0  0  0  0  0  0  0  0  0  0  # atno 17371 bound_to 10713
  141.1988  133.6603  156.5811 LP  0  0  0  0  0  0  0  0  0  0  0  0  # atno 17394 bound_to 11000
  140.3715  134.7601  157.4602 LP  0  0  0  0  0  0  0  0  0  0  0  0  # atno 17395 bound_to 11000

$$$$
