AV-unprocessed.smi:2801|AV-procd|sdf|10798|dock3
  -GOLD-   2272015233D 1   1.00000     0.00000
 Structure written by MMmdl.
 32 32  0  0  0  0  0  0  0  0  3 V2000
  154.2418  141.4620  160.1718 C   0  0  0  0  0  0  0  0  0  0  0  0
  153.1155  142.4789  159.9750 C   0  0  0  0  0  0  0  0  0  0  0  0
  152.4654  142.2008  158.7408 O   0  0  0  0  0  0  0  0  0  0  0  0
  151.1691  142.7748  158.5884 C   0  0  1  0  0  0  0  0  0  0  0  0
  151.3488  144.2265  158.1054 C   0  0  0  0  0  0  0  0  0  0  0  0
  151.9653  145.1368  159.1749 C   0  0  0  0  0  0  0  0  0  0  0  0
  150.3431  141.9536  157.5848 C   0  0  0  0  0  0  0  0  0  0  0  0
  149.1190  142.0799  157.5589 O   0  0  0  0  0  0  0  0  0  0  0  0
  151.0523  141.1558  156.7655 N   0  0  0  0  0  0  0  0  0  0  0  0
  150.6047  140.2816  155.7346 C   0  0  0  0  0  0  0  0  0  0  0  0
  149.2791  140.2744  155.2288 C   0  0  0  0  0  0  0  0  0  0  0  0
  148.9276  139.3583  154.2172 C   0  0  0  0  0  0  0  0  0  0  0  0
  149.8457  138.4905  153.7434 N   0  3  0  0  0  0  0  0  0  0  0  0
  151.1142  138.4498  154.2007 C   0  0  0  0  0  0  0  0  0  0  0  0
  151.5281  139.3415  155.2110 C   0  0  0  0  0  0  0  0  0  0  0  0
  152.8167  139.2801  155.6634 O   0  5  0  0  0  0  0  0  0  0  0  0
  154.7689  141.6404  161.1090 H   0  0  0  0  0  0  0  0  0  0  0  0
  154.9688  141.5220  159.3615 H   0  0  0  0  0  0  0  0  0  0  0  0
  153.8496  140.4449  160.1961 H   0  0  0  0  0  0  0  0  0  0  0  0
  152.4187  142.4167  160.8115 H   0  0  0  0  0  0  0  0  0  0  0  0
  153.5275  143.4890  159.9626 H   0  0  0  0  0  0  0  0  0  0  0  0
  150.6601  142.7909  159.5546 H   0  0  0  0  0  0  0  0  0  0  0  0
  151.9735  144.2486  157.2113 H   0  0  0  0  0  0  0  0  0  0  0  0
  150.3821  144.6398  157.8140 H   0  0  0  0  0  0  0  0  0  0  0  0
  152.0636  146.1577  158.8056 H   0  0  0  0  0  0  0  0  0  0  0  0
  152.9581  144.7915  159.4640 H   0  0  0  0  0  0  0  0  0  0  0  0
  151.3457  145.1660  160.0716 H   0  0  0  0  0  0  0  0  0  0  0  0
  152.0569  141.2191  156.8524 H   0  0  0  0  0  0  0  0  0  0  0  0
  148.5188  140.9419  155.6016 H   0  0  0  0  0  0  0  0  0  0  0  0
  147.9422  139.2905  153.7803 H   0  0  0  0  0  0  0  0  0  0  0  0
  151.7564  137.7075  153.7492 H   0  0  0  0  0  0  0  0  0  0  0  0
  149.5694  137.8346  153.0128 H   0  0  0  0  0  0  0  0  0  0  0  0
  1  2  1  0  0  0  0
  1 17  1  0  0  0  0
  1 18  1  0  0  0  0
  1 19  1  0  0  0  0
  2  3  1  0  0  0  0
  2 20  1  0  0  0  0
  2 21  1  0  0  0  0
  3  4  1  0  0  0  0
  4  5  1  0  0  0  0
  4  7  1  0  0  0  0
  4 22  1  0  0  0  0
  5  6  1  0  0  0  0
  5 23  1  0  0  0  0
  5 24  1  0  0  0  0
  6 25  1  0  0  0  0
  6 26  1  0  0  0  0
  6 27  1  0  0  0  0
  7  8  2  0  0  0  0
  7  9  1  0  0  0  0
  9 28  1  0  0  0  0
  9 10  1  0  0  0  0
 10 11  2  0  0  0  0
 10 15  1  0  0  0  0
 11 12  1  0  0  0  0
 11 29  1  0  0  0  0
 12 13  2  0  0  0  0
 12 30  1  0  0  0  0
 13 14  1  0  0  0  0
 13 32  1  0  0  0  0
 14 15  2  0  0  0  0
 14 31  1  0  0  0  0
 15 16  1  0  0  0  0
M  CHG  1  13   1
M  CHG  1  16  -1
M  END
> <s_m_source_file>
AV-unprocessed.smi

> <i_m_source_file_index>
2801

> <i_lp_mmshare_version>
43012

> <i_f3d_flags>
0

> <s_epik_input>
W0NIM11bQ0gyXU9bQ0BIXShbQ0gyXVtDSDNdKUMoPU8pW05IXWMxW2NIXVtjSF1uW2NIXWMxW09IXQ==

> <s_epik_cmdline>
J2VwaWtfcHl0aG9uJywgJy1waCcsICc3LjAnLCAnLXRuJywgJzgnLCAnLW1hJywgJzIwMCcsICctbWV0YWxfYmluZGluZycsICctaW1hZScsICc8aW5maWxlLm1hZT4nLCAnLW9tYWUnLCAnPG91dGZpbGUubWFlPic=

> <r_lp_tautomer_probability>
0.56342

> <r_epik_Ionization_Penalty>
0.0170685

> <r_epik_Ionization_Penalty_Charging>
0.0170685

> <r_epik_Ionization_Penalty_Neutral>
1.5328e-09

> <r_epik_State_Penalty>
0.331557

> <r_epik_Charging_Adjusted_Penalty>
0.348625

> <i_epik_Tot_Q>
0

> <i_epik_Tot_abs_Q>
2

> <r_epik_Metal_State_Penalty>
0.590147

> <b_epik_Metal_Only>
0

> <s_lp_Force_Field>
OPLS_2005

> <r_lp_Energy>
9.87866

> <b_lp_Chiralities_Consistent>
1

> <s_lp_Variant>
AV-unprocessed.smi:2801-2

> <Gold.Version>
5.8.1

> <Gold.Id.Protein>
6NUR|6NUR_protein|mol2

> <Gold.PLP.Fitness>
47.5801

> <Gold.PLP.PLP>
-37.3830

> <Gold.PLP.part.hbond>
-3.0000

> <Gold.PLP.part.metal>
0.0000

> <Gold.PLP.part.buried>
-4.8326

> <Gold.PLP.part.nonpolar>
-30.8547

> <Gold.PLP.part.repulsive>
0.9882

> <Gold.PLP.ligand.clash>
0.0000

> <Gold.PLP.ligand.torsion>
0.9338

> <Gold.PLP.Chemscore.Hbond>
4.0000

> <Gold.PLP.Chemscore.CHOScore>
0.0000

> <Gold.PLP.Chemscore.Metal>
0.0000

> <Gold.Chemscore.Hbonds>
donor molecule, donor type, donor heavy atom, donor atom, acceptor molecule, acceptor atom, score
      L1  H    13    32       P1  7948  2.00
      P1  H  7997  8009       L1    16  2.00

> <Gold.PLP.Chemscore.Internal.Correction>
0.0647

> <Gold.Rescore>
     Score         DG    S(hbond)    S(metal)    S(lipo)     H(rot)  DE(clash)    DE(int)     intcor
     16.17     -18.27       1.94        0.00      88.88       1.59       0.01       2.09       ----

> <Gold.Chemscore.Fitness>
16.1672

> <Gold.Chemscore.DG>
-18.2685

> <Gold.Chemscore.ZeroCoef>
-5.4800

> <Gold.Chemscore.Hbond>
1.9367

> <Gold.Chemscore.Metal>
0.0000

> <Gold.Chemscore.Lipo>
88.8779

> <Gold.Chemscore.Internal_Hbond>
0.0000

> <Gold.Chemscore.DEClash>
0.0089

> <Gold.Chemscore.DEInternal>
2.0924

> <Gold.Chemscore.Rot>
1.5933

> <Gold.Chemscore.Internal.Correction>
   9.000000E+99

> <Gold.Chemscore.Hbonds>
donor molecule, donor type, donor heavy atom, donor atom, acceptor molecule, acceptor atom, score
      L1  H    13    32       P1  7948  0.77
      P1  H  7997  8009       L1    16  0.98

> <Gold.Chemscore.Hbond.Weighted>
-6.4686

> <Gold.Chemscore.Metal.Weighted>
-0.0000

> <Gold.Chemscore.Lipo.Weighted>
-10.3987

> <Gold.Chemscore.Internal_Hbond.Weighted>
0.0000

> <Gold.Chemscore.DEClash.Weighted>
0.0089

> <Gold.Chemscore.DEInternal.Weighted>
2.0924

> <Gold.Chemscore.Rot.Weighted>
4.0789

> <Gold.Chemscore.Internal.Correction.Weighted>
   9.000000E+99

> <Gold.Protein.RotatedTorsions>
[ 6907 6896 6895 6894 ] final   74.91 input  -60.11 | X-H torsion
[ 7974 7965 7964 7962 ] final  -58.95 input  175.53 | X-H torsion
[ 8008 7997 7996 7995 ] final -134.81 input   59.86 | X-H torsion
[ 10167 10162 10161 10158 ] final  108.57 input  -65.29 | X-H torsion
[ 10718 10713 10712 10709 ] final  143.04 input   66.30 | X-H torsion
[ 10763 10752 10751 10750 ] final  111.51 input  -60.55 | X-H torsion
[ 11005 11000 10999 10996 ] final  135.21 input  -57.11 | X-H torsion

> <Gold.Protein.ActiveResidues>
 VAL166  LYS551  ARG553  GLY616  TRP617  ASP618  TYR619  PRO620  LYS621  CYS622 
 ASP623  PHE694  ASN695  SER759  ASP760  ASP761  ALA762  ILE779  LEU786  VAL792 
 PHE793  MET794  SER795  GLU796  ALA797  LYS798  CYS799  TRP800  GLU811  SER814 

> <Gold.Protein.RotatedAtoms>
  152.5000  134.4200  159.9477 H   0  0  0  0  0  0  0  0  0  0  0  0  # atno 6907 bound_to 6896
  151.4172  133.3703  159.2759 H   0  0  0  0  0  0  0  0  0  0  0  0  # atno 6908 bound_to 6896
  150.9248  134.8688  159.7572 H   0  0  0  0  0  0  0  0  0  0  0  0  # atno 6909 bound_to 6896
  145.8333  140.8466  143.0072 H   0  0  0  0  0  0  0  0  0  0  0  0  # atno 7974 bound_to 7965
  155.3682  140.0486  157.3046 H   0  0  0  0  0  0  0  0  0  0  0  0  # atno 8008 bound_to 7997
  154.5143  140.2203  155.9058 H   0  0  0  0  0  0  0  0  0  0  0  0  # atno 8009 bound_to 7997
  156.1619  140.3114  155.8827 H   0  0  0  0  0  0  0  0  0  0  0  0  # atno 8010 bound_to 7997
  139.6835  144.7116  151.1473 H   0  0  0  0  0  0  0  0  0  0  0  0  # atno 10167 bound_to 10162
  157.3735  131.0982  151.0806 H   0  0  0  0  0  0  0  0  0  0  0  0  # atno 10718 bound_to 10713
  153.4644  135.3715  155.2356 H   0  0  0  0  0  0  0  0  0  0  0  0  # atno 10763 bound_to 10752
  154.8757  135.3916  154.3886 H   0  0  0  0  0  0  0  0  0  0  0  0  # atno 10764 bound_to 10752
  153.4465  135.7085  153.6200 H   0  0  0  0  0  0  0  0  0  0  0  0  # atno 10765 bound_to 10752
  139.9965  134.9495  156.9975 H   0  0  0  0  0  0  0  0  0  0  0  0  # atno 11005 bound_to 11000
  144.6738  140.0703  143.7473 LP  0  0  0  0  0  0  0  0  0  0  0  0  # atno 17320 bound_to 7965
  145.9547  139.2758  143.1191 LP  0  0  0  0  0  0  0  0  0  0  0  0  # atno 17321 bound_to 7965
  140.7660  143.5663  150.9044 LP  0  0  0  0  0  0  0  0  0  0  0  0  # atno 17342 bound_to 10162
  139.9337  143.6463  152.3070 LP  0  0  0  0  0  0  0  0  0  0  0  0  # atno 17343 bound_to 10162
  157.1901  130.6348  149.5701 LP  0  0  0  0  0  0  0  0  0  0  0  0  # atno 17370 bound_to 10713
  155.9760  130.4725  150.6501 LP  0  0  0  0  0  0  0  0  0  0  0  0  # atno 17371 bound_to 10713
  140.4809  134.1290  155.7217 LP  0  0  0  0  0  0  0  0  0  0  0  0  # atno 17394 bound_to 11000
  141.1608  133.8796  157.1853 LP  0  0  0  0  0  0  0  0  0  0  0  0  # atno 17395 bound_to 11000

$$$$
