AV-unprocessed.smi:3096|AV-procd|sdf|11796|dock9
  -GOLD-   2272017173D 1   1.00000     0.00000
 Structure written by MMmdl.
 33 33  0  0  0  0  0  0  0  0  2 V2000
  145.6226  143.8304  153.7003 C   0  0  0  0  0  0  0  0  0  0  0  0
  146.1460  142.6574  154.0860 C   0  0  0  0  0  0  0  0  0  0  0  0
  147.4655  142.1082  153.5911 C   0  0  0  0  0  0  0  0  0  0  0  0
  148.3710  141.9420  154.7342 N   0  0  0  0  0  0  0  0  0  0  0  0
  149.1373  140.8616  154.9814 C   0  0  0  0  0  0  0  0  0  0  0  0
  149.1069  139.8063  154.1440 N   0  3  0  0  0  0  0  0  0  0  0  0
  149.8870  138.5722  154.2963 C   0  0  0  0  0  0  0  0  0  0  0  0
  149.9350  140.8376  156.0672 N   0  0  0  0  0  0  0  0  0  0  0  0
  150.0726  141.9212  157.0491 C   0  0  0  0  0  0  0  0  0  0  0  0
  151.5148  142.0292  157.5615 C   0  0  0  0  0  0  0  0  0  0  0  0
  151.6767  143.1536  158.4623 N   0  0  0  0  0  0  0  0  0  0  0  0
  151.3746  144.4814  158.2428 C   0  0  0  0  0  0  0  0  0  0  0  0
  151.6993  145.1644  159.3797 C   0  0  0  0  0  0  0  0  0  0  0  0
  152.1971  144.1550  160.2506 C   0  0  0  0  0  0  0  0  0  0  0  0
  152.1820  142.9524  159.6984 N   0  0  0  0  0  0  0  0  0  0  0  0
  146.1340  144.4696  152.9957 H   0  0  0  0  0  0  0  0  0  0  0  0
  144.6717  144.1670  154.0870 H   0  0  0  0  0  0  0  0  0  0  0  0
  145.6026  142.0441  154.7905 H   0  0  0  0  0  0  0  0  0  0  0  0
  147.2986  141.1442  153.1100 H   0  0  0  0  0  0  0  0  0  0  0  0
  147.9111  142.7810  152.8574 H   0  0  0  0  0  0  0  0  0  0  0  0
  148.4197  142.7163  155.3810 H   0  0  0  0  0  0  0  0  0  0  0  0
  149.6649  137.8841  153.4804 H   0  0  0  0  0  0  0  0  0  0  0  0
  149.6427  138.0811  155.2382 H   0  0  0  0  0  0  0  0  0  0  0  0
  150.9547  138.7913  154.2825 H   0  0  0  0  0  0  0  0  0  0  0  0
  150.5025  140.0165  156.2225 H   0  0  0  0  0  0  0  0  0  0  0  0
  149.7676  142.8569  156.5793 H   0  0  0  0  0  0  0  0  0  0  0  0
  149.3911  141.7387  157.8804 H   0  0  0  0  0  0  0  0  0  0  0  0
  151.8002  141.1176  158.0884 H   0  0  0  0  0  0  0  0  0  0  0  0
  152.2113  142.1469  156.7299 H   0  0  0  0  0  0  0  0  0  0  0  0
  150.9593  144.8263  157.3071 H   0  0  0  0  0  0  0  0  0  0  0  0
  151.5965  146.2238  159.5625 H   0  0  0  0  0  0  0  0  0  0  0  0
  152.5669  144.2597  161.2602 H   0  0  0  0  0  0  0  0  0  0  0  0
  148.5012  139.8562  153.3372 H   0  0  0  0  0  0  0  0  0  0  0  0
  1  2  2  0  0  0  0
  1 16  1  0  0  0  0
  1 17  1  0  0  0  0
  2  3  1  0  0  0  0
  2 18  1  0  0  0  0
  3  4  1  0  0  0  0
  3 19  1  0  0  0  0
  3 20  1  0  0  0  0
  4  5  1  0  0  0  0
  4 21  1  0  0  0  0
  5  6  2  0  0  0  0
  5  8  1  0  0  0  0
  6  7  1  0  0  0  0
  6 33  1  0  0  0  0
  7 22  1  0  0  0  0
  7 23  1  0  0  0  0
  7 24  1  0  0  0  0
  8  9  1  0  0  0  0
  8 25  1  0  0  0  0
  9 10  1  0  0  0  0
  9 26  1  0  0  0  0
  9 27  1  0  0  0  0
 10 11  1  0  0  0  0
 10 28  1  0  0  0  0
 10 29  1  0  0  0  0
 11 15  1  0  0  0  0
 11 12  1  0  0  0  0
 12 13  2  0  0  0  0
 12 30  1  0  0  0  0
 13 14  1  0  0  0  0
 13 31  1  0  0  0  0
 14 15  2  0  0  0  0
 14 32  1  0  0  0  0
M  CHG  1   6   1
M  END
> <s_m_source_file>
AV-unprocessed.smi

> <i_m_source_file_index>
3096

> <i_lp_mmshare_version>
43012

> <i_f3d_flags>
0

> <s_epik_input>
W0NIMl09W0NIXVtDSDJdW05IXS9DKD1OL1tDSDNdKVtOSF1bQ0gyXVtDSDJdbjFbY0hdW2NIXVtjSF1uMQ==

> <s_epik_cmdline>
J2VwaWtfcHl0aG9uJywgJy1waCcsICc3LjAnLCAnLXRuJywgJzgnLCAnLW1hJywgJzIwMCcsICctbWV0YWxfYmluZGluZycsICctaW1hZScsICc8aW5maWxlLm1hZT4nLCAnLW9tYWUnLCAnPG91dGZpbGUubWFlPic=

> <r_lp_tautomer_probability>
1

> <r_epik_Ionization_Penalty>
5.14269e-05

> <r_epik_Ionization_Penalty_Charging>
1.55211e-07

> <r_epik_Ionization_Penalty_Neutral>
5.12717e-05

> <r_epik_State_Penalty>
-0

> <r_epik_Charging_Adjusted_Penalty>
1.55211e-07

> <i_epik_Tot_Q>
1

> <i_epik_Tot_abs_Q>
1

> <r_epik_Metal_State_Penalty>
-0

> <b_epik_Metal_Only>
0

> <s_epik_Chemistry_Notes>
This compound has an imine and may undergo hydrolysis.

> <s_lp_Force_Field>
OPLS_2005

> <r_lp_Energy>
4.847

> <b_lp_Chiralities_Consistent>
1

> <s_lp_Variant>
AV-unprocessed.smi:3096-1

> <Gold.Version>
5.8.1

> <Gold.Id.Protein>
6NUR|6NUR_protein|mol2

> <Gold.PLP.Fitness>
44.9940

> <Gold.PLP.PLP>
-36.6518

> <Gold.PLP.part.hbond>
-2.0000

> <Gold.PLP.part.metal>
0.0000

> <Gold.PLP.part.buried>
-6.4940

> <Gold.PLP.part.nonpolar>
-27.7665

> <Gold.PLP.part.repulsive>
0.4087

> <Gold.PLP.ligand.clash>
0.0000

> <Gold.PLP.ligand.torsion>
0.2900

> <Gold.PLP.Chemscore.Hbond>
1.9670

> <Gold.PLP.Chemscore.CHOScore>
1.0000

> <Gold.PLP.Chemscore.Metal>
0.0000

> <Gold.Chemscore.Hbonds>
donor molecule, donor type, donor heavy atom, donor atom, acceptor molecule, acceptor atom, score
      L1  H     4    21       P1  8028  1.72
      L1  C    12    30       P1  8028  0.81

> <Gold.PLP.Chemscore.Internal.Correction>
0.0211

> <Gold.Rescore>
     Score         DG    S(hbond)    S(metal)    S(lipo)     H(rot)  DE(clash)    DE(int)     intcor
     12.19     -12.75       0.89        0.00      78.09       1.89       0.25       0.30       ----

> <Gold.Chemscore.Fitness>
12.1947

> <Gold.Chemscore.DG>
-12.7457

> <Gold.Chemscore.ZeroCoef>
-5.4800

> <Gold.Chemscore.Hbond>
0.8878

> <Gold.Chemscore.Metal>
0.0000

> <Gold.Chemscore.Lipo>
78.0905

> <Gold.Chemscore.Internal_Hbond>
0.0000

> <Gold.Chemscore.DEClash>
0.2505

> <Gold.Chemscore.DEInternal>
0.3005

> <Gold.Chemscore.Rot>
1.8891

> <Gold.Chemscore.Internal.Correction>
   9.000000E+99

> <Gold.Chemscore.Hbonds>
donor molecule, donor type, donor heavy atom, donor atom, acceptor molecule, acceptor atom, score
      L1  H     4    21       P1  8028  0.79
      L1  H     6    33       P1  7957  0.02

> <Gold.Chemscore.Hbond.Weighted>
-2.9652

> <Gold.Chemscore.Metal.Weighted>
-0.0000

> <Gold.Chemscore.Lipo.Weighted>
-9.1366

> <Gold.Chemscore.Internal_Hbond.Weighted>
0.0000

> <Gold.Chemscore.DEClash.Weighted>
0.2505

> <Gold.Chemscore.DEInternal.Weighted>
0.3005

> <Gold.Chemscore.Rot.Weighted>
4.8361

> <Gold.Chemscore.Internal.Correction.Weighted>
   9.000000E+99

> <Gold.Protein.RotatedTorsions>
[ 6907 6896 6895 6894 ] final -102.39 input  -60.11 | X-H torsion
[ 7974 7965 7964 7962 ] final  149.04 input  175.53 | X-H torsion
[ 8008 7997 7996 7995 ] final  -13.48 input   59.86 | X-H torsion
[ 10167 10162 10161 10158 ] final  -97.08 input  -65.29 | X-H torsion
[ 10718 10713 10712 10709 ] final -161.72 input   66.30 | X-H torsion
[ 10763 10752 10751 10750 ] final  -75.55 input  -60.55 | X-H torsion
[ 11005 11000 10999 10996 ] final   38.93 input  -57.11 | X-H torsion

> <Gold.Protein.ActiveResidues>
 VAL166  LYS551  ARG553  GLY616  TRP617  ASP618  TYR619  PRO620  LYS621  CYS622 
 ASP623  PHE694  ASN695  SER759  ASP760  ASP761  ALA762  ILE779  LEU786  VAL792 
 PHE793  MET794  SER795  GLU796  ALA797  LYS798  CYS799  TRP800  GLU811  SER814 

> <Gold.Protein.RotatedAtoms>
  150.7194  134.0589  159.3823 H   0  0  0  0  0  0  0  0  0  0  0  0  # atno 6907 bound_to 6896
  151.8568  135.0536  160.0474 H   0  0  0  0  0  0  0  0  0  0  0  0  # atno 6908 bound_to 6896
  152.2748  133.5380  159.5498 H   0  0  0  0  0  0  0  0  0  0  0  0  # atno 6909 bound_to 6896
  144.8468  139.6230  143.5992 H   0  0  0  0  0  0  0  0  0  0  0  0  # atno 7974 bound_to 7965
  154.5289  140.2248  155.8841 H   0  0  0  0  0  0  0  0  0  0  0  0  # atno 8008 bound_to 7997
  156.1742  140.3115  155.8993 H   0  0  0  0  0  0  0  0  0  0  0  0  # atno 8009 bound_to 7997
  155.3494  140.0455  157.3036 H   0  0  0  0  0  0  0  0  0  0  0  0  # atno 8010 bound_to 7997
  140.2872  143.3244  152.0382 H   0  0  0  0  0  0  0  0  0  0  0  0  # atno 10167 bound_to 10162
  156.6003  130.8807  151.2912 H   0  0  0  0  0  0  0  0  0  0  0  0  # atno 10718 bound_to 10713
  154.4880  135.5827  153.6438 H   0  0  0  0  0  0  0  0  0  0  0  0  # atno 10763 bound_to 10752
  152.9857  135.6106  154.3161 H   0  0  0  0  0  0  0  0  0  0  0  0  # atno 10764 bound_to 10752
  154.3059  135.2846  155.2568 H   0  0  0  0  0  0  0  0  0  0  0  0  # atno 10765 bound_to 10752
  140.2078  134.3792  155.8064 H   0  0  0  0  0  0  0  0  0  0  0  0  # atno 11005 bound_to 11000
  146.2751  139.6731  142.9269 LP  0  0  0  0  0  0  0  0  0  0  0  0  # atno 17320 bound_to 7965
  145.4581  141.0431  143.2767 LP  0  0  0  0  0  0  0  0  0  0  0  0  # atno 17321 bound_to 7965
  139.4947  144.6550  151.6591 LP  0  0  0  0  0  0  0  0  0  0  0  0  # atno 17342 bound_to 10162
  140.5763  144.0023  150.6243 LP  0  0  0  0  0  0  0  0  0  0  0  0  # atno 17343 bound_to 10162
  157.7281  130.9652  150.1729 LP  0  0  0  0  0  0  0  0  0  0  0  0  # atno 17370 bound_to 10713
  156.2475  130.3697  149.8269 LP  0  0  0  0  0  0  0  0  0  0  0  0  # atno 17371 bound_to 10713
  141.2227  133.7127  156.8367 LP  0  0  0  0  0  0  0  0  0  0  0  0  # atno 17394 bound_to 11000
  140.1984  134.8915  157.3140 LP  0  0  0  0  0  0  0  0  0  0  0  0  # atno 17395 bound_to 11000

$$$$
