AV-unprocessed.smi:2214|AV-procd|sdf|8959|dock6
  -GOLD-   2272012173D 1   1.00000     0.00000
 Structure written by MMmdl.
 41 42  0  0  0  0  0  0  0  0  1 V2000
  151.4412  145.2288  159.4547 C   0  0  0  0  0  0  0  0  0  0  0  0
  152.0280  143.8510  159.6836 C   0  0  0  0  0  0  0  0  0  0  0  0
  152.8378  143.6000  160.8088 C   0  0  0  0  0  0  0  0  0  0  0  0
  153.3763  142.3167  161.0142 C   0  0  0  0  0  0  0  0  0  0  0  0
  153.1079  141.2815  160.0980 C   0  0  0  0  0  0  0  0  0  0  0  0
  153.7838  139.7147  160.3697 Cl  0  0  0  0  0  0  0  0  0  0  0  0
  152.2991  141.5180  158.9645 C   0  0  0  0  0  0  0  0  0  0  0  0
  152.0803  140.4563  158.1133 O   0  0  0  0  0  0  0  0  0  0  0  0
  151.7854  140.7262  156.7497 C   0  0  0  0  0  0  0  0  0  0  0  0
  151.1388  139.4710  156.1456 C   0  0  1  0  0  0  0  0  0  0  0  0
  150.9590  139.7123  154.7649 O   0  0  0  0  0  0  0  0  0  0  0  0
  152.0194  138.2123  156.3294 C   0  0  0  0  0  0  0  0  0  0  0  0
  151.2066  137.0030  156.5346 N   0  0  0  0  0  0  0  0  0  0  0  0
  150.6855  136.8142  157.8262 C   0  0  0  0  0  0  0  0  0  0  0  0
  149.9474  135.7936  158.1178 N   0  0  0  0  0  0  0  0  0  0  0  0
  149.6470  134.8473  157.1337 C   0  0  0  0  0  0  0  0  0  0  0  0
  148.7726  133.6900  157.5827 C   0  0  0  0  0  0  0  0  0  0  0  0
  150.1149  134.9763  155.8618 C   0  0  0  0  0  0  0  0  0  0  0  0
  149.8192  133.9784  154.7490 C   0  0  0  0  0  0  0  0  0  0  0  0
  150.9531  136.1353  155.5137 C   0  0  0  0  0  0  0  0  0  0  0  0
  151.4008  136.3197  154.3803 O   0  0  0  0  0  0  0  0  0  0  0  0
  151.7599  142.8144  158.7661 C   0  0  0  0  0  0  0  0  0  0  0  0
  151.8030  145.9436  160.1942 H   0  0  0  0  0  0  0  0  0  0  0  0
  150.3536  145.1910  159.5199 H   0  0  0  0  0  0  0  0  0  0  0  0
  151.7136  145.5968  158.4653 H   0  0  0  0  0  0  0  0  0  0  0  0
  153.0490  144.3874  161.5177 H   0  0  0  0  0  0  0  0  0  0  0  0
  153.9974  142.1271  161.8772 H   0  0  0  0  0  0  0  0  0  0  0  0
  151.0930  141.5675  156.6874 H   0  0  0  0  0  0  0  0  0  0  0  0
  152.6909  140.9866  156.1989 H   0  0  0  0  0  0  0  0  0  0  0  0
  150.1563  139.3326  156.5994 H   0  0  0  0  0  0  0  0  0  0  0  0
  150.0351  139.6746  154.5699 H   0  0  0  0  0  0  0  0  0  0  0  0
  152.7158  138.0969  155.4965 H   0  0  0  0  0  0  0  0  0  0  0  0
  152.6749  138.3415  157.1931 H   0  0  0  0  0  0  0  0  0  0  0  0
  150.9419  137.5866  158.5538 H   0  0  0  0  0  0  0  0  0  0  0  0
  149.2940  132.7417  157.4496 H   0  0  0  0  0  0  0  0  0  0  0  0
  147.8479  133.6647  157.0057 H   0  0  0  0  0  0  0  0  0  0  0  0
  148.5059  133.7793  158.6365 H   0  0  0  0  0  0  0  0  0  0  0  0
  149.2907  134.4721  153.9327 H   0  0  0  0  0  0  0  0  0  0  0  0
  149.2082  133.1387  155.0760 H   0  0  0  0  0  0  0  0  0  0  0  0
  150.7500  133.5713  154.3521 H   0  0  0  0  0  0  0  0  0  0  0  0
  151.1328  143.0365  157.9160 H   0  0  0  0  0  0  0  0  0  0  0  0
  1  2  1  0  0  0  0
  1 23  1  0  0  0  0
  1 24  1  0  0  0  0
  1 25  1  0  0  0  0
  2 22  1  0  0  0  0
  2  3  2  0  0  0  0
  3  4  1  0  0  0  0
  3 26  1  0  0  0  0
  4  5  2  0  0  0  0
  4 27  1  0  0  0  0
  5  6  1  0  0  0  0
  5  7  1  0  0  0  0
  7  8  1  0  0  0  0
  7 22  2  0  0  0  0
  8  9  1  0  0  0  0
  9 10  1  0  0  0  0
  9 28  1  0  0  0  0
  9 29  1  0  0  0  0
 10 11  1  0  0  0  0
 10 12  1  0  0  0  0
 10 30  1  0  0  0  0
 11 31  1  0  0  0  0
 12 13  1  0  0  0  0
 12 32  1  0  0  0  0
 12 33  1  0  0  0  0
 13 20  1  0  0  0  0
 13 14  1  0  0  0  0
 14 15  2  0  0  0  0
 14 34  1  0  0  0  0
 15 16  1  0  0  0  0
 16 17  1  0  0  0  0
 16 18  2  0  0  0  0
 17 35  1  0  0  0  0
 17 36  1  0  0  0  0
 17 37  1  0  0  0  0
 18 19  1  0  0  0  0
 18 20  1  0  0  0  0
 19 38  1  0  0  0  0
 19 39  1  0  0  0  0
 19 40  1  0  0  0  0
 20 21  2  0  0  0  0
 22 41  1  0  0  0  0
M  END
> <s_m_source_file>
AV-unprocessed.smi

> <i_m_source_file_index>
2214

> <i_lp_mmshare_version>
43012

> <i_f3d_flags>
0

> <s_epik_input>
W0NIM11jMVtjSF1bY0hdYyhDbCljKFtjSF0xKU9bQ0gyXVtDQEhdKFtPSF0pW0NIMl1uMltjSF1uYyhbQ0gzXSljKFtDSDNdKWMyPU8=

> <s_epik_cmdline>
J2VwaWtfcHl0aG9uJywgJy1waCcsICc3LjAnLCAnLXRuJywgJzgnLCAnLW1hJywgJzIwMCcsICctbWV0YWxfYmluZGluZycsICctaW1hZScsICc8aW5maWxlLm1hZT4nLCAnLW9tYWUnLCAnPG91dGZpbGUubWFlPic=

> <r_lp_tautomer_probability>
1

> <r_epik_Ionization_Penalty>
3.50205e-05

> <r_epik_Ionization_Penalty_Charging>
7.87908e-08

> <r_epik_Ionization_Penalty_Neutral>
3.49418e-05

> <r_epik_State_Penalty>
-0

> <r_epik_Charging_Adjusted_Penalty>
7.87908e-08

> <i_epik_Tot_Q>
0

> <i_epik_Tot_abs_Q>
0

> <r_epik_Metal_State_Penalty>
-0

> <b_epik_Metal_Only>
0

> <s_lp_Force_Field>
OPLS_2005

> <r_lp_Energy>
22.3765

> <b_lp_Chiralities_Consistent>
1

> <s_lp_Variant>
AV-unprocessed.smi:2214-2

> <Gold.Version>
5.8.1

> <Gold.Id.Protein>
6NUR|6NUR_protein|mol2

> <Gold.PLP.Fitness>
45.6170

> <Gold.PLP.PLP>
-39.0173

> <Gold.PLP.part.hbond>
-3.0000

> <Gold.PLP.part.metal>
0.0000

> <Gold.PLP.part.buried>
-7.0279

> <Gold.PLP.part.nonpolar>
-30.1465

> <Gold.PLP.part.repulsive>
1.4308

> <Gold.PLP.ligand.clash>
0.0000

> <Gold.PLP.ligand.torsion>
1.2069

> <Gold.PLP.Chemscore.Hbond>
2.9833

> <Gold.PLP.Chemscore.CHOScore>
0.0000

> <Gold.PLP.Chemscore.Metal>
0.0000

> <Gold.Chemscore.Hbonds>
donor molecule, donor type, donor heavy atom, donor atom, acceptor molecule, acceptor atom, score
      P1  H  6896  6909       L1    15  0.94
      P1  H  7989  7998       L1    11  1.00
      P1  H 10752 10764       L1    21  1.00

> <Gold.PLP.Chemscore.Internal.Correction>
0.0636

> <Gold.Rescore>
     Score         DG    S(hbond)    S(metal)    S(lipo)     H(rot)  DE(clash)    DE(int)     intcor
     17.85     -19.18       1.84        0.00     116.08       2.35       0.17       1.16       ----

> <Gold.Chemscore.Fitness>
17.8530

> <Gold.Chemscore.DG>
-19.1813

> <Gold.Chemscore.ZeroCoef>
-5.4800

> <Gold.Chemscore.Hbond>
1.8363

> <Gold.Chemscore.Metal>
0.0000

> <Gold.Chemscore.Lipo>
116.0811

> <Gold.Chemscore.Internal_Hbond>
0.0000

> <Gold.Chemscore.DEClash>
0.1655

> <Gold.Chemscore.DEInternal>
1.1628

> <Gold.Chemscore.Rot>
2.3490

> <Gold.Chemscore.Internal.Correction>
   9.000000E+99

> <Gold.Chemscore.Hbonds>
donor molecule, donor type, donor heavy atom, donor atom, acceptor molecule, acceptor atom, score
      P1  H  6896  6909       L1    15  0.23
      P1  H  7989  7998       L1    11  0.45
      P1  H 10752 10764       L1    21  0.78

> <Gold.Chemscore.Hbond.Weighted>
-6.1333

> <Gold.Chemscore.Metal.Weighted>
-0.0000

> <Gold.Chemscore.Lipo.Weighted>
-13.5815

> <Gold.Chemscore.Internal_Hbond.Weighted>
0.0000

> <Gold.Chemscore.DEClash.Weighted>
0.1655

> <Gold.Chemscore.DEInternal.Weighted>
1.1628

> <Gold.Chemscore.Rot.Weighted>
6.0136

> <Gold.Chemscore.Internal.Correction.Weighted>
   9.000000E+99

> <Gold.Protein.RotatedTorsions>
[ 6907 6896 6895 6894 ] final   51.39 input  -60.11 | X-H torsion
[ 7974 7965 7964 7962 ] final   48.66 input  175.53 | X-H torsion
[ 8008 7997 7996 7995 ] final   91.45 input   59.86 | X-H torsion
[ 10167 10162 10161 10158 ] final -174.69 input  -65.29 | X-H torsion
[ 10718 10713 10712 10709 ] final   67.97 input   66.30 | X-H torsion
[ 10763 10752 10751 10750 ] final  -80.85 input  -60.55 | X-H torsion
[ 11005 11000 10999 10996 ] final  123.52 input  -57.11 | X-H torsion

> <Gold.Protein.ActiveResidues>
 VAL166  LYS551  ARG553  GLY616  TRP617  ASP618  TYR619  PRO620  LYS621  CYS622 
 ASP623  PHE694  ASN695  SER759  ASP760  ASP761  ALA762  ILE779  LEU786  VAL792 
 PHE793  MET794  SER795  GLU796  ALA797  LYS798  CYS799  TRP800  GLU811  SER814 

> <Gold.Protein.RotatedAtoms>
  152.3121  134.7485  160.0333 H   0  0  0  0  0  0  0  0  0  0  0  0  # atno 6907 bound_to 6896
  151.7962  133.3359  159.3521 H   0  0  0  0  0  0  0  0  0  0  0  0  # atno 6908 bound_to 6896
  150.7325  134.5727  159.5943 H   0  0  0  0  0  0  0  0  0  0  0  0  # atno 6909 bound_to 6896
  146.0183  139.4621  142.9913 H   0  0  0  0  0  0  0  0  0  0  0  0  # atno 7974 bound_to 7965
  156.0239  140.3337  155.7068 H   0  0  0  0  0  0  0  0  0  0  0  0  # atno 8008 bound_to 7997
  155.5982  140.0653  157.2758 H   0  0  0  0  0  0  0  0  0  0  0  0  # atno 8009 bound_to 7997
  154.4326  140.1815  156.1134 H   0  0  0  0  0  0  0  0  0  0  0  0  # atno 8010 bound_to 7997
  139.5620  144.1846  152.1254 H   0  0  0  0  0  0  0  0  0  0  0  0  # atno 10167 bound_to 10162
  157.6262  130.9349  150.0314 H   0  0  0  0  0  0  0  0  0  0  0  0  # atno 10718 bound_to 10713
  154.5563  135.5646  153.6967 H   0  0  0  0  0  0  0  0  0  0  0  0  # atno 10763 bound_to 10752
  153.0004  135.6263  154.2305 H   0  0  0  0  0  0  0  0  0  0  0  0  # atno 10764 bound_to 10752
  154.2241  135.2868  155.2894 H   0  0  0  0  0  0  0  0  0  0  0  0  # atno 10765 bound_to 10752
  139.9316  134.9641  156.8272 H   0  0  0  0  0  0  0  0  0  0  0  0  # atno 11005 bound_to 11000
  145.7234  141.0067  143.1390 LP  0  0  0  0  0  0  0  0  0  0  0  0  # atno 17320 bound_to 7965
  144.6979  139.8897  143.7452 LP  0  0  0  0  0  0  0  0  0  0  0  0  # atno 17321 bound_to 7965
  140.1361  144.5244  150.6772 LP  0  0  0  0  0  0  0  0  0  0  0  0  # atno 17342 bound_to 10162
  140.6901  143.2371  151.5154 LP  0  0  0  0  0  0  0  0  0  0  0  0  # atno 17343 bound_to 10162
  156.1435  130.3642  149.9546 LP  0  0  0  0  0  0  0  0  0  0  0  0  # atno 17370 bound_to 10713
  156.7581  130.9140  151.3640 LP  0  0  0  0  0  0  0  0  0  0  0  0  # atno 17371 bound_to 10713
  140.6186  134.0015  155.7608 LP  0  0  0  0  0  0  0  0  0  0  0  0  # atno 17394 bound_to 11000
  141.0908  133.9919  157.3240 LP  0  0  0  0  0  0  0  0  0  0  0  0  # atno 17395 bound_to 11000

$$$$
