AV-unprocessed.smi:682|AV-procd|sdf|3326|dock10
  -GOLD-   22720 0293D 1   1.00000     0.00000
 Structure written by MMmdl.
 41 42  0  0  0  0  0  0  0  0  1 V2000
  150.6083  138.5978  154.6148 C   0  0  0  0  0  0  0  0  0  0  0  0
  149.5145  138.9777  153.7887 O   0  0  0  0  0  0  0  0  0  0  0  0
  148.6473  140.0116  154.2737 C   0  0  1  0  0  0  0  0  0  0  0  0
  149.4689  141.1364  154.9168 C   0  0  0  0  0  0  0  0  0  0  0  0
  147.5917  140.3645  153.2087 C   0  0  0  0  0  0  0  0  0  0  0  0
  146.6972  139.2571  153.7703 C   0  0  1  0  0  0  0  0  0  0  0  0
  146.8843  138.0037  153.0392 N   0  0  0  0  0  0  0  0  0  0  0  0
  145.8931  137.2550  152.5390 C   0  0  0  0  0  0  0  0  0  0  0  0
  144.7032  137.5611  152.6148 O   0  0  0  0  0  0  0  0  0  0  0  0
  146.3699  136.1377  151.9673 N   0  0  0  0  0  0  0  0  0  0  0  0
  145.6217  135.1008  151.3564 C   0  0  0  0  0  0  0  0  0  0  0  0
  144.5329  135.1920  150.4438 C   0  0  0  0  0  0  0  0  0  0  0  0
  144.0994  133.9882  150.1001 N   0  0  0  0  0  0  0  0  0  0  0  0
  144.8923  133.1219  150.7760 N   0  0  0  0  0  0  0  0  0  0  0  0
  144.6776  131.6987  150.6233 C   0  0  0  0  0  0  0  0  0  0  0  0
  145.8350  133.7691  151.5496 C   0  0  0  0  0  0  0  0  0  0  0  0
  147.4974  139.3458  155.0985 C   0  0  0  0  0  0  0  0  0  0  0  0
  147.8345  138.0408  155.8390 C   0  0  0  0  0  0  0  0  0  0  0  0
  146.8248  140.2422  156.1489 C   0  0  0  0  0  0  0  0  0  0  0  0
  151.2625  137.9324  154.0517 H   0  0  0  0  0  0  0  0  0  0  0  0
  150.2748  138.0499  155.4959 H   0  0  0  0  0  0  0  0  0  0  0  0
  151.2035  139.4512  154.9373 H   0  0  0  0  0  0  0  0  0  0  0  0
  148.8331  141.8898  155.3807 H   0  0  0  0  0  0  0  0  0  0  0  0
  150.0777  141.6668  154.1851 H   0  0  0  0  0  0  0  0  0  0  0  0
  150.1335  140.7494  155.6893 H   0  0  0  0  0  0  0  0  0  0  0  0
  147.1636  141.3568  153.3589 H   0  0  0  0  0  0  0  0  0  0  0  0
  147.8902  140.2295  152.1692 H   0  0  0  0  0  0  0  0  0  0  0  0
  145.6544  139.5673  153.8608 H   0  0  0  0  0  0  0  0  0  0  0  0
  147.8327  137.6719  152.9406 H   0  0  0  0  0  0  0  0  0  0  0  0
  147.3704  136.0061  151.9911 H   0  0  0  0  0  0  0  0  0  0  0  0
  144.0495  136.0619  150.0246 H   0  0  0  0  0  0  0  0  0  0  0  0
  145.3637  131.1452  151.2651 H   0  0  0  0  0  0  0  0  0  0  0  0
  144.8492  131.4088  149.5863 H   0  0  0  0  0  0  0  0  0  0  0  0
  143.6532  131.4479  150.9005 H   0  0  0  0  0  0  0  0  0  0  0  0
  146.5538  133.2384  152.1566 H   0  0  0  0  0  0  0  0  0  0  0  0
  146.9378  137.5688  156.2417 H   0  0  0  0  0  0  0  0  0  0  0  0
  148.5136  138.2211  156.6727 H   0  0  0  0  0  0  0  0  0  0  0  0
  148.3152  137.3028  155.1971 H   0  0  0  0  0  0  0  0  0  0  0  0
  145.9162  139.7834  156.5400 H   0  0  0  0  0  0  0  0  0  0  0  0
  146.5361  141.2091  155.7364 H   0  0  0  0  0  0  0  0  0  0  0  0
  147.4833  140.4354  156.9964 H   0  0  0  0  0  0  0  0  0  0  0  0
  1  2  1  0  0  0  0
  1 20  1  0  0  0  0
  1 21  1  0  0  0  0
  1 22  1  0  0  0  0
  2  3  1  0  0  0  0
  3 17  1  0  0  0  0
  3  4  1  0  0  0  0
  3  5  1  0  0  0  0
  4 23  1  0  0  0  0
  4 24  1  0  0  0  0
  4 25  1  0  0  0  0
  5  6  1  0  0  0  0
  5 26  1  0  0  0  0
  5 27  1  0  0  0  0
  6  7  1  0  0  0  0
  6 17  1  0  0  0  0
  6 28  1  0  0  0  0
  7  8  1  0  0  0  0
  7 29  1  0  0  0  0
  8  9  2  0  0  0  0
  8 10  1  0  0  0  0
 10 11  1  0  0  0  0
 10 30  1  0  0  0  0
 11 16  2  0  0  0  0
 11 12  1  0  0  0  0
 12 13  2  0  0  0  0
 12 31  1  0  0  0  0
 13 14  1  0  0  0  0
 14 15  1  0  0  0  0
 14 16  1  0  0  0  0
 15 32  1  0  0  0  0
 15 33  1  0  0  0  0
 15 34  1  0  0  0  0
 16 35  1  0  0  0  0
 17 18  1  0  0  0  0
 17 19  1  0  0  0  0
 18 36  1  0  0  0  0
 18 37  1  0  0  0  0
 18 38  1  0  0  0  0
 19 39  1  0  0  0  0
 19 40  1  0  0  0  0
 19 41  1  0  0  0  0
M  END
> <s_m_source_file>
AV-unprocessed.smi

> <i_m_source_file_index>
682

> <i_lp_mmshare_version>
43012

> <i_f3d_flags>
0

> <s_epik_input>
W0NIM11PW0NAQF0xKFtDSDNdKVtDSDJdW0NASF0oQzEoW0NIM10pW0NIM10pW05IXUMoPU8pW05IXWMyW2NIXW5uKFtDSDNdKVtjSF0y

> <s_epik_cmdline>
J2VwaWtfcHl0aG9uJywgJy1waCcsICc3LjAnLCAnLXRuJywgJzgnLCAnLW1hJywgJzIwMCcsICctbWV0YWxfYmluZGluZycsICctaW1hZScsICc8aW5maWxlLm1hZT4nLCAnLW9tYWUnLCAnPG91dGZpbGUubWFlPic=

> <r_lp_tautomer_probability>
1

> <r_epik_Ionization_Penalty>
0.000192302

> <r_epik_Ionization_Penalty_Charging>
0

> <r_epik_Ionization_Penalty_Neutral>
0.000192302

> <r_epik_State_Penalty>
-0

> <r_epik_Charging_Adjusted_Penalty>
0

> <i_epik_Tot_Q>
0

> <i_epik_Tot_abs_Q>
0

> <r_epik_Metal_State_Penalty>
-0

> <b_epik_Metal_Only>
0

> <s_lp_Force_Field>
OPLS_2005

> <r_lp_Energy>
26.143

> <b_lp_Chiralities_Consistent>
1

> <s_lp_Variant>
AV-unprocessed.smi:682-1

> <Gold.Version>
5.8.1

> <Gold.Id.Protein>
6NUR|6NUR_protein|mol2

> <Gold.PLP.Fitness>
33.9312

> <Gold.PLP.PLP>
-27.0632

> <Gold.PLP.part.hbond>
-2.0000

> <Gold.PLP.part.metal>
0.0000

> <Gold.PLP.part.buried>
-4.5705

> <Gold.PLP.part.nonpolar>
-24.0761

> <Gold.PLP.part.repulsive>
2.9597

> <Gold.PLP.ligand.clash>
0.0000

> <Gold.PLP.ligand.torsion>
0.7528

> <Gold.PLP.Chemscore.Hbond>
1.6630

> <Gold.PLP.Chemscore.CHOScore>
1.0000

> <Gold.PLP.Chemscore.Metal>
0.0000

> <Gold.Chemscore.Hbonds>
donor molecule, donor type, donor heavy atom, donor atom, acceptor molecule, acceptor atom, score
      L1  H     7    29       P1  7948  0.65
      L1  H    10    30       P1  7948  1.00
      L1  C    12    31       P1 10171  1.00

> <Gold.PLP.Chemscore.Internal.Correction>
0.3846

> <Gold.Rescore>
     Score         DG    S(hbond)    S(metal)    S(lipo)     H(rot)  DE(clash)    DE(int)     intcor
     14.40     -15.45       1.88        0.00      58.42       1.23       0.14       0.91       ----

> <Gold.Chemscore.Fitness>
14.3990

> <Gold.Chemscore.DG>
-15.4481

> <Gold.Chemscore.ZeroCoef>
-5.4800

> <Gold.Chemscore.Hbond>
1.8836

> <Gold.Chemscore.Metal>
0.0000

> <Gold.Chemscore.Lipo>
58.4189

> <Gold.Chemscore.Internal_Hbond>
0.0000

> <Gold.Chemscore.DEClash>
0.1438

> <Gold.Chemscore.DEInternal>
0.9053

> <Gold.Chemscore.Rot>
1.2336

> <Gold.Chemscore.Internal.Correction>
   9.000000E+99

> <Gold.Chemscore.Hbonds>
donor molecule, donor type, donor heavy atom, donor atom, acceptor molecule, acceptor atom, score
      L1  H     7    29       P1  7948  0.63
      L1  H    10    30       P1  7948  0.97

> <Gold.Chemscore.Hbond.Weighted>
-6.2911

> <Gold.Chemscore.Metal.Weighted>
-0.0000

> <Gold.Chemscore.Lipo.Weighted>
-6.8350

> <Gold.Chemscore.Internal_Hbond.Weighted>
0.0000

> <Gold.Chemscore.DEClash.Weighted>
0.1438

> <Gold.Chemscore.DEInternal.Weighted>
0.9053

> <Gold.Chemscore.Rot.Weighted>
3.1581

> <Gold.Chemscore.Internal.Correction.Weighted>
   9.000000E+99

> <Gold.Protein.RotatedTorsions>
[ 6907 6896 6895 6894 ] final -172.81 input  -60.11 | X-H torsion
[ 7974 7965 7964 7962 ] final  113.64 input  175.53 | X-H torsion
[ 8008 7997 7996 7995 ] final   75.79 input   59.86 | X-H torsion
[ 10167 10162 10161 10158 ] final -132.60 input  -65.29 | X-H torsion
[ 10718 10713 10712 10709 ] final   -9.56 input   66.30 | X-H torsion
[ 10763 10752 10751 10750 ] final    4.25 input  -60.55 | X-H torsion
[ 11005 11000 10999 10996 ] final -113.10 input  -57.11 | X-H torsion

> <Gold.Protein.ActiveResidues>
 VAL166  LYS551  ARG553  GLY616  TRP617  ASP618  TYR619  PRO620  LYS621  CYS622 
 ASP623  PHE694  ASN695  SER759  ASP760  ASP761  ALA762  ILE779  LEU786  VAL792 
 PHE793  MET794  SER795  GLU796  ALA797  LYS798  CYS799  TRP800  GLU811  SER814 

> <Gold.Protein.RotatedAtoms>
  151.5460  133.3425  159.2943 H   0  0  0  0  0  0  0  0  0  0  0  0  # atno 6907 bound_to 6896
  150.8507  134.7833  159.7017 H   0  0  0  0  0  0  0  0  0  0  0  0  # atno 6908 bound_to 6896
  152.4554  134.5311  159.9863 H   0  0  0  0  0  0  0  0  0  0  0  0  # atno 6909 bound_to 6896
  145.2144  139.2891  143.4251 H   0  0  0  0  0  0  0  0  0  0  0  0  # atno 7974 bound_to 7965
  155.8179  140.3471  155.5497 H   0  0  0  0  0  0  0  0  0  0  0  0  # atno 8008 bound_to 7997
  155.8372  140.0936  157.1776 H   0  0  0  0  0  0  0  0  0  0  0  0  # atno 8009 bound_to 7997
  154.4004  140.1401  156.3673 H   0  0  0  0  0  0  0  0  0  0  0  0  # atno 8010 bound_to 7997
  139.9068  143.6541  152.2583 H   0  0  0  0  0  0  0  0  0  0  0  0  # atno 10167 bound_to 10162
  156.6863  130.5052  149.5956 H   0  0  0  0  0  0  0  0  0  0  0  0  # atno 10718 bound_to 10713
  153.2735  135.6934  153.7456 H   0  0  0  0  0  0  0  0  0  0  0  0  # atno 10763 bound_to 10752
  153.6470  135.3383  155.3089 H   0  0  0  0  0  0  0  0  0  0  0  0  # atno 10764 bound_to 10752
  154.8472  135.4445  154.1766 H   0  0  0  0  0  0  0  0  0  0  0  0  # atno 10765 bound_to 10752
  141.0635  133.9497  157.2623 H   0  0  0  0  0  0  0  0  0  0  0  0  # atno 11005 bound_to 11000
  146.3390  140.2430  142.8596 LP  0  0  0  0  0  0  0  0  0  0  0  0  # atno 17320 bound_to 7965
  144.9825  140.8472  143.5388 LP  0  0  0  0  0  0  0  0  0  0  0  0  # atno 17321 bound_to 7965
  139.6977  144.7639  151.1328 LP  0  0  0  0  0  0  0  0  0  0  0  0  # atno 17342 bound_to 10162
  140.7694  143.5501  150.9214 LP  0  0  0  0  0  0  0  0  0  0  0  0  # atno 17343 bound_to 10162
  156.1830  130.6511  151.0974 LP  0  0  0  0  0  0  0  0  0  0  0  0  # atno 17370 bound_to 10713
  157.7025  131.0770  150.6774 LP  0  0  0  0  0  0  0  0  0  0  0  0  # atno 17371 bound_to 10713
  139.9454  135.0185  156.8837 LP  0  0  0  0  0  0  0  0  0  0  0  0  # atno 17394 bound_to 11000
  140.5821  134.0342  155.7468 LP  0  0  0  0  0  0  0  0  0  0  0  0  # atno 17395 bound_to 11000

$$$$
