AV-unprocessed.smi:2183|AV-procd|sdf|8865|dock3
  -GOLD-   2272012 63D 1   1.00000     0.00000
 Structure written by MMmdl.
 40 42  0  0  0  0  0  0  0  0  1 V2000
  153.1207  139.3302  154.7598 O   0  0  0  0  0  0  0  0  0  0  0  0
  151.8445  139.4738  155.3442 C   0  0  0  0  0  0  0  0  0  0  0  0
  151.8397  140.4142  156.5110 C   0  0  0  0  0  0  0  0  0  0  0  0
  152.6018  140.1983  157.5839 N   0  0  0  0  0  0  0  0  0  0  0  0
  152.3154  141.2851  158.3860 C   0  0  0  0  0  0  0  0  0  0  0  0
  152.8091  141.6401  159.6618 C   0  0  0  0  0  0  0  0  0  0  0  0
  152.3698  142.8223  160.2934 C   0  0  0  0  0  0  0  0  0  0  0  0
  151.4335  143.6644  159.6594 C   0  0  0  0  0  0  0  0  0  0  0  0
  150.9279  143.3280  158.3889 C   0  0  0  0  0  0  0  0  0  0  0  0
  151.3673  142.1453  157.7639 C   0  0  0  0  0  0  0  0  0  0  0  0
  151.0726  141.5349  156.5483 N   0  0  0  0  0  0  0  0  0  0  0  0
  150.1436  142.0422  155.5454 C   0  0  0  0  0  0  0  0  0  0  0  0
  149.2546  140.9361  154.9408 C   0  0  2  0  0  0  0  0  0  0  0  0
  149.5253  140.7989  153.5607 O   0  0  0  0  0  0  0  0  0  0  0  0
  147.7578  141.2299  155.1152 C   0  0  0  0  0  0  0  0  0  0  0  0
  147.3876  142.2674  154.2170 O   0  0  0  0  0  0  0  0  0  0  0  0
  146.1885  142.9138  154.4238 C   0  0  0  0  0  0  0  0  0  0  0  0
  145.8505  143.9380  153.5153 C   0  0  0  0  0  0  0  0  0  0  0  0
  144.6452  144.6532  153.6504 C   0  0  0  0  0  0  0  0  0  0  0  0
  143.7611  144.3482  154.7019 C   0  0  0  0  0  0  0  0  0  0  0  0
  142.2832  145.2222  154.8704 Cl  0  0  0  0  0  0  0  0  0  0  0  0
  144.0855  143.3284  155.6160 C   0  0  0  0  0  0  0  0  0  0  0  0
  145.2914  142.6133  155.4803 C   0  0  0  0  0  0  0  0  0  0  0  0
  153.4254  140.1830  154.4907 H   0  0  0  0  0  0  0  0  0  0  0  0
  151.1574  139.8433  154.5822 H   0  0  0  0  0  0  0  0  0  0  0  0
  151.4668  138.4987  155.6520 H   0  0  0  0  0  0  0  0  0  0  0  0
  153.5284  141.0031  160.1544 H   0  0  0  0  0  0  0  0  0  0  0  0
  152.7541  143.0846  161.2681 H   0  0  0  0  0  0  0  0  0  0  0  0
  151.1038  144.5690  160.1488 H   0  0  0  0  0  0  0  0  0  0  0  0
  150.2115  143.9719  157.9008 H   0  0  0  0  0  0  0  0  0  0  0  0
  149.5213  142.7985  156.0250 H   0  0  0  0  0  0  0  0  0  0  0  0
  150.6888  142.5581  154.7564 H   0  0  0  0  0  0  0  0  0  0  0  0
  149.4813  139.9793  155.4117 H   0  0  0  0  0  0  0  0  0  0  0  0
  148.7611  140.4348  153.1400 H   0  0  0  0  0  0  0  0  0  0  0  0
  147.1749  140.3267  154.9271 H   0  0  0  0  0  0  0  0  0  0  0  0
  147.5633  141.5526  156.1397 H   0  0  0  0  0  0  0  0  0  0  0  0
  146.5236  144.1782  152.7052 H   0  0  0  0  0  0  0  0  0  0  0  0
  144.4015  145.4351  152.9462 H   0  0  0  0  0  0  0  0  0  0  0  0
  143.4090  143.0921  156.4242 H   0  0  0  0  0  0  0  0  0  0  0  0
  145.5052  141.8388  156.2009 H   0  0  0  0  0  0  0  0  0  0  0  0
  1  2  1  0  0  0  0
  1 24  1  0  0  0  0
  2  3  1  0  0  0  0
  2 25  1  0  0  0  0
  2 26  1  0  0  0  0
  3 11  1  0  0  0  0
  3  4  2  0  0  0  0
  4  5  1  0  0  0  0
  5 10  2  0  0  0  0
  5  6  1  0  0  0  0
  6  7  2  0  0  0  0
  6 27  1  0  0  0  0
  7  8  1  0  0  0  0
  7 28  1  0  0  0  0
  8  9  2  0  0  0  0
  8 29  1  0  0  0  0
  9 10  1  0  0  0  0
  9 30  1  0  0  0  0
 10 11  1  0  0  0  0
 11 12  1  0  0  0  0
 12 13  1  0  0  0  0
 12 31  1  0  0  0  0
 12 32  1  0  0  0  0
 13 14  1  0  0  0  0
 13 15  1  0  0  0  0
 13 33  1  0  0  0  0
 14 34  1  0  0  0  0
 15 16  1  0  0  0  0
 15 35  1  0  0  0  0
 15 36  1  0  0  0  0
 16 17  1  0  0  0  0
 17 23  1  0  0  0  0
 17 18  2  0  0  0  0
 18 19  1  0  0  0  0
 18 37  1  0  0  0  0
 19 20  2  0  0  0  0
 19 38  1  0  0  0  0
 20 21  1  0  0  0  0
 20 22  1  0  0  0  0
 22 23  2  0  0  0  0
 22 39  1  0  0  0  0
 23 40  1  0  0  0  0
M  END
> <s_m_source_file>
AV-unprocessed.smi

> <i_m_source_file_index>
2183

> <i_lp_mmshare_version>
43012

> <i_f3d_flags>
0

> <s_epik_input>
W2NIXTFbY0hdW2NIXVtjSF1jKGMxMiluKGMobjIpW0NIMl1bT0hdKVtDSDJdW0NASF0oW09IXSlbQ0gyXU9jM1tjSF1bY0hdYyhDbClbY0hdW2NIXTM=

> <s_epik_cmdline>
J2VwaWtfcHl0aG9uJywgJy1waCcsICc3LjAnLCAnLXRuJywgJzgnLCAnLW1hJywgJzIwMCcsICctbWV0YWxfYmluZGluZycsICctaW1hZScsICc8aW5maWxlLm1hZT4nLCAnLW9tYWUnLCAnPG91dGZpbGUubWFlPic=

> <r_lp_tautomer_probability>
1

> <r_epik_Ionization_Penalty>
0.0586933

> <r_epik_Ionization_Penalty_Charging>
0

> <r_epik_Ionization_Penalty_Neutral>
0.0586933

> <r_epik_State_Penalty>
0.0507031

> <r_epik_Charging_Adjusted_Penalty>
0.0507031

> <i_epik_Tot_Q>
0

> <i_epik_Tot_abs_Q>
0

> <r_epik_Metal_State_Penalty>
5.29335e-05

> <b_epik_Metal_Only>
0

> <s_lp_Force_Field>
OPLS_2005

> <r_lp_Energy>
13.44

> <b_lp_Chiralities_Consistent>
1

> <s_lp_Variant>
AV-unprocessed.smi:2183-1

> <Gold.Version>
5.8.1

> <Gold.Id.Protein>
6NUR|6NUR_protein|mol2

> <Gold.PLP.Fitness>
54.0873

> <Gold.PLP.PLP>
-49.2558

> <Gold.PLP.part.hbond>
-5.7648

> <Gold.PLP.part.metal>
0.0000

> <Gold.PLP.part.buried>
-4.2771

> <Gold.PLP.part.nonpolar>
-38.3890

> <Gold.PLP.part.repulsive>
0.1666

> <Gold.PLP.ligand.clash>
0.0000

> <Gold.PLP.ligand.torsion>
1.1101

> <Gold.PLP.Chemscore.Hbond>
2.2917

> <Gold.PLP.Chemscore.CHOScore>
0.0000

> <Gold.PLP.Chemscore.Metal>
0.0000

> <Gold.Chemscore.Hbonds>
donor molecule, donor type, donor heavy atom, donor atom, acceptor molecule, acceptor atom, score
      P1  H  7989  7998       L1    14  0.33
      P1  H  7997  8010       L1     4  1.00
      P1  H  8011  8017       L1    14  0.86

> <Gold.PLP.Chemscore.Internal.Correction>
0.1766

> <Gold.Rescore>
     Score         DG    S(hbond)    S(metal)    S(lipo)     H(rot)  DE(clash)    DE(int)     intcor
     12.72     -14.85       0.92        0.00     120.15       3.04       0.11       2.02       ----

> <Gold.Chemscore.Fitness>
12.7226

> <Gold.Chemscore.DG>
-14.8477

> <Gold.Chemscore.ZeroCoef>
-5.4800

> <Gold.Chemscore.Hbond>
0.9226

> <Gold.Chemscore.Metal>
0.0000

> <Gold.Chemscore.Lipo>
120.1513

> <Gold.Chemscore.Internal_Hbond>
0.0000

> <Gold.Chemscore.DEClash>
0.1075

> <Gold.Chemscore.DEInternal>
2.0175

> <Gold.Chemscore.Rot>
3.0358

> <Gold.Chemscore.Internal.Correction>
   9.000000E+99

> <Gold.Chemscore.Hbonds>
donor molecule, donor type, donor heavy atom, donor atom, acceptor molecule, acceptor atom, score
      L1  H    14    34       P1  7957  0.03
      P1  H  7989  7998       L1    14  0.14
      P1  H  7997  8010       L1     4  0.31
      P1  H  8011  8017       L1    14  0.16

> <Gold.Chemscore.Hbond.Weighted>
-3.0816

> <Gold.Chemscore.Metal.Weighted>
-0.0000

> <Gold.Chemscore.Lipo.Weighted>
-14.0577

> <Gold.Chemscore.Internal_Hbond.Weighted>
0.0000

> <Gold.Chemscore.DEClash.Weighted>
0.1075

> <Gold.Chemscore.DEInternal.Weighted>
2.0175

> <Gold.Chemscore.Rot.Weighted>
7.7716

> <Gold.Chemscore.Internal.Correction.Weighted>
   9.000000E+99

> <Gold.Protein.RotatedTorsions>
[ 6907 6896 6895 6894 ] final   17.31 input  -60.11 | X-H torsion
[ 7974 7965 7964 7962 ] final  -69.51 input  175.53 | X-H torsion
[ 8008 7997 7996 7995 ] final   52.36 input   59.86 | X-H torsion
[ 10167 10162 10161 10158 ] final  165.30 input  -65.29 | X-H torsion
[ 10718 10713 10712 10709 ] final   12.40 input   66.30 | X-H torsion
[ 10763 10752 10751 10750 ] final    5.17 input  -60.55 | X-H torsion
[ 11005 11000 10999 10996 ] final -154.68 input  -57.11 | X-H torsion

> <Gold.Protein.ActiveResidues>
 VAL166  LYS551  ARG553  GLY616  TRP617  ASP618  TYR619  PRO620  LYS621  CYS622 
 ASP623  PHE694  ASN695  SER759  ASP760  ASP761  ALA762  ILE779  LEU786  VAL792 
 PHE793  MET794  SER795  GLU796  ALA797  LYS798  CYS799  TRP800  GLU811  SER814 

> <Gold.Protein.RotatedAtoms>
  151.8476  135.0569  160.0454 H   0  0  0  0  0  0  0  0  0  0  0  0  # atno 6907 bound_to 6896
  152.2761  133.5423  159.5477 H   0  0  0  0  0  0  0  0  0  0  0  0  # atno 6908 bound_to 6896
  150.7171  134.0545  159.3852 H   0  0  0  0  0  0  0  0  0  0  0  0  # atno 6909 bound_to 6896
  145.7028  140.9110  143.0722 H   0  0  0  0  0  0  0  0  0  0  0  0  # atno 7974 bound_to 7965
  155.4506  140.3458  155.4300 H   0  0  0  0  0  0  0  0  0  0  0  0  # atno 8008 bound_to 7997
  156.1223  140.1490  156.9217 H   0  0  0  0  0  0  0  0  0  0  0  0  # atno 8009 bound_to 7997
  154.4832  140.0863  156.7405 H   0  0  0  0  0  0  0  0  0  0  0  0  # atno 8010 bound_to 7997
  139.4903  144.4146  151.9259 H   0  0  0  0  0  0  0  0  0  0  0  0  # atno 10167 bound_to 10162
  157.0096  130.6112  149.5706 H   0  0  0  0  0  0  0  0  0  0  0  0  # atno 10718 bound_to 10713
  153.2625  135.6924  153.7564 H   0  0  0  0  0  0  0  0  0  0  0  0  # atno 10763 bound_to 10752
  153.6617  135.3359  155.3130 H   0  0  0  0  0  0  0  0  0  0  0  0  # atno 10764 bound_to 10752
  154.8435  135.4479  154.1620 H   0  0  0  0  0  0  0  0  0  0  0  0  # atno 10765 bound_to 10752
  140.6947  134.4003  157.5216 H   0  0  0  0  0  0  0  0  0  0  0  0  # atno 11005 bound_to 11000
  144.6964  139.8970  143.7456 LP  0  0  0  0  0  0  0  0  0  0  0  0  # atno 17320 bound_to 7965
  146.0782  139.3770  143.0480 LP  0  0  0  0  0  0  0  0  0  0  0  0  # atno 17321 bound_to 7965
  140.3588  144.2998  150.5937 LP  0  0  0  0  0  0  0  0  0  0  0  0  # atno 17342 bound_to 10162
  140.5421  143.2221  151.8068 LP  0  0  0  0  0  0  0  0  0  0  0  0  # atno 17343 bound_to 10162
  156.0141  130.5234  150.8080 LP  0  0  0  0  0  0  0  0  0  0  0  0  # atno 17370 bound_to 10713
  157.5330  131.0937  150.9929 LP  0  0  0  0  0  0  0  0  0  0  0  0  # atno 17371 bound_to 10713
  139.8913  134.8782  156.2325 LP  0  0  0  0  0  0  0  0  0  0  0  0  # atno 17394 bound_to 11000
  141.0213  133.7040  156.1272 LP  0  0  0  0  0  0  0  0  0  0  0  0  # atno 17395 bound_to 11000

$$$$
