AV-unprocessed.smi:1089|AV-procd|sdf|4734|dock7
  -GOLD-   22720 3273D 1   1.00000     0.00000
 Structure written by MMmdl.
 18 19  0  0  0  0  0  0  0  0  2 V2000
  145.9479  132.5472  153.8656 C   0  0  0  0  0  0  0  0  0  0  0  0
  146.5754  131.4505  153.3461 N   0  0  0  0  0  0  0  0  0  0  0  0
  146.4219  131.6984  152.0531 C   0  0  0  0  0  0  0  0  0  0  0  0
  145.7666  132.8321  151.7952 N   0  0  0  0  0  0  0  0  0  0  0  0
  145.4068  133.4386  150.5462 C   0  0  0  0  0  0  0  0  0  0  0  0
  144.5933  134.7316  150.5030 C   0  0  0  0  0  0  0  0  0  0  0  0
  143.9709  134.2283  149.2845 N   0  3  0  0  0  0  0  0  0  0  0  0
  144.2845  132.8618  149.6840 C   0  0  0  0  0  0  0  0  0  0  0  0
  145.4454  133.4066  152.9787 N   0  0  0  0  0  0  0  0  0  0  0  0
  145.8586  132.7174  154.9284 H   0  0  0  0  0  0  0  0  0  0  0  0
  146.7943  131.0409  151.2814 H   0  0  0  0  0  0  0  0  0  0  0  0
  146.3262  133.5415  149.9647 H   0  0  0  0  0  0  0  0  0  0  0  0
  143.8734  134.8313  151.3177 H   0  0  0  0  0  0  0  0  0  0  0  0
  145.1796  135.6396  150.3603 H   0  0  0  0  0  0  0  0  0  0  0  0
  142.9813  134.4202  149.2196 H   0  0  0  0  0  0  0  0  0  0  0  0
  144.6156  132.2239  148.8641 H   0  0  0  0  0  0  0  0  0  0  0  0
  143.4732  132.4076  150.2561 H   0  0  0  0  0  0  0  0  0  0  0  0
  144.4908  134.5022  148.4632 H   0  0  0  0  0  0  0  0  0  0  0  0
  1  9  2  0  0  0  0
  1  2  1  0  0  0  0
  1 10  1  0  0  0  0
  2  3  2  0  0  0  0
  3  4  1  0  0  0  0
  3 11  1  0  0  0  0
  4  5  1  0  0  0  0
  4  9  1  0  0  0  0
  5  8  1  0  0  0  0
  5  6  1  0  0  0  0
  5 12  1  0  0  0  0
  6  7  1  0  0  0  0
  6 13  1  0  0  0  0
  6 14  1  0  0  0  0
  7  8  1  0  0  0  0
  7 15  1  0  0  0  0
  7 18  1  0  0  0  0
  8 16  1  0  0  0  0
  8 17  1  0  0  0  0
M  CHG  1   7   1
M  END
> <s_m_source_file>
AV-unprocessed.smi

> <i_m_source_file_index>
1089

> <i_lp_mmshare_version>
43012

> <i_f3d_flags>
0

> <s_epik_input>
bjFbY0hdbltjSF1uMVtDSF0yW0NIMl1bTkhdW0NIMl0y

> <s_epik_cmdline>
J2VwaWtfcHl0aG9uJywgJy1waCcsICc3LjAnLCAnLXRuJywgJzgnLCAnLW1hJywgJzIwMCcsICctbWV0YWxfYmluZGluZycsICctaW1hZScsICc8aW5maWxlLm1hZT4nLCAnLW9tYWUnLCAnPG91dGZpbGUubWFlPic=

> <r_lp_tautomer_probability>
1

> <r_epik_Ionization_Penalty>
0.0079223

> <r_epik_Ionization_Penalty_Charging>
0.00792139

> <r_epik_Ionization_Penalty_Neutral>
9.13162e-07

> <r_epik_State_Penalty>
0.00594323

> <r_epik_Charging_Adjusted_Penalty>
0.0138646

> <i_epik_Tot_Q>
1

> <i_epik_Tot_abs_Q>
1

> <r_epik_Metal_State_Penalty>
-0

> <b_epik_Metal_Only>
0

> <s_lp_Force_Field>
OPLS_2005

> <r_lp_Energy>
16.5639

> <b_lp_Chiralities_Consistent>
1

> <s_lp_Variant>
AV-unprocessed.smi:1089-1

> <Gold.Version>
5.8.1

> <Gold.Id.Protein>
6NUR|6NUR_protein|mol2

> <Gold.PLP.Fitness>
27.1265

> <Gold.PLP.PLP>
-15.2051

> <Gold.PLP.part.hbond>
-2.0000

> <Gold.PLP.part.metal>
0.0000

> <Gold.PLP.part.buried>
-2.2780

> <Gold.PLP.part.nonpolar>
-10.8455

> <Gold.PLP.part.repulsive>
0.3558

> <Gold.PLP.ligand.clash>
0.0000

> <Gold.PLP.ligand.torsion>
0.1622

> <Gold.PLP.Chemscore.Hbond>
3.0000

> <Gold.PLP.Chemscore.CHOScore>
1.0000

> <Gold.PLP.Chemscore.Metal>
0.0000

> <Gold.Chemscore.Hbonds>
donor molecule, donor type, donor heavy atom, donor atom, acceptor molecule, acceptor atom, score
      L1  H     7    15       P1 10186  2.00
      L1  H     7    18       P1  7921  1.00
      L1  C     3    11       P1 10747  1.00

> <Gold.PLP.Chemscore.Internal.Correction>
0.2457

> <Gold.Rescore>
     Score         DG    S(hbond)    S(metal)    S(lipo)     H(rot)  DE(clash)    DE(int)     intcor
     12.13     -12.26       1.94        0.00      24.58       1.00       0.01       0.12       ----

> <Gold.Chemscore.Fitness>
12.1314

> <Gold.Chemscore.DG>
-12.2649

> <Gold.Chemscore.ZeroCoef>
-5.4800

> <Gold.Chemscore.Hbond>
1.9367

> <Gold.Chemscore.Metal>
0.0000

> <Gold.Chemscore.Lipo>
24.5833

> <Gold.Chemscore.Internal_Hbond>
0.0000

> <Gold.Chemscore.DEClash>
0.0106

> <Gold.Chemscore.DEInternal>
0.1229

> <Gold.Chemscore.Rot>
1.0000

> <Gold.Chemscore.Internal.Correction>
   9.000000E+99

> <Gold.Chemscore.Hbonds>
donor molecule, donor type, donor heavy atom, donor atom, acceptor molecule, acceptor atom, score
      L1  H     7    15       P1 10186  0.97
      L1  H     7    18       P1  7921  0.94

> <Gold.Chemscore.Hbond.Weighted>
-6.4687

> <Gold.Chemscore.Metal.Weighted>
-0.0000

> <Gold.Chemscore.Lipo.Weighted>
-2.8762

> <Gold.Chemscore.Internal_Hbond.Weighted>
0.0000

> <Gold.Chemscore.DEClash.Weighted>
0.0106

> <Gold.Chemscore.DEInternal.Weighted>
0.1229

> <Gold.Chemscore.Rot.Weighted>
2.5600

> <Gold.Chemscore.Internal.Correction.Weighted>
   9.000000E+99

> <Gold.Protein.RotatedTorsions>
[ 6907 6896 6895 6894 ] final   24.62 input  -60.11 | X-H torsion
[ 7974 7965 7964 7962 ] final  124.57 input  175.53 | X-H torsion
[ 8008 7997 7996 7995 ] final   76.76 input   59.86 | X-H torsion
[ 10167 10162 10161 10158 ] final -118.41 input  -65.29 | X-H torsion
[ 10718 10713 10712 10709 ] final  -72.31 input   66.30 | X-H torsion
[ 10763 10752 10751 10750 ] final  110.34 input  -60.55 | X-H torsion
[ 11005 11000 10999 10996 ] final -168.78 input  -57.11 | X-H torsion

> <Gold.Protein.ActiveResidues>
 VAL166  LYS551  ARG553  GLY616  TRP617  ASP618  TYR619  PRO620  LYS621  CYS622 
 ASP623  PHE694  ASN695  SER759  ASP760  ASP761  ALA762  ILE779  LEU786  VAL792 
 PHE793  MET794  SER795  GLU796  ALA797  LYS798  CYS799  TRP800  GLU811  SER814 

> <Gold.Protein.RotatedAtoms>
  151.9603  135.0127  160.0546 H   0  0  0  0  0  0  0  0  0  0  0  0  # atno 6907 bound_to 6896
  152.1874  133.4745  159.4998 H   0  0  0  0  0  0  0  0  0  0  0  0  # atno 6908 bound_to 6896
  150.6928  134.1673  159.4242 H   0  0  0  0  0  0  0  0  0  0  0  0  # atno 6909 bound_to 6896
  145.0829  139.3644  143.4900 H   0  0  0  0  0  0  0  0  0  0  0  0  # atno 7974 bound_to 7965
  155.8320  140.3466  155.5578 H   0  0  0  0  0  0  0  0  0  0  0  0  # atno 8008 bound_to 7997
  155.8232  140.0916  157.1856 H   0  0  0  0  0  0  0  0  0  0  0  0  # atno 8009 bound_to 7997
  154.4004  140.1426  156.3512 H   0  0  0  0  0  0  0  0  0  0  0  0  # atno 8010 bound_to 7997
  140.0578  143.4997  152.2048 H   0  0  0  0  0  0  0  0  0  0  0  0  # atno 10167 bound_to 10162
  156.0325  130.4369  150.2574 H   0  0  0  0  0  0  0  0  0  0  0  0  # atno 10718 bound_to 10713
  153.4475  135.3751  155.2264 H   0  0  0  0  0  0  0  0  0  0  0  0  # atno 10763 bound_to 10752
  154.8755  135.3878  154.4078 H   0  0  0  0  0  0  0  0  0  0  0  0  # atno 10764 bound_to 10752
  153.4632  135.7087  153.6101 H   0  0  0  0  0  0  0  0  0  0  0  0  # atno 10765 bound_to 10752
  140.5382  134.5549  157.5093 H   0  0  0  0  0  0  0  0  0  0  0  0  # atno 11005 bound_to 11000
  146.3531  140.0627  142.8628 LP  0  0  0  0  0  0  0  0  0  0  0  0  # atno 17320 bound_to 7965
  145.1157  140.9432  143.4630 LP  0  0  0  0  0  0  0  0  0  0  0  0  # atno 17321 bound_to 7965
  139.5912  144.7551  151.3395 LP  0  0  0  0  0  0  0  0  0  0  0  0  # atno 17342 bound_to 10162
  140.7186  143.7198  150.7705 LP  0  0  0  0  0  0  0  0  0  0  0  0  # atno 17343 bound_to 10162
  157.0675  131.0107  151.3201 LP  0  0  0  0  0  0  0  0  0  0  0  0  # atno 17370 bound_to 10713
  157.5024  130.7888  149.7618 LP  0  0  0  0  0  0  0  0  0  0  0  0  # atno 17371 bound_to 10713
  139.9518  134.7604  156.0431 LP  0  0  0  0  0  0  0  0  0  0  0  0  # atno 17394 bound_to 11000
  141.1242  133.6604  156.3294 LP  0  0  0  0  0  0  0  0  0  0  0  0  # atno 17395 bound_to 11000

$$$$
