AV-unprocessed.smi:2095|AV-procd|sdf|8555|dock4
  -GOLD-   2272011283D 1   1.00000     0.00000
 Structure written by MMmdl.
 42 43  0  0  0  0  0  0  0  0  2 V2000
  146.5580  134.1951  151.4536 C   0  0  0  0  0  0  0  0  0  0  0  0
  145.5529  134.6644  152.5202 C   0  0  1  0  0  0  0  0  0  0  0  0
  145.9420  134.2168  153.9426 C   0  0  0  0  0  0  0  0  0  0  0  0
  147.1181  135.0404  154.4889 C   0  0  0  0  0  0  0  0  0  0  0  0
  146.8241  136.5457  154.3968 C   0  0  0  0  0  0  0  0  0  0  0  0
  146.5054  136.9313  152.9954 N   0  3  2  0  0  0  0  0  0  0  0  0
  146.4581  138.3986  152.7273 C   0  0  2  0  0  0  0  0  0  0  0  0
  146.4470  138.6683  151.2095 C   0  0  0  0  0  0  0  0  0  0  0  0
  147.5503  139.1934  153.4890 C   0  0  0  0  0  0  0  0  0  0  0  0
  148.8614  138.5626  153.3716 N   0  0  0  0  0  0  0  0  0  0  0  0
  150.0132  139.0678  153.8429 C   0  0  0  0  0  0  0  0  0  0  0  0
  150.1041  140.1751  154.3716 O   0  0  0  0  0  0  0  0  0  0  0  0
  151.2459  138.1710  153.7317 C   0  0  0  0  0  0  0  0  0  0  0  0
  152.0424  138.2482  154.9422 N   0  0  0  0  0  0  0  0  0  0  0  0
  152.5970  139.2918  155.5622 C   0  0  0  0  0  0  0  0  0  0  0  0
  153.2798  138.9183  156.6332 N   0  0  0  0  0  0  0  0  0  0  0  0
  153.1118  137.5440  156.6500 N   0  0  0  0  0  0  0  0  0  0  0  0
  152.3790  137.1402  155.6489 N   0  0  0  0  0  0  0  0  0  0  0  0
  145.3255  136.1900  152.4743 C   0  0  0  0  0  0  0  0  0  0  0  0
  147.5422  134.6416  151.5949 H   0  0  0  0  0  0  0  0  0  0  0  0
  146.2176  134.4612  150.4524 H   0  0  0  0  0  0  0  0  0  0  0  0
  146.6786  133.1117  151.4797 H   0  0  0  0  0  0  0  0  0  0  0  0
  144.6035  134.1851  152.2780 H   0  0  0  0  0  0  0  0  0  0  0  0
  145.0838  134.3420  154.6043 H   0  0  0  0  0  0  0  0  0  0  0  0
  146.1846  133.1536  153.9575 H   0  0  0  0  0  0  0  0  0  0  0  0
  147.3137  134.7632  155.5251 H   0  0  0  0  0  0  0  0  0  0  0  0
  148.0277  134.8076  153.9345 H   0  0  0  0  0  0  0  0  0  0  0  0
  145.9891  136.7926  155.0534 H   0  0  0  0  0  0  0  0  0  0  0  0
  147.6895  137.0990  154.7597 H   0  0  0  0  0  0  0  0  0  0  0  0
  145.4901  138.7485  153.0892 H   0  0  0  0  0  0  0  0  0  0  0  0
  146.1813  139.7031  150.9911 H   0  0  0  0  0  0  0  0  0  0  0  0
  145.7130  138.0401  150.7041 H   0  0  0  0  0  0  0  0  0  0  0  0
  147.4192  138.4803  150.7544 H   0  0  0  0  0  0  0  0  0  0  0  0
  147.6396  140.1995  153.0801 H   0  0  0  0  0  0  0  0  0  0  0  0
  147.2855  139.3153  154.5400 H   0  0  0  0  0  0  0  0  0  0  0  0
  148.8885  137.6486  152.9428 H   0  0  0  0  0  0  0  0  0  0  0  0
  150.9445  137.1355  153.5678 H   0  0  0  0  0  0  0  0  0  0  0  0
  151.8580  138.4706  152.8796 H   0  0  0  0  0  0  0  0  0  0  0  0
  152.5112  140.3144  155.2252 H   0  0  0  0  0  0  0  0  0  0  0  0
  145.1094  136.4943  151.4495 H   0  0  0  0  0  0  0  0  0  0  0  0
  144.4464  136.4458  153.0672 H   0  0  0  0  0  0  0  0  0  0  0  0
  147.2821  136.5981  152.4421 H   0  0  0  0  0  0  0  0  0  0  0  0
  1  2  1  0  0  0  0
  1 20  1  0  0  0  0
  1 21  1  0  0  0  0
  1 22  1  0  0  0  0
  2 19  1  0  0  0  0
  2  3  1  0  0  0  0
  2 23  1  0  0  0  0
  3  4  1  0  0  0  0
  3 24  1  0  0  0  0
  3 25  1  0  0  0  0
  4  5  1  0  0  0  0
  4 26  1  0  0  0  0
  4 27  1  0  0  0  0
  5  6  1  0  0  0  0
  5 28  1  0  0  0  0
  5 29  1  0  0  0  0
  6  7  1  0  0  0  0
  6 19  1  0  0  0  0
  6 42  1  0  0  0  0
  7  8  1  0  0  0  0
  7  9  1  0  0  0  0
  7 30  1  0  0  0  0
  8 31  1  0  0  0  0
  8 32  1  0  0  0  0
  8 33  1  0  0  0  0
  9 10  1  0  0  0  0
  9 34  1  0  0  0  0
  9 35  1  0  0  0  0
 10 11  1  0  0  0  0
 10 36  1  0  0  0  0
 11 12  2  0  0  0  0
 11 13  1  0  0  0  0
 13 14  1  0  0  0  0
 13 37  1  0  0  0  0
 13 38  1  0  0  0  0
 14 18  1  0  0  0  0
 14 15  1  0  0  0  0
 15 16  2  0  0  0  0
 15 39  1  0  0  0  0
 16 17  1  0  0  0  0
 17 18  2  0  0  0  0
 19 40  1  0  0  0  0
 19 41  1  0  0  0  0
M  CHG  1   6   1
M  END
> <s_m_source_file>
AV-unprocessed.smi

> <i_m_source_file_index>
2095

> <i_lp_mmshare_version>
43012

> <i_f3d_flags>
0

> <s_epik_input>
W0NIM11bQ0BASF0xW0NIMl1bQ0gyXVtDSDJdTihbQ0gyXTEpW0NASF0oW0NIM10pW0NIMl1bTkhdQyg9TylbQ0gyXW4yW2NIXW5ubjI=

> <s_epik_cmdline>
J2VwaWtfcHl0aG9uJywgJy1waCcsICc3LjAnLCAnLXRuJywgJzgnLCAnLW1hJywgJzIwMCcsICctbWV0YWxfYmluZGluZycsICctaW1hZScsICc8aW5maWxlLm1hZT4nLCAnLW9tYWUnLCAnPG91dGZpbGUubWFlPic=

> <r_lp_tautomer_probability>
1

> <r_epik_Ionization_Penalty>
0.00268321

> <r_epik_Ionization_Penalty_Charging>
0.00267875

> <r_epik_Ionization_Penalty_Neutral>
4.46125e-06

> <r_epik_State_Penalty>
0.00186642

> <r_epik_Charging_Adjusted_Penalty>
0.00454517

> <i_epik_Tot_Q>
1

> <i_epik_Tot_abs_Q>
1

> <r_epik_Metal_State_Penalty>
-0

> <b_epik_Metal_Only>
0

> <s_lp_Force_Field>
OPLS_2005

> <r_lp_Energy>
25.1095

> <b_lp_Chiralities_Consistent>
1

> <s_lp_Variant>
AV-unprocessed.smi:2095-2

> <Gold.Version>
5.8.1

> <Gold.Id.Protein>
6NUR|6NUR_protein|mol2

> <Gold.PLP.Fitness>
44.5459

> <Gold.PLP.PLP>
-27.8377

> <Gold.PLP.part.hbond>
-6.0000

> <Gold.PLP.part.metal>
0.0000

> <Gold.PLP.part.buried>
2.5928

> <Gold.PLP.part.nonpolar>
-23.7152

> <Gold.PLP.part.repulsive>
0.1944

> <Gold.PLP.ligand.clash>
0.0000

> <Gold.PLP.ligand.torsion>
0.6154

> <Gold.PLP.Chemscore.Hbond>
5.9280

> <Gold.PLP.Chemscore.CHOScore>
0.0000

> <Gold.PLP.Chemscore.Metal>
0.0000

> <Gold.Chemscore.Hbonds>
donor molecule, donor type, donor heavy atom, donor atom, acceptor molecule, acceptor atom, score
      L1  H     6    42       P1  7948  2.00
      L1  H    10    36       P1  7948  1.00
      P1  H  7989  7998       L1    12  1.00
      P1  H  7997  8009       L1    16  0.90
      P1  H 10752 10765       L1    18  0.80

> <Gold.PLP.Chemscore.Internal.Correction>
0.1550

> <Gold.Rescore>
     Score         DG    S(hbond)    S(metal)    S(lipo)     H(rot)  DE(clash)    DE(int)     intcor
     12.42     -15.45       3.25        0.00      50.29       2.64       0.51       2.51       ----

> <Gold.Chemscore.Fitness>
12.4234

> <Gold.Chemscore.DG>
-15.4515

> <Gold.Chemscore.ZeroCoef>
-5.4800

> <Gold.Chemscore.Hbond>
3.2503

> <Gold.Chemscore.Metal>
0.0000

> <Gold.Chemscore.Lipo>
50.2897

> <Gold.Chemscore.Internal_Hbond>
0.0000

> <Gold.Chemscore.DEClash>
0.5132

> <Gold.Chemscore.DEInternal>
2.5149

> <Gold.Chemscore.Rot>
2.6439

> <Gold.Chemscore.Internal.Correction>
   9.000000E+99

> <Gold.Chemscore.Hbonds>
donor molecule, donor type, donor heavy atom, donor atom, acceptor molecule, acceptor atom, score
      L1  H     6    42       P1  7948  1.00
      L1  H    10    36       P1  7948  1.00
      P1  H  7989  7998       L1    12  0.29
      P1  H  7997  8009       L1    16  0.53
      P1  H 10752 10765       L1    18  0.67

> <Gold.Chemscore.Hbond.Weighted>
-10.8560

> <Gold.Chemscore.Metal.Weighted>
-0.0000

> <Gold.Chemscore.Lipo.Weighted>
-5.8839

> <Gold.Chemscore.Internal_Hbond.Weighted>
0.0000

> <Gold.Chemscore.DEClash.Weighted>
0.5132

> <Gold.Chemscore.DEInternal.Weighted>
2.5149

> <Gold.Chemscore.Rot.Weighted>
6.7685

> <Gold.Chemscore.Internal.Correction.Weighted>
   9.000000E+99

> <Gold.Protein.RotatedTorsions>
[ 6907 6896 6895 6894 ] final   24.64 input  -60.11 | X-H torsion
[ 7974 7965 7964 7962 ] final  122.88 input  175.53 | X-H torsion
[ 8008 7997 7996 7995 ] final  164.65 input   59.86 | X-H torsion
[ 10167 10162 10161 10158 ] final  137.40 input  -65.29 | X-H torsion
[ 10718 10713 10712 10709 ] final   79.60 input   66.30 | X-H torsion
[ 10763 10752 10751 10750 ] final -164.12 input  -60.55 | X-H torsion
[ 11005 11000 10999 10996 ] final   21.63 input  -57.11 | X-H torsion

> <Gold.Protein.ActiveResidues>
 VAL166  LYS551  ARG553  GLY616  TRP617  ASP618  TYR619  PRO620  LYS621  CYS622 
 ASP623  PHE694  ASN695  SER759  ASP760  ASP761  ALA762  ILE779  LEU786  VAL792 
 PHE793  MET794  SER795  GLU796  ALA797  LYS798  CYS799  TRP800  GLU811  SER814 

> <Gold.Protein.RotatedAtoms>
  151.9605  135.0126  160.0547 H   0  0  0  0  0  0  0  0  0  0  0  0  # atno 6907 bound_to 6896
  152.1873  133.4744  159.4997 H   0  0  0  0  0  0  0  0  0  0  0  0  # atno 6908 bound_to 6896
  150.6928  134.1675  159.4242 H   0  0  0  0  0  0  0  0  0  0  0  0  # atno 6909 bound_to 6896
  145.1024  139.3510  143.4805 H   0  0  0  0  0  0  0  0  0  0  0  0  # atno 7974 bound_to 7965
  156.1863  140.1691  156.8179 H   0  0  0  0  0  0  0  0  0  0  0  0  # atno 8008 bound_to 7997
  154.5418  140.0735  156.8555 H   0  0  0  0  0  0  0  0  0  0  0  0  # atno 8009 bound_to 7997
  155.3200  140.3373  155.4244 H   0  0  0  0  0  0  0  0  0  0  0  0  # atno 8010 bound_to 7997
  139.5146  144.6412  151.5564 H   0  0  0  0  0  0  0  0  0  0  0  0  # atno 10167 bound_to 10162
  157.6781  130.9921  150.1955 H   0  0  0  0  0  0  0  0  0  0  0  0  # atno 10718 bound_to 10713
  154.7058  135.2996  154.9272 H   0  0  0  0  0  0  0  0  0  0  0  0  # atno 10763 bound_to 10752
  154.0190  135.6685  153.4775 H   0  0  0  0  0  0  0  0  0  0  0  0  # atno 10764 bound_to 10752
  153.0716  135.5058  154.8228 H   0  0  0  0  0  0  0  0  0  0  0  0  # atno 10765 bound_to 10752
  140.3894  134.1835  155.7662 H   0  0  0  0  0  0  0  0  0  0  0  0  # atno 11005 bound_to 11000
  146.3529  140.0906  142.8613 LP  0  0  0  0  0  0  0  0  0  0  0  0  # atno 17320 bound_to 7965
  145.0941  140.9303  143.4752 LP  0  0  0  0  0  0  0  0  0  0  0  0  # atno 17321 bound_to 7965
  140.6179  143.9314  150.6503 LP  0  0  0  0  0  0  0  0  0  0  0  0  # atno 17342 bound_to 10162
  140.2578  143.3546  152.1350 LP  0  0  0  0  0  0  0  0  0  0  0  0  # atno 17343 bound_to 10162
  156.2657  130.3716  149.8083 LP  0  0  0  0  0  0  0  0  0  0  0  0  # atno 17370 bound_to 10713
  156.5815  130.8468  151.3384 LP  0  0  0  0  0  0  0  0  0  0  0  0  # atno 17371 bound_to 10713
  141.1896  133.8235  157.0951 LP  0  0  0  0  0  0  0  0  0  0  0  0  # atno 17394 bound_to 11000
  140.0418  134.9850  157.0975 LP  0  0  0  0  0  0  0  0  0  0  0  0  # atno 17395 bound_to 11000

$$$$
