AV-unprocessed.smi:234|AV-procd|sdf|1790|dock1
  -GOLD-   2262020343D 1   1.00000     0.00000
 Structure written by MMmdl.
 59 62  0  0  0  0  0  0  0  0  1 V2000
  152.8286  142.0166  160.1218 C   0  0  0  0  0  0  0  0  0  0  0  0
  153.3206  140.5720  160.0095 C   0  0  0  0  0  0  0  0  0  0  0  0
  153.3102  140.1898  158.6446 O   0  0  0  0  0  0  0  0  0  0  0  0
  152.0061  139.9137  158.1575 C   0  0  1  0  0  0  0  0  0  0  0  0
  151.7969  140.2398  156.6764 C   0  0  0  0  0  0  0  0  0  0  0  0
  150.9335  138.9761  156.6397 C   0  0  1  0  0  0  0  0  0  0  0  0
  151.0389  138.2246  155.3864 N   0  0  0  0  0  0  0  0  0  0  0  0
  150.6042  138.9138  154.1783 C   0  0  0  0  0  0  0  0  0  0  0  0
  150.5419  136.9659  155.4181 C   0  0  0  0  0  0  0  0  0  0  0  0
  151.3826  135.8981  155.4598 N   0  0  0  0  0  0  0  0  0  0  0  0
  150.8868  134.6575  155.4897 C   0  0  0  0  0  0  0  0  0  0  0  0
  149.6098  134.2681  155.4883 N   0  0  0  0  0  0  0  0  0  0  0  0
  148.7657  135.3393  155.4543 C   0  0  0  0  0  0  0  0  0  0  0  0
  149.1453  136.7098  155.4264 C   0  0  0  0  0  0  0  0  0  0  0  0
  148.0159  137.5180  155.4003 N   0  0  0  0  0  0  0  0  0  0  0  0
  147.0225  136.6714  155.4075 C   0  0  0  0  0  0  0  0  0  0  0  0
  147.3824  135.3422  155.4315 N   0  0  0  0  0  0  0  0  0  0  0  0
  146.4883  134.1958  155.4368 C   0  0  0  0  0  0  0  0  0  0  0  0
  146.4889  133.4074  154.1052 C   0  0  2  0  0  0  0  0  0  0  0  0
  145.7923  132.1861  154.2974 O   0  0  0  0  0  0  0  0  0  0  0  0
  147.8792  133.0815  153.5786 C   0  0  0  0  0  0  0  0  0  0  0  0
  147.6344  132.9164  152.0842 C   0  0  0  0  0  0  0  0  0  0  0  0
  146.6633  133.9055  151.7735 O   0  0  0  0  0  0  0  0  0  0  0  0
  145.8842  134.2099  152.9297 C   0  0  1  0  0  0  0  0  0  0  0  0
  144.3874  133.9979  152.6502 C   0  0  0  0  0  0  0  0  0  0  0  0
  151.7785  138.4187  157.8229 C   0  0  0  0  0  0  0  0  0  0  0  0
  153.0491  137.6185  157.4805 C   0  0  0  0  0  0  0  0  0  0  0  0
  151.0187  137.6212  158.8826 C   0  0  0  0  0  0  0  0  0  0  0  0
  152.8178  142.3445  161.1613 H   0  0  0  0  0  0  0  0  0  0  0  0
  151.8167  142.1165  159.7284 H   0  0  0  0  0  0  0  0  0  0  0  0
  153.4744  142.6948  159.5635 H   0  0  0  0  0  0  0  0  0  0  0  0
  154.3300  140.4896  160.4147 H   0  0  0  0  0  0  0  0  0  0  0  0
  152.6750  139.9147  160.5934 H   0  0  0  0  0  0  0  0  0  0  0  0
  151.2160  140.3189  158.7948 H   0  0  0  0  0  0  0  0  0  0  0  0
  151.2562  141.1671  156.4862 H   0  0  0  0  0  0  0  0  0  0  0  0
  152.7114  140.1736  156.0844 H   0  0  0  0  0  0  0  0  0  0  0  0
  149.9055  139.1977  156.9351 H   0  0  0  0  0  0  0  0  0  0  0  0
  150.7449  138.2922  153.2931 H   0  0  0  0  0  0  0  0  0  0  0  0
  151.1784  139.8284  154.0313 H   0  0  0  0  0  0  0  0  0  0  0  0
  149.5491  139.1811  154.2463 H   0  0  0  0  0  0  0  0  0  0  0  0
  151.6177  133.8630  155.5167 H   0  0  0  0  0  0  0  0  0  0  0  0
  145.9922  136.9957  155.3892 H   0  0  0  0  0  0  0  0  0  0  0  0
  146.7694  133.5416  156.2632 H   0  0  0  0  0  0  0  0  0  0  0  0
  145.4835  134.5555  155.6622 H   0  0  0  0  0  0  0  0  0  0  0  0
  144.8643  132.3642  154.2858 H   0  0  0  0  0  0  0  0  0  0  0  0
  148.5516  133.9253  153.7395 H   0  0  0  0  0  0  0  0  0  0  0  0
  148.3299  132.2013  154.0389 H   0  0  0  0  0  0  0  0  0  0  0  0
  148.5404  133.0441  151.4916 H   0  0  0  0  0  0  0  0  0  0  0  0
  147.2205  131.9307  151.8671 H   0  0  0  0  0  0  0  0  0  0  0  0
  146.0451  135.2732  153.1122 H   0  0  0  0  0  0  0  0  0  0  0  0
  143.7880  134.2199  153.5334 H   0  0  0  0  0  0  0  0  0  0  0  0
  144.1753  132.9730  152.3447 H   0  0  0  0  0  0  0  0  0  0  0  0
  144.0495  134.6535  151.8475 H   0  0  0  0  0  0  0  0  0  0  0  0
  152.8149  136.6035  157.1590 H   0  0  0  0  0  0  0  0  0  0  0  0
  153.7100  137.5348  158.3437 H   0  0  0  0  0  0  0  0  0  0  0  0
  153.6258  138.0824  156.6804 H   0  0  0  0  0  0  0  0  0  0  0  0
  150.7920  136.6107  158.5412 H   0  0  0  0  0  0  0  0  0  0  0  0
  150.0704  138.0954  159.1360 H   0  0  0  0  0  0  0  0  0  0  0  0
  151.5950  137.5348  159.8042 H   0  0  0  0  0  0  0  0  0  0  0  0
  1  2  1  0  0  0  0
  1 29  1  0  0  0  0
  1 30  1  0  0  0  0
  1 31  1  0  0  0  0
  2  3  1  0  0  0  0
  2 32  1  0  0  0  0
  2 33  1  0  0  0  0
  3  4  1  0  0  0  0
  4 26  1  0  0  0  0
  4  5  1  0  0  0  0
  4 34  1  0  0  0  0
  5  6  1  0  0  0  0
  5 35  1  0  0  0  0
  5 36  1  0  0  0  0
  6  7  1  0  0  0  0
  6 26  1  0  0  0  0
  6 37  1  0  0  0  0
  7  8  1  0  0  0  0
  7  9  1  0  0  0  0
  8 38  1  0  0  0  0
  8 39  1  0  0  0  0
  8 40  1  0  0  0  0
  9 14  1  0  0  0  0
  9 10  2  0  0  0  0
 10 11  1  0  0  0  0
 11 12  2  0  0  0  0
 11 41  1  0  0  0  0
 12 13  1  0  0  0  0
 13 17  1  0  0  0  0
 13 14  2  0  0  0  0
 14 15  1  0  0  0  0
 15 16  2  0  0  0  0
 16 17  1  0  0  0  0
 16 42  1  0  0  0  0
 17 18  1  0  0  0  0
 18 19  1  0  0  0  0
 18 43  1  0  0  0  0
 18 44  1  0  0  0  0
 19 24  1  0  0  0  0
 19 20  1  0  0  0  0
 19 21  1  0  0  0  0
 20 45  1  0  0  0  0
 21 22  1  0  0  0  0
 21 46  1  0  0  0  0
 21 47  1  0  0  0  0
 22 23  1  0  0  0  0
 22 48  1  0  0  0  0
 22 49  1  0  0  0  0
 23 24  1  0  0  0  0
 24 25  1  0  0  0  0
 24 50  1  0  0  0  0
 25 51  1  0  0  0  0
 25 52  1  0  0  0  0
 25 53  1  0  0  0  0
 26 27  1  0  0  0  0
 26 28  1  0  0  0  0
 27 54  1  0  0  0  0
 27 55  1  0  0  0  0
 27 56  1  0  0  0  0
 28 57  1  0  0  0  0
 28 58  1  0  0  0  0
 28 59  1  0  0  0  0
M  END
> <s_m_source_file>
AV-unprocessed.smi

> <i_m_source_file_index>
234

> <i_lp_mmshare_version>
43012

> <i_f3d_flags>
0

> <s_epik_input>
W0NIM11bQ0gyXU9bQ0BASF0oQzEoW0NIM10pW0NIM10pW0NIMl1bQ0BIXTFOKFtDSDNdKWMobltjSF1uMiljKGMyMyluW2NIXW4zW0NIMl1bQ0BAXTQoW09IXSlbQ0gyXVtDSDJdT1tDQEhdNFtDSDNd

> <s_epik_cmdline>
J2VwaWtfcHl0aG9uJywgJy1waCcsICc3LjAnLCAnLXRuJywgJzgnLCAnLW1hJywgJzIwMCcsICctbWV0YWxfYmluZGluZycsICctaW1hZScsICc8aW5maWxlLm1hZT4nLCAnLW9tYWUnLCAnPG91dGZpbGUubWFlPic=

> <r_lp_tautomer_probability>
1

> <r_epik_Ionization_Penalty>
0.00349132

> <r_epik_Ionization_Penalty_Charging>
0

> <r_epik_Ionization_Penalty_Neutral>
0.00349132

> <r_epik_State_Penalty>
0.00242418

> <r_epik_Charging_Adjusted_Penalty>
0.00242418

> <i_epik_Tot_Q>
0

> <i_epik_Tot_abs_Q>
0

> <r_epik_Metal_State_Penalty>
-0

> <b_epik_Metal_Only>
0

> <s_lp_Force_Field>
OPLS_2005

> <r_lp_Energy>
47.69

> <b_lp_Chiralities_Consistent>
1

> <s_lp_Variant>
AV-unprocessed.smi:234-6

> <Gold.Version>
5.8.1

> <Gold.Id.Protein>
6NUR|6NUR_protein|mol2

> <Gold.PLP.Fitness>
38.4744

> <Gold.PLP.PLP>
-32.2904

> <Gold.PLP.part.hbond>
-3.0000

> <Gold.PLP.part.metal>
0.0000

> <Gold.PLP.part.buried>
-5.0933

> <Gold.PLP.part.nonpolar>
-24.3111

> <Gold.PLP.part.repulsive>
0.4069

> <Gold.PLP.ligand.clash>
0.0000

> <Gold.PLP.ligand.torsion>
1.1273

> <Gold.PLP.Chemscore.Hbond>
2.4904

> <Gold.PLP.Chemscore.CHOScore>
0.0000

> <Gold.PLP.Chemscore.Metal>
0.0000

> <Gold.Chemscore.Hbonds>
donor molecule, donor type, donor heavy atom, donor atom, acceptor molecule, acceptor atom, score
      L1  H    20    45       P1 10957  0.29
      P1  H  7997  8008       L1     3  0.89
      P1  H 10752 10764       L1    10  0.95

> <Gold.PLP.Chemscore.Internal.Correction>
0.9674

> <Gold.Rescore>
     Score         DG    S(hbond)    S(metal)    S(lipo)     H(rot)  DE(clash)    DE(int)     intcor
     14.18     -16.23       2.54        0.00      76.89       2.62       0.03       2.02       ----

> <Gold.Chemscore.Fitness>
14.1801

> <Gold.Chemscore.DG>
-16.2314

> <Gold.Chemscore.ZeroCoef>
-5.4800

> <Gold.Chemscore.Hbond>
2.5352

> <Gold.Chemscore.Metal>
0.0000

> <Gold.Chemscore.Lipo>
76.8873

> <Gold.Chemscore.Internal_Hbond>
0.0000

> <Gold.Chemscore.DEClash>
0.0270

> <Gold.Chemscore.DEInternal>
2.0243

> <Gold.Chemscore.Rot>
2.6219

> <Gold.Chemscore.Internal.Correction>
   9.000000E+99

> <Gold.Chemscore.Hbonds>
donor molecule, donor type, donor heavy atom, donor atom, acceptor molecule, acceptor atom, score
      L1  H    20    45       P1 10957  0.12
      P1  H  7997  8008       L1     3  0.67
      P1  H 10752 10764       L1    10  0.22

> <Gold.Chemscore.Hbond.Weighted>
-8.4677

> <Gold.Chemscore.Metal.Weighted>
-0.0000

> <Gold.Chemscore.Lipo.Weighted>
-8.9958

> <Gold.Chemscore.Internal_Hbond.Weighted>
0.0000

> <Gold.Chemscore.DEClash.Weighted>
0.0270

> <Gold.Chemscore.DEInternal.Weighted>
2.0243

> <Gold.Chemscore.Rot.Weighted>
6.7121

> <Gold.Chemscore.Internal.Correction.Weighted>
   9.000000E+99

> <Gold.Protein.RotatedTorsions>
[ 6907 6896 6895 6894 ] final   84.63 input  -60.11 | X-H torsion
[ 7974 7965 7964 7962 ] final  110.35 input  175.53 | X-H torsion
[ 8008 7997 7996 7995 ] final  -96.09 input   59.86 | X-H torsion
[ 10167 10162 10161 10158 ] final  -56.62 input  -65.29 | X-H torsion
[ 10718 10713 10712 10709 ] final  -37.40 input   66.30 | X-H torsion
[ 10763 10752 10751 10750 ] final  -51.62 input  -60.55 | X-H torsion
[ 11005 11000 10999 10996 ] final  140.62 input  -57.11 | X-H torsion

> <Gold.Protein.ActiveResidues>
 VAL166  LYS551  ARG553  GLY616  TRP617  ASP618  TYR619  PRO620  LYS621  CYS622 
 ASP623  PHE694  ASN695  SER759  ASP760  ASP761  ALA762  ILE779  LEU786  VAL792 
 PHE793  MET794  SER795  GLU796  ALA797  LYS798  CYS799  TRP800  GLU811  SER814 

> <Gold.Protein.RotatedAtoms>
  152.5357  134.2711  159.8971 H   0  0  0  0  0  0  0  0  0  0  0  0  # atno 6907 bound_to 6896
  151.2668  133.4268  159.2626 H   0  0  0  0  0  0  0  0  0  0  0  0  # atno 6908 bound_to 6896
  151.0403  134.9617  159.8215 H   0  0  0  0  0  0  0  0  0  0  0  0  # atno 6909 bound_to 6896
  145.2561  139.2720  143.4041 H   0  0  0  0  0  0  0  0  0  0  0  0  # atno 7974 bound_to 7965
  154.7698  140.0474  157.1042 H   0  0  0  0  0  0  0  0  0  0  0  0  # atno 8008 bound_to 7997
  154.9834  140.3104  155.4917 H   0  0  0  0  0  0  0  0  0  0  0  0  # atno 8009 bound_to 7997
  156.2919  140.2232  156.4934 H   0  0  0  0  0  0  0  0  0  0  0  0  # atno 8010 bound_to 7997
  140.6306  143.2458  151.5250 H   0  0  0  0  0  0  0  0  0  0  0  0  # atno 10167 bound_to 10162
  156.3157  130.4258  149.8008 H   0  0  0  0  0  0  0  0  0  0  0  0  # atno 10718 bound_to 10713
  154.1296  135.6522  153.4919 H   0  0  0  0  0  0  0  0  0  0  0  0  # atno 10763 bound_to 10752
  153.0199  135.5289  154.7015 H   0  0  0  0  0  0  0  0  0  0  0  0  # atno 10764 bound_to 10752
  154.6246  135.2968  155.0258 H   0  0  0  0  0  0  0  0  0  0  0  0  # atno 10765 bound_to 10752
  140.0341  134.9337  157.0719 H   0  0  0  0  0  0  0  0  0  0  0  0  # atno 11005 bound_to 11000
  146.3288  140.2966  142.8618 LP  0  0  0  0  0  0  0  0  0  0  0  0  # atno 17320 bound_to 7965
  144.9459  140.8128  143.5601 LP  0  0  0  0  0  0  0  0  0  0  0  0  # atno 17321 bound_to 7965
  139.5521  144.2369  152.1548 LP  0  0  0  0  0  0  0  0  0  0  0  0  # atno 17342 bound_to 10162
  140.1612  144.5024  150.6631 LP  0  0  0  0  0  0  0  0  0  0  0  0  # atno 17343 bound_to 10162
  156.5334  130.8268  151.3245 LP  0  0  0  0  0  0  0  0  0  0  0  0  # atno 17370 bound_to 10713
  157.7401  130.9844  150.2355 LP  0  0  0  0  0  0  0  0  0  0  0  0  # atno 17371 bound_to 10713
  140.4177  134.1914  155.7164 LP  0  0  0  0  0  0  0  0  0  0  0  0  # atno 17394 bound_to 11000
  141.1847  133.8337  157.1129 LP  0  0  0  0  0  0  0  0  0  0  0  0  # atno 17395 bound_to 11000

$$$$
