AV-unprocessed.smi:2040|AV-procd|sdf|8287|dock8
  -GOLD-   2272010553D 1   1.00000     0.00000
 Structure written by MMmdl.
 38 39  0  0  0  0  0  0  0  0  1 V2000
  145.7833  129.5990  151.6445 C   0  0  0  0  0  0  0  0  0  0  0  0
  146.3079  130.9887  151.8549 C   0  0  0  0  0  0  0  0  0  0  0  0
  147.5057  131.3832  152.5192 C   0  0  0  0  0  0  0  0  0  0  0  0
  147.4751  132.7468  152.4107 C   0  0  0  0  0  0  0  0  0  0  0  0
  148.3686  133.6613  152.8732 N   0  0  0  0  0  0  0  0  0  0  0  0
  149.2379  133.5441  153.8921 C   0  0  0  0  0  0  0  0  0  0  0  0
  149.3798  132.5457  154.5984 O   0  0  0  0  0  0  0  0  0  0  0  0
  149.9549  134.6666  154.0470 N   0  0  0  0  0  0  0  0  0  0  0  0
  150.9804  134.8815  155.0649 C   0  0  1  0  0  0  0  0  0  0  0  0
  152.1057  133.8466  154.8912 C   0  0  0  0  0  0  0  0  0  0  0  0
  151.4990  136.3285  154.9614 C   0  0  2  0  0  0  0  0  0  0  0  0
  150.4061  137.3955  154.8482 C   0  0  0  0  0  0  0  0  0  0  0  0
  151.0590  138.5144  154.0487 C   0  0  0  0  0  0  0  0  0  0  0  0
  152.3848  137.9144  153.5777 C   0  0  0  0  0  0  0  0  0  0  0  0
  152.2269  136.5155  153.7566 O   0  0  0  0  0  0  0  0  0  0  0  0
  146.3333  133.1138  151.7339 N   0  0  0  0  0  0  0  0  0  0  0  0
  145.8591  134.4368  151.3777 C   0  0  0  0  0  0  0  0  0  0  0  0
  145.6158  132.0225  151.3894 N   0  0  0  0  0  0  0  0  0  0  0  0
  146.4045  128.8621  152.1539 H   0  0  0  0  0  0  0  0  0  0  0  0
  145.7662  129.3426  150.5849 H   0  0  0  0  0  0  0  0  0  0  0  0
  144.7682  129.4989  152.0296 H   0  0  0  0  0  0  0  0  0  0  0  0
  148.2465  130.7554  152.9906 H   0  0  0  0  0  0  0  0  0  0  0  0
  148.3855  134.5377  152.3730 H   0  0  0  0  0  0  0  0  0  0  0  0
  149.7682  135.4393  153.4250 H   0  0  0  0  0  0  0  0  0  0  0  0
  150.5343  134.7498  156.0526 H   0  0  0  0  0  0  0  0  0  0  0  0
  152.8696  133.9569  155.6609 H   0  0  0  0  0  0  0  0  0  0  0  0
  152.5934  133.9503  153.9213 H   0  0  0  0  0  0  0  0  0  0  0  0
  151.7216  132.8285  154.9629 H   0  0  0  0  0  0  0  0  0  0  0  0
  152.1541  136.5599  155.8042 H   0  0  0  0  0  0  0  0  0  0  0  0
  149.5494  137.0075  154.2953 H   0  0  0  0  0  0  0  0  0  0  0  0
  150.0502  137.7285  155.8236 H   0  0  0  0  0  0  0  0  0  0  0  0
  150.4299  138.7923  153.2021 H   0  0  0  0  0  0  0  0  0  0  0  0
  151.2243  139.4078  154.6517 H   0  0  0  0  0  0  0  0  0  0  0  0
  152.6140  138.1606  152.5407 H   0  0  0  0  0  0  0  0  0  0  0  0
  153.2086  138.2644  154.2016 H   0  0  0  0  0  0  0  0  0  0  0  0
  146.5877  134.9250  150.7302 H   0  0  0  0  0  0  0  0  0  0  0  0
  145.7271  135.0337  152.2804 H   0  0  0  0  0  0  0  0  0  0  0  0
  144.9049  134.3748  150.8528 H   0  0  0  0  0  0  0  0  0  0  0  0
  1  2  1  0  0  0  0
  1 19  1  0  0  0  0
  1 20  1  0  0  0  0
  1 21  1  0  0  0  0
  2 18  2  0  0  0  0
  2  3  1  0  0  0  0
  3  4  2  0  0  0  0
  3 22  1  0  0  0  0
  4  5  1  0  0  0  0
  4 16  1  0  0  0  0
  5  6  1  0  0  0  0
  5 23  1  0  0  0  0
  6  7  2  0  0  0  0
  6  8  1  0  0  0  0
  8  9  1  0  0  0  0
  8 24  1  0  0  0  0
  9 10  1  0  0  0  0
  9 11  1  0  0  0  0
  9 25  1  0  0  0  0
 10 26  1  0  0  0  0
 10 27  1  0  0  0  0
 10 28  1  0  0  0  0
 11 15  1  0  0  0  0
 11 12  1  0  0  0  0
 11 29  1  0  0  0  0
 12 13  1  0  0  0  0
 12 30  1  0  0  0  0
 12 31  1  0  0  0  0
 13 14  1  0  0  0  0
 13 32  1  0  0  0  0
 13 33  1  0  0  0  0
 14 15  1  0  0  0  0
 14 34  1  0  0  0  0
 14 35  1  0  0  0  0
 16 17  1  0  0  0  0
 16 18  1  0  0  0  0
 17 36  1  0  0  0  0
 17 37  1  0  0  0  0
 17 38  1  0  0  0  0
M  END
> <s_m_source_file>
AV-unprocessed.smi

> <i_m_source_file_index>
2040

> <i_lp_mmshare_version>
43012

> <i_f3d_flags>
0

> <s_epik_input>
W0NIM11jMVtjSF1jKG4objEpW0NIM10pW05IXUMoPU8pW05IXVtDQEhdKFtDSDNdKVtDQEBIXTJbQ0gyXVtDSDJdW0NIMl1PMg==

> <s_epik_cmdline>
J2VwaWtfcHl0aG9uJywgJy1waCcsICc3LjAnLCAnLXRuJywgJzgnLCAnLW1hJywgJzIwMCcsICctbWV0YWxfYmluZGluZycsICctaW1hZScsICc8aW5maWxlLm1hZT4nLCAnLW9tYWUnLCAnPG91dGZpbGUubWFlPic=

> <r_lp_tautomer_probability>
1

> <r_epik_Ionization_Penalty>
9.09088e-05

> <r_epik_Ionization_Penalty_Charging>
0

> <r_epik_Ionization_Penalty_Neutral>
9.09088e-05

> <r_epik_State_Penalty>
-0

> <r_epik_Charging_Adjusted_Penalty>
0

> <i_epik_Tot_Q>
0

> <i_epik_Tot_abs_Q>
0

> <r_epik_Metal_State_Penalty>
-0

> <b_epik_Metal_Only>
0

> <s_lp_Force_Field>
OPLS_2005

> <r_lp_Energy>
19.5884

> <b_lp_Chiralities_Consistent>
1

> <s_lp_Variant>
AV-unprocessed.smi:2040-2

> <Gold.Version>
5.8.1

> <Gold.Id.Protein>
6NUR|6NUR_protein|mol2

> <Gold.PLP.Fitness>
39.8682

> <Gold.PLP.PLP>
-31.3283

> <Gold.PLP.part.hbond>
-3.0000

> <Gold.PLP.part.metal>
0.0000

> <Gold.PLP.part.buried>
-5.7315

> <Gold.PLP.part.nonpolar>
-22.7531

> <Gold.PLP.part.repulsive>
0.2981

> <Gold.PLP.ligand.clash>
0.0000

> <Gold.PLP.ligand.torsion>
0.2414

> <Gold.PLP.Chemscore.Hbond>
3.0000

> <Gold.PLP.Chemscore.CHOScore>
0.0000

> <Gold.PLP.Chemscore.Metal>
0.0000

> <Gold.Chemscore.Hbonds>
donor molecule, donor type, donor heavy atom, donor atom, acceptor molecule, acceptor atom, score
      L1  H     5    23       P1  7948  0.75
      L1  H     8    24       P1  7948  0.45
      P1  H 10752 10765       L1    15  0.03

> <Gold.PLP.Chemscore.Internal.Correction>
0.0228

> <Gold.Rescore>
     Score         DG    S(hbond)    S(metal)    S(lipo)     H(rot)  DE(clash)    DE(int)     intcor
     17.06     -18.38       2.64        0.00      62.06       1.23       0.07       1.25       ----

> <Gold.Chemscore.Fitness>
17.0619

> <Gold.Chemscore.DG>
-18.3849

> <Gold.Chemscore.ZeroCoef>
-5.4800

> <Gold.Chemscore.Hbond>
2.6354

> <Gold.Chemscore.Metal>
0.0000

> <Gold.Chemscore.Lipo>
62.0604

> <Gold.Chemscore.Internal_Hbond>
0.0000

> <Gold.Chemscore.DEClash>
0.0727

> <Gold.Chemscore.DEInternal>
1.2503

> <Gold.Chemscore.Rot>
1.2338

> <Gold.Chemscore.Internal.Correction>
   9.000000E+99

> <Gold.Chemscore.Hbonds>
donor molecule, donor type, donor heavy atom, donor atom, acceptor molecule, acceptor atom, score
      L1  H     5    23       P1  7948  0.09
      L1  H     8    24       P1  7948  0.02

> <Gold.Chemscore.Hbond.Weighted>
-8.8023

> <Gold.Chemscore.Metal.Weighted>
-0.0000

> <Gold.Chemscore.Lipo.Weighted>
-7.2611

> <Gold.Chemscore.Internal_Hbond.Weighted>
0.0000

> <Gold.Chemscore.DEClash.Weighted>
0.0727

> <Gold.Chemscore.DEInternal.Weighted>
1.2503

> <Gold.Chemscore.Rot.Weighted>
3.1584

> <Gold.Chemscore.Internal.Correction.Weighted>
   9.000000E+99

> <Gold.Protein.RotatedTorsions>
[ 6907 6896 6895 6894 ] final  179.33 input  -60.11 | X-H torsion
[ 7974 7965 7964 7962 ] final   52.11 input  175.53 | X-H torsion
[ 8008 7997 7996 7995 ] final  -78.26 input   59.86 | X-H torsion
[ 10167 10162 10161 10158 ] final -150.09 input  -65.29 | X-H torsion
[ 10718 10713 10712 10709 ] final    6.29 input   66.30 | X-H torsion
[ 10763 10752 10751 10750 ] final  161.02 input  -60.55 | X-H torsion
[ 11005 11000 10999 10996 ] final  -15.86 input  -57.11 | X-H torsion

> <Gold.Protein.ActiveResidues>
 VAL166  LYS551  ARG553  GLY616  TRP617  ASP618  TYR619  PRO620  LYS621  CYS622 
 ASP623  PHE694  ASN695  SER759  ASP760  ASP761  ALA762  ILE779  LEU786  VAL792 
 PHE793  MET794  SER795  GLU796  ALA797  LYS798  CYS799  TRP800  GLU811  SER814 

> <Gold.Protein.RotatedAtoms>
  151.6735  133.3313  159.3201 H   0  0  0  0  0  0  0  0  0  0  0  0  # atno 6907 bound_to 6896
  150.7856  134.6842  159.6470 H   0  0  0  0  0  0  0  0  0  0  0  0  # atno 6908 bound_to 6896
  152.3925  134.6421  160.0154 H   0  0  0  0  0  0  0  0  0  0  0  0  # atno 6909 bound_to 6896
  145.9846  139.4276  143.0111 H   0  0  0  0  0  0  0  0  0  0  0  0  # atno 7974 bound_to 7965
  154.5672  140.0697  156.8910 H   0  0  0  0  0  0  0  0  0  0  0  0  # atno 8008 bound_to 7997
  155.2700  140.3364  155.4248 H   0  0  0  0  0  0  0  0  0  0  0  0  # atno 8009 bound_to 7997
  156.2090  140.1751  156.7722 H   0  0  0  0  0  0  0  0  0  0  0  0  # atno 8010 bound_to 7997
  139.7384  143.8699  152.2555 H   0  0  0  0  0  0  0  0  0  0  0  0  # atno 10167 bound_to 10162
  156.9200  130.5787  149.5648 H   0  0  0  0  0  0  0  0  0  0  0  0  # atno 10718 bound_to 10713
  154.2564  135.2770  155.2796 H   0  0  0  0  0  0  0  0  0  0  0  0  # atno 10763 bound_to 10752
  154.5421  135.5699  153.6852 H   0  0  0  0  0  0  0  0  0  0  0  0  # atno 10764 bound_to 10752
  152.9970  135.6253  154.2713 H   0  0  0  0  0  0  0  0  0  0  0  0  # atno 10765 bound_to 10752
  140.8009  133.8215  155.9469 H   0  0  0  0  0  0  0  0  0  0  0  0  # atno 11005 bound_to 11000
  145.7720  140.9892  143.1144 LP  0  0  0  0  0  0  0  0  0  0  0  0  # atno 17320 bound_to 7965
  144.6871  139.9458  143.7476 LP  0  0  0  0  0  0  0  0  0  0  0  0  # atno 17321 bound_to 7965
  139.8643  144.7101  150.9063 LP  0  0  0  0  0  0  0  0  0  0  0  0  # atno 17342 bound_to 10162
  140.7782  143.3791  151.1509 LP  0  0  0  0  0  0  0  0  0  0  0  0  # atno 17343 bound_to 10162
  156.0495  130.5567  150.8958 LP  0  0  0  0  0  0  0  0  0  0  0  0  # atno 17370 bound_to 10713
  157.5914  131.0944  150.9113 LP  0  0  0  0  0  0  0  0  0  0  0  0  # atno 17371 bound_to 10713
  140.9296  134.2039  157.4873 LP  0  0  0  0  0  0  0  0  0  0  0  0  # atno 17394 bound_to 11000
  139.8722  134.9827  156.5167 LP  0  0  0  0  0  0  0  0  0  0  0  0  # atno 17395 bound_to 11000

$$$$
