AV-unprocessed.smi:818|AV-procd|sdf|3832|dock1
  -GOLD-   22720 1273D 1   1.00000     0.00000
 Structure written by MMmdl.
 44 45  0  0  0  0  0  0  0  0  1 V2000
  152.9655  142.8322  162.1990 C   0  0  0  0  0  0  0  0  0  0  0  0
  153.2512  142.1234  160.8701 C   0  0  0  0  0  0  0  0  0  0  0  0
  152.4792  142.6929  159.7833 N   0  0  0  0  0  0  0  0  0  0  0  0
  151.4349  142.1186  159.0860 C   0  0  0  0  0  0  0  0  0  0  0  0
  151.0407  143.0562  158.1739 C   0  0  0  0  0  0  0  0  0  0  0  0
  150.0062  142.9911  157.2067 N   0  0  0  0  0  0  0  0  0  0  0  0
  149.3934  141.8902  156.7418 C   0  0  0  0  0  0  0  0  0  0  0  0
  149.6533  140.7363  157.0844 O   0  0  0  0  0  0  0  0  0  0  0  0
  148.4454  142.2017  155.8455 N   0  0  0  0  0  0  0  0  0  0  0  0
  147.5723  141.2397  155.1744 C   0  0  2  0  0  0  0  0  0  0  0  0
  147.9932  141.1623  153.6975 C   0  0  0  0  0  0  0  0  0  0  0  0
  146.1090  141.7067  155.2324 C   0  0  0  0  0  0  0  0  0  0  0  0
  145.2499  141.0130  155.7791 O   0  0  0  0  0  0  0  0  0  0  0  0
  145.8451  142.8961  154.6711 N   0  0  0  0  0  0  0  0  0  0  0  0
  144.5262  143.5191  154.6100 C   0  0  0  0  0  0  0  0  0  0  0  0
  144.5308  144.7787  153.7179 C   0  0  0  0  0  0  0  0  0  0  0  0
  143.8646  145.8835  154.5398 C   0  0  0  0  0  0  0  0  0  0  0  0
  144.1708  145.5137  155.9875 C   0  0  0  0  0  0  0  0  0  0  0  0
  144.0836  143.9874  156.0081 C   0  0  0  0  0  0  0  0  0  0  0  0
  151.8906  144.1744  158.3757 C   0  0  0  0  0  0  0  0  0  0  0  0
  152.7578  143.9475  159.3506 N   0  0  0  0  0  0  0  0  0  0  0  0
  153.5507  142.3918  163.0064 H   0  0  0  0  0  0  0  0  0  0  0  0
  151.9120  142.7520  162.4690 H   0  0  0  0  0  0  0  0  0  0  0  0
  153.2184  143.8916  162.1445 H   0  0  0  0  0  0  0  0  0  0  0  0
  154.3118  142.1906  160.6231 H   0  0  0  0  0  0  0  0  0  0  0  0
  153.0108  141.0626  160.9497 H   0  0  0  0  0  0  0  0  0  0  0  0
  151.0794  141.1221  159.3033 H   0  0  0  0  0  0  0  0  0  0  0  0
  149.6929  143.8770  156.8378 H   0  0  0  0  0  0  0  0  0  0  0  0
  148.2961  143.1764  155.6298 H   0  0  0  0  0  0  0  0  0  0  0  0
  147.6755  140.2561  155.6371 H   0  0  0  0  0  0  0  0  0  0  0  0
  147.3743  140.4531  153.1459 H   0  0  0  0  0  0  0  0  0  0  0  0
  149.0273  140.8288  153.6048 H   0  0  0  0  0  0  0  0  0  0  0  0
  147.9137  142.1303  153.2002 H   0  0  0  0  0  0  0  0  0  0  0  0
  146.6093  143.4003  154.2456 H   0  0  0  0  0  0  0  0  0  0  0  0
  143.8008  142.7936  154.2369 H   0  0  0  0  0  0  0  0  0  0  0  0
  145.5530  145.0804  153.4822 H   0  0  0  0  0  0  0  0  0  0  0  0
  144.0195  144.6122  152.7691 H   0  0  0  0  0  0  0  0  0  0  0  0
  144.2239  146.8783  154.2749 H   0  0  0  0  0  0  0  0  0  0  0  0
  142.7862  145.8638  154.3772 H   0  0  0  0  0  0  0  0  0  0  0  0
  145.1840  145.8287  156.2411 H   0  0  0  0  0  0  0  0  0  0  0  0
  143.4872  145.9833  156.6954 H   0  0  0  0  0  0  0  0  0  0  0  0
  143.0466  143.6916  156.1726 H   0  0  0  0  0  0  0  0  0  0  0  0
  144.6712  143.5535  156.8186 H   0  0  0  0  0  0  0  0  0  0  0  0
  151.9066  145.1233  157.8598 H   0  0  0  0  0  0  0  0  0  0  0  0
  1  2  1  0  0  0  0
  1 22  1  0  0  0  0
  1 23  1  0  0  0  0
  1 24  1  0  0  0  0
  2  3  1  0  0  0  0
  2 25  1  0  0  0  0
  2 26  1  0  0  0  0
  3 21  1  0  0  0  0
  3  4  1  0  0  0  0
  4  5  2  0  0  0  0
  4 27  1  0  0  0  0
  5  6  1  0  0  0  0
  5 20  1  0  0  0  0
  6  7  1  0  0  0  0
  6 28  1  0  0  0  0
  7  8  2  0  0  0  0
  7  9  1  0  0  0  0
  9 10  1  0  0  0  0
  9 29  1  0  0  0  0
 10 11  1  0  0  0  0
 10 12  1  0  0  0  0
 10 30  1  0  0  0  0
 11 31  1  0  0  0  0
 11 32  1  0  0  0  0
 11 33  1  0  0  0  0
 12 13  2  0  0  0  0
 12 14  1  0  0  0  0
 14 15  1  0  0  0  0
 14 34  1  0  0  0  0
 15 19  1  0  0  0  0
 15 16  1  0  0  0  0
 15 35  1  0  0  0  0
 16 17  1  0  0  0  0
 16 36  1  0  0  0  0
 16 37  1  0  0  0  0
 17 18  1  0  0  0  0
 17 38  1  0  0  0  0
 17 39  1  0  0  0  0
 18 19  1  0  0  0  0
 18 40  1  0  0  0  0
 18 41  1  0  0  0  0
 19 42  1  0  0  0  0
 19 43  1  0  0  0  0
 20 21  2  0  0  0  0
 20 44  1  0  0  0  0
M  END
> <s_m_source_file>
AV-unprocessed.smi

> <i_m_source_file_index>
818

> <i_lp_mmshare_version>
43012

> <i_f3d_flags>
0

> <s_epik_input>
W0NIM11bQ0gyXW4xW2NIXWMoW2NIXW4xKVtOSF1DKD1PKVtOSF1bQ0BIXShbQ0gzXSlDKD1PKVtOSF1bQ0hdMltDSDJdW0NIMl1bQ0gyXVtDSDJdMg==

> <s_epik_cmdline>
J2VwaWtfcHl0aG9uJywgJy1waCcsICc3LjAnLCAnLXRuJywgJzgnLCAnLW1hJywgJzIwMCcsICctbWV0YWxfYmluZGluZycsICctaW1hZScsICc8aW5maWxlLm1hZT4nLCAnLW9tYWUnLCAnPG91dGZpbGUubWFlPic=

> <r_lp_tautomer_probability>
1

> <r_epik_Ionization_Penalty>
0.00015627

> <r_epik_Ionization_Penalty_Charging>
0

> <r_epik_Ionization_Penalty_Neutral>
0.00015627

> <r_epik_State_Penalty>
-0

> <r_epik_Charging_Adjusted_Penalty>
0

> <i_epik_Tot_Q>
0

> <i_epik_Tot_abs_Q>
0

> <r_epik_Metal_State_Penalty>
-0

> <b_epik_Metal_Only>
0

> <s_lp_Force_Field>
OPLS_2005

> <r_lp_Energy>
21.5062

> <b_lp_Chiralities_Consistent>
1

> <s_lp_Variant>
AV-unprocessed.smi:818-1

> <Gold.Version>
5.8.1

> <Gold.Id.Protein>
6NUR|6NUR_protein|mol2

> <Gold.PLP.Fitness>
46.6298

> <Gold.PLP.PLP>
-41.2956

> <Gold.PLP.part.hbond>
-2.0000

> <Gold.PLP.part.metal>
0.0000

> <Gold.PLP.part.buried>
-6.3177

> <Gold.PLP.part.nonpolar>
-34.5693

> <Gold.PLP.part.repulsive>
0.2545

> <Gold.PLP.ligand.clash>
0.0000

> <Gold.PLP.ligand.torsion>
0.3553

> <Gold.PLP.Chemscore.Hbond>
2.0000

> <Gold.PLP.Chemscore.CHOScore>
0.0000

> <Gold.PLP.Chemscore.Metal>
0.0000

> <Gold.Chemscore.Hbonds>
donor molecule, donor type, donor heavy atom, donor atom, acceptor molecule, acceptor atom, score
      L1  H     6    28       P1  8028  1.00
      L1  H     9    29       P1  8028  0.99

> <Gold.PLP.Chemscore.Internal.Correction>
0.0447

> <Gold.Rescore>
     Score         DG    S(hbond)    S(metal)    S(lipo)     H(rot)  DE(clash)    DE(int)     intcor
     17.90     -18.63       1.91        0.00      94.84       1.68       0.25       0.48       ----

> <Gold.Chemscore.Fitness>
17.9027

> <Gold.Chemscore.DG>
-18.6314

> <Gold.Chemscore.ZeroCoef>
-5.4800

> <Gold.Chemscore.Hbond>
1.9051

> <Gold.Chemscore.Metal>
0.0000

> <Gold.Chemscore.Lipo>
94.8418

> <Gold.Chemscore.Internal_Hbond>
0.0000

> <Gold.Chemscore.DEClash>
0.2495

> <Gold.Chemscore.DEInternal>
0.4792

> <Gold.Chemscore.Rot>
1.6828

> <Gold.Chemscore.Internal.Correction>
   9.000000E+99

> <Gold.Chemscore.Hbonds>
donor molecule, donor type, donor heavy atom, donor atom, acceptor molecule, acceptor atom, score
      L1  H     6    28       P1  8028  0.90
      L1  H     9    29       P1  8028  0.88

> <Gold.Chemscore.Hbond.Weighted>
-6.3629

> <Gold.Chemscore.Metal.Weighted>
-0.0000

> <Gold.Chemscore.Lipo.Weighted>
-11.0965

> <Gold.Chemscore.Internal_Hbond.Weighted>
0.0000

> <Gold.Chemscore.DEClash.Weighted>
0.2495

> <Gold.Chemscore.DEInternal.Weighted>
0.4792

> <Gold.Chemscore.Rot.Weighted>
4.3081

> <Gold.Chemscore.Internal.Correction.Weighted>
   9.000000E+99

> <Gold.Protein.RotatedTorsions>
[ 6907 6896 6895 6894 ] final -162.15 input  -60.11 | X-H torsion
[ 7974 7965 7964 7962 ] final   74.05 input  175.53 | X-H torsion
[ 8008 7997 7996 7995 ] final   91.05 input   59.86 | X-H torsion
[ 10167 10162 10161 10158 ] final   -5.30 input  -65.29 | X-H torsion
[ 10718 10713 10712 10709 ] final  146.34 input   66.30 | X-H torsion
[ 10763 10752 10751 10750 ] final   16.33 input  -60.55 | X-H torsion
[ 11005 11000 10999 10996 ] final   50.94 input  -57.11 | X-H torsion

> <Gold.Protein.ActiveResidues>
 VAL166  LYS551  ARG553  GLY616  TRP617  ASP618  TYR619  PRO620  LYS621  CYS622 
 ASP623  PHE694  ASN695  SER759  ASP760  ASP761  ALA762  ILE779  LEU786  VAL792 
 PHE793  MET794  SER795  GLU796  ALA797  LYS798  CYS799  TRP800  GLU811  SER814 

> <Gold.Protein.RotatedAtoms>
  151.3758  133.3838  159.2704 H   0  0  0  0  0  0  0  0  0  0  0  0  # atno 6907 bound_to 6896
  150.9615  134.9003  159.7744 H   0  0  0  0  0  0  0  0  0  0  0  0  # atno 6908 bound_to 6896
  152.5151  134.3718  159.9373 H   0  0  0  0  0  0  0  0  0  0  0  0  # atno 6909 bound_to 6896
  145.7331  139.2691  143.1530 H   0  0  0  0  0  0  0  0  0  0  0  0  # atno 7974 bound_to 7965
  156.0192  140.3342  155.7021 H   0  0  0  0  0  0  0  0  0  0  0  0  # atno 8008 bound_to 7997
  155.6047  140.0659  157.2741 H   0  0  0  0  0  0  0  0  0  0  0  0  # atno 8009 bound_to 7997
  154.4309  140.1804  156.1197 H   0  0  0  0  0  0  0  0  0  0  0  0  # atno 8010 bound_to 7997
  140.6958  143.6324  150.8511 H   0  0  0  0  0  0  0  0  0  0  0  0  # atno 10167 bound_to 10162
  157.3343  131.0925  151.1136 H   0  0  0  0  0  0  0  0  0  0  0  0  # atno 10718 bound_to 10713
  153.1441  135.6765  153.8982 H   0  0  0  0  0  0  0  0  0  0  0  0  # atno 10763 bound_to 10752
  153.8430  135.3103  155.3428 H   0  0  0  0  0  0  0  0  0  0  0  0  # atno 10764 bound_to 10752
  154.7811  135.4888  153.9930 H   0  0  0  0  0  0  0  0  0  0  0  0  # atno 10765 bound_to 10752
  140.0975  134.5126  155.8794 H   0  0  0  0  0  0  0  0  0  0  0  0  # atno 11005 bound_to 11000
  146.0519  140.8061  142.9777 LP  0  0  0  0  0  0  0  0  0  0  0  0  # atno 17320 bound_to 7965
  144.6888  140.3065  143.7255 LP  0  0  0  0  0  0  0  0  0  0  0  0  # atno 17321 bound_to 7965
  140.0041  143.5712  152.2864 LP  0  0  0  0  0  0  0  0  0  0  0  0  # atno 17342 bound_to 10162
  139.6412  144.7655  151.2335 LP  0  0  0  0  0  0  0  0  0  0  0  0  # atno 17343 bound_to 10162
  157.2372  130.6552  149.5874 LP  0  0  0  0  0  0  0  0  0  0  0  0  # atno 17370 bound_to 10713
  155.9699  130.4580  150.5982 LP  0  0  0  0  0  0  0  0  0  0  0  0  # atno 17371 bound_to 10713
  141.2096  133.6685  156.6451 LP  0  0  0  0  0  0  0  0  0  0  0  0  # atno 17394 bound_to 11000
  140.3267  134.7963  157.4294 LP  0  0  0  0  0  0  0  0  0  0  0  0  # atno 17395 bound_to 11000

$$$$
