AV-unprocessed.smi:2145|AV-procd|sdf|8735|dock2
  -GOLD-   2272011503D 1   1.00000     0.00000
 Structure written by MMmdl.
 44 46  0  0  0  0  0  0  0  0  1 V2000
  143.0232  145.6297  155.7010 C   0  0  0  0  0  0  0  0  0  0  0  0
  143.6838  145.1074  154.4261 C   0  0  0  0  0  0  0  0  0  0  0  0
  143.2789  145.5187  153.3393 O   0  0  0  0  0  0  0  0  0  0  0  0
  144.7901  144.1191  154.5708 C   0  0  0  0  0  0  0  0  0  0  0  0
  144.9936  143.4806  155.8145 C   0  0  0  0  0  0  0  0  0  0  0  0
  146.0323  142.5444  155.9778 C   0  0  0  0  0  0  0  0  0  0  0  0
  146.8903  142.2228  154.9079 C   0  0  0  0  0  0  0  0  0  0  0  0
  147.8815  141.2972  155.1548 O   0  0  0  0  0  0  0  0  0  0  0  0
  149.0654  141.3579  154.3708 C   0  0  0  0  0  0  0  0  0  0  0  0
  150.2838  141.4025  155.3102 C   0  0  1  0  0  0  0  0  0  0  0  0
  150.6506  142.7545  155.4909 O   0  0  0  0  0  0  0  0  0  0  0  0
  150.0181  140.8174  156.7139 C   0  0  0  0  0  0  0  0  0  0  0  0
  151.2330  140.5777  157.4817 N   0  0  0  0  0  0  0  0  0  0  0  0
  152.2095  139.6695  157.2368 C   0  0  0  0  0  0  0  0  0  0  0  0
  152.1525  138.7430  156.0640 C   0  0  0  0  0  0  0  0  0  0  0  0
  153.2231  139.6568  158.1026 N   0  0  0  0  0  0  0  0  0  0  0  0
  152.8753  140.6556  158.9911 C   0  0  0  0  0  0  0  0  0  0  0  0
  153.5422  141.1344  160.1416 C   0  0  0  0  0  0  0  0  0  0  0  0
  152.9855  142.1809  160.9059 C   0  0  0  0  0  0  0  0  0  0  0  0
  151.7567  142.7625  160.5319 C   0  0  0  0  0  0  0  0  0  0  0  0
  151.0762  142.3010  159.3886 C   0  0  0  0  0  0  0  0  0  0  0  0
  151.6361  141.2560  158.6291 C   0  0  0  0  0  0  0  0  0  0  0  0
  146.6878  142.8616  153.6596 C   0  0  0  0  0  0  0  0  0  0  0  0
  145.6497  143.7987  153.4945 C   0  0  0  0  0  0  0  0  0  0  0  0
  142.5631  144.8115  156.2552 H   0  0  0  0  0  0  0  0  0  0  0  0
  142.2464  146.3548  155.4579 H   0  0  0  0  0  0  0  0  0  0  0  0
  143.7577  146.1197  156.3403 H   0  0  0  0  0  0  0  0  0  0  0  0
  144.3560  143.7024  156.6584 H   0  0  0  0  0  0  0  0  0  0  0  0
  146.1718  142.0683  156.9373 H   0  0  0  0  0  0  0  0  0  0  0  0
  149.1384  140.5134  153.6830 H   0  0  0  0  0  0  0  0  0  0  0  0
  149.0198  142.2706  153.7773 H   0  0  0  0  0  0  0  0  0  0  0  0
  151.1184  140.8738  154.8497 H   0  0  0  0  0  0  0  0  0  0  0  0
  149.8789  143.2899  155.3832 H   0  0  0  0  0  0  0  0  0  0  0  0
  149.3706  141.4831  157.2854 H   0  0  0  0  0  0  0  0  0  0  0  0
  149.4758  139.8749  156.6286 H   0  0  0  0  0  0  0  0  0  0  0  0
  153.0415  138.1120  156.0334 H   0  0  0  0  0  0  0  0  0  0  0  0
  152.1053  139.3104  155.1344 H   0  0  0  0  0  0  0  0  0  0  0  0
  151.2781  138.0967  156.1315 H   0  0  0  0  0  0  0  0  0  0  0  0
  154.4838  140.6956  160.4363 H   0  0  0  0  0  0  0  0  0  0  0  0
  153.5040  142.5386  161.7834 H   0  0  0  0  0  0  0  0  0  0  0  0
  151.3369  143.5633  161.1230 H   0  0  0  0  0  0  0  0  0  0  0  0
  150.1337  142.7431  159.1017 H   0  0  0  0  0  0  0  0  0  0  0  0
  147.3177  142.6516  152.8085 H   0  0  0  0  0  0  0  0  0  0  0  0
  145.5323  144.2616  152.5261 H   0  0  0  0  0  0  0  0  0  0  0  0
  1  2  1  0  0  0  0
  1 25  1  0  0  0  0
  1 26  1  0  0  0  0
  1 27  1  0  0  0  0
  2  3  2  0  0  0  0
  2  4  1  0  0  0  0
  4 24  1  0  0  0  0
  4  5  2  0  0  0  0
  5  6  1  0  0  0  0
  5 28  1  0  0  0  0
  6  7  2  0  0  0  0
  6 29  1  0  0  0  0
  7  8  1  0  0  0  0
  7 23  1  0  0  0  0
  8  9  1  0  0  0  0
  9 10  1  0  0  0  0
  9 30  1  0  0  0  0
  9 31  1  0  0  0  0
 10 11  1  0  0  0  0
 10 12  1  0  0  0  0
 10 32  1  0  0  0  0
 11 33  1  0  0  0  0
 12 13  1  0  0  0  0
 12 34  1  0  0  0  0
 12 35  1  0  0  0  0
 13 22  1  0  0  0  0
 13 14  1  0  0  0  0
 14 15  1  0  0  0  0
 14 16  2  0  0  0  0
 15 36  1  0  0  0  0
 15 37  1  0  0  0  0
 15 38  1  0  0  0  0
 16 17  1  0  0  0  0
 17 22  2  0  0  0  0
 17 18  1  0  0  0  0
 18 19  2  0  0  0  0
 18 39  1  0  0  0  0
 19 20  1  0  0  0  0
 19 40  1  0  0  0  0
 20 21  2  0  0  0  0
 20 41  1  0  0  0  0
 21 22  1  0  0  0  0
 21 42  1  0  0  0  0
 23 24  2  0  0  0  0
 23 43  1  0  0  0  0
 24 44  1  0  0  0  0
M  END
> <s_m_source_file>
AV-unprocessed.smi

> <i_m_source_file_index>
2145

> <i_lp_mmshare_version>
43012

> <i_f3d_flags>
0

> <s_epik_input>
W0NIM11DKD1PKWMxW2NIXVtjSF1jKFtjSF1bY0hdMSlPW0NIMl1bQ0BIXShbT0hdKVtDSDJdbihjKG4yKVtDSDNdKWMoYzIzKVtjSF1bY0hdW2NIXVtjSF0z

> <s_epik_cmdline>
J2VwaWtfcHl0aG9uJywgJy1waCcsICc3LjAnLCAnLXRuJywgJzgnLCAnLW1hJywgJzIwMCcsICctbWV0YWxfYmluZGluZycsICctaW1hZScsICc8aW5maWxlLm1hZT4nLCAnLW9tYWUnLCAnPG91dGZpbGUubWFlPic=

> <r_lp_tautomer_probability>
0.99995

> <r_epik_Ionization_Penalty>
0.109398

> <r_epik_Ionization_Penalty_Charging>
0

> <r_epik_Ionization_Penalty_Neutral>
0.109398

> <r_epik_State_Penalty>
0.0991698

> <r_epik_Charging_Adjusted_Penalty>
0.0991698

> <i_epik_Tot_Q>
0

> <i_epik_Tot_abs_Q>
0

> <r_epik_Metal_State_Penalty>
0.000107943

> <b_epik_Metal_Only>
0

> <s_lp_Force_Field>
OPLS_2005

> <r_lp_Energy>
22.9418

> <b_lp_Chiralities_Consistent>
1

> <s_lp_Variant>
AV-unprocessed.smi:2145-2

> <Gold.Version>
5.8.1

> <Gold.Id.Protein>
6NUR|6NUR_protein|mol2

> <Gold.PLP.Fitness>
49.9858

> <Gold.PLP.PLP>
-46.6823

> <Gold.PLP.part.hbond>
-3.9906

> <Gold.PLP.part.metal>
0.0000

> <Gold.PLP.part.buried>
-2.3731

> <Gold.PLP.part.nonpolar>
-38.8590

> <Gold.PLP.part.repulsive>
0.2034

> <Gold.PLP.ligand.clash>
0.0000

> <Gold.PLP.ligand.torsion>
1.4555

> <Gold.PLP.Chemscore.Hbond>
1.9920

> <Gold.PLP.Chemscore.CHOScore>
0.0000

> <Gold.PLP.Chemscore.Metal>
0.0000

> <Gold.Chemscore.Hbonds>
donor molecule, donor type, donor heavy atom, donor atom, acceptor molecule, acceptor atom, score
      L1  H    11    33       P1  8028  1.00
      P1  H  7997  8008       L1    16  1.00

> <Gold.PLP.Chemscore.Internal.Correction>
0.2385

> <Gold.Rescore>
     Score         DG    S(hbond)    S(metal)    S(lipo)     H(rot)  DE(clash)    DE(int)     intcor
     16.12     -19.15       1.79        0.00     114.32       2.22       1.51       1.52       ----

> <Gold.Chemscore.Fitness>
16.1203

> <Gold.Chemscore.DG>
-19.1527

> <Gold.Chemscore.ZeroCoef>
-5.4800

> <Gold.Chemscore.Hbond>
1.7888

> <Gold.Chemscore.Metal>
0.0000

> <Gold.Chemscore.Lipo>
114.3164

> <Gold.Chemscore.Internal_Hbond>
0.0000

> <Gold.Chemscore.DEClash>
1.5100

> <Gold.Chemscore.DEInternal>
1.5223

> <Gold.Chemscore.Rot>
2.2176

> <Gold.Chemscore.Internal.Correction>
   9.000000E+99

> <Gold.Chemscore.Hbonds>
donor molecule, donor type, donor heavy atom, donor atom, acceptor molecule, acceptor atom, score
      L1  H    11    33       P1  8028  0.98
      P1  H  7997  8008       L1    16  0.44

> <Gold.Chemscore.Hbond.Weighted>
-5.9746

> <Gold.Chemscore.Metal.Weighted>
-0.0000

> <Gold.Chemscore.Lipo.Weighted>
-13.3750

> <Gold.Chemscore.Internal_Hbond.Weighted>
0.0000

> <Gold.Chemscore.DEClash.Weighted>
1.5100

> <Gold.Chemscore.DEInternal.Weighted>
1.5223

> <Gold.Chemscore.Rot.Weighted>
5.6769

> <Gold.Chemscore.Internal.Correction.Weighted>
   9.000000E+99

> <Gold.Protein.RotatedTorsions>
[ 6907 6896 6895 6894 ] final  -89.60 input  -60.11 | X-H torsion
[ 7974 7965 7964 7962 ] final    8.08 input  175.53 | X-H torsion
[ 8008 7997 7996 7995 ] final  -94.11 input   59.86 | X-H torsion
[ 10167 10162 10161 10158 ] final   80.26 input  -65.29 | X-H torsion
[ 10718 10713 10712 10709 ] final -147.37 input   66.30 | X-H torsion
[ 10763 10752 10751 10750 ] final  128.82 input  -60.55 | X-H torsion
[ 11005 11000 10999 10996 ] final -156.65 input  -57.11 | X-H torsion

> <Gold.Protein.ActiveResidues>
 VAL166  LYS551  ARG553  GLY616  TRP617  ASP618  TYR619  PRO620  LYS621  CYS622 
 ASP623  PHE694  ASN695  SER759  ASP760  ASP761  ALA762  ILE779  LEU786  VAL792 
 PHE793  MET794  SER795  GLU796  ALA797  LYS798  CYS799  TRP800  GLU811  SER814 

> <Gold.Protein.RotatedAtoms>
  150.6875  134.2562  159.4530 H   0  0  0  0  0  0  0  0  0  0  0  0  # atno 6907 bound_to 6896
  152.0495  134.9659  160.0584 H   0  0  0  0  0  0  0  0  0  0  0  0  # atno 6908 bound_to 6896
  152.1129  133.4276  159.4676 H   0  0  0  0  0  0  0  0  0  0  0  0  # atno 6909 bound_to 6896
  146.2420  139.9987  142.8418 H   0  0  0  0  0  0  0  0  0  0  0  0  # atno 7974 bound_to 7965
  154.7442  140.0492  157.0838 H   0  0  0  0  0  0  0  0  0  0  0  0  # atno 8008 bound_to 7997
  155.0139  140.3139  155.4800 H   0  0  0  0  0  0  0  0  0  0  0  0  # atno 8009 bound_to 7997
  156.2871  140.2179  156.5255 H   0  0  0  0  0  0  0  0  0  0  0  0  # atno 8010 bound_to 7997
  139.9516  144.6022  150.8156 H   0  0  0  0  0  0  0  0  0  0  0  0  # atno 10167 bound_to 10162
  156.4067  130.7961  151.2175 H   0  0  0  0  0  0  0  0  0  0  0  0  # atno 10718 bound_to 10713
  153.7318  135.3237  155.3287 H   0  0  0  0  0  0  0  0  0  0  0  0  # atno 10763 bound_to 10752
  154.8323  135.4524  154.1114 H   0  0  0  0  0  0  0  0  0  0  0  0  # atno 10764 bound_to 10752
  153.2264  135.6954  153.8021 H   0  0  0  0  0  0  0  0  0  0  0  0  # atno 10765 bound_to 10752
  140.6733  134.4224  157.5230 H   0  0  0  0  0  0  0  0  0  0  0  0  # atno 11005 bound_to 11000
  145.1435  140.9584  143.4474 LP  0  0  0  0  0  0  0  0  0  0  0  0  # atno 17320 bound_to 7965
  145.0273  139.3371  143.6042 LP  0  0  0  0  0  0  0  0  0  0  0  0  # atno 17321 bound_to 7965
  140.7581  143.3100  151.2868 LP  0  0  0  0  0  0  0  0  0  0  0  0  # atno 17342 bound_to 10162
  139.6624  144.0165  152.2701 LP  0  0  0  0  0  0  0  0  0  0  0  0  # atno 17343 bound_to 10162
  157.7506  131.0270  150.3987 LP  0  0  0  0  0  0  0  0  0  0  0  0  # atno 17370 bound_to 10713
  156.4277  130.3965  149.6781 LP  0  0  0  0  0  0  0  0  0  0  0  0  # atno 17371 bound_to 10713
  139.8975  134.8636  156.2043 LP  0  0  0  0  0  0  0  0  0  0  0  0  # atno 17394 bound_to 11000
  141.0375  133.6955  156.1538 LP  0  0  0  0  0  0  0  0  0  0  0  0  # atno 17395 bound_to 11000

$$$$
