AV-unprocessed.smi:376|AV-procd|sdf|2455|dock6
  -GOLD-   2262022393D 1   1.00000     0.00000
 Structure written by MMmdl.
 32 33  0  0  0  0  0  0  0  0  1 V2000
  153.8948  141.3692  160.3228 C   0  0  0  0  0  0  0  0  0  0  0  0
  152.9171  142.0917  160.2080 C   0  0  0  0  0  0  0  0  0  0  0  0
  151.7446  142.9738  160.0798 C   0  0  0  0  0  0  0  0  0  0  0  0
  151.2292  143.0320  158.7165 N   0  0  0  0  0  0  0  0  0  0  0  0
  150.9042  141.9706  157.9619 C   0  0  0  0  0  0  0  0  0  0  0  0
  151.0095  140.8072  158.3537 O   0  0  0  0  0  0  0  0  0  0  0  0
  150.3779  142.2897  156.5538 C   0  0  0  0  0  0  0  0  0  0  0  0
  150.0271  141.0881  155.7649 N   0  0  0  0  0  0  0  0  0  0  0  0
  151.0262  140.1066  155.5399 C   0  0  0  0  0  0  0  0  0  0  0  0
  152.1580  140.2330  156.0102 O   0  0  0  0  0  0  0  0  0  0  0  0
  150.6186  138.9722  154.7142 C   0  0  0  0  0  0  0  0  0  0  0  0
  151.6042  137.9803  154.4379 C   0  0  0  0  0  0  0  0  0  0  0  0
  152.4210  137.1874  154.2290 N   0  0  0  0  0  0  0  0  0  0  0  0
  149.3620  138.8788  154.2327 C   0  0  0  0  0  0  0  0  0  0  0  0
  148.3951  139.8245  154.4960 N   0  0  0  0  0  0  0  0  0  0  0  0
  147.1147  139.7859  153.8476 C   0  0  0  0  0  0  0  0  0  0  0  0
  146.7633  138.6449  152.9125 C   0  0  0  0  0  0  0  0  0  0  0  0
  147.0418  140.0191  152.3543 C   0  0  0  0  0  0  0  0  0  0  0  0
  148.7204  140.9869  155.2286 C   0  0  0  0  0  0  0  0  0  0  0  0
  147.8976  141.8919  155.3886 O   0  0  0  0  0  0  0  0  0  0  0  0
  154.7477  140.7369  160.4264 H   0  0  0  0  0  0  0  0  0  0  0  0
  150.9633  142.5885  160.7349 H   0  0  0  0  0  0  0  0  0  0  0  0
  152.0102  143.9663  160.4473 H   0  0  0  0  0  0  0  0  0  0  0  0
  151.1095  143.9513  158.3158 H   0  0  0  0  0  0  0  0  0  0  0  0
  149.5209  142.9583  156.6494 H   0  0  0  0  0  0  0  0  0  0  0  0
  151.1243  142.8917  156.0330 H   0  0  0  0  0  0  0  0  0  0  0  0
  149.0992  138.0280  153.6206 H   0  0  0  0  0  0  0  0  0  0  0  0
  146.2887  140.1902  154.4300 H   0  0  0  0  0  0  0  0  0  0  0  0
  147.5119  137.8755  152.7332 H   0  0  0  0  0  0  0  0  0  0  0  0
  145.7314  138.2998  152.9097 H   0  0  0  0  0  0  0  0  0  0  0  0
  146.1954  140.5889  151.9764 H   0  0  0  0  0  0  0  0  0  0  0  0
  147.9745  140.1547  151.8101 H   0  0  0  0  0  0  0  0  0  0  0  0
  1  2  3  0  0  0  0
  1 21  1  0  0  0  0
  2  3  1  0  0  0  0
  3  4  1  0  0  0  0
  3 22  1  0  0  0  0
  3 23  1  0  0  0  0
  4  5  1  0  0  0  0
  4 24  1  0  0  0  0
  5  6  2  0  0  0  0
  5  7  1  0  0  0  0
  7  8  1  0  0  0  0
  7 25  1  0  0  0  0
  7 26  1  0  0  0  0
  8 19  1  0  0  0  0
  8  9  1  0  0  0  0
  9 10  2  0  0  0  0
  9 11  1  0  0  0  0
 11 12  1  0  0  0  0
 11 14  2  0  0  0  0
 12 13  3  0  0  0  0
 14 15  1  0  0  0  0
 14 27  1  0  0  0  0
 15 16  1  0  0  0  0
 15 19  1  0  0  0  0
 16 18  1  0  0  0  0
 16 17  1  0  0  0  0
 16 28  1  0  0  0  0
 17 18  1  0  0  0  0
 17 29  1  0  0  0  0
 17 30  1  0  0  0  0
 18 31  1  0  0  0  0
 18 32  1  0  0  0  0
 19 20  2  0  0  0  0
M  END
> <s_m_source_file>
AV-unprocessed.smi

> <i_m_source_file_index>
376

> <i_lp_mmshare_version>
43012

> <i_f3d_flags>
0

> <s_epik_input>
W0NIXSNDW0NIMl1bTkhdQyg9TylbQ0gyXW4xYyg9TyljKEMjTilbY0hdbihjMT1PKVtDSF0yW0NIMl1bQ0gyXTI=

> <s_epik_cmdline>
J2VwaWtfcHl0aG9uJywgJy1waCcsICc3LjAnLCAnLXRuJywgJzgnLCAnLW1hJywgJzIwMCcsICctbWV0YWxfYmluZGluZycsICctaW1hZScsICc8aW5maWxlLm1hZT4nLCAnLW9tYWUnLCAnPG91dGZpbGUubWFlPic=

> <r_lp_tautomer_probability>
1

> <r_epik_Ionization_Penalty>
1.51832e-07

> <r_epik_Ionization_Penalty_Charging>
6.72035e-11

> <r_epik_Ionization_Penalty_Neutral>
1.51764e-07

> <r_epik_State_Penalty>
-0

> <r_epik_Charging_Adjusted_Penalty>
6.72035e-11

> <i_epik_Tot_Q>
0

> <i_epik_Tot_abs_Q>
0

> <r_epik_Metal_State_Penalty>
-0

> <b_epik_Metal_Only>
0

> <s_lp_Force_Field>
OPLS_2005

> <r_lp_Energy>
28.1194

> <b_lp_Chiralities_Consistent>
1

> <s_lp_Variant>
AV-unprocessed.smi:376-1

> <Gold.Version>
5.8.1

> <Gold.Id.Protein>
6NUR|6NUR_protein|mol2

> <Gold.PLP.Fitness>
46.0699

> <Gold.PLP.PLP>
-37.9417

> <Gold.PLP.part.hbond>
-1.7192

> <Gold.PLP.part.metal>
0.0000

> <Gold.PLP.part.buried>
0.9837

> <Gold.PLP.part.nonpolar>
-39.9314

> <Gold.PLP.part.repulsive>
2.7629

> <Gold.PLP.ligand.clash>
0.0000

> <Gold.PLP.ligand.torsion>
0.2079

> <Gold.PLP.Chemscore.Hbond>
1.7753

> <Gold.PLP.Chemscore.CHOScore>
1.0000

> <Gold.PLP.Chemscore.Metal>
0.0000

> <Gold.Chemscore.Hbonds>
donor molecule, donor type, donor heavy atom, donor atom, acceptor molecule, acceptor atom, score
      P1  H  7997  8009       L1    10  0.59
      P1  H 10752 10763       L1    13  0.69
      L1  C    14    27       P1  7948  1.00

> <Gold.PLP.Chemscore.Internal.Correction>
0.2182

> <Gold.Rescore>
     Score         DG    S(hbond)    S(metal)    S(lipo)     H(rot)  DE(clash)    DE(int)     intcor
      8.82     -13.17       1.32        0.00      70.02       1.92       0.60       3.74       ----

> <Gold.Chemscore.Fitness>
8.8234

> <Gold.Chemscore.DG>
-13.1654

> <Gold.Chemscore.ZeroCoef>
-5.4800

> <Gold.Chemscore.Hbond>
1.3201

> <Gold.Chemscore.Metal>
0.0000

> <Gold.Chemscore.Lipo>
70.0160

> <Gold.Chemscore.Internal_Hbond>
0.0000

> <Gold.Chemscore.DEClash>
0.6017

> <Gold.Chemscore.DEInternal>
3.7402

> <Gold.Chemscore.Rot>
1.9202

> <Gold.Chemscore.Internal.Correction>
   9.000000E+99

> <Gold.Chemscore.Hbonds>
donor molecule, donor type, donor heavy atom, donor atom, acceptor molecule, acceptor atom, score
      P1  H  7997  8009       L1    10  0.57
      P1  H 10752 10763       L1    13  0.67

> <Gold.Chemscore.Hbond.Weighted>
-4.4092

> <Gold.Chemscore.Metal.Weighted>
-0.0000

> <Gold.Chemscore.Lipo.Weighted>
-8.1919

> <Gold.Chemscore.Internal_Hbond.Weighted>
0.0000

> <Gold.Chemscore.DEClash.Weighted>
0.6017

> <Gold.Chemscore.DEInternal.Weighted>
3.7402

> <Gold.Chemscore.Rot.Weighted>
4.9158

> <Gold.Chemscore.Internal.Correction.Weighted>
   9.000000E+99

> <Gold.Protein.RotatedTorsions>
[ 6907 6896 6895 6894 ] final -139.37 input  -60.11 | X-H torsion
[ 7974 7965 7964 7962 ] final  141.77 input  175.53 | X-H torsion
[ 8008 7997 7996 7995 ] final -152.69 input   59.86 | X-H torsion
[ 10167 10162 10161 10158 ] final   35.36 input  -65.29 | X-H torsion
[ 10718 10713 10712 10709 ] final  131.24 input   66.30 | X-H torsion
[ 10763 10752 10751 10750 ] final   20.00 input  -60.55 | X-H torsion
[ 11005 11000 10999 10996 ] final  -19.47 input  -57.11 | X-H torsion

> <Gold.Protein.ActiveResidues>
 VAL166  LYS551  ARG553  GLY616  TRP617  ASP618  TYR619  PRO620  LYS621  CYS622 
 ASP623  PHE694  ASN695  SER759  ASP760  ASP761  ALA762  ILE779  LEU786  VAL792 
 PHE793  MET794  SER795  GLU796  ALA797  LYS798  CYS799  TRP800  GLU811  SER814 

> <Gold.Protein.RotatedAtoms>
  151.0469  133.5657  159.2645 H   0  0  0  0  0  0  0  0  0  0  0  0  # atno 6907 bound_to 6896
  151.2683  135.0675  159.9134 H   0  0  0  0  0  0  0  0  0  0  0  0  # atno 6908 bound_to 6896
  152.5375  134.0204  159.8033 H   0  0  0  0  0  0  0  0  0  0  0  0  # atno 6909 bound_to 6896
  144.9067  139.5349  143.5728 H   0  0  0  0  0  0  0  0  0  0  0  0  # atno 7974 bound_to 7965
  155.6591  140.0720  157.2560 H   0  0  0  0  0  0  0  0  0  0  0  0  # atno 8008 bound_to 7997
  154.4146  140.1719  156.1808 H   0  0  0  0  0  0  0  0  0  0  0  0  # atno 8009 bound_to 7997
  155.9712  140.3362  155.6581 H   0  0  0  0  0  0  0  0  0  0  0  0  # atno 8010 bound_to 7997
  140.4229  144.1434  150.6150 H   0  0  0  0  0  0  0  0  0  0  0  0  # atno 10167 bound_to 10162
  157.4986  131.1093  150.9458 H   0  0  0  0  0  0  0  0  0  0  0  0  # atno 10718 bound_to 10713
  153.1114  135.6697  153.9493 H   0  0  0  0  0  0  0  0  0  0  0  0  # atno 10763 bound_to 10752
  153.9035  135.3033  155.3450 H   0  0  0  0  0  0  0  0  0  0  0  0  # atno 10764 bound_to 10752
  154.7533  135.5024  153.9407 H   0  0  0  0  0  0  0  0  0  0  0  0  # atno 10765 bound_to 10752
  140.8370  133.7955  155.9819 H   0  0  0  0  0  0  0  0  0  0  0  0  # atno 11005 bound_to 11000
  146.3137  139.7840  142.9000 LP  0  0  0  0  0  0  0  0  0  0  0  0  # atno 17320 bound_to 7965
  145.3524  141.0310  143.3331 LP  0  0  0  0  0  0  0  0  0  0  0  0  # atno 17321 bound_to 7965
  140.4513  143.2485  151.9344 LP  0  0  0  0  0  0  0  0  0  0  0  0  # atno 17342 bound_to 10162
  139.4783  144.5559  151.8314 LP  0  0  0  0  0  0  0  0  0  0  0  0  # atno 17343 bound_to 10162
  157.0136  130.5646  149.5323 LP  0  0  0  0  0  0  0  0  0  0  0  0  # atno 17370 bound_to 10713
  156.0215  130.5310  150.8290 LP  0  0  0  0  0  0  0  0  0  0  0  0  # atno 17371 bound_to 10713
  140.8937  134.2464  157.5080 LP  0  0  0  0  0  0  0  0  0  0  0  0  # atno 17394 bound_to 11000
  139.8704  134.9674  156.4594 LP  0  0  0  0  0  0  0  0  0  0  0  0  # atno 17395 bound_to 11000

$$$$
