AV-unprocessed.smi:1641|AV-procd|sdf|6556|dock4
  -GOLD-   22720 7243D 1   1.00000     0.00000
 Structure written by MMmdl.
 41 42  0  0  0  0  0  0  0  0  1 V2000
  146.5766  133.7225  161.9582 C   0  0  0  0  0  0  0  0  0  0  0  0
  147.3613  134.3741  160.8712 C   0  0  0  0  0  0  0  0  0  0  0  0
  147.9625  133.6806  159.8969 N   0  0  0  0  0  0  0  0  0  0  0  0
  148.6305  134.5033  159.0005 N   0  0  0  0  0  0  0  0  0  0  0  0
  148.5124  135.7977  159.3267 C   0  0  0  0  0  0  0  0  0  0  0  0
  149.0975  136.8563  158.5824 N   0  0  0  0  0  0  0  0  0  0  0  0
  150.2952  137.4400  158.7639 C   0  0  0  0  0  0  0  0  0  0  0  0
  151.1068  137.1442  159.6416 O   0  0  0  0  0  0  0  0  0  0  0  0
  150.5055  138.4080  157.8604 N   0  0  0  0  0  0  0  0  0  0  0  0
  151.7002  139.2406  157.7911 C   0  0  0  0  0  0  0  0  0  0  0  0
  151.3354  140.7277  157.6245 C   0  0  0  0  0  0  0  0  0  0  0  0
  152.2106  141.6610  158.3314 N   0  0  0  0  0  0  0  0  0  0  0  0
  152.5044  141.2291  159.6959 C   0  0  0  0  0  0  0  0  0  0  0  0
  153.4058  142.2345  160.4388 C   0  0  2  0  0  0  0  0  0  0  0  0
  153.6424  141.8308  161.8978 C   0  0  0  0  0  0  0  0  0  0  0  0
  152.7875  143.5184  160.4250 O   0  0  0  0  0  0  0  0  0  0  0  0
  152.5226  144.0026  159.1114 C   0  0  2  0  0  0  0  0  0  0  0  0
  151.8694  145.3835  159.2299 C   0  0  0  0  0  0  0  0  0  0  0  0
  151.6196  142.9934  158.3775 C   0  0  0  0  0  0  0  0  0  0  0  0
  147.5616  136.1192  160.7667 S   0  0  0  0  0  0  0  0  0  0  0  0
  145.5226  133.6825  161.6834 H   0  0  0  0  0  0  0  0  0  0  0  0
  146.6766  134.2879  162.8847 H   0  0  0  0  0  0  0  0  0  0  0  0
  146.9339  132.7066  162.1309 H   0  0  0  0  0  0  0  0  0  0  0  0
  148.5350  137.2140  157.8246 H   0  0  0  0  0  0  0  0  0  0  0  0
  149.7875  138.5857  157.1733 H   0  0  0  0  0  0  0  0  0  0  0  0
  152.3073  139.0739  158.6815 H   0  0  0  0  0  0  0  0  0  0  0  0
  152.2952  138.9076  156.9402 H   0  0  0  0  0  0  0  0  0  0  0  0
  151.3691  140.9567  156.5583 H   0  0  0  0  0  0  0  0  0  0  0  0
  150.3015  140.8913  157.9324 H   0  0  0  0  0  0  0  0  0  0  0  0
  151.5730  141.0975  160.2492 H   0  0  0  0  0  0  0  0  0  0  0  0
  153.0009  140.2594  159.6859 H   0  0  0  0  0  0  0  0  0  0  0  0
  154.3707  142.3013  159.9330 H   0  0  0  0  0  0  0  0  0  0  0  0
  154.1224  140.8540  161.9616 H   0  0  0  0  0  0  0  0  0  0  0  0
  152.7036  141.7799  162.4501 H   0  0  0  0  0  0  0  0  0  0  0  0
  154.2869  142.5515  162.4018 H   0  0  0  0  0  0  0  0  0  0  0  0
  153.4670  144.1065  158.5744 H   0  0  0  0  0  0  0  0  0  0  0  0
  151.6519  145.8003  158.2463 H   0  0  0  0  0  0  0  0  0  0  0  0
  152.5262  146.0819  159.7491 H   0  0  0  0  0  0  0  0  0  0  0  0
  150.9331  145.3303  159.7861 H   0  0  0  0  0  0  0  0  0  0  0  0
  151.4343  143.3488  157.3631 H   0  0  0  0  0  0  0  0  0  0  0  0
  150.6483  142.9482  158.8733 H   0  0  0  0  0  0  0  0  0  0  0  0
  1  2  1  0  0  0  0
  1 21  1  0  0  0  0
  1 22  1  0  0  0  0
  1 23  1  0  0  0  0
  2 20  1  0  0  0  0
  2  3  2  0  0  0  0
  3  4  1  0  0  0  0
  4  5  2  0  0  0  0
  5  6  1  0  0  0  0
  5 20  1  0  0  0  0
  6  7  1  0  0  0  0
  6 24  1  0  0  0  0
  7  8  2  0  0  0  0
  7  9  1  0  0  0  0
  9 10  1  0  0  0  0
  9 25  1  0  0  0  0
 10 11  1  0  0  0  0
 10 26  1  0  0  0  0
 10 27  1  0  0  0  0
 11 12  1  0  0  0  0
 11 28  1  0  0  0  0
 11 29  1  0  0  0  0
 12 19  1  0  0  0  0
 12 13  1  0  0  0  0
 13 14  1  0  0  0  0
 13 30  1  0  0  0  0
 13 31  1  0  0  0  0
 14 15  1  0  0  0  0
 14 16  1  0  0  0  0
 14 32  1  0  0  0  0
 15 33  1  0  0  0  0
 15 34  1  0  0  0  0
 15 35  1  0  0  0  0
 16 17  1  0  0  0  0
 17 18  1  0  0  0  0
 17 19  1  0  0  0  0
 17 36  1  0  0  0  0
 18 37  1  0  0  0  0
 18 38  1  0  0  0  0
 18 39  1  0  0  0  0
 19 40  1  0  0  0  0
 19 41  1  0  0  0  0
M  END
> <s_m_source_file>
AV-unprocessed.smi

> <i_m_source_file_index>
1641

> <i_lp_mmshare_version>
43012

> <i_f3d_flags>
0

> <s_epik_input>
W0NIM11jMW5uYyhzMSlbTkhdQyg9TylbTkhdW0NIMl1bQ0gyXU4yW0NIMl1bQ0BASF0oW0NIM10pT1tDQEBIXShbQ0gzXSlbQ0gyXTI=

> <s_epik_cmdline>
J2VwaWtfcHl0aG9uJywgJy1waCcsICc3LjAnLCAnLXRuJywgJzgnLCAnLW1hJywgJzIwMCcsICctbWV0YWxfYmluZGluZycsICctaW1hZScsICc8aW5maWxlLm1hZT4nLCAnLW9tYWUnLCAnPG91dGZpbGUubWFlPic=

> <r_lp_tautomer_probability>
1

> <r_epik_Ionization_Penalty>
0.221104

> <r_epik_Ionization_Penalty_Charging>
0

> <r_epik_Ionization_Penalty_Neutral>
0.221104

> <r_epik_State_Penalty>
0.209349

> <r_epik_Charging_Adjusted_Penalty>
0.209349

> <i_epik_Tot_Q>
0

> <i_epik_Tot_abs_Q>
0

> <r_epik_Metal_State_Penalty>
0.560954

> <b_epik_Metal_Only>
0

> <s_lp_Force_Field>
OPLS_2005

> <r_lp_Energy>
18.567

> <b_lp_Chiralities_Consistent>
1

> <s_lp_Variant>
AV-unprocessed.smi:1641-1

> <Gold.Version>
5.8.1

> <Gold.Id.Protein>
6NUR|6NUR_protein|mol2

> <Gold.PLP.Fitness>
41.9016

> <Gold.PLP.PLP>
-40.0356

> <Gold.PLP.part.hbond>
-2.0000

> <Gold.PLP.part.metal>
0.0000

> <Gold.PLP.part.buried>
-5.9038

> <Gold.PLP.part.nonpolar>
-32.9436

> <Gold.PLP.part.repulsive>
0.2474

> <Gold.PLP.ligand.clash>
0.0000

> <Gold.PLP.ligand.torsion>
1.1773

> <Gold.PLP.Chemscore.Hbond>
1.3998

> <Gold.PLP.Chemscore.CHOScore>
0.0000

> <Gold.PLP.Chemscore.Metal>
0.0000

> <Gold.Chemscore.Hbonds>
donor molecule, donor type, donor heavy atom, donor atom, acceptor molecule, acceptor atom, score
      P1  H  6896  6908       L1     4  0.35
      P1  H  6896  6909       L1     8  0.91

> <Gold.PLP.Chemscore.Internal.Correction>
0.0212

> <Gold.Rescore>
     Score         DG    S(hbond)    S(metal)    S(lipo)     H(rot)  DE(clash)    DE(int)     intcor
     15.59     -16.85       1.04        0.00     102.52       1.60       0.07       1.19       ----

> <Gold.Chemscore.Fitness>
15.5867

> <Gold.Chemscore.DG>
-16.8491

> <Gold.Chemscore.ZeroCoef>
-5.4800

> <Gold.Chemscore.Hbond>
1.0372

> <Gold.Chemscore.Metal>
0.0000

> <Gold.Chemscore.Lipo>
102.5159

> <Gold.Chemscore.Internal_Hbond>
0.0000

> <Gold.Chemscore.DEClash>
0.0746

> <Gold.Chemscore.DEInternal>
1.1878

> <Gold.Chemscore.Rot>
1.5975

> <Gold.Chemscore.Internal.Correction>
   9.000000E+99

> <Gold.Chemscore.Hbonds>
donor molecule, donor type, donor heavy atom, donor atom, acceptor molecule, acceptor atom, score
      P1  H  6896  6908       L1     4  0.07
      P1  H  6896  6909       L1     8  0.85

> <Gold.Chemscore.Hbond.Weighted>
-3.4643

> <Gold.Chemscore.Metal.Weighted>
-0.0000

> <Gold.Chemscore.Lipo.Weighted>
-11.9944

> <Gold.Chemscore.Internal_Hbond.Weighted>
0.0000

> <Gold.Chemscore.DEClash.Weighted>
0.0746

> <Gold.Chemscore.DEInternal.Weighted>
1.1878

> <Gold.Chemscore.Rot.Weighted>
4.0896

> <Gold.Chemscore.Internal.Correction.Weighted>
   9.000000E+99

> <Gold.Protein.RotatedTorsions>
[ 6907 6896 6895 6894 ] final  122.71 input  -60.11 | X-H torsion
[ 7974 7965 7964 7962 ] final -152.19 input  175.53 | X-H torsion
[ 8008 7997 7996 7995 ] final  172.18 input   59.86 | X-H torsion
[ 10167 10162 10161 10158 ] final  -59.62 input  -65.29 | X-H torsion
[ 10718 10713 10712 10709 ] final  -70.48 input   66.30 | X-H torsion
[ 10763 10752 10751 10750 ] final -134.11 input  -60.55 | X-H torsion
[ 11005 11000 10999 10996 ] final    0.61 input  -57.11 | X-H torsion

> <Gold.Protein.ActiveResidues>
 VAL166  LYS551  ARG553  GLY616  TRP617  ASP618  TYR619  PRO620  LYS621  CYS622 
 ASP623  PHE694  ASN695  SER759  ASP760  ASP761  ALA762  ILE779  LEU786  VAL792 
 PHE793  MET794  SER795  GLU796  ALA797  LYS798  CYS799  TRP800  GLU811  SER814 

> <Gold.Protein.RotatedAtoms>
  152.4221  133.7134  159.6491 H   0  0  0  0  0  0  0  0  0  0  0  0  # atno 6907 bound_to 6896
  150.8097  133.8433  159.3194 H   0  0  0  0  0  0  0  0  0  0  0  0  # atno 6908 bound_to 6896
  151.6147  135.1039  160.0140 H   0  0  0  0  0  0  0  0  0  0  0  0  # atno 6909 bound_to 6896
  144.7808  140.4695  143.5841 H   0  0  0  0  0  0  0  0  0  0  0  0  # atno 7974 bound_to 7965
  156.1200  140.1493  156.9218 H   0  0  0  0  0  0  0  0  0  0  0  0  # atno 8008 bound_to 7997
  154.4828  140.0874  156.7460 H   0  0  0  0  0  0  0  0  0  0  0  0  # atno 8009 bound_to 7997
  155.4445  140.3432  155.4296 H   0  0  0  0  0  0  0  0  0  0  0  0  # atno 8010 bound_to 7997
  140.6123  143.2391  151.5679 H   0  0  0  0  0  0  0  0  0  0  0  0  # atno 10167 bound_to 10162
  156.0406  130.4332  150.2301 H   0  0  0  0  0  0  0  0  0  0  0  0  # atno 10718 bound_to 10713
  154.8724  135.3745  154.4682 H   0  0  0  0  0  0  0  0  0  0  0  0  # atno 10763 bound_to 10752
  153.5344  135.7027  153.5672 H   0  0  0  0  0  0  0  0  0  0  0  0  # atno 10764 bound_to 10752
  153.3862  135.3984  155.1856 H   0  0  0  0  0  0  0  0  0  0  0  0  # atno 10765 bound_to 10752
  140.6247  133.9630  155.8243 H   0  0  0  0  0  0  0  0  0  0  0  0  # atno 11005 bound_to 11000
  145.6057  139.1508  143.3104 LP  0  0  0  0  0  0  0  0  0  0  0  0  # atno 17320 bound_to 7965
  146.2014  140.6176  142.9100 LP  0  0  0  0  0  0  0  0  0  0  0  0  # atno 17321 bound_to 7965
  139.5371  144.2750  152.1274 LP  0  0  0  0  0  0  0  0  0  0  0  0  # atno 17342 bound_to 10162
  140.1952  144.4712  150.6459 LP  0  0  0  0  0  0  0  0  0  0  0  0  # atno 17343 bound_to 10162
  157.0397  131.0031  151.3287 LP  0  0  0  0  0  0  0  0  0  0  0  0  # atno 17370 bound_to 10713
  157.5218  130.8003  149.7818 LP  0  0  0  0  0  0  0  0  0  0  0  0  # atno 17371 bound_to 10713
  141.0718  134.0194  157.3515 LP  0  0  0  0  0  0  0  0  0  0  0  0  # atno 17394 bound_to 11000
  139.9139  135.0194  156.7805 LP  0  0  0  0  0  0  0  0  0  0  0  0  # atno 17395 bound_to 11000

$$$$
