AV-unprocessed.smi:332|AV-procd|sdf|2359|dock4
  -GOLD-   2262022273D 1   1.00000     0.00000
 Structure written by MMmdl.
 42 44  0  0  0  0  0  0  0  0  1 V2000
  147.9437  141.3668  157.0530 C   0  0  0  0  0  0  0  0  0  0  0  0
  149.2516  141.4627  156.2504 C   0  0  1  0  0  0  0  0  0  0  0  0
  150.1334  142.4183  156.9184 N   0  0  0  0  0  0  0  0  0  0  0  0
  150.8021  142.2073  158.0628 C   0  0  0  0  0  0  0  0  0  0  0  0
  150.7825  141.1388  158.6753 O   0  0  0  0  0  0  0  0  0  0  0  0
  151.6261  143.3916  158.5863 C   0  0  0  0  0  0  0  0  0  0  0  0
  152.2127  143.1402  159.9130 N   0  0  0  0  0  0  0  0  0  0  0  0
  151.9391  144.0806  160.9261 C   0  0  0  0  0  0  0  0  0  0  0  0
  152.4282  143.9474  162.1691 C   0  0  0  0  0  0  0  0  0  0  0  0
  153.2569  142.8009  162.4572 C   0  0  0  0  0  0  0  0  0  0  0  0
  153.5279  141.8971  161.4946 C   0  0  0  0  0  0  0  0  0  0  0  0
  152.9965  142.0394  160.1341 C   0  0  0  0  0  0  0  0  0  0  0  0
  153.2406  141.2200  159.2476 O   0  0  0  0  0  0  0  0  0  0  0  0
  149.9618  140.0929  156.1116 C   0  0  1  0  0  0  0  0  0  0  0  0
  148.9838  138.9016  155.9643 C   0  0  0  0  0  0  0  0  0  0  0  0
  149.4678  138.1997  154.6833 C   0  0  2  0  0  0  0  0  0  0  0  0
  150.8300  137.5320  154.9442 C   0  0  0  0  0  0  0  0  0  0  0  0
  151.7855  138.7366  155.0266 C   0  0  0  0  0  0  0  0  0  0  0  0
  150.8369  139.9362  154.8394 C   0  0  1  0  0  0  0  0  0  0  0  0
  149.8538  139.3867  153.8113 C   0  0  0  0  0  0  0  0  0  0  0  0
  147.2236  140.7065  156.5702 H   0  0  0  0  0  0  0  0  0  0  0  0
  147.4713  142.3451  157.1480 H   0  0  0  0  0  0  0  0  0  0  0  0
  148.1218  140.9849  158.0589 H   0  0  0  0  0  0  0  0  0  0  0  0
  148.9984  141.8239  155.2526 H   0  0  0  0  0  0  0  0  0  0  0  0
  150.2183  143.3277  156.4875 H   0  0  0  0  0  0  0  0  0  0  0  0
  152.4035  143.6136  157.8540 H   0  0  0  0  0  0  0  0  0  0  0  0
  151.0029  144.2875  158.6230 H   0  0  0  0  0  0  0  0  0  0  0  0
  151.3181  144.9128  160.6278 H   0  0  0  0  0  0  0  0  0  0  0  0
  152.2111  144.6806  162.9319 H   0  0  0  0  0  0  0  0  0  0  0  0
  153.6629  142.6682  163.4492 H   0  0  0  0  0  0  0  0  0  0  0  0
  154.1516  141.0467  161.7284 H   0  0  0  0  0  0  0  0  0  0  0  0
  150.5861  139.9482  156.9950 H   0  0  0  0  0  0  0  0  0  0  0  0
  149.0015  138.2410  156.8318 H   0  0  0  0  0  0  0  0  0  0  0  0
  147.9558  139.2405  155.8294 H   0  0  0  0  0  0  0  0  0  0  0  0
  148.7278  137.5283  154.2473 H   0  0  0  0  0  0  0  0  0  0  0  0
  150.8293  136.9376  155.8586 H   0  0  0  0  0  0  0  0  0  0  0  0
  151.1085  136.8772  154.1176 H   0  0  0  0  0  0  0  0  0  0  0  0
  152.3296  138.7760  155.9708 H   0  0  0  0  0  0  0  0  0  0  0  0
  152.5209  138.6964  154.2220 H   0  0  0  0  0  0  0  0  0  0  0  0
  151.3625  140.8390  154.5290 H   0  0  0  0  0  0  0  0  0  0  0  0
  150.3267  139.0967  152.8714 H   0  0  0  0  0  0  0  0  0  0  0  0
  149.0218  140.0599  153.5986 H   0  0  0  0  0  0  0  0  0  0  0  0
  1  2  1  0  0  0  0
  1 21  1  0  0  0  0
  1 22  1  0  0  0  0
  1 23  1  0  0  0  0
  2  3  1  0  0  0  0
  2 14  1  0  0  0  0
  2 24  1  0  0  0  0
  3  4  1  0  0  0  0
  3 25  1  0  0  0  0
  4  5  2  0  0  0  0
  4  6  1  0  0  0  0
  6  7  1  0  0  0  0
  6 26  1  0  0  0  0
  6 27  1  0  0  0  0
  7 12  1  0  0  0  0
  7  8  1  0  0  0  0
  8  9  2  0  0  0  0
  8 28  1  0  0  0  0
  9 10  1  0  0  0  0
  9 29  1  0  0  0  0
 10 11  2  0  0  0  0
 10 30  1  0  0  0  0
 11 12  1  0  0  0  0
 11 31  1  0  0  0  0
 12 13  2  0  0  0  0
 14 19  1  0  0  0  0
 14 15  1  0  0  0  0
 14 32  1  0  0  0  0
 15 16  1  0  0  0  0
 15 33  1  0  0  0  0
 15 34  1  0  0  0  0
 16 20  1  0  0  0  0
 16 17  1  0  0  0  0
 16 35  1  0  0  0  0
 17 18  1  0  0  0  0
 17 36  1  0  0  0  0
 17 37  1  0  0  0  0
 18 19  1  0  0  0  0
 18 38  1  0  0  0  0
 18 39  1  0  0  0  0
 19 20  1  0  0  0  0
 19 40  1  0  0  0  0
 20 41  1  0  0  0  0
 20 42  1  0  0  0  0
M  END
> <s_m_source_file>
AV-unprocessed.smi

> <i_m_source_file_index>
332

> <i_lp_mmshare_version>
43012

> <i_f3d_flags>
0

> <s_epik_input>
W0NIMl0xW0NIMl1bQ0BIXShbQ0gyXTIpW0NAQEhdKFtDSDJdW0NAQEhdMTIpW0NASF0oW0NIM10pW05IXUMoPU8pW0NIMl1uM1tjSF1bY0hdW2NIXVtjSF1jMz1P

> <s_epik_cmdline>
J2VwaWtfcHl0aG9uJywgJy1waCcsICc3LjAnLCAnLXRuJywgJzgnLCAnLW1hJywgJzIwMCcsICctbWV0YWxfYmluZGluZycsICctaW1hZScsICc8aW5maWxlLm1hZT4nLCAnLW9tYWUnLCAnPG91dGZpbGUubWFlPic=

> <r_lp_tautomer_probability>
1

> <r_epik_Ionization_Penalty>
4.05802e-07

> <r_epik_Ionization_Penalty_Charging>
3.84175e-07

> <r_epik_Ionization_Penalty_Neutral>
2.16269e-08

> <r_epik_State_Penalty>
-0

> <r_epik_Charging_Adjusted_Penalty>
3.84175e-07

> <i_epik_Tot_Q>
0

> <i_epik_Tot_abs_Q>
0

> <r_epik_Metal_State_Penalty>
-0

> <b_epik_Metal_Only>
0

> <s_lp_Force_Field>
OPLS_2005

> <r_lp_Energy>
59.7004

> <b_lp_Chiralities_Consistent>
1

> <s_lp_Variant>
AV-unprocessed.smi:332-8

> <Gold.Version>
5.8.1

> <Gold.Id.Protein>
6NUR|6NUR_protein|mol2

> <Gold.PLP.Fitness>
41.6507

> <Gold.PLP.PLP>
-41.4872

> <Gold.PLP.part.hbond>
-1.0000

> <Gold.PLP.part.metal>
0.0000

> <Gold.PLP.part.buried>
-0.2080

> <Gold.PLP.part.nonpolar>
-39.9162

> <Gold.PLP.part.repulsive>
0.0235

> <Gold.PLP.ligand.clash>
0.0000

> <Gold.PLP.ligand.torsion>
0.7838

> <Gold.PLP.Chemscore.Hbond>
0.5720

> <Gold.PLP.Chemscore.CHOScore>
0.0000

> <Gold.PLP.Chemscore.Metal>
0.0000

> <Gold.Chemscore.Hbonds>
donor molecule, donor type, donor heavy atom, donor atom, acceptor molecule, acceptor atom, score
      L1  H     3    25       P1  8028  0.61

> <Gold.PLP.Chemscore.Internal.Correction>
0.0150

> <Gold.Rescore>
     Score         DG    S(hbond)    S(metal)    S(lipo)     H(rot)  DE(clash)    DE(int)     intcor
      8.20     -17.42       0.88        0.00     110.67       1.54       2.99       6.23       ----

> <Gold.Chemscore.Fitness>
8.2007

> <Gold.Chemscore.DG>
-17.4244

> <Gold.Chemscore.ZeroCoef>
-5.4800

> <Gold.Chemscore.Hbond>
0.8797

> <Gold.Chemscore.Metal>
0.0000

> <Gold.Chemscore.Lipo>
110.6667

> <Gold.Chemscore.Internal_Hbond>
0.0000

> <Gold.Chemscore.DEClash>
2.9930

> <Gold.Chemscore.DEInternal>
6.2307

> <Gold.Chemscore.Rot>
1.5398

> <Gold.Chemscore.Internal.Correction>
   9.000000E+99

> <Gold.Chemscore.Hbonds>
donor molecule, donor type, donor heavy atom, donor atom, acceptor molecule, acceptor atom, score
      L1  H     3    25       P1  8028  0.59

> <Gold.Chemscore.Hbond.Weighted>
-2.9383

> <Gold.Chemscore.Metal.Weighted>
-0.0000

> <Gold.Chemscore.Lipo.Weighted>
-12.9480

> <Gold.Chemscore.Internal_Hbond.Weighted>
0.0000

> <Gold.Chemscore.DEClash.Weighted>
2.9930

> <Gold.Chemscore.DEInternal.Weighted>
6.2307

> <Gold.Chemscore.Rot.Weighted>
3.9419

> <Gold.Chemscore.Internal.Correction.Weighted>
   9.000000E+99

> <Gold.Protein.RotatedTorsions>
[ 6907 6896 6895 6894 ] final   79.62 input  -60.11 | X-H torsion
[ 7974 7965 7964 7962 ] final   40.90 input  175.53 | X-H torsion
[ 8008 7997 7996 7995 ] final -174.97 input   59.86 | X-H torsion
[ 10167 10162 10161 10158 ] final -173.31 input  -65.29 | X-H torsion
[ 10718 10713 10712 10709 ] final  101.94 input   66.30 | X-H torsion
[ 10763 10752 10751 10750 ] final  127.42 input  -60.55 | X-H torsion
[ 11005 11000 10999 10996 ] final   86.68 input  -57.11 | X-H torsion

> <Gold.Protein.ActiveResidues>
 VAL166  LYS551  ARG553  GLY616  TRP617  ASP618  TYR619  PRO620  LYS621  CYS622 
 ASP623  PHE694  ASN695  SER759  ASP760  ASP761  ALA762  ILE779  LEU786  VAL792 
 PHE793  MET794  SER795  GLU796  ALA797  LYS798  CYS799  TRP800  GLU811  SER814 

> <Gold.Protein.RotatedAtoms>
  152.5205  134.3482  159.9241 H   0  0  0  0  0  0  0  0  0  0  0  0  # atno 6907 bound_to 6896
  151.3433  133.3947  159.2681 H   0  0  0  0  0  0  0  0  0  0  0  0  # atno 6908 bound_to 6896
  150.9786  134.9164  159.7888 H   0  0  0  0  0  0  0  0  0  0  0  0  # atno 6909 bound_to 6896
  146.0867  139.5479  142.9502 H   0  0  0  0  0  0  0  0  0  0  0  0  # atno 7974 bound_to 7965
  155.9768  140.1174  157.0763 H   0  0  0  0  0  0  0  0  0  0  0  0  # atno 8008 bound_to 7997
  154.4171  140.1152  156.5448 H   0  0  0  0  0  0  0  0  0  0  0  0  # atno 8009 bound_to 7997
  155.6524  140.3473  155.4755 H   0  0  0  0  0  0  0  0  0  0  0  0  # atno 8010 bound_to 7997
  139.5696  144.1674  152.1363 H   0  0  0  0  0  0  0  0  0  0  0  0  # atno 10167 bound_to 10162
  157.6816  131.0739  150.5328 H   0  0  0  0  0  0  0  0  0  0  0  0  # atno 10718 bound_to 10713
  153.7091  135.3271  155.3242 H   0  0  0  0  0  0  0  0  0  0  0  0  # atno 10763 bound_to 10752
  154.8390  135.4472  154.1333 H   0  0  0  0  0  0  0  0  0  0  0  0  # atno 10764 bound_to 10752
  153.2421  135.6972  153.7850 H   0  0  0  0  0  0  0  0  0  0  0  0  # atno 10765 bound_to 10752
  139.8938  134.8372  156.2755 H   0  0  0  0  0  0  0  0  0  0  0  0  # atno 11005 bound_to 11000
  145.6115  141.0338  143.1964 LP  0  0  0  0  0  0  0  0  0  0  0  0  # atno 17320 bound_to 7965
  144.7331  139.7666  143.7339 LP  0  0  0  0  0  0  0  0  0  0  0  0  # atno 17321 bound_to 7965
  140.1204  144.5378  150.6866 LP  0  0  0  0  0  0  0  0  0  0  0  0  # atno 17342 bound_to 10162
  140.6980  143.2416  151.4946 LP  0  0  0  0  0  0  0  0  0  0  0  0  # atno 17343 bound_to 10162
  156.5637  130.4262  149.6051 LP  0  0  0  0  0  0  0  0  0  0  0  0  # atno 17370 bound_to 10713
  156.2799  130.7065  151.1886 LP  0  0  0  0  0  0  0  0  0  0  0  0  # atno 17371 bound_to 10713
  141.0073  133.7116  156.1055 LP  0  0  0  0  0  0  0  0  0  0  0  0  # atno 17394 bound_to 11000
  140.7416  134.4144  157.5554 LP  0  0  0  0  0  0  0  0  0  0  0  0  # atno 17395 bound_to 11000

$$$$
