AV-unprocessed.smi:1417|AV-procd|sdf|5770|dock2
  -GOLD-   22720 5413D 1   1.00000     0.00000
 Structure written by MMmdl.
 39 40  0  0  0  0  0  0  0  0  3 V2000
  145.4168  134.2505  162.5110 C   0  0  0  0  0  0  0  0  0  0  0  0
  146.5954  134.9059  161.8761 C   0  0  0  0  0  0  0  0  0  0  0  0
  147.1582  134.8024  160.6357 C   0  0  0  0  0  0  0  0  0  0  0  0
  148.2589  135.6995  160.7027 C   0  0  0  0  0  0  0  0  0  0  0  0
  149.1252  135.9604  159.7116 N   0  5  0  0  0  0  0  0  0  0  0  0
  148.7344  136.6868  158.6397 C   0  0  0  0  0  0  0  0  0  0  0  0
  147.9542  137.6415  158.6457 O   0  0  0  0  0  0  0  0  0  0  0  0
  149.2815  136.2761  157.4868 N   0  0  0  0  0  0  0  0  0  0  0  0
  149.0481  136.8527  156.1632 C   0  0  2  0  0  0  0  0  0  0  0  0
  147.8523  136.1867  155.4541 C   0  0  0  0  0  0  0  0  0  0  0  0
  148.1634  134.7361  155.0458 C   0  0  0  0  0  0  0  0  0  0  0  0
  149.3805  134.6705  154.1933 N   0  3  2  0  0  0  0  0  0  0  0  0
  149.6438  133.3104  153.6566 C   0  0  0  0  0  0  0  0  0  0  0  0
  148.4665  132.7441  152.8557 C   0  0  0  0  0  0  0  0  0  0  0  0
  147.8280  133.5903  152.0440 N   0  0  0  0  0  0  0  0  0  0  0  0
  148.1241  131.5693  152.9779 O   0  0  0  0  0  0  0  0  0  0  0  0
  150.5626  135.2482  154.8823 C   0  0  0  0  0  0  0  0  0  0  0  0
  150.3085  136.7105  155.2928 C   0  0  0  0  0  0  0  0  0  0  0  0
  148.3463  136.3068  161.8743 N   0  0  0  0  0  0  0  0  0  0  0  0
  147.2863  135.7992  162.6347 O   0  0  0  0  0  0  0  0  0  0  0  0
  144.4883  134.6688  162.1227 H   0  0  0  0  0  0  0  0  0  0  0  0
  145.4245  134.3899  163.5922 H   0  0  0  0  0  0  0  0  0  0  0  0
  145.4165  133.1793  162.3098 H   0  0  0  0  0  0  0  0  0  0  0  0
  146.8368  134.1820  159.8123 H   0  0  0  0  0  0  0  0  0  0  0  0
  149.9202  135.4964  157.5388 H   0  0  0  0  0  0  0  0  0  0  0  0
  148.8398  137.9167  156.2887 H   0  0  0  0  0  0  0  0  0  0  0  0
  146.9650  136.2142  156.0876 H   0  0  0  0  0  0  0  0  0  0  0  0
  147.6012  136.7612  154.5615 H   0  0  0  0  0  0  0  0  0  0  0  0
  148.3020  134.1155  155.9327 H   0  0  0  0  0  0  0  0  0  0  0  0
  147.3074  134.3268  154.5088 H   0  0  0  0  0  0  0  0  0  0  0  0
  150.4948  133.3424  152.9748 H   0  0  0  0  0  0  0  0  0  0  0  0
  149.9186  132.6340  154.4678 H   0  0  0  0  0  0  0  0  0  0  0  0
  147.0469  133.2702  151.4898 H   0  0  0  0  0  0  0  0  0  0  0  0
  148.1315  134.5520  151.9836 H   0  0  0  0  0  0  0  0  0  0  0  0
  150.8081  134.6428  155.7563 H   0  0  0  0  0  0  0  0  0  0  0  0
  151.4285  135.2121  154.2202 H   0  0  0  0  0  0  0  0  0  0  0  0
  150.1934  137.3181  154.3941 H   0  0  0  0  0  0  0  0  0  0  0  0
  151.1773  137.1092  155.8182 H   0  0  0  0  0  0  0  0  0  0  0  0
  149.2073  135.2582  153.3899 H   0  0  0  0  0  0  0  0  0  0  0  0
  1  2  1  0  0  0  0
  1 21  1  0  0  0  0
  1 22  1  0  0  0  0
  1 23  1  0  0  0  0
  2 20  1  0  0  0  0
  2  3  2  0  0  0  0
  3  4  1  0  0  0  0
  3 24  1  0  0  0  0
  4  5  1  0  0  0  0
  4 19  2  0  0  0  0
  5  6  1  0  0  0  0
  6  7  2  0  0  0  0
  6  8  1  0  0  0  0
  8  9  1  0  0  0  0
  8 25  1  0  0  0  0
  9 18  1  0  0  0  0
  9 10  1  0  0  0  0
  9 26  1  0  0  0  0
 10 11  1  0  0  0  0
 10 27  1  0  0  0  0
 10 28  1  0  0  0  0
 11 12  1  0  0  0  0
 11 29  1  0  0  0  0
 11 30  1  0  0  0  0
 12 13  1  0  0  0  0
 12 17  1  0  0  0  0
 12 39  1  0  0  0  0
 13 14  1  0  0  0  0
 13 31  1  0  0  0  0
 13 32  1  0  0  0  0
 14 15  1  0  0  0  0
 14 16  2  0  0  0  0
 15 33  1  0  0  0  0
 15 34  1  0  0  0  0
 17 18  1  0  0  0  0
 17 35  1  0  0  0  0
 17 36  1  0  0  0  0
 18 37  1  0  0  0  0
 18 38  1  0  0  0  0
 19 20  1  0  0  0  0
M  CHG  1   5  -1
M  CHG  1  12   1
M  END
> <s_m_source_file>
AV-unprocessed.smi

> <i_m_source_file_index>
1417

> <i_lp_mmshare_version>
43012

> <i_f3d_flags>
0

> <s_epik_input>
W0NIM11jMVtjSF1jKG5vMSlbTkhdQyg9TylbTkhdW0NIXTJbQ0gyXVtDSDJdTihbQ0gyXVtDSDJdMilbQ0gyXUMoPU8pW05IMl0=

> <s_epik_cmdline>
J2VwaWtfcHl0aG9uJywgJy1waCcsICc3LjAnLCAnLXRuJywgJzgnLCAnLW1hJywgJzIwMCcsICctbWV0YWxfYmluZGluZycsICctaW1hZScsICc8aW5maWxlLm1hZT4nLCAnLW9tYWUnLCAnPG91dGZpbGUubWFlPic=

> <r_epik_Ionization_Penalty>
7.07562

> <r_epik_Ionization_Penalty_Charging>
7.07548

> <r_epik_Ionization_Penalty_Neutral>
0.00013758

> <r_epik_State_Penalty>
7.16607

> <r_epik_Charging_Adjusted_Penalty>
14.2416

> <i_epik_Tot_Q>
0

> <i_epik_Tot_abs_Q>
2

> <r_epik_Metal_State_Penalty>
3.11438

> <b_epik_Metal_Only>
1

> <s_lp_Force_Field>
OPLS_2005

> <r_lp_Energy>
2.10932

> <b_lp_Chiralities_Consistent>
1

> <s_lp_Variant>
AV-unprocessed.smi:1417-6

> <Gold.Version>
5.8.1

> <Gold.Id.Protein>
6NUR|6NUR_protein|mol2

> <Gold.PLP.Fitness>
41.7793

> <Gold.PLP.PLP>
-27.0557

> <Gold.PLP.part.hbond>
-4.5283

> <Gold.PLP.part.metal>
0.0000

> <Gold.PLP.part.buried>
-4.9471

> <Gold.PLP.part.nonpolar>
-18.3698

> <Gold.PLP.part.repulsive>
0.1969

> <Gold.PLP.ligand.clash>
0.0000

> <Gold.PLP.ligand.torsion>
1.5857

> <Gold.PLP.Chemscore.Hbond>
5.9500

> <Gold.PLP.Chemscore.CHOScore>
0.0000

> <Gold.PLP.Chemscore.Metal>
0.0000

> <Gold.Chemscore.Hbonds>
donor molecule, donor type, donor heavy atom, donor atom, acceptor molecule, acceptor atom, score
      L1  H    12    39       P1  7948  2.00
      L1  H    15    34       P1  7948  0.75
      P1  H  6896  6907       L1     5  2.00
      P1  H  6931  6943       L1    19  0.94

> <Gold.PLP.Chemscore.Internal.Correction>
0.0449

> <Gold.Rescore>
     Score         DG    S(hbond)    S(metal)    S(lipo)     H(rot)  DE(clash)    DE(int)     intcor
     14.82     -16.41       3.48        0.00      38.35       2.02       0.00       1.60       ----

> <Gold.Chemscore.Fitness>
14.8157

> <Gold.Chemscore.DG>
-16.4120

> <Gold.Chemscore.ZeroCoef>
-5.4800

> <Gold.Chemscore.Hbond>
3.4798

> <Gold.Chemscore.Metal>
0.0000

> <Gold.Chemscore.Lipo>
38.3466

> <Gold.Chemscore.Internal_Hbond>
0.0000

> <Gold.Chemscore.DEClash>
0.0009

> <Gold.Chemscore.DEInternal>
1.5954

> <Gold.Chemscore.Rot>
2.0222

> <Gold.Chemscore.Internal.Correction>
   9.000000E+99

> <Gold.Chemscore.Hbonds>
donor molecule, donor type, donor heavy atom, donor atom, acceptor molecule, acceptor atom, score
      L1  H    12    39       P1  7948  0.26
      L1  H    15    34       P1  7948  0.09
      P1  H  6896  6907       L1     5  0.85
      P1  H  6931  6943       L1    19  0.86

> <Gold.Chemscore.Hbond.Weighted>
-11.6224

> <Gold.Chemscore.Metal.Weighted>
-0.0000

> <Gold.Chemscore.Lipo.Weighted>
-4.4866

> <Gold.Chemscore.Internal_Hbond.Weighted>
0.0000

> <Gold.Chemscore.DEClash.Weighted>
0.0009

> <Gold.Chemscore.DEInternal.Weighted>
1.5954

> <Gold.Chemscore.Rot.Weighted>
5.1769

> <Gold.Chemscore.Internal.Correction.Weighted>
   9.000000E+99

> <Gold.Protein.RotatedTorsions>
[ 6907 6896 6895 6894 ] final  -47.03 input  -60.11 | X-H torsion
[ 7974 7965 7964 7962 ] final  143.33 input  175.53 | X-H torsion
[ 8008 7997 7996 7995 ] final  147.64 input   59.86 | X-H torsion
[ 10167 10162 10161 10158 ] final -151.35 input  -65.29 | X-H torsion
[ 10718 10713 10712 10709 ] final -118.95 input   66.30 | X-H torsion
[ 10763 10752 10751 10750 ] final   88.12 input  -60.55 | X-H torsion
[ 11005 11000 10999 10996 ] final  -19.94 input  -57.11 | X-H torsion

> <Gold.Protein.ActiveResidues>
 VAL166  LYS551  ARG553  GLY616  TRP617  ASP618  TYR619  PRO620  LYS621  CYS622 
 ASP623  PHE694  ASN695  SER759  ASP760  ASP761  ALA762  ILE779  LEU786  VAL792 
 PHE793  MET794  SER795  GLU796  ALA797  LYS798  CYS799  TRP800  GLU811  SER814 

> <Gold.Protein.RotatedAtoms>
  150.9051  134.8465  159.7386 H   0  0  0  0  0  0  0  0  0  0  0  0  # atno 6907 bound_to 6896
  152.4914  134.4444  159.9564 H   0  0  0  0  0  0  0  0  0  0  0  0  # atno 6908 bound_to 6896
  151.4492  133.3583  159.2828 H   0  0  0  0  0  0  0  0  0  0  0  0  # atno 6909 bound_to 6896
  144.8930  139.5531  143.5789 H   0  0  0  0  0  0  0  0  0  0  0  0  # atno 7974 bound_to 7965
  156.2818  140.2150  156.5570 H   0  0  0  0  0  0  0  0  0  0  0  0  # atno 8008 bound_to 7997
  154.7244  140.0501  157.0692 H   0  0  0  0  0  0  0  0  0  0  0  0  # atno 8009 bound_to 7997
  155.0436  140.3148  155.4719 H   0  0  0  0  0  0  0  0  0  0  0  0  # atno 8010 bound_to 7997
  139.7274  143.8861  152.2524 H   0  0  0  0  0  0  0  0  0  0  0  0  # atno 10167 bound_to 10162
  156.1144  130.6274  150.9355 H   0  0  0  0  0  0  0  0  0  0  0  0  # atno 10718 bound_to 10713
  153.1736  135.4518  154.9936 H   0  0  0  0  0  0  0  0  0  0  0  0  # atno 10763 bound_to 10752
  154.7983  135.3246  154.7615 H   0  0  0  0  0  0  0  0  0  0  0  0  # atno 10764 bound_to 10752
  153.8088  135.6956  153.4899 H   0  0  0  0  0  0  0  0  0  0  0  0  # atno 10765 bound_to 10752
  140.8416  133.7922  155.9866 H   0  0  0  0  0  0  0  0  0  0  0  0  # atno 11005 bound_to 11000
  146.3065  139.7597  142.9052 LP  0  0  0  0  0  0  0  0  0  0  0  0  # atno 17320 bound_to 7965
  145.3749  141.0349  143.3210 LP  0  0  0  0  0  0  0  0  0  0  0  0  # atno 17321 bound_to 7965
  139.8774  144.7036  150.8917 LP  0  0  0  0  0  0  0  0  0  0  0  0  # atno 17342 bound_to 10162
  140.7765  143.3688  151.1688 LP  0  0  0  0  0  0  0  0  0  0  0  0  # atno 17343 bound_to 10162
  157.6327  131.0919  150.8410 LP  0  0  0  0  0  0  0  0  0  0  0  0  # atno 17370 bound_to 10713
  156.8516  130.5082  149.5311 LP  0  0  0  0  0  0  0  0  0  0  0  0  # atno 17371 bound_to 10713
  140.8889  134.2519  157.5105 LP  0  0  0  0  0  0  0  0  0  0  0  0  # atno 17394 bound_to 11000
  139.8703  134.9652  156.4520 LP  0  0  0  0  0  0  0  0  0  0  0  0  # atno 17395 bound_to 11000

$$$$
