AV-unprocessed.smi:1272|AV-procd|sdf|5336|dock3
  -GOLD-   22720 4463D 1   1.00000     0.00000
 Structure written by MMmdl.
 46 48  0  0  0  0  0  0  0  0  2 V2000
  155.3640  140.7702  160.0463 C   0  0  0  0  0  0  0  0  0  0  0  0
  153.9232  140.7705  160.5722 C   0  0  0  0  0  0  0  0  0  0  0  0
  153.0143  141.4081  159.6229 N   0  0  0  0  0  0  0  0  0  0  0  0
  152.5824  140.8939  158.4471 C   0  0  0  0  0  0  0  0  0  0  0  0
  152.8706  139.7878  157.9903 O   0  0  0  0  0  0  0  0  0  0  0  0
  151.7716  141.8065  157.8622 N   0  0  0  0  0  0  0  0  0  0  0  0
  151.0557  141.6495  156.5978 C   0  0  0  0  0  0  0  0  0  0  0  0
  149.5287  141.6782  156.8045 C   0  0  2  0  0  0  0  0  0  0  0  0
  149.1845  140.6776  157.7431 O   0  0  0  0  0  0  0  0  0  0  0  0
  148.7699  141.3725  155.4980 C   0  0  0  0  0  0  0  0  0  0  0  0
  147.6349  142.3041  155.2773 N   0  3  0  0  0  0  0  0  0  0  0  0
  146.9489  142.1043  153.9765 C   0  0  0  0  0  0  0  0  0  0  0  0
  145.8231  143.1368  153.8008 C   0  0  0  0  0  0  0  0  0  0  0  0
  144.9097  143.0350  154.8860 O   0  0  0  0  0  0  0  0  0  0  0  0
  145.5334  143.3072  156.1347 C   0  0  0  0  0  0  0  0  0  0  0  0
  146.6531  142.2831  156.3874 C   0  0  0  0  0  0  0  0  0  0  0  0
  151.6779  142.9350  158.6892 C   0  0  0  0  0  0  0  0  0  0  0  0
  150.9629  144.1358  158.5374 C   0  0  0  0  0  0  0  0  0  0  0  0
  151.0782  145.0916  159.5737 C   0  0  0  0  0  0  0  0  0  0  0  0
  151.8860  144.8357  160.7120 C   0  0  0  0  0  0  0  0  0  0  0  0
  152.5950  143.6181  160.8390 C   0  0  0  0  0  0  0  0  0  0  0  0
  152.4609  142.6849  159.7963 C   0  0  0  0  0  0  0  0  0  0  0  0
  156.0377  140.3023  160.7642 H   0  0  0  0  0  0  0  0  0  0  0  0
  155.7204  141.7854  159.8691 H   0  0  0  0  0  0  0  0  0  0  0  0
  155.4420  140.2182  159.1093 H   0  0  0  0  0  0  0  0  0  0  0  0
  153.6012  139.7465  160.7680 H   0  0  0  0  0  0  0  0  0  0  0  0
  153.8743  141.2905  161.5293 H   0  0  0  0  0  0  0  0  0  0  0  0
  151.3574  142.4747  155.9515 H   0  0  0  0  0  0  0  0  0  0  0  0
  151.3646  140.7407  156.0780 H   0  0  0  0  0  0  0  0  0  0  0  0
  149.2296  142.6501  157.1955 H   0  0  0  0  0  0  0  0  0  0  0  0
  149.2454  141.0432  158.6131 H   0  0  0  0  0  0  0  0  0  0  0  0
  149.4420  141.4242  154.6399 H   0  0  0  0  0  0  0  0  0  0  0  0
  148.4084  140.3433  155.5351 H   0  0  0  0  0  0  0  0  0  0  0  0
  147.6543  142.1950  153.1513 H   0  0  0  0  0  0  0  0  0  0  0  0
  146.5352  141.0956  153.9315 H   0  0  0  0  0  0  0  0  0  0  0  0
  146.2267  144.1488  153.7407 H   0  0  0  0  0  0  0  0  0  0  0  0
  145.2869  142.9520  152.8700 H   0  0  0  0  0  0  0  0  0  0  0  0
  145.9259  144.3253  156.1446 H   0  0  0  0  0  0  0  0  0  0  0  0
  144.7844  143.2479  156.9242 H   0  0  0  0  0  0  0  0  0  0  0  0
  146.2306  141.2817  156.4839 H   0  0  0  0  0  0  0  0  0  0  0  0
  147.1530  142.5142  157.3287 H   0  0  0  0  0  0  0  0  0  0  0  0
  150.3494  144.3240  157.6688 H   0  0  0  0  0  0  0  0  0  0  0  0
  150.5451  146.0279  159.4976 H   0  0  0  0  0  0  0  0  0  0  0  0
  151.9608  145.5792  161.4918 H   0  0  0  0  0  0  0  0  0  0  0  0
  153.2114  143.4176  161.7027 H   0  0  0  0  0  0  0  0  0  0  0  0
  148.0289  143.2344  155.2670 H   0  0  0  0  0  0  0  0  0  0  0  0
  1  2  1  0  0  0  0
  1 23  1  0  0  0  0
  1 24  1  0  0  0  0
  1 25  1  0  0  0  0
  2  3  1  0  0  0  0
  2 26  1  0  0  0  0
  2 27  1  0  0  0  0
  3 22  1  0  0  0  0
  3  4  1  0  0  0  0
  4  5  2  0  0  0  0
  4  6  1  0  0  0  0
  6  7  1  0  0  0  0
  6 17  1  0  0  0  0
  7  8  1  0  0  0  0
  7 28  1  0  0  0  0
  7 29  1  0  0  0  0
  8  9  1  0  0  0  0
  8 10  1  0  0  0  0
  8 30  1  0  0  0  0
  9 31  1  0  0  0  0
 10 11  1  0  0  0  0
 10 32  1  0  0  0  0
 10 33  1  0  0  0  0
 11 16  1  0  0  0  0
 11 12  1  0  0  0  0
 11 46  1  0  0  0  0
 12 13  1  0  0  0  0
 12 34  1  0  0  0  0
 12 35  1  0  0  0  0
 13 14  1  0  0  0  0
 13 36  1  0  0  0  0
 13 37  1  0  0  0  0
 14 15  1  0  0  0  0
 15 16  1  0  0  0  0
 15 38  1  0  0  0  0
 15 39  1  0  0  0  0
 16 40  1  0  0  0  0
 16 41  1  0  0  0  0
 17 22  2  0  0  0  0
 17 18  1  0  0  0  0
 18 19  2  0  0  0  0
 18 42  1  0  0  0  0
 19 20  1  0  0  0  0
 19 43  1  0  0  0  0
 20 21  2  0  0  0  0
 20 44  1  0  0  0  0
 21 22  1  0  0  0  0
 21 45  1  0  0  0  0
M  CHG  1  11   1
M  END
> <s_m_source_file>
AV-unprocessed.smi

> <i_m_source_file_index>
1272

> <i_lp_mmshare_version>
43012

> <i_f3d_flags>
0

> <s_epik_input>
W2NIXTFbY0hdW2NIXVtjSF1jKGMxMiluKFtDSDJdW0NIM10pYyg9TyluMltDSDJdW0NASF0oW09IXSlbQ0gyXU4zW0NIMl1bQ0gyXU9bQ0gyXVtDSDJdMw==

> <s_epik_cmdline>
J2VwaWtfcHl0aG9uJywgJy1waCcsICc3LjAnLCAnLXRuJywgJzgnLCAnLW1hJywgJzIwMCcsICctbWV0YWxfYmluZGluZycsICctaW1hZScsICc8aW5maWxlLm1hZT4nLCAnLW9tYWUnLCAnPG91dGZpbGUubWFlPic=

> <r_epik_Ionization_Penalty>
0.706332

> <r_epik_Ionization_Penalty_Charging>
0.706318

> <r_epik_Ionization_Penalty_Neutral>
1.42224e-05

> <r_epik_State_Penalty>
0.729493

> <r_epik_Charging_Adjusted_Penalty>
1.43581

> <i_epik_Tot_Q>
1

> <i_epik_Tot_abs_Q>
1

> <r_epik_Metal_State_Penalty>
0.729493

> <b_epik_Metal_Only>
0

> <s_lp_Force_Field>
OPLS_2005

> <r_lp_Energy>
52.302

> <b_lp_Chiralities_Consistent>
1

> <s_lp_Variant>
AV-unprocessed.smi:1272-3

> <Gold.Version>
5.8.1

> <Gold.Id.Protein>
6NUR|6NUR_protein|mol2

> <Gold.PLP.Fitness>
56.8903

> <Gold.PLP.PLP>
-49.5256

> <Gold.PLP.part.hbond>
-2.0000

> <Gold.PLP.part.metal>
0.0000

> <Gold.PLP.part.buried>
-8.2554

> <Gold.PLP.part.nonpolar>
-40.6698

> <Gold.PLP.part.repulsive>
0.2866

> <Gold.PLP.ligand.clash>
0.0000

> <Gold.PLP.ligand.torsion>
0.8366

> <Gold.PLP.Chemscore.Hbond>
2.9913

> <Gold.PLP.Chemscore.CHOScore>
0.0000

> <Gold.PLP.Chemscore.Metal>
0.0000

> <Gold.Chemscore.Hbonds>
donor molecule, donor type, donor heavy atom, donor atom, acceptor molecule, acceptor atom, score
      L1  H    11    46       P1  8028  2.00
      P1  H  7997  8008       L1     5  1.00

> <Gold.PLP.Chemscore.Internal.Correction>
0.0642

> <Gold.Rescore>
     Score         DG    S(hbond)    S(metal)    S(lipo)     H(rot)  DE(clash)    DE(int)     intcor
     19.49     -20.44       1.80        0.00     125.21       2.23       0.19       0.76       ----

> <Gold.Chemscore.Fitness>
19.4926

> <Gold.Chemscore.DG>
-20.4393

> <Gold.Chemscore.ZeroCoef>
-5.4800

> <Gold.Chemscore.Hbond>
1.8010

> <Gold.Chemscore.Metal>
0.0000

> <Gold.Chemscore.Lipo>
125.2074

> <Gold.Chemscore.Internal_Hbond>
0.0000

> <Gold.Chemscore.DEClash>
0.1915

> <Gold.Chemscore.DEInternal>
0.7552

> <Gold.Chemscore.Rot>
2.2287

> <Gold.Chemscore.Internal.Correction>
   9.000000E+99

> <Gold.Chemscore.Hbonds>
donor molecule, donor type, donor heavy atom, donor atom, acceptor molecule, acceptor atom, score
      L1  H    11    46       P1  8028  0.82
      P1  H  7997  8008       L1     5  0.45

> <Gold.Chemscore.Hbond.Weighted>
-6.0154

> <Gold.Chemscore.Metal.Weighted>
-0.0000

> <Gold.Chemscore.Lipo.Weighted>
-14.6493

> <Gold.Chemscore.Internal_Hbond.Weighted>
0.0000

> <Gold.Chemscore.DEClash.Weighted>
0.1915

> <Gold.Chemscore.DEInternal.Weighted>
0.7552

> <Gold.Chemscore.Rot.Weighted>
5.7054

> <Gold.Chemscore.Internal.Correction.Weighted>
   9.000000E+99

> <Gold.Protein.RotatedTorsions>
[ 6907 6896 6895 6894 ] final   69.63 input  -60.11 | X-H torsion
[ 7974 7965 7964 7962 ] final  -51.73 input  175.53 | X-H torsion
[ 8008 7997 7996 7995 ] final  -93.15 input   59.86 | X-H torsion
[ 10167 10162 10161 10158 ] final  -68.47 input  -65.29 | X-H torsion
[ 10718 10713 10712 10709 ] final  -16.12 input   66.30 | X-H torsion
[ 10763 10752 10751 10750 ] final  177.11 input  -60.55 | X-H torsion
[ 11005 11000 10999 10996 ] final -111.48 input  -57.11 | X-H torsion

> <Gold.Protein.ActiveResidues>
 VAL166  LYS551  ARG553  GLY616  TRP617  ASP618  TYR619  PRO620  LYS621  CYS622 
 ASP623  PHE694  ASN695  SER759  ASP760  ASP761  ALA762  ILE779  LEU786  VAL792 
 PHE793  MET794  SER795  GLU796  ALA797  LYS798  CYS799  TRP800  GLU811  SER814 

> <Gold.Protein.RotatedAtoms>
  152.4698  134.4988  159.9717 H   0  0  0  0  0  0  0  0  0  0  0  0  # atno 6907 bound_to 6896
  151.5017  133.3497  159.2878 H   0  0  0  0  0  0  0  0  0  0  0  0  # atno 6908 bound_to 6896
  150.8702  134.8102  159.7210 H   0  0  0  0  0  0  0  0  0  0  0  0  # atno 6909 bound_to 6896
  145.9158  140.7876  142.9672 H   0  0  0  0  0  0  0  0  0  0  0  0  # atno 7974 bound_to 7965
  154.7321  140.0502  157.0736 H   0  0  0  0  0  0  0  0  0  0  0  0  # atno 8008 bound_to 7997
  155.0288  140.3155  155.4747 H   0  0  0  0  0  0  0  0  0  0  0  0  # atno 8009 bound_to 7997
  156.2844  140.2153  156.5409 H   0  0  0  0  0  0  0  0  0  0  0  0  # atno 8010 bound_to 7997
  140.5505  143.2312  151.6921 H   0  0  0  0  0  0  0  0  0  0  0  0  # atno 10167 bound_to 10162
  156.5921  130.4801  149.6275 H   0  0  0  0  0  0  0  0  0  0  0  0  # atno 10718 bound_to 10713
  154.4901  135.2778  155.1503 H   0  0  0  0  0  0  0  0  0  0  0  0  # atno 10763 bound_to 10752
  154.3178  135.6216  153.5498 H   0  0  0  0  0  0  0  0  0  0  0  0  # atno 10764 bound_to 10752
  152.9887  135.5735  154.5321 H   0  0  0  0  0  0  0  0  0  0  0  0  # atno 10765 bound_to 10752
  141.0732  133.9345  157.2443 H   0  0  0  0  0  0  0  0  0  0  0  0  # atno 11005 bound_to 11000
  144.6747  140.1897  143.7398 LP  0  0  0  0  0  0  0  0  0  0  0  0  # atno 17320 bound_to 7965
  145.8614  139.2225  143.1714 LP  0  0  0  0  0  0  0  0  0  0  0  0  # atno 17321 bound_to 7965
  139.5025  144.3826  152.0361 LP  0  0  0  0  0  0  0  0  0  0  0  0  # atno 17342 bound_to 10162
  140.2942  144.3719  150.6079 LP  0  0  0  0  0  0  0  0  0  0  0  0  # atno 17343 bound_to 10162
  156.2541  130.6924  151.1671 LP  0  0  0  0  0  0  0  0  0  0  0  0  # atno 17370 bound_to 10713
  157.7301  131.0619  150.5743 LP  0  0  0  0  0  0  0  0  0  0  0  0  # atno 17371 bound_to 10713
  139.9544  135.0168  156.9087 LP  0  0  0  0  0  0  0  0  0  0  0  0  # atno 17394 bound_to 11000
  140.5630  134.0517  155.7405 LP  0  0  0  0  0  0  0  0  0  0  0  0  # atno 17395 bound_to 11000

$$$$
