AV-unprocessed.smi:1867|AV-procd|sdf|7580|dock4
  -GOLD-   22720 9293D 1   1.00000     0.00000
 Structure written by MMmdl.
 52 55  0  0  0  0  0  0  0  0  4 V2000
  147.2377  140.0135  153.9571 O   0  0  0  0  0  0  0  0  0  0  0  0
  147.4178  138.9102  154.4691 C   0  0  0  0  0  0  0  0  0  0  0  0
  148.3751  138.7755  155.4203 N   0  0  0  0  0  0  0  0  0  0  0  0
  149.2203  139.7659  155.9878 C   0  0  0  0  0  0  0  0  0  0  0  0
  150.2048  139.3455  156.9058 C   0  0  0  0  0  0  0  0  0  0  0  0
  151.0528  140.2975  157.5076 C   0  0  0  0  0  0  0  0  0  0  0  0
  150.9011  141.6689  157.1934 C   0  0  0  0  0  0  0  0  0  0  0  0
  151.7095  142.6735  157.7582 N   0  0  0  0  0  0  0  0  0  0  0  0
  152.5823  142.3971  158.8884 C   0  0  0  0  0  0  0  0  0  0  0  0
  153.1168  143.7660  159.3060 C   0  0  0  0  0  0  0  0  0  0  0  0
  151.9523  144.7032  158.9840 C   0  0  0  0  0  0  0  0  0  0  0  0
  151.2890  144.0682  157.7560 C   0  0  0  0  0  0  0  0  0  0  0  0
  149.9256  142.0291  156.3255 N   0  3  0  0  0  0  0  0  0  0  0  0
  149.0944  141.1502  155.7248 C   0  0  0  0  0  0  0  0  0  0  0  0
  146.6917  137.8198  154.0763 N   0  5  0  0  0  0  0  0  0  0  0  0
  145.5579  137.7462  153.1418 C   0  0  2  0  0  0  0  0  0  0  0  0
  144.2505  137.3153  153.8232 C   0  0  0  0  0  0  0  0  0  0  0  0
  143.4511  136.6055  152.7162 C   0  0  0  0  0  0  0  0  0  0  0  0
  144.3592  136.5146  151.5500 N   0  3  2  0  0  0  0  0  0  0  0  0
  144.1234  135.3922  150.6056 C   0  0  0  0  0  0  0  0  0  0  0  0
  144.7107  134.0627  151.1054 C   0  0  0  0  0  0  0  0  0  0  0  0
  146.1915  134.2288  151.4594 C   0  0  0  0  0  0  0  0  0  0  0  0
  146.3407  135.3199  152.5252 C   0  0  0  0  0  0  0  0  0  0  0  0
  145.7465  136.6791  152.0452 C   0  0  2  0  0  0  0  0  0  0  0  0
  148.5492  137.8297  155.7262 H   0  0  0  0  0  0  0  0  0  0  0  0
  150.3157  138.2980  157.1457 H   0  0  0  0  0  0  0  0  0  0  0  0
  151.8041  139.9644  158.2082 H   0  0  0  0  0  0  0  0  0  0  0  0
  152.0030  141.9484  159.6967 H   0  0  0  0  0  0  0  0  0  0  0  0
  153.3884  141.7140  158.6186 H   0  0  0  0  0  0  0  0  0  0  0  0
  153.4200  143.8030  160.3527 H   0  0  0  0  0  0  0  0  0  0  0  0
  153.9810  144.0290  158.6939 H   0  0  0  0  0  0  0  0  0  0  0  0
  151.2490  144.7072  159.8180 H   0  0  0  0  0  0  0  0  0  0  0  0
  152.2688  145.7319  158.8094 H   0  0  0  0  0  0  0  0  0  0  0  0
  151.6419  144.5409  156.8387 H   0  0  0  0  0  0  0  0  0  0  0  0
  150.2047  144.1743  157.8019 H   0  0  0  0  0  0  0  0  0  0  0  0
  148.3573  141.5916  155.0707 H   0  0  0  0  0  0  0  0  0  0  0  0
  145.3809  138.7027  152.6461 H   0  0  0  0  0  0  0  0  0  0  0  0
  144.4459  136.6158  154.6377 H   0  0  0  0  0  0  0  0  0  0  0  0
  143.7110  138.1647  154.2433 H   0  0  0  0  0  0  0  0  0  0  0  0
  143.1402  135.6155  153.0533 H   0  0  0  0  0  0  0  0  0  0  0  0
  142.5526  137.1596  152.4412 H   0  0  0  0  0  0  0  0  0  0  0  0
  143.0553  135.2939  150.4086 H   0  0  0  0  0  0  0  0  0  0  0  0
  144.5906  135.6535  149.6554 H   0  0  0  0  0  0  0  0  0  0  0  0
  144.1591  133.7127  151.9786 H   0  0  0  0  0  0  0  0  0  0  0  0
  144.5946  133.2951  150.3398 H   0  0  0  0  0  0  0  0  0  0  0  0
  146.5984  133.2864  151.8276 H   0  0  0  0  0  0  0  0  0  0  0  0
  146.7640  134.4933  150.5696 H   0  0  0  0  0  0  0  0  0  0  0  0
  145.8561  134.9666  153.4384 H   0  0  0  0  0  0  0  0  0  0  0  0
  147.3985  135.4331  152.7695 H   0  0  0  0  0  0  0  0  0  0  0  0
  146.3678  137.0700  151.2381 H   0  0  0  0  0  0  0  0  0  0  0  0
  144.1753  137.3587  151.0272 H   0  0  0  0  0  0  0  0  0  0  0  0
  149.8095  143.0197  156.1120 H   0  0  0  0  0  0  0  0  0  0  0  0
  1  2  2  0  0  0  0
  2  3  1  0  0  0  0
  2 15  1  0  0  0  0
  3  4  1  0  0  0  0
  3 25  1  0  0  0  0
  4 14  1  0  0  0  0
  4  5  2  0  0  0  0
  5  6  1  0  0  0  0
  5 26  1  0  0  0  0
  6  7  2  0  0  0  0
  6 27  1  0  0  0  0
  7  8  1  0  0  0  0
  7 13  1  0  0  0  0
  8 12  1  0  0  0  0
  8  9  1  0  0  0  0
  9 10  1  0  0  0  0
  9 28  1  0  0  0  0
  9 29  1  0  0  0  0
 10 11  1  0  0  0  0
 10 30  1  0  0  0  0
 10 31  1  0  0  0  0
 11 12  1  0  0  0  0
 11 32  1  0  0  0  0
 11 33  1  0  0  0  0
 12 34  1  0  0  0  0
 12 35  1  0  0  0  0
 13 14  2  0  0  0  0
 13 52  1  0  0  0  0
 14 36  1  0  0  0  0
 15 16  1  0  0  0  0
 16 24  1  0  0  0  0
 16 17  1  0  0  0  0
 16 37  1  0  0  0  0
 17 18  1  0  0  0  0
 17 38  1  0  0  0  0
 17 39  1  0  0  0  0
 18 19  1  0  0  0  0
 18 40  1  0  0  0  0
 18 41  1  0  0  0  0
 19 24  1  0  0  0  0
 19 20  1  0  0  0  0
 19 51  1  0  0  0  0
 20 21  1  0  0  0  0
 20 42  1  0  0  0  0
 20 43  1  0  0  0  0
 21 22  1  0  0  0  0
 21 44  1  0  0  0  0
 21 45  1  0  0  0  0
 22 23  1  0  0  0  0
 22 46  1  0  0  0  0
 22 47  1  0  0  0  0
 23 24  1  0  0  0  0
 23 48  1  0  0  0  0
 23 49  1  0  0  0  0
 24 50  1  0  0  0  0
M  CHG  1  13   1
M  CHG  1  15  -1
M  CHG  1  19   1
M  END
> <s_m_source_file>
AV-unprocessed.smi

> <i_m_source_file_index>
1867

> <i_lp_mmshare_version>
43012

> <i_f3d_flags>
0

> <s_epik_input>
W0NIMl0xW0NIMl1bQ0gyXVtDSDJdW0NASF0oTjEyKVtDQEBIXShbQ0gyXVtDSDJdMilbTkhdQyg9TylbTkhdYzNbY0hdW2NIXWMobltjSF0zKU40W0NIMl1bQ0gyXVtDSDJdW0NIMl00

> <s_epik_cmdline>
J2VwaWtfcHl0aG9uJywgJy1waCcsICc3LjAnLCAnLXRuJywgJzgnLCAnLW1hJywgJzIwMCcsICctbWV0YWxfYmluZGluZycsICctaW1hZScsICc8aW5maWxlLm1hZT4nLCAnLW9tYWUnLCAnPG91dGZpbGUubWFlPic=

> <r_lp_tautomer_probability>
0.999994

> <r_epik_Ionization_Penalty>
8.56137

> <r_epik_Ionization_Penalty_Charging>
8.56136

> <r_epik_Ionization_Penalty_Neutral>
3.91889e-06

> <r_epik_State_Penalty>
8.16255

> <r_epik_Charging_Adjusted_Penalty>
16.7239

> <i_epik_Tot_Q>
1

> <i_epik_Tot_abs_Q>
3

> <r_epik_Metal_State_Penalty>
4.14279

> <b_epik_Metal_Only>
1

> <s_lp_Force_Field>
OPLS_2005

> <r_lp_Energy>
70.2226

> <b_lp_Chiralities_Consistent>
1

> <s_lp_Variant>
AV-unprocessed.smi:1867-21

> <Gold.Version>
5.8.1

> <Gold.Id.Protein>
6NUR|6NUR_protein|mol2

> <Gold.PLP.Fitness>
47.1025

> <Gold.PLP.PLP>
-38.1891

> <Gold.PLP.part.hbond>
-2.0000

> <Gold.PLP.part.metal>
0.0000

> <Gold.PLP.part.buried>
-3.4873

> <Gold.PLP.part.nonpolar>
-33.5428

> <Gold.PLP.part.repulsive>
0.4068

> <Gold.PLP.ligand.clash>
0.0000

> <Gold.PLP.ligand.torsion>
0.1714

> <Gold.PLP.Chemscore.Hbond>
3.0000

> <Gold.PLP.Chemscore.CHOScore>
0.0000

> <Gold.PLP.Chemscore.Metal>
0.0000

> <Gold.Chemscore.Hbonds>
donor molecule, donor type, donor heavy atom, donor atom, acceptor molecule, acceptor atom, score
      L1  H    13    52       P1  8028  2.00
      L1  H    19    51       P1 10171  1.00

> <Gold.PLP.Chemscore.Internal.Correction>
0.2562

> <Gold.Rescore>
     Score         DG    S(hbond)    S(metal)    S(lipo)     H(rot)  DE(clash)    DE(int)     intcor
     19.53     -21.45       2.00        0.00     101.34       1.00       0.36       1.56       ----

> <Gold.Chemscore.Fitness>
19.5349

> <Gold.Chemscore.DG>
-21.4501

> <Gold.Chemscore.ZeroCoef>
-5.4800

> <Gold.Chemscore.Hbond>
1.9979

> <Gold.Chemscore.Metal>
0.0000

> <Gold.Chemscore.Lipo>
101.3440

> <Gold.Chemscore.Internal_Hbond>
0.0000

> <Gold.Chemscore.DEClash>
0.3570

> <Gold.Chemscore.DEInternal>
1.5582

> <Gold.Chemscore.Rot>
1.0000

> <Gold.Chemscore.Internal.Correction>
   9.000000E+99

> <Gold.Chemscore.Hbonds>
donor molecule, donor type, donor heavy atom, donor atom, acceptor molecule, acceptor atom, score
      L1  H    13    52       P1  8028  0.97
      L1  H    19    51       P1 10171  1.00

> <Gold.Chemscore.Hbond.Weighted>
-6.6728

> <Gold.Chemscore.Metal.Weighted>
-0.0000

> <Gold.Chemscore.Lipo.Weighted>
-11.8573

> <Gold.Chemscore.Internal_Hbond.Weighted>
0.0000

> <Gold.Chemscore.DEClash.Weighted>
0.3570

> <Gold.Chemscore.DEInternal.Weighted>
1.5582

> <Gold.Chemscore.Rot.Weighted>
2.5600

> <Gold.Chemscore.Internal.Correction.Weighted>
   9.000000E+99

> <Gold.Protein.RotatedTorsions>
[ 6907 6896 6895 6894 ] final   62.91 input  -60.11 | X-H torsion
[ 7974 7965 7964 7962 ] final -132.68 input  175.53 | X-H torsion
[ 8008 7997 7996 7995 ] final   66.66 input   59.86 | X-H torsion
[ 10167 10162 10161 10158 ] final   12.71 input  -65.29 | X-H torsion
[ 10718 10713 10712 10709 ] final  -24.28 input   66.30 | X-H torsion
[ 10763 10752 10751 10750 ] final   27.31 input  -60.55 | X-H torsion
[ 11005 11000 10999 10996 ] final   66.91 input  -57.11 | X-H torsion

> <Gold.Protein.ActiveResidues>
 VAL166  LYS551  ARG553  GLY616  TRP617  ASP618  TYR619  PRO620  LYS621  CYS622 
 ASP623  PHE694  ASN695  SER759  ASP760  ASP761  ALA762  ILE779  LEU786  VAL792 
 PHE793  MET794  SER795  GLU796  ALA797  LYS798  CYS799  TRP800  GLU811  SER814 

> <Gold.Protein.RotatedAtoms>
  152.4211  134.5954  159.9985 H   0  0  0  0  0  0  0  0  0  0  0  0  # atno 6907 bound_to 6896
  151.6104  133.3342  159.3074 H   0  0  0  0  0  0  0  0  0  0  0  0  # atno 6908 bound_to 6896
  150.8099  134.7285  159.6744 H   0  0  0  0  0  0  0  0  0  0  0  0  # atno 6909 bound_to 6896
  144.9263  140.7075  143.4934 H   0  0  0  0  0  0  0  0  0  0  0  0  # atno 7974 bound_to 7965
  155.6808  140.3496  155.4855 H   0  0  0  0  0  0  0  0  0  0  0  0  # atno 8008 bound_to 7997
  155.9608  140.1137  157.0920 H   0  0  0  0  0  0  0  0  0  0  0  0  # atno 8009 bound_to 7997
  154.4142  140.1176  156.5162 H   0  0  0  0  0  0  0  0  0  0  0  0  # atno 8010 bound_to 7997
  140.6050  143.8526  150.7004 H   0  0  0  0  0  0  0  0  0  0  0  0  # atno 10167 bound_to 10162
  156.4797  130.4542  149.6819 H   0  0  0  0  0  0  0  0  0  0  0  0  # atno 10718 bound_to 10713
  153.0564  135.6540  154.0566 H   0  0  0  0  0  0  0  0  0  0  0  0  # atno 10763 bound_to 10752
  154.0244  135.2917  155.3378 H   0  0  0  0  0  0  0  0  0  0  0  0  # atno 10764 bound_to 10752
  154.6881  135.5293  153.8422 H   0  0  0  0  0  0  0  0  0  0  0  0  # atno 10765 bound_to 10752
  139.9803  134.6755  156.0275 H   0  0  0  0  0  0  0  0  0  0  0  0  # atno 11005 bound_to 11000
  145.3214  139.1787  143.4586 LP  0  0  0  0  0  0  0  0  0  0  0  0  # atno 17320 bound_to 7965
  146.3227  140.3231  142.8635 LP  0  0  0  0  0  0  0  0  0  0  0  0  # atno 17321 bound_to 7965
  140.2081  143.3905  152.1739 LP  0  0  0  0  0  0  0  0  0  0  0  0  # atno 17342 bound_to 10162
  139.5318  144.7168  151.5028 LP  0  0  0  0  0  0  0  0  0  0  0  0  # atno 17343 bound_to 10162
  156.3534  130.7444  151.2406 LP  0  0  0  0  0  0  0  0  0  0  0  0  # atno 17370 bound_to 10713
  157.7484  131.0371  150.4438 LP  0  0  0  0  0  0  0  0  0  0  0  0  # atno 17371 bound_to 10713
  141.1476  133.6553  156.3914 LP  0  0  0  0  0  0  0  0  0  0  0  0  # atno 17394 bound_to 11000
  140.5110  134.6395  157.5284 LP  0  0  0  0  0  0  0  0  0  0  0  0  # atno 17395 bound_to 11000

$$$$
