AV-unprocessed.smi:2549|AV-procd|sdf|10009|dock2
  -GOLD-   2272014 53D 1   1.00000     0.00000
 Structure written by MMmdl.
 18 19  0  0  0  0  0  0  0  0  2 V2000
  147.2454  132.2506  153.4343 C   0  0  0  0  0  0  0  0  0  0  0  0
  147.1760  133.2215  152.4762 C   0  0  0  0  0  0  0  0  0  0  0  0
  146.1300  132.8072  151.6775 N   0  0  0  0  0  0  0  0  0  0  0  0
  145.6082  133.4525  150.5066 C   0  0  0  0  0  0  0  0  0  0  0  0
  144.7723  134.7278  150.6121 C   0  0  0  0  0  0  0  0  0  0  0  0
  144.0199  134.2576  149.4550 N   0  3  0  0  0  0  0  0  0  0  0  0
  144.4010  132.8839  149.7613 C   0  0  0  0  0  0  0  0  0  0  0  0
  145.5917  131.6473  152.1247 N   0  0  0  0  0  0  0  0  0  0  0  0
  146.2553  131.3020  153.1826 N   0  0  0  0  0  0  0  0  0  0  0  0
  147.9175  132.1558  154.2749 H   0  0  0  0  0  0  0  0  0  0  0  0
  147.7496  134.1206  152.3051 H   0  0  0  0  0  0  0  0  0  0  0  0
  146.4475  133.5992  149.8225 H   0  0  0  0  0  0  0  0  0  0  0  0
  144.1515  134.7804  151.5086 H   0  0  0  0  0  0  0  0  0  0  0  0
  145.3213  135.6536  150.4381 H   0  0  0  0  0  0  0  0  0  0  0  0
  143.0265  134.4313  149.5121 H   0  0  0  0  0  0  0  0  0  0  0  0
  144.6429  132.2842  148.8834 H   0  0  0  0  0  0  0  0  0  0  0  0
  143.6706  132.3919  150.4065 H   0  0  0  0  0  0  0  0  0  0  0  0
  144.4366  134.5725  148.5905 H   0  0  0  0  0  0  0  0  0  0  0  0
  1  9  1  0  0  0  0
  1  2  2  0  0  0  0
  1 10  1  0  0  0  0
  2  3  1  0  0  0  0
  2 11  1  0  0  0  0
  3  4  1  0  0  0  0
  3  8  1  0  0  0  0
  4  7  1  0  0  0  0
  4  5  1  0  0  0  0
  4 12  1  0  0  0  0
  5  6  1  0  0  0  0
  5 13  1  0  0  0  0
  5 14  1  0  0  0  0
  6  7  1  0  0  0  0
  6 15  1  0  0  0  0
  6 18  1  0  0  0  0
  7 16  1  0  0  0  0
  7 17  1  0  0  0  0
  8  9  2  0  0  0  0
M  CHG  1   6   1
M  END
> <s_m_source_file>
AV-unprocessed.smi

> <i_m_source_file_index>
2549

> <i_lp_mmshare_version>
43012

> <i_f3d_flags>
0

> <s_epik_input>
bjFuW2NIXVtjSF1uMVtDSF0yW0NIMl1bTkhdW0NIMl0y

> <s_epik_cmdline>
J2VwaWtfcHl0aG9uJywgJy1waCcsICc3LjAnLCAnLXRuJywgJzgnLCAnLW1hJywgJzIwMCcsICctbWV0YWxfYmluZGluZycsICctaW1hZScsICc8aW5maWxlLm1hZT4nLCAnLW9tYWUnLCAnPG91dGZpbGUubWFlPic=

> <r_lp_tautomer_probability>
1

> <r_epik_Ionization_Penalty>
0.215038

> <r_epik_Ionization_Penalty_Charging>
0.215038

> <r_epik_Ionization_Penalty_Neutral>
7.76117e-08

> <r_epik_State_Penalty>
0.20523

> <r_epik_Charging_Adjusted_Penalty>
0.420268

> <i_epik_Tot_Q>
1

> <i_epik_Tot_abs_Q>
1

> <r_epik_Metal_State_Penalty>
0.205232

> <b_epik_Metal_Only>
0

> <s_lp_Force_Field>
OPLS_2005

> <r_lp_Energy>
15.3709

> <b_lp_Chiralities_Consistent>
1

> <s_lp_Variant>
AV-unprocessed.smi:2549-1

> <Gold.Version>
5.8.1

> <Gold.Id.Protein>
6NUR|6NUR_protein|mol2

> <Gold.PLP.Fitness>
28.2202

> <Gold.PLP.PLP>
-16.5662

> <Gold.PLP.part.hbond>
-2.0000

> <Gold.PLP.part.metal>
0.0000

> <Gold.PLP.part.buried>
-2.9653

> <Gold.PLP.part.nonpolar>
-12.1079

> <Gold.PLP.part.repulsive>
0.4272

> <Gold.PLP.ligand.clash>
0.0000

> <Gold.PLP.ligand.torsion>
0.1616

> <Gold.PLP.Chemscore.Hbond>
2.9120

> <Gold.PLP.Chemscore.CHOScore>
1.0000

> <Gold.PLP.Chemscore.Metal>
0.0000

> <Gold.Chemscore.Hbonds>
donor molecule, donor type, donor heavy atom, donor atom, acceptor molecule, acceptor atom, score
      L1  H     6    15       P1 10186  2.00
      L1  H     6    18       P1  7921  0.91
      L1  C     2    11       P1  7948  1.00

> <Gold.PLP.Chemscore.Internal.Correction>
0.2411

> <Gold.Rescore>
     Score         DG    S(hbond)    S(metal)    S(lipo)     H(rot)  DE(clash)    DE(int)     intcor
     12.95     -13.16       1.85        0.00      34.57       1.00       0.05       0.16       ----

> <Gold.Chemscore.Fitness>
12.9514

> <Gold.Chemscore.DG>
-13.1600

> <Gold.Chemscore.ZeroCoef>
-5.4800

> <Gold.Chemscore.Hbond>
1.8549

> <Gold.Chemscore.Metal>
0.0000

> <Gold.Chemscore.Lipo>
34.5706

> <Gold.Chemscore.Internal_Hbond>
0.0000

> <Gold.Chemscore.DEClash>
0.0456

> <Gold.Chemscore.DEInternal>
0.1630

> <Gold.Chemscore.Rot>
1.0000

> <Gold.Chemscore.Internal.Correction>
   9.000000E+99

> <Gold.Chemscore.Hbonds>
donor molecule, donor type, donor heavy atom, donor atom, acceptor molecule, acceptor atom, score
      L1  H     6    15       P1 10186  0.95
      L1  H     6    18       P1  7921  0.87

> <Gold.Chemscore.Hbond.Weighted>
-6.1952

> <Gold.Chemscore.Metal.Weighted>
-0.0000

> <Gold.Chemscore.Lipo.Weighted>
-4.0448

> <Gold.Chemscore.Internal_Hbond.Weighted>
0.0000

> <Gold.Chemscore.DEClash.Weighted>
0.0456

> <Gold.Chemscore.DEInternal.Weighted>
0.1630

> <Gold.Chemscore.Rot.Weighted>
2.5600

> <Gold.Chemscore.Internal.Correction.Weighted>
   9.000000E+99

> <Gold.Protein.RotatedTorsions>
[ 6907 6896 6895 6894 ] final -177.37 input  -60.11 | X-H torsion
[ 7974 7965 7964 7962 ] final  131.53 input  175.53 | X-H torsion
[ 8008 7997 7996 7995 ] final -110.42 input   59.86 | X-H torsion
[ 10167 10162 10161 10158 ] final   23.37 input  -65.29 | X-H torsion
[ 10718 10713 10712 10709 ] final  159.13 input   66.30 | X-H torsion
[ 10763 10752 10751 10750 ] final -150.60 input  -60.55 | X-H torsion
[ 11005 11000 10999 10996 ] final -131.07 input  -57.11 | X-H torsion

> <Gold.Protein.ActiveResidues>
 VAL166  LYS551  ARG553  GLY616  TRP617  ASP618  TYR619  PRO620  LYS621  CYS622 
 ASP623  PHE694  ASN695  SER759  ASP760  ASP761  ALA762  ILE779  LEU786  VAL792 
 PHE793  MET794  SER795  GLU796  ALA797  LYS798  CYS799  TRP800  GLU811  SER814 

> <Gold.Protein.RotatedAtoms>
  151.6199  133.3340  159.3085 H   0  0  0  0  0  0  0  0  0  0  0  0  # atno 6907 bound_to 6896
  150.8112  134.7271  159.6701 H   0  0  0  0  0  0  0  0  0  0  0  0  # atno 6908 bound_to 6896
  152.4208  134.5963  160.0039 H   0  0  0  0  0  0  0  0  0  0  0  0  # atno 6909 bound_to 6896
  145.0064  139.4262  143.5267 H   0  0  0  0  0  0  0  0  0  0  0  0  # atno 7974 bound_to 7965
  154.9742  140.0397  157.2248 H   0  0  0  0  0  0  0  0  0  0  0  0  # atno 8008 bound_to 7997
  154.7773  140.2812  155.6068 H   0  0  0  0  0  0  0  0  0  0  0  0  # atno 8009 bound_to 7997
  156.2931  140.2598  156.2590 H   0  0  0  0  0  0  0  0  0  0  0  0  # atno 8010 bound_to 7997
  140.5274  143.9899  150.6448 H   0  0  0  0  0  0  0  0  0  0  0  0  # atno 10167 bound_to 10162
  157.1684  131.0604  151.2196 H   0  0  0  0  0  0  0  0  0  0  0  0  # atno 10718 bound_to 10713
  154.8109  135.3280  154.7307 H   0  0  0  0  0  0  0  0  0  0  0  0  # atno 10763 bound_to 10752
  153.7956  135.6907  153.4868 H   0  0  0  0  0  0  0  0  0  0  0  0  # atno 10764 bound_to 10752
  153.1888  135.4559  155.0068 H   0  0  0  0  0  0  0  0  0  0  0  0  # atno 10765 bound_to 10752
  140.9291  134.1343  157.4250 H   0  0  0  0  0  0  0  0  0  0  0  0  # atno 11005 bound_to 11000
  146.3462  139.9482  142.8732 LP  0  0  0  0  0  0  0  0  0  0  0  0  # atno 17320 bound_to 7965
  145.2083  140.9884  143.4115 LP  0  0  0  0  0  0  0  0  0  0  0  0  # atno 17321 bound_to 7965
  140.3265  143.3104  152.0731 LP  0  0  0  0  0  0  0  0  0  0  0  0  # atno 17342 bound_to 10162
  139.4943  144.6538  151.6616 LP  0  0  0  0  0  0  0  0  0  0  0  0  # atno 17343 bound_to 10162
  157.4066  130.7362  149.6807 LP  0  0  0  0  0  0  0  0  0  0  0  0  # atno 17370 bound_to 10713
  155.9742  130.4106  150.3940 LP  0  0  0  0  0  0  0  0  0  0  0  0  # atno 17371 bound_to 10713
  139.8792  134.9999  156.5978 LP  0  0  0  0  0  0  0  0  0  0  0  0  # atno 17394 bound_to 11000
  140.7886  133.8600  155.8627 LP  0  0  0  0  0  0  0  0  0  0  0  0  # atno 17395 bound_to 11000

$$$$
