AV-unprocessed.smi:164|AV-procd|sdf|1382|dock1
  -GOLD-   2262019113D 1   1.00000     0.00000
 Structure written by MMmdl.
 53 55  0  0  0  0  0  0  0  0  1 V2000
  151.0130  145.3605  159.1986 C   0  0  0  0  0  0  0  0  0  0  0  0
  151.7311  144.1401  159.7488 C   0  0  0  0  0  0  0  0  0  0  0  0
  152.1476  144.1429  161.0957 C   0  0  0  0  0  0  0  0  0  0  0  0
  152.8130  143.0295  161.6381 C   0  0  0  0  0  0  0  0  0  0  0  0
  153.0635  141.8961  160.8406 C   0  0  0  0  0  0  0  0  0  0  0  0
  153.7861  140.7051  161.4431 C   0  0  0  0  0  0  0  0  0  0  0  0
  152.6371  141.8779  159.4923 C   0  0  0  0  0  0  0  0  0  0  0  0
  152.8745  140.7692  158.7213 O   0  0  0  0  0  0  0  0  0  0  0  0
  151.6908  140.1028  158.3063 C   0  0  0  0  0  0  0  0  0  0  0  0
  152.0784  138.8402  157.5199 C   0  0  2  0  0  0  0  0  0  0  0  0
  153.1671  139.1907  156.6883 O   0  0  0  0  0  0  0  0  0  0  0  0
  150.9233  138.3478  156.6188 C   0  0  0  0  0  0  0  0  0  0  0  0
  149.6564  138.2315  157.3234 N   0  0  0  0  0  0  0  0  0  0  0  0
  148.5616  138.9849  156.8344 C   0  0  0  0  0  0  0  0  0  0  0  0
  148.6517  139.6974  155.8328 O   0  0  0  0  0  0  0  0  0  0  0  0
  147.3434  138.8633  157.6260 C   0  0  0  0  0  0  0  0  0  0  0  0
  146.2516  139.5638  157.2758 F   0  0  0  0  0  0  0  0  0  0  0  0
  147.2980  138.0741  158.7210 C   0  0  0  0  0  0  0  0  0  0  0  0
  148.3758  137.3188  159.1608 N   0  0  0  0  0  0  0  0  0  0  0  0
  148.3389  136.5040  160.4455 C   0  0  2  0  0  0  0  0  0  0  0  0
  147.3484  135.3321  160.4243 C   0  0  0  0  0  0  0  0  0  0  0  0
  146.1136  135.9035  161.1171 C   0  0  0  0  0  0  0  0  0  0  0  0
  146.5003  137.3400  161.4843 C   0  0  0  0  0  0  0  0  0  0  0  0
  147.9212  137.3342  161.4817 O   0  0  0  0  0  0  0  0  0  0  0  0
  149.6122  137.4232  158.4838 C   0  0  0  0  0  0  0  0  0  0  0  0
  150.6117  136.8336  158.9015 O   0  0  0  0  0  0  0  0  0  0  0  0
  151.9856  143.0071  158.9358 C   0  0  0  0  0  0  0  0  0  0  0  0
  151.5565  142.9954  157.4745 C   0  0  0  0  0  0  0  0  0  0  0  0
  150.7566  146.0620  159.9931 H   0  0  0  0  0  0  0  0  0  0  0  0
  150.0873  145.0721  158.6999 H   0  0  0  0  0  0  0  0  0  0  0  0
  151.6465  145.8826  158.4812 H   0  0  0  0  0  0  0  0  0  0  0  0
  151.9605  145.0033  161.7215 H   0  0  0  0  0  0  0  0  0  0  0  0
  153.1289  143.0486  162.6709 H   0  0  0  0  0  0  0  0  0  0  0  0
  154.4681  140.2551  160.7212 H   0  0  0  0  0  0  0  0  0  0  0  0
  153.0680  139.9477  161.7575 H   0  0  0  0  0  0  0  0  0  0  0  0
  154.3715  141.0016  162.3139 H   0  0  0  0  0  0  0  0  0  0  0  0
  151.1360  139.8254  159.2031 H   0  0  0  0  0  0  0  0  0  0  0  0
  151.0374  140.7509  157.7185 H   0  0  0  0  0  0  0  0  0  0  0  0
  152.3783  138.0565  158.2165 H   0  0  0  0  0  0  0  0  0  0  0  0
  153.0393  138.7902  155.8417 H   0  0  0  0  0  0  0  0  0  0  0  0
  150.7451  139.0367  155.7912 H   0  0  0  0  0  0  0  0  0  0  0  0
  151.1472  137.3991  156.1280 H   0  0  0  0  0  0  0  0  0  0  0  0
  146.3707  138.0607  159.2715 H   0  0  0  0  0  0  0  0  0  0  0  0
  149.3619  136.1555  160.5971 H   0  0  0  0  0  0  0  0  0  0  0  0
  147.1792  134.9390  159.4221 H   0  0  0  0  0  0  0  0  0  0  0  0
  147.7649  134.5247  161.0277 H   0  0  0  0  0  0  0  0  0  0  0  0
  145.2305  135.8783  160.4780 H   0  0  0  0  0  0  0  0  0  0  0  0
  145.8902  135.3265  162.0151 H   0  0  0  0  0  0  0  0  0  0  0  0
  146.1332  138.0454  160.7376 H   0  0  0  0  0  0  0  0  0  0  0  0
  146.1070  137.6446  162.4542 H   0  0  0  0  0  0  0  0  0  0  0  0
  152.0827  142.2343  156.8989 H   0  0  0  0  0  0  0  0  0  0  0  0
  151.7638  143.9520  156.9954 H   0  0  0  0  0  0  0  0  0  0  0  0
  150.4873  142.7964  157.3991 H   0  0  0  0  0  0  0  0  0  0  0  0
  1  2  1  0  0  0  0
  1 29  1  0  0  0  0
  1 30  1  0  0  0  0
  1 31  1  0  0  0  0
  2 27  1  0  0  0  0
  2  3  2  0  0  0  0
  3  4  1  0  0  0  0
  3 32  1  0  0  0  0
  4  5  2  0  0  0  0
  4 33  1  0  0  0  0
  5  6  1  0  0  0  0
  5  7  1  0  0  0  0
  6 34  1  0  0  0  0
  6 35  1  0  0  0  0
  6 36  1  0  0  0  0
  7  8  1  0  0  0  0
  7 27  2  0  0  0  0
  8  9  1  0  0  0  0
  9 10  1  0  0  0  0
  9 37  1  0  0  0  0
  9 38  1  0  0  0  0
 10 11  1  0  0  0  0
 10 12  1  0  0  0  0
 10 39  1  0  0  0  0
 11 40  1  0  0  0  0
 12 13  1  0  0  0  0
 12 41  1  0  0  0  0
 12 42  1  0  0  0  0
 13 25  1  0  0  0  0
 13 14  1  0  0  0  0
 14 15  2  0  0  0  0
 14 16  1  0  0  0  0
 16 17  1  0  0  0  0
 16 18  2  0  0  0  0
 18 19  1  0  0  0  0
 18 43  1  0  0  0  0
 19 20  1  0  0  0  0
 19 25  1  0  0  0  0
 20 24  1  0  0  0  0
 20 21  1  0  0  0  0
 20 44  1  0  0  0  0
 21 22  1  0  0  0  0
 21 45  1  0  0  0  0
 21 46  1  0  0  0  0
 22 23  1  0  0  0  0
 22 47  1  0  0  0  0
 22 48  1  0  0  0  0
 23 24  1  0  0  0  0
 23 49  1  0  0  0  0
 23 50  1  0  0  0  0
 25 26  2  0  0  0  0
 27 28  1  0  0  0  0
 28 51  1  0  0  0  0
 28 52  1  0  0  0  0
 28 53  1  0  0  0  0
M  END
> <s_m_source_file>
AV-unprocessed.smi

> <i_m_source_file_index>
164

> <i_lp_mmshare_version>
43012

> <i_f3d_flags>
0

> <s_epik_input>
W0NIM11jMVtjSF1bY0hdYyhbQ0gzXSljKGMxW0NIM10pT1tDSDJdW0NASF0oW09IXSlbQ0gyXW4yYyg9TyljKEYpW2NIXW4oYzI9TylbQ0BASF0zW0NIMl1bQ0gyXVtDSDJdTzM=

> <s_epik_cmdline>
J2VwaWtfcHl0aG9uJywgJy1waCcsICc3LjAnLCAnLXRuJywgJzgnLCAnLW1hJywgJzIwMCcsICctbWV0YWxfYmluZGluZycsICctaW1hZScsICc8aW5maWxlLm1hZT4nLCAnLW9tYWUnLCAnPG91dGZpbGUubWFlPic=

> <r_lp_tautomer_probability>
1

> <r_epik_Ionization_Penalty>
1.45842e-07

> <r_epik_Ionization_Penalty_Charging>
2.86622e-08

> <r_epik_Ionization_Penalty_Neutral>
1.1718e-07

> <r_epik_State_Penalty>
-0

> <r_epik_Charging_Adjusted_Penalty>
2.86622e-08

> <i_epik_Tot_Q>
0

> <i_epik_Tot_abs_Q>
0

> <r_epik_Metal_State_Penalty>
-0

> <b_epik_Metal_Only>
0

> <s_epik_Chemistry_Notes>
This compound contains an acetal/aminal-like group ( X-CH(R)-Y where X, Y are N, S, or O) that may be acid/base labile, releasing an aldehyde.

> <s_lp_Force_Field>
OPLS_2005

> <r_lp_Energy>
44.8383

> <b_lp_Chiralities_Consistent>
1

> <s_lp_Variant>
AV-unprocessed.smi:164-1

> <Gold.Version>
5.8.1

> <Gold.Id.Protein>
6NUR|6NUR_protein|mol2

> <Gold.PLP.Fitness>
55.7803

> <Gold.PLP.PLP>
-48.1453

> <Gold.PLP.part.hbond>
-3.3916

> <Gold.PLP.part.metal>
0.0000

> <Gold.PLP.part.buried>
-5.5400

> <Gold.PLP.part.nonpolar>
-40.1467

> <Gold.PLP.part.repulsive>
0.0000

> <Gold.PLP.ligand.clash>
1.0508

> <Gold.PLP.ligand.torsion>
0.3377

> <Gold.PLP.Chemscore.Hbond>
3.0000

> <Gold.PLP.Chemscore.CHOScore>
0.0000

> <Gold.PLP.Chemscore.Metal>
0.0000

> <Gold.Chemscore.Hbonds>
donor molecule, donor type, donor heavy atom, donor atom, acceptor molecule, acceptor atom, score
      P1  H  6896  6908       L1    26  0.93
      P1  H  6931  6943       L1    24  0.93
      P1  H  7997  8008       L1    11  0.90

> <Gold.PLP.Chemscore.Internal.Correction>
0.3611

> <Gold.Rescore>
     Score         DG    S(hbond)    S(metal)    S(lipo)     H(rot)  DE(clash)    DE(int)     intcor
     20.18     -23.45       2.84        0.00     132.19       2.73       0.23       3.04       ----

> <Gold.Chemscore.Fitness>
20.1753

> <Gold.Chemscore.DG>
-23.4526

> <Gold.Chemscore.ZeroCoef>
-5.4800

> <Gold.Chemscore.Hbond>
2.8440

> <Gold.Chemscore.Metal>
0.0000

> <Gold.Chemscore.Lipo>
132.1900

> <Gold.Chemscore.Internal_Hbond>
0.0000

> <Gold.Chemscore.DEClash>
0.2323

> <Gold.Chemscore.DEInternal>
3.0449

> <Gold.Chemscore.Rot>
2.7315

> <Gold.Chemscore.Internal.Correction>
   9.000000E+99

> <Gold.Chemscore.Hbonds>
donor molecule, donor type, donor heavy atom, donor atom, acceptor molecule, acceptor atom, score
      P1  H  6896  6908       L1    26  0.87
      P1  H  6931  6943       L1    24  0.66
      P1  H  7997  8008       L1    11  0.17

> <Gold.Chemscore.Hbond.Weighted>
-9.4989

> <Gold.Chemscore.Metal.Weighted>
-0.0000

> <Gold.Chemscore.Lipo.Weighted>
-15.4662

> <Gold.Chemscore.Internal_Hbond.Weighted>
0.0000

> <Gold.Chemscore.DEClash.Weighted>
0.2323

> <Gold.Chemscore.DEInternal.Weighted>
3.0449

> <Gold.Chemscore.Rot.Weighted>
6.9925

> <Gold.Chemscore.Internal.Correction.Weighted>
   9.000000E+99

> <Gold.Protein.RotatedTorsions>
[ 6907 6896 6895 6894 ] final -156.28 input  -60.11 | X-H torsion
[ 7974 7965 7964 7962 ] final   35.44 input  175.53 | X-H torsion
[ 8008 7997 7996 7995 ] final  -39.39 input   59.86 | X-H torsion
[ 10167 10162 10161 10158 ] final  113.95 input  -65.29 | X-H torsion
[ 10718 10713 10712 10709 ] final   59.23 input   66.30 | X-H torsion
[ 10763 10752 10751 10750 ] final   53.95 input  -60.55 | X-H torsion
[ 11005 11000 10999 10996 ] final  176.02 input  -57.11 | X-H torsion

> <Gold.Protein.ActiveResidues>
 VAL166  LYS551  ARG553  GLY616  TRP617  ASP618  TYR619  PRO620  LYS621  CYS622 
 ASP623  PHE694  ASN695  SER759  ASP760  ASP761  ALA762  ILE779  LEU786  VAL792 
 PHE793  MET794  SER795  GLU796  ALA797  LYS798  CYS799  TRP800  GLU811  SER814 

> <Gold.Protein.RotatedAtoms>
  151.2852  133.4191  159.2629 H   0  0  0  0  0  0  0  0  0  0  0  0  # atno 6907 bound_to 6896
  151.0326  134.9550  159.8129 H   0  0  0  0  0  0  0  0  0  0  0  0  # atno 6908 bound_to 6896
  152.5349  134.2812  159.9061 H   0  0  0  0  0  0  0  0  0  0  0  0  # atno 6909 bound_to 6896
  146.1283  139.6142  142.9244 H   0  0  0  0  0  0  0  0  0  0  0  0  # atno 7974 bound_to 7965
  154.4024  140.1553  156.2855 H   0  0  0  0  0  0  0  0  0  0  0  0  # atno 8008 bound_to 7997
  155.8831  140.3443  155.5880 H   0  0  0  0  0  0  0  0  0  0  0  0  # atno 8009 bound_to 7997
  155.7644  140.0822  157.2130 H   0  0  0  0  0  0  0  0  0  0  0  0  # atno 8010 bound_to 7997
  139.6424  144.7124  151.2210 H   0  0  0  0  0  0  0  0  0  0  0  0  # atno 10167 bound_to 10162
  157.5659  130.8870  149.9186 H   0  0  0  0  0  0  0  0  0  0  0  0  # atno 10718 bound_to 10713
  152.9800  135.5761  154.4824 H   0  0  0  0  0  0  0  0  0  0  0  0  # atno 10763 bound_to 10752
  154.4371  135.2775  155.1875 H   0  0  0  0  0  0  0  0  0  0  0  0  # atno 10764 bound_to 10752
  154.3559  135.6199  153.5719 H   0  0  0  0  0  0  0  0  0  0  0  0  # atno 10765 bound_to 10752
  140.3686  134.7050  157.4377 H   0  0  0  0  0  0  0  0  0  0  0  0  # atno 11005 bound_to 11000
  145.5317  141.0426  143.2379 LP  0  0  0  0  0  0  0  0  0  0  0  0  # atno 17320 bound_to 7965
  144.7664  139.6835  143.7213 LP  0  0  0  0  0  0  0  0  0  0  0  0  # atno 17321 bound_to 7965
  140.7497  143.6289  150.8442 LP  0  0  0  0  0  0  0  0  0  0  0  0  # atno 17342 bound_to 10162
  139.9928  143.5828  152.2904 LP  0  0  0  0  0  0  0  0  0  0  0  0  # atno 17343 bound_to 10162
  156.0707  130.3685  150.0781 LP  0  0  0  0  0  0  0  0  0  0  0  0  # atno 17370 bound_to 10713
  156.8940  130.9598  151.3585 LP  0  0  0  0  0  0  0  0  0  0  0  0  # atno 17371 bound_to 10713
  140.0570  134.6050  155.8793 LP  0  0  0  0  0  0  0  0  0  0  0  0  # atno 17394 bound_to 11000
  141.1962  133.6590  156.5679 LP  0  0  0  0  0  0  0  0  0  0  0  0  # atno 17395 bound_to 11000

$$$$
