AV-unprocessed.smi:470|AV-procd|sdf|2656|dock6
  -GOLD-   2262023 63D 1   1.00000     0.00000
 Structure written by MMmdl.
 32 33  0  0  0  0  0  0  0  0  2 V2000
  149.4601  135.9607  154.5837 N   0  0  0  0  0  0  0  0  0  0  0  0
  150.3960  136.7040  155.1818 C   0  0  0  0  0  0  0  0  0  0  0  0
  150.6957  136.5546  156.3649 O   0  0  0  0  0  0  0  0  0  0  0  0
  151.0873  137.7768  154.3359 C   0  0  0  0  0  0  0  0  0  0  0  0
  150.8469  139.1402  154.9160 C   0  0  0  0  0  0  0  0  0  0  0  0
  149.9817  140.0958  154.4495 C   0  0  0  0  0  0  0  0  0  0  0  0
  150.0111  141.5277  155.4380 S   0  0  0  0  0  0  0  0  0  0  0  0
  151.2074  140.7664  156.4881 C   0  0  0  0  0  0  0  0  0  0  0  0
  151.7566  141.3370  157.5743 N   0  5  0  0  0  0  0  0  0  0  0  0
  151.4335  142.5747  158.0468 C   0  0  0  0  0  0  0  0  0  0  0  0
  150.2969  143.0432  158.0402 O   0  0  0  0  0  0  0  0  0  0  0  0
  152.5927  143.4354  158.6343 C   0  0  2  0  0  0  0  0  0  0  0  0
  153.2596  142.7549  159.8560 C   0  0  0  0  0  0  0  0  0  0  0  0
  152.5344  143.0165  161.1640 C   0  0  0  0  0  0  0  0  0  0  0  0
  151.6535  144.0149  161.3395 C   0  0  0  0  0  0  0  0  0  0  0  0
  151.2684  144.9978  160.2499 C   0  0  0  0  0  0  0  0  0  0  0  0
  152.1615  144.8802  158.9945 C   0  0  0  0  0  0  0  0  0  0  0  0
  151.5486  139.5479  156.0539 N   0  0  0  0  0  0  0  0  0  0  0  0
  148.9946  135.2275  155.0981 H   0  0  0  0  0  0  0  0  0  0  0  0
  149.2379  136.1220  153.6112 H   0  0  0  0  0  0  0  0  0  0  0  0
  152.1545  137.5571  154.2841 H   0  0  0  0  0  0  0  0  0  0  0  0
  150.7130  137.7266  153.3127 H   0  0  0  0  0  0  0  0  0  0  0  0
  149.3293  140.0435  153.5910 H   0  0  0  0  0  0  0  0  0  0  0  0
  153.3613  143.5683  157.8743 H   0  0  0  0  0  0  0  0  0  0  0  0
  153.3165  141.6761  159.7132 H   0  0  0  0  0  0  0  0  0  0  0  0
  154.2872  143.1029  159.9630 H   0  0  0  0  0  0  0  0  0  0  0  0
  152.7736  142.3631  161.9900 H   0  0  0  0  0  0  0  0  0  0  0  0
  151.1713  144.1402  162.2976 H   0  0  0  0  0  0  0  0  0  0  0  0
  150.2219  144.8295  159.9970 H   0  0  0  0  0  0  0  0  0  0  0  0
  151.3266  146.0110  160.6480 H   0  0  0  0  0  0  0  0  0  0  0  0
  153.0666  145.4645  159.1653 H   0  0  0  0  0  0  0  0  0  0  0  0
  151.6664  145.3528  158.1452 H   0  0  0  0  0  0  0  0  0  0  0  0
  1  2  1  0  0  0  0
  1 19  1  0  0  0  0
  1 20  1  0  0  0  0
  2  3  2  0  0  0  0
  2  4  1  0  0  0  0
  4  5  1  0  0  0  0
  4 21  1  0  0  0  0
  4 22  1  0  0  0  0
  5 18  1  0  0  0  0
  5  6  2  0  0  0  0
  6  7  1  0  0  0  0
  6 23  1  0  0  0  0
  7  8  1  0  0  0  0
  8  9  1  0  0  0  0
  8 18  2  0  0  0  0
  9 10  1  0  0  0  0
 10 11  2  0  0  0  0
 10 12  1  0  0  0  0
 12 17  1  0  0  0  0
 12 13  1  0  0  0  0
 12 24  1  0  0  0  0
 13 14  1  0  0  0  0
 13 25  1  0  0  0  0
 13 26  1  0  0  0  0
 14 15  2  0  0  0  0
 14 27  1  0  0  0  0
 15 16  1  0  0  0  0
 15 28  1  0  0  0  0
 16 17  1  0  0  0  0
 16 29  1  0  0  0  0
 16 30  1  0  0  0  0
 17 31  1  0  0  0  0
 17 32  1  0  0  0  0
M  CHG  1   9  -1
M  END
> <s_m_source_file>
AV-unprocessed.smi

> <i_m_source_file_index>
470

> <i_lp_mmshare_version>
43012

> <i_f3d_flags>
0

> <s_epik_input>
W05IMl1DKD1PKVtDSDJdYzFbY0hdc2MobjEpW05IXUMoPU8pW0NAQEhdMltDSDJdW0NIXT1bQ0hdW0NIMl1bQ0gyXTI=

> <s_epik_cmdline>
J2VwaWtfcHl0aG9uJywgJy1waCcsICc3LjAnLCAnLXRuJywgJzgnLCAnLW1hJywgJzIwMCcsICctbWV0YWxfYmluZGluZycsICctaW1hZScsICc8aW5maWxlLm1hZT4nLCAnLW9tYWUnLCAnPG91dGZpbGUubWFlPic=

> <r_lp_tautomer_probability>
1

> <r_epik_Ionization_Penalty>
4.98985

> <r_epik_Ionization_Penalty_Charging>
4.63309

> <r_epik_Ionization_Penalty_Neutral>
0.356756

> <r_epik_State_Penalty>
4.63286

> <r_epik_Charging_Adjusted_Penalty>
9.26595

> <i_epik_Tot_Q>
-1

> <i_epik_Tot_abs_Q>
1

> <r_epik_Metal_State_Penalty>
0.88943

> <b_epik_Metal_Only>
1

> <s_lp_Force_Field>
OPLS_2005

> <r_lp_Energy>
8.68427

> <b_lp_Chiralities_Consistent>
1

> <s_lp_Variant>
AV-unprocessed.smi:470-3

> <Gold.Version>
5.8.1

> <Gold.Id.Protein>
6NUR|6NUR_protein|mol2

> <Gold.PLP.Fitness>
48.0204

> <Gold.PLP.PLP>
-43.0325

> <Gold.PLP.part.hbond>
-1.0000

> <Gold.PLP.part.metal>
0.0000

> <Gold.PLP.part.buried>
-3.7087

> <Gold.PLP.part.nonpolar>
-38.7483

> <Gold.PLP.part.repulsive>
0.1937

> <Gold.PLP.ligand.clash>
0.0000

> <Gold.PLP.ligand.torsion>
0.5344

> <Gold.PLP.Chemscore.Hbond>
1.0000

> <Gold.PLP.Chemscore.CHOScore>
1.0000

> <Gold.PLP.Chemscore.Metal>
0.0000

> <Gold.Chemscore.Hbonds>
donor molecule, donor type, donor heavy atom, donor atom, acceptor molecule, acceptor atom, score
      L1  H     1    20       P1  7948  1.00
      L1  C     6    23       P1  7957  1.00

> <Gold.PLP.Chemscore.Internal.Correction>
0.0567

> <Gold.Rescore>
     Score         DG    S(hbond)    S(metal)    S(lipo)     H(rot)  DE(clash)    DE(int)     intcor
     15.67     -16.30       0.98        0.00     105.27       1.87       0.01       0.63       ----

> <Gold.Chemscore.Fitness>
15.6650

> <Gold.Chemscore.DG>
-16.2998

> <Gold.Chemscore.ZeroCoef>
-5.4800

> <Gold.Chemscore.Hbond>
0.9843

> <Gold.Chemscore.Metal>
0.0000

> <Gold.Chemscore.Lipo>
105.2714

> <Gold.Chemscore.Internal_Hbond>
0.0000

> <Gold.Chemscore.DEClash>
0.0077

> <Gold.Chemscore.DEInternal>
0.6270

> <Gold.Chemscore.Rot>
1.8689

> <Gold.Chemscore.Internal.Correction>
   9.000000E+99

> <Gold.Chemscore.Hbonds>
donor molecule, donor type, donor heavy atom, donor atom, acceptor molecule, acceptor atom, score
      L1  H     1    20       P1  7948  0.85

> <Gold.Chemscore.Hbond.Weighted>
-3.2875

> <Gold.Chemscore.Metal.Weighted>
-0.0000

> <Gold.Chemscore.Lipo.Weighted>
-12.3168

> <Gold.Chemscore.Internal_Hbond.Weighted>
0.0000

> <Gold.Chemscore.DEClash.Weighted>
0.0077

> <Gold.Chemscore.DEInternal.Weighted>
0.6270

> <Gold.Chemscore.Rot.Weighted>
4.7844

> <Gold.Chemscore.Internal.Correction.Weighted>
   9.000000E+99

> <Gold.Protein.RotatedTorsions>
[ 6907 6896 6895 6894 ] final  -55.73 input  -60.11 | X-H torsion
[ 7974 7965 7964 7962 ] final  100.93 input  175.53 | X-H torsion
[ 8008 7997 7996 7995 ] final  -42.66 input   59.86 | X-H torsion
[ 10167 10162 10161 10158 ] final  170.65 input  -65.29 | X-H torsion
[ 10718 10713 10712 10709 ] final -170.54 input   66.30 | X-H torsion
[ 10763 10752 10751 10750 ] final  145.31 input  -60.55 | X-H torsion
[ 11005 11000 10999 10996 ] final  154.42 input  -57.11 | X-H torsion

> <Gold.Protein.ActiveResidues>
 VAL166  LYS551  ARG553  GLY616  TRP617  ASP618  TYR619  PRO620  LYS621  CYS622 
 ASP623  PHE694  ASN695  SER759  ASP760  ASP761  ALA762  ILE779  LEU786  VAL792 
 PHE793  MET794  SER795  GLU796  ALA797  LYS798  CYS799  TRP800  GLU811  SER814 

> <Gold.Protein.RotatedAtoms>
  150.8227  134.7443  159.6785 H   0  0  0  0  0  0  0  0  0  0  0  0  # atno 6907 bound_to 6896
  152.4341  134.5717  159.9933 H   0  0  0  0  0  0  0  0  0  0  0  0  # atno 6908 bound_to 6896
  151.5897  133.3330  159.3061 H   0  0  0  0  0  0  0  0  0  0  0  0  # atno 6909 bound_to 6896
  145.3791  139.2383  143.3413 H   0  0  0  0  0  0  0  0  0  0  0  0  # atno 7974 bound_to 7965
  154.3998  140.1468  156.3391 H   0  0  0  0  0  0  0  0  0  0  0  0  # atno 8008 bound_to 7997
  155.8372  140.3463  155.5588 H   0  0  0  0  0  0  0  0  0  0  0  0  # atno 8009 bound_to 7997
  155.8125  140.0886  157.1886 H   0  0  0  0  0  0  0  0  0  0  0  0  # atno 8010 bound_to 7997
  139.5024  144.3573  151.9861 H   0  0  0  0  0  0  0  0  0  0  0  0  # atno 10167 bound_to 10162
  156.7277  130.9294  151.3102 H   0  0  0  0  0  0  0  0  0  0  0  0  # atno 10718 bound_to 10713
  154.0034  135.2921  155.3400 H   0  0  0  0  0  0  0  0  0  0  0  0  # atno 10763 bound_to 10752
  154.7146  135.5135  153.8721 H   0  0  0  0  0  0  0  0  0  0  0  0  # atno 10764 bound_to 10752
  153.0756  135.6662  154.0273 H   0  0  0  0  0  0  0  0  0  0  0  0  # atno 10765 bound_to 10752
  140.1487  134.8689  157.2427 H   0  0  0  0  0  0  0  0  0  0  0  0  # atno 11005 bound_to 11000
  146.2850  140.4455  142.8761 LP  0  0  0  0  0  0  0  0  0  0  0  0  # atno 17320 bound_to 7965
  144.8521  140.7016  143.6162 LP  0  0  0  0  0  0  0  0  0  0  0  0  # atno 17321 bound_to 7965
  140.3009  144.3647  150.6060 LP  0  0  0  0  0  0  0  0  0  0  0  0  # atno 17342 bound_to 10162
  140.5874  143.2169  151.7317 LP  0  0  0  0  0  0  0  0  0  0  0  0  # atno 17343 bound_to 10162
  157.6872  130.9197  150.0417 LP  0  0  0  0  0  0  0  0  0  0  0  0  # atno 17370 bound_to 10713
  156.1550  130.3643  149.9382 LP  0  0  0  0  0  0  0  0  0  0  0  0  # atno 17371 bound_to 10713
  140.2631  134.3548  155.7399 LP  0  0  0  0  0  0  0  0  0  0  0  0  # atno 17394 bound_to 11000
  141.2196  133.7380  156.9110 LP  0  0  0  0  0  0  0  0  0  0  0  0  # atno 17395 bound_to 11000

$$$$
