AV-unprocessed.smi:199|AV-procd|sdf|1574|dock1
  -GOLD-   2262019453D 1   1.00000     0.00000
 Structure written by MMmdl.
 51 55  0  0  0  0  0  0  0  0  1 V2000
  150.1272  141.6744  155.7645 C   0  0  0  0  0  0  0  0  0  0  0  0
  148.8261  140.8581  155.6679 C   0  0  2  0  0  0  0  0  0  0  0  0
  148.9727  139.7527  156.5616 O   0  0  0  0  0  0  0  0  0  0  0  0
  148.7701  138.5230  155.8786 C   0  0  0  0  0  0  0  0  0  0  0  0
  149.0891  138.8444  154.4264 C   0  0  0  0  0  0  0  0  0  0  0  0
  148.5185  140.2497  154.2768 C   0  0  2  0  0  0  0  0  0  0  0  0
  149.1984  140.9148  153.2268 O   0  0  0  0  0  0  0  0  0  0  0  0
  146.9959  140.2856  153.9758 C   0  0  0  0  0  0  0  0  0  0  0  0
  146.4910  139.0993  153.3004 N   0  0  0  0  0  0  0  0  0  0  0  0
  146.7881  138.6908  152.0203 C   0  0  0  0  0  0  0  0  0  0  0  0
  146.2099  137.5843  151.6420 N   0  0  0  0  0  0  0  0  0  0  0  0
  145.4653  137.1894  152.7476 C   0  0  0  0  0  0  0  0  0  0  0  0
  144.6074  136.0875  153.0313 C   0  0  0  0  0  0  0  0  0  0  0  0
  144.3233  135.1046  152.1355 N   0  0  0  0  0  0  0  0  0  0  0  0
  144.9605  135.0577  150.8288 C   0  0  2  0  0  0  0  0  0  0  0  0
  144.1597  133.9521  150.1193 C   0  0  0  0  0  0  0  0  0  0  0  0
  143.8621  132.9977  151.2888 C   0  0  0  0  0  0  0  0  0  0  0  0
  144.5822  133.7070  152.4499 C   0  0  1  0  0  0  0  0  0  0  0  0
  146.1100  133.5260  152.2610 C   0  0  2  0  0  0  0  0  0  0  0  0
  146.9370  133.7688  153.5383 C   0  0  0  0  0  0  0  0  0  0  0  0
  148.3017  133.9174  153.2098 O   0  0  0  0  0  0  0  0  0  0  0  0
  146.3819  134.5391  151.1299 C   0  0  0  0  0  0  0  0  0  0  0  0
  144.0708  136.0219  154.2788 N   0  0  0  0  0  0  0  0  0  0  0  0
  144.3257  136.9756  155.1783 C   0  0  0  0  0  0  0  0  0  0  0  0
  145.0853  138.0636  155.0460 N   0  0  0  0  0  0  0  0  0  0  0  0
  145.6435  138.1283  153.8041 C   0  0  0  0  0  0  0  0  0  0  0  0
  150.0816  142.5695  155.1438 H   0  0  0  0  0  0  0  0  0  0  0  0
  150.9908  141.0878  155.4491 H   0  0  0  0  0  0  0  0  0  0  0  0
  150.3047  141.9989  156.7900 H   0  0  0  0  0  0  0  0  0  0  0  0
  147.9988  141.4829  156.0074 H   0  0  0  0  0  0  0  0  0  0  0  0
  149.4025  137.7330  156.2835 H   0  0  0  0  0  0  0  0  0  0  0  0
  147.7296  138.2153  155.9896 H   0  0  0  0  0  0  0  0  0  0  0  0
  150.1728  138.8593  154.2984 H   0  0  0  0  0  0  0  0  0  0  0  0
  148.6908  138.1114  153.7264 H   0  0  0  0  0  0  0  0  0  0  0  0
  149.5431  140.2649  152.6334 H   0  0  0  0  0  0  0  0  0  0  0  0
  146.4285  140.4110  154.8984 H   0  0  0  0  0  0  0  0  0  0  0  0
  146.7573  141.1541  153.3601 H   0  0  0  0  0  0  0  0  0  0  0  0
  147.4472  139.2467  151.3690 H   0  0  0  0  0  0  0  0  0  0  0  0
  144.9494  135.9994  150.2788 H   0  0  0  0  0  0  0  0  0  0  0  0
  143.2326  134.3463  149.7012 H   0  0  0  0  0  0  0  0  0  0  0  0
  144.7214  133.4769  149.3143 H   0  0  0  0  0  0  0  0  0  0  0  0
  142.7885  132.9465  151.4743 H   0  0  0  0  0  0  0  0  0  0  0  0
  144.2229  131.9834  151.1155 H   0  0  0  0  0  0  0  0  0  0  0  0
  144.2219  133.3637  153.4182 H   0  0  0  0  0  0  0  0  0  0  0  0
  146.3153  132.5105  151.9179 H   0  0  0  0  0  0  0  0  0  0  0  0
  146.6052  134.6567  154.0749 H   0  0  0  0  0  0  0  0  0  0  0  0
  146.8355  132.9240  154.2199 H   0  0  0  0  0  0  0  0  0  0  0  0
  148.4104  134.7258  152.7323 H   0  0  0  0  0  0  0  0  0  0  0  0
  146.8553  134.0828  150.2600 H   0  0  0  0  0  0  0  0  0  0  0  0
  147.0267  135.3513  151.4682 H   0  0  0  0  0  0  0  0  0  0  0  0
  143.8539  136.8483  156.1412 H   0  0  0  0  0  0  0  0  0  0  0  0
  1  2  1  0  0  0  0
  1 27  1  0  0  0  0
  1 28  1  0  0  0  0
  1 29  1  0  0  0  0
  2  6  1  0  0  0  0
  2  3  1  0  0  0  0
  2 30  1  0  0  0  0
  3  4  1  0  0  0  0
  4  5  1  0  0  0  0
  4 31  1  0  0  0  0
  4 32  1  0  0  0  0
  5  6  1  0  0  0  0
  5 33  1  0  0  0  0
  5 34  1  0  0  0  0
  6  7  1  0  0  0  0
  6  8  1  0  0  0  0
  7 35  1  0  0  0  0
  8  9  1  0  0  0  0
  8 36  1  0  0  0  0
  8 37  1  0  0  0  0
  9 26  1  0  0  0  0
  9 10  1  0  0  0  0
 10 11  2  0  0  0  0
 10 38  1  0  0  0  0
 11 12  1  0  0  0  0
 12 26  2  0  0  0  0
 12 13  1  0  0  0  0
 13 14  1  0  0  0  0
 13 23  2  0  0  0  0
 14 18  1  0  0  0  0
 14 15  1  0  0  0  0
 15 22  1  0  0  0  0
 15 16  1  0  0  0  0
 15 39  1  0  0  0  0
 16 17  1  0  0  0  0
 16 40  1  0  0  0  0
 16 41  1  0  0  0  0
 17 18  1  0  0  0  0
 17 42  1  0  0  0  0
 17 43  1  0  0  0  0
 18 19  1  0  0  0  0
 18 44  1  0  0  0  0
 19 20  1  0  0  0  0
 19 22  1  0  0  0  0
 19 45  1  0  0  0  0
 20 21  1  0  0  0  0
 20 46  1  0  0  0  0
 20 47  1  0  0  0  0
 21 48  1  0  0  0  0
 22 49  1  0  0  0  0
 22 50  1  0  0  0  0
 23 24  1  0  0  0  0
 24 25  2  0  0  0  0
 24 51  1  0  0  0  0
 25 26  1  0  0  0  0
M  END
> <s_m_source_file>
AV-unprocessed.smi

> <i_m_source_file_index>
199

> <i_lp_mmshare_version>
43012

> <i_f3d_flags>
0

> <s_epik_input>
W0NIMl0xW0NIMl1PW0NAQEhdKFtDSDNdKVtDQEBdMShbT0hdKVtDSDJdbihbY0hdbjIpYyhjMjMpbltjSF1uYzNOKFtDQEBIXTQ1KVtDQEhdKFtDSDJdW0NIMl00KVtDQEhdKFtDSDJdNSlbQ0gyXVtPSF0=

> <s_epik_cmdline>
J2VwaWtfcHl0aG9uJywgJy1waCcsICc3LjAnLCAnLXRuJywgJzgnLCAnLW1hJywgJzIwMCcsICctbWV0YWxfYmluZGluZycsICctaW1hZScsICc8aW5maWxlLm1hZT4nLCAnLW9tYWUnLCAnPG91dGZpbGUubWFlPic=

> <r_lp_tautomer_probability>
1

> <r_epik_Ionization_Penalty>
0.00583903

> <r_epik_Ionization_Penalty_Charging>
0

> <r_epik_Ionization_Penalty_Neutral>
0.00583903

> <r_epik_State_Penalty>
-0

> <r_epik_Charging_Adjusted_Penalty>
0

> <i_epik_Tot_Q>
0

> <i_epik_Tot_abs_Q>
0

> <r_epik_Metal_State_Penalty>
-0

> <b_epik_Metal_Only>
0

> <s_lp_Force_Field>
OPLS_2005

> <r_lp_Energy>
84.8674

> <b_lp_Chiralities_Consistent>
1

> <s_lp_Variant>
AV-unprocessed.smi:199-15

> <Gold.Version>
5.8.1

> <Gold.Id.Protein>
6NUR|6NUR_protein|mol2

> <Gold.PLP.Fitness>
42.8737

> <Gold.PLP.PLP>
-33.8435

> <Gold.PLP.part.hbond>
-3.0204

> <Gold.PLP.part.metal>
0.0000

> <Gold.PLP.part.buried>
-4.7112

> <Gold.PLP.part.nonpolar>
-27.8053

> <Gold.PLP.part.repulsive>
1.1929

> <Gold.PLP.ligand.clash>
0.0000

> <Gold.PLP.ligand.torsion>
0.9113

> <Gold.PLP.Chemscore.Hbond>
2.5949

> <Gold.PLP.Chemscore.CHOScore>
1.0000

> <Gold.PLP.Chemscore.Metal>
0.0000

> <Gold.Chemscore.Hbonds>
donor molecule, donor type, donor heavy atom, donor atom, acceptor molecule, acceptor atom, score
      L1  H     7    35       P1  7957  0.67
      L1  H    21    48       P1  7948  1.00
      P1  H  8011  8017       L1     7  0.85
      L1  C    10    38       P1  7957  1.00

> <Gold.PLP.Chemscore.Internal.Correction>
0.0682

> <Gold.Rescore>
     Score         DG    S(hbond)    S(metal)    S(lipo)     H(rot)  DE(clash)    DE(int)     intcor
      8.92     -12.09       1.74        0.00      73.90       3.07       0.60       2.57       ----

> <Gold.Chemscore.Fitness>
8.9157

> <Gold.Chemscore.DG>
-12.0861

> <Gold.Chemscore.ZeroCoef>
-5.4800

> <Gold.Chemscore.Hbond>
1.7444

> <Gold.Chemscore.Metal>
0.0000

> <Gold.Chemscore.Lipo>
73.9032

> <Gold.Chemscore.Internal_Hbond>
0.0000

> <Gold.Chemscore.DEClash>
0.6033

> <Gold.Chemscore.DEInternal>
2.5671

> <Gold.Chemscore.Rot>
3.0729

> <Gold.Chemscore.Internal.Correction>
   9.000000E+99

> <Gold.Chemscore.Hbonds>
donor molecule, donor type, donor heavy atom, donor atom, acceptor molecule, acceptor atom, score
      L1  H     7    35       P1  7957  0.66
      L1  H    21    48       P1  7948  0.35
      P1  H  8011  8017       L1     7  0.15

> <Gold.Chemscore.Hbond.Weighted>
-5.8261

> <Gold.Chemscore.Metal.Weighted>
-0.0000

> <Gold.Chemscore.Lipo.Weighted>
-8.6467

> <Gold.Chemscore.Internal_Hbond.Weighted>
0.0000

> <Gold.Chemscore.DEClash.Weighted>
0.6033

> <Gold.Chemscore.DEInternal.Weighted>
2.5671

> <Gold.Chemscore.Rot.Weighted>
7.8667

> <Gold.Chemscore.Internal.Correction.Weighted>
   9.000000E+99

> <Gold.Protein.RotatedTorsions>
[ 6907 6896 6895 6894 ] final  -69.80 input  -60.11 | X-H torsion
[ 7974 7965 7964 7962 ] final   34.73 input  175.53 | X-H torsion
[ 8008 7997 7996 7995 ] final  120.20 input   59.86 | X-H torsion
[ 10167 10162 10161 10158 ] final -148.42 input  -65.29 | X-H torsion
[ 10718 10713 10712 10709 ] final -120.64 input   66.30 | X-H torsion
[ 10763 10752 10751 10750 ] final   43.79 input  -60.55 | X-H torsion
[ 11005 11000 10999 10996 ] final  -32.62 input  -57.11 | X-H torsion

> <Gold.Protein.ActiveResidues>
 VAL166  LYS551  ARG553  GLY616  TRP617  ASP618  TYR619  PRO620  LYS621  CYS622 
 ASP623  PHE694  ASN695  SER759  ASP760  ASP761  ALA762  ILE779  LEU786  VAL792 
 PHE793  MET794  SER795  GLU796  ALA797  LYS798  CYS799  TRP800  GLU811  SER814 

> <Gold.Protein.RotatedAtoms>
  150.7288  134.5545  159.5810 H   0  0  0  0  0  0  0  0  0  0  0  0  # atno 6907 bound_to 6896
  152.3024  134.7592  160.0364 H   0  0  0  0  0  0  0  0  0  0  0  0  # atno 6908 bound_to 6896
  151.8169  133.3353  159.3609 H   0  0  0  0  0  0  0  0  0  0  0  0  # atno 6909 bound_to 6896
  146.1332  139.6232  142.9212 H   0  0  0  0  0  0  0  0  0  0  0  0  # atno 7974 bound_to 7965
  156.2631  140.2836  156.1112 H   0  0  0  0  0  0  0  0  0  0  0  0  # atno 8008 bound_to 7997
  155.1255  140.0393  157.2779 H   0  0  0  0  0  0  0  0  0  0  0  0  # atno 8009 bound_to 7997
  154.6638  140.2572  155.7086 H   0  0  0  0  0  0  0  0  0  0  0  0  # atno 8010 bound_to 7997
  139.7533  143.8485  152.2591 H   0  0  0  0  0  0  0  0  0  0  0  0  # atno 10167 bound_to 10162
  156.1274  130.6369  150.9565 H   0  0  0  0  0  0  0  0  0  0  0  0  # atno 10718 bound_to 10713
  152.9853  135.6090  154.3169 H   0  0  0  0  0  0  0  0  0  0  0  0  # atno 10763 bound_to 10752
  154.2881  135.2775  155.2669 H   0  0  0  0  0  0  0  0  0  0  0  0  # atno 10764 bound_to 10752
  154.4977  135.5875  153.6563 H   0  0  0  0  0  0  0  0  0  0  0  0  # atno 10765 bound_to 10752
  140.9567  133.7188  156.1304 H   0  0  0  0  0  0  0  0  0  0  0  0  # atno 11005 bound_to 11000
  145.5214  141.0431  143.2433 LP  0  0  0  0  0  0  0  0  0  0  0  0  # atno 17320 bound_to 7965
  144.7712  139.6730  143.7194 LP  0  0  0  0  0  0  0  0  0  0  0  0  # atno 17321 bound_to 7965
  139.8470  144.7183  150.9261 LP  0  0  0  0  0  0  0  0  0  0  0  0  # atno 17342 bound_to 10162
  140.7800  143.3933  151.1273 LP  0  0  0  0  0  0  0  0  0  0  0  0  # atno 17343 bound_to 10162
  157.6455  131.0904  150.8163 LP  0  0  0  0  0  0  0  0  0  0  0  0  # atno 17370 bound_to 10713
  156.8252  130.4997  149.5338 LP  0  0  0  0  0  0  0  0  0  0  0  0  # atno 17371 bound_to 10713
  140.7526  134.4028  157.5539 LP  0  0  0  0  0  0  0  0  0  0  0  0  # atno 17394 bound_to 11000
  139.8864  134.8909  156.2585 LP  0  0  0  0  0  0  0  0  0  0  0  0  # atno 17395 bound_to 11000

$$$$
