AV-unprocessed.smi:2321|AV-procd|sdf|9281|dock3
  -GOLD-   2272012503D 1   1.00000     0.00000
 Structure written by MMmdl.
 36 37  0  0  0  0  0  0  0  0  1 V2000
  149.0856  140.2437  156.5674 O   0  0  0  0  0  0  0  0  0  0  0  0
  149.1209  141.4474  156.3214 C   0  0  0  0  0  0  0  0  0  0  0  0
  149.9876  142.3200  156.8717 N   0  0  0  0  0  0  0  0  0  0  0  0
  151.0292  142.0784  157.8072 C   0  0  0  0  0  0  0  0  0  0  0  0
  151.3052  140.8143  158.3819 C   0  0  0  0  0  0  0  0  0  0  0  0
  152.3579  140.7132  159.3137 C   0  0  0  0  0  0  0  0  0  0  0  0
  153.1175  141.7618  159.6955 N   0  0  0  0  0  0  0  0  0  0  0  0
  152.8423  142.9678  159.1551 C   0  0  0  0  0  0  0  0  0  0  0  0
  151.8122  143.1783  158.2171 C   0  0  0  0  0  0  0  0  0  0  0  0
  151.5853  144.4171  157.7168 F   0  0  0  0  0  0  0  0  0  0  0  0
  148.2773  141.9975  155.4286 N   0  0  0  0  0  0  0  0  0  0  0  0
  147.2175  141.3480  154.6492 C   0  0  2  0  0  0  0  0  0  0  0  0
  146.7243  142.2915  153.5354 C   0  0  0  0  0  0  0  0  0  0  0  0
  145.9137  143.4744  154.0914 C   0  0  0  0  0  0  0  0  0  0  0  0
  144.7456  142.9911  154.9645 C   0  0  0  0  0  0  0  0  0  0  0  0
  145.2312  142.0830  156.1138 C   0  0  1  0  0  0  0  0  0  0  0  0
  144.0670  141.6088  157.0080 C   0  0  0  0  0  0  0  0  0  0  0  0
  143.3939  142.6482  157.5022 F   0  0  0  0  0  0  0  0  0  0  0  0
  143.2297  140.8500  156.3008 F   0  0  0  0  0  0  0  0  0  0  0  0
  144.5359  140.8786  158.0197 F   0  0  0  0  0  0  0  0  0  0  0  0
  146.0417  140.8962  155.5453 C   0  0  0  0  0  0  0  0  0  0  0  0
  149.9440  143.2636  156.5153 H   0  0  0  0  0  0  0  0  0  0  0  0
  150.7312  139.9332  158.1405 H   0  0  0  0  0  0  0  0  0  0  0  0
  152.5924  139.7628  159.7696 H   0  0  0  0  0  0  0  0  0  0  0  0
  153.4607  143.7907  159.4816 H   0  0  0  0  0  0  0  0  0  0  0  0
  148.3969  142.9854  155.2565 H   0  0  0  0  0  0  0  0  0  0  0  0
  147.6416  140.4697  154.1594 H   0  0  0  0  0  0  0  0  0  0  0  0
  147.5671  142.6581  152.9479 H   0  0  0  0  0  0  0  0  0  0  0  0
  146.0968  141.7278  152.8437 H   0  0  0  0  0  0  0  0  0  0  0  0
  146.5628  144.1263  154.6771 H   0  0  0  0  0  0  0  0  0  0  0  0
  145.5338  144.0801  153.2684 H   0  0  0  0  0  0  0  0  0  0  0  0
  144.2158  143.8550  155.3669 H   0  0  0  0  0  0  0  0  0  0  0  0
  144.0280  142.4522  154.3447 H   0  0  0  0  0  0  0  0  0  0  0  0
  145.8987  142.6743  156.7426 H   0  0  0  0  0  0  0  0  0  0  0  0
  145.3787  140.2608  154.9571 H   0  0  0  0  0  0  0  0  0  0  0  0
  146.4064  140.2684  156.3586 H   0  0  0  0  0  0  0  0  0  0  0  0
  1  2  2  0  0  0  0
  2  3  1  0  0  0  0
  2 11  1  0  0  0  0
  3  4  1  0  0  0  0
  3 22  1  0  0  0  0
  4  9  1  0  0  0  0
  4  5  2  0  0  0  0
  5  6  1  0  0  0  0
  5 23  1  0  0  0  0
  6  7  2  0  0  0  0
  6 24  1  0  0  0  0
  7  8  1  0  0  0  0
  8  9  2  0  0  0  0
  8 25  1  0  0  0  0
  9 10  1  0  0  0  0
 11 12  1  0  0  0  0
 11 26  1  0  0  0  0
 12 21  1  0  0  0  0
 12 13  1  0  0  0  0
 12 27  1  0  0  0  0
 13 14  1  0  0  0  0
 13 28  1  0  0  0  0
 13 29  1  0  0  0  0
 14 15  1  0  0  0  0
 14 30  1  0  0  0  0
 14 31  1  0  0  0  0
 15 16  1  0  0  0  0
 15 32  1  0  0  0  0
 15 33  1  0  0  0  0
 16 17  1  0  0  0  0
 16 21  1  0  0  0  0
 16 34  1  0  0  0  0
 17 18  1  0  0  0  0
 17 19  1  0  0  0  0
 17 20  1  0  0  0  0
 21 35  1  0  0  0  0
 21 36  1  0  0  0  0
M  END
> <s_m_source_file>
AV-unprocessed.smi

> <i_m_source_file_index>
2321

> <i_lp_mmshare_version>
43012

> <i_f3d_flags>
0

> <s_epik_input>
RkMoRikoRilbQ0BASF0oW0NIMl0xKVtDSDJdW0NIMl1bQ0gyXVtDQEhdMVtOSF1DKD1PKVtOSF1jMltjSF1bY0hdbltjSF1jMkY=

> <s_epik_cmdline>
J2VwaWtfcHl0aG9uJywgJy1waCcsICc3LjAnLCAnLXRuJywgJzgnLCAnLW1hJywgJzIwMCcsICctbWV0YWxfYmluZGluZycsICctaW1hZScsICc8aW5maWxlLm1hZT4nLCAnLW9tYWUnLCAnPG91dGZpbGUubWFlPic=

> <r_epik_Ionization_Penalty>
0.00319438

> <r_epik_Ionization_Penalty_Charging>
0

> <r_epik_Ionization_Penalty_Neutral>
0.00319438

> <r_epik_State_Penalty>
0.00222511

> <r_epik_Charging_Adjusted_Penalty>
0.00222511

> <i_epik_Tot_Q>
0

> <i_epik_Tot_abs_Q>
0

> <r_epik_Metal_State_Penalty>
-0

> <b_epik_Metal_Only>
0

> <s_lp_Force_Field>
OPLS_2005

> <r_lp_Energy>
25.9848

> <b_lp_Chiralities_Consistent>
1

> <s_lp_Variant>
AV-unprocessed.smi:2321-1

> <Gold.Version>
5.8.1

> <Gold.Id.Protein>
6NUR|6NUR_protein|mol2

> <Gold.PLP.Fitness>
39.5523

> <Gold.PLP.PLP>
-33.7966

> <Gold.PLP.part.hbond>
-2.0000

> <Gold.PLP.part.metal>
0.0000

> <Gold.PLP.part.buried>
-7.3336

> <Gold.PLP.part.nonpolar>
-25.0416

> <Gold.PLP.part.repulsive>
0.1485

> <Gold.PLP.ligand.clash>
0.0000

> <Gold.PLP.ligand.torsion>
0.1211

> <Gold.PLP.Chemscore.Hbond>
1.9920

> <Gold.PLP.Chemscore.CHOScore>
0.0000

> <Gold.PLP.Chemscore.Metal>
0.0000

> <Gold.Chemscore.Hbonds>
donor molecule, donor type, donor heavy atom, donor atom, acceptor molecule, acceptor atom, score
      L1  H     3    22       P1  8028  0.99
      L1  H    11    26       P1  8028  1.00

> <Gold.PLP.Chemscore.Internal.Correction>
0.0219

> <Gold.Rescore>
     Score         DG    S(hbond)    S(metal)    S(lipo)     H(rot)  DE(clash)    DE(int)     intcor
     16.08     -17.53       1.91        0.00      70.39       1.00       0.12       1.34       ----

> <Gold.Chemscore.Fitness>
16.0796

> <Gold.Chemscore.DG>
-17.5335

> <Gold.Chemscore.ZeroCoef>
-5.4800

> <Gold.Chemscore.Hbond>
1.9095

> <Gold.Chemscore.Metal>
0.0000

> <Gold.Chemscore.Lipo>
70.3925

> <Gold.Chemscore.Internal_Hbond>
0.0000

> <Gold.Chemscore.DEClash>
0.1173

> <Gold.Chemscore.DEInternal>
1.3365

> <Gold.Chemscore.Rot>
1.0000

> <Gold.Chemscore.Internal.Correction>
   9.000000E+99

> <Gold.Chemscore.Hbonds>
donor molecule, donor type, donor heavy atom, donor atom, acceptor molecule, acceptor atom, score
      L1  H     3    22       P1  8028  0.91
      L1  H    11    26       P1  8028  0.99

> <Gold.Chemscore.Hbond.Weighted>
-6.3776

> <Gold.Chemscore.Metal.Weighted>
-0.0000

> <Gold.Chemscore.Lipo.Weighted>
-8.2359

> <Gold.Chemscore.Internal_Hbond.Weighted>
0.0000

> <Gold.Chemscore.DEClash.Weighted>
0.1173

> <Gold.Chemscore.DEInternal.Weighted>
1.3365

> <Gold.Chemscore.Rot.Weighted>
2.5600

> <Gold.Chemscore.Internal.Correction.Weighted>
   9.000000E+99

> <Gold.Protein.RotatedTorsions>
[ 6907 6896 6895 6894 ] final   95.25 input  -60.11 | X-H torsion
[ 7974 7965 7964 7962 ] final  122.51 input  175.53 | X-H torsion
[ 8008 7997 7996 7995 ] final  114.59 input   59.86 | X-H torsion
[ 10167 10162 10161 10158 ] final   79.62 input  -65.29 | X-H torsion
[ 10718 10713 10712 10709 ] final  149.44 input   66.30 | X-H torsion
[ 10763 10752 10751 10750 ] final   62.66 input  -60.55 | X-H torsion
[ 11005 11000 10999 10996 ] final  127.31 input  -57.11 | X-H torsion

> <Gold.Protein.ActiveResidues>
 VAL166  LYS551  ARG553  GLY616  TRP617  ASP618  TYR619  PRO620  LYS621  CYS622 
 ASP623  PHE694  ASN695  SER759  ASP760  ASP761  ALA762  ILE779  LEU786  VAL792 
 PHE793  MET794  SER795  GLU796  ALA797  LYS798  CYS799  TRP800  GLU811  SER814 

> <Gold.Protein.RotatedAtoms>
  152.5445  134.1069  159.8341 H   0  0  0  0  0  0  0  0  0  0  0  0  # atno 6907 bound_to 6896
  151.1140  133.5144  159.2612 H   0  0  0  0  0  0  0  0  0  0  0  0  # atno 6908 bound_to 6896
  151.1852  135.0388  159.8864 H   0  0  0  0  0  0  0  0  0  0  0  0  # atno 6909 bound_to 6896
  145.1067  139.3481  143.4784 H   0  0  0  0  0  0  0  0  0  0  0  0  # atno 7974 bound_to 7965
  156.2330  140.2956  156.0239 H   0  0  0  0  0  0  0  0  0  0  0  0  # atno 8008 bound_to 7997
  155.2171  140.0414  157.2959 H   0  0  0  0  0  0  0  0  0  0  0  0  # atno 8009 bound_to 7997
  154.6029  140.2432  155.7776 H   0  0  0  0  0  0  0  0  0  0  0  0  # atno 8010 bound_to 7997
  139.9584  144.5978  150.8095 H   0  0  0  0  0  0  0  0  0  0  0  0  # atno 10167 bound_to 10162
  157.2961  131.0862  151.1426 H   0  0  0  0  0  0  0  0  0  0  0  0  # atno 10718 bound_to 10713
  152.9990  135.5457  154.6228 H   0  0  0  0  0  0  0  0  0  0  0  0  # atno 10763 bound_to 10752
  154.5524  135.2827  155.0998 H   0  0  0  0  0  0  0  0  0  0  0  0  # atno 10764 bound_to 10752
  154.2233  135.6446  153.5204 H   0  0  0  0  0  0  0  0  0  0  0  0  # atno 10765 bound_to 10752
  139.9501  134.9623  156.8836 H   0  0  0  0  0  0  0  0  0  0  0  0  # atno 11005 bound_to 11000
  146.3528  140.0968  142.8610 LP  0  0  0  0  0  0  0  0  0  0  0  0  # atno 17320 bound_to 7965
  145.0894  140.9274  143.4778 LP  0  0  0  0  0  0  0  0  0  0  0  0  # atno 17321 bound_to 7965
  140.7561  143.3059  151.2963 LP  0  0  0  0  0  0  0  0  0  0  0  0  # atno 17342 bound_to 10162
  139.6573  144.0252  152.2668 LP  0  0  0  0  0  0  0  0  0  0  0  0  # atno 17343 bound_to 10162
  157.2803  130.6747  149.6063 LP  0  0  0  0  0  0  0  0  0  0  0  0  # atno 17370 bound_to 10713
  155.9669  130.4452  150.5491 LP  0  0  0  0  0  0  0  0  0  0  0  0  # atno 17371 bound_to 10713
  140.5740  134.0416  155.7440 LP  0  0  0  0  0  0  0  0  0  0  0  0  # atno 17394 bound_to 11000
  141.1162  133.9537  157.2818 LP  0  0  0  0  0  0  0  0  0  0  0  0  # atno 17395 bound_to 11000

$$$$
