AV-unprocessed.smi:1155|AV-procd|sdf|4904|dock9
  -GOLD-   22720 3483D 1   1.00000     0.00000
 Structure written by MMmdl.
 38 40  0  0  0  0  0  0  0  0  1 V2000
  152.0272  140.8064  158.4346 C   0  0  0  0  0  0  0  0  0  0  0  0
  151.7889  142.1517  158.9642 N   0  0  0  0  0  0  0  0  0  0  0  0
  150.4964  142.6936  158.8238 C   0  0  0  0  0  0  0  0  0  0  0  0
  150.1774  143.9262  159.2769 C   0  0  0  0  0  0  0  0  0  0  0  0
  148.9109  144.5230  159.1870 N   0  0  0  0  0  0  0  0  0  0  0  0
  147.8904  144.4900  160.0644 C   0  0  0  0  0  0  0  0  0  0  0  0
  147.8717  143.8616  161.1224 O   0  0  0  0  0  0  0  0  0  0  0  0
  146.8619  145.2323  159.6256 N   0  0  0  0  0  0  0  0  0  0  0  0
  145.5722  145.4195  160.2879 C   0  0  0  0  0  0  0  0  0  0  0  0
  144.9871  144.1430  160.8745 C   0  0  0  0  0  0  0  0  0  0  0  0
  143.6725  144.1533  161.6177 C   0  0  0  0  0  0  0  0  0  0  0  0
  144.9641  143.9066  162.3652 C   0  0  0  0  0  0  0  0  0  0  0  0
  144.5450  146.1446  159.4313 C   0  0  0  0  0  0  0  0  0  0  0  0
  144.4374  145.8791  157.9495 C   0  0  0  0  0  0  0  0  0  0  0  0
  144.9592  147.2098  158.4440 C   0  0  0  0  0  0  0  0  0  0  0  0
  151.2290  144.6744  159.9324 C   0  0  0  0  0  0  0  0  0  0  0  0
  152.4665  144.1614  160.0750 C   0  0  0  0  0  0  0  0  0  0  0  0
  152.8044  142.8261  159.5770 C   0  0  0  0  0  0  0  0  0  0  0  0
  153.9299  142.3431  159.7036 O   0  0  0  0  0  0  0  0  0  0  0  0
  151.1614  140.3970  157.9130 H   0  0  0  0  0  0  0  0  0  0  0  0
  152.2777  140.1181  159.2431 H   0  0  0  0  0  0  0  0  0  0  0  0
  152.8558  140.8129  157.7250 H   0  0  0  0  0  0  0  0  0  0  0  0
  149.8006  142.0274  158.3394 H   0  0  0  0  0  0  0  0  0  0  0  0
  148.7509  145.0453  158.3381 H   0  0  0  0  0  0  0  0  0  0  0  0
  146.9773  145.7071  158.7422 H   0  0  0  0  0  0  0  0  0  0  0  0
  145.7957  146.0757  161.1303 H   0  0  0  0  0  0  0  0  0  0  0  0
  145.1613  143.2607  160.2614 H   0  0  0  0  0  0  0  0  0  0  0  0
  143.1807  145.1113  161.7728 H   0  0  0  0  0  0  0  0  0  0  0  0
  143.0065  143.3058  161.4692 H   0  0  0  0  0  0  0  0  0  0  0  0
  145.1586  142.8949  162.7151 H   0  0  0  0  0  0  0  0  0  0  0  0
  145.3297  144.7022  163.0111 H   0  0  0  0  0  0  0  0  0  0  0  0
  143.6023  146.3288  159.9434 H   0  0  0  0  0  0  0  0  0  0  0  0
  145.1541  145.1919  157.5042 H   0  0  0  0  0  0  0  0  0  0  0  0
  143.4395  145.8579  157.5164 H   0  0  0  0  0  0  0  0  0  0  0  0
  144.3095  148.0761  158.3381 H   0  0  0  0  0  0  0  0  0  0  0  0
  146.0224  147.4060  158.3201 H   0  0  0  0  0  0  0  0  0  0  0  0
  151.0232  145.6642  160.3130 H   0  0  0  0  0  0  0  0  0  0  0  0
  153.2289  144.7470  160.5671 H   0  0  0  0  0  0  0  0  0  0  0  0
  1  2  1  0  0  0  0
  1 20  1  0  0  0  0
  1 21  1  0  0  0  0
  1 22  1  0  0  0  0
  2 18  1  0  0  0  0
  2  3  1  0  0  0  0
  3  4  2  0  0  0  0
  3 23  1  0  0  0  0
  4  5  1  0  0  0  0
  4 16  1  0  0  0  0
  5  6  1  0  0  0  0
  5 24  1  0  0  0  0
  6  7  2  0  0  0  0
  6  8  1  0  0  0  0
  8  9  1  0  0  0  0
  8 25  1  0  0  0  0
  9 10  1  0  0  0  0
  9 13  1  0  0  0  0
  9 26  1  0  0  0  0
 10 12  1  0  0  0  0
 10 11  1  0  0  0  0
 10 27  1  0  0  0  0
 11 12  1  0  0  0  0
 11 28  1  0  0  0  0
 11 29  1  0  0  0  0
 12 30  1  0  0  0  0
 12 31  1  0  0  0  0
 13 15  1  0  0  0  0
 13 14  1  0  0  0  0
 13 32  1  0  0  0  0
 14 15  1  0  0  0  0
 14 33  1  0  0  0  0
 14 34  1  0  0  0  0
 15 35  1  0  0  0  0
 15 36  1  0  0  0  0
 16 17  2  0  0  0  0
 16 37  1  0  0  0  0
 17 18  1  0  0  0  0
 17 38  1  0  0  0  0
 18 19  2  0  0  0  0
M  END
> <s_m_source_file>
AV-unprocessed.smi

> <i_m_source_file_index>
1155

> <i_lp_mmshare_version>
43012

> <i_f3d_flags>
0

> <s_epik_input>
Tz1jMVtjSF1bY0hdYyhbY0hdbjFbQ0gzXSlbTkhdQyg9TylbTkhdW0NIXShbQ0hdMltDSDJdW0NIMl0yKVtDSF0zW0NIMl1bQ0gyXTM=

> <s_epik_cmdline>
J2VwaWtfcHl0aG9uJywgJy1waCcsICc3LjAnLCAnLXRuJywgJzgnLCAnLW1hJywgJzIwMCcsICctbWV0YWxfYmluZGluZycsICctaW1hZScsICc8aW5maWxlLm1hZT4nLCAnLW9tYWUnLCAnPG91dGZpbGUubWFlPic=

> <r_lp_tautomer_probability>
1

> <r_epik_Ionization_Penalty>
2.79104e-05

> <r_epik_Ionization_Penalty_Charging>
6.05378e-06

> <r_epik_Ionization_Penalty_Neutral>
2.18566e-05

> <r_epik_State_Penalty>
-0

> <r_epik_Charging_Adjusted_Penalty>
6.05378e-06

> <i_epik_Tot_Q>
0

> <i_epik_Tot_abs_Q>
0

> <r_epik_Metal_State_Penalty>
-0

> <b_epik_Metal_Only>
0

> <s_lp_Force_Field>
OPLS_2005

> <r_lp_Energy>
36.9075

> <b_lp_Chiralities_Consistent>
1

> <s_lp_Variant>
AV-unprocessed.smi:1155-1

> <Gold.Version>
5.8.1

> <Gold.Id.Protein>
6NUR|6NUR_protein|mol2

> <Gold.PLP.Fitness>
44.1104

> <Gold.PLP.PLP>
-37.2921

> <Gold.PLP.part.hbond>
-3.0000

> <Gold.PLP.part.metal>
0.0000

> <Gold.PLP.part.buried>
-6.1898

> <Gold.PLP.part.nonpolar>
-28.5229

> <Gold.PLP.part.repulsive>
0.3646

> <Gold.PLP.ligand.clash>
0.0000

> <Gold.PLP.ligand.torsion>
2.1618

> <Gold.PLP.Chemscore.Hbond>
2.9920

> <Gold.PLP.Chemscore.CHOScore>
0.0000

> <Gold.PLP.Chemscore.Metal>
0.0000

> <Gold.Chemscore.Hbonds>
donor molecule, donor type, donor heavy atom, donor atom, acceptor molecule, acceptor atom, score
      L1  H     5    24       P1  8029  1.00
      L1  H     8    25       P1  8029  1.00
      P1  H  6933  6944       L1     7  1.00

> <Gold.PLP.Chemscore.Internal.Correction>
2.1660

> <Gold.Rescore>
     Score         DG    S(hbond)    S(metal)    S(lipo)     H(rot)  DE(clash)    DE(int)     intcor
     18.23     -21.62       2.88        0.00      85.25       1.35       0.03       3.36       ----

> <Gold.Chemscore.Fitness>
18.2320

> <Gold.Chemscore.DG>
-21.6206

> <Gold.Chemscore.ZeroCoef>
-5.4800

> <Gold.Chemscore.Hbond>
2.8809

> <Gold.Chemscore.Metal>
0.0000

> <Gold.Chemscore.Lipo>
85.2507

> <Gold.Chemscore.Internal_Hbond>
0.0000

> <Gold.Chemscore.DEClash>
0.0309

> <Gold.Chemscore.DEInternal>
3.3577

> <Gold.Chemscore.Rot>
1.3500

> <Gold.Chemscore.Internal.Correction>
   9.000000E+99

> <Gold.Chemscore.Hbonds>
donor molecule, donor type, donor heavy atom, donor atom, acceptor molecule, acceptor atom, score
      L1  H     5    24       P1  8029  0.87
      L1  H     8    25       P1  8029  0.95
      P1  H  6933  6944       L1     7  1.00

> <Gold.Chemscore.Hbond.Weighted>
-9.6222

> <Gold.Chemscore.Metal.Weighted>
-0.0000

> <Gold.Chemscore.Lipo.Weighted>
-9.9743

> <Gold.Chemscore.Internal_Hbond.Weighted>
0.0000

> <Gold.Chemscore.DEClash.Weighted>
0.0309

> <Gold.Chemscore.DEInternal.Weighted>
3.3577

> <Gold.Chemscore.Rot.Weighted>
3.4560

> <Gold.Chemscore.Internal.Correction.Weighted>
   9.000000E+99

> <Gold.Protein.RotatedTorsions>
[ 6907 6896 6895 6894 ] final -155.78 input  -60.11 | X-H torsion
[ 7974 7965 7964 7962 ] final  -86.74 input  175.53 | X-H torsion
[ 8008 7997 7996 7995 ] final   82.45 input   59.86 | X-H torsion
[ 10167 10162 10161 10158 ] final  161.32 input  -65.29 | X-H torsion
[ 10718 10713 10712 10709 ] final   13.49 input   66.30 | X-H torsion
[ 10763 10752 10751 10750 ] final -106.27 input  -60.55 | X-H torsion
[ 11005 11000 10999 10996 ] final  141.97 input  -57.11 | X-H torsion

> <Gold.Protein.ActiveResidues>
 VAL166  LYS551  ARG553  GLY616  TRP617  ASP618  TYR619  PRO620  LYS621  CYS622 
 ASP623  PHE694  ASN695  SER759  ASP760  ASP761  ALA762  ILE779  LEU786  VAL792 
 PHE793  MET794  SER795  GLU796  ALA797  LYS798  CYS799  TRP800  GLU811  SER814 

> <Gold.Protein.RotatedAtoms>
  151.2777  133.4225  159.2624 H   0  0  0  0  0  0  0  0  0  0  0  0  # atno 6907 bound_to 6896
  151.0389  134.9593  159.8161 H   0  0  0  0  0  0  0  0  0  0  0  0  # atno 6908 bound_to 6896
  152.5361  134.2735  159.9033 H   0  0  0  0  0  0  0  0  0  0  0  0  # atno 6909 bound_to 6896
  145.4759  140.9558  143.1891 H   0  0  0  0  0  0  0  0  0  0  0  0  # atno 7974 bound_to 7965
  155.9108  140.3427  155.6097 H   0  0  0  0  0  0  0  0  0  0  0  0  # atno 8008 bound_to 7997
  155.7390  140.0805  157.2273 H   0  0  0  0  0  0  0  0  0  0  0  0  # atno 8009 bound_to 7997
  154.4055  140.1574  156.2582 H   0  0  0  0  0  0  0  0  0  0  0  0  # atno 8010 bound_to 7997
  139.4848  144.4548  151.8783 H   0  0  0  0  0  0  0  0  0  0  0  0  # atno 10167 bound_to 10162
  157.0254  130.6171  149.5727 H   0  0  0  0  0  0  0  0  0  0  0  0  # atno 10718 bound_to 10713
  154.8001  135.4718  154.0255 H   0  0  0  0  0  0  0  0  0  0  0  0  # atno 10763 bound_to 10752
  153.1767  135.6834  153.8540 H   0  0  0  0  0  0  0  0  0  0  0  0  # atno 10764 bound_to 10752
  153.8104  135.3218  155.3378 H   0  0  0  0  0  0  0  0  0  0  0  0  # atno 10765 bound_to 10752
  140.0441  134.9289  157.0898 H   0  0  0  0  0  0  0  0  0  0  0  0  # atno 11005 bound_to 11000
  144.7918  139.6314  143.7110 LP  0  0  0  0  0  0  0  0  0  0  0  0  # atno 17320 bound_to 7965
  146.2370  139.5924  142.9517 LP  0  0  0  0  0  0  0  0  0  0  0  0  # atno 17321 bound_to 7965
  140.4006  144.2497  150.5893 LP  0  0  0  0  0  0  0  0  0  0  0  0  # atno 17342 bound_to 10162
  140.5060  143.2304  151.8607 LP  0  0  0  0  0  0  0  0  0  0  0  0  # atno 17343 bound_to 10162
  156.0087  130.5177  150.7918 LP  0  0  0  0  0  0  0  0  0  0  0  0  # atno 17370 bound_to 10713
  157.5218  131.0932  151.0069 LP  0  0  0  0  0  0  0  0  0  0  0  0  # atno 17371 bound_to 10713
  140.4021  134.2071  155.7163 LP  0  0  0  0  0  0  0  0  0  0  0  0  # atno 17394 bound_to 11000
  141.1898  133.8230  157.0942 LP  0  0  0  0  0  0  0  0  0  0  0  0  # atno 17395 bound_to 11000

$$$$
