AV-unprocessed.smi:2973|AV-procd|sdf|11342|dock8
  -GOLD-   2272016253D 1   1.00000     0.00000
 Structure written by MMmdl.
 50 52  0  0  0  0  0  0  0  0  2 V2000
  150.3791  140.7242  156.8840 C   0  0  0  0  0  0  0  0  0  0  0  0
  151.6697  140.9805  157.6910 C   0  0  1  0  0  0  0  0  0  0  0  0
  151.4255  142.0780  158.7498 C   0  0  0  0  0  0  0  0  0  0  0  0
  152.7032  142.4160  159.5343 C   0  0  0  0  0  0  0  0  0  0  0  0
  153.3006  141.1653  160.1939 C   0  0  0  0  0  0  0  0  0  0  0  0
  153.5651  140.0693  159.1497 C   0  0  0  0  0  0  0  0  0  0  0  0
  152.2888  139.7096  158.3512 C   0  0  1  0  0  0  0  0  0  0  0  0
  151.3349  139.0029  159.1900 N   0  0  0  0  0  0  0  0  0  0  0  0
  151.1241  137.7416  158.7932 C   0  0  0  0  0  0  0  0  0  0  0  0
  150.3791  136.9385  159.3517 O   0  0  0  0  0  0  0  0  0  0  0  0
  151.8692  137.5132  157.6965 N   0  0  0  0  0  0  0  0  0  0  0  0
  151.9290  136.2261  156.9870 C   0  0  0  0  0  0  0  0  0  0  0  0
  150.5703  135.6900  156.5018 C   0  0  0  0  0  0  0  0  0  0  0  0
  149.5585  136.3625  156.6965 O   0  0  0  0  0  0  0  0  0  0  0  0
  150.5398  134.5025  155.8727 N   0  0  0  0  0  0  0  0  0  0  0  0
  149.3451  133.8653  155.3350 C   0  0  0  0  0  0  0  0  0  0  0  0
  149.4178  133.7344  153.8045 C   0  0  0  0  0  0  0  0  0  0  0  0
  148.1122  133.2455  153.2094 C   0  0  0  0  0  0  0  0  0  0  0  0
  147.6487  131.9249  153.3954 C   0  0  0  0  0  0  0  0  0  0  0  0
  146.4193  131.5394  152.8211 C   0  0  0  0  0  0  0  0  0  0  0  0
  145.6809  132.4809  152.0746 C   0  0  0  0  0  0  0  0  0  0  0  0
  146.1915  133.7859  151.9200 C   0  0  0  0  0  0  0  0  0  0  0  0
  147.3729  134.1171  152.4858 N   0  3  0  0  0  0  0  0  0  0  0  0
  152.5837  138.5949  157.3554 C   0  0  0  0  0  0  0  0  0  0  0  0
  153.3696  138.6993  156.4135 O   0  0  0  0  0  0  0  0  0  0  0  0
  149.5803  140.3330  157.5146 H   0  0  0  0  0  0  0  0  0  0  0  0
  150.5411  140.0155  156.0718 H   0  0  0  0  0  0  0  0  0  0  0  0
  150.0153  141.6473  156.4319 H   0  0  0  0  0  0  0  0  0  0  0  0
  152.4056  141.3752  156.9882 H   0  0  0  0  0  0  0  0  0  0  0  0
  151.0515  142.9823  158.2684 H   0  0  0  0  0  0  0  0  0  0  0  0
  150.6471  141.7583  159.4437 H   0  0  0  0  0  0  0  0  0  0  0  0
  153.4379  142.8606  158.8617 H   0  0  0  0  0  0  0  0  0  0  0  0
  152.4851  143.1678  160.2935 H   0  0  0  0  0  0  0  0  0  0  0  0
  154.2290  141.4227  160.7043 H   0  0  0  0  0  0  0  0  0  0  0  0
  152.6210  140.7926  160.9613 H   0  0  0  0  0  0  0  0  0  0  0  0
  154.3408  140.4169  158.4653 H   0  0  0  0  0  0  0  0  0  0  0  0
  153.9724  139.1855  159.6438 H   0  0  0  0  0  0  0  0  0  0  0  0
  150.8948  139.4277  159.9933 H   0  0  0  0  0  0  0  0  0  0  0  0
  152.5919  136.3079  156.1242 H   0  0  0  0  0  0  0  0  0  0  0  0
  152.3846  135.4731  157.6323 H   0  0  0  0  0  0  0  0  0  0  0  0
  151.4128  134.0090  155.7543 H   0  0  0  0  0  0  0  0  0  0  0  0
  149.2572  132.8775  155.7886 H   0  0  0  0  0  0  0  0  0  0  0  0
  148.4575  134.4254  155.6342 H   0  0  0  0  0  0  0  0  0  0  0  0
  149.6692  134.6947  153.3518 H   0  0  0  0  0  0  0  0  0  0  0  0
  150.2174  133.0460  153.5274 H   0  0  0  0  0  0  0  0  0  0  0  0
  148.2249  131.2155  153.9715 H   0  0  0  0  0  0  0  0  0  0  0  0
  146.0467  130.5341  152.9529 H   0  0  0  0  0  0  0  0  0  0  0  0
  144.7369  132.2054  151.6275 H   0  0  0  0  0  0  0  0  0  0  0  0
  145.6940  134.5692  151.3670 H   0  0  0  0  0  0  0  0  0  0  0  0
  147.7231  135.0676  152.3628 H   0  0  0  0  0  0  0  0  0  0  0  0
  1  2  1  0  0  0  0
  1 26  1  0  0  0  0
  1 27  1  0  0  0  0
  1 28  1  0  0  0  0
  2  7  1  0  0  0  0
  2  3  1  0  0  0  0
  2 29  1  0  0  0  0
  3  4  1  0  0  0  0
  3 30  1  0  0  0  0
  3 31  1  0  0  0  0
  4  5  1  0  0  0  0
  4 32  1  0  0  0  0
  4 33  1  0  0  0  0
  5  6  1  0  0  0  0
  5 34  1  0  0  0  0
  5 35  1  0  0  0  0
  6  7  1  0  0  0  0
  6 36  1  0  0  0  0
  6 37  1  0  0  0  0
  7 24  1  0  0  0  0
  7  8  1  0  0  0  0
  8  9  1  0  0  0  0
  8 38  1  0  0  0  0
  9 10  2  0  0  0  0
  9 11  1  0  0  0  0
 11 12  1  0  0  0  0
 11 24  1  0  0  0  0
 12 13  1  0  0  0  0
 12 39  1  0  0  0  0
 12 40  1  0  0  0  0
 13 14  2  0  0  0  0
 13 15  1  0  0  0  0
 15 16  1  0  0  0  0
 15 41  1  0  0  0  0
 16 17  1  0  0  0  0
 16 42  1  0  0  0  0
 16 43  1  0  0  0  0
 17 18  1  0  0  0  0
 17 44  1  0  0  0  0
 17 45  1  0  0  0  0
 18 23  1  0  0  0  0
 18 19  2  0  0  0  0
 19 20  1  0  0  0  0
 19 46  1  0  0  0  0
 20 21  2  0  0  0  0
 20 47  1  0  0  0  0
 21 22  1  0  0  0  0
 21 48  1  0  0  0  0
 22 23  2  0  0  0  0
 22 49  1  0  0  0  0
 23 50  1  0  0  0  0
 24 25  2  0  0  0  0
M  CHG  1  23   1
M  END
> <s_m_source_file>
AV-unprocessed.smi

> <i_m_source_file_index>
2973

> <i_lp_mmshare_version>
43012

> <i_f3d_flags>
0

> <s_epik_input>
W0NIMl0xW0NIMl1bQ0gyXVtDSDJdW0NAQEhdKFtDSDNdKVtDQF0xMltOSF1DKD1PKU4oQzI9TylbQ0gyXUMoPU8pW05IXVtDSDJdW0NIMl1jM1tjSF1bY0hdW2NIXVtjSF1uMw==

> <s_epik_cmdline>
J2VwaWtfcHl0aG9uJywgJy1waCcsICc3LjAnLCAnLXRuJywgJzgnLCAnLW1hJywgJzIwMCcsICctbWV0YWxfYmluZGluZycsICctaW1hZScsICc8aW5maWxlLm1hZT4nLCAnLW9tYWUnLCAnPG91dGZpbGUubWFlPic=

> <r_lp_tautomer_probability>
1

> <r_epik_Ionization_Penalty>
1.90043

> <r_epik_Ionization_Penalty_Charging>
1.90039

> <r_epik_Ionization_Penalty_Neutral>
4.65525e-05

> <r_epik_State_Penalty>
2.02162

> <r_epik_Charging_Adjusted_Penalty>
3.922

> <i_epik_Tot_Q>
1

> <i_epik_Tot_abs_Q>
1

> <r_epik_Metal_State_Penalty>
2.06631

> <b_epik_Metal_Only>
0

> <s_lp_Force_Field>
OPLS_2005

> <r_lp_Energy>
28.0299

> <b_lp_Chiralities_Consistent>
1

> <s_lp_Variant>
AV-unprocessed.smi:2973-6

> <Gold.Version>
5.8.1

> <Gold.Id.Protein>
6NUR|6NUR_protein|mol2

> <Gold.PLP.Fitness>
50.5360

> <Gold.PLP.PLP>
-38.9570

> <Gold.PLP.part.hbond>
-3.0000

> <Gold.PLP.part.metal>
0.0000

> <Gold.PLP.part.buried>
-5.9280

> <Gold.PLP.part.nonpolar>
-30.6090

> <Gold.PLP.part.repulsive>
0.3102

> <Gold.PLP.ligand.clash>
0.0000

> <Gold.PLP.ligand.torsion>
0.1460

> <Gold.PLP.Chemscore.Hbond>
3.9440

> <Gold.PLP.Chemscore.CHOScore>
0.0000

> <Gold.PLP.Chemscore.Metal>
0.0000

> <Gold.Chemscore.Hbonds>
donor molecule, donor type, donor heavy atom, donor atom, acceptor molecule, acceptor atom, score
      L1  H    23    50       P1  7948  2.00
      P1  H  6896  6909       L1    10  0.93
      P1  H  7997  8008       L1    25  0.94

> <Gold.PLP.Chemscore.Internal.Correction>
0.0390

> <Gold.Rescore>
     Score         DG    S(hbond)    S(metal)    S(lipo)     H(rot)  DE(clash)    DE(int)     intcor
     17.60     -20.38       2.74        0.00      92.04       1.96       0.01       2.78       ----

> <Gold.Chemscore.Fitness>
17.5984

> <Gold.Chemscore.DG>
-20.3801

> <Gold.Chemscore.ZeroCoef>
-5.4800

> <Gold.Chemscore.Hbond>
2.7420

> <Gold.Chemscore.Metal>
0.0000

> <Gold.Chemscore.Lipo>
92.0446

> <Gold.Chemscore.Internal_Hbond>
0.0000

> <Gold.Chemscore.DEClash>
0.0062

> <Gold.Chemscore.DEInternal>
2.7754

> <Gold.Chemscore.Rot>
1.9638

> <Gold.Chemscore.Internal.Correction>
   9.000000E+99

> <Gold.Chemscore.Hbonds>
donor molecule, donor type, donor heavy atom, donor atom, acceptor molecule, acceptor atom, score
      L1  H    23    50       P1  7948  0.91
      P1  H  6896  6909       L1    10  0.87
      P1  H  7997  8008       L1    25  0.75

> <Gold.Chemscore.Hbond.Weighted>
-9.1582

> <Gold.Chemscore.Metal.Weighted>
-0.0000

> <Gold.Chemscore.Lipo.Weighted>
-10.7692

> <Gold.Chemscore.Internal_Hbond.Weighted>
0.0000

> <Gold.Chemscore.DEClash.Weighted>
0.0062

> <Gold.Chemscore.DEInternal.Weighted>
2.7754

> <Gold.Chemscore.Rot.Weighted>
5.0274

> <Gold.Chemscore.Internal.Correction.Weighted>
   9.000000E+99

> <Gold.Protein.RotatedTorsions>
[ 6907 6896 6895 6894 ] final   88.29 input  -60.11 | X-H torsion
[ 7974 7965 7964 7962 ] final   96.43 input  175.53 | X-H torsion
[ 8008 7997 7996 7995 ] final  -58.98 input   59.86 | X-H torsion
[ 10167 10162 10161 10158 ] final -118.02 input  -65.29 | X-H torsion
[ 10718 10713 10712 10709 ] final -121.85 input   66.30 | X-H torsion
[ 10763 10752 10751 10750 ] final  101.61 input  -60.55 | X-H torsion
[ 11005 11000 10999 10996 ] final  171.12 input  -57.11 | X-H torsion

> <Gold.Protein.ActiveResidues>
 VAL166  LYS551  ARG553  GLY616  TRP617  ASP618  TYR619  PRO620  LYS621  CYS622 
 ASP623  PHE694  ASN695  SER759  ASP760  ASP761  ALA762  ILE779  LEU786  VAL792 
 PHE793  MET794  SER795  GLU796  ALA797  LYS798  CYS799  TRP800  GLU811  SER814 

> <Gold.Protein.RotatedAtoms>
  152.5423  134.2144  159.8762 H   0  0  0  0  0  0  0  0  0  0  0  0  # atno 6907 bound_to 6896
  151.2125  133.4541  159.2606 H   0  0  0  0  0  0  0  0  0  0  0  0  # atno 6908 bound_to 6896
  151.0883  134.9913  159.8446 H   0  0  0  0  0  0  0  0  0  0  0  0  # atno 6909 bound_to 6896
  145.4390  139.2303  143.3102 H   0  0  0  0  0  0  0  0  0  0  0  0  # atno 7974 bound_to 7965
  154.4332  140.1072  156.6044 H   0  0  0  0  0  0  0  0  0  0  0  0  # atno 8008 bound_to 7997
  155.5877  140.3491  155.4539 H   0  0  0  0  0  0  0  0  0  0  0  0  # atno 8009 bound_to 7997
  156.0270  140.1252  157.0287 H   0  0  0  0  0  0  0  0  0  0  0  0  # atno 8010 bound_to 7997
  140.0621  143.4958  152.2026 H   0  0  0  0  0  0  0  0  0  0  0  0  # atno 10167 bound_to 10162
  156.1371  130.6438  150.9713 H   0  0  0  0  0  0  0  0  0  0  0  0  # atno 10718 bound_to 10713
  153.3289  135.4039  155.1479 H   0  0  0  0  0  0  0  0  0  0  0  0  # atno 10763 bound_to 10752
  154.8618  135.3605  154.5497 H   0  0  0  0  0  0  0  0  0  0  0  0  # atno 10764 bound_to 10752
  153.5935  135.7073  153.5473 H   0  0  0  0  0  0  0  0  0  0  0  0  # atno 10765 bound_to 10752
  140.3157  134.7480  157.4025 H   0  0  0  0  0  0  0  0  0  0  0  0  # atno 11005 bound_to 11000
  146.2567  140.5136  142.8871 LP  0  0  0  0  0  0  0  0  0  0  0  0  # atno 17320 bound_to 7965
  144.8134  140.6425  143.6400 LP  0  0  0  0  0  0  0  0  0  0  0  0  # atno 17321 bound_to 7965
  139.5888  144.7542  151.3454 LP  0  0  0  0  0  0  0  0  0  0  0  0  # atno 17342 bound_to 10162
  140.7167  143.7247  150.7669 LP  0  0  0  0  0  0  0  0  0  0  0  0  # atno 17343 bound_to 10162
  157.6542  131.0892  150.7984 LP  0  0  0  0  0  0  0  0  0  0  0  0  # atno 17370 bound_to 10713
  156.8063  130.4937  149.5362 LP  0  0  0  0  0  0  0  0  0  0  0  0  # atno 17371 bound_to 10713
  140.0986  134.5503  155.8374 LP  0  0  0  0  0  0  0  0  0  0  0  0  # atno 17394 bound_to 11000
  141.2098  133.6688  156.6466 LP  0  0  0  0  0  0  0  0  0  0  0  0  # atno 17395 bound_to 11000

$$$$
