AV-unprocessed.smi:1208|AV-procd|sdf|5065|dock9
  -GOLD-   22720 4103D 1   1.00000     0.00000
 Structure written by MMmdl.
 36 37  0  0  0  0  0  0  0  0  1 V2000
  151.3492  145.1386  159.2840 C   0  0  0  0  0  0  0  0  0  0  0  0
  152.2689  143.9106  159.1732 C   0  0  2  0  0  0  0  0  0  0  0  0
  151.8945  143.1263  157.9994 N   0  0  0  0  0  0  0  0  0  0  0  0
  150.7590  142.4253  157.8597 C   0  0  0  0  0  0  0  0  0  0  0  0
  149.9048  142.3366  158.7427 O   0  0  0  0  0  0  0  0  0  0  0  0
  150.5780  141.6925  156.5228 C   0  0  0  0  0  0  0  0  0  0  0  0
  151.3499  140.4442  156.4446 N   0  0  0  0  0  0  0  0  0  0  0  0
  152.0865  140.1585  157.5843 N   0  0  0  0  0  0  0  0  0  0  0  0
  152.7927  139.0802  157.6415 C   0  0  0  0  0  0  0  0  0  0  0  0
  153.5036  138.8343  158.7902 O   0  0  0  0  0  0  0  0  0  0  0  0
  152.8377  138.1545  156.5310 C   0  0  0  0  0  0  0  0  0  0  0  0
  152.1220  138.4449  155.4226 C   0  0  0  0  0  0  0  0  0  0  0  0
  151.3115  139.6599  155.3235 C   0  0  0  0  0  0  0  0  0  0  0  0
  150.6542  139.9520  154.3245 O   0  0  0  0  0  0  0  0  0  0  0  0
  152.2038  143.0111  160.4227 C   0  0  2  0  0  0  0  0  0  0  0  0
  152.5260  143.7242  161.7385 C   0  0  0  0  0  0  0  0  0  0  0  0
  153.0479  142.5897  162.5891 C   0  0  0  0  0  0  0  0  0  0  0  0
  153.8487  141.7915  161.5677 C   0  0  0  0  0  0  0  0  0  0  0  0
  153.1675  141.9613  160.3284 O   0  0  0  0  0  0  0  0  0  0  0  0
  154.3848  138.6485  158.5043 H   0  0  0  0  0  0  0  0  0  0  0  0
  151.6317  145.7721  160.1248 H   0  0  0  0  0  0  0  0  0  0  0  0
  150.3088  144.8435  159.4240 H   0  0  0  0  0  0  0  0  0  0  0  0
  151.4024  145.7535  158.3849 H   0  0  0  0  0  0  0  0  0  0  0  0
  153.2981  144.2569  159.0618 H   0  0  0  0  0  0  0  0  0  0  0  0
  152.5378  143.1431  157.2213 H   0  0  0  0  0  0  0  0  0  0  0  0
  149.5196  141.4867  156.3503 H   0  0  0  0  0  0  0  0  0  0  0  0
  150.8772  142.3736  155.7242 H   0  0  0  0  0  0  0  0  0  0  0  0
  153.4324  137.2553  156.5960 H   0  0  0  0  0  0  0  0  0  0  0  0
  152.1460  137.7624  154.5857 H   0  0  0  0  0  0  0  0  0  0  0  0
  151.2200  142.5453  160.5029 H   0  0  0  0  0  0  0  0  0  0  0  0
  153.3109  144.4681  161.5930 H   0  0  0  0  0  0  0  0  0  0  0  0
  151.6604  144.2221  162.1764 H   0  0  0  0  0  0  0  0  0  0  0  0
  153.6480  142.9254  163.4353 H   0  0  0  0  0  0  0  0  0  0  0  0
  152.2185  141.9921  162.9700 H   0  0  0  0  0  0  0  0  0  0  0  0
  154.8541  142.2025  161.4681 H   0  0  0  0  0  0  0  0  0  0  0  0
  153.9373  140.7383  161.8349 H   0  0  0  0  0  0  0  0  0  0  0  0
  1  2  1  0  0  0  0
  1 21  1  0  0  0  0
  1 22  1  0  0  0  0
  1 23  1  0  0  0  0
  2  3  1  0  0  0  0
  2 15  1  0  0  0  0
  2 24  1  0  0  0  0
  3  4  1  0  0  0  0
  3 25  1  0  0  0  0
  4  5  2  0  0  0  0
  4  6  1  0  0  0  0
  6 26  1  0  0  0  0
  6 27  1  0  0  0  0
  6  7  1  0  0  0  0
  7  8  1  0  0  0  0
  7 13  1  0  0  0  0
  8  9  2  0  0  0  0
  9 10  1  0  0  0  0
  9 11  1  0  0  0  0
 10 20  1  0  0  0  0
 11 28  1  0  0  0  0
 11 12  2  0  0  0  0
 12 29  1  0  0  0  0
 12 13  1  0  0  0  0
 13 14  2  0  0  0  0
 15 19  1  0  0  0  0
 15 16  1  0  0  0  0
 15 30  1  0  0  0  0
 16 17  1  0  0  0  0
 16 31  1  0  0  0  0
 16 32  1  0  0  0  0
 17 18  1  0  0  0  0
 17 33  1  0  0  0  0
 17 34  1  0  0  0  0
 18 19  1  0  0  0  0
 18 35  1  0  0  0  0
 18 36  1  0  0  0  0
M  END
> <s_m_source_file>
AV-unprocessed.smi

> <i_m_source_file_index>
1208

> <i_lp_mmshare_version>
43012

> <i_f3d_flags>
0

> <s_epik_input>
TzFbQ0gyXVtDSDJdW0NIMl1bQ0BIXTFbQ0BIXShbQ0gzXSlbTkhdQyg9TylbQ0gyXW4yW25IXWMoPU8pW2NIXVtjSF1jMj1P

> <s_epik_cmdline>
J2VwaWtfcHl0aG9uJywgJy1waCcsICc3LjAnLCAnLXRuJywgJzgnLCAnLW1hJywgJzIwMCcsICctbWV0YWxfYmluZGluZycsICctaW1hZScsICc8aW5maWxlLm1hZT4nLCAnLW9tYWUnLCAnPG91dGZpbGUubWFlPic=

> <r_lp_tautomer_probability>
0.9996

> <r_epik_Ionization_Penalty>
2.12735

> <r_epik_Ionization_Penalty_Charging>
3.86665e-08

> <r_epik_Ionization_Penalty_Neutral>
2.12735

> <r_epik_State_Penalty>
1.70441

> <r_epik_Charging_Adjusted_Penalty>
1.70441

> <i_epik_Tot_Q>
0

> <i_epik_Tot_abs_Q>
0

> <r_epik_Metal_State_Penalty>
1.70441

> <b_epik_Metal_Only>
0

> <s_lp_Force_Field>
OPLS_2005

> <r_lp_Energy>
29.6219

> <b_lp_Chiralities_Consistent>
1

> <s_lp_Variant>
AV-unprocessed.smi:1208-5

> <Gold.Version>
5.8.1

> <Gold.Id.Protein>
6NUR|6NUR_protein|mol2

> <Gold.PLP.Fitness>
44.9178

> <Gold.PLP.PLP>
-42.5651

> <Gold.PLP.part.hbond>
-1.4227

> <Gold.PLP.part.metal>
0.0000

> <Gold.PLP.part.buried>
-4.8424

> <Gold.PLP.part.nonpolar>
-35.9209

> <Gold.PLP.part.repulsive>
0.2316

> <Gold.PLP.ligand.clash>
0.0000

> <Gold.PLP.ligand.torsion>
0.3328

> <Gold.PLP.Chemscore.Hbond>
1.0000

> <Gold.PLP.Chemscore.CHOScore>
0.0000

> <Gold.PLP.Chemscore.Metal>
0.0000

> <Gold.Chemscore.Hbonds>
donor molecule, donor type, donor heavy atom, donor atom, acceptor molecule, acceptor atom, score
      P1  H  7989  7998       L1    14  1.00

> <Gold.PLP.Chemscore.Internal.Correction>
0.0183

> <Gold.Rescore>
     Score         DG    S(hbond)    S(metal)    S(lipo)     H(rot)  DE(clash)    DE(int)     intcor
     11.04     -12.55       0.99        0.00      89.59       2.63       0.00       1.51       ----

> <Gold.Chemscore.Fitness>
11.0389

> <Gold.Chemscore.DG>
-12.5534

> <Gold.Chemscore.ZeroCoef>
-5.4800

> <Gold.Chemscore.Hbond>
0.9926

> <Gold.Chemscore.Metal>
0.0000

> <Gold.Chemscore.Lipo>
89.5891

> <Gold.Chemscore.Internal_Hbond>
0.0000

> <Gold.Chemscore.DEClash>
0.0000

> <Gold.Chemscore.DEInternal>
1.5145

> <Gold.Chemscore.Rot>
2.6264

> <Gold.Chemscore.Internal.Correction>
   9.000000E+99

> <Gold.Chemscore.Hbonds>
donor molecule, donor type, donor heavy atom, donor atom, acceptor molecule, acceptor atom, score
      P1  H  7989  7998       L1    14  0.44

> <Gold.Chemscore.Hbond.Weighted>
-3.3152

> <Gold.Chemscore.Metal.Weighted>
-0.0000

> <Gold.Chemscore.Lipo.Weighted>
-10.4819

> <Gold.Chemscore.Internal_Hbond.Weighted>
0.0000

> <Gold.Chemscore.DEClash.Weighted>
0.0000

> <Gold.Chemscore.DEInternal.Weighted>
1.5145

> <Gold.Chemscore.Rot.Weighted>
6.7237

> <Gold.Chemscore.Internal.Correction.Weighted>
   9.000000E+99

> <Gold.Protein.RotatedTorsions>
[ 6907 6896 6895 6894 ] final   50.91 input  -60.11 | X-H torsion
[ 7974 7965 7964 7962 ] final -118.22 input  175.53 | X-H torsion
[ 8008 7997 7996 7995 ] final  -87.10 input   59.86 | X-H torsion
[ 10167 10162 10161 10158 ] final  -41.65 input  -65.29 | X-H torsion
[ 10718 10713 10712 10709 ] final  104.37 input   66.30 | X-H torsion
[ 10763 10752 10751 10750 ] final   45.36 input  -60.55 | X-H torsion
[ 11005 11000 10999 10996 ] final  -15.58 input  -57.11 | X-H torsion

> <Gold.Protein.ActiveResidues>
 VAL166  LYS551  ARG553  GLY616  TRP617  ASP618  TYR619  PRO620  LYS621  CYS622 
 ASP623  PHE694  ASN695  SER759  ASP760  ASP761  ALA762  ILE779  LEU786  VAL792 
 PHE793  MET794  SER795  GLU796  ALA797  LYS798  CYS799  TRP800  GLU811  SER814 

> <Gold.Protein.RotatedAtoms>
  152.3070  134.7543  160.0344 H   0  0  0  0  0  0  0  0  0  0  0  0  # atno 6907 bound_to 6896
  151.8037  133.3368  159.3542 H   0  0  0  0  0  0  0  0  0  0  0  0  # atno 6908 bound_to 6896
  150.7301  134.5659  159.5910 H   0  0  0  0  0  0  0  0  0  0  0  0  # atno 6909 bound_to 6896
  145.0763  140.8395  143.4065 H   0  0  0  0  0  0  0  0  0  0  0  0  # atno 7974 bound_to 7965
  154.6593  140.0570  157.0044 H   0  0  0  0  0  0  0  0  0  0  0  0  # atno 8008 bound_to 7997
  155.1252  140.3251  155.4469 H   0  0  0  0  0  0  0  0  0  0  0  0  # atno 8009 bound_to 7997
  156.2611  140.1990  156.6373 H   0  0  0  0  0  0  0  0  0  0  0  0  # atno 8010 bound_to 7997
  140.6995  143.3082  151.3096 H   0  0  0  0  0  0  0  0  0  0  0  0  # atno 10167 bound_to 10162
  157.6742  131.0802  150.5696 H   0  0  0  0  0  0  0  0  0  0  0  0  # atno 10718 bound_to 10713
  152.9826  135.6042  154.3423 H   0  0  0  0  0  0  0  0  0  0  0  0  # atno 10763 bound_to 10752
  154.3119  135.2771  155.2564 H   0  0  0  0  0  0  0  0  0  0  0  0  # atno 10764 bound_to 10752
  154.4769  135.5927  153.6417 H   0  0  0  0  0  0  0  0  0  0  0  0  # atno 10765 bound_to 10752
  140.7981  133.8235  155.9443 H   0  0  0  0  0  0  0  0  0  0  0  0  # atno 11005 bound_to 11000
  145.1231  139.2680  143.5578 LP  0  0  0  0  0  0  0  0  0  0  0  0  # atno 17320 bound_to 7965
  146.3530  140.0861  142.8615 LP  0  0  0  0  0  0  0  0  0  0  0  0  # atno 17321 bound_to 7965
  139.6496  144.0387  152.2616 LP  0  0  0  0  0  0  0  0  0  0  0  0  # atno 17342 bound_to 10162
  139.9919  144.6355  150.7806 LP  0  0  0  0  0  0  0  0  0  0  0  0  # atno 17343 bound_to 10162
  156.5998  130.4351  149.5902 LP  0  0  0  0  0  0  0  0  0  0  0  0  # atno 17370 bound_to 10713
  156.2516  130.6910  151.1650 LP  0  0  0  0  0  0  0  0  0  0  0  0  # atno 17371 bound_to 10713
  140.9322  134.2007  157.4856 LP  0  0  0  0  0  0  0  0  0  0  0  0  # atno 17394 bound_to 11000
  139.8724  134.9838  156.5211 LP  0  0  0  0  0  0  0  0  0  0  0  0  # atno 17395 bound_to 11000

$$$$
