AV-unprocessed.smi:2649|AV-procd|sdf|10290|dock3
  -GOLD-   2272014303D 1   1.00000     0.00000
 Structure written by MMmdl.
 34 35  0  0  0  0  0  0  0  0  1 V2000
  146.0013  132.1379  149.6455 C   0  0  0  0  0  0  0  0  0  0  0  0
  146.6934  133.2620  150.8894 S   0  0  0  0  0  0  0  0  0  0  0  0
  146.6959  132.1940  152.3613 C   0  0  0  0  0  0  0  0  0  0  0  0
  147.7905  132.6071  153.3324 C   0  0  0  0  0  0  0  0  0  0  0  0
  147.8732  133.9329  153.5823 N   0  0  0  0  0  0  0  0  0  0  0  0
  148.8242  134.3979  154.4286 C   0  0  0  0  0  0  0  0  0  0  0  0
  148.9903  135.7717  154.7452 N   0  0  0  0  0  0  0  0  0  0  0  0
  150.1144  136.4150  155.1164 C   0  0  0  0  0  0  0  0  0  0  0  0
  151.2051  135.8654  155.2776 O   0  0  0  0  0  0  0  0  0  0  0  0
  149.9745  137.9232  155.3756 C   0  0  1  0  0  0  0  0  0  0  0  0
  150.9338  138.7681  154.5051 C   0  0  0  0  0  0  0  0  0  0  0  0
  150.7203  140.1485  154.7697 O   0  0  0  0  0  0  0  0  0  0  0  0
  149.3834  140.5315  154.4803 C   0  0  0  0  0  0  0  0  0  0  0  0
  148.4288  139.7054  155.3569 C   0  0  0  0  0  0  0  0  0  0  0  0
  148.6355  138.3248  155.0907 O   0  0  0  0  0  0  0  0  0  0  0  0
  149.7283  133.5205  155.0660 C   0  0  0  0  0  0  0  0  0  0  0  0
  149.6434  132.1380  154.8147 C   0  0  0  0  0  0  0  0  0  0  0  0
  148.6567  131.6640  153.9308 C   0  0  0  0  0  0  0  0  0  0  0  0
  148.5335  129.9702  153.6098 Cl  0  0  0  0  0  0  0  0  0  0  0  0
  146.0228  132.6096  148.6632 H   0  0  0  0  0  0  0  0  0  0  0  0
  144.9666  131.8891  149.8813 H   0  0  0  0  0  0  0  0  0  0  0  0
  146.5810  131.2157  149.5995 H   0  0  0  0  0  0  0  0  0  0  0  0
  145.7175  132.2446  152.8414 H   0  0  0  0  0  0  0  0  0  0  0  0
  146.8415  131.1577  152.0558 H   0  0  0  0  0  0  0  0  0  0  0  0
  148.1592  136.3404  154.6721 H   0  0  0  0  0  0  0  0  0  0  0  0
  150.1855  138.0968  156.4323 H   0  0  0  0  0  0  0  0  0  0  0  0
  151.9735  138.5339  154.7356 H   0  0  0  0  0  0  0  0  0  0  0  0
  150.7863  138.5647  153.4429 H   0  0  0  0  0  0  0  0  0  0  0  0
  149.2644  141.5952  154.6876 H   0  0  0  0  0  0  0  0  0  0  0  0
  149.1677  140.3832  153.4210 H   0  0  0  0  0  0  0  0  0  0  0  0
  148.5914  139.9146  156.4152 H   0  0  0  0  0  0  0  0  0  0  0  0
  147.3927  139.9599  155.1336 H   0  0  0  0  0  0  0  0  0  0  0  0
  150.4819  133.8984  155.7415 H   0  0  0  0  0  0  0  0  0  0  0  0
  150.3267  131.4527  155.2940 H   0  0  0  0  0  0  0  0  0  0  0  0
  1  2  1  0  0  0  0
  1 20  1  0  0  0  0
  1 21  1  0  0  0  0
  1 22  1  0  0  0  0
  2  3  1  0  0  0  0
  3  4  1  0  0  0  0
  3 23  1  0  0  0  0
  3 24  1  0  0  0  0
  4 18  1  0  0  0  0
  4  5  2  0  0  0  0
  5  6  1  0  0  0  0
  6  7  1  0  0  0  0
  6 16  2  0  0  0  0
  7  8  1  0  0  0  0
  7 25  1  0  0  0  0
  8  9  2  0  0  0  0
  8 10  1  0  0  0  0
 10 15  1  0  0  0  0
 10 11  1  0  0  0  0
 10 26  1  0  0  0  0
 11 12  1  0  0  0  0
 11 27  1  0  0  0  0
 11 28  1  0  0  0  0
 12 13  1  0  0  0  0
 13 14  1  0  0  0  0
 13 29  1  0  0  0  0
 13 30  1  0  0  0  0
 14 15  1  0  0  0  0
 14 31  1  0  0  0  0
 14 32  1  0  0  0  0
 16 17  1  0  0  0  0
 16 33  1  0  0  0  0
 17 18  2  0  0  0  0
 17 34  1  0  0  0  0
 18 19  1  0  0  0  0
M  END
> <s_m_source_file>
AV-unprocessed.smi

> <i_m_source_file_index>
2649

> <i_lp_mmshare_version>
43012

> <i_f3d_flags>
0

> <s_epik_input>
W0NIM11TW0NIMl1jMW5jKFtjSF1bY0hdYzFDbClbTkhdQyg9TylbQ0BASF0yW0NIMl1PW0NIMl1bQ0gyXU8y

> <s_epik_cmdline>
J2VwaWtfcHl0aG9uJywgJy1waCcsICc3LjAnLCAnLXRuJywgJzgnLCAnLW1hJywgJzIwMCcsICctbWV0YWxfYmluZGluZycsICctaW1hZScsICc8aW5maWxlLm1hZT4nLCAnLW9tYWUnLCAnPG91dGZpbGUubWFlPic=

> <r_lp_tautomer_probability>
1

> <r_epik_Ionization_Penalty>
9.71596e-06

> <r_epik_Ionization_Penalty_Charging>
0

> <r_epik_Ionization_Penalty_Neutral>
9.71596e-06

> <r_epik_State_Penalty>
-0

> <r_epik_Charging_Adjusted_Penalty>
0

> <i_epik_Tot_Q>
0

> <i_epik_Tot_abs_Q>
0

> <r_epik_Metal_State_Penalty>
-0

> <b_epik_Metal_Only>
0

> <s_lp_Force_Field>
OPLS_2005

> <r_lp_Energy>
11.632

> <b_lp_Chiralities_Consistent>
1

> <s_lp_Variant>
AV-unprocessed.smi:2649-2

> <Gold.Version>
5.8.1

> <Gold.Id.Protein>
6NUR|6NUR_protein|mol2

> <Gold.PLP.Fitness>
39.0439

> <Gold.PLP.PLP>
-34.0178

> <Gold.PLP.part.hbond>
-3.0000

> <Gold.PLP.part.metal>
0.0000

> <Gold.PLP.part.buried>
-4.2839

> <Gold.PLP.part.nonpolar>
-28.0955

> <Gold.PLP.part.repulsive>
1.1292

> <Gold.PLP.ligand.clash>
0.0000

> <Gold.PLP.ligand.torsion>
0.4974

> <Gold.PLP.Chemscore.Hbond>
2.0000

> <Gold.PLP.Chemscore.CHOScore>
0.0000

> <Gold.PLP.Chemscore.Metal>
0.0000

> <Gold.Chemscore.Hbonds>
donor molecule, donor type, donor heavy atom, donor atom, acceptor molecule, acceptor atom, score
      P1  H  7989  7998       L1    12  1.00
      P1  H 10752 10763       L1     9  1.00

> <Gold.PLP.Chemscore.Internal.Correction>
0.0210

> <Gold.Rescore>
     Score         DG    S(hbond)    S(metal)    S(lipo)     H(rot)  DE(clash)    DE(int)     intcor
     14.89     -16.86       1.83        0.00      74.46       1.34       0.11       1.85       ----

> <Gold.Chemscore.Fitness>
14.8904

> <Gold.Chemscore.DG>
-16.8565

> <Gold.Chemscore.ZeroCoef>
-5.4800

> <Gold.Chemscore.Hbond>
1.8256

> <Gold.Chemscore.Metal>
0.0000

> <Gold.Chemscore.Lipo>
74.4623

> <Gold.Chemscore.Internal_Hbond>
0.0000

> <Gold.Chemscore.DEClash>
0.1120

> <Gold.Chemscore.DEInternal>
1.8541

> <Gold.Chemscore.Rot>
1.3410

> <Gold.Chemscore.Internal.Correction>
   9.000000E+99

> <Gold.Chemscore.Hbonds>
donor molecule, donor type, donor heavy atom, donor atom, acceptor molecule, acceptor atom, score
      P1  H  7989  7998       L1    12  0.12
      P1  H 10752 10763       L1     9  1.00

> <Gold.Chemscore.Hbond.Weighted>
-6.0974

> <Gold.Chemscore.Metal.Weighted>
-0.0000

> <Gold.Chemscore.Lipo.Weighted>
-8.7121

> <Gold.Chemscore.Internal_Hbond.Weighted>
0.0000

> <Gold.Chemscore.DEClash.Weighted>
0.1120

> <Gold.Chemscore.DEInternal.Weighted>
1.8541

> <Gold.Chemscore.Rot.Weighted>
3.4331

> <Gold.Chemscore.Internal.Correction.Weighted>
   9.000000E+99

> <Gold.Protein.RotatedTorsions>
[ 6907 6896 6895 6894 ] final   20.17 input  -60.11 | X-H torsion
[ 7974 7965 7964 7962 ] final  126.75 input  175.53 | X-H torsion
[ 8008 7997 7996 7995 ] final  -49.29 input   59.86 | X-H torsion
[ 10167 10162 10161 10158 ] final -147.17 input  -65.29 | X-H torsion
[ 10718 10713 10712 10709 ] final   17.87 input   66.30 | X-H torsion
[ 10763 10752 10751 10750 ] final   62.60 input  -60.55 | X-H torsion
[ 11005 11000 10999 10996 ] final   59.14 input  -57.11 | X-H torsion

> <Gold.Protein.ActiveResidues>
 VAL166  LYS551  ARG553  GLY616  TRP617  ASP618  TYR619  PRO620  LYS621  CYS622 
 ASP623  PHE694  ASN695  SER759  ASP760  ASP761  ALA762  ILE779  LEU786  VAL792 
 PHE793  MET794  SER795  GLU796  ALA797  LYS798  CYS799  TRP800  GLU811  SER814 

> <Gold.Protein.RotatedAtoms>
  151.8922  135.0412  160.0498 H   0  0  0  0  0  0  0  0  0  0  0  0  # atno 6907 bound_to 6896
  152.2426  133.5144  159.5287 H   0  0  0  0  0  0  0  0  0  0  0  0  # atno 6908 bound_to 6896
  150.7058  134.0984  159.3999 H   0  0  0  0  0  0  0  0  0  0  0  0  # atno 6909 bound_to 6896
  145.0583  139.3826  143.5019 H   0  0  0  0  0  0  0  0  0  0  0  0  # atno 7974 bound_to 7965
  154.4042  140.1300  156.4478 H   0  0  0  0  0  0  0  0  0  0  0  0  # atno 8008 bound_to 7997
  155.7395  140.3490  155.5078 H   0  0  0  0  0  0  0  0  0  0  0  0  # atno 8009 bound_to 7997
  155.9052  140.1026  157.1311 H   0  0  0  0  0  0  0  0  0  0  0  0  # atno 8010 bound_to 7997
  139.7646  143.8326  152.2613 H   0  0  0  0  0  0  0  0  0  0  0  0  # atno 10167 bound_to 10162
  157.0882  130.6416  149.5842 H   0  0  0  0  0  0  0  0  0  0  0  0  # atno 10718 bound_to 10713
  152.9988  135.5459  154.6219 H   0  0  0  0  0  0  0  0  0  0  0  0  # atno 10763 bound_to 10752
  154.5516  135.2827  155.1005 H   0  0  0  0  0  0  0  0  0  0  0  0  # atno 10764 bound_to 10752
  154.2242  135.6445  153.5207 H   0  0  0  0  0  0  0  0  0  0  0  0  # atno 10765 bound_to 10752
  140.0326  134.5990  155.9487 H   0  0  0  0  0  0  0  0  0  0  0  0  # atno 11005 bound_to 11000
  146.3523  140.0268  142.8654 LP  0  0  0  0  0  0  0  0  0  0  0  0  # atno 17320 bound_to 7965
  145.1441  140.9587  143.4471 LP  0  0  0  0  0  0  0  0  0  0  0  0  # atno 17321 bound_to 7965
  139.8343  144.7239  150.9411 LP  0  0  0  0  0  0  0  0  0  0  0  0  # atno 17342 bound_to 10162
  140.7810  143.4041  151.1099 LP  0  0  0  0  0  0  0  0  0  0  0  0  # atno 17343 bound_to 10162
  155.9905  130.4956  150.7260 LP  0  0  0  0  0  0  0  0  0  0  0  0  # atno 17370 bound_to 10713
  157.4743  131.0896  151.0607 LP  0  0  0  0  0  0  0  0  0  0  0  0  # atno 17371 bound_to 10713
  141.1839  133.6552  156.5137 LP  0  0  0  0  0  0  0  0  0  0  0  0  # atno 17394 bound_to 11000
  140.4200  134.7195  157.4885 LP  0  0  0  0  0  0  0  0  0  0  0  0  # atno 17395 bound_to 11000

$$$$
