AV-unprocessed.smi:2828|AV-procd|sdf|10897|dock6
  -GOLD-   2272015343D 1   1.00000     0.00000
 Structure written by MMmdl.
 38 39  0  0  0  0  0  0  0  0  1 V2000
  152.6578  144.7135  157.9804 C   0  0  0  0  0  0  0  0  0  0  0  0
  151.9938  144.3387  159.3056 C   0  0  0  0  0  0  0  0  0  0  0  0
  151.4505  145.6130  159.9385 C   0  0  0  0  0  0  0  0  0  0  0  0
  151.2080  143.0450  159.5169 C   0  0  0  0  0  0  0  0  0  0  0  0
  151.0245  142.0946  158.3778 C   0  0  0  0  0  0  0  0  0  0  0  0
  151.3345  140.9053  158.4481 O   0  0  0  0  0  0  0  0  0  0  0  0
  150.5644  142.6672  157.2549 N   0  0  0  0  0  0  0  0  0  0  0  0
  150.3251  141.9690  155.9973 C   0  0  0  0  0  0  0  0  0  0  0  0
  149.5097  140.6833  156.2083 C   0  0  0  0  0  0  0  0  0  0  0  0
  148.2885  140.6371  155.3527 C   0  0  0  0  0  0  0  0  0  0  0  0
  148.2392  140.5045  154.0292 N   0  0  0  0  0  0  0  0  0  0  0  0
  146.8957  140.4707  153.8213 C   0  0  0  0  0  0  0  0  0  0  0  0
  146.3634  140.3496  152.5271 N   0  0  0  0  0  0  0  0  0  0  0  0
  146.1365  140.5553  154.9055 N   0  0  0  0  0  0  0  0  0  0  0  0
  147.0710  140.6556  155.9466 O   0  0  0  0  0  0  0  0  0  0  0  0
  152.5765  143.2193  160.1698 C   0  0  0  0  0  0  0  0  0  0  0  0
  153.8123  142.4441  159.7123 C   0  0  0  0  0  0  0  0  0  0  0  0
  152.6342  143.3566  161.6852 C   0  0  0  0  0  0  0  0  0  0  0  0
  151.9457  145.2257  157.3327 H   0  0  0  0  0  0  0  0  0  0  0  0
  153.0281  143.8484  157.4342 H   0  0  0  0  0  0  0  0  0  0  0  0
  153.5005  145.3818  158.1596 H   0  0  0  0  0  0  0  0  0  0  0  0
  150.8463  145.3996  160.8193 H   0  0  0  0  0  0  0  0  0  0  0  0
  150.8165  146.1488  159.2315 H   0  0  0  0  0  0  0  0  0  0  0  0
  152.2708  146.2679  160.2335 H   0  0  0  0  0  0  0  0  0  0  0  0
  150.3315  143.1337  160.1565 H   0  0  0  0  0  0  0  0  0  0  0  0
  150.3576  143.6554  157.2765 H   0  0  0  0  0  0  0  0  0  0  0  0
  149.8195  142.6316  155.2925 H   0  0  0  0  0  0  0  0  0  0  0  0
  151.2923  141.7271  155.5560 H   0  0  0  0  0  0  0  0  0  0  0  0
  150.1222  139.8086  155.9870 H   0  0  0  0  0  0  0  0  0  0  0  0
  149.2029  140.5937  157.2511 H   0  0  0  0  0  0  0  0  0  0  0  0
  146.9762  140.2853  151.7270 H   0  0  0  0  0  0  0  0  0  0  0  0
  145.3639  140.3172  152.3877 H   0  0  0  0  0  0  0  0  0  0  0  0
  153.8816  141.4942  160.2431 H   0  0  0  0  0  0  0  0  0  0  0  0
  154.7139  143.0204  159.9221 H   0  0  0  0  0  0  0  0  0  0  0  0
  153.7970  142.2179  158.6479 H   0  0  0  0  0  0  0  0  0  0  0  0
  152.7796  142.3819  162.1518 H   0  0  0  0  0  0  0  0  0  0  0  0
  151.7113  143.7736  162.0862 H   0  0  0  0  0  0  0  0  0  0  0  0
  153.4608  144.0064  161.9744 H   0  0  0  0  0  0  0  0  0  0  0  0
  1  2  1  0  0  0  0
  1 19  1  0  0  0  0
  1 20  1  0  0  0  0
  1 21  1  0  0  0  0
  2 16  1  0  0  0  0
  2  3  1  0  0  0  0
  2  4  1  0  0  0  0
  3 22  1  0  0  0  0
  3 23  1  0  0  0  0
  3 24  1  0  0  0  0
  4  5  1  0  0  0  0
  4 16  1  0  0  0  0
  4 25  1  0  0  0  0
  5  6  2  0  0  0  0
  5  7  1  0  0  0  0
  7  8  1  0  0  0  0
  7 26  1  0  0  0  0
  8  9  1  0  0  0  0
  8 27  1  0  0  0  0
  8 28  1  0  0  0  0
  9 10  1  0  0  0  0
  9 29  1  0  0  0  0
  9 30  1  0  0  0  0
 10 15  1  0  0  0  0
 10 11  2  0  0  0  0
 11 12  1  0  0  0  0
 12 13  1  0  0  0  0
 12 14  2  0  0  0  0
 13 31  1  0  0  0  0
 13 32  1  0  0  0  0
 14 15  1  0  0  0  0
 16 17  1  0  0  0  0
 16 18  1  0  0  0  0
 17 33  1  0  0  0  0
 17 34  1  0  0  0  0
 17 35  1  0  0  0  0
 18 36  1  0  0  0  0
 18 37  1  0  0  0  0
 18 38  1  0  0  0  0
M  END
> <s_m_source_file>
AV-unprocessed.smi

> <i_m_source_file_index>
2828

> <i_lp_mmshare_version>
43012

> <i_f3d_flags>
0

> <s_epik_input>
W0NIM11DMShbQ0gzXSlbQ0hdKEMxKFtDSDNdKVtDSDNdKUMoPU8pW05IXVtDSDJdW0NIMl1jMm5jKFtOSDJdKW5vMg==

> <s_epik_cmdline>
J2VwaWtfcHl0aG9uJywgJy1waCcsICc3LjAnLCAnLXRuJywgJzgnLCAnLW1hJywgJzIwMCcsICctbWV0YWxfYmluZGluZycsICctaW1hZScsICc8aW5maWxlLm1hZT4nLCAnLW9tYWUnLCAnPG91dGZpbGUubWFlPic=

> <r_lp_tautomer_probability>
1

> <r_epik_Ionization_Penalty>
9.99855e-05

> <r_epik_Ionization_Penalty_Charging>
0

> <r_epik_Ionization_Penalty_Neutral>
9.99855e-05

> <r_epik_State_Penalty>
-0

> <r_epik_Charging_Adjusted_Penalty>
0

> <i_epik_Tot_Q>
0

> <i_epik_Tot_abs_Q>
0

> <r_epik_Metal_State_Penalty>
-0

> <b_epik_Metal_Only>
0

> <s_lp_Force_Field>
OPLS_2005

> <r_lp_Energy>
20.4222

> <b_lp_Chiralities_Consistent>
1

> <s_lp_Variant>
AV-unprocessed.smi:2828-1

> <Gold.Version>
5.8.1

> <Gold.Id.Protein>
6NUR|6NUR_protein|mol2

> <Gold.PLP.Fitness>
42.3729

> <Gold.PLP.PLP>
-39.4922

> <Gold.PLP.part.hbond>
-2.3202

> <Gold.PLP.part.metal>
0.0000

> <Gold.PLP.part.buried>
-6.2251

> <Gold.PLP.part.nonpolar>
-32.0337

> <Gold.PLP.part.repulsive>
1.8942

> <Gold.PLP.ligand.clash>
0.0000

> <Gold.PLP.ligand.torsion>
0.5477

> <Gold.PLP.Chemscore.Hbond>
1.2762

> <Gold.PLP.Chemscore.CHOScore>
0.0000

> <Gold.PLP.Chemscore.Metal>
0.0000

> <Gold.Chemscore.Hbonds>
donor molecule, donor type, donor heavy atom, donor atom, acceptor molecule, acceptor atom, score
      L1  H     7    26       P1  8028  0.02
      L1  H    13    32       P1 10175  1.00

> <Gold.PLP.Chemscore.Internal.Correction>
0.1474

> <Gold.Rescore>
     Score         DG    S(hbond)    S(metal)    S(lipo)     H(rot)  DE(clash)    DE(int)     intcor
     13.28     -15.47       1.29        0.00      98.46       2.28       0.24       1.96       ----

> <Gold.Chemscore.Fitness>
13.2808

> <Gold.Chemscore.DG>
-15.4721

> <Gold.Chemscore.ZeroCoef>
-5.4800

> <Gold.Chemscore.Hbond>
1.2903

> <Gold.Chemscore.Metal>
0.0000

> <Gold.Chemscore.Lipo>
98.4569

> <Gold.Chemscore.Internal_Hbond>
0.0000

> <Gold.Chemscore.DEClash>
0.2355

> <Gold.Chemscore.DEInternal>
1.9557

> <Gold.Chemscore.Rot>
2.2801

> <Gold.Chemscore.Internal.Correction>
   9.000000E+99

> <Gold.Chemscore.Hbonds>
donor molecule, donor type, donor heavy atom, donor atom, acceptor molecule, acceptor atom, score
      L1  H     7    26       P1  8028  0.04
      L1  H    13    32       P1 10175  0.65

> <Gold.Chemscore.Hbond.Weighted>
-4.3096

> <Gold.Chemscore.Metal.Weighted>
-0.0000

> <Gold.Chemscore.Lipo.Weighted>
-11.5195

> <Gold.Chemscore.Internal_Hbond.Weighted>
0.0000

> <Gold.Chemscore.DEClash.Weighted>
0.2355

> <Gold.Chemscore.DEInternal.Weighted>
1.9557

> <Gold.Chemscore.Rot.Weighted>
5.8370

> <Gold.Chemscore.Internal.Correction.Weighted>
   9.000000E+99

> <Gold.Protein.RotatedTorsions>
[ 6907 6896 6895 6894 ] final  -77.35 input  -60.11 | X-H torsion
[ 7974 7965 7964 7962 ] final  -59.35 input  175.53 | X-H torsion
[ 8008 7997 7996 7995 ] final  145.66 input   59.86 | X-H torsion
[ 10167 10162 10161 10158 ] final  -19.37 input  -65.29 | X-H torsion
[ 10718 10713 10712 10709 ] final   43.30 input   66.30 | X-H torsion
[ 10763 10752 10751 10750 ] final -137.81 input  -60.55 | X-H torsion
[ 11005 11000 10999 10996 ] final  -18.62 input  -57.11 | X-H torsion

> <Gold.Protein.ActiveResidues>
 VAL166  LYS551  ARG553  GLY616  TRP617  ASP618  TYR619  PRO620  LYS621  CYS622 
 ASP623  PHE694  ASN695  SER759  ASP760  ASP761  ALA762  ILE779  LEU786  VAL792 
 PHE793  MET794  SER795  GLU796  ALA797  LYS798  CYS799  TRP800  GLU811  SER814 

> <Gold.Protein.RotatedAtoms>
  150.7001  134.4435  159.5302 H   0  0  0  0  0  0  0  0  0  0  0  0  # atno 6907 bound_to 6896
  152.2140  134.8472  160.0503 H   0  0  0  0  0  0  0  0  0  0  0  0  # atno 6908 bound_to 6896
  151.9346  133.3586  159.3980 H   0  0  0  0  0  0  0  0  0  0  0  0  # atno 6909 bound_to 6896
  145.8285  140.8495  143.0095 H   0  0  0  0  0  0  0  0  0  0  0  0  # atno 7974 bound_to 7965
  156.2877  140.2203  156.5252 H   0  0  0  0  0  0  0  0  0  0  0  0  # atno 8008 bound_to 7997
  154.7495  140.0481  157.0903 H   0  0  0  0  0  0  0  0  0  0  0  0  # atno 8009 bound_to 7997
  155.0128  140.3115  155.4826 H   0  0  0  0  0  0  0  0  0  0  0  0  # atno 8010 bound_to 7997
  140.7268  143.4825  151.0099 H   0  0  0  0  0  0  0  0  0  0  0  0  # atno 10167 bound_to 10162
  157.4144  130.7933  149.7459 H   0  0  0  0  0  0  0  0  0  0  0  0  # atno 10718 bound_to 10713
  154.8653  135.3631  154.5283 H   0  0  0  0  0  0  0  0  0  0  0  0  # atno 10763 bound_to 10752
  153.5910  135.7015  153.5428 H   0  0  0  0  0  0  0  0  0  0  0  0  # atno 10764 bound_to 10752
  153.3374  135.4107  155.1506 H   0  0  0  0  0  0  0  0  0  0  0  0  # atno 10765 bound_to 10752
  140.8286  133.8014  155.9735 H   0  0  0  0  0  0  0  0  0  0  0  0  # atno 11005 bound_to 11000
  144.6741  140.0638  143.7475 LP  0  0  0  0  0  0  0  0  0  0  0  0  # atno 17320 bound_to 7965
  145.9597  139.2791  143.1163 LP  0  0  0  0  0  0  0  0  0  0  0  0  # atno 17321 bound_to 7965
  139.8524  143.7420  152.3177 LP  0  0  0  0  0  0  0  0  0  0  0  0  # atno 17342 bound_to 10162
  139.7607  144.7507  151.0368 LP  0  0  0  0  0  0  0  0  0  0  0  0  # atno 17343 bound_to 10162
  155.9860  130.3978  150.3231 LP  0  0  0  0  0  0  0  0  0  0  0  0  # atno 17370 bound_to 10713
  157.1373  131.0287  151.2943 LP  0  0  0  0  0  0  0  0  0  0  0  0  # atno 17371 bound_to 10713
  140.9022  134.2364  157.5035 LP  0  0  0  0  0  0  0  0  0  0  0  0  # atno 17394 bound_to 11000
  139.8705  134.9712  156.4728 LP  0  0  0  0  0  0  0  0  0  0  0  0  # atno 17395 bound_to 11000

$$$$
