AV-unprocessed.smi:1130|AV-procd|sdf|4848|dock3
  -GOLD-   22720 3413D 1   1.00000     0.00000
 Structure written by MMmdl.
 36 37  0  0  0  0  0  0  0  0  1 V2000
  145.9875  134.4646  149.9688 C   0  0  0  0  0  0  0  0  0  0  0  0
  146.6496  134.0376  151.2343 C   0  0  0  0  0  0  0  0  0  0  0  0
  145.9847  134.0022  152.3827 N   0  0  0  0  0  0  0  0  0  0  0  0
  146.9472  133.5555  153.2998 O   0  0  0  0  0  0  0  0  0  0  0  0
  148.0889  133.3951  152.5884 C   0  0  0  0  0  0  0  0  0  0  0  0
  149.3034  132.8726  153.2798 C   0  0  0  0  0  0  0  0  0  0  0  0
  149.7463  133.7755  154.4418 C   0  0  0  0  0  0  0  0  0  0  0  0
  149.8938  135.1640  154.0214 N   0  0  0  0  0  0  0  0  0  0  0  0
  150.6997  136.0616  154.6051 C   0  0  0  0  0  0  0  0  0  0  0  0
  151.4091  135.8199  155.5818 O   0  0  0  0  0  0  0  0  0  0  0  0
  150.6382  137.2538  153.9970 N   0  0  0  0  0  0  0  0  0  0  0  0
  151.3985  138.4338  154.3929 C   0  0  0  0  0  0  0  0  0  0  0  0
  150.5444  139.4334  155.1920 C   0  0  2  0  0  0  0  0  0  0  0  0
  149.3763  140.0470  154.4147 C   0  0  0  0  0  0  0  0  0  0  0  0
  149.2263  141.4411  155.0091 C   0  0  0  0  0  0  0  0  0  0  0  0
  150.4085  141.5702  155.9714 C   0  0  0  0  0  0  0  0  0  0  0  0
  151.3186  140.5664  155.5507 O   0  0  0  0  0  0  0  0  0  0  0  0
  147.9577  133.6650  151.2918 N   0  0  0  0  0  0  0  0  0  0  0  0
  144.9121  134.2894  150.0160 H   0  0  0  0  0  0  0  0  0  0  0  0
  146.3884  133.9065  149.1222 H   0  0  0  0  0  0  0  0  0  0  0  0
  146.1585  135.5273  149.7962 H   0  0  0  0  0  0  0  0  0  0  0  0
  149.0899  131.8671  153.6444 H   0  0  0  0  0  0  0  0  0  0  0  0
  150.1037  132.7756  152.5453 H   0  0  0  0  0  0  0  0  0  0  0  0
  149.0390  133.7077  155.2703 H   0  0  0  0  0  0  0  0  0  0  0  0
  150.7086  133.4374  154.8272 H   0  0  0  0  0  0  0  0  0  0  0  0
  149.3498  135.4594  153.2238 H   0  0  0  0  0  0  0  0  0  0  0  0
  150.0245  137.3536  153.2016 H   0  0  0  0  0  0  0  0  0  0  0  0
  152.2739  138.1373  154.9728 H   0  0  0  0  0  0  0  0  0  0  0  0
  151.7766  138.9100  153.4878 H   0  0  0  0  0  0  0  0  0  0  0  0
  150.1742  138.9689  156.1081 H   0  0  0  0  0  0  0  0  0  0  0  0
  149.6190  140.1265  153.3542 H   0  0  0  0  0  0  0  0  0  0  0  0
  148.4678  139.4510  154.5055 H   0  0  0  0  0  0  0  0  0  0  0  0
  149.2816  142.1936  154.2218 H   0  0  0  0  0  0  0  0  0  0  0  0
  148.2766  141.5691  155.5295 H   0  0  0  0  0  0  0  0  0  0  0  0
  150.8654  142.5598  155.9476 H   0  0  0  0  0  0  0  0  0  0  0  0
  150.0957  141.3635  156.9961 H   0  0  0  0  0  0  0  0  0  0  0  0
  1  2  1  0  0  0  0
  1 19  1  0  0  0  0
  1 20  1  0  0  0  0
  1 21  1  0  0  0  0
  2 18  1  0  0  0  0
  2  3  2  0  0  0  0
  3  4  1  0  0  0  0
  4  5  1  0  0  0  0
  5  6  1  0  0  0  0
  5 18  2  0  0  0  0
  6  7  1  0  0  0  0
  6 22  1  0  0  0  0
  6 23  1  0  0  0  0
  7  8  1  0  0  0  0
  7 24  1  0  0  0  0
  7 25  1  0  0  0  0
  8  9  1  0  0  0  0
  8 26  1  0  0  0  0
  9 10  2  0  0  0  0
  9 11  1  0  0  0  0
 11 12  1  0  0  0  0
 11 27  1  0  0  0  0
 12 13  1  0  0  0  0
 12 28  1  0  0  0  0
 12 29  1  0  0  0  0
 13 17  1  0  0  0  0
 13 14  1  0  0  0  0
 13 30  1  0  0  0  0
 14 15  1  0  0  0  0
 14 31  1  0  0  0  0
 14 32  1  0  0  0  0
 15 16  1  0  0  0  0
 15 33  1  0  0  0  0
 15 34  1  0  0  0  0
 16 17  1  0  0  0  0
 16 35  1  0  0  0  0
 16 36  1  0  0  0  0
M  END
> <s_m_source_file>
AV-unprocessed.smi

> <i_m_source_file_index>
1130

> <i_lp_mmshare_version>
43012

> <i_f3d_flags>
0

> <s_epik_input>
W0NIM11jMW5vYyhuMSlbQ0gyXVtDSDJdW05IXUMoPU8pW05IXVtDSDJdW0NAQEhdMltDSDJdW0NIMl1bQ0gyXU8y

> <s_epik_cmdline>
J2VwaWtfcHl0aG9uJywgJy1waCcsICc3LjAnLCAnLXRuJywgJzgnLCAnLW1hJywgJzIwMCcsICctbWV0YWxfYmluZGluZycsICctaW1hZScsICc8aW5maWxlLm1hZT4nLCAnLW9tYWUnLCAnPG91dGZpbGUubWFlPic=

> <r_lp_tautomer_probability>
1

> <r_epik_Ionization_Penalty>
4.67036e-05

> <r_epik_Ionization_Penalty_Charging>
0

> <r_epik_Ionization_Penalty_Neutral>
4.67036e-05

> <r_epik_State_Penalty>
-0

> <r_epik_Charging_Adjusted_Penalty>
0

> <i_epik_Tot_Q>
0

> <i_epik_Tot_abs_Q>
0

> <r_epik_Metal_State_Penalty>
-0

> <b_epik_Metal_Only>
0

> <s_lp_Force_Field>
OPLS_2005

> <r_lp_Energy>
8.95109

> <b_lp_Chiralities_Consistent>
1

> <s_lp_Variant>
AV-unprocessed.smi:1130-1

> <Gold.Version>
5.8.1

> <Gold.Id.Protein>
6NUR|6NUR_protein|mol2

> <Gold.PLP.Fitness>
44.3850

> <Gold.PLP.PLP>
-33.7912

> <Gold.PLP.part.hbond>
-5.0973

> <Gold.PLP.part.metal>
0.0000

> <Gold.PLP.part.buried>
-3.3614

> <Gold.PLP.part.nonpolar>
-24.7639

> <Gold.PLP.part.repulsive>
0.5896

> <Gold.PLP.ligand.clash>
0.0000

> <Gold.PLP.ligand.torsion>
0.3358

> <Gold.PLP.Chemscore.Hbond>
3.7392

> <Gold.PLP.Chemscore.CHOScore>
0.0000

> <Gold.PLP.Chemscore.Metal>
0.0000

> <Gold.Chemscore.Hbonds>
donor molecule, donor type, donor heavy atom, donor atom, acceptor molecule, acceptor atom, score
      L1  H     8    26       P1  7948  0.80
      L1  H    11    27       P1  7948  0.78
      P1  H  7989  7998       L1    17  0.29
      P1  H 10752 10763       L1    10  1.00

> <Gold.PLP.Chemscore.Internal.Correction>
0.0478

> <Gold.Rescore>
     Score         DG    S(hbond)    S(metal)    S(lipo)     H(rot)  DE(clash)    DE(int)     intcor
     13.46     -14.08       2.53        0.00      52.19       2.33       0.23       0.39       ----

> <Gold.Chemscore.Fitness>
13.4611

> <Gold.Chemscore.DG>
-14.0763

> <Gold.Chemscore.ZeroCoef>
-5.4800

> <Gold.Chemscore.Hbond>
2.5306

> <Gold.Chemscore.Metal>
0.0000

> <Gold.Chemscore.Lipo>
52.1850

> <Gold.Chemscore.Internal_Hbond>
0.0000

> <Gold.Chemscore.DEClash>
0.2272

> <Gold.Chemscore.DEInternal>
0.3880

> <Gold.Chemscore.Rot>
2.3288

> <Gold.Chemscore.Internal.Correction>
   9.000000E+99

> <Gold.Chemscore.Hbonds>
donor molecule, donor type, donor heavy atom, donor atom, acceptor molecule, acceptor atom, score
      L1  H     8    26       P1  7948  0.11
      L1  H    11    27       P1  7948  0.17
      P1  H 10752 10763       L1    10  0.26

> <Gold.Chemscore.Hbond.Weighted>
-8.4523

> <Gold.Chemscore.Metal.Weighted>
-0.0000

> <Gold.Chemscore.Lipo.Weighted>
-6.1056

> <Gold.Chemscore.Internal_Hbond.Weighted>
0.0000

> <Gold.Chemscore.DEClash.Weighted>
0.2272

> <Gold.Chemscore.DEInternal.Weighted>
0.3880

> <Gold.Chemscore.Rot.Weighted>
5.9617

> <Gold.Chemscore.Internal.Correction.Weighted>
   9.000000E+99

> <Gold.Protein.RotatedTorsions>
[ 6907 6896 6895 6894 ] final  -53.25 input  -60.11 | X-H torsion
[ 7974 7965 7964 7962 ] final -163.46 input  175.53 | X-H torsion
[ 8008 7997 7996 7995 ] final  157.54 input   59.86 | X-H torsion
[ 10167 10162 10161 10158 ] final -159.67 input  -65.29 | X-H torsion
[ 10718 10713 10712 10709 ] final  167.91 input   66.30 | X-H torsion
[ 10763 10752 10751 10750 ] final   69.42 input  -60.55 | X-H torsion
[ 11005 11000 10999 10996 ] final -154.76 input  -57.11 | X-H torsion

> <Gold.Protein.ActiveResidues>
 VAL166  LYS551  ARG553  GLY616  TRP617  ASP618  TYR619  PRO620  LYS621  CYS622 
 ASP623  PHE694  ASN695  SER759  ASP760  ASP761  ALA762  ILE779  LEU786  VAL792 
 PHE793  MET794  SER795  GLU796  ALA797  LYS798  CYS799  TRP800  GLU811  SER814 

> <Gold.Protein.RotatedAtoms>
  150.8444  134.7747  159.6958 H   0  0  0  0  0  0  0  0  0  0  0  0  # atno 6907 bound_to 6896
  152.4524  134.5362  159.9835 H   0  0  0  0  0  0  0  0  0  0  0  0  # atno 6908 bound_to 6896
  151.5495  133.3382  159.2986 H   0  0  0  0  0  0  0  0  0  0  0  0  # atno 6909 bound_to 6896
  144.7325  140.3103  143.6189 H   0  0  0  0  0  0  0  0  0  0  0  0  # atno 7974 bound_to 7965
  156.2357  140.1882  156.7125 H   0  0  0  0  0  0  0  0  0  0  0  0  # atno 8008 bound_to 7997
  154.6103  140.0623  156.9512 H   0  0  0  0  0  0  0  0  0  0  0  0  # atno 8009 bound_to 7997
  155.2028  140.3293  155.4343 H   0  0  0  0  0  0  0  0  0  0  0  0  # atno 8010 bound_to 7997
  139.6597  143.9934  152.2217 H   0  0  0  0  0  0  0  0  0  0  0  0  # atno 10167 bound_to 10162
  157.0447  131.0296  151.2701 H   0  0  0  0  0  0  0  0  0  0  0  0  # atno 10718 bound_to 10713
  153.0286  135.5211  154.7286 H   0  0  0  0  0  0  0  0  0  0  0  0  # atno 10763 bound_to 10752
  154.6320  135.2901  155.0207 H   0  0  0  0  0  0  0  0  0  0  0  0  # atno 10764 bound_to 10752
  154.1156  135.6615  153.4945 H   0  0  0  0  0  0  0  0  0  0  0  0  # atno 10765 bound_to 10752
  140.6938  134.4012  157.5217 H   0  0  0  0  0  0  0  0  0  0  0  0  # atno 11005 bound_to 11000
  145.7671  139.1844  143.2233 LP  0  0  0  0  0  0  0  0  0  0  0  0  # atno 17320 bound_to 7965
  146.0940  140.7622  142.9581 LP  0  0  0  0  0  0  0  0  0  0  0  0  # atno 17321 bound_to 7965
  139.9670  144.6519  150.8025 LP  0  0  0  0  0  0  0  0  0  0  0  0  # atno 17342 bound_to 10162
  140.7575  143.3087  151.2898 LP  0  0  0  0  0  0  0  0  0  0  0  0  # atno 17343 bound_to 10162
  157.5077  130.7919  149.7671 LP  0  0  0  0  0  0  0  0  0  0  0  0  # atno 17370 bound_to 10713
  156.0026  130.3872  150.2547 LP  0  0  0  0  0  0  0  0  0  0  0  0  # atno 17371 bound_to 10713
  139.8916  134.8776  156.2312 LP  0  0  0  0  0  0  0  0  0  0  0  0  # atno 17394 bound_to 11000
  141.0220  133.7036  156.1284 LP  0  0  0  0  0  0  0  0  0  0  0  0  # atno 17395 bound_to 11000

$$$$
