AV-unprocessed.smi:1614|AV-procd|sdf|6480|dock3
  -GOLD-   22720 7143D 1   1.00000     0.00000
 Structure written by MMmdl.
 37 38  0  0  0  0  0  0  0  0  1 V2000
  152.3110  144.9107  158.7775 C   0  0  0  0  0  0  0  0  0  0  0  0
  151.5966  144.1729  157.6406 C   0  0  0  0  0  0  0  0  0  0  0  0
  150.6469  143.0793  158.1561 C   0  0  0  0  0  0  0  0  0  0  0  0
  149.7531  142.6097  157.1047 N   0  0  0  0  0  0  0  0  0  0  0  0
  149.7681  141.3746  156.5782 C   0  0  0  0  0  0  0  0  0  0  0  0
  150.5444  140.4906  156.9416 O   0  0  0  0  0  0  0  0  0  0  0  0
  148.7889  141.1454  155.4566 C   0  0  0  0  0  0  0  0  0  0  0  0
  147.8643  142.1632  155.1252 C   0  0  0  0  0  0  0  0  0  0  0  0
  146.9162  141.9376  154.1119 C   0  0  0  0  0  0  0  0  0  0  0  0
  146.9198  140.6906  153.4644 C   0  0  0  0  0  0  0  0  0  0  0  0
  147.7909  139.7069  153.7654 N   0  0  0  0  0  0  0  0  0  0  0  0
  148.7127  139.9145  154.7387 C   0  0  0  0  0  0  0  0  0  0  0  0
  149.6238  138.8652  154.9759 N   0  0  0  0  0  0  0  0  0  0  0  0
  150.9257  139.0577  154.3489 C   0  0  0  0  0  0  0  0  0  0  0  0
  151.9274  138.0280  154.8985 C   0  0  0  0  0  0  0  0  0  0  0  0
  151.4158  136.7115  154.7077 O   0  0  0  0  0  0  0  0  0  0  0  0
  150.1794  136.5125  155.3880 C   0  0  0  0  0  0  0  0  0  0  0  0
  149.1291  137.4985  154.8484 C   0  0  0  0  0  0  0  0  0  0  0  0
  152.9658  145.6887  158.3845 H   0  0  0  0  0  0  0  0  0  0  0  0
  152.9231  144.2264  159.3659 H   0  0  0  0  0  0  0  0  0  0  0  0
  151.5961  145.3855  159.4500 H   0  0  0  0  0  0  0  0  0  0  0  0
  151.0367  144.8919  157.0413 H   0  0  0  0  0  0  0  0  0  0  0  0
  152.3436  143.7352  156.9771 H   0  0  0  0  0  0  0  0  0  0  0  0
  151.2128  142.2425  158.5690 H   0  0  0  0  0  0  0  0  0  0  0  0
  150.0347  143.4714  158.9688 H   0  0  0  0  0  0  0  0  0  0  0  0
  149.0903  143.2760  156.7361 H   0  0  0  0  0  0  0  0  0  0  0  0
  147.8680  143.1090  155.6475 H   0  0  0  0  0  0  0  0  0  0  0  0
  146.1990  142.6993  153.8436 H   0  0  0  0  0  0  0  0  0  0  0  0
  146.2054  140.4768  152.6835 H   0  0  0  0  0  0  0  0  0  0  0  0
  150.8222  138.9406  153.2694 H   0  0  0  0  0  0  0  0  0  0  0  0
  151.2970  140.0672  154.5257 H   0  0  0  0  0  0  0  0  0  0  0  0
  152.8818  138.1176  154.3796 H   0  0  0  0  0  0  0  0  0  0  0  0
  152.1224  138.2042  155.9576 H   0  0  0  0  0  0  0  0  0  0  0  0
  149.8480  135.4861  155.2305 H   0  0  0  0  0  0  0  0  0  0  0  0
  150.3188  136.6418  156.4628 H   0  0  0  0  0  0  0  0  0  0  0  0
  148.1934  137.3888  155.3982 H   0  0  0  0  0  0  0  0  0  0  0  0
  148.9213  137.2779  153.8004 H   0  0  0  0  0  0  0  0  0  0  0  0
  1  2  1  0  0  0  0
  1 19  1  0  0  0  0
  1 20  1  0  0  0  0
  1 21  1  0  0  0  0
  2  3  1  0  0  0  0
  2 22  1  0  0  0  0
  2 23  1  0  0  0  0
  3  4  1  0  0  0  0
  3 24  1  0  0  0  0
  3 25  1  0  0  0  0
  4  5  1  0  0  0  0
  4 26  1  0  0  0  0
  5  6  2  0  0  0  0
  5  7  1  0  0  0  0
  7 12  1  0  0  0  0
  7  8  2  0  0  0  0
  8  9  1  0  0  0  0
  8 27  1  0  0  0  0
  9 10  2  0  0  0  0
  9 28  1  0  0  0  0
 10 11  1  0  0  0  0
 10 29  1  0  0  0  0
 11 12  2  0  0  0  0
 12 13  1  0  0  0  0
 13 18  1  0  0  0  0
 13 14  1  0  0  0  0
 14 15  1  0  0  0  0
 14 30  1  0  0  0  0
 14 31  1  0  0  0  0
 15 16  1  0  0  0  0
 15 32  1  0  0  0  0
 15 33  1  0  0  0  0
 16 17  1  0  0  0  0
 17 18  1  0  0  0  0
 17 34  1  0  0  0  0
 17 35  1  0  0  0  0
 18 36  1  0  0  0  0
 18 37  1  0  0  0  0
M  END
> <s_m_source_file>
AV-unprocessed.smi

> <i_m_source_file_index>
1614

> <i_lp_mmshare_version>
43012

> <i_f3d_flags>
0

> <s_epik_input>
W0NIM11bQ0gyXVtDSDJdW05IXUMoPU8pYzFbY0hdW2NIXVtjSF1uYzFOMltDSDJdW0NIMl1PW0NIMl1bQ0gyXTI=

> <s_epik_cmdline>
J2VwaWtfcHl0aG9uJywgJy1waCcsICc3LjAnLCAnLXRuJywgJzgnLCAnLW1hJywgJzIwMCcsICctbWV0YWxfYmluZGluZycsICctaW1hZScsICc8aW5maWxlLm1hZT4nLCAnLW9tYWUnLCAnPG91dGZpbGUubWFlPic=

> <r_lp_tautomer_probability>
1

> <r_epik_Ionization_Penalty>
1.57986e-05

> <r_epik_Ionization_Penalty_Charging>
0

> <r_epik_Ionization_Penalty_Neutral>
1.57986e-05

> <r_epik_State_Penalty>
-0

> <r_epik_Charging_Adjusted_Penalty>
0

> <i_epik_Tot_Q>
0

> <i_epik_Tot_abs_Q>
0

> <r_epik_Metal_State_Penalty>
-0

> <b_epik_Metal_Only>
0

> <s_lp_Force_Field>
OPLS_2005

> <r_lp_Energy>
23.1296

> <b_lp_Chiralities_Consistent>
1

> <s_lp_Variant>
AV-unprocessed.smi:1614-1

> <Gold.Version>
5.8.1

> <Gold.Id.Protein>
6NUR|6NUR_protein|mol2

> <Gold.PLP.Fitness>
39.7844

> <Gold.PLP.PLP>
-31.9324

> <Gold.PLP.part.hbond>
-2.0000

> <Gold.PLP.part.metal>
0.0000

> <Gold.PLP.part.buried>
-2.8112

> <Gold.PLP.part.nonpolar>
-29.1289

> <Gold.PLP.part.repulsive>
0.4376

> <Gold.PLP.ligand.clash>
0.0000

> <Gold.PLP.ligand.torsion>
0.6905

> <Gold.PLP.Chemscore.Hbond>
2.0000

> <Gold.PLP.Chemscore.CHOScore>
0.9937

> <Gold.PLP.Chemscore.Metal>
0.0000

> <Gold.Chemscore.Hbonds>
donor molecule, donor type, donor heavy atom, donor atom, acceptor molecule, acceptor atom, score
      L1  H     4    26       P1  8028  0.91
      P1  H 10752 10763       L1    16  1.00
      L1  C    10    29       P1 10175  1.00

> <Gold.PLP.Chemscore.Internal.Correction>
0.2518

> <Gold.Rescore>
     Score         DG    S(hbond)    S(metal)    S(lipo)     H(rot)  DE(clash)    DE(int)     intcor
     15.16     -18.85       1.87        0.00      89.89       1.32       1.45       2.24       ----

> <Gold.Chemscore.Fitness>
15.1638

> <Gold.Chemscore.DG>
-18.8528

> <Gold.Chemscore.ZeroCoef>
-5.4800

> <Gold.Chemscore.Hbond>
1.8685

> <Gold.Chemscore.Metal>
0.0000

> <Gold.Chemscore.Lipo>
89.8885

> <Gold.Chemscore.Internal_Hbond>
0.0000

> <Gold.Chemscore.DEClash>
1.4462

> <Gold.Chemscore.DEInternal>
2.2427

> <Gold.Chemscore.Rot>
1.3222

> <Gold.Chemscore.Internal.Correction>
   9.000000E+99

> <Gold.Chemscore.Hbonds>
donor molecule, donor type, donor heavy atom, donor atom, acceptor molecule, acceptor atom, score
      L1  H     4    26       P1  8028  0.83
      P1  H 10752 10763       L1    16  0.49

> <Gold.Chemscore.Hbond.Weighted>
-6.2407

> <Gold.Chemscore.Metal.Weighted>
-0.0000

> <Gold.Chemscore.Lipo.Weighted>
-10.5170

> <Gold.Chemscore.Internal_Hbond.Weighted>
0.0000

> <Gold.Chemscore.DEClash.Weighted>
1.4462

> <Gold.Chemscore.DEInternal.Weighted>
2.2427

> <Gold.Chemscore.Rot.Weighted>
3.3849

> <Gold.Chemscore.Internal.Correction.Weighted>
   9.000000E+99

> <Gold.Protein.RotatedTorsions>
[ 6907 6896 6895 6894 ] final -116.31 input  -60.11 | X-H torsion
[ 7974 7965 7964 7962 ] final  155.65 input  175.53 | X-H torsion
[ 8008 7997 7996 7995 ] final  -75.11 input   59.86 | X-H torsion
[ 10167 10162 10161 10158 ] final  -76.57 input  -65.29 | X-H torsion
[ 10718 10713 10712 10709 ] final  152.91 input   66.30 | X-H torsion
[ 10763 10752 10751 10750 ] final   37.92 input  -60.55 | X-H torsion
[ 11005 11000 10999 10996 ] final -164.79 input  -57.11 | X-H torsion

> <Gold.Protein.ActiveResidues>
 VAL166  LYS551  ARG553  GLY616  TRP617  ASP618  TYR619  PRO620  LYS621  CYS622 
 ASP623  PHE694  ASN695  SER759  ASP760  ASP761  ALA762  ILE779  LEU786  VAL792 
 PHE793  MET794  SER795  GLU796  ALA797  LYS798  CYS799  TRP800  GLU811  SER814 

> <Gold.Protein.RotatedAtoms>
  150.8046  133.8535  159.3211 H   0  0  0  0  0  0  0  0  0  0  0  0  # atno 6907 bound_to 6896
  151.6337  135.1018  160.0136 H   0  0  0  0  0  0  0  0  0  0  0  0  # atno 6908 bound_to 6896
  152.4136  133.6962  159.6454 H   0  0  0  0  0  0  0  0  0  0  0  0  # atno 6909 bound_to 6896
  144.8011  139.7097  143.6181 H   0  0  0  0  0  0  0  0  0  0  0  0  # atno 7974 bound_to 7965
  154.5388  140.0750  156.8474 H   0  0  0  0  0  0  0  0  0  0  0  0  # atno 8008 bound_to 7997
  155.3223  140.3397  155.4223 H   0  0  0  0  0  0  0  0  0  0  0  0  # atno 8009 bound_to 7997
  156.1854  140.1667  156.8181 H   0  0  0  0  0  0  0  0  0  0  0  0  # atno 8010 bound_to 7997
  140.4845  143.2394  151.8005 H   0  0  0  0  0  0  0  0  0  0  0  0  # atno 10167 bound_to 10162
  157.2517  131.0780  151.1726 H   0  0  0  0  0  0  0  0  0  0  0  0  # atno 10718 bound_to 10713
  153.0020  135.6264  154.2222 H   0  0  0  0  0  0  0  0  0  0  0  0  # atno 10763 bound_to 10752
  154.1965  135.2806  155.3007 H   0  0  0  0  0  0  0  0  0  0  0  0  # atno 10764 bound_to 10752
  154.5718  135.5674  153.7161 H   0  0  0  0  0  0  0  0  0  0  0  0  # atno 10765 bound_to 10752
  140.5830  134.5122  157.5181 H   0  0  0  0  0  0  0  0  0  0  0  0  # atno 11005 bound_to 11000
  146.2293  139.5783  142.9566 LP  0  0  0  0  0  0  0  0  0  0  0  0  # atno 17320 bound_to 7965
  145.5550  141.0410  143.2257 LP  0  0  0  0  0  0  0  0  0  0  0  0  # atno 17321 bound_to 7965
  139.4839  144.4730  151.9402 LP  0  0  0  0  0  0  0  0  0  0  0  0  # atno 17342 bound_to 10162
  140.3815  144.2730  150.5908 LP  0  0  0  0  0  0  0  0  0  0  0  0  # atno 17343 bound_to 10162
  157.3271  130.6966  149.6303 LP  0  0  0  0  0  0  0  0  0  0  0  0  # atno 17370 bound_to 10713
  155.9666  130.4318  150.4937 LP  0  0  0  0  0  0  0  0  0  0  0  0  # atno 17371 bound_to 10713
  139.9309  134.7966  156.0935 LP  0  0  0  0  0  0  0  0  0  0  0  0  # atno 17394 bound_to 11000
  141.0984  133.6686  156.2698 LP  0  0  0  0  0  0  0  0  0  0  0  0  # atno 17395 bound_to 11000

$$$$
