AV-unprocessed.smi:2270|AV-procd|sdf|9158|dock7
  -GOLD-   2272012363D 1   1.00000     0.00000
 Structure written by MMmdl.
 52 53  0  0  0  0  0  0  0  0  1 V2000
  144.8721  132.1173  149.5990 C   0  0  0  0  0  0  0  0  0  0  0  0
  144.6048  133.2200  150.6017 C   0  0  0  0  0  0  0  0  0  0  0  0
  143.4766  133.1731  151.4436 C   0  0  0  0  0  0  0  0  0  0  0  0
  143.2817  134.2299  152.3505 C   0  0  0  0  0  0  0  0  0  0  0  0
  144.2162  135.2830  152.3772 C   0  0  0  0  0  0  0  0  0  0  0  0
  145.3222  135.2540  151.4980 C   0  0  0  0  0  0  0  0  0  0  0  0
  146.2062  136.3602  151.6055 N   0  0  0  0  0  0  0  0  0  0  0  0
  145.9561  137.5778  152.1183 C   0  0  0  0  0  0  0  0  0  0  0  0
  144.8849  137.9410  152.6051 O   0  0  0  0  0  0  0  0  0  0  0  0
  147.0335  138.3705  152.0309 N   0  0  0  0  0  0  0  0  0  0  0  0
  147.0895  139.7600  152.4747 C   0  0  0  0  0  0  0  0  0  0  0  0
  147.0480  139.9042  154.0230 C   0  0  2  0  0  0  0  0  0  0  0  0
  146.1494  141.0794  154.5243 C   0  0  0  0  0  0  0  0  0  0  0  0
  146.5323  142.4965  154.0528 C   0  0  0  0  0  0  0  0  0  0  0  0
  145.9327  141.0416  156.0467 C   0  0  0  0  0  0  0  0  0  0  0  0
  148.3619  139.7991  154.6874 N   0  0  0  0  0  0  0  0  0  0  0  0
  149.2587  138.8409  154.0334 C   0  0  0  0  0  0  0  0  0  0  0  0
  150.5548  138.6427  154.8401 C   0  0  0  0  0  0  0  0  0  0  0  0
  151.2688  139.9053  155.0175 N   0  0  0  0  0  0  0  0  0  0  0  0
  152.5008  139.7223  155.7690 C   0  0  0  0  0  0  0  0  0  0  0  0
  150.3798  140.8651  155.6683 C   0  0  0  0  0  0  0  0  0  0  0  0
  149.0804  141.0655  154.8662 C   0  0  0  0  0  0  0  0  0  0  0  0
  145.5005  134.2303  150.6264 N   0  0  0  0  0  0  0  0  0  0  0  0
  144.3355  131.2067  149.8668 H   0  0  0  0  0  0  0  0  0  0  0  0
  145.9362  131.8821  149.5567 H   0  0  0  0  0  0  0  0  0  0  0  0
  144.5481  132.4264  148.6053 H   0  0  0  0  0  0  0  0  0  0  0  0
  142.7774  132.3510  151.3971 H   0  0  0  0  0  0  0  0  0  0  0  0
  142.4300  134.2339  153.0145 H   0  0  0  0  0  0  0  0  0  0  0  0
  144.0814  136.1025  153.0682 H   0  0  0  0  0  0  0  0  0  0  0  0
  147.1352  136.2092  151.2418 H   0  0  0  0  0  0  0  0  0  0  0  0
  147.8731  137.9915  151.6180 H   0  0  0  0  0  0  0  0  0  0  0  0
  147.9880  140.2180  152.0607 H   0  0  0  0  0  0  0  0  0  0  0  0
  146.2515  140.2836  152.0156 H   0  0  0  0  0  0  0  0  0  0  0  0
  146.4952  139.0274  154.3636 H   0  0  0  0  0  0  0  0  0  0  0  0
  145.1638  140.8978  154.0945 H   0  0  0  0  0  0  0  0  0  0  0  0
  147.4095  142.8861  154.5638 H   0  0  0  0  0  0  0  0  0  0  0  0
  145.7210  143.1934  154.2643 H   0  0  0  0  0  0  0  0  0  0  0  0
  146.7122  142.5424  152.9799 H   0  0  0  0  0  0  0  0  0  0  0  0
  146.8514  141.2699  156.5876 H   0  0  0  0  0  0  0  0  0  0  0  0
  145.5902  140.0582  156.3705 H   0  0  0  0  0  0  0  0  0  0  0  0
  145.1811  141.7688  156.3544 H   0  0  0  0  0  0  0  0  0  0  0  0
  148.7583  137.8782  153.9242 H   0  0  0  0  0  0  0  0  0  0  0  0
  149.5128  139.1777  153.0282 H   0  0  0  0  0  0  0  0  0  0  0  0
  150.3185  138.2060  155.8118 H   0  0  0  0  0  0  0  0  0  0  0  0
  151.1950  137.9271  154.3233 H   0  0  0  0  0  0  0  0  0  0  0  0
  153.0332  140.6681  155.8736 H   0  0  0  0  0  0  0  0  0  0  0  0
  153.1637  139.0232  155.2585 H   0  0  0  0  0  0  0  0  0  0  0  0
  152.2994  139.3326  156.7677 H   0  0  0  0  0  0  0  0  0  0  0  0
  150.1377  140.5272  156.6773 H   0  0  0  0  0  0  0  0  0  0  0  0
  150.8882  141.8240  155.7746 H   0  0  0  0  0  0  0  0  0  0  0  0
  149.3219  141.5052  153.8981 H   0  0  0  0  0  0  0  0  0  0  0  0
  148.4654  141.7867  155.3938 H   0  0  0  0  0  0  0  0  0  0  0  0
  1  2  1  0  0  0  0
  1 24  1  0  0  0  0
  1 25  1  0  0  0  0
  1 26  1  0  0  0  0
  2 23  1  0  0  0  0
  2  3  2  0  0  0  0
  3  4  1  0  0  0  0
  3 27  1  0  0  0  0
  4  5  2  0  0  0  0
  4 28  1  0  0  0  0
  5  6  1  0  0  0  0
  5 29  1  0  0  0  0
  6  7  1  0  0  0  0
  6 23  2  0  0  0  0
  7  8  1  0  0  0  0
  7 30  1  0  0  0  0
  8  9  2  0  0  0  0
  8 10  1  0  0  0  0
 10 11  1  0  0  0  0
 10 31  1  0  0  0  0
 11 12  1  0  0  0  0
 11 32  1  0  0  0  0
 11 33  1  0  0  0  0
 12 13  1  0  0  0  0
 12 16  1  0  0  0  0
 12 34  1  0  0  0  0
 13 14  1  0  0  0  0
 13 15  1  0  0  0  0
 13 35  1  0  0  0  0
 14 36  1  0  0  0  0
 14 37  1  0  0  0  0
 14 38  1  0  0  0  0
 15 39  1  0  0  0  0
 15 40  1  0  0  0  0
 15 41  1  0  0  0  0
 16 22  1  0  0  0  0
 16 17  1  0  0  0  0
 17 18  1  0  0  0  0
 17 42  1  0  0  0  0
 17 43  1  0  0  0  0
 18 19  1  0  0  0  0
 18 44  1  0  0  0  0
 18 45  1  0  0  0  0
 19 20  1  0  0  0  0
 19 21  1  0  0  0  0
 20 46  1  0  0  0  0
 20 47  1  0  0  0  0
 20 48  1  0  0  0  0
 21 22  1  0  0  0  0
 21 49  1  0  0  0  0
 21 50  1  0  0  0  0
 22 51  1  0  0  0  0
 22 52  1  0  0  0  0
M  END
> <s_m_source_file>
AV-unprocessed.smi

> <i_m_source_file_index>
2270

> <i_lp_mmshare_version>
43012

> <i_f3d_flags>
0

> <s_epik_input>
W0NIM11jMVtjSF1bY0hdW2NIXWMobjEpW05IXUMoPU8pW05IXVtDSDJdW0NASF0oW0NIXShbQ0gzXSlbQ0gzXSlOMltDSDJdW0NIMl1OKFtDSDNdKVtDSDJdW0NIMl0y

> <s_epik_cmdline>
J2VwaWtfcHl0aG9uJywgJy1waCcsICc3LjAnLCAnLXRuJywgJzgnLCAnLW1hJywgJzIwMCcsICctbWV0YWxfYmluZGluZycsICctaW1hZScsICc8aW5maWxlLm1hZT4nLCAnLW9tYWUnLCAnPG91dGZpbGUubWFlPic=

> <r_epik_Ionization_Penalty>
2.57754

> <r_epik_Ionization_Penalty_Charging>
0

> <r_epik_Ionization_Penalty_Neutral>
2.57754

> <r_epik_State_Penalty>
2.00874

> <r_epik_Charging_Adjusted_Penalty>
2.00874

> <i_epik_Tot_Q>
0

> <i_epik_Tot_abs_Q>
0

> <r_epik_Metal_State_Penalty>
2.00874

> <b_epik_Metal_Only>
0

> <s_lp_Force_Field>
OPLS_2005

> <r_lp_Energy>
48.2009

> <b_lp_Chiralities_Consistent>
1

> <s_lp_Variant>
AV-unprocessed.smi:2270-5

> <Gold.Version>
5.8.1

> <Gold.Id.Protein>
6NUR|6NUR_protein|mol2

> <Gold.PLP.Fitness>
44.5242

> <Gold.PLP.PLP>
-38.7156

> <Gold.PLP.part.hbond>
-3.6677

> <Gold.PLP.part.metal>
0.0000

> <Gold.PLP.part.buried>
-2.7823

> <Gold.PLP.part.nonpolar>
-36.6063

> <Gold.PLP.part.repulsive>
3.6156

> <Gold.PLP.ligand.clash>
0.0000

> <Gold.PLP.ligand.torsion>
1.0886

> <Gold.PLP.Chemscore.Hbond>
2.5138

> <Gold.PLP.Chemscore.CHOScore>
0.0000

> <Gold.PLP.Chemscore.Metal>
0.0000

> <Gold.Chemscore.Hbonds>
donor molecule, donor type, donor heavy atom, donor atom, acceptor molecule, acceptor atom, score
      L1  H     7    30       P1  7948  0.82
      L1  H    10    31       P1  7948  0.70
      P1  H  7989  7998       L1    19  0.95

> <Gold.PLP.Chemscore.Internal.Correction>
0.4443

> <Gold.Rescore>
     Score         DG    S(hbond)    S(metal)    S(lipo)     H(rot)  DE(clash)    DE(int)     intcor
     13.50     -18.64       1.89        0.00      92.57       1.56       1.31       3.83       ----

> <Gold.Chemscore.Fitness>
13.5048

> <Gold.Chemscore.DG>
-18.6408

> <Gold.Chemscore.ZeroCoef>
-5.4800

> <Gold.Chemscore.Hbond>
1.8941

> <Gold.Chemscore.Metal>
0.0000

> <Gold.Chemscore.Lipo>
92.5725

> <Gold.Chemscore.Internal_Hbond>
0.0000

> <Gold.Chemscore.DEClash>
1.3096

> <Gold.Chemscore.DEInternal>
3.8264

> <Gold.Chemscore.Rot>
1.5612

> <Gold.Chemscore.Internal.Correction>
   9.000000E+99

> <Gold.Chemscore.Hbonds>
donor molecule, donor type, donor heavy atom, donor atom, acceptor molecule, acceptor atom, score
      L1  H     7    30       P1  7948  0.81
      L1  H    10    31       P1  7948  0.66
      P1  H  7989  7998       L1    19  0.13

> <Gold.Chemscore.Hbond.Weighted>
-6.3264

> <Gold.Chemscore.Metal.Weighted>
-0.0000

> <Gold.Chemscore.Lipo.Weighted>
-10.8310

> <Gold.Chemscore.Internal_Hbond.Weighted>
0.0000

> <Gold.Chemscore.DEClash.Weighted>
1.3096

> <Gold.Chemscore.DEInternal.Weighted>
3.8264

> <Gold.Chemscore.Rot.Weighted>
3.9966

> <Gold.Chemscore.Internal.Correction.Weighted>
   9.000000E+99

> <Gold.Protein.RotatedTorsions>
[ 6907 6896 6895 6894 ] final  119.21 input  -60.11 | X-H torsion
[ 7974 7965 7964 7962 ] final  -91.46 input  175.53 | X-H torsion
[ 8008 7997 7996 7995 ] final  -45.98 input   59.86 | X-H torsion
[ 10167 10162 10161 10158 ] final -126.75 input  -65.29 | X-H torsion
[ 10718 10713 10712 10709 ] final -164.54 input   66.30 | X-H torsion
[ 10763 10752 10751 10750 ] final -102.78 input  -60.55 | X-H torsion
[ 11005 11000 10999 10996 ] final  -51.09 input  -57.11 | X-H torsion

> <Gold.Protein.ActiveResidues>
 VAL166  LYS551  ARG553  GLY616  TRP617  ASP618  TYR619  PRO620  LYS621  CYS622 
 ASP623  PHE694  ASN695  SER759  ASP760  ASP761  ALA762  ILE779  LEU786  VAL792 
 PHE793  MET794  SER795  GLU796  ALA797  LYS798  CYS799  TRP800  GLU811  SER814 

> <Gold.Protein.RotatedAtoms>
  152.4488  133.7589  159.6735 H   0  0  0  0  0  0  0  0  0  0  0  0  # atno 6907 bound_to 6896
  150.8395  133.7949  159.3072 H   0  0  0  0  0  0  0  0  0  0  0  0  # atno 6908 bound_to 6896
  151.5578  135.1069  160.0017 H   0  0  0  0  0  0  0  0  0  0  0  0  # atno 6909 bound_to 6896
  145.4128  140.9546  143.2224 H   0  0  0  0  0  0  0  0  0  0  0  0  # atno 7974 bound_to 7965
  154.4004  140.1383  156.3935 H   0  0  0  0  0  0  0  0  0  0  0  0  # atno 8008 bound_to 7997
  155.7891  140.3479  155.5319 H   0  0  0  0  0  0  0  0  0  0  0  0  # atno 8009 bound_to 7997
  155.8597  140.0954  157.1612 H   0  0  0  0  0  0  0  0  0  0  0  0  # atno 8010 bound_to 7997
  139.9681  143.5875  152.2422 H   0  0  0  0  0  0  0  0  0  0  0  0  # atno 10167 bound_to 10162
  156.6405  130.8967  151.2995 H   0  0  0  0  0  0  0  0  0  0  0  0  # atno 10718 bound_to 10713
  154.7759  135.4848  153.9743 H   0  0  0  0  0  0  0  0  0  0  0  0  # atno 10763 bound_to 10752
  153.1428  135.6776  153.9008 H   0  0  0  0  0  0  0  0  0  0  0  0  # atno 10764 bound_to 10752
  153.8677  135.3147  155.3419 H   0  0  0  0  0  0  0  0  0  0  0  0  # atno 10765 bound_to 10752
  141.0852  133.6644  156.3827 H   0  0  0  0  0  0  0  0  0  0  0  0  # atno 11005 bound_to 11000
  144.8297  139.5649  143.6949 LP  0  0  0  0  0  0  0  0  0  0  0  0  # atno 17320 bound_to 7965
  146.2696  139.6603  142.9305 LP  0  0  0  0  0  0  0  0  0  0  0  0  # atno 17321 bound_to 7965
  139.6502  144.7660  151.2163 LP  0  0  0  0  0  0  0  0  0  0  0  0  # atno 17342 bound_to 10162
  140.7531  143.6173  150.8547 LP  0  0  0  0  0  0  0  0  0  0  0  0  # atno 17343 bound_to 10162
  157.7172  130.9512  150.1301 LP  0  0  0  0  0  0  0  0  0  0  0  0  # atno 17370 bound_to 10713
  156.2162  130.3670  149.8610 LP  0  0  0  0  0  0  0  0  0  0  0  0  # atno 17371 bound_to 10713
  140.5379  134.6149  157.5370 LP  0  0  0  0  0  0  0  0  0  0  0  0  # atno 17394 bound_to 11000
  139.9670  134.7357  156.0119 LP  0  0  0  0  0  0  0  0  0  0  0  0  # atno 17395 bound_to 11000

$$$$
