AV-unprocessed.smi:2410|AV-procd|sdf|9527|dock2
  -GOLD-   2272013153D 1   1.00000     0.00000
 Structure written by MMmdl.
 46 48  0  0  0  0  0  0  0  0  1 V2000
  151.1616  144.4772  158.0291 C   0  0  0  0  0  0  0  0  0  0  0  0
  151.9785  143.5349  158.8954 C   0  0  0  0  0  0  0  0  0  0  0  0
  152.2935  142.2481  158.4031 C   0  0  0  0  0  0  0  0  0  0  0  0
  153.0484  141.3408  159.1784 C   0  0  0  0  0  0  0  0  0  0  0  0
  153.4659  140.0501  158.9007 N   0  0  0  0  0  0  0  0  0  0  0  0
  154.1261  139.7371  160.0123 C   0  0  0  0  0  0  0  0  0  0  0  0
  154.1850  140.6739  160.9782 N   0  0  0  0  0  0  0  0  0  0  0  0
  154.8424  140.5717  162.2681 C   0  0  0  0  0  0  0  0  0  0  0  0
  155.2458  139.1232  162.6050 C   0  0  1  0  0  0  0  0  0  0  0  0
  155.9698  139.1344  163.8204 O   0  0  0  0  0  0  0  0  0  0  0  0
  154.0136  138.2069  162.7664 C   0  0  0  0  0  0  0  0  0  0  0  0
  154.3807  136.8699  163.2612 N   0  0  0  0  0  0  0  0  0  0  0  0
  154.0714  136.5962  164.6033 C   0  0  0  0  0  0  0  0  0  0  0  0
  154.3376  135.4511  165.1415 N   0  0  0  0  0  0  0  0  0  0  0  0
  154.9565  134.4517  164.3850 C   0  0  0  0  0  0  0  0  0  0  0  0
  155.2179  133.1451  165.1131 C   0  0  0  0  0  0  0  0  0  0  0  0
  155.2965  134.6589  163.0834 C   0  0  0  0  0  0  0  0  0  0  0  0
  155.9782  133.6111  162.2124 C   0  0  0  0  0  0  0  0  0  0  0  0
  155.0013  135.9580  162.4576 C   0  0  0  0  0  0  0  0  0  0  0  0
  155.2900  136.2184  161.2876 O   0  0  0  0  0  0  0  0  0  0  0  0
  153.4837  141.7605  160.4690 C   0  0  0  0  0  0  0  0  0  0  0  0
  153.1783  143.0384  160.9696 C   0  0  0  0  0  0  0  0  0  0  0  0
  152.4213  143.9316  160.1831 C   0  0  0  0  0  0  0  0  0  0  0  0
  152.0923  145.3077  160.7344 C   0  0  0  0  0  0  0  0  0  0  0  0
  150.9481  144.0378  157.0544 H   0  0  0  0  0  0  0  0  0  0  0  0
  151.7011  145.4098  157.8626 H   0  0  0  0  0  0  0  0  0  0  0  0
  150.2102  144.7076  158.5090 H   0  0  0  0  0  0  0  0  0  0  0  0
  151.9558  141.9453  157.4229 H   0  0  0  0  0  0  0  0  0  0  0  0
  154.5927  138.7703  160.1320 H   0  0  0  0  0  0  0  0  0  0  0  0
  155.7134  141.2288  162.2770 H   0  0  0  0  0  0  0  0  0  0  0  0
  154.1540  140.9549  163.0222 H   0  0  0  0  0  0  0  0  0  0  0  0
  155.8978  138.7467  161.8158 H   0  0  0  0  0  0  0  0  0  0  0  0
  155.6412  139.8365  164.3606 H   0  0  0  0  0  0  0  0  0  0  0  0
  153.2547  138.6874  163.3876 H   0  0  0  0  0  0  0  0  0  0  0  0
  153.5234  138.0832  161.7988 H   0  0  0  0  0  0  0  0  0  0  0  0
  153.5979  137.4119  165.1526 H   0  0  0  0  0  0  0  0  0  0  0  0
  154.7026  132.3217  164.6178 H   0  0  0  0  0  0  0  0  0  0  0  0
  154.8644  133.1870  166.1441 H   0  0  0  0  0  0  0  0  0  0  0  0
  156.2860  132.9267  165.1353 H   0  0  0  0  0  0  0  0  0  0  0  0
  156.9418  133.9827  161.8623 H   0  0  0  0  0  0  0  0  0  0  0  0
  155.3635  133.3900  161.3393 H   0  0  0  0  0  0  0  0  0  0  0  0
  156.1587  132.6717  162.7321 H   0  0  0  0  0  0  0  0  0  0  0  0
  153.5213  143.3262  161.9527 H   0  0  0  0  0  0  0  0  0  0  0  0
  152.4906  145.4389  161.7408 H   0  0  0  0  0  0  0  0  0  0  0  0
  151.0128  145.4530  160.7808 H   0  0  0  0  0  0  0  0  0  0  0  0
  152.5206  146.0853  160.1017 H   0  0  0  0  0  0  0  0  0  0  0  0
  1  2  1  0  0  0  0
  1 25  1  0  0  0  0
  1 26  1  0  0  0  0
  1 27  1  0  0  0  0
  2 23  1  0  0  0  0
  2  3  2  0  0  0  0
  3  4  1  0  0  0  0
  3 28  1  0  0  0  0
  4 21  2  0  0  0  0
  4  5  1  0  0  0  0
  5  6  2  0  0  0  0
  6  7  1  0  0  0  0
  6 29  1  0  0  0  0
  7  8  1  0  0  0  0
  7 21  1  0  0  0  0
  8  9  1  0  0  0  0
  8 30  1  0  0  0  0
  8 31  1  0  0  0  0
  9 10  1  0  0  0  0
  9 11  1  0  0  0  0
  9 32  1  0  0  0  0
 10 33  1  0  0  0  0
 11 12  1  0  0  0  0
 11 34  1  0  0  0  0
 11 35  1  0  0  0  0
 12 19  1  0  0  0  0
 12 13  1  0  0  0  0
 13 14  2  0  0  0  0
 13 36  1  0  0  0  0
 14 15  1  0  0  0  0
 15 16  1  0  0  0  0
 15 17  2  0  0  0  0
 16 37  1  0  0  0  0
 16 38  1  0  0  0  0
 16 39  1  0  0  0  0
 17 18  1  0  0  0  0
 17 19  1  0  0  0  0
 18 40  1  0  0  0  0
 18 41  1  0  0  0  0
 18 42  1  0  0  0  0
 19 20  2  0  0  0  0
 21 22  1  0  0  0  0
 22 23  2  0  0  0  0
 22 43  1  0  0  0  0
 23 24  1  0  0  0  0
 24 44  1  0  0  0  0
 24 45  1  0  0  0  0
 24 46  1  0  0  0  0
M  END
> <s_m_source_file>
AV-unprocessed.smi

> <i_m_source_file_index>
2410

> <i_lp_mmshare_version>
43012

> <i_f3d_flags>
0

> <s_epik_input>
W0NIM11jKFtjSF0xKWMoW0NIM10pW2NIXWMoYzEyKW4oW2NIXW4yKVtDSDJdW0NASF0oW09IXSlbQ0gyXW4zW2NIXW5jKFtDSDNdKWMoW0NIM10pYzM9Tw==

> <s_epik_cmdline>
J2VwaWtfcHl0aG9uJywgJy1waCcsICc3LjAnLCAnLXRuJywgJzgnLCAnLW1hJywgJzIwMCcsICctbWV0YWxfYmluZGluZycsICctaW1hZScsICc8aW5maWxlLm1hZT4nLCAnLW9tYWUnLCAnPG91dGZpbGUubWFlPic=

> <r_lp_tautomer_probability>
1

> <r_epik_Ionization_Penalty>
0.113377

> <r_epik_Ionization_Penalty_Charging>
7.56033e-08

> <r_epik_Ionization_Penalty_Neutral>
0.113377

> <r_epik_State_Penalty>
0.103025

> <r_epik_Charging_Adjusted_Penalty>
0.103025

> <i_epik_Tot_Q>
0

> <i_epik_Tot_abs_Q>
0

> <r_epik_Metal_State_Penalty>
0.0863476

> <b_epik_Metal_Only>
0

> <s_lp_Force_Field>
OPLS_2005

> <r_lp_Energy>
18.3765

> <b_lp_Chiralities_Consistent>
1

> <s_lp_Variant>
AV-unprocessed.smi:2410-2

> <Gold.Version>
5.8.1

> <Gold.Id.Protein>
6NUR|6NUR_protein|mol2

> <Gold.PLP.Fitness>
50.7802

> <Gold.PLP.PLP>
-48.4257

> <Gold.PLP.part.hbond>
-1.0000

> <Gold.PLP.part.metal>
0.0000

> <Gold.PLP.part.buried>
-4.1896

> <Gold.PLP.part.nonpolar>
-42.9039

> <Gold.PLP.part.repulsive>
0.0974

> <Gold.PLP.ligand.clash>
0.0000

> <Gold.PLP.ligand.torsion>
0.3466

> <Gold.PLP.Chemscore.Hbond>
1.0000

> <Gold.PLP.Chemscore.CHOScore>
0.0000

> <Gold.PLP.Chemscore.Metal>
0.0000

> <Gold.Chemscore.Hbonds>
donor molecule, donor type, donor heavy atom, donor atom, acceptor molecule, acceptor atom, score
      P1  H  7997  8009       L1     5  0.65

> <Gold.PLP.Chemscore.Internal.Correction>
0.0476

> <Gold.Rescore>
     Score         DG    S(hbond)    S(metal)    S(lipo)     H(rot)  DE(clash)    DE(int)     intcor
     16.48     -17.07       0.74        0.00     129.37       2.35       0.30       0.29       ----

> <Gold.Chemscore.Fitness>
16.4808

> <Gold.Chemscore.DG>
-17.0665

> <Gold.Chemscore.ZeroCoef>
-5.4800

> <Gold.Chemscore.Hbond>
0.7369

> <Gold.Chemscore.Metal>
0.0000

> <Gold.Chemscore.Lipo>
129.3652

> <Gold.Chemscore.Internal_Hbond>
0.0000

> <Gold.Chemscore.DEClash>
0.2990

> <Gold.Chemscore.DEInternal>
0.2867

> <Gold.Chemscore.Rot>
2.3479

> <Gold.Chemscore.Internal.Correction>
   9.000000E+99

> <Gold.Chemscore.Hbonds>
donor molecule, donor type, donor heavy atom, donor atom, acceptor molecule, acceptor atom, score
      P1  H  7997  8009       L1     5  0.40

> <Gold.Chemscore.Hbond.Weighted>
-2.4613

> <Gold.Chemscore.Metal.Weighted>
-0.0000

> <Gold.Chemscore.Lipo.Weighted>
-15.1357

> <Gold.Chemscore.Internal_Hbond.Weighted>
0.0000

> <Gold.Chemscore.DEClash.Weighted>
0.2990

> <Gold.Chemscore.DEInternal.Weighted>
0.2867

> <Gold.Chemscore.Rot.Weighted>
6.0106

> <Gold.Chemscore.Internal.Correction.Weighted>
   9.000000E+99

> <Gold.Protein.RotatedTorsions>
[ 6907 6896 6895 6894 ] final   47.29 input  -60.11 | X-H torsion
[ 7974 7965 7964 7962 ] final   59.25 input  175.53 | X-H torsion
[ 8008 7997 7996 7995 ] final  151.48 input   59.86 | X-H torsion
[ 10167 10162 10161 10158 ] final  103.10 input  -65.29 | X-H torsion
[ 10718 10713 10712 10709 ] final   72.41 input   66.30 | X-H torsion
[ 10763 10752 10751 10750 ] final  163.88 input  -60.55 | X-H torsion
[ 11005 11000 10999 10996 ] final  117.28 input  -57.11 | X-H torsion

> <Gold.Protein.ActiveResidues>
 VAL166  LYS551  ARG553  GLY616  TRP617  ASP618  TYR619  PRO620  LYS621  CYS622 
 ASP623  PHE694  ASN695  SER759  ASP760  ASP761  ALA762  ILE779  LEU786  VAL792 
 PHE793  MET794  SER795  GLU796  ALA797  LYS798  CYS799  TRP800  GLU811  SER814 

> <Gold.Protein.RotatedAtoms>
  152.2663  134.7980  160.0421 H   0  0  0  0  0  0  0  0  0  0  0  0  # atno 6907 bound_to 6896
  151.8609  133.3452  159.3711 H   0  0  0  0  0  0  0  0  0  0  0  0  # atno 6908 bound_to 6896
  150.7135  134.5135  159.5663 H   0  0  0  0  0  0  0  0  0  0  0  0  # atno 6909 bound_to 6896
  145.9092  139.3641  143.0545 H   0  0  0  0  0  0  0  0  0  0  0  0  # atno 7974 bound_to 7965
  156.2672  140.2046  156.6182 H   0  0  0  0  0  0  0  0  0  0  0  0  # atno 8008 bound_to 7997
  154.6777  140.0543  157.0257 H   0  0  0  0  0  0  0  0  0  0  0  0  # atno 8009 bound_to 7997
  155.1045  140.3209  155.4541 H   0  0  0  0  0  0  0  0  0  0  0  0  # atno 8010 bound_to 7997
  139.7292  144.7040  151.0749 H   0  0  0  0  0  0  0  0  0  0  0  0  # atno 10167 bound_to 10162
  157.6499  130.9577  150.0925 H   0  0  0  0  0  0  0  0  0  0  0  0  # atno 10718 bound_to 10713
  154.3004  135.2759  155.2613 H   0  0  0  0  0  0  0  0  0  0  0  0  # atno 10763 bound_to 10752
  154.5053  135.5797  153.6566 H   0  0  0  0  0  0  0  0  0  0  0  0  # atno 10764 bound_to 10752
  152.9901  135.6168  154.3174 H   0  0  0  0  0  0  0  0  0  0  0  0  # atno 10765 bound_to 10752
  139.9069  134.9608  156.7327 H   0  0  0  0  0  0  0  0  0  0  0  0  # atno 11005 bound_to 11000
  145.8693  140.9429  143.0659 LP  0  0  0  0  0  0  0  0  0  0  0  0  # atno 17320 bound_to 7965
  144.6742  140.0633  143.7475 LP  0  0  0  0  0  0  0  0  0  0  0  0  # atno 17321 bound_to 7965
  140.7768  143.5066  150.9705 LP  0  0  0  0  0  0  0  0  0  0  0  0  # atno 17342 bound_to 10162
  139.8753  143.7140  152.3162 LP  0  0  0  0  0  0  0  0  0  0  0  0  # atno 17343 bound_to 10162
  156.1870  130.3653  149.8960 LP  0  0  0  0  0  0  0  0  0  0  0  0  # atno 17370 bound_to 10713
  156.6897  130.8891  151.3586 LP  0  0  0  0  0  0  0  0  0  0  0  0  # atno 17371 bound_to 10713
  140.6912  133.9388  155.7967 LP  0  0  0  0  0  0  0  0  0  0  0  0  # atno 17394 bound_to 11000
  141.0440  134.0581  157.3867 LP  0  0  0  0  0  0  0  0  0  0  0  0  # atno 17395 bound_to 11000

$$$$
