AV-unprocessed.smi:1512|AV-procd|sdf|6105|dock6
  -GOLD-   22720 6233D 1   1.00000     0.00000
 Structure written by MMmdl.
 44 46  0  0  0  0  0  0  0  0  3 V2000
  148.3395  138.8422  157.8374 C   0  0  0  0  0  0  0  0  0  0  0  0
  148.7335  140.1582  157.1468 C   0  0  1  0  0  0  0  0  0  0  0  0
  150.1179  140.4923  157.4624 N   0  0  0  0  0  0  0  0  0  0  0  0
  150.5480  141.6102  158.0715 C   0  0  0  0  0  0  0  0  0  0  0  0
  149.7849  142.4540  158.5392 O   0  0  0  0  0  0  0  0  0  0  0  0
  152.0675  141.8430  158.1514 C   0  0  0  0  0  0  0  0  0  0  0  0
  152.6071  141.9059  159.5239 N   0  0  0  0  0  0  0  0  0  0  0  0
  152.1288  142.9400  160.3502 C   0  0  0  0  0  0  0  0  0  0  0  0
  152.5288  143.0725  161.6228 C   0  0  0  0  0  0  0  0  0  0  0  0
  153.4662  142.1097  162.1480 C   0  0  0  0  0  0  0  0  0  0  0  0
  153.9394  141.1070  161.3732 C   0  0  0  0  0  0  0  0  0  0  0  0
  154.8523  140.1596  161.9686 N   0  3  0  0  0  0  0  0  0  0  0  0
  155.0303  139.0803  161.4121 O   0  0  0  0  0  0  0  0  0  0  0  0
  155.4057  140.4616  163.0215 O   0  5  0  0  0  0  0  0  0  0  0  0
  153.5189  140.9820  159.9629 C   0  0  0  0  0  0  0  0  0  0  0  0
  153.9467  140.1019  159.2138 O   0  0  0  0  0  0  0  0  0  0  0  0
  148.5829  140.0856  155.6088 C   0  0  2  0  0  0  0  0  0  0  0  0
  149.0701  141.3382  154.8423 C   0  0  0  0  0  0  0  0  0  0  0  0
  147.8973  141.6385  153.8913 C   0  0  2  0  0  0  0  0  0  0  0  0
  146.7382  142.2444  154.7029 C   0  0  0  0  0  0  0  0  0  0  0  0
  146.2019  141.0303  155.4832 C   0  0  0  0  0  0  0  0  0  0  0  0
  147.1517  139.8946  155.0484 C   0  0  1  0  0  0  0  0  0  0  0  0
  147.3675  140.2431  153.5787 C   0  0  0  0  0  0  0  0  0  0  0  0
  147.2945  138.5953  157.6495 H   0  0  0  0  0  0  0  0  0  0  0  0
  148.4665  138.9095  158.9183 H   0  0  0  0  0  0  0  0  0  0  0  0
  148.9479  138.0100  157.4820 H   0  0  0  0  0  0  0  0  0  0  0  0
  148.1009  140.9586  157.5308 H   0  0  0  0  0  0  0  0  0  0  0  0
  150.8185  139.8493  157.1233 H   0  0  0  0  0  0  0  0  0  0  0  0
  152.5699  141.0521  157.5916 H   0  0  0  0  0  0  0  0  0  0  0  0
  152.2946  142.7602  157.6067 H   0  0  0  0  0  0  0  0  0  0  0  0
  151.4198  143.6113  159.8876 H   0  0  0  0  0  0  0  0  0  0  0  0
  152.1503  143.8725  162.2422 H   0  0  0  0  0  0  0  0  0  0  0  0
  153.7710  142.1901  163.1815 H   0  0  0  0  0  0  0  0  0  0  0  0
  149.1795  139.2385  155.2642 H   0  0  0  0  0  0  0  0  0  0  0  0
  149.2840  142.1858  155.4949 H   0  0  0  0  0  0  0  0  0  0  0  0
  149.9816  141.1151  154.2861 H   0  0  0  0  0  0  0  0  0  0  0  0
  148.1803  142.2327  153.0221 H   0  0  0  0  0  0  0  0  0  0  0  0
  147.0694  143.0487  155.3610 H   0  0  0  0  0  0  0  0  0  0  0  0
  145.9686  142.6474  154.0436 H   0  0  0  0  0  0  0  0  0  0  0  0
  146.1791  141.1938  156.5596 H   0  0  0  0  0  0  0  0  0  0  0  0
  145.1803  140.8074  155.1730 H   0  0  0  0  0  0  0  0  0  0  0  0
  146.7448  138.8974  155.2181 H   0  0  0  0  0  0  0  0  0  0  0  0
  146.4454  140.2505  152.9947 H   0  0  0  0  0  0  0  0  0  0  0  0
  148.0992  139.6034  153.0815 H   0  0  0  0  0  0  0  0  0  0  0  0
  1  2  1  0  0  0  0
  1 24  1  0  0  0  0
  1 25  1  0  0  0  0
  1 26  1  0  0  0  0
  2  3  1  0  0  0  0
  2 17  1  0  0  0  0
  2 27  1  0  0  0  0
  3  4  1  0  0  0  0
  3 28  1  0  0  0  0
  4  5  2  0  0  0  0
  4  6  1  0  0  0  0
  6  7  1  0  0  0  0
  6 29  1  0  0  0  0
  6 30  1  0  0  0  0
  7 15  1  0  0  0  0
  7  8  1  0  0  0  0
  8  9  2  0  0  0  0
  8 31  1  0  0  0  0
  9 10  1  0  0  0  0
  9 32  1  0  0  0  0
 10 11  2  0  0  0  0
 10 33  1  0  0  0  0
 11 12  1  0  0  0  0
 11 15  1  0  0  0  0
 12 13  2  0  0  0  0
 12 14  1  0  0  0  0
 15 16  2  0  0  0  0
 17 22  1  0  0  0  0
 17 18  1  0  0  0  0
 17 34  1  0  0  0  0
 18 19  1  0  0  0  0
 18 35  1  0  0  0  0
 18 36  1  0  0  0  0
 19 23  1  0  0  0  0
 19 20  1  0  0  0  0
 19 37  1  0  0  0  0
 20 21  1  0  0  0  0
 20 38  1  0  0  0  0
 20 39  1  0  0  0  0
 21 22  1  0  0  0  0
 21 40  1  0  0  0  0
 21 41  1  0  0  0  0
 22 23  1  0  0  0  0
 22 42  1  0  0  0  0
 23 43  1  0  0  0  0
 23 44  1  0  0  0  0
M  CHG  1  12   1
M  CHG  1  14  -1
M  END
> <s_m_source_file>
AV-unprocessed.smi

> <i_m_source_file_index>
1512

> <i_lp_mmshare_version>
43012

> <i_f3d_flags>
0

> <s_epik_input>
W0NIMl0xW0NIMl1bQ0BIXShbQ0gyXTIpW0NAQEhdKFtDSDJdW0NAQEhdMTIpW0NASF0oW0NIM10pW05IXUMoPU8pW0NIMl1uM1tjSF1bY0hdW2NIXWMoW04rXSg9TylbTy1dKWMzPU8=

> <s_epik_cmdline>
J2VwaWtfcHl0aG9uJywgJy1waCcsICc3LjAnLCAnLXRuJywgJzgnLCAnLW1hJywgJzIwMCcsICctbWV0YWxfYmluZGluZycsICctaW1hZScsICc8aW5maWxlLm1hZT4nLCAnLW9tYWUnLCAnPG91dGZpbGUubWFlPic=

> <r_lp_tautomer_probability>
1

> <r_epik_Ionization_Penalty>
2.17697e-08

> <r_epik_Ionization_Penalty_Charging>
1.42735e-10

> <r_epik_Ionization_Penalty_Neutral>
2.16269e-08

> <r_epik_State_Penalty>
-0

> <r_epik_Charging_Adjusted_Penalty>
1.42735e-10

> <i_epik_Tot_Q>
0

> <i_epik_Tot_abs_Q>
2

> <r_epik_Metal_State_Penalty>
-0

> <b_epik_Metal_Only>
0

> <s_lp_Force_Field>
OPLS_2005

> <r_lp_Energy>
64.4109

> <b_lp_Chiralities_Consistent>
1

> <s_lp_Variant>
AV-unprocessed.smi:1512-6

> <Gold.Version>
5.8.1

> <Gold.Id.Protein>
6NUR|6NUR_protein|mol2

> <Gold.PLP.Fitness>
45.8251

> <Gold.PLP.PLP>
-43.4665

> <Gold.PLP.part.hbond>
-2.1519

> <Gold.PLP.part.metal>
0.0000

> <Gold.PLP.part.buried>
-4.6642

> <Gold.PLP.part.nonpolar>
-35.8353

> <Gold.PLP.part.repulsive>
0.1448

> <Gold.PLP.ligand.clash>
0.0000

> <Gold.PLP.ligand.torsion>
0.1849

> <Gold.PLP.Chemscore.Hbond>
0.9040

> <Gold.PLP.Chemscore.CHOScore>
0.0000

> <Gold.PLP.Chemscore.Metal>
0.0000

> <Gold.Chemscore.Hbonds>
donor molecule, donor type, donor heavy atom, donor atom, acceptor molecule, acceptor atom, score
      P1  H  7997  8010       L1    16  0.64

> <Gold.PLP.Chemscore.Internal.Correction>
0.0162

> <Gold.Rescore>
     Score         DG    S(hbond)    S(metal)    S(lipo)     H(rot)  DE(clash)    DE(int)     intcor
     12.79     -14.78       0.95        0.00      90.56       1.75       0.04       1.95       ----

> <Gold.Chemscore.Fitness>
12.7914

> <Gold.Chemscore.DG>
-14.7769

> <Gold.Chemscore.ZeroCoef>
-5.4800

> <Gold.Chemscore.Hbond>
0.9505

> <Gold.Chemscore.Metal>
0.0000

> <Gold.Chemscore.Lipo>
90.5615

> <Gold.Chemscore.Internal_Hbond>
0.0000

> <Gold.Chemscore.DEClash>
0.0364

> <Gold.Chemscore.DEInternal>
1.9491

> <Gold.Chemscore.Rot>
1.7474

> <Gold.Chemscore.Internal.Correction>
   9.000000E+99

> <Gold.Chemscore.Hbonds>
donor molecule, donor type, donor heavy atom, donor atom, acceptor molecule, acceptor atom, score
      P1  H  7997  8010       L1    16  0.60

> <Gold.Chemscore.Hbond.Weighted>
-3.1745

> <Gold.Chemscore.Metal.Weighted>
-0.0000

> <Gold.Chemscore.Lipo.Weighted>
-10.5957

> <Gold.Chemscore.Internal_Hbond.Weighted>
0.0000

> <Gold.Chemscore.DEClash.Weighted>
0.0364

> <Gold.Chemscore.DEInternal.Weighted>
1.9491

> <Gold.Chemscore.Rot.Weighted>
4.4733

> <Gold.Chemscore.Internal.Correction.Weighted>
   9.000000E+99

> <Gold.Protein.RotatedTorsions>
[ 6907 6896 6895 6894 ] final  107.67 input  -60.11 | X-H torsion
[ 7974 7965 7964 7962 ] final    1.44 input  175.53 | X-H torsion
[ 8008 7997 7996 7995 ] final   10.55 input   59.86 | X-H torsion
[ 10167 10162 10161 10158 ] final  -39.49 input  -65.29 | X-H torsion
[ 10718 10713 10712 10709 ] final  -91.54 input   66.30 | X-H torsion
[ 10763 10752 10751 10750 ] final   -8.80 input  -60.55 | X-H torsion
[ 11005 11000 10999 10996 ] final  174.18 input  -57.11 | X-H torsion

> <Gold.Protein.ActiveResidues>
 VAL166  LYS551  ARG553  GLY616  TRP617  ASP618  TYR619  PRO620  LYS621  CYS622 
 ASP623  PHE694  ASN695  SER759  ASP760  ASP761  ALA762  ILE779  LEU786  VAL792 
 PHE793  MET794  SER795  GLU796  ALA797  LYS798  CYS799  TRP800  GLU811  SER814 

> <Gold.Protein.RotatedAtoms>
  152.5144  133.9200  159.7529 H   0  0  0  0  0  0  0  0  0  0  0  0  # atno 6907 bound_to 6896
  150.9574  133.6474  159.2767 H   0  0  0  0  0  0  0  0  0  0  0  0  # atno 6908 bound_to 6896
  151.3731  135.0931  159.9525 H   0  0  0  0  0  0  0  0  0  0  0  0  # atno 6909 bound_to 6896
  146.2440  140.0986  142.8349 H   0  0  0  0  0  0  0  0  0  0  0  0  # atno 7974 bound_to 7965
  154.7949  140.2842  155.5964 H   0  0  0  0  0  0  0  0  0  0  0  0  # atno 8008 bound_to 7997
  156.2969  140.2597  156.2733 H   0  0  0  0  0  0  0  0  0  0  0  0  # atno 8009 bound_to 7997
  154.9627  140.0377  157.2187 H   0  0  0  0  0  0  0  0  0  0  0  0  # atno 8010 bound_to 7997
  140.7063  143.3211  151.2789 H   0  0  0  0  0  0  0  0  0  0  0  0  # atno 10167 bound_to 10162
  155.9994  130.4952  150.5490 H   0  0  0  0  0  0  0  0  0  0  0  0  # atno 10718 bound_to 10713
  153.4457  135.7014  153.6141 H   0  0  0  0  0  0  0  0  0  0  0  0  # atno 10763 bound_to 10752
  153.4497  135.3761  155.2277 H   0  0  0  0  0  0  0  0  0  0  0  0  # atno 10764 bound_to 10752
  154.8728  135.3994  154.3862 H   0  0  0  0  0  0  0  0  0  0  0  0  # atno 10765 bound_to 10752
  140.3485  134.7216  157.4251 H   0  0  0  0  0  0  0  0  0  0  0  0  # atno 11005 bound_to 11000
  145.0588  140.9072  143.4951 LP  0  0  0  0  0  0  0  0  0  0  0  0  # atno 17320 bound_to 7965
  145.1097  139.2765  143.5643 LP  0  0  0  0  0  0  0  0  0  0  0  0  # atno 17321 bound_to 7965
  139.6666  144.0095  152.2726 LP  0  0  0  0  0  0  0  0  0  0  0  0  # atno 17342 bound_to 10162
  139.9680  144.6513  150.8016 LP  0  0  0  0  0  0  0  0  0  0  0  0  # atno 17343 bound_to 10162
  157.3415  131.0717  151.1784 LP  0  0  0  0  0  0  0  0  0  0  0  0  # atno 17370 bound_to 10713
  157.2631  130.6668  149.5984 LP  0  0  0  0  0  0  0  0  0  0  0  0  # atno 17371 bound_to 10713
  140.0723  134.5846  155.8629 LP  0  0  0  0  0  0  0  0  0  0  0  0  # atno 17394 bound_to 11000
  141.2019  133.6621  156.5975 LP  0  0  0  0  0  0  0  0  0  0  0  0  # atno 17395 bound_to 11000

$$$$
