AV-unprocessed.smi:1645|AV-procd|sdf|6616|dock4
  -GOLD-   22720 7313D 1   1.00000     0.00000
 Structure written by MMmdl.
 55 58  0  0  0  0  0  0  0  0  4 V2000
  146.8108  140.3025  153.4679 O   0  0  0  0  0  0  0  0  0  0  0  0
  147.4810  139.3330  153.0955 C   0  0  0  0  0  0  0  0  0  0  0  0
  148.7506  139.1807  153.5116 N   0  0  0  0  0  0  0  0  0  0  0  0
  149.4922  139.9555  154.4432 C   0  0  0  0  0  0  0  0  0  0  0  0
  150.6264  139.3632  155.0336 C   0  0  0  0  0  0  0  0  0  0  0  0
  151.3779  140.0816  155.9858 C   0  0  0  0  0  0  0  0  0  0  0  0
  150.9816  141.3915  156.3565 C   0  0  0  0  0  0  0  0  0  0  0  0
  151.6709  142.1864  157.3005 N   0  0  0  0  0  0  0  0  0  0  0  0
  151.4102  143.6286  157.2419 C   0  0  0  0  0  0  0  0  0  0  0  0
  152.4795  144.4271  158.0069 C   0  0  0  0  0  0  0  0  0  0  0  0
  152.6377  143.9078  159.4423 C   0  0  0  0  0  0  0  0  0  0  0  0
  152.9479  142.4052  159.4190 C   0  0  0  0  0  0  0  0  0  0  0  0
  151.8734  141.6284  158.6392 C   0  0  0  0  0  0  0  0  0  0  0  0
  149.8761  141.9114  155.7698 N   0  3  0  0  0  0  0  0  0  0  0  0
  149.1300  141.2603  154.8513 C   0  0  0  0  0  0  0  0  0  0  0  0
  147.0998  138.3367  152.2521 N   0  5  0  0  0  0  0  0  0  0  0  0
  145.8914  137.5248  152.4082 C   0  0  2  0  0  0  0  0  0  0  0  0
  145.3615  137.5540  153.8557 C   0  0  0  0  0  0  0  0  0  0  0  0
  144.8275  136.1356  154.1311 C   0  0  0  0  0  0  0  0  0  0  0  0
  145.0724  135.3725  152.8921 N   0  3  2  0  0  0  0  0  0  0  0  0
  145.2630  133.9111  153.0238 C   0  0  0  0  0  0  0  0  0  0  0  0
  145.3908  133.2860  151.6197 C   0  0  0  0  0  0  0  0  0  0  0  0
  146.4822  133.9799  150.7779 C   0  0  0  0  0  0  0  0  0  0  0  0
  146.2792  135.5081  150.7493 C   0  0  0  0  0  0  0  0  0  0  0  0
  146.1873  136.0352  152.1965 C   0  0  1  0  0  0  0  0  0  0  0  0
  149.2567  138.4238  153.0758 H   0  0  0  0  0  0  0  0  0  0  0  0
  150.9233  138.3614  154.7592 H   0  0  0  0  0  0  0  0  0  0  0  0
  152.2399  139.6025  156.4243 H   0  0  0  0  0  0  0  0  0  0  0  0
  151.3802  143.9904  156.2143 H   0  0  0  0  0  0  0  0  0  0  0  0
  150.4260  143.8210  157.6705 H   0  0  0  0  0  0  0  0  0  0  0  0
  153.4344  144.3527  157.4849 H   0  0  0  0  0  0  0  0  0  0  0  0
  152.2156  145.4850  158.0192 H   0  0  0  0  0  0  0  0  0  0  0  0
  153.4332  144.4497  159.9546 H   0  0  0  0  0  0  0  0  0  0  0  0
  151.7209  144.0881  160.0051 H   0  0  0  0  0  0  0  0  0  0  0  0
  153.9229  142.2423  158.9573 H   0  0  0  0  0  0  0  0  0  0  0  0
  153.0201  142.0215  160.4370 H   0  0  0  0  0  0  0  0  0  0  0  0
  150.9271  141.6504  159.1819 H   0  0  0  0  0  0  0  0  0  0  0  0
  152.1863  140.5862  158.5696 H   0  0  0  0  0  0  0  0  0  0  0  0
  148.2682  141.8051  154.4965 H   0  0  0  0  0  0  0  0  0  0  0  0
  145.0901  137.8209  151.7288 H   0  0  0  0  0  0  0  0  0  0  0  0
  146.1560  137.7834  154.5679 H   0  0  0  0  0  0  0  0  0  0  0  0
  144.5875  138.3126  153.9771 H   0  0  0  0  0  0  0  0  0  0  0  0
  145.3660  135.6876  154.9679 H   0  0  0  0  0  0  0  0  0  0  0  0
  143.7645  136.1317  154.3750 H   0  0  0  0  0  0  0  0  0  0  0  0
  146.1554  133.7058  153.6171 H   0  0  0  0  0  0  0  0  0  0  0  0
  144.4148  133.4773  153.5540 H   0  0  0  0  0  0  0  0  0  0  0  0
  145.6048  132.2201  151.7037 H   0  0  0  0  0  0  0  0  0  0  0  0
  144.4342  133.3671  151.1019 H   0  0  0  0  0  0  0  0  0  0  0  0
  147.4626  133.7535  151.1987 H   0  0  0  0  0  0  0  0  0  0  0  0
  146.4827  133.5824  149.7626 H   0  0  0  0  0  0  0  0  0  0  0  0
  147.1071  135.9782  150.2158 H   0  0  0  0  0  0  0  0  0  0  0  0
  145.3716  135.7419  150.1888 H   0  0  0  0  0  0  0  0  0  0  0  0
  147.1101  135.7819  152.7244 H   0  0  0  0  0  0  0  0  0  0  0  0
  144.2608  135.5188  152.3096 H   0  0  0  0  0  0  0  0  0  0  0  0
  149.5867  142.8519  156.0380 H   0  0  0  0  0  0  0  0  0  0  0  0
  1  2  2  0  0  0  0
  2  3  1  0  0  0  0
  2 16  1  0  0  0  0
  3  4  1  0  0  0  0
  3 26  1  0  0  0  0
  4 15  1  0  0  0  0
  4  5  2  0  0  0  0
  5  6  1  0  0  0  0
  5 27  1  0  0  0  0
  6  7  2  0  0  0  0
  6 28  1  0  0  0  0
  7  8  1  0  0  0  0
  7 14  1  0  0  0  0
  8 13  1  0  0  0  0
  8  9  1  0  0  0  0
  9 10  1  0  0  0  0
  9 29  1  0  0  0  0
  9 30  1  0  0  0  0
 10 11  1  0  0  0  0
 10 31  1  0  0  0  0
 10 32  1  0  0  0  0
 11 12  1  0  0  0  0
 11 33  1  0  0  0  0
 11 34  1  0  0  0  0
 12 13  1  0  0  0  0
 12 35  1  0  0  0  0
 12 36  1  0  0  0  0
 13 37  1  0  0  0  0
 13 38  1  0  0  0  0
 14 15  2  0  0  0  0
 14 55  1  0  0  0  0
 15 39  1  0  0  0  0
 16 17  1  0  0  0  0
 17 25  1  0  0  0  0
 17 18  1  0  0  0  0
 17 40  1  0  0  0  0
 18 19  1  0  0  0  0
 18 41  1  0  0  0  0
 18 42  1  0  0  0  0
 19 20  1  0  0  0  0
 19 43  1  0  0  0  0
 19 44  1  0  0  0  0
 20 25  1  0  0  0  0
 20 21  1  0  0  0  0
 20 54  1  0  0  0  0
 21 22  1  0  0  0  0
 21 45  1  0  0  0  0
 21 46  1  0  0  0  0
 22 23  1  0  0  0  0
 22 47  1  0  0  0  0
 22 48  1  0  0  0  0
 23 24  1  0  0  0  0
 23 49  1  0  0  0  0
 23 50  1  0  0  0  0
 24 25  1  0  0  0  0
 24 51  1  0  0  0  0
 24 52  1  0  0  0  0
 25 53  1  0  0  0  0
M  CHG  1  14   1
M  CHG  1  16  -1
M  CHG  1  20   1
M  END
> <s_m_source_file>
AV-unprocessed.smi

> <i_m_source_file_index>
1645

> <i_lp_mmshare_version>
43012

> <i_f3d_flags>
0

> <s_epik_input>
W0NIMl0xW0NIMl1bQ0gyXVtDSDJdW0NASF0oTjEyKVtDQEBIXShbQ0gyXVtDSDJdMilbTkhdQyg9TylbTkhdYzNbY0hdW2NIXWMobltjSF0zKU40W0NIMl1bQ0gyXVtDSDJdW0NIMl1bQ0gyXTQ=

> <s_epik_cmdline>
J2VwaWtfcHl0aG9uJywgJy1waCcsICc3LjAnLCAnLXRuJywgJzgnLCAnLW1hJywgJzIwMCcsICctbWV0YWxfYmluZGluZycsICctaW1hZScsICc8aW5maWxlLm1hZT4nLCAnLW9tYWUnLCAnPG91dGZpbGUubWFlPic=

> <r_lp_tautomer_probability>
0.999994

> <r_epik_Ionization_Penalty>
8.55589

> <r_epik_Ionization_Penalty_Charging>
8.55589

> <r_epik_Ionization_Penalty_Neutral>
3.8092e-06

> <r_epik_State_Penalty>
8.15703

> <r_epik_Charging_Adjusted_Penalty>
16.7129

> <i_epik_Tot_Q>
1

> <i_epik_Tot_abs_Q>
3

> <r_epik_Metal_State_Penalty>
4.13781

> <b_epik_Metal_Only>
1

> <s_lp_Force_Field>
OPLS_2005

> <r_lp_Energy>
51.6627

> <b_lp_Chiralities_Consistent>
1

> <s_lp_Variant>
AV-unprocessed.smi:1645-17

> <Gold.Version>
5.8.1

> <Gold.Id.Protein>
6NUR|6NUR_protein|mol2

> <Gold.PLP.Fitness>
48.2845

> <Gold.PLP.PLP>
-44.5132

> <Gold.PLP.part.hbond>
-2.0000

> <Gold.PLP.part.metal>
0.0000

> <Gold.PLP.part.buried>
-2.5555

> <Gold.PLP.part.nonpolar>
-41.5999

> <Gold.PLP.part.repulsive>
1.4026

> <Gold.PLP.ligand.clash>
0.6170

> <Gold.PLP.ligand.torsion>
1.0738

> <Gold.PLP.Chemscore.Hbond>
2.0000

> <Gold.PLP.Chemscore.CHOScore>
0.0000

> <Gold.PLP.Chemscore.Metal>
0.0000

> <Gold.Chemscore.Hbonds>
donor molecule, donor type, donor heavy atom, donor atom, acceptor molecule, acceptor atom, score
      L1  H    14    55       P1  8028  1.98

> <Gold.PLP.Chemscore.Internal.Correction>
0.5359

> <Gold.Rescore>
     Score         DG    S(hbond)    S(metal)    S(lipo)     H(rot)  DE(clash)    DE(int)     intcor
     16.84     -19.40       0.91        0.00     118.65       1.17       0.16       2.39       ----

> <Gold.Chemscore.Fitness>
16.8446

> <Gold.Chemscore.DG>
-19.3961

> <Gold.Chemscore.ZeroCoef>
-5.4800

> <Gold.Chemscore.Hbond>
0.9093

> <Gold.Chemscore.Metal>
0.0000

> <Gold.Chemscore.Lipo>
118.6515

> <Gold.Chemscore.Internal_Hbond>
0.0000

> <Gold.Chemscore.DEClash>
0.1644

> <Gold.Chemscore.DEInternal>
2.3871

> <Gold.Chemscore.Rot>
1.1731

> <Gold.Chemscore.Internal.Correction>
   9.000000E+99

> <Gold.Chemscore.Hbonds>
donor molecule, donor type, donor heavy atom, donor atom, acceptor molecule, acceptor atom, score
      L1  H     3    26       P1  7948  0.02
      L1  H    14    55       P1  8028  0.91

> <Gold.Chemscore.Hbond.Weighted>
-3.0371

> <Gold.Chemscore.Metal.Weighted>
-0.0000

> <Gold.Chemscore.Lipo.Weighted>
-13.8822

> <Gold.Chemscore.Internal_Hbond.Weighted>
0.0000

> <Gold.Chemscore.DEClash.Weighted>
0.1644

> <Gold.Chemscore.DEInternal.Weighted>
2.3871

> <Gold.Chemscore.Rot.Weighted>
3.0032

> <Gold.Chemscore.Internal.Correction.Weighted>
   9.000000E+99

> <Gold.Protein.RotatedTorsions>
[ 6907 6896 6895 6894 ] final -102.42 input  -60.11 | X-H torsion
[ 7974 7965 7964 7962 ] final  -22.66 input  175.53 | X-H torsion
[ 8008 7997 7996 7995 ] final  -93.92 input   59.86 | X-H torsion
[ 10167 10162 10161 10158 ] final   83.61 input  -65.29 | X-H torsion
[ 10718 10713 10712 10709 ] final  -36.77 input   66.30 | X-H torsion
[ 10763 10752 10751 10750 ] final   24.28 input  -60.55 | X-H torsion
[ 11005 11000 10999 10996 ] final  110.12 input  -57.11 | X-H torsion

> <Gold.Protein.ActiveResidues>
 VAL166  LYS551  ARG553  GLY616  TRP617  ASP618  TYR619  PRO620  LYS621  CYS622 
 ASP623  PHE694  ASN695  SER759  ASP760  ASP761  ALA762  ILE779  LEU786  VAL792 
 PHE793  MET794  SER795  GLU796  ALA797  LYS798  CYS799  TRP800  GLU811  SER814 

> <Gold.Protein.RotatedAtoms>
  150.7195  134.0583  159.3822 H   0  0  0  0  0  0  0  0  0  0  0  0  # atno 6907 bound_to 6896
  151.8562  135.0538  160.0474 H   0  0  0  0  0  0  0  0  0  0  0  0  # atno 6908 bound_to 6896
  152.2752  133.5383  159.5500 H   0  0  0  0  0  0  0  0  0  0  0  0  # atno 6909 bound_to 6896
  146.1662  140.4510  142.8551 H   0  0  0  0  0  0  0  0  0  0  0  0  # atno 7974 bound_to 7965
  154.7417  140.0494  157.0817 H   0  0  0  0  0  0  0  0  0  0  0  0  # atno 8008 bound_to 7997
  155.0169  140.3142  155.4789 H   0  0  0  0  0  0  0  0  0  0  0  0  # atno 8009 bound_to 7997
  156.2866  140.2174  156.5286 H   0  0  0  0  0  0  0  0  0  0  0  0  # atno 8010 bound_to 7997
  139.9166  144.6239  150.8483 H   0  0  0  0  0  0  0  0  0  0  0  0  # atno 10167 bound_to 10162
  156.3230  130.4268  149.7943 H   0  0  0  0  0  0  0  0  0  0  0  0  # atno 10718 bound_to 10713
  153.0776  135.6609  154.0113 H   0  0  0  0  0  0  0  0  0  0  0  0  # atno 10763 bound_to 10752
  153.9743  135.2961  155.3426 H   0  0  0  0  0  0  0  0  0  0  0  0  # atno 10764 bound_to 10752
  154.7167  135.5182  153.8820 H   0  0  0  0  0  0  0  0  0  0  0  0  # atno 10765 bound_to 10752
  139.8875  134.9476  156.6230 H   0  0  0  0  0  0  0  0  0  0  0  0  # atno 11005 bound_to 11000
  144.8096  140.6362  143.6424 LP  0  0  0  0  0  0  0  0  0  0  0  0  # atno 17320 bound_to 7965
  145.4460  139.1529  143.3944 LP  0  0  0  0  0  0  0  0  0  0  0  0  # atno 17321 bound_to 7965
  140.7672  143.3327  151.2375 LP  0  0  0  0  0  0  0  0  0  0  0  0  # atno 17342 bound_to 10162
  139.6897  143.9713  152.2853 LP  0  0  0  0  0  0  0  0  0  0  0  0  # atno 17343 bound_to 10162
  156.5244  130.8229  151.3215 LP  0  0  0  0  0  0  0  0  0  0  0  0  # atno 17370 bound_to 10713
  157.7415  130.9872  150.2453 LP  0  0  0  0  0  0  0  0  0  0  0  0  # atno 17371 bound_to 10713
  140.7724  133.8727  155.8502 LP  0  0  0  0  0  0  0  0  0  0  0  0  # atno 17394 bound_to 11000
  140.9830  134.1380  157.4477 LP  0  0  0  0  0  0  0  0  0  0  0  0  # atno 17395 bound_to 11000

$$$$
