AV-unprocessed.smi:2567|AV-procd|sdf|10078|dock9
  -GOLD-   2272014103D 1   1.00000     0.00000
 Structure written by MMmdl.
 34 35  0  0  0  0  0  0  0  0  2 V2000
  150.9660  145.2433  159.5077 C   0  0  0  0  0  0  0  0  0  0  0  0
  151.8591  144.1001  158.9767 C   0  0  0  0  0  0  0  0  0  0  0  0
  152.9000  144.7500  158.0389 C   0  0  0  0  0  0  0  0  0  0  0  0
  152.5793  143.4119  160.1502 C   0  0  0  0  0  0  0  0  0  0  0  0
  151.0353  143.0827  158.2221 C   0  0  0  0  0  0  0  0  0  0  0  0
  150.2368  142.2230  158.8601 N   0  0  0  0  0  0  0  0  0  0  0  0
  149.8121  141.4222  157.8614 N   0  0  0  0  0  0  0  0  0  0  0  0
  150.4004  141.7891  156.7227 C   0  0  0  0  0  0  0  0  0  0  0  0
  150.1650  141.0702  155.4320 C   0  0  2  0  0  0  0  0  0  0  0  0
  148.7432  141.2981  154.8833 C   0  0  0  0  0  0  0  0  0  0  0  0
  148.5338  140.4852  153.6694 N   0  3  0  0  0  0  0  0  0  0  0  0
  148.8162  139.0580  153.9203 C   0  0  0  0  0  0  0  0  0  0  0  0
  150.2299  138.8924  154.5049 C   0  0  0  0  0  0  0  0  0  0  0  0
  150.3578  139.6802  155.6840 O   0  0  0  0  0  0  0  0  0  0  0  0
  151.2205  142.8210  156.8895 N   0  0  0  0  0  0  0  0  0  0  0  0
  149.1677  140.6578  158.0053 H   0  0  0  0  0  0  0  0  0  0  0  0
  151.5576  146.0041  160.0182 H   0  0  0  0  0  0  0  0  0  0  0  0
  150.2278  144.8822  160.2246 H   0  0  0  0  0  0  0  0  0  0  0  0
  150.4269  145.7366  158.6979 H   0  0  0  0  0  0  0  0  0  0  0  0
  152.4214  145.2296  157.1842 H   0  0  0  0  0  0  0  0  0  0  0  0
  153.6092  144.0174  157.6516 H   0  0  0  0  0  0  0  0  0  0  0  0
  153.4821  145.5116  158.5588 H   0  0  0  0  0  0  0  0  0  0  0  0
  153.1861  144.1205  160.7146 H   0  0  0  0  0  0  0  0  0  0  0  0
  153.2407  142.6192  159.7987 H   0  0  0  0  0  0  0  0  0  0  0  0
  151.8673  142.9630  160.8438 H   0  0  0  0  0  0  0  0  0  0  0  0
  150.9066  141.4098  154.7059 H   0  0  0  0  0  0  0  0  0  0  0  0
  147.9971  141.0193  155.6291 H   0  0  0  0  0  0  0  0  0  0  0  0
  148.5842  142.3504  154.6460 H   0  0  0  0  0  0  0  0  0  0  0  0
  147.5792  140.5887  153.3558 H   0  0  0  0  0  0  0  0  0  0  0  0
  148.0735  138.6623  154.6143 H   0  0  0  0  0  0  0  0  0  0  0  0
  148.7170  138.4994  152.9893 H   0  0  0  0  0  0  0  0  0  0  0  0
  150.4129  137.8476  154.7561 H   0  0  0  0  0  0  0  0  0  0  0  0
  150.9895  139.1822  153.7770 H   0  0  0  0  0  0  0  0  0  0  0  0
  149.1561  140.8159  152.9457 H   0  0  0  0  0  0  0  0  0  0  0  0
  1  2  1  0  0  0  0
  1 17  1  0  0  0  0
  1 18  1  0  0  0  0
  1 19  1  0  0  0  0
  2  3  1  0  0  0  0
  2  4  1  0  0  0  0
  2  5  1  0  0  0  0
  3 20  1  0  0  0  0
  3 21  1  0  0  0  0
  3 22  1  0  0  0  0
  4 23  1  0  0  0  0
  4 24  1  0  0  0  0
  4 25  1  0  0  0  0
  5 15  1  0  0  0  0
  5  6  2  0  0  0  0
  6  7  1  0  0  0  0
  7 16  1  0  0  0  0
  7  8  1  0  0  0  0
  8  9  1  0  0  0  0
  8 15  2  0  0  0  0
  9 14  1  0  0  0  0
  9 10  1  0  0  0  0
  9 26  1  0  0  0  0
 10 11  1  0  0  0  0
 10 27  1  0  0  0  0
 10 28  1  0  0  0  0
 11 12  1  0  0  0  0
 11 29  1  0  0  0  0
 11 34  1  0  0  0  0
 12 13  1  0  0  0  0
 12 30  1  0  0  0  0
 12 31  1  0  0  0  0
 13 14  1  0  0  0  0
 13 32  1  0  0  0  0
 13 33  1  0  0  0  0
M  CHG  1  11   1
M  END
> <s_m_source_file>
AV-unprocessed.smi

> <i_m_source_file_index>
2567

> <i_lp_mmshare_version>
43012

> <i_f3d_flags>
0

> <s_epik_input>
W0NIM11DKFtDSDNdKShbQ0gzXSljMW5bbkhdYyhuMSlbQ0BASF0yW0NIMl1bTkhdW0NIMl1bQ0gyXU8y

> <s_epik_cmdline>
J2VwaWtfcHl0aG9uJywgJy1waCcsICc3LjAnLCAnLXRuJywgJzgnLCAnLW1hJywgJzIwMCcsICctbWV0YWxfYmluZGluZycsICctaW1hZScsICc8aW5maWxlLm1hZT4nLCAnLW9tYWUnLCAnPG91dGZpbGUubWFlPic=

> <r_epik_Ionization_Penalty>
0.162344

> <r_epik_Ionization_Penalty_Charging>
0.125708

> <r_epik_Ionization_Penalty_Neutral>
0.0366363

> <r_epik_State_Penalty>
1.18286

> <r_epik_Charging_Adjusted_Penalty>
1.30856

> <i_epik_Tot_Q>
1

> <i_epik_Tot_abs_Q>
1

> <r_epik_Metal_State_Penalty>
1.49333

> <b_epik_Metal_Only>
0

> <s_lp_Force_Field>
OPLS_2005

> <r_lp_Energy>
12.4699

> <b_lp_Chiralities_Consistent>
1

> <s_lp_Variant>
AV-unprocessed.smi:2567-3

> <Gold.Version>
5.8.1

> <Gold.Id.Protein>
6NUR|6NUR_protein|mol2

> <Gold.PLP.Fitness>
34.1849

> <Gold.PLP.PLP>
-32.8677

> <Gold.PLP.part.hbond>
-1.6060

> <Gold.PLP.part.metal>
0.0000

> <Gold.PLP.part.buried>
-2.9990

> <Gold.PLP.part.nonpolar>
-27.9678

> <Gold.PLP.part.repulsive>
0.4192

> <Gold.PLP.ligand.clash>
0.0000

> <Gold.PLP.ligand.torsion>
0.3802

> <Gold.PLP.Chemscore.Hbond>
0.6240

> <Gold.PLP.Chemscore.CHOScore>
0.0000

> <Gold.PLP.Chemscore.Metal>
0.0000

> <Gold.Chemscore.Hbonds>
donor molecule, donor type, donor heavy atom, donor atom, acceptor molecule, acceptor atom, score
      L1  H    11    34       P1  7957  0.62

> <Gold.PLP.Chemscore.Internal.Correction>
0.2056

> <Gold.Rescore>
     Score         DG    S(hbond)    S(metal)    S(lipo)     H(rot)  DE(clash)    DE(int)     intcor
     13.47     -14.22       0.81        0.00      79.28       1.26       0.24       0.52       ----

> <Gold.Chemscore.Fitness>
13.4655

> <Gold.Chemscore.DG>
-14.2216

> <Gold.Chemscore.ZeroCoef>
-5.4800

> <Gold.Chemscore.Hbond>
0.8093

> <Gold.Chemscore.Metal>
0.0000

> <Gold.Chemscore.Lipo>
79.2818

> <Gold.Chemscore.Internal_Hbond>
0.0000

> <Gold.Chemscore.DEClash>
0.2370

> <Gold.Chemscore.DEInternal>
0.5191

> <Gold.Chemscore.Rot>
1.2647

> <Gold.Chemscore.Internal.Correction>
   9.000000E+99

> <Gold.Chemscore.Hbonds>
donor molecule, donor type, donor heavy atom, donor atom, acceptor molecule, acceptor atom, score
      L1  H    11    34       P1  7957  0.60

> <Gold.Chemscore.Hbond.Weighted>
-2.7032

> <Gold.Chemscore.Metal.Weighted>
-0.0000

> <Gold.Chemscore.Lipo.Weighted>
-9.2760

> <Gold.Chemscore.Internal_Hbond.Weighted>
0.0000

> <Gold.Chemscore.DEClash.Weighted>
0.2370

> <Gold.Chemscore.DEInternal.Weighted>
0.5191

> <Gold.Chemscore.Rot.Weighted>
3.2375

> <Gold.Chemscore.Internal.Correction.Weighted>
   9.000000E+99

> <Gold.Protein.RotatedTorsions>
[ 6907 6896 6895 6894 ] final -120.90 input  -60.11 | X-H torsion
[ 7974 7965 7964 7962 ] final  162.39 input  175.53 | X-H torsion
[ 8008 7997 7996 7995 ] final   65.27 input   59.86 | X-H torsion
[ 10167 10162 10161 10158 ] final  167.82 input  -65.29 | X-H torsion
[ 10718 10713 10712 10709 ] final  -83.00 input   66.30 | X-H torsion
[ 10763 10752 10751 10750 ] final  -75.50 input  -60.55 | X-H torsion
[ 11005 11000 10999 10996 ] final -100.21 input  -57.11 | X-H torsion

> <Gold.Protein.ActiveResidues>
 VAL166  LYS551  ARG553  GLY616  TRP617  ASP618  TYR619  PRO620  LYS621  CYS622 
 ASP623  PHE694  ASN695  SER759  ASP760  ASP761  ALA762  ILE779  LEU786  VAL792 
 PHE793  MET794  SER795  GLU796  ALA797  LYS798  CYS799  TRP800  GLU811  SER814 

> <Gold.Protein.RotatedAtoms>
  150.8435  133.7899  159.3051 H   0  0  0  0  0  0  0  0  0  0  0  0  # atno 6907 bound_to 6896
  151.5593  135.1064  159.9978 H   0  0  0  0  0  0  0  0  0  0  0  0  # atno 6908 bound_to 6896
  152.4494  133.7556  159.6774 H   0  0  0  0  0  0  0  0  0  0  0  0  # atno 6909 bound_to 6896
  144.7639  139.8032  143.6322 H   0  0  0  0  0  0  0  0  0  0  0  0  # atno 7974 bound_to 7965
  155.6591  140.3497  155.4776 H   0  0  0  0  0  0  0  0  0  0  0  0  # atno 8008 bound_to 7997
  155.9784  140.1169  157.0772 H   0  0  0  0  0  0  0  0  0  0  0  0  # atno 8009 bound_to 7997
  154.4185  140.1143  156.5387 H   0  0  0  0  0  0  0  0  0  0  0  0  # atno 8010 bound_to 7997
  139.4954  144.3881  151.9548 H   0  0  0  0  0  0  0  0  0  0  0  0  # atno 10167 bound_to 10162
  156.0024  130.4652  150.4191 H   0  0  0  0  0  0  0  0  0  0  0  0  # atno 10718 bound_to 10713
  154.4874  135.5829  153.6434 H   0  0  0  0  0  0  0  0  0  0  0  0  # atno 10763 bound_to 10752
  152.9857  135.6104  154.3168 H   0  0  0  0  0  0  0  0  0  0  0  0  # atno 10764 bound_to 10752
  154.3065  135.2846  155.2566 H   0  0  0  0  0  0  0  0  0  0  0  0  # atno 10765 bound_to 10752
  141.1279  133.8381  157.1073 H   0  0  0  0  0  0  0  0  0  0  0  0  # atno 11005 bound_to 11000
  146.1729  139.4887  142.9916 LP  0  0  0  0  0  0  0  0  0  0  0  0  # atno 17320 bound_to 7965
  145.6531  141.0258  143.1749 LP  0  0  0  0  0  0  0  0  0  0  0  0  # atno 17321 bound_to 7965
  140.3318  144.3307  150.5985 LP  0  0  0  0  0  0  0  0  0  0  0  0  # atno 17342 bound_to 10162
  140.5638  143.2188  151.7718 LP  0  0  0  0  0  0  0  0  0  0  0  0  # atno 17343 bound_to 10162
  157.2248  131.0491  151.2526 LP  0  0  0  0  0  0  0  0  0  0  0  0  # atno 17370 bound_to 10713
  157.3766  130.7209  149.6601 LP  0  0  0  0  0  0  0  0  0  0  0  0  # atno 17371 bound_to 10713
  140.0296  134.9907  157.0755 LP  0  0  0  0  0  0  0  0  0  0  0  0  # atno 17394 bound_to 11000
  140.4306  134.1784  155.7168 LP  0  0  0  0  0  0  0  0  0  0  0  0  # atno 17395 bound_to 11000

$$$$
