AV-unprocessed.smi:712|AV-procd|sdf|3471|dock3
  -GOLD-   22720 0463D 1   1.00000     0.00000
 Structure written by MMmdl.
 51 52  0  0  0  0  0  0  0  0  2 V2000
  152.2995  143.6786  161.2463 C   0  0  0  0  0  0  0  0  0  0  0  0
  152.0624  142.9920  159.9172 C   0  0  0  0  0  0  0  0  0  0  0  0
  151.2054  143.5914  158.9152 C   0  0  0  0  0  0  0  0  0  0  0  0
  151.0102  142.9495  157.7527 C   0  0  0  0  0  0  0  0  0  0  0  0
  151.6154  141.7097  157.4776 N   0  0  0  0  0  0  0  0  0  0  0  0
  151.3043  141.0761  156.1851 C   0  0  0  0  0  0  0  0  0  0  0  0
  149.8286  140.6696  156.1030 C   0  0  0  0  0  0  0  0  0  0  0  0
  148.9471  141.4796  156.3910 O   0  0  0  0  0  0  0  0  0  0  0  0
  149.5761  139.4031  155.7384 N   0  0  0  0  0  0  0  0  0  0  0  0
  148.2620  138.7673  155.7627 C   0  0  0  0  0  0  0  0  0  0  0  0
  147.8565  138.2497  154.3673 C   0  0  1  0  0  0  0  0  0  0  0  0
  146.9812  136.9777  154.4082 C   0  0  0  0  0  0  0  0  0  0  0  0
  146.5845  136.5641  153.0412 N   0  3  1  0  0  0  0  0  0  0  0  0
  145.7765  135.3166  152.9994 C   0  0  0  0  0  0  0  0  0  0  0  0
  145.7541  134.6312  151.6135 C   0  0  0  0  0  0  0  0  0  0  0  0
  144.9219  135.4194  150.5885 C   0  0  0  0  0  0  0  0  0  0  0  0
  145.2375  133.1898  151.7298 C   0  0  0  0  0  0  0  0  0  0  0  0
  145.9224  137.6877  152.3380 C   0  0  0  0  0  0  0  0  0  0  0  0
  146.8146  138.9398  152.3615 C   0  0  0  0  0  0  0  0  0  0  0  0
  147.1296  139.2798  153.7067 O   0  0  0  0  0  0  0  0  0  0  0  0
  152.4392  141.0931  158.3792 C   0  0  0  0  0  0  0  0  0  0  0  0
  152.9667  140.0040  158.1482 O   0  0  0  0  0  0  0  0  0  0  0  0
  152.6439  141.8030  159.6465 C   0  0  0  0  0  0  0  0  0  0  0  0
  151.8324  144.6637  161.2701 H   0  0  0  0  0  0  0  0  0  0  0  0
  153.3678  143.8045  161.4243 H   0  0  0  0  0  0  0  0  0  0  0  0
  151.8823  143.0832  162.0591 H   0  0  0  0  0  0  0  0  0  0  0  0
  150.7235  144.5409  159.0986 H   0  0  0  0  0  0  0  0  0  0  0  0
  150.3763  143.3376  156.9686 H   0  0  0  0  0  0  0  0  0  0  0  0
  151.5206  141.7509  155.3555 H   0  0  0  0  0  0  0  0  0  0  0  0
  151.9486  140.2087  156.0280 H   0  0  0  0  0  0  0  0  0  0  0  0
  150.3618  138.8142  155.5024 H   0  0  0  0  0  0  0  0  0  0  0  0
  148.2273  137.9605  156.4970 H   0  0  0  0  0  0  0  0  0  0  0  0
  147.5412  139.5140  156.0970 H   0  0  0  0  0  0  0  0  0  0  0  0
  148.7666  138.0444  153.8001 H   0  0  0  0  0  0  0  0  0  0  0  0
  147.5427  136.1731  154.8752 H   0  0  0  0  0  0  0  0  0  0  0  0
  146.0916  137.1475  155.0170 H   0  0  0  0  0  0  0  0  0  0  0  0
  146.1507  134.6251  153.7560 H   0  0  0  0  0  0  0  0  0  0  0  0
  144.7500  135.5536  153.2830 H   0  0  0  0  0  0  0  0  0  0  0  0
  146.7720  134.5553  151.2346 H   0  0  0  0  0  0  0  0  0  0  0  0
  143.8895  135.5356  150.9196 H   0  0  0  0  0  0  0  0  0  0  0  0
  144.9058  134.9118  149.6236 H   0  0  0  0  0  0  0  0  0  0  0  0
  145.3339  136.4147  150.4206 H   0  0  0  0  0  0  0  0  0  0  0  0
  144.2098  133.1636  152.0933 H   0  0  0  0  0  0  0  0  0  0  0  0
  145.8500  132.6064  152.4180 H   0  0  0  0  0  0  0  0  0  0  0  0
  145.2619  132.6852  150.7631 H   0  0  0  0  0  0  0  0  0  0  0  0
  145.7119  137.4071  151.3053 H   0  0  0  0  0  0  0  0  0  0  0  0
  144.9644  137.9036  152.8143 H   0  0  0  0  0  0  0  0  0  0  0  0
  147.7292  138.7775  151.7892 H   0  0  0  0  0  0  0  0  0  0  0  0
  146.2947  139.7788  151.8987 H   0  0  0  0  0  0  0  0  0  0  0  0
  153.2818  141.3501  160.3915 H   0  0  0  0  0  0  0  0  0  0  0  0
  147.4368  136.3718  152.5342 H   0  0  0  0  0  0  0  0  0  0  0  0
  1  2  1  0  0  0  0
  1 24  1  0  0  0  0
  1 25  1  0  0  0  0
  1 26  1  0  0  0  0
  2 23  2  0  0  0  0
  2  3  1  0  0  0  0
  3  4  2  0  0  0  0
  3 27  1  0  0  0  0
  4  5  1  0  0  0  0
  4 28  1  0  0  0  0
  5  6  1  0  0  0  0
  5 21  1  0  0  0  0
  6  7  1  0  0  0  0
  6 29  1  0  0  0  0
  6 30  1  0  0  0  0
  7  8  2  0  0  0  0
  7  9  1  0  0  0  0
  9 10  1  0  0  0  0
  9 31  1  0  0  0  0
 10 11  1  0  0  0  0
 10 32  1  0  0  0  0
 10 33  1  0  0  0  0
 11 20  1  0  0  0  0
 11 12  1  0  0  0  0
 11 34  1  0  0  0  0
 12 13  1  0  0  0  0
 12 35  1  0  0  0  0
 12 36  1  0  0  0  0
 13 14  1  0  0  0  0
 13 18  1  0  0  0  0
 13 51  1  0  0  0  0
 14 15  1  0  0  0  0
 14 37  1  0  0  0  0
 14 38  1  0  0  0  0
 15 16  1  0  0  0  0
 15 17  1  0  0  0  0
 15 39  1  0  0  0  0
 16 40  1  0  0  0  0
 16 41  1  0  0  0  0
 16 42  1  0  0  0  0
 17 43  1  0  0  0  0
 17 44  1  0  0  0  0
 17 45  1  0  0  0  0
 18 19  1  0  0  0  0
 18 46  1  0  0  0  0
 18 47  1  0  0  0  0
 19 20  1  0  0  0  0
 19 48  1  0  0  0  0
 19 49  1  0  0  0  0
 21 22  2  0  0  0  0
 21 23  1  0  0  0  0
 23 50  1  0  0  0  0
M  CHG  1  13   1
M  END
> <s_m_source_file>
AV-unprocessed.smi

> <i_m_source_file_index>
712

> <i_lp_mmshare_version>
43012

> <i_f3d_flags>
0

> <s_epik_input>
W0NIM11jMVtjSF1bY0hdbihjKD1PKVtjSF0xKVtDSDJdQyg9TylbTkhdW0NIMl1bQ0BASF0yW0NIMl1OKFtDSDJdW0NIMl1PMilbQ0gyXVtDSF0oW0NIM10pW0NIM10=

> <s_epik_cmdline>
J2VwaWtfcHl0aG9uJywgJy1waCcsICc3LjAnLCAnLXRuJywgJzgnLCAnLW1hJywgJzIwMCcsICctbWV0YWxfYmluZGluZycsICctaW1hZScsICc8aW5maWxlLm1hZT4nLCAnLW9tYWUnLCAnPG91dGZpbGUubWFlPic=

> <r_lp_tautomer_probability>
1

> <r_epik_Ionization_Penalty>
0.0975935

> <r_epik_Ionization_Penalty_Charging>
0.0975934

> <r_epik_Ionization_Penalty_Neutral>
6.27044e-08

> <r_epik_State_Penalty>
0.0877056

> <r_epik_Charging_Adjusted_Penalty>
0.185299

> <i_epik_Tot_Q>
1

> <i_epik_Tot_abs_Q>
1

> <r_epik_Metal_State_Penalty>
0.0877109

> <b_epik_Metal_Only>
0

> <s_lp_Force_Field>
OPLS_2005

> <r_lp_Energy>
25.8349

> <b_lp_Chiralities_Consistent>
1

> <s_lp_Variant>
AV-unprocessed.smi:712-4

> <Gold.Version>
5.8.1

> <Gold.Id.Protein>
6NUR|6NUR_protein|mol2

> <Gold.PLP.Fitness>
49.9516

> <Gold.PLP.PLP>
-39.1885

> <Gold.PLP.part.hbond>
-2.0000

> <Gold.PLP.part.metal>
0.0000

> <Gold.PLP.part.buried>
-5.2087

> <Gold.PLP.part.nonpolar>
-32.4840

> <Gold.PLP.part.repulsive>
0.3455

> <Gold.PLP.ligand.clash>
0.0000

> <Gold.PLP.ligand.torsion>
0.7516

> <Gold.PLP.Chemscore.Hbond>
3.0000

> <Gold.PLP.Chemscore.CHOScore>
1.0000

> <Gold.PLP.Chemscore.Metal>
0.0000

> <Gold.Chemscore.Hbonds>
donor molecule, donor type, donor heavy atom, donor atom, acceptor molecule, acceptor atom, score
      L1  H    13    51       P1  7948  2.00
      P1  H  7997  8009       L1    22  1.00
      L1  C     4    28       P1  8028  1.00

> <Gold.PLP.Chemscore.Internal.Correction>
0.2663

> <Gold.Rescore>
     Score         DG    S(hbond)    S(metal)    S(lipo)     H(rot)  DE(clash)    DE(int)     intcor
     16.66     -18.62       1.95        0.00      97.84       1.89       0.01       1.95       ----

> <Gold.Chemscore.Fitness>
16.6577

> <Gold.Chemscore.DG>
-18.6176

> <Gold.Chemscore.ZeroCoef>
-5.4800

> <Gold.Chemscore.Hbond>
1.9526

> <Gold.Chemscore.Metal>
0.0000

> <Gold.Chemscore.Lipo>
97.8363

> <Gold.Chemscore.Internal_Hbond>
0.0000

> <Gold.Chemscore.DEClash>
0.0099

> <Gold.Chemscore.DEInternal>
1.9500

> <Gold.Chemscore.Rot>
1.8871

> <Gold.Chemscore.Internal.Correction>
   9.000000E+99

> <Gold.Chemscore.Hbonds>
donor molecule, donor type, donor heavy atom, donor atom, acceptor molecule, acceptor atom, score
      L1  H    13    51       P1  7948  1.00
      P1  H  7997  8009       L1    22  0.89

> <Gold.Chemscore.Hbond.Weighted>
-6.5216

> <Gold.Chemscore.Metal.Weighted>
-0.0000

> <Gold.Chemscore.Lipo.Weighted>
-11.4469

> <Gold.Chemscore.Internal_Hbond.Weighted>
0.0000

> <Gold.Chemscore.DEClash.Weighted>
0.0099

> <Gold.Chemscore.DEInternal.Weighted>
1.9500

> <Gold.Chemscore.Rot.Weighted>
4.8309

> <Gold.Chemscore.Internal.Correction.Weighted>
   9.000000E+99

> <Gold.Protein.RotatedTorsions>
[ 6907 6896 6895 6894 ] final  -11.26 input  -60.11 | X-H torsion
[ 7974 7965 7964 7962 ] final  117.80 input  175.53 | X-H torsion
[ 8008 7997 7996 7995 ] final  155.34 input   59.86 | X-H torsion
[ 10167 10162 10161 10158 ] final  149.21 input  -65.29 | X-H torsion
[ 10718 10713 10712 10709 ] final    5.15 input   66.30 | X-H torsion
[ 10763 10752 10751 10750 ] final -126.11 input  -60.55 | X-H torsion
[ 11005 11000 10999 10996 ] final  -13.26 input  -57.11 | X-H torsion

> <Gold.Protein.ActiveResidues>
 VAL166  LYS551  ARG553  GLY616  TRP617  ASP618  TYR619  PRO620  LYS621  CYS622 
 ASP623  PHE694  ASN695  SER759  ASP760  ASP761  ALA762  ILE779  LEU786  VAL792 
 PHE793  MET794  SER795  GLU796  ALA797  LYS798  CYS799  TRP800  GLU811  SER814 

> <Gold.Protein.RotatedAtoms>
  151.3890  135.0953  159.9519 H   0  0  0  0  0  0  0  0  0  0  0  0  # atno 6907 bound_to 6896
  152.5085  133.8998  159.7446 H   0  0  0  0  0  0  0  0  0  0  0  0  # atno 6908 bound_to 6896
  150.9447  133.6560  159.2812 H   0  0  0  0  0  0  0  0  0  0  0  0  # atno 6909 bound_to 6896
  145.1629  139.3145  143.4508 H   0  0  0  0  0  0  0  0  0  0  0  0  # atno 7974 bound_to 7965
  156.2483  140.1942  156.6787 H   0  0  0  0  0  0  0  0  0  0  0  0  # atno 8008 bound_to 7997
  154.6338  140.0592  156.9790 H   0  0  0  0  0  0  0  0  0  0  0  0  # atno 8009 bound_to 7997
  155.1669  140.3265  155.4403 H   0  0  0  0  0  0  0  0  0  0  0  0  # atno 8010 bound_to 7997
  139.4864  144.5620  151.7214 H   0  0  0  0  0  0  0  0  0  0  0  0  # atno 10167 bound_to 10162
  156.9031  130.5729  149.5648 H   0  0  0  0  0  0  0  0  0  0  0  0  # atno 10718 bound_to 10713
  154.8742  135.4006  154.3378 H   0  0  0  0  0  0  0  0  0  0  0  0  # atno 10763 bound_to 10752
  153.4182  135.7022  153.6317 H   0  0  0  0  0  0  0  0  0  0  0  0  # atno 10764 bound_to 10752
  153.4991  135.3731  155.2501 H   0  0  0  0  0  0  0  0  0  0  0  0  # atno 10765 bound_to 10752
  140.7743  133.8413  155.9235 H   0  0  0  0  0  0  0  0  0  0  0  0  # atno 11005 bound_to 11000
  146.3480  140.1746  142.8589 LP  0  0  0  0  0  0  0  0  0  0  0  0  # atno 17320 bound_to 7965
  145.0312  140.8872  143.5108 LP  0  0  0  0  0  0  0  0  0  0  0  0  # atno 17321 bound_to 7965
  140.5191  144.0907  150.6017 LP  0  0  0  0  0  0  0  0  0  0  0  0  # atno 17342 bound_to 10162
  140.3859  143.2778  152.0117 LP  0  0  0  0  0  0  0  0  0  0  0  0  # atno 17343 bound_to 10162
  156.0572  130.5631  150.9117 LP  0  0  0  0  0  0  0  0  0  0  0  0  # atno 17370 bound_to 10713
  157.6014  131.0941  150.8954 LP  0  0  0  0  0  0  0  0  0  0  0  0  # atno 17371 bound_to 10713
  140.9544  134.1737  157.4703 LP  0  0  0  0  0  0  0  0  0  0  0  0  # atno 17394 bound_to 11000
  139.8751  134.9921  156.5581 LP  0  0  0  0  0  0  0  0  0  0  0  0  # atno 17395 bound_to 11000

$$$$
