AV-unprocessed.smi:1536|AV-procd|sdf|6189|dock8
  -GOLD-   22720 6353D 1   1.00000     0.00000
 Structure written by MMmdl.
 48 49  0  0  0  0  0  0  0  0  2 V2000
  144.4127  132.6533  151.5937 C   0  0  0  0  0  0  0  0  0  0  0  0
  145.8606  133.1216  151.3641 C   0  0  2  0  0  0  0  0  0  0  0  0
  146.6184  133.3799  152.6801 C   0  0  0  0  0  0  0  0  0  0  0  0
  146.1509  134.6699  153.3760 C   0  0  0  0  0  0  0  0  0  0  0  0
  146.2653  135.8338  152.4572 N   0  3  2  0  0  0  0  0  0  0  0  0
  146.1300  137.1845  153.0901 C   0  0  1  0  0  0  0  0  0  0  0  0
  146.3765  138.3727  152.1114 C   0  0  0  0  0  0  0  0  0  0  0  0
  146.9206  139.5736  152.7394 N   0  0  0  0  0  0  0  0  0  0  0  0
  147.8938  139.5866  153.6629 C   0  0  0  0  0  0  0  0  0  0  0  0
  148.4614  138.5653  154.0523 O   0  0  0  0  0  0  0  0  0  0  0  0
  148.2852  140.9685  154.1995 C   0  0  0  0  0  0  0  0  0  0  0  0
  149.3585  140.9079  155.1760 N   0  0  0  0  0  0  0  0  0  0  0  0
  149.4336  141.3651  156.4276 C   0  0  0  0  0  0  0  0  0  0  0  0
  150.6111  141.1034  156.9738 N   0  0  0  0  0  0  0  0  0  0  0  0
  151.2853  140.4376  155.9637 N   0  0  0  0  0  0  0  0  0  0  0  0
  150.5471  140.3187  154.8943 N   0  0  0  0  0  0  0  0  0  0  0  0
  144.7596  137.2892  153.8214 C   0  0  0  0  0  0  0  0  0  0  0  0
  143.5590  137.2411  152.8568 C   0  0  0  0  0  0  0  0  0  0  0  0
  144.6580  138.5685  154.6765 C   0  0  0  0  0  0  0  0  0  0  0  0
  145.4936  135.6462  151.2001 C   0  0  0  0  0  0  0  0  0  0  0  0
  145.9459  134.3711  150.4669 C   0  0  0  0  0  0  0  0  0  0  0  0
  143.8107  133.4056  152.1027 H   0  0  0  0  0  0  0  0  0  0  0  0
  144.3874  131.7467  152.1989 H   0  0  0  0  0  0  0  0  0  0  0  0
  143.9227  132.4256  150.6467 H   0  0  0  0  0  0  0  0  0  0  0  0
  146.3697  132.3081  150.8456 H   0  0  0  0  0  0  0  0  0  0  0  0
  146.5081  132.5293  153.3537 H   0  0  0  0  0  0  0  0  0  0  0  0
  147.6855  133.4601  152.4679 H   0  0  0  0  0  0  0  0  0  0  0  0
  145.1227  134.5537  153.7178 H   0  0  0  0  0  0  0  0  0  0  0  0
  146.7609  134.8362  154.2638 H   0  0  0  0  0  0  0  0  0  0  0  0
  146.8865  137.2514  153.8732 H   0  0  0  0  0  0  0  0  0  0  0  0
  147.0568  138.0720  151.3144 H   0  0  0  0  0  0  0  0  0  0  0  0
  145.4500  138.6588  151.6135 H   0  0  0  0  0  0  0  0  0  0  0  0
  146.5054  140.4558  152.4762 H   0  0  0  0  0  0  0  0  0  0  0  0
  148.6058  141.5991  153.3694 H   0  0  0  0  0  0  0  0  0  0  0  0
  147.4181  141.4488  154.6559 H   0  0  0  0  0  0  0  0  0  0  0  0
  148.6345  141.8876  156.9323 H   0  0  0  0  0  0  0  0  0  0  0  0
  144.6601  136.4388  154.4965 H   0  0  0  0  0  0  0  0  0  0  0  0
  143.6429  138.0011  152.0793 H   0  0  0  0  0  0  0  0  0  0  0  0
  142.6219  137.4152  153.3867 H   0  0  0  0  0  0  0  0  0  0  0  0
  143.4619  136.2701  152.3726 H   0  0  0  0  0  0  0  0  0  0  0  0
  144.7916  139.4636  154.0682 H   0  0  0  0  0  0  0  0  0  0  0  0
  145.4022  138.5901  155.4727 H   0  0  0  0  0  0  0  0  0  0  0  0
  143.6828  138.6419  155.1589 H   0  0  0  0  0  0  0  0  0  0  0  0
  144.4270  135.5905  151.4081 H   0  0  0  0  0  0  0  0  0  0  0  0
  145.6420  136.5026  150.5415 H   0  0  0  0  0  0  0  0  0  0  0  0
  146.9765  134.5019  150.1337 H   0  0  0  0  0  0  0  0  0  0  0  0
  145.3530  134.2286  149.5629 H   0  0  0  0  0  0  0  0  0  0  0  0
  147.2263  135.8198  152.1460 H   0  0  0  0  0  0  0  0  0  0  0  0
  1  2  1  0  0  0  0
  1 22  1  0  0  0  0
  1 23  1  0  0  0  0
  1 24  1  0  0  0  0
  2 21  1  0  0  0  0
  2  3  1  0  0  0  0
  2 25  1  0  0  0  0
  3  4  1  0  0  0  0
  3 26  1  0  0  0  0
  3 27  1  0  0  0  0
  4  5  1  0  0  0  0
  4 28  1  0  0  0  0
  4 29  1  0  0  0  0
  5  6  1  0  0  0  0
  5 20  1  0  0  0  0
  5 48  1  0  0  0  0
  6  7  1  0  0  0  0
  6 17  1  0  0  0  0
  6 30  1  0  0  0  0
  7  8  1  0  0  0  0
  7 31  1  0  0  0  0
  7 32  1  0  0  0  0
  8  9  1  0  0  0  0
  8 33  1  0  0  0  0
  9 10  2  0  0  0  0
  9 11  1  0  0  0  0
 11 12  1  0  0  0  0
 11 34  1  0  0  0  0
 11 35  1  0  0  0  0
 12 16  1  0  0  0  0
 12 13  1  0  0  0  0
 13 14  2  0  0  0  0
 13 36  1  0  0  0  0
 14 15  1  0  0  0  0
 15 16  2  0  0  0  0
 17 18  1  0  0  0  0
 17 19  1  0  0  0  0
 17 37  1  0  0  0  0
 18 38  1  0  0  0  0
 18 39  1  0  0  0  0
 18 40  1  0  0  0  0
 19 41  1  0  0  0  0
 19 42  1  0  0  0  0
 19 43  1  0  0  0  0
 20 21  1  0  0  0  0
 20 44  1  0  0  0  0
 20 45  1  0  0  0  0
 21 46  1  0  0  0  0
 21 47  1  0  0  0  0
M  CHG  1   5   1
M  END
> <s_m_source_file>
AV-unprocessed.smi

> <i_m_source_file_index>
1536

> <i_lp_mmshare_version>
43012

> <i_f3d_flags>
0

> <s_epik_input>
W0NIM11bQ0hdMVtDSDJdW0NIMl1OKFtDSDJdW0NIMl0xKVtDQEBIXShbQ0hdKFtDSDNdKVtDSDNdKVtDSDJdW05IXUMoPU8pW0NIMl1uMltjSF1ubm4y

> <s_epik_cmdline>
J2VwaWtfcHl0aG9uJywgJy1waCcsICc3LjAnLCAnLXRuJywgJzgnLCAnLW1hJywgJzIwMCcsICctbWV0YWxfYmluZGluZycsICctaW1hZScsICc8aW5maWxlLm1hZT4nLCAnLW9tYWUnLCAnPG91dGZpbGUubWFlPic=

> <r_lp_tautomer_probability>
1

> <r_epik_Ionization_Penalty>
0.00109671

> <r_epik_Ionization_Penalty_Charging>
0.00109273

> <r_epik_Ionization_Penalty_Neutral>
3.97951e-06

> <r_epik_State_Penalty>
0.000716588

> <r_epik_Charging_Adjusted_Penalty>
0.00180932

> <i_epik_Tot_Q>
1

> <i_epik_Tot_abs_Q>
1

> <r_epik_Metal_State_Penalty>
-0

> <b_epik_Metal_Only>
0

> <s_lp_Force_Field>
OPLS_2005

> <r_lp_Energy>
37.5817

> <b_lp_Chiralities_Consistent>
1

> <s_lp_Variant>
AV-unprocessed.smi:1536-4

> <Gold.Version>
5.8.1

> <Gold.Id.Protein>
6NUR|6NUR_protein|mol2

> <Gold.PLP.Fitness>
38.4467

> <Gold.PLP.PLP>
-30.1893

> <Gold.PLP.part.hbond>
-3.7041

> <Gold.PLP.part.metal>
0.0000

> <Gold.PLP.part.buried>
-1.3765

> <Gold.PLP.part.nonpolar>
-25.6914

> <Gold.PLP.part.repulsive>
0.4003

> <Gold.PLP.ligand.clash>
0.0000

> <Gold.PLP.ligand.torsion>
0.5848

> <Gold.PLP.Chemscore.Hbond>
3.0000

> <Gold.PLP.Chemscore.CHOScore>
0.0000

> <Gold.PLP.Chemscore.Metal>
0.0000

> <Gold.Chemscore.Hbonds>
donor molecule, donor type, donor heavy atom, donor atom, acceptor molecule, acceptor atom, score
      L1  H     5    48       P1  7948  2.00
      P1  H  7989  7998       L1    16  1.00

> <Gold.PLP.Chemscore.Internal.Correction>
0.4270

> <Gold.Rescore>
     Score         DG    S(hbond)    S(metal)    S(lipo)     H(rot)  DE(clash)    DE(int)     intcor
      8.22     -11.00       1.91        0.00      53.24       2.77       0.10       2.68       ----

> <Gold.Chemscore.Fitness>
8.2173

> <Gold.Chemscore.DG>
-10.9970

> <Gold.Chemscore.ZeroCoef>
-5.4800

> <Gold.Chemscore.Hbond>
1.9108

> <Gold.Chemscore.Metal>
0.0000

> <Gold.Chemscore.Lipo>
53.2355

> <Gold.Chemscore.Internal_Hbond>
0.0000

> <Gold.Chemscore.DEClash>
0.1024

> <Gold.Chemscore.DEInternal>
2.6773

> <Gold.Chemscore.Rot>
2.7709

> <Gold.Chemscore.Internal.Correction>
   9.000000E+99

> <Gold.Chemscore.Hbonds>
donor molecule, donor type, donor heavy atom, donor atom, acceptor molecule, acceptor atom, score
      L1  H     5    48       P1  7948  1.00
      P1  H  7989  7998       L1    16  0.49

> <Gold.Chemscore.Hbond.Weighted>
-6.3819

> <Gold.Chemscore.Metal.Weighted>
-0.0000

> <Gold.Chemscore.Lipo.Weighted>
-6.2286

> <Gold.Chemscore.Internal_Hbond.Weighted>
0.0000

> <Gold.Chemscore.DEClash.Weighted>
0.1024

> <Gold.Chemscore.DEInternal.Weighted>
2.6773

> <Gold.Chemscore.Rot.Weighted>
7.0935

> <Gold.Chemscore.Internal.Correction.Weighted>
   9.000000E+99

> <Gold.Protein.RotatedTorsions>
[ 6907 6896 6895 6894 ] final  118.10 input  -60.11 | X-H torsion
[ 7974 7965 7964 7962 ] final   25.17 input  175.53 | X-H torsion
[ 8008 7997 7996 7995 ] final -173.16 input   59.86 | X-H torsion
[ 10167 10162 10161 10158 ] final  -52.93 input  -65.29 | X-H torsion
[ 10718 10713 10712 10709 ] final   68.50 input   66.30 | X-H torsion
[ 10763 10752 10751 10750 ] final   75.17 input  -60.55 | X-H torsion
[ 11005 11000 10999 10996 ] final -173.33 input  -57.11 | X-H torsion

> <Gold.Protein.ActiveResidues>
 VAL166  LYS551  ARG553  GLY616  TRP617  ASP618  TYR619  PRO620  LYS621  CYS622 
 ASP623  PHE694  ASN695  SER759  ASP760  ASP761  ALA762  ILE779  LEU786  VAL792 
 PHE793  MET794  SER795  GLU796  ALA797  LYS798  CYS799  TRP800  GLU811  SER814 

> <Gold.Protein.RotatedAtoms>
  152.4567  133.7737  159.6812 H   0  0  0  0  0  0  0  0  0  0  0  0  # atno 6907 bound_to 6896
  150.8495  133.7799  159.3037 H   0  0  0  0  0  0  0  0  0  0  0  0  # atno 6908 bound_to 6896
  151.5399  135.1071  159.9975 H   0  0  0  0  0  0  0  0  0  0  0  0  # atno 6909 bound_to 6896
  146.1902  139.7503  142.8837 H   0  0  0  0  0  0  0  0  0  0  0  0  # atno 7974 bound_to 7965
  155.9539  140.1131  157.0953 H   0  0  0  0  0  0  0  0  0  0  0  0  # atno 8008 bound_to 7997
  154.4116  140.1195  156.5156 H   0  0  0  0  0  0  0  0  0  0  0  0  # atno 8009 bound_to 7997
  155.6807  140.3473  155.4856 H   0  0  0  0  0  0  0  0  0  0  0  0  # atno 8010 bound_to 7997
  140.6511  143.2567  151.4719 H   0  0  0  0  0  0  0  0  0  0  0  0  # atno 10167 bound_to 10162
  157.6293  130.9377  150.0386 H   0  0  0  0  0  0  0  0  0  0  0  0  # atno 10718 bound_to 10713
  153.0636  135.4998  154.8150 H   0  0  0  0  0  0  0  0  0  0  0  0  # atno 10763 bound_to 10752
  154.6920  135.2986  154.9468 H   0  0  0  0  0  0  0  0  0  0  0  0  # atno 10764 bound_to 10752
  154.0219  135.6741  153.4826 H   0  0  0  0  0  0  0  0  0  0  0  0  # atno 10765 bound_to 10752
  140.4870  134.6021  157.4940 H   0  0  0  0  0  0  0  0  0  0  0  0  # atno 11005 bound_to 11000
  145.3817  141.0359  143.3174 LP  0  0  0  0  0  0  0  0  0  0  0  0  # atno 17320 bound_to 7965
  144.8472  139.5379  143.6873 LP  0  0  0  0  0  0  0  0  0  0  0  0  # atno 17321 bound_to 7965
  139.5727  144.1891  152.1859 LP  0  0  0  0  0  0  0  0  0  0  0  0  # atno 17342 bound_to 10162
  140.1192  144.5388  150.6874 LP  0  0  0  0  0  0  0  0  0  0  0  0  # atno 17343 bound_to 10162
  156.1485  130.3642  149.9474 LP  0  0  0  0  0  0  0  0  0  0  0  0  # atno 17370 bound_to 10713
  156.7499  130.9111  151.3637 LP  0  0  0  0  0  0  0  0  0  0  0  0  # atno 17371 bound_to 10713
  139.9792  134.7165  155.9892 LP  0  0  0  0  0  0  0  0  0  0  0  0  # atno 17394 bound_to 11000
  141.1503  133.6549  156.3993 LP  0  0  0  0  0  0  0  0  0  0  0  0  # atno 17395 bound_to 11000

$$$$
