AV-unprocessed.smi:26|AV-procd|sdf|183|dock2
  -GOLD-   2262015443D 1   1.00000     0.00000
 Structure written by MMmdl.
 58 61  0  0  0  0  0  0  0  0  1 V2000
  151.6339  138.4342  154.5875 C   0  0  0  0  0  0  0  0  0  0  0  0
  151.6296  138.1714  156.0598 C   0  0  0  0  0  0  0  0  0  0  0  0
  152.6873  138.1172  156.9167 C   0  0  0  0  0  0  0  0  0  0  0  0
  152.1996  137.8455  158.2228 C   0  0  0  0  0  0  0  0  0  0  0  0
  152.9810  137.6842  159.4766 C   0  0  0  0  0  0  0  0  0  0  0  0
  152.7048  136.8547  160.3445 O   0  0  0  0  0  0  0  0  0  0  0  0
  154.1910  138.6244  159.6342 C   0  0  0  0  0  0  0  0  0  0  0  0
  153.8416  139.9211  160.2022 N   0  0  0  0  0  0  0  0  0  0  0  0
  154.2910  140.2102  161.5149 C   0  0  0  0  0  0  0  0  0  0  0  0
  154.9593  139.4091  162.1708 O   0  0  0  0  0  0  0  0  0  0  0  0
  153.9107  141.5289  162.0075 C   0  0  0  0  0  0  0  0  0  0  0  0
  154.2898  141.9140  163.2379 F   0  0  0  0  0  0  0  0  0  0  0  0
  153.1848  142.3750  161.2457 C   0  0  0  0  0  0  0  0  0  0  0  0
  152.7475  142.0647  159.9706 N   0  0  0  0  0  0  0  0  0  0  0  0
  151.9883  143.1119  159.1846 C   0  0  2  0  0  0  0  0  0  0  0  0
  152.8229  144.3532  158.8344 C   0  0  0  0  0  0  0  0  0  0  0  0
  151.7770  145.4436  158.9215 C   0  0  0  0  0  0  0  0  0  0  0  0
  150.8965  144.9484  160.0639 C   0  0  0  0  0  0  0  0  0  0  0  0
  150.8803  143.5297  159.9285 O   0  0  0  0  0  0  0  0  0  0  0  0
  153.0992  140.8196  159.3972 C   0  0  0  0  0  0  0  0  0  0  0  0
  152.7831  140.5348  158.2409 O   0  0  0  0  0  0  0  0  0  0  0  0
  150.8287  137.7497  158.1385 C   0  0  0  0  0  0  0  0  0  0  0  0
  149.8212  137.4908  159.2254 C   0  0  0  0  0  0  0  0  0  0  0  0
  150.4708  137.9258  156.7934 N   0  0  0  0  0  0  0  0  0  0  0  0
  149.1187  137.8873  156.2143 C   0  0  2  0  0  0  0  0  0  0  0  0
  148.8919  136.5944  155.4054 C   0  0  0  0  0  0  0  0  0  0  0  0
  148.7446  139.1999  155.5189 C   0  0  0  0  0  0  0  0  0  0  0  0
  148.9173  140.4165  156.2174 C   0  0  0  0  0  0  0  0  0  0  0  0
  148.5767  141.6440  155.6176 C   0  0  0  0  0  0  0  0  0  0  0  0
  148.0530  141.6676  154.3119 C   0  0  0  0  0  0  0  0  0  0  0  0
  147.8697  140.4622  153.6090 C   0  0  0  0  0  0  0  0  0  0  0  0
  148.2102  139.2341  154.2089 C   0  0  0  0  0  0  0  0  0  0  0  0
  152.6371  138.6838  154.2415 H   0  0  0  0  0  0  0  0  0  0  0  0
  150.9808  139.2697  154.3356 H   0  0  0  0  0  0  0  0  0  0  0  0
  151.3025  137.5557  154.0338 H   0  0  0  0  0  0  0  0  0  0  0  0
  153.7179  138.2587  156.6262 H   0  0  0  0  0  0  0  0  0  0  0  0
  154.9545  138.1727  160.2694 H   0  0  0  0  0  0  0  0  0  0  0  0
  154.6805  138.7965  158.6745 H   0  0  0  0  0  0  0  0  0  0  0  0
  152.9369  143.3403  161.6624 H   0  0  0  0  0  0  0  0  0  0  0  0
  151.6204  142.6091  158.2893 H   0  0  0  0  0  0  0  0  0  0  0  0
  153.6161  144.5245  159.5607 H   0  0  0  0  0  0  0  0  0  0  0  0
  153.2704  144.2569  157.8452 H   0  0  0  0  0  0  0  0  0  0  0  0
  152.2008  146.4310  159.1057 H   0  0  0  0  0  0  0  0  0  0  0  0
  151.2012  145.4845  157.9961 H   0  0  0  0  0  0  0  0  0  0  0  0
  151.3321  145.2161  161.0267 H   0  0  0  0  0  0  0  0  0  0  0  0
  149.8888  145.3621  160.0250 H   0  0  0  0  0  0  0  0  0  0  0  0
  149.8701  136.4522  159.5522 H   0  0  0  0  0  0  0  0  0  0  0  0
  148.7982  137.6936  158.9260 H   0  0  0  0  0  0  0  0  0  0  0  0
  150.0136  138.1250  160.0903 H   0  0  0  0  0  0  0  0  0  0  0  0
  148.4036  137.8380  157.0334 H   0  0  0  0  0  0  0  0  0  0  0  0
  147.8492  136.4993  155.1015 H   0  0  0  0  0  0  0  0  0  0  0  0
  149.1299  135.7182  156.0092 H   0  0  0  0  0  0  0  0  0  0  0  0
  149.5065  136.5433  154.5079 H   0  0  0  0  0  0  0  0  0  0  0  0
  149.3158  140.4105  157.2216 H   0  0  0  0  0  0  0  0  0  0  0  0
  148.7166  142.5671  156.1606 H   0  0  0  0  0  0  0  0  0  0  0  0
  147.7910  142.6084  153.8507 H   0  0  0  0  0  0  0  0  0  0  0  0
  147.4658  140.4786  152.6075 H   0  0  0  0  0  0  0  0  0  0  0  0
  148.0583  138.3271  153.6442 H   0  0  0  0  0  0  0  0  0  0  0  0
  1  2  1  0  0  0  0
  1 33  1  0  0  0  0
  1 34  1  0  0  0  0
  1 35  1  0  0  0  0
  2 24  1  0  0  0  0
  2  3  2  0  0  0  0
  3  4  1  0  0  0  0
  3 36  1  0  0  0  0
  4  5  1  0  0  0  0
  4 22  2  0  0  0  0
  5  6  2  0  0  0  0
  5  7  1  0  0  0  0
  7  8  1  0  0  0  0
  7 37  1  0  0  0  0
  7 38  1  0  0  0  0
  8 20  1  0  0  0  0
  8  9  1  0  0  0  0
  9 10  2  0  0  0  0
  9 11  1  0  0  0  0
 11 12  1  0  0  0  0
 11 13  2  0  0  0  0
 13 14  1  0  0  0  0
 13 39  1  0  0  0  0
 14 15  1  0  0  0  0
 14 20  1  0  0  0  0
 15 19  1  0  0  0  0
 15 16  1  0  0  0  0
 15 40  1  0  0  0  0
 16 17  1  0  0  0  0
 16 41  1  0  0  0  0
 16 42  1  0  0  0  0
 17 18  1  0  0  0  0
 17 43  1  0  0  0  0
 17 44  1  0  0  0  0
 18 19  1  0  0  0  0
 18 45  1  0  0  0  0
 18 46  1  0  0  0  0
 20 21  2  0  0  0  0
 22 23  1  0  0  0  0
 22 24  1  0  0  0  0
 23 47  1  0  0  0  0
 23 48  1  0  0  0  0
 23 49  1  0  0  0  0
 24 25  1  0  0  0  0
 25 26  1  0  0  0  0
 25 27  1  0  0  0  0
 25 50  1  0  0  0  0
 26 51  1  0  0  0  0
 26 52  1  0  0  0  0
 26 53  1  0  0  0  0
 27 32  1  0  0  0  0
 27 28  2  0  0  0  0
 28 29  1  0  0  0  0
 28 54  1  0  0  0  0
 29 30  2  0  0  0  0
 29 55  1  0  0  0  0
 30 31  1  0  0  0  0
 30 56  1  0  0  0  0
 31 32  2  0  0  0  0
 31 57  1  0  0  0  0
 32 58  1  0  0  0  0
M  END
> <s_m_source_file>
AV-unprocessed.smi

> <i_m_source_file_index>
26

> <i_lp_mmshare_version>
43012

> <i_f3d_flags>
0

> <s_epik_input>
W2NIXTFbY0hdW2NIXVtjSF1bY0hdYzFbQ0BASF0oW0NIM10pbjJjKFtDSDNdKWMoW2NIXWMyW0NIM10pQyg9TylbQ0gyXW4zYyg9TyljKEYpW2NIXW4oYzM9TylbQ0BASF00W0NIMl1bQ0gyXVtDSDJdTzQ=

> <s_epik_cmdline>
J2VwaWtfcHl0aG9uJywgJy1waCcsICc3LjAnLCAnLXRuJywgJzgnLCAnLW1hJywgJzIwMCcsICctbWV0YWxfYmluZGluZycsICctaW1hZScsICc8aW5maWxlLm1hZT4nLCAnLW9tYWUnLCAnPG91dGZpbGUubWFlPic=

> <r_lp_tautomer_probability>
1

> <r_epik_Ionization_Penalty>
5.02402e-09

> <r_epik_Ionization_Penalty_Charging>
5.01743e-09

> <r_epik_Ionization_Penalty_Neutral>
6.58831e-12

> <r_epik_State_Penalty>
-0

> <r_epik_Charging_Adjusted_Penalty>
5.01743e-09

> <i_epik_Tot_Q>
0

> <i_epik_Tot_abs_Q>
0

> <r_epik_Metal_State_Penalty>
-0

> <b_epik_Metal_Only>
0

> <s_epik_Chemistry_Notes>
This compound contains an acetal/aminal-like group ( X-CH(R)-Y where X, Y are N, S, or O) that may be acid/base labile, releasing an aldehyde.

> <s_lp_Force_Field>
OPLS_2005

> <r_lp_Energy>
45.9461

> <b_lp_Chiralities_Consistent>
1

> <s_lp_Variant>
AV-unprocessed.smi:26-1

> <Gold.Version>
5.8.1

> <Gold.Id.Protein>
6NUR|6NUR_protein|mol2

> <Gold.PLP.Fitness>
58.4548

> <Gold.PLP.PLP>
-55.6757

> <Gold.PLP.part.hbond>
-2.7741

> <Gold.PLP.part.metal>
0.0000

> <Gold.PLP.part.buried>
-2.2969

> <Gold.PLP.part.nonpolar>
-50.1841

> <Gold.PLP.part.repulsive>
0.0630

> <Gold.PLP.ligand.clash>
0.0000

> <Gold.PLP.ligand.torsion>
1.3779

> <Gold.PLP.Chemscore.Hbond>
1.6895

> <Gold.PLP.Chemscore.CHOScore>
0.0000

> <Gold.PLP.Chemscore.Metal>
0.0000

> <Gold.Chemscore.Hbonds>
donor molecule, donor type, donor heavy atom, donor atom, acceptor molecule, acceptor atom, score
      P1  H  6896  6907       L1     6  1.00
      P1  H  7997  8009       L1    21  0.44

> <Gold.PLP.Chemscore.Internal.Correction>
0.4663

> <Gold.Rescore>
     Score         DG    S(hbond)    S(metal)    S(lipo)     H(rot)  DE(clash)    DE(int)     intcor
     17.10     -21.70       1.75        0.00     128.82       1.84       0.54       4.07       ----

> <Gold.Chemscore.Fitness>
17.0982

> <Gold.Chemscore.DG>
-21.7003

> <Gold.Chemscore.ZeroCoef>
-5.4800

> <Gold.Chemscore.Hbond>
1.7512

> <Gold.Chemscore.Metal>
0.0000

> <Gold.Chemscore.Lipo>
128.8152

> <Gold.Chemscore.Internal_Hbond>
0.0000

> <Gold.Chemscore.DEClash>
0.5356

> <Gold.Chemscore.DEInternal>
4.0666

> <Gold.Chemscore.Rot>
1.8359

> <Gold.Chemscore.Internal.Correction>
   9.000000E+99

> <Gold.Chemscore.Hbonds>
donor molecule, donor type, donor heavy atom, donor atom, acceptor molecule, acceptor atom, score
      P1  H  6896  6907       L1     6  0.99
      P1  H  7997  8009       L1    21  0.39

> <Gold.Chemscore.Hbond.Weighted>
-5.8490

> <Gold.Chemscore.Metal.Weighted>
-0.0000

> <Gold.Chemscore.Lipo.Weighted>
-15.0714

> <Gold.Chemscore.Internal_Hbond.Weighted>
0.0000

> <Gold.Chemscore.DEClash.Weighted>
0.5356

> <Gold.Chemscore.DEInternal.Weighted>
4.0666

> <Gold.Chemscore.Rot.Weighted>
4.7000

> <Gold.Chemscore.Internal.Correction.Weighted>
   9.000000E+99

> <Gold.Protein.RotatedTorsions>
[ 6907 6896 6895 6894 ] final   20.32 input  -60.11 | X-H torsion
[ 7974 7965 7964 7962 ] final -164.86 input  175.53 | X-H torsion
[ 8008 7997 7996 7995 ] final  163.85 input   59.86 | X-H torsion
[ 10167 10162 10161 10158 ] final -129.86 input  -65.29 | X-H torsion
[ 10718 10713 10712 10709 ] final  107.15 input   66.30 | X-H torsion
[ 10763 10752 10751 10750 ] final -166.13 input  -60.55 | X-H torsion
[ 11005 11000 10999 10996 ] final   -9.12 input  -57.11 | X-H torsion

> <Gold.Protein.ActiveResidues>
 VAL166  LYS551  ARG553  GLY616  TRP617  ASP618  TYR619  PRO620  LYS621  CYS622 
 ASP623  PHE694  ASN695  SER759  ASP760  ASP761  ALA762  ILE779  LEU786  VAL792 
 PHE793  MET794  SER795  GLU796  ALA797  LYS798  CYS799  TRP800  GLU811  SER814 

> <Gold.Protein.RotatedAtoms>
  151.8945  135.0403  160.0500 H   0  0  0  0  0  0  0  0  0  0  0  0  # atno 6907 bound_to 6896
  152.2409  133.5130  159.5278 H   0  0  0  0  0  0  0  0  0  0  0  0  # atno 6908 bound_to 6896
  150.7053  134.1007  159.4007 H   0  0  0  0  0  0  0  0  0  0  0  0  # atno 6909 bound_to 6896
  144.7285  140.2899  143.6222 H   0  0  0  0  0  0  0  0  0  0  0  0  # atno 7974 bound_to 7965
  156.1925  140.1712  156.8063 H   0  0  0  0  0  0  0  0  0  0  0  0  # atno 8008 bound_to 7997
  154.5489  140.0721  156.8666 H   0  0  0  0  0  0  0  0  0  0  0  0  # atno 8009 bound_to 7997
  155.3068  140.3365  155.4248 H   0  0  0  0  0  0  0  0  0  0  0  0  # atno 8010 bound_to 7997
  139.9354  143.6224  152.2518 H   0  0  0  0  0  0  0  0  0  0  0  0  # atno 10167 bound_to 10162
  157.6640  131.0866  150.6113 H   0  0  0  0  0  0  0  0  0  0  0  0  # atno 10718 bound_to 10713
  154.6864  135.2963  154.9542 H   0  0  0  0  0  0  0  0  0  0  0  0  # atno 10763 bound_to 10752
  154.0520  135.6643  153.4805 H   0  0  0  0  0  0  0  0  0  0  0  0  # atno 10764 bound_to 10752
  153.0581  135.5132  154.7933 H   0  0  0  0  0  0  0  0  0  0  0  0  # atno 10765 bound_to 10752
  140.7308  133.8751  155.8891 H   0  0  0  0  0  0  0  0  0  0  0  0  # atno 11005 bound_to 11000
  145.7865  139.1911  143.2127 LP  0  0  0  0  0  0  0  0  0  0  0  0  # atno 17320 bound_to 7965
  146.0791  140.7784  142.9650 LP  0  0  0  0  0  0  0  0  0  0  0  0  # atno 17321 bound_to 7965
  139.6748  144.7659  151.1716 LP  0  0  0  0  0  0  0  0  0  0  0  0  # atno 17342 bound_to 10162
  140.7626  143.5811  150.8893 LP  0  0  0  0  0  0  0  0  0  0  0  0  # atno 17343 bound_to 10162
  156.6415  130.4459  149.5751 LP  0  0  0  0  0  0  0  0  0  0  0  0  # atno 17370 bound_to 10713
  156.2206  130.6734  151.1364 LP  0  0  0  0  0  0  0  0  0  0  0  0  # atno 17371 bound_to 10713
  140.9923  134.1262  157.4397 LP  0  0  0  0  0  0  0  0  0  0  0  0  # atno 17394 bound_to 11000
  139.8827  135.0044  156.6246 LP  0  0  0  0  0  0  0  0  0  0  0  0  # atno 17395 bound_to 11000

$$$$
