AV-unprocessed.smi:1701|AV-procd|sdf|6841|dock5
  -GOLD-   22720 8 23D 1   1.00000     0.00000
 Structure written by MMmdl.
 54 56  0  0  0  0  0  0  0  0  4 V2000
  151.8987  142.8241  160.5064 C   0  0  0  0  0  0  0  0  0  0  0  0
  152.3434  142.2094  159.1730 C   0  0  0  0  0  0  0  0  0  0  0  0
  151.5222  142.6669  158.0552 N   0  0  0  0  0  0  0  0  0  0  0  0
  151.5027  144.0916  157.7263 C   0  0  0  0  0  0  0  0  0  0  0  0
  152.6291  144.8638  158.4258 C   0  0  0  0  0  0  0  0  0  0  0  0
  150.7920  141.7401  157.2751 C   0  0  0  0  0  0  0  0  0  0  0  0
  150.8732  140.3366  157.4537 C   0  0  0  0  0  0  0  0  0  0  0  0
  150.1141  139.4776  156.6332 C   0  0  0  0  0  0  0  0  0  0  0  0
  149.2852  140.0181  155.6298 C   0  0  0  0  0  0  0  0  0  0  0  0
  148.5223  139.1152  154.8416 N   0  0  0  0  0  0  0  0  0  0  0  0
  147.5115  139.3740  153.9763 C   0  0  0  0  0  0  0  0  0  0  0  0
  147.2049  140.5428  153.7488 O   0  0  0  0  0  0  0  0  0  0  0  0
  146.8700  138.3412  153.3508 N   0  5  0  0  0  0  0  0  0  0  0  0
  145.6420  137.6264  153.7476 C   0  0  2  0  0  0  0  0  0  0  0  0
  145.8478  136.9891  155.1355 C   0  0  0  0  0  0  0  0  0  0  0  0
  146.3898  135.5672  154.8752 C   0  0  0  0  0  0  0  0  0  0  0  0
  146.4025  135.4072  153.4071 N   0  3  1  0  0  0  0  0  0  0  0  0
  146.2091  134.0400  152.8747 C   0  0  0  0  0  0  0  0  0  0  0  0
  146.3201  134.0648  151.3367 C   0  0  0  0  0  0  0  0  0  0  0  0
  145.3627  135.0978  150.7080 C   0  0  0  0  0  0  0  0  0  0  0  0
  145.5592  136.4906  151.3372 C   0  0  0  0  0  0  0  0  0  0  0  0
  145.4336  136.3785  152.8732 C   0  0  2  0  0  0  0  0  0  0  0  0
  149.2231  141.4250  155.4994 C   0  0  0  0  0  0  0  0  0  0  0  0
  149.9659  142.2105  156.3085 N   0  3  0  0  0  0  0  0  0  0  0  0
  152.5347  142.4783  161.3213 H   0  0  0  0  0  0  0  0  0  0  0  0
  150.8717  142.5511  160.7492 H   0  0  0  0  0  0  0  0  0  0  0  0
  151.9582  143.9126  160.4794 H   0  0  0  0  0  0  0  0  0  0  0  0
  153.3787  142.4928  158.9803 H   0  0  0  0  0  0  0  0  0  0  0  0
  152.3489  141.1213  159.2309 H   0  0  0  0  0  0  0  0  0  0  0  0
  151.5507  144.2420  156.6474 H   0  0  0  0  0  0  0  0  0  0  0  0
  150.5422  144.5046  158.0363 H   0  0  0  0  0  0  0  0  0  0  0  0
  152.5825  145.9238  158.1761 H   0  0  0  0  0  0  0  0  0  0  0  0
  153.6101  144.4952  158.1243 H   0  0  0  0  0  0  0  0  0  0  0  0
  152.5566  144.7760  159.5103 H   0  0  0  0  0  0  0  0  0  0  0  0
  151.4990  139.8977  158.2156 H   0  0  0  0  0  0  0  0  0  0  0  0
  150.1738  138.4080  156.7743 H   0  0  0  0  0  0  0  0  0  0  0  0
  148.7989  138.1463  154.9039 H   0  0  0  0  0  0  0  0  0  0  0  0
  144.7544  138.2599  153.7313 H   0  0  0  0  0  0  0  0  0  0  0  0
  146.5082  137.5724  155.7791 H   0  0  0  0  0  0  0  0  0  0  0  0
  144.8880  136.9185  155.6488 H   0  0  0  0  0  0  0  0  0  0  0  0
  147.3966  135.4317  155.2723 H   0  0  0  0  0  0  0  0  0  0  0  0
  145.7412  134.8236  155.3415 H   0  0  0  0  0  0  0  0  0  0  0  0
  146.9630  133.3747  153.2966 H   0  0  0  0  0  0  0  0  0  0  0  0
  145.2334  133.6587  153.1798 H   0  0  0  0  0  0  0  0  0  0  0  0
  147.3454  134.3075  151.0537 H   0  0  0  0  0  0  0  0  0  0  0  0
  146.1161  133.0730  150.9321 H   0  0  0  0  0  0  0  0  0  0  0  0
  145.5202  135.1480  149.6304 H   0  0  0  0  0  0  0  0  0  0  0  0
  144.3315  134.7743  150.8555 H   0  0  0  0  0  0  0  0  0  0  0  0
  146.5397  136.8733  151.0473 H   0  0  0  0  0  0  0  0  0  0  0  0
  144.8199  137.1855  150.9359 H   0  0  0  0  0  0  0  0  0  0  0  0
  144.4332  135.9990  153.0944 H   0  0  0  0  0  0  0  0  0  0  0  0
  148.6031  141.9558  154.7926 H   0  0  0  0  0  0  0  0  0  0  0  0
  147.3068  135.7348  153.0971 H   0  0  0  0  0  0  0  0  0  0  0  0
  149.8996  143.2205  156.1829 H   0  0  0  0  0  0  0  0  0  0  0  0
  1  2  1  0  0  0  0
  1 25  1  0  0  0  0
  1 26  1  0  0  0  0
  1 27  1  0  0  0  0
  2  3  1  0  0  0  0
  2 28  1  0  0  0  0
  2 29  1  0  0  0  0
  3  4  1  0  0  0  0
  3  6  1  0  0  0  0
  4  5  1  0  0  0  0
  4 30  1  0  0  0  0
  4 31  1  0  0  0  0
  5 32  1  0  0  0  0
  5 33  1  0  0  0  0
  5 34  1  0  0  0  0
  6 24  1  0  0  0  0
  6  7  2  0  0  0  0
  7  8  1  0  0  0  0
  7 35  1  0  0  0  0
  8  9  2  0  0  0  0
  8 36  1  0  0  0  0
  9 10  1  0  0  0  0
  9 23  1  0  0  0  0
 10 11  1  0  0  0  0
 10 37  1  0  0  0  0
 11 12  2  0  0  0  0
 11 13  1  0  0  0  0
 13 14  1  0  0  0  0
 14 22  1  0  0  0  0
 14 15  1  0  0  0  0
 14 38  1  0  0  0  0
 15 16  1  0  0  0  0
 15 39  1  0  0  0  0
 15 40  1  0  0  0  0
 16 17  1  0  0  0  0
 16 41  1  0  0  0  0
 16 42  1  0  0  0  0
 17 22  1  0  0  0  0
 17 18  1  0  0  0  0
 17 53  1  0  0  0  0
 18 19  1  0  0  0  0
 18 43  1  0  0  0  0
 18 44  1  0  0  0  0
 19 20  1  0  0  0  0
 19 45  1  0  0  0  0
 19 46  1  0  0  0  0
 20 21  1  0  0  0  0
 20 47  1  0  0  0  0
 20 48  1  0  0  0  0
 21 22  1  0  0  0  0
 21 49  1  0  0  0  0
 21 50  1  0  0  0  0
 22 51  1  0  0  0  0
 23 24  2  0  0  0  0
 23 52  1  0  0  0  0
 24 54  1  0  0  0  0
M  CHG  1  13  -1
M  CHG  1  17   1
M  CHG  1  24   1
M  END
> <s_m_source_file>
AV-unprocessed.smi

> <i_m_source_file_index>
1701

> <i_lp_mmshare_version>
43012

> <i_f3d_flags>
0

> <s_epik_input>
W0NIM11bQ0gyXU4oW0NIMl1bQ0gzXSljMVtjSF1bY0hdYyhbY0hdbjEpW05IXUMoPU8pW05IXVtDQEhdKFtDSDJdW0NIMl0yKVtDQEBIXShOMjMpW0NIMl1bQ0gyXVtDSDJdW0NIMl0z

> <s_epik_cmdline>
J2VwaWtfcHl0aG9uJywgJy1waCcsICc3LjAnLCAnLXRuJywgJzgnLCAnLW1hJywgJzIwMCcsICctbWV0YWxfYmluZGluZycsICctaW1hZScsICc8aW5maWxlLm1hZT4nLCAnLW9tYWUnLCAnPG91dGZpbGUubWFlPic=

> <r_lp_tautomer_probability>
0.999994

> <r_epik_Ionization_Penalty>
7.37095

> <r_epik_Ionization_Penalty_Charging>
7.37095

> <r_epik_Ionization_Penalty_Neutral>
3.78969e-06

> <r_epik_State_Penalty>
6.83842

> <r_epik_Charging_Adjusted_Penalty>
14.2094

> <i_epik_Tot_Q>
1

> <i_epik_Tot_abs_Q>
3

> <r_epik_Metal_State_Penalty>
2.78552

> <b_epik_Metal_Only>
1

> <s_lp_Force_Field>
OPLS_2005

> <r_lp_Energy>
49.8096

> <b_lp_Chiralities_Consistent>
1

> <s_lp_Variant>
AV-unprocessed.smi:1701-21

> <Gold.Version>
5.8.1

> <Gold.Id.Protein>
6NUR|6NUR_protein|mol2

> <Gold.PLP.Fitness>
48.2809

> <Gold.PLP.PLP>
-38.2079

> <Gold.PLP.part.hbond>
-2.0000

> <Gold.PLP.part.metal>
0.0000

> <Gold.PLP.part.buried>
-5.9913

> <Gold.PLP.part.nonpolar>
-30.6130

> <Gold.PLP.part.repulsive>
0.4538

> <Gold.PLP.ligand.clash>
0.0000

> <Gold.PLP.ligand.torsion>
1.0122

> <Gold.PLP.Chemscore.Hbond>
4.0000

> <Gold.PLP.Chemscore.CHOScore>
0.0000

> <Gold.PLP.Chemscore.Metal>
0.0000

> <Gold.Chemscore.Hbonds>
donor molecule, donor type, donor heavy atom, donor atom, acceptor molecule, acceptor atom, score
      L1  H    17    53       P1  7948  1.62
      L1  H    24    54       P1  8028  1.98

> <Gold.PLP.Chemscore.Internal.Correction>
0.0974

> <Gold.Rescore>
     Score         DG    S(hbond)    S(metal)    S(lipo)     H(rot)  DE(clash)    DE(int)     intcor
     17.74     -20.49       1.89        0.00     102.38       1.28       0.40       2.36       ----

> <Gold.Chemscore.Fitness>
17.7356

> <Gold.Chemscore.DG>
-20.4948

> <Gold.Chemscore.ZeroCoef>
-5.4800

> <Gold.Chemscore.Hbond>
1.8929

> <Gold.Chemscore.Metal>
0.0000

> <Gold.Chemscore.Lipo>
102.3846

> <Gold.Chemscore.Internal_Hbond>
0.0000

> <Gold.Chemscore.DEClash>
0.4001

> <Gold.Chemscore.DEInternal>
2.3590

> <Gold.Chemscore.Rot>
1.2838

> <Gold.Chemscore.Internal.Correction>
   9.000000E+99

> <Gold.Chemscore.Hbonds>
donor molecule, donor type, donor heavy atom, donor atom, acceptor molecule, acceptor atom, score
      L1  H    17    53       P1  7948  0.78
      L1  H    24    54       P1  8028  0.94

> <Gold.Chemscore.Hbond.Weighted>
-6.3223

> <Gold.Chemscore.Metal.Weighted>
-0.0000

> <Gold.Chemscore.Lipo.Weighted>
-11.9790

> <Gold.Chemscore.Internal_Hbond.Weighted>
0.0000

> <Gold.Chemscore.DEClash.Weighted>
0.4001

> <Gold.Chemscore.DEInternal.Weighted>
2.3590

> <Gold.Chemscore.Rot.Weighted>
3.2865

> <Gold.Chemscore.Internal.Correction.Weighted>
   9.000000E+99

> <Gold.Protein.RotatedTorsions>
[ 6907 6896 6895 6894 ] final  -47.65 input  -60.11 | X-H torsion
[ 7974 7965 7964 7962 ] final -134.32 input  175.53 | X-H torsion
[ 8008 7997 7996 7995 ] final   -6.96 input   59.86 | X-H torsion
[ 10167 10162 10161 10158 ] final   87.90 input  -65.29 | X-H torsion
[ 10718 10713 10712 10709 ] final  165.40 input   66.30 | X-H torsion
[ 10763 10752 10751 10750 ] final -132.33 input  -60.55 | X-H torsion
[ 11005 11000 10999 10996 ] final  136.94 input  -57.11 | X-H torsion

> <Gold.Protein.ActiveResidues>
 VAL166  LYS551  ARG553  GLY616  TRP617  ASP618  TYR619  PRO620  LYS621  CYS622 
 ASP623  PHE694  ASN695  SER759  ASP760  ASP761  ALA762  ILE779  LEU786  VAL792 
 PHE793  MET794  SER795  GLU796  ALA797  LYS798  CYS799  TRP800  GLU811  SER814 

> <Gold.Protein.RotatedAtoms>
  150.8986  134.8396  159.7343 H   0  0  0  0  0  0  0  0  0  0  0  0  # atno 6907 bound_to 6896
  152.4879  134.4537  159.9593 H   0  0  0  0  0  0  0  0  0  0  0  0  # atno 6908 bound_to 6896
  151.4592  133.3558  159.2842 H   0  0  0  0  0  0  0  0  0  0  0  0  # atno 6909 bound_to 6896
  144.9113  140.6899  143.5023 H   0  0  0  0  0  0  0  0  0  0  0  0  # atno 7974 bound_to 7965
  154.5886  140.2419  155.7953 H   0  0  0  0  0  0  0  0  0  0  0  0  # atno 8008 bound_to 7997
  156.2231  140.2991  155.9955 H   0  0  0  0  0  0  0  0  0  0  0  0  # atno 8009 bound_to 7997
  155.2414  140.0407  157.2966 H   0  0  0  0  0  0  0  0  0  0  0  0  # atno 8010 bound_to 7997
  139.8727  144.6484  150.8932 H   0  0  0  0  0  0  0  0  0  0  0  0  # atno 10167 bound_to 10162
  157.0807  131.0391  151.2576 H   0  0  0  0  0  0  0  0  0  0  0  0  # atno 10718 bound_to 10713
  154.8744  135.3801  154.4392 H   0  0  0  0  0  0  0  0  0  0  0  0  # atno 10763 bound_to 10752
  153.5078  135.7030  153.5802 H   0  0  0  0  0  0  0  0  0  0  0  0  # atno 10764 bound_to 10752
  153.4105  135.3926  155.2013 H   0  0  0  0  0  0  0  0  0  0  0  0  # atno 10765 bound_to 10752
  140.0080  134.9451  157.0216 H   0  0  0  0  0  0  0  0  0  0  0  0  # atno 11005 bound_to 11000
  145.3449  139.1722  143.4466 LP  0  0  0  0  0  0  0  0  0  0  0  0  # atno 17320 bound_to 7965
  146.3160  140.3494  142.8655 LP  0  0  0  0  0  0  0  0  0  0  0  0  # atno 17321 bound_to 7965
  140.7758  143.3651  151.1755 LP  0  0  0  0  0  0  0  0  0  0  0  0  # atno 17342 bound_to 10162
  139.7269  143.9134  152.3006 LP  0  0  0  0  0  0  0  0  0  0  0  0  # atno 17343 bound_to 10162
  157.4802  130.7761  149.7407 LP  0  0  0  0  0  0  0  0  0  0  0  0  # atno 17370 bound_to 10713
  155.9924  130.3931  150.2942 LP  0  0  0  0  0  0  0  0  0  0  0  0  # atno 17371 bound_to 10713
  140.4606  134.1488  155.7191 LP  0  0  0  0  0  0  0  0  0  0  0  0  # atno 17394 bound_to 11000
  141.1690  133.8645  157.1627 LP  0  0  0  0  0  0  0  0  0  0  0  0  # atno 17395 bound_to 11000

$$$$
