AV-unprocessed.smi:1554|AV-procd|sdf|6245|dock4
  -GOLD-   22720 6423D 1   1.00000     0.00000
 Structure written by MMmdl.
 48 50  0  0  0  0  0  0  0  0  2 V2000
  151.8406  144.1172  158.7876 C   0  0  0  0  0  0  0  0  0  0  0  0
  151.5961  142.7660  158.1391 C   0  0  0  0  0  0  0  0  0  0  0  0
  150.9382  142.7128  156.8895 C   0  0  0  0  0  0  0  0  0  0  0  0
  150.6943  141.4769  156.2513 C   0  0  0  0  0  0  0  0  0  0  0  0
  150.0787  141.1945  155.0438 N   0  0  0  0  0  0  0  0  0  0  0  0
  150.1613  139.8680  155.0043 C   0  0  0  0  0  0  0  0  0  0  0  0
  150.7595  139.2558  156.0443 N   0  0  0  0  0  0  0  0  0  0  0  0
  150.9686  137.8287  156.2147 C   0  0  0  0  0  0  0  0  0  0  0  0
  150.4135  137.0064  155.0352 C   0  0  1  0  0  0  0  0  0  0  0  0
  151.4138  136.8669  154.0438 O   0  0  0  0  0  0  0  0  0  0  0  0
  149.9587  135.6014  155.4767 C   0  0  0  0  0  0  0  0  0  0  0  0
  149.0795  134.9500  154.4722 N   0  3  1  0  0  0  0  0  0  0  0  0
  149.4645  133.5455  154.1994 C   0  0  0  0  0  0  0  0  0  0  0  0
  148.5680  132.9491  153.1019 C   0  0  0  0  0  0  0  0  0  0  0  0
  147.2044  133.0478  153.4939 O   0  0  0  0  0  0  0  0  0  0  0  0
  146.7911  134.3977  153.6765 C   0  0  1  0  0  0  0  0  0  0  0  0
  145.2943  134.3999  154.0060 C   0  0  0  0  0  0  0  0  0  0  0  0
  147.6343  135.0350  154.7982 C   0  0  0  0  0  0  0  0  0  0  0  0
  151.1297  140.2859  156.9030 C   0  0  0  0  0  0  0  0  0  0  0  0
  151.7837  140.3259  158.1473 C   0  0  0  0  0  0  0  0  0  0  0  0
  152.0197  141.5690  158.7706 C   0  0  0  0  0  0  0  0  0  0  0  0
  152.7264  141.6012  160.1143 C   0  0  0  0  0  0  0  0  0  0  0  0
  151.4495  144.9303  158.1751 H   0  0  0  0  0  0  0  0  0  0  0  0
  152.9090  144.2869  158.9245 H   0  0  0  0  0  0  0  0  0  0  0  0
  151.3536  144.1675  159.7618 H   0  0  0  0  0  0  0  0  0  0  0  0
  150.6152  143.6242  156.4082 H   0  0  0  0  0  0  0  0  0  0  0  0
  149.7660  139.3077  154.1697 H   0  0  0  0  0  0  0  0  0  0  0  0
  152.0362  137.6459  156.3439 H   0  0  0  0  0  0  0  0  0  0  0  0
  150.4873  137.5233  157.1447 H   0  0  0  0  0  0  0  0  0  0  0  0
  149.5785  137.5533  154.5976 H   0  0  0  0  0  0  0  0  0  0  0  0
  151.0176  136.5188  153.2593 H   0  0  0  0  0  0  0  0  0  0  0  0
  150.8452  134.9872  155.6438 H   0  0  0  0  0  0  0  0  0  0  0  0
  149.4383  135.6492  156.4347 H   0  0  0  0  0  0  0  0  0  0  0  0
  150.5074  133.5005  153.8828 H   0  0  0  0  0  0  0  0  0  0  0  0
  149.3799  132.9571  155.1145 H   0  0  0  0  0  0  0  0  0  0  0  0
  148.7236  133.4602  152.1502 H   0  0  0  0  0  0  0  0  0  0  0  0
  148.8150  131.8993  152.9430 H   0  0  0  0  0  0  0  0  0  0  0  0
  146.9414  134.9478  152.7457 H   0  0  0  0  0  0  0  0  0  0  0  0
  144.9245  135.4157  154.1468 H   0  0  0  0  0  0  0  0  0  0  0  0
  145.0900  133.8393  154.9188 H   0  0  0  0  0  0  0  0  0  0  0  0
  144.7171  133.9457  153.2003 H   0  0  0  0  0  0  0  0  0  0  0  0
  147.4445  134.5273  155.7455 H   0  0  0  0  0  0  0  0  0  0  0  0
  147.3352  136.0745  154.9286 H   0  0  0  0  0  0  0  0  0  0  0  0
  152.1027  139.4078  158.6173 H   0  0  0  0  0  0  0  0  0  0  0  0
  153.0134  140.6000  160.4370 H   0  0  0  0  0  0  0  0  0  0  0  0
  152.0734  142.0252  160.8775 H   0  0  0  0  0  0  0  0  0  0  0  0
  153.6320  142.2055  160.0575 H   0  0  0  0  0  0  0  0  0  0  0  0
  149.2183  135.4535  153.6071 H   0  0  0  0  0  0  0  0  0  0  0  0
  1  2  1  0  0  0  0
  1 23  1  0  0  0  0
  1 24  1  0  0  0  0
  1 25  1  0  0  0  0
  2 21  1  0  0  0  0
  2  3  2  0  0  0  0
  3  4  1  0  0  0  0
  3 26  1  0  0  0  0
  4 19  2  0  0  0  0
  4  5  1  0  0  0  0
  5  6  2  0  0  0  0
  6  7  1  0  0  0  0
  6 27  1  0  0  0  0
  7  8  1  0  0  0  0
  7 19  1  0  0  0  0
  8  9  1  0  0  0  0
  8 28  1  0  0  0  0
  8 29  1  0  0  0  0
  9 10  1  0  0  0  0
  9 11  1  0  0  0  0
  9 30  1  0  0  0  0
 10 31  1  0  0  0  0
 11 12  1  0  0  0  0
 11 32  1  0  0  0  0
 11 33  1  0  0  0  0
 12 18  1  0  0  0  0
 12 13  1  0  0  0  0
 12 48  1  0  0  0  0
 13 14  1  0  0  0  0
 13 34  1  0  0  0  0
 13 35  1  0  0  0  0
 14 15  1  0  0  0  0
 14 36  1  0  0  0  0
 14 37  1  0  0  0  0
 15 16  1  0  0  0  0
 16 17  1  0  0  0  0
 16 18  1  0  0  0  0
 16 38  1  0  0  0  0
 17 39  1  0  0  0  0
 17 40  1  0  0  0  0
 17 41  1  0  0  0  0
 18 42  1  0  0  0  0
 18 43  1  0  0  0  0
 19 20  1  0  0  0  0
 20 21  2  0  0  0  0
 20 44  1  0  0  0  0
 21 22  1  0  0  0  0
 22 45  1  0  0  0  0
 22 46  1  0  0  0  0
 22 47  1  0  0  0  0
M  CHG  1  12   1
M  END
> <s_m_source_file>
AV-unprocessed.smi

> <i_m_source_file_index>
1554

> <i_lp_mmshare_version>
43012

> <i_f3d_flags>
0

> <s_epik_input>
W0NIM11jKFtjSF0xKWMoW0NIM10pW2NIXWMoYzEyKW4oW2NIXW4yKVtDSDJdW0NASF0oW09IXSlbQ0gyXU4zW0NIMl1bQ0gyXU9bQ0BASF0oW0NIM10pW0NIMl0z

> <s_epik_cmdline>
J2VwaWtfcHl0aG9uJywgJy1waCcsICc3LjAnLCAnLXRuJywgJzgnLCAnLW1hJywgJzIwMCcsICctbWV0YWxfYmluZGluZycsICctaW1hZScsICc8aW5maWxlLm1hZT4nLCAnLW9tYWUnLCAnPG91dGZpbGUubWFlPic=

> <r_epik_Ionization_Penalty>
0.695251

> <r_epik_Ionization_Penalty_Charging>
0.608065

> <r_epik_Ionization_Penalty_Neutral>
0.0871863

> <r_epik_State_Penalty>
0.731955

> <r_epik_Charging_Adjusted_Penalty>
1.34002

> <i_epik_Tot_Q>
1

> <i_epik_Tot_abs_Q>
1

> <r_epik_Metal_State_Penalty>
0.652186

> <b_epik_Metal_Only>
0

> <s_lp_Force_Field>
OPLS_2005

> <r_lp_Energy>
21.5252

> <b_lp_Chiralities_Consistent>
1

> <s_lp_Variant>
AV-unprocessed.smi:1554-6

> <Gold.Version>
5.8.1

> <Gold.Id.Protein>
6NUR|6NUR_protein|mol2

> <Gold.PLP.Fitness>
50.8455

> <Gold.PLP.PLP>
-41.0052

> <Gold.PLP.part.hbond>
-4.2326

> <Gold.PLP.part.metal>
0.0000

> <Gold.PLP.part.buried>
-3.7009

> <Gold.PLP.part.nonpolar>
-33.4112

> <Gold.PLP.part.repulsive>
0.2284

> <Gold.PLP.ligand.clash>
0.0000

> <Gold.PLP.ligand.torsion>
1.1009

> <Gold.PLP.Chemscore.Hbond>
4.0000

> <Gold.PLP.Chemscore.CHOScore>
0.0000

> <Gold.PLP.Chemscore.Metal>
0.0000

> <Gold.Chemscore.Hbonds>
donor molecule, donor type, donor heavy atom, donor atom, acceptor molecule, acceptor atom, score
      L1  H    10    31       P1  7949  0.99
      L1  H    12    48       P1  7948  2.00
      P1  H 10752 10763       L1    10  0.95

> <Gold.PLP.Chemscore.Internal.Correction>
0.0422

> <Gold.Rescore>
     Score         DG    S(hbond)    S(metal)    S(lipo)     H(rot)  DE(clash)    DE(int)     intcor
     16.88     -18.13       1.85        0.00     100.39       2.05       0.03       1.23       ----

> <Gold.Chemscore.Fitness>
16.8755

> <Gold.Chemscore.DG>
-18.1347

> <Gold.Chemscore.ZeroCoef>
-5.4800

> <Gold.Chemscore.Hbond>
1.8468

> <Gold.Chemscore.Metal>
0.0000

> <Gold.Chemscore.Lipo>
100.3932

> <Gold.Chemscore.Internal_Hbond>
0.0000

> <Gold.Chemscore.DEClash>
0.0315

> <Gold.Chemscore.DEInternal>
1.2278

> <Gold.Chemscore.Rot>
2.0546

> <Gold.Chemscore.Internal.Correction>
   9.000000E+99

> <Gold.Chemscore.Hbonds>
donor molecule, donor type, donor heavy atom, donor atom, acceptor molecule, acceptor atom, score
      L1  H    10    31       P1  7949  0.24
      L1  H    12    48       P1  7948  0.45
      P1  H 10752 10763       L1    10  0.21

> <Gold.Chemscore.Hbond.Weighted>
-6.1684

> <Gold.Chemscore.Metal.Weighted>
-0.0000

> <Gold.Chemscore.Lipo.Weighted>
-11.7460

> <Gold.Chemscore.Internal_Hbond.Weighted>
0.0000

> <Gold.Chemscore.DEClash.Weighted>
0.0315

> <Gold.Chemscore.DEInternal.Weighted>
1.2278

> <Gold.Chemscore.Rot.Weighted>
5.2597

> <Gold.Chemscore.Internal.Correction.Weighted>
   9.000000E+99

> <Gold.Protein.RotatedTorsions>
[ 6907 6896 6895 6894 ] final  136.79 input  -60.11 | X-H torsion
[ 7974 7965 7964 7962 ] final  103.89 input  175.53 | X-H torsion
[ 8008 7997 7996 7995 ] final   26.63 input   59.86 | X-H torsion
[ 10167 10162 10161 10158 ] final   92.04 input  -65.29 | X-H torsion
[ 10718 10713 10712 10709 ] final  -34.69 input   66.30 | X-H torsion
[ 10763 10752 10751 10750 ] final   34.79 input  -60.55 | X-H torsion
[ 11005 11000 10999 10996 ] final  125.92 input  -57.11 | X-H torsion

> <Gold.Protein.ActiveResidues>
 VAL166  LYS551  ARG553  GLY616  TRP617  ASP618  TYR619  PRO620  LYS621  CYS622 
 ASP623  PHE694  ASN695  SER759  ASP760  ASP761  ALA762  ILE779  LEU786  VAL792 
 PHE793  MET794  SER795  GLU796  ALA797  LYS798  CYS799  TRP800  GLU811  SER814 

> <Gold.Protein.RotatedAtoms>
  152.2854  133.5510  159.5523 H   0  0  0  0  0  0  0  0  0  0  0  0  # atno 6907 bound_to 6896
  150.7213  134.0504  159.3805 H   0  0  0  0  0  0  0  0  0  0  0  0  # atno 6908 bound_to 6896
  151.8413  135.0589  160.0499 H   0  0  0  0  0  0  0  0  0  0  0  0  # atno 6909 bound_to 6896
  145.3399  139.2465  143.3615 H   0  0  0  0  0  0  0  0  0  0  0  0  # atno 7974 bound_to 7965
  155.0302  140.3157  155.4761 H   0  0  0  0  0  0  0  0  0  0  0  0  # atno 8008 bound_to 7997
  156.2875  140.2181  156.5366 H   0  0  0  0  0  0  0  0  0  0  0  0  # atno 8009 bound_to 7997
  154.7377  140.0476  157.0771 H   0  0  0  0  0  0  0  0  0  0  0  0  # atno 8010 bound_to 7997
  139.8316  144.6684  150.9393 H   0  0  0  0  0  0  0  0  0  0  0  0  # atno 10167 bound_to 10162
  156.3475  130.4303  149.7733 H   0  0  0  0  0  0  0  0  0  0  0  0  # atno 10718 bound_to 10713
  153.0148  135.6351  154.1725 H   0  0  0  0  0  0  0  0  0  0  0  0  # atno 10763 bound_to 10752
  154.1464  135.2831  155.3148 H   0  0  0  0  0  0  0  0  0  0  0  0  # atno 10764 bound_to 10752
  154.6086  135.5564  153.7510 H   0  0  0  0  0  0  0  0  0  0  0  0  # atno 10765 bound_to 10752
  139.9430  134.9633  156.8630 H   0  0  0  0  0  0  0  0  0  0  0  0  # atno 11005 bound_to 11000
  146.3011  140.3994  142.8703 LP  0  0  0  0  0  0  0  0  0  0  0  0  # atno 17320 bound_to 7965
  144.8798  140.7385  143.5994 LP  0  0  0  0  0  0  0  0  0  0  0  0  # atno 17321 bound_to 7965
  140.7806  143.3996  151.1172 LP  0  0  0  0  0  0  0  0  0  0  0  0  # atno 17342 bound_to 10162
  139.7649  143.8580  152.3108 LP  0  0  0  0  0  0  0  0  0  0  0  0  # atno 17343 bound_to 10162
  156.4946  130.8101  151.3108 LP  0  0  0  0  0  0  0  0  0  0  0  0  # atno 17370 bound_to 10713
  157.7456  130.9964  150.2779 LP  0  0  0  0  0  0  0  0  0  0  0  0  # atno 17371 bound_to 10713
  140.5904  134.0267  155.7497 LP  0  0  0  0  0  0  0  0  0  0  0  0  # atno 17394 bound_to 11000
  141.1071  133.9676  157.2977 LP  0  0  0  0  0  0  0  0  0  0  0  0  # atno 17395 bound_to 11000

$$$$
