AV-unprocessed.smi:1187|AV-procd|sdf|4976|dock5
  -GOLD-   22720 3573D 1   1.00000     0.00000
 Structure written by MMmdl.
 38 39  0  0  0  0  0  0  0  0  1 V2000
  146.4646  138.5820  152.4644 C   0  0  0  0  0  0  0  0  0  0  0  0
  147.5314  138.2815  153.3576 O   0  0  0  0  0  0  0  0  0  0  0  0
  148.1633  139.3275  153.9985 C   0  0  0  0  0  0  0  0  0  0  0  0
  149.2660  139.0436  154.8286 C   0  0  0  0  0  0  0  0  0  0  0  0
  149.9143  140.1052  155.4887 C   0  0  0  0  0  0  0  0  0  0  0  0
  149.4310  141.4224  155.3023 C   0  0  0  0  0  0  0  0  0  0  0  0
  150.0036  142.5788  155.8975 N   0  0  0  0  0  0  0  0  0  0  0  0
  151.0530  142.6600  156.7334 C   0  0  0  0  0  0  0  0  0  0  0  0
  151.7209  141.7078  157.1362 O   0  0  0  0  0  0  0  0  0  0  0  0
  151.2815  143.9298  157.0997 N   0  0  0  0  0  0  0  0  0  0  0  0
  152.3470  144.3689  157.9989 C   0  0  0  0  0  0  0  0  0  0  0  0
  151.9551  144.3116  159.4871 C   0  0  0  0  0  0  0  0  0  0  0  0
  151.1058  145.0871  159.9303 O   0  0  0  0  0  0  0  0  0  0  0  0
  152.5549  143.3878  160.2662 N   0  0  0  0  0  0  0  0  0  0  0  0
  153.5534  142.4153  159.8232 C   0  0  0  0  0  0  0  0  0  0  0  0
  153.7260  141.4403  160.9883 C   0  0  0  0  0  0  0  0  0  0  0  0
  153.3270  142.2495  162.2143 C   0  0  0  0  0  0  0  0  0  0  0  0
  152.2723  143.2249  161.6910 C   0  0  0  0  0  0  0  0  0  0  0  0
  148.3309  141.6016  154.4386 C   0  0  0  0  0  0  0  0  0  0  0  0
  147.7047  140.5886  153.8040 N   0  0  0  0  0  0  0  0  0  0  0  0
  146.0751  137.6558  152.0422 H   0  0  0  0  0  0  0  0  0  0  0  0
  146.8006  139.2070  151.6359 H   0  0  0  0  0  0  0  0  0  0  0  0
  145.6430  139.0815  152.9799 H   0  0  0  0  0  0  0  0  0  0  0  0
  149.6108  138.0279  154.9550 H   0  0  0  0  0  0  0  0  0  0  0  0
  150.7702  139.8887  156.1088 H   0  0  0  0  0  0  0  0  0  0  0  0
  149.5149  143.4432  155.7162 H   0  0  0  0  0  0  0  0  0  0  0  0
  150.6846  144.6495  156.7199 H   0  0  0  0  0  0  0  0  0  0  0  0
  153.2081  143.7198  157.8391 H   0  0  0  0  0  0  0  0  0  0  0  0
  152.6592  145.3797  157.7314 H   0  0  0  0  0  0  0  0  0  0  0  0
  153.2492  141.8901  158.9169 H   0  0  0  0  0  0  0  0  0  0  0  0
  154.4912  142.9347  159.6198 H   0  0  0  0  0  0  0  0  0  0  0  0
  153.0388  140.6018  160.8667 H   0  0  0  0  0  0  0  0  0  0  0  0
  154.7366  141.0368  161.0570 H   0  0  0  0  0  0  0  0  0  0  0  0
  152.9595  141.6271  163.0307 H   0  0  0  0  0  0  0  0  0  0  0  0
  154.1903  142.8066  162.5805 H   0  0  0  0  0  0  0  0  0  0  0  0
  152.3076  144.1737  162.2289 H   0  0  0  0  0  0  0  0  0  0  0  0
  151.2719  142.8050  161.8077 H   0  0  0  0  0  0  0  0  0  0  0  0
  147.9343  142.5894  154.2532 H   0  0  0  0  0  0  0  0  0  0  0  0
  1  2  1  0  0  0  0
  1 21  1  0  0  0  0
  1 22  1  0  0  0  0
  1 23  1  0  0  0  0
  2  3  1  0  0  0  0
  3 20  1  0  0  0  0
  3  4  2  0  0  0  0
  4  5  1  0  0  0  0
  4 24  1  0  0  0  0
  5  6  2  0  0  0  0
  5 25  1  0  0  0  0
  6  7  1  0  0  0  0
  6 19  1  0  0  0  0
  7  8  1  0  0  0  0
  7 26  1  0  0  0  0
  8  9  2  0  0  0  0
  8 10  1  0  0  0  0
 10 11  1  0  0  0  0
 10 27  1  0  0  0  0
 11 12  1  0  0  0  0
 11 28  1  0  0  0  0
 11 29  1  0  0  0  0
 12 13  2  0  0  0  0
 12 14  1  0  0  0  0
 14 18  1  0  0  0  0
 14 15  1  0  0  0  0
 15 16  1  0  0  0  0
 15 30  1  0  0  0  0
 15 31  1  0  0  0  0
 16 17  1  0  0  0  0
 16 32  1  0  0  0  0
 16 33  1  0  0  0  0
 17 18  1  0  0  0  0
 17 34  1  0  0  0  0
 17 35  1  0  0  0  0
 18 36  1  0  0  0  0
 18 37  1  0  0  0  0
 19 20  2  0  0  0  0
 19 38  1  0  0  0  0
M  END
> <s_m_source_file>
AV-unprocessed.smi

> <i_m_source_file_index>
1187

> <i_lp_mmshare_version>
43012

> <i_f3d_flags>
0

> <s_epik_input>
W0NIM11PYzFbY0hdW2NIXWMoW2NIXW4xKVtOSF1DKD1PKVtOSF1bQ0gyXUMoPU8pTjJbQ0gyXVtDSDJdW0NIMl1bQ0gyXTI=

> <s_epik_cmdline>
J2VwaWtfcHl0aG9uJywgJy1waCcsICc3LjAnLCAnLXRuJywgJzgnLCAnLW1hJywgJzIwMCcsICctbWV0YWxfYmluZGluZycsICctaW1hZScsICc8aW5maWxlLm1hZT4nLCAnLW9tYWUnLCAnPG91dGZpbGUubWFlPic=

> <r_lp_tautomer_probability>
1

> <r_epik_Ionization_Penalty>
0.000141675

> <r_epik_Ionization_Penalty_Charging>
0

> <r_epik_Ionization_Penalty_Neutral>
0.000141675

> <r_epik_State_Penalty>
-0

> <r_epik_Charging_Adjusted_Penalty>
0

> <i_epik_Tot_Q>
0

> <i_epik_Tot_abs_Q>
0

> <r_epik_Metal_State_Penalty>
-0

> <b_epik_Metal_Only>
0

> <s_lp_Force_Field>
OPLS_2005

> <r_lp_Energy>
27.0256

> <b_lp_Chiralities_Consistent>
1

> <s_lp_Variant>
AV-unprocessed.smi:1187-1

> <Gold.Version>
5.8.1

> <Gold.Id.Protein>
6NUR|6NUR_protein|mol2

> <Gold.PLP.Fitness>
51.1247

> <Gold.PLP.PLP>
-45.7643

> <Gold.PLP.part.hbond>
-1.6512

> <Gold.PLP.part.metal>
0.0000

> <Gold.PLP.part.buried>
-5.3331

> <Gold.PLP.part.nonpolar>
-41.7920

> <Gold.PLP.part.repulsive>
2.2029

> <Gold.PLP.ligand.clash>
0.0000

> <Gold.PLP.ligand.torsion>
0.2701

> <Gold.PLP.Chemscore.Hbond>
1.4551

> <Gold.PLP.Chemscore.CHOScore>
0.5093

> <Gold.PLP.Chemscore.Metal>
0.0000

> <Gold.Chemscore.Hbonds>
donor molecule, donor type, donor heavy atom, donor atom, acceptor molecule, acceptor atom, score
      L1  H     7    26       P1  8028  0.73
      L1  H    10    27       P1  8028  0.72
      L1  C    19    38       P1  8028  0.50

> <Gold.PLP.Chemscore.Internal.Correction>
0.0074

> <Gold.Rescore>
     Score         DG    S(hbond)    S(metal)    S(lipo)     H(rot)  DE(clash)    DE(int)     intcor
     16.13     -17.68       1.80        0.00      87.54       1.58       0.06       1.49       ----

> <Gold.Chemscore.Fitness>
16.1278

> <Gold.Chemscore.DG>
-17.6797

> <Gold.Chemscore.ZeroCoef>
-5.4800

> <Gold.Chemscore.Hbond>
1.7975

> <Gold.Chemscore.Metal>
0.0000

> <Gold.Chemscore.Lipo>
87.5375

> <Gold.Chemscore.Internal_Hbond>
0.0000

> <Gold.Chemscore.DEClash>
0.0582

> <Gold.Chemscore.DEInternal>
1.4937

> <Gold.Chemscore.Rot>
1.5804

> <Gold.Chemscore.Internal.Correction>
   9.000000E+99

> <Gold.Chemscore.Hbonds>
donor molecule, donor type, donor heavy atom, donor atom, acceptor molecule, acceptor atom, score
      L1  H     7    26       P1  8028  0.73
      L1  H    10    27       P1  8028  0.63

> <Gold.Chemscore.Hbond.Weighted>
-6.0038

> <Gold.Chemscore.Metal.Weighted>
-0.0000

> <Gold.Chemscore.Lipo.Weighted>
-10.2419

> <Gold.Chemscore.Internal_Hbond.Weighted>
0.0000

> <Gold.Chemscore.DEClash.Weighted>
0.0582

> <Gold.Chemscore.DEInternal.Weighted>
1.4937

> <Gold.Chemscore.Rot.Weighted>
4.0459

> <Gold.Chemscore.Internal.Correction.Weighted>
   9.000000E+99

> <Gold.Protein.RotatedTorsions>
[ 6907 6896 6895 6894 ] final   79.54 input  -60.11 | X-H torsion
[ 7974 7965 7964 7962 ] final -132.50 input  175.53 | X-H torsion
[ 8008 7997 7996 7995 ] final  111.90 input   59.86 | X-H torsion
[ 10167 10162 10161 10158 ] final  -45.75 input  -65.29 | X-H torsion
[ 10718 10713 10712 10709 ] final -139.67 input   66.30 | X-H torsion
[ 10763 10752 10751 10750 ] final   27.42 input  -60.55 | X-H torsion
[ 11005 11000 10999 10996 ] final -111.49 input  -57.11 | X-H torsion

> <Gold.Protein.ActiveResidues>
 VAL166  LYS551  ARG553  GLY616  TRP617  ASP618  TYR619  PRO620  LYS621  CYS622 
 ASP623  PHE694  ASN695  SER759  ASP760  ASP761  ALA762  ILE779  LEU786  VAL792 
 PHE793  MET794  SER795  GLU796  ALA797  LYS798  CYS799  TRP800  GLU811  SER814 

> <Gold.Protein.RotatedAtoms>
  152.5202  134.3496  159.9246 H   0  0  0  0  0  0  0  0  0  0  0  0  # atno 6907 bound_to 6896
  151.3446  133.3942  159.2682 H   0  0  0  0  0  0  0  0  0  0  0  0  # atno 6908 bound_to 6896
  150.9775  134.9155  159.7883 H   0  0  0  0  0  0  0  0  0  0  0  0  # atno 6909 bound_to 6896
  144.9280  140.7094  143.4924 H   0  0  0  0  0  0  0  0  0  0  0  0  # atno 7974 bound_to 7965
  156.2156  140.3010  155.9831 H   0  0  0  0  0  0  0  0  0  0  0  0  # atno 8008 bound_to 7997
  155.2614  140.0430  157.3015 H   0  0  0  0  0  0  0  0  0  0  0  0  # atno 8009 bound_to 7997
  154.5762  140.2362  155.8127 H   0  0  0  0  0  0  0  0  0  0  0  0  # atno 8010 bound_to 7997
  140.6845  143.2864  151.3684 H   0  0  0  0  0  0  0  0  0  0  0  0  # atno 10167 bound_to 10162
  156.3134  130.7494  151.1575 H   0  0  0  0  0  0  0  0  0  0  0  0  # atno 10718 bound_to 10713
  153.0557  135.6537  154.0583 H   0  0  0  0  0  0  0  0  0  0  0  0  # atno 10763 bound_to 10752
  154.0262  135.2915  155.3376 H   0  0  0  0  0  0  0  0  0  0  0  0  # atno 10764 bound_to 10752
  154.6870  135.5297  153.8408 H   0  0  0  0  0  0  0  0  0  0  0  0  # atno 10765 bound_to 10752
  141.0731  133.9347  157.2445 H   0  0  0  0  0  0  0  0  0  0  0  0  # atno 11005 bound_to 11000
  145.3188  139.1795  143.4599 LP  0  0  0  0  0  0  0  0  0  0  0  0  # atno 17320 bound_to 7965
  146.3234  140.3203  142.8633 LP  0  0  0  0  0  0  0  0  0  0  0  0  # atno 17321 bound_to 7965
  139.6193  144.0939  152.2376 LP  0  0  0  0  0  0  0  0  0  0  0  0  # atno 17342 bound_to 10162
  140.0378  144.6031  150.7435 LP  0  0  0  0  0  0  0  0  0  0  0  0  # atno 17343 bound_to 10162
  157.7396  131.0527  150.5221 LP  0  0  0  0  0  0  0  0  0  0  0  0  # atno 17370 bound_to 10713
  156.5364  130.4197  149.6176 LP  0  0  0  0  0  0  0  0  0  0  0  0  # atno 17371 bound_to 10713
  139.9544  135.0169  156.9085 LP  0  0  0  0  0  0  0  0  0  0  0  0  # atno 17394 bound_to 11000
  140.5631  134.0515  155.7405 LP  0  0  0  0  0  0  0  0  0  0  0  0  # atno 17395 bound_to 11000

$$$$
