AV-unprocessed.smi:34|AV-procd|sdf|225|dock8
  -GOLD-   2262015543D 1   1.00000     0.00000
 Structure written by MMmdl.
 55 59  0  0  0  0  0  0  0  0  1 V2000
  151.3057  141.4758  156.9245 O   0  0  0  0  0  0  0  0  0  0  0  0
  151.8944  141.5462  158.0038 C   0  0  0  0  0  0  0  0  0  0  0  0
  152.6084  140.4151  158.5702 N   0  0  0  0  0  0  0  0  0  0  0  0
  152.8102  139.1935  158.0226 C   0  0  0  0  0  0  0  0  0  0  0  0
  154.0312  138.5974  157.9994 N   0  0  0  0  0  0  0  0  0  0  0  0
  154.1798  137.3899  157.4475 C   0  0  0  0  0  0  0  0  0  0  0  0
  153.2560  136.6170  156.8740 N   0  0  0  0  0  0  0  0  0  0  0  0
  152.0262  137.2073  156.8917 C   0  0  0  0  0  0  0  0  0  0  0  0
  151.7258  138.4841  157.4432 C   0  0  0  0  0  0  0  0  0  0  0  0
  150.3737  138.7588  157.2839 N   0  0  0  0  0  0  0  0  0  0  0  0
  149.9059  137.7018  156.6761 C   0  0  0  0  0  0  0  0  0  0  0  0
  150.8315  136.7198  156.3993 N   0  0  0  0  0  0  0  0  0  0  0  0
  150.5924  135.4047  155.7208 C   0  0  2  0  0  0  0  0  0  0  0  0
  149.5727  135.5871  154.7855 O   0  0  0  0  0  0  0  0  0  0  0  0
  148.6057  134.5525  154.9122 C   0  0  2  0  0  0  0  0  0  0  0  0
  147.2326  135.0623  154.4590 C   0  0  0  0  0  0  0  0  0  0  0  0
  146.7678  134.2773  153.3733 O   0  0  0  0  0  0  0  0  0  0  0  0
  145.6350  134.6202  152.7299 C   0  0  0  0  0  0  0  0  0  0  0  0
  144.9299  135.5782  153.0535 O   0  0  0  0  0  0  0  0  0  0  0  0
  145.3230  133.7185  151.5836 C   0  0  0  0  0  0  0  0  0  0  0  0
  143.9753  133.5282  151.1983 C   0  0  0  0  0  0  0  0  0  0  0  0
  143.6500  132.6819  150.1207 C   0  0  0  0  0  0  0  0  0  0  0  0
  144.6683  132.0149  149.4152 C   0  0  0  0  0  0  0  0  0  0  0  0
  146.0128  132.1949  149.7892 C   0  0  0  0  0  0  0  0  0  0  0  0
  146.3403  133.0411  150.8666 C   0  0  0  0  0  0  0  0  0  0  0  0
  148.6720  134.1511  156.3847 C   0  0  1  0  0  0  0  0  0  0  0  0
  148.2543  132.8984  156.5717 F   0  0  0  0  0  0  0  0  0  0  0  0
  150.1496  134.2958  156.7011 C   0  0  2  0  0  0  0  0  0  0  0  0
  150.3532  134.5907  158.0715 O   0  0  0  0  0  0  0  0  0  0  0  0
  151.8456  142.7856  158.8495 C   0  0  0  0  0  0  0  0  0  0  0  0
  152.2546  142.7353  160.2013 C   0  0  0  0  0  0  0  0  0  0  0  0
  152.1963  143.8890  161.0072 C   0  0  0  0  0  0  0  0  0  0  0  0
  151.7230  145.1011  160.4706 C   0  0  0  0  0  0  0  0  0  0  0  0
  151.3027  145.1577  159.1285 C   0  0  0  0  0  0  0  0  0  0  0  0
  151.3590  144.0045  158.3218 C   0  0  0  0  0  0  0  0  0  0  0  0
  153.0243  140.5660  159.4775 H   0  0  0  0  0  0  0  0  0  0  0  0
  155.1809  136.9852  157.4694 H   0  0  0  0  0  0  0  0  0  0  0  0
  148.8631  137.6100  156.4094 H   0  0  0  0  0  0  0  0  0  0  0  0
  151.5362  135.1789  155.2231 H   0  0  0  0  0  0  0  0  0  0  0  0
  148.9308  133.7214  154.2838 H   0  0  0  0  0  0  0  0  0  0  0  0
  146.5225  135.0249  155.2863 H   0  0  0  0  0  0  0  0  0  0  0  0
  147.3096  136.1027  154.1411 H   0  0  0  0  0  0  0  0  0  0  0  0
  143.1760  134.0296  151.7249 H   0  0  0  0  0  0  0  0  0  0  0  0
  142.6172  132.5446  149.8356 H   0  0  0  0  0  0  0  0  0  0  0  0
  144.4186  131.3661  148.5888 H   0  0  0  0  0  0  0  0  0  0  0  0
  146.7955  131.6825  149.2495 H   0  0  0  0  0  0  0  0  0  0  0  0
  147.3821  133.1558  151.1280 H   0  0  0  0  0  0  0  0  0  0  0  0
  148.0615  134.8118  157.0015 H   0  0  0  0  0  0  0  0  0  0  0  0
  150.6832  133.3827  156.4337 H   0  0  0  0  0  0  0  0  0  0  0  0
  150.4413  133.7775  158.5444 H   0  0  0  0  0  0  0  0  0  0  0  0
  152.6195  141.8125  160.6290 H   0  0  0  0  0  0  0  0  0  0  0  0
  152.5141  143.8430  162.0384 H   0  0  0  0  0  0  0  0  0  0  0  0
  151.6787  145.9853  161.0891 H   0  0  0  0  0  0  0  0  0  0  0  0
  150.9338  146.0861  158.7177 H   0  0  0  0  0  0  0  0  0  0  0  0
  151.0212  144.0683  157.2977 H   0  0  0  0  0  0  0  0  0  0  0  0
  1  2  2  0  0  0  0
  2  3  1  0  0  0  0
  2 30  1  0  0  0  0
  3  4  1  0  0  0  0
  3 36  1  0  0  0  0
  4  9  1  0  0  0  0
  4  5  2  0  0  0  0
  5  6  1  0  0  0  0
  6  7  2  0  0  0  0
  6 37  1  0  0  0  0
  7  8  1  0  0  0  0
  8 12  1  0  0  0  0
  8  9  2  0  0  0  0
  9 10  1  0  0  0  0
 10 11  2  0  0  0  0
 11 12  1  0  0  0  0
 11 38  1  0  0  0  0
 12 13  1  0  0  0  0
 13 28  1  0  0  0  0
 13 14  1  0  0  0  0
 13 39  1  0  0  0  0
 14 15  1  0  0  0  0
 15 16  1  0  0  0  0
 15 26  1  0  0  0  0
 15 40  1  0  0  0  0
 16 17  1  0  0  0  0
 16 41  1  0  0  0  0
 16 42  1  0  0  0  0
 17 18  1  0  0  0  0
 18 19  2  0  0  0  0
 18 20  1  0  0  0  0
 20 25  1  0  0  0  0
 20 21  2  0  0  0  0
 21 22  1  0  0  0  0
 21 43  1  0  0  0  0
 22 23  2  0  0  0  0
 22 44  1  0  0  0  0
 23 24  1  0  0  0  0
 23 45  1  0  0  0  0
 24 25  2  0  0  0  0
 24 46  1  0  0  0  0
 25 47  1  0  0  0  0
 26 27  1  0  0  0  0
 26 28  1  0  0  0  0
 26 48  1  0  0  0  0
 28 29  1  0  0  0  0
 28 49  1  0  0  0  0
 29 50  1  0  0  0  0
 30 35  1  0  0  0  0
 30 31  2  0  0  0  0
 31 32  1  0  0  0  0
 31 51  1  0  0  0  0
 32 33  2  0  0  0  0
 32 52  1  0  0  0  0
 33 34  1  0  0  0  0
 33 53  1  0  0  0  0
 34 35  2  0  0  0  0
 34 54  1  0  0  0  0
 35 55  1  0  0  0  0
M  END
> <s_m_source_file>
AV-unprocessed.smi

> <i_m_source_file_index>
34

> <i_lp_mmshare_version>
43012

> <i_f3d_flags>
0

> <s_epik_input>
W2NIXTFbY0hdW2NIXVtjSF1bY0hdYzFDKD1PKVtOSF1jKG5bY0hdbjIpYyhjMjMpbltjSF1uM1tDQEBIXTRPW0NASF0oW0NAQEhdKEYpW0NASF00W09IXSlbQ0gyXU9DKD1PKWM1W2NIXVtjSF1bY0hdW2NIXVtjSF01

> <s_epik_cmdline>
J2VwaWtfcHl0aG9uJywgJy1waCcsICc3LjAnLCAnLXRuJywgJzgnLCAnLW1hJywgJzIwMCcsICctbWV0YWxfYmluZGluZycsICctaW1hZScsICc8aW5maWxlLm1hZT4nLCAnLW9tYWUnLCAnPG91dGZpbGUubWFlPic=

> <r_lp_tautomer_probability>
1

> <r_epik_Ionization_Penalty>
0.00257489

> <r_epik_Ionization_Penalty_Charging>
0

> <r_epik_Ionization_Penalty_Neutral>
0.00257489

> <r_epik_State_Penalty>
0.00519398

> <r_epik_Charging_Adjusted_Penalty>
0.00519398

> <i_epik_Tot_Q>
0

> <i_epik_Tot_abs_Q>
0

> <r_epik_Metal_State_Penalty>
0.335891

> <b_epik_Metal_Only>
0

> <s_epik_Chemistry_Notes>
This compound has an ester and may undergo hydrolysis at high or low pH. This compound contains an acetal/aminal-like group ( X-CH(R)-Y where X, Y are N, S, or O) that may be acid/base labile, releasing an aldehyde.

> <s_lp_Force_Field>
OPLS_2005

> <r_lp_Energy>
52.3036

> <b_lp_Chiralities_Consistent>
1

> <s_lp_Variant>
AV-unprocessed.smi:34-11

> <Gold.Version>
5.8.1

> <Gold.Id.Protein>
6NUR|6NUR_protein|mol2

> <Gold.PLP.Fitness>
51.5547

> <Gold.PLP.PLP>
-50.3470

> <Gold.PLP.part.hbond>
-2.1278

> <Gold.PLP.part.metal>
0.0000

> <Gold.PLP.part.buried>
-5.8973

> <Gold.PLP.part.nonpolar>
-44.1893

> <Gold.PLP.part.repulsive>
1.5420

> <Gold.PLP.ligand.clash>
0.0000

> <Gold.PLP.ligand.torsion>
2.3151

> <Gold.PLP.Chemscore.Hbond>
1.9200

> <Gold.PLP.Chemscore.CHOScore>
0.0000

> <Gold.PLP.Chemscore.Metal>
0.0000

> <Gold.Chemscore.Hbonds>
donor molecule, donor type, donor heavy atom, donor atom, acceptor molecule, acceptor atom, score
      P1  H  7997  8009       L1     5  0.90
      P1  H 10752 10763       L1     7  1.00

> <Gold.PLP.Chemscore.Internal.Correction>
0.0779

> <Gold.Rescore>
     Score         DG    S(hbond)    S(metal)    S(lipo)     H(rot)  DE(clash)    DE(int)     intcor
     16.04     -19.18       1.31        0.00     139.34       2.72       0.67       2.46       ----

> <Gold.Chemscore.Fitness>
16.0417

> <Gold.Chemscore.DG>
-19.1761

> <Gold.Chemscore.ZeroCoef>
-5.4800

> <Gold.Chemscore.Hbond>
1.3054

> <Gold.Chemscore.Metal>
0.0000

> <Gold.Chemscore.Lipo>
139.3420

> <Gold.Chemscore.Internal_Hbond>
0.0000

> <Gold.Chemscore.DEClash>
0.6701

> <Gold.Chemscore.DEInternal>
2.4642

> <Gold.Chemscore.Rot>
2.7215

> <Gold.Chemscore.Internal.Correction>
   9.000000E+99

> <Gold.Chemscore.Hbonds>
donor molecule, donor type, donor heavy atom, donor atom, acceptor molecule, acceptor atom, score
      P1  H  7997  8009       L1     5  0.18
      P1  H 10752 10763       L1     7  0.87

> <Gold.Chemscore.Hbond.Weighted>
-4.3601

> <Gold.Chemscore.Metal.Weighted>
-0.0000

> <Gold.Chemscore.Lipo.Weighted>
-16.3030

> <Gold.Chemscore.Internal_Hbond.Weighted>
0.0000

> <Gold.Chemscore.DEClash.Weighted>
0.6701

> <Gold.Chemscore.DEInternal.Weighted>
2.4642

> <Gold.Chemscore.Rot.Weighted>
6.9670

> <Gold.Chemscore.Internal.Correction.Weighted>
   9.000000E+99

> <Gold.Protein.RotatedTorsions>
[ 6907 6896 6895 6894 ] final  149.69 input  -60.11 | X-H torsion
[ 7974 7965 7964 7962 ] final  -85.82 input  175.53 | X-H torsion
[ 8008 7997 7996 7995 ] final  125.41 input   59.86 | X-H torsion
[ 10167 10162 10161 10158 ] final   67.85 input  -65.29 | X-H torsion
[ 10718 10713 10712 10709 ] final -118.72 input   66.30 | X-H torsion
[ 10763 10752 10751 10750 ] final  120.85 input  -60.55 | X-H torsion
[ 11005 11000 10999 10996 ] final  145.03 input  -57.11 | X-H torsion

> <Gold.Protein.ActiveResidues>
 VAL166  LYS551  ARG553  GLY616  TRP617  ASP618  TYR619  PRO620  LYS621  CYS622 
 ASP623  PHE694  ASN695  SER759  ASP760  ASP761  ALA762  ILE779  LEU786  VAL792 
 PHE793  MET794  SER795  GLU796  ALA797  LYS798  CYS799  TRP800  GLU811  SER814 

> <Gold.Protein.RotatedAtoms>
  152.1246  133.4373  159.4691 H   0  0  0  0  0  0  0  0  0  0  0  0  # atno 6907 bound_to 6896
  150.6874  134.2493  159.4513 H   0  0  0  0  0  0  0  0  0  0  0  0  # atno 6908 bound_to 6896
  152.0373  134.9732  160.0624 H   0  0  0  0  0  0  0  0  0  0  0  0  # atno 6909 bound_to 6896
  145.4882  140.9554  143.1827 H   0  0  0  0  0  0  0  0  0  0  0  0  # atno 7974 bound_to 7965
  156.2833  140.2717  156.1945 H   0  0  0  0  0  0  0  0  0  0  0  0  # atno 8008 bound_to 7997
  155.0424  140.0386  157.2532 H   0  0  0  0  0  0  0  0  0  0  0  0  # atno 8009 bound_to 7997
  154.7263  140.2698  155.6501 H   0  0  0  0  0  0  0  0  0  0  0  0  # atno 8010 bound_to 7997
  140.0850  144.5037  150.7136 H   0  0  0  0  0  0  0  0  0  0  0  0  # atno 10167 bound_to 10162
  156.1127  130.6261  150.9326 H   0  0  0  0  0  0  0  0  0  0  0  0  # atno 10718 bound_to 10713
  153.6050  135.3441  155.2959 H   0  0  0  0  0  0  0  0  0  0  0  0  # atno 10763 bound_to 10752
  154.8629  135.4236  154.2372 H   0  0  0  0  0  0  0  0  0  0  0  0  # atno 10764 bound_to 10752
  153.3209  135.7038  153.7103 H   0  0  0  0  0  0  0  0  0  0  0  0  # atno 10765 bound_to 10752
  140.0679  134.9168  157.1296 H   0  0  0  0  0  0  0  0  0  0  0  0  # atno 11005 bound_to 11000
  144.7849  139.6448  143.7138 LP  0  0  0  0  0  0  0  0  0  0  0  0  # atno 17320 bound_to 7965
  146.2300  139.5795  142.9561 LP  0  0  0  0  0  0  0  0  0  0  0  0  # atno 17321 bound_to 7965
  140.7058  143.2467  151.4731 LP  0  0  0  0  0  0  0  0  0  0  0  0  # atno 17342 bound_to 10162
  139.5757  144.1824  152.1900 LP  0  0  0  0  0  0  0  0  0  0  0  0  # atno 17343 bound_to 10162
  157.6309  131.0921  150.8443 LP  0  0  0  0  0  0  0  0  0  0  0  0  # atno 17370 bound_to 10713
  156.8552  130.5094  149.5308 LP  0  0  0  0  0  0  0  0  0  0  0  0  # atno 17371 bound_to 10713
  140.3671  134.2431  155.7181 LP  0  0  0  0  0  0  0  0  0  0  0  0  # atno 17394 bound_to 11000
  141.2000  133.7998  157.0509 LP  0  0  0  0  0  0  0  0  0  0  0  0  # atno 17395 bound_to 11000

$$$$
