AV-unprocessed.smi:1010|AV-procd|sdf|4418|dock1
  -GOLD-   22720 2363D 1   1.00000     0.00000
 Structure written by MMmdl.
 55 57  0  0  0  0  0  0  0  0  4 V2000
  147.4961  139.3484  157.8212 C   0  0  0  0  0  0  0  0  0  0  0  0
  148.4661  138.6511  156.9300 N   0  3  0  0  0  0  0  0  0  0  0  0
  147.8373  137.4411  156.3244 C   0  0  0  0  0  0  0  0  0  0  0  0
  149.9147  138.5426  157.3924 C   0  0  0  0  0  0  0  0  0  0  0  0
  150.0987  137.7807  158.7657 C   0  0  0  0  0  0  0  0  0  0  0  0
  149.1570  136.6696  158.9195 N   0  5  0  0  0  0  0  0  0  0  0  0
  148.3139  136.5007  159.9720 C   0  0  0  0  0  0  0  0  0  0  0  0
  147.9663  137.3419  160.8082 O   0  0  0  0  0  0  0  0  0  0  0  0
  147.8427  135.2449  160.0399 N   0  0  0  0  0  0  0  0  0  0  0  0
  146.8332  134.7367  160.9013 C   0  0  0  0  0  0  0  0  0  0  0  0
  145.9193  135.6009  161.5537 C   0  0  0  0  0  0  0  0  0  0  0  0
  144.9563  135.0660  162.4315 C   0  0  0  0  0  0  0  0  0  0  0  0
  144.9300  133.6765  162.6521 C   0  0  0  0  0  0  0  0  0  0  0  0
  145.8242  132.8816  162.0273 N   0  3  0  0  0  0  0  0  0  0  0  0
  146.7661  133.3415  161.1731 C   0  0  0  0  0  0  0  0  0  0  0  0
  147.6107  132.3662  160.6159 N   0  0  0  0  0  0  0  0  0  0  0  0
  148.4175  131.5830  161.5470 C   0  0  0  0  0  0  0  0  0  0  0  0
  148.1706  130.1107  161.2046 C   0  0  0  0  0  0  0  0  0  0  0  0
  147.7492  130.1574  159.7401 C   0  0  0  0  0  0  0  0  0  0  0  0
  146.9822  131.4757  159.6482 C   0  0  0  0  0  0  0  0  0  0  0  0
  150.7347  137.7905  156.2931 C   0  0  0  0  0  0  0  0  0  0  0  0
  150.7672  138.5580  154.9578 C   0  0  0  0  0  0  0  0  0  0  0  0
  151.3600  139.8346  155.1515 O   0  0  0  0  0  0  0  0  0  0  0  0
  150.6474  140.6423  156.0780 C   0  0  0  0  0  0  0  0  0  0  0  0
  150.5983  139.9497  157.4544 C   0  0  0  0  0  0  0  0  0  0  0  0
  147.2501  138.7623  158.7047 H   0  0  0  0  0  0  0  0  0  0  0  0
  146.5614  139.5167  157.2856 H   0  0  0  0  0  0  0  0  0  0  0  0
  147.8359  140.3312  158.1401 H   0  0  0  0  0  0  0  0  0  0  0  0
  147.5945  136.6906  157.0776 H   0  0  0  0  0  0  0  0  0  0  0  0
  148.4595  136.9747  155.5638 H   0  0  0  0  0  0  0  0  0  0  0  0
  146.9036  137.7143  155.8322 H   0  0  0  0  0  0  0  0  0  0  0  0
  151.1383  137.4611  158.8473 H   0  0  0  0  0  0  0  0  0  0  0  0
  149.9672  138.4941  159.5796 H   0  0  0  0  0  0  0  0  0  0  0  0
  148.1076  134.6446  159.2726 H   0  0  0  0  0  0  0  0  0  0  0  0
  145.9558  136.6692  161.4001 H   0  0  0  0  0  0  0  0  0  0  0  0
  144.2526  135.7143  162.9326 H   0  0  0  0  0  0  0  0  0  0  0  0
  144.2300  133.1806  163.3088 H   0  0  0  0  0  0  0  0  0  0  0  0
  149.4644  131.8362  161.3783 H   0  0  0  0  0  0  0  0  0  0  0  0
  148.1967  131.7967  162.5935 H   0  0  0  0  0  0  0  0  0  0  0  0
  149.0450  129.4832  161.3778 H   0  0  0  0  0  0  0  0  0  0  0  0
  147.3529  129.7180  161.8097 H   0  0  0  0  0  0  0  0  0  0  0  0
  148.6337  130.1971  159.1030 H   0  0  0  0  0  0  0  0  0  0  0  0
  147.1522  129.2963  159.4387 H   0  0  0  0  0  0  0  0  0  0  0  0
  145.9303  131.3199  159.8904 H   0  0  0  0  0  0  0  0  0  0  0  0
  147.0331  131.8960  158.6436 H   0  0  0  0  0  0  0  0  0  0  0  0
  151.7765  137.6641  156.6004 H   0  0  0  0  0  0  0  0  0  0  0  0
  150.3726  136.7777  156.1156 H   0  0  0  0  0  0  0  0  0  0  0  0
  151.3627  138.0085  154.2286 H   0  0  0  0  0  0  0  0  0  0  0  0
  149.7691  138.6642  154.5310 H   0  0  0  0  0  0  0  0  0  0  0  0
  151.1578  141.6018  156.1637 H   0  0  0  0  0  0  0  0  0  0  0  0
  149.6477  140.8528  155.6969 H   0  0  0  0  0  0  0  0  0  0  0  0
  150.1264  140.6130  158.1805 H   0  0  0  0  0  0  0  0  0  0  0  0
  151.6329  139.8596  157.7954 H   0  0  0  0  0  0  0  0  0  0  0  0
  148.5433  139.2869  156.1495 H   0  0  0  0  0  0  0  0  0  0  0  0
  145.7861  131.8781  162.2068 H   0  0  0  0  0  0  0  0  0  0  0  0
  1  2  1  0  0  0  0
  1 26  1  0  0  0  0
  1 27  1  0  0  0  0
  1 28  1  0  0  0  0
  2  3  1  0  0  0  0
  2  4  1  0  0  0  0
  2 54  1  0  0  0  0
  3 29  1  0  0  0  0
  3 30  1  0  0  0  0
  3 31  1  0  0  0  0
  4 25  1  0  0  0  0
  4  5  1  0  0  0  0
  4 21  1  0  0  0  0
  5  6  1  0  0  0  0
  5 32  1  0  0  0  0
  5 33  1  0  0  0  0
  6  7  1  0  0  0  0
  7  8  2  0  0  0  0
  7  9  1  0  0  0  0
  9 10  1  0  0  0  0
  9 34  1  0  0  0  0
 10 15  1  0  0  0  0
 10 11  2  0  0  0  0
 11 12  1  0  0  0  0
 11 35  1  0  0  0  0
 12 13  2  0  0  0  0
 12 36  1  0  0  0  0
 13 14  1  0  0  0  0
 13 37  1  0  0  0  0
 14 15  2  0  0  0  0
 14 55  1  0  0  0  0
 15 16  1  0  0  0  0
 16 20  1  0  0  0  0
 16 17  1  0  0  0  0
 17 18  1  0  0  0  0
 17 38  1  0  0  0  0
 17 39  1  0  0  0  0
 18 19  1  0  0  0  0
 18 40  1  0  0  0  0
 18 41  1  0  0  0  0
 19 20  1  0  0  0  0
 19 42  1  0  0  0  0
 19 43  1  0  0  0  0
 20 44  1  0  0  0  0
 20 45  1  0  0  0  0
 21 22  1  0  0  0  0
 21 46  1  0  0  0  0
 21 47  1  0  0  0  0
 22 23  1  0  0  0  0
 22 48  1  0  0  0  0
 22 49  1  0  0  0  0
 23 24  1  0  0  0  0
 24 25  1  0  0  0  0
 24 50  1  0  0  0  0
 24 51  1  0  0  0  0
 25 52  1  0  0  0  0
 25 53  1  0  0  0  0
M  CHG  1   2   1
M  CHG  1   6  -1
M  CHG  1  14   1
M  END
> <s_m_source_file>
AV-unprocessed.smi

> <i_m_source_file_index>
1010

> <i_lp_mmshare_version>
43012

> <i_f3d_flags>
0

> <s_epik_input>
W0NIMl0xW0NIMl1PW0NIMl1bQ0gyXUMxKE4oW0NIM10pW0NIM10pW0NIMl1bTkhdQyg9TylbTkhdYzJbY0hdW2NIXVtjSF1uYzJOM1tDSDJdW0NIMl1bQ0gyXVtDSDJdMw==

> <s_epik_cmdline>
J2VwaWtfcHl0aG9uJywgJy1waCcsICc3LjAnLCAnLXRuJywgJzgnLCAnLW1hJywgJzIwMCcsICctbWV0YWxfYmluZGluZycsICctaW1hZScsICc8aW5maWxlLm1hZT4nLCAnLW9tYWUnLCAnPG91dGZpbGUubWFlPic=

> <r_lp_tautomer_probability>
0.999994

> <r_epik_Ionization_Penalty>
8.43521

> <r_epik_Ionization_Penalty_Charging>
8.43521

> <r_epik_Ionization_Penalty_Neutral>
3.38325e-06

> <r_epik_State_Penalty>
7.95094

> <r_epik_Charging_Adjusted_Penalty>
16.3861

> <i_epik_Tot_Q>
1

> <i_epik_Tot_abs_Q>
3

> <r_epik_Metal_State_Penalty>
3.94206

> <b_epik_Metal_Only>
1

> <s_lp_Force_Field>
OPLS_2005

> <r_lp_Energy>
62.009

> <b_lp_Chiralities_Consistent>
1

> <s_lp_Variant>
AV-unprocessed.smi:1010-4

> <Gold.Version>
5.8.1

> <Gold.Id.Protein>
6NUR|6NUR_protein|mol2

> <Gold.PLP.Fitness>
35.0587

> <Gold.PLP.PLP>
-28.6815

> <Gold.PLP.part.hbond>
-3.0000

> <Gold.PLP.part.metal>
0.0000

> <Gold.PLP.part.buried>
-5.2606

> <Gold.PLP.part.nonpolar>
-21.3675

> <Gold.PLP.part.repulsive>
0.2051

> <Gold.PLP.ligand.clash>
0.0000

> <Gold.PLP.ligand.torsion>
0.8676

> <Gold.PLP.Chemscore.Hbond>
2.5200

> <Gold.PLP.Chemscore.CHOScore>
0.0000

> <Gold.PLP.Chemscore.Metal>
0.0000

> <Gold.Chemscore.Hbonds>
donor molecule, donor type, donor heavy atom, donor atom, acceptor molecule, acceptor atom, score
      P1  H  6931  6943       L1     8  0.80
      P1  H  6934  6947       L1     8  0.74
      P1  H  7989  7998       L1    23  1.00

> <Gold.PLP.Chemscore.Internal.Correction>
0.5523

> <Gold.Rescore>
     Score         DG    S(hbond)    S(metal)    S(lipo)     H(rot)  DE(clash)    DE(int)     intcor
     14.69     -17.53       2.47        0.00      67.47       1.60       0.36       2.48       ----

> <Gold.Chemscore.Fitness>
14.6895

> <Gold.Chemscore.DG>
-17.5301

> <Gold.Chemscore.ZeroCoef>
-5.4800

> <Gold.Chemscore.Hbond>
2.4732

> <Gold.Chemscore.Metal>
0.0000

> <Gold.Chemscore.Lipo>
67.4718

> <Gold.Chemscore.Internal_Hbond>
0.0000

> <Gold.Chemscore.DEClash>
0.3563

> <Gold.Chemscore.DEInternal>
2.4843

> <Gold.Chemscore.Rot>
1.6033

> <Gold.Chemscore.Internal.Correction>
   9.000000E+99

> <Gold.Chemscore.Hbonds>
donor molecule, donor type, donor heavy atom, donor atom, acceptor molecule, acceptor atom, score
      P1  H  6931  6943       L1     8  0.79
      P1  H  6934  6947       L1     8  0.74
      P1  H  7989  7998       L1    23  0.62

> <Gold.Chemscore.Hbond.Weighted>
-8.2605

> <Gold.Chemscore.Metal.Weighted>
-0.0000

> <Gold.Chemscore.Lipo.Weighted>
-7.8942

> <Gold.Chemscore.Internal_Hbond.Weighted>
0.0000

> <Gold.Chemscore.DEClash.Weighted>
0.3563

> <Gold.Chemscore.DEInternal.Weighted>
2.4843

> <Gold.Chemscore.Rot.Weighted>
4.1046

> <Gold.Chemscore.Internal.Correction.Weighted>
   9.000000E+99

> <Gold.Protein.RotatedTorsions>
[ 6907 6896 6895 6894 ] final  174.85 input  -60.11 | X-H torsion
[ 7974 7965 7964 7962 ] final   21.97 input  175.53 | X-H torsion
[ 8008 7997 7996 7995 ] final   43.20 input   59.86 | X-H torsion
[ 10167 10162 10161 10158 ] final   61.57 input  -65.29 | X-H torsion
[ 10718 10713 10712 10709 ] final   82.44 input   66.30 | X-H torsion
[ 10763 10752 10751 10750 ] final    6.09 input  -60.55 | X-H torsion
[ 11005 11000 10999 10996 ] final  141.23 input  -57.11 | X-H torsion

> <Gold.Protein.ActiveResidues>
 VAL166  LYS551  ARG553  GLY616  TRP617  ASP618  TYR619  PRO620  LYS621  CYS622 
 ASP623  PHE694  ASN695  SER759  ASP760  ASP761  ALA762  ILE779  LEU786  VAL792 
 PHE793  MET794  SER795  GLU796  ALA797  LYS798  CYS799  TRP800  GLU811  SER814 

> <Gold.Protein.RotatedAtoms>
  151.7457  133.3324  159.3377 H   0  0  0  0  0  0  0  0  0  0  0  0  # atno 6907 bound_to 6896
  150.7555  134.6237  159.6159 H   0  0  0  0  0  0  0  0  0  0  0  0  # atno 6908 bound_to 6896
  152.3501  134.7019  160.0290 H   0  0  0  0  0  0  0  0  0  0  0  0  # atno 6909 bound_to 6896
  146.2049  139.7951  142.8734 H   0  0  0  0  0  0  0  0  0  0  0  0  # atno 7974 bound_to 7965
  155.2988  140.3383  155.4248 H   0  0  0  0  0  0  0  0  0  0  0  0  # atno 8008 bound_to 7997
  156.2011  140.1733  156.7936 H   0  0  0  0  0  0  0  0  0  0  0  0  # atno 8009 bound_to 7997
  154.5560  140.0696  156.8728 H   0  0  0  0  0  0  0  0  0  0  0  0  # atno 8010 bound_to 7997
  140.1533  144.4441  150.6747 H   0  0  0  0  0  0  0  0  0  0  0  0  # atno 10167 bound_to 10162
  157.6857  131.0048  150.2376 H   0  0  0  0  0  0  0  0  0  0  0  0  # atno 10718 bound_to 10713
  153.2517  135.6914  153.7672 H   0  0  0  0  0  0  0  0  0  0  0  0  # atno 10763 bound_to 10752
  153.6764  135.3336  155.3168 H   0  0  0  0  0  0  0  0  0  0  0  0  # atno 10764 bound_to 10752
  154.8397  135.4512  154.1476 H   0  0  0  0  0  0  0  0  0  0  0  0  # atno 10765 bound_to 10752
  140.0386  134.9316  157.0800 H   0  0  0  0  0  0  0  0  0  0  0  0  # atno 11005 bound_to 11000
  145.3356  141.0276  143.3422 LP  0  0  0  0  0  0  0  0  0  0  0  0  # atno 17320 bound_to 7965
  144.8768  139.4960  143.6742 LP  0  0  0  0  0  0  0  0  0  0  0  0  # atno 17321 bound_to 7965
  140.6689  143.2278  151.5675 LP  0  0  0  0  0  0  0  0  0  0  0  0  # atno 17342 bound_to 10162
  139.5415  144.2634  152.1360 LP  0  0  0  0  0  0  0  0  0  0  0  0  # atno 17343 bound_to 10162
  156.2996  130.3756  149.7763 LP  0  0  0  0  0  0  0  0  0  0  0  0  # atno 17370 bound_to 10713
  156.5397  130.8294  151.3265 LP  0  0  0  0  0  0  0  0  0  0  0  0  # atno 17371 bound_to 10713
  140.4106  134.1985  155.7163 LP  0  0  0  0  0  0  0  0  0  0  0  0  # atno 17394 bound_to 11000
  141.1871  133.8288  157.1045 LP  0  0  0  0  0  0  0  0  0  0  0  0  # atno 17395 bound_to 11000

$$$$
