AV-unprocessed.smi:1308|AV-procd|sdf|5440|dock4
  -GOLD-   22720 5 03D 1   1.00000     0.00000
 Structure written by MMmdl.
 45 45  0  0  0  0  0  0  0  0  1 V2000
  149.4685  133.6173  155.1598 C   0  0  0  0  0  0  0  0  0  0  0  0
  149.6782  134.9713  155.8017 C   0  0  0  0  0  0  0  0  0  0  0  0
  149.6903  136.0199  154.8966 N   0  0  0  0  0  0  0  0  0  0  0  0
  149.8841  137.2982  155.3895 C   0  0  0  0  0  0  0  0  0  0  0  0
  149.8839  138.3889  154.3330 C   0  0  0  0  0  0  0  0  0  0  0  0
  150.0534  137.5204  156.7176 C   0  0  0  0  0  0  0  0  0  0  0  0
  150.2640  138.9152  157.3060 C   0  0  0  0  0  0  0  0  0  0  0  0
  151.6608  139.2155  157.8562 C   0  0  0  0  0  0  0  0  0  0  0  0
  152.6304  139.2894  157.1010 O   0  0  0  0  0  0  0  0  0  0  0  0
  151.7382  139.3972  159.1836 N   0  0  0  0  0  0  0  0  0  0  0  0
  152.9446  139.7408  159.9353 C   0  0  2  0  0  0  0  0  0  0  0  0
  153.2322  138.6384  160.9638 C   0  0  0  0  0  0  0  0  0  0  0  0
  152.7847  141.1189  160.6062 C   0  0  0  0  0  0  0  0  0  0  0  0
  152.4398  142.2518  159.6195 C   0  0  0  0  0  0  0  0  0  0  0  0
  152.6588  143.6699  160.1850 C   0  0  0  0  0  0  0  0  0  0  0  0
  152.1305  143.8179  161.6218 C   0  0  0  0  0  0  0  0  0  0  0  0
  152.0176  144.7226  159.2680 C   0  0  0  0  0  0  0  0  0  0  0  0
  150.0179  136.3599  157.6385 C   0  0  0  0  0  0  0  0  0  0  0  0
  150.1443  136.4997  158.8543 O   0  0  0  0  0  0  0  0  0  0  0  0
  149.8285  135.0824  157.0866 N   0  0  0  0  0  0  0  0  0  0  0  0
  149.5667  135.8990  153.9018 H   0  0  0  0  0  0  0  0  0  0  0  0
  149.3914  132.8353  155.9161 H   0  0  0  0  0  0  0  0  0  0  0  0
  150.3045  133.3753  154.5028 H   0  0  0  0  0  0  0  0  0  0  0  0
  148.5507  133.6127  154.5710 H   0  0  0  0  0  0  0  0  0  0  0  0
  149.1133  139.1288  154.5504 H   0  0  0  0  0  0  0  0  0  0  0  0
  149.6895  137.9856  153.3383 H   0  0  0  0  0  0  0  0  0  0  0  0
  150.8499  138.8933  154.3060 H   0  0  0  0  0  0  0  0  0  0  0  0
  149.5493  139.0658  158.1150 H   0  0  0  0  0  0  0  0  0  0  0  0
  150.0099  139.6757  156.5664 H   0  0  0  0  0  0  0  0  0  0  0  0
  150.8848  139.3125  159.7168 H   0  0  0  0  0  0  0  0  0  0  0  0
  153.8051  139.7935  159.2657 H   0  0  0  0  0  0  0  0  0  0  0  0
  154.1414  138.8543  161.5257 H   0  0  0  0  0  0  0  0  0  0  0  0
  153.3692  137.6724  160.4767 H   0  0  0  0  0  0  0  0  0  0  0  0
  152.4151  138.5386  161.6791 H   0  0  0  0  0  0  0  0  0  0  0  0
  152.0176  141.0528  161.3782 H   0  0  0  0  0  0  0  0  0  0  0  0
  153.7130  141.3698  161.1209 H   0  0  0  0  0  0  0  0  0  0  0  0
  153.0580  142.1289  158.7292 H   0  0  0  0  0  0  0  0  0  0  0  0
  151.4070  142.1537  159.2829 H   0  0  0  0  0  0  0  0  0  0  0  0
  153.7314  143.8668  160.2007 H   0  0  0  0  0  0  0  0  0  0  0  0
  151.0692  143.5751  161.6809 H   0  0  0  0  0  0  0  0  0  0  0  0
  152.2577  144.8390  161.9825 H   0  0  0  0  0  0  0  0  0  0  0  0
  152.6620  143.1667  162.3153 H   0  0  0  0  0  0  0  0  0  0  0  0
  150.9383  144.5824  159.1985 H   0  0  0  0  0  0  0  0  0  0  0  0
  152.4256  144.6674  158.2582 H   0  0  0  0  0  0  0  0  0  0  0  0
  152.1993  145.7319  159.6384 H   0  0  0  0  0  0  0  0  0  0  0  0
  1 22  1  0  0  0  0
  1 23  1  0  0  0  0
  1 24  1  0  0  0  0
  1  2  1  0  0  0  0
  2  3  1  0  0  0  0
  2 20  2  0  0  0  0
  3  4  1  0  0  0  0
  3 21  1  0  0  0  0
  4  6  2  0  0  0  0
  4  5  1  0  0  0  0
  5 25  1  0  0  0  0
  5 26  1  0  0  0  0
  5 27  1  0  0  0  0
  6 18  1  0  0  0  0
  6  7  1  0  0  0  0
  7  8  1  0  0  0  0
  7 28  1  0  0  0  0
  7 29  1  0  0  0  0
  8  9  2  0  0  0  0
  8 10  1  0  0  0  0
 10 11  1  0  0  0  0
 10 30  1  0  0  0  0
 11 12  1  0  0  0  0
 11 13  1  0  0  0  0
 11 31  1  0  0  0  0
 12 32  1  0  0  0  0
 12 33  1  0  0  0  0
 12 34  1  0  0  0  0
 13 14  1  0  0  0  0
 13 35  1  0  0  0  0
 13 36  1  0  0  0  0
 14 15  1  0  0  0  0
 14 37  1  0  0  0  0
 14 38  1  0  0  0  0
 15 16  1  0  0  0  0
 15 17  1  0  0  0  0
 15 39  1  0  0  0  0
 16 40  1  0  0  0  0
 16 41  1  0  0  0  0
 16 42  1  0  0  0  0
 17 43  1  0  0  0  0
 17 44  1  0  0  0  0
 17 45  1  0  0  0  0
 18 19  2  0  0  0  0
 18 20  1  0  0  0  0
M  END
> <s_m_source_file>
AV-unprocessed.smi

> <i_m_source_file_index>
1308

> <i_lp_mmshare_version>
43012

> <i_f3d_flags>
0

> <s_epik_input>
W0NIM11jMW5jKFtDSDNdKWMoYyg9TylbbkhdMSlbQ0gyXUMoPU8pW05IXVtDQEhdKFtDSDNdKVtDSDJdW0NIMl1bQ0hdKFtDSDNdKVtDSDNd

> <s_epik_cmdline>
J2VwaWtfcHl0aG9uJywgJy1waCcsICc3LjAnLCAnLXRuJywgJzgnLCAnLW1hJywgJzIwMCcsICctbWV0YWxfYmluZGluZycsICctaW1hZScsICc8aW5maWxlLm1hZT4nLCAnLW9tYWUnLCAnPG91dGZpbGUubWFlPic=

> <r_lp_tautomer_probability>
0.156392

> <r_epik_Ionization_Penalty>
0.0141156

> <r_epik_Ionization_Penalty_Charging>
0.0139937

> <r_epik_Ionization_Penalty_Neutral>
0.00012188

> <r_epik_State_Penalty>
1.52994

> <r_epik_Charging_Adjusted_Penalty>
1.54393

> <i_epik_Tot_Q>
0

> <i_epik_Tot_abs_Q>
0

> <r_epik_Metal_State_Penalty>
1.70663

> <b_epik_Metal_Only>
0

> <s_lp_Force_Field>
OPLS_2005

> <r_lp_Energy>
10.8122

> <b_lp_Chiralities_Consistent>
1

> <s_lp_Variant>
AV-unprocessed.smi:1308-3

> <Gold.Version>
5.8.1

> <Gold.Id.Protein>
6NUR|6NUR_protein|mol2

> <Gold.PLP.Fitness>
45.4271

> <Gold.PLP.PLP>
-37.2296

> <Gold.PLP.part.hbond>
-3.0000

> <Gold.PLP.part.metal>
0.0000

> <Gold.PLP.part.buried>
-5.7687

> <Gold.PLP.part.nonpolar>
-28.3562

> <Gold.PLP.part.repulsive>
0.1631

> <Gold.PLP.ligand.clash>
0.0000

> <Gold.PLP.ligand.torsion>
0.3213

> <Gold.PLP.Chemscore.Hbond>
2.9280

> <Gold.PLP.Chemscore.CHOScore>
0.0000

> <Gold.PLP.Chemscore.Metal>
0.0000

> <Gold.Chemscore.Hbonds>
donor molecule, donor type, donor heavy atom, donor atom, acceptor molecule, acceptor atom, score
      L1  H     3    21       P1  7948  0.76
      P1  H  6896  6909       L1    19  1.00
      P1  H  7997  8009       L1     9  1.00

> <Gold.PLP.Chemscore.Internal.Correction>
0.0561

> <Gold.Rescore>
     Score         DG    S(hbond)    S(metal)    S(lipo)     H(rot)  DE(clash)    DE(int)     intcor
     20.07     -20.39       2.84        0.00      89.82       1.98       0.01       0.31       ----

> <Gold.Chemscore.Fitness>
20.0653

> <Gold.Chemscore.DG>
-20.3949

> <Gold.Chemscore.ZeroCoef>
-5.4800

> <Gold.Chemscore.Hbond>
2.8395

> <Gold.Chemscore.Metal>
0.0000

> <Gold.Chemscore.Lipo>
89.8183

> <Gold.Chemscore.Internal_Hbond>
0.0000

> <Gold.Chemscore.DEClash>
0.0149

> <Gold.Chemscore.DEInternal>
0.3147

> <Gold.Chemscore.Rot>
1.9835

> <Gold.Chemscore.Internal.Correction>
   9.000000E+99

> <Gold.Chemscore.Hbonds>
donor molecule, donor type, donor heavy atom, donor atom, acceptor molecule, acceptor atom, score
      L1  H     3    21       P1  7948  0.34
      P1  H  6896  6909       L1    19  0.89
      P1  H  7997  8009       L1     9  0.92

> <Gold.Chemscore.Hbond.Weighted>
-9.4839

> <Gold.Chemscore.Metal.Weighted>
-0.0000

> <Gold.Chemscore.Lipo.Weighted>
-10.5087

> <Gold.Chemscore.Internal_Hbond.Weighted>
0.0000

> <Gold.Chemscore.DEClash.Weighted>
0.0149

> <Gold.Chemscore.DEInternal.Weighted>
0.3147

> <Gold.Chemscore.Rot.Weighted>
5.0778

> <Gold.Chemscore.Internal.Correction.Weighted>
   9.000000E+99

> <Gold.Protein.RotatedTorsions>
[ 6907 6896 6895 6894 ] final   84.31 input  -60.11 | X-H torsion
[ 7974 7965 7964 7962 ] final -132.64 input  175.53 | X-H torsion
[ 8008 7997 7996 7995 ] final -163.74 input   59.86 | X-H torsion
[ 10167 10162 10161 10158 ] final  131.48 input  -65.29 | X-H torsion
[ 10718 10713 10712 10709 ] final  -79.79 input   66.30 | X-H torsion
[ 10763 10752 10751 10750 ] final    8.68 input  -60.55 | X-H torsion
[ 11005 11000 10999 10996 ] final   75.08 input  -57.11 | X-H torsion

> <Gold.Protein.ActiveResidues>
 VAL166  LYS551  ARG553  GLY616  TRP617  ASP618  TYR619  PRO620  LYS621  CYS622 
 ASP623  PHE694  ASN695  SER759  ASP760  ASP761  ALA762  ILE779  LEU786  VAL792 
 PHE793  MET794  SER795  GLU796  ALA797  LYS798  CYS799  TRP800  GLU811  SER814 

> <Gold.Protein.RotatedAtoms>
  152.5349  134.2761  159.8989 H   0  0  0  0  0  0  0  0  0  0  0  0  # atno 6907 bound_to 6896
  151.2716  133.4246  159.2629 H   0  0  0  0  0  0  0  0  0  0  0  0  # atno 6908 bound_to 6896
  151.0363  134.9590  159.8194 H   0  0  0  0  0  0  0  0  0  0  0  0  # atno 6909 bound_to 6896
  144.9267  140.7079  143.4932 H   0  0  0  0  0  0  0  0  0  0  0  0  # atno 7974 bound_to 7965
  155.8257  140.0926  157.1823 H   0  0  0  0  0  0  0  0  0  0  0  0  # atno 8008 bound_to 7997
  154.3979  140.1428  156.3613 H   0  0  0  0  0  0  0  0  0  0  0  0  # atno 8009 bound_to 7997
  155.8219  140.3446  155.5522 H   0  0  0  0  0  0  0  0  0  0  0  0  # atno 8010 bound_to 7997
  139.5382  144.6704  151.4713 H   0  0  0  0  0  0  0  0  0  0  0  0  # atno 10167 bound_to 10162
  156.0084  130.4555  150.3701 H   0  0  0  0  0  0  0  0  0  0  0  0  # atno 10718 bound_to 10713
  153.2224  135.6883  153.7985 H   0  0  0  0  0  0  0  0  0  0  0  0  # atno 10763 bound_to 10752
  153.7179  135.3272  155.3261 H   0  0  0  0  0  0  0  0  0  0  0  0  # atno 10764 bound_to 10752
  154.8275  135.4606  154.1076 H   0  0  0  0  0  0  0  0  0  0  0  0  # atno 10765 bound_to 10752
  139.9360  134.7487  156.1227 H   0  0  0  0  0  0  0  0  0  0  0  0  # atno 11005 bound_to 11000
  145.3208  139.1789  143.4588 LP  0  0  0  0  0  0  0  0  0  0  0  0  # atno 17320 bound_to 7965
  146.3229  140.3226  142.8634 LP  0  0  0  0  0  0  0  0  0  0  0  0  # atno 17321 bound_to 7965
  140.6599  143.8520  150.6876 LP  0  0  0  0  0  0  0  0  0  0  0  0  # atno 17342 bound_to 10162
  140.1911  143.4035  152.1862 LP  0  0  0  0  0  0  0  0  0  0  0  0  # atno 17343 bound_to 10162
  157.1786  131.0386  151.2760 LP  0  0  0  0  0  0  0  0  0  0  0  0  # atno 17370 bound_to 10713
  157.4166  130.7414  149.6880 LP  0  0  0  0  0  0  0  0  0  0  0  0  # atno 17371 bound_to 10713
  141.0974  133.6690  156.2676 LP  0  0  0  0  0  0  0  0  0  0  0  0  # atno 17394 bound_to 11000
  140.6074  134.5493  157.5528 LP  0  0  0  0  0  0  0  0  0  0  0  0  # atno 17395 bound_to 11000

$$$$
