AV-unprocessed.smi:3118|AV-procd|sdf|11889|dock1
  -GOLD-   2272017273D 1   1.00000     0.00000
 Structure written by MMmdl.
 32 33  0  0  0  0  0  0  0  0  1 V2000
  153.7492  140.3582  160.4638 C   0  0  0  0  0  0  0  0  0  0  0  0
  152.8363  141.4291  159.8364 C   0  0  1  0  0  0  0  0  0  0  0  0
  153.3856  142.8607  159.9978 C   0  0  0  0  0  0  0  0  0  0  0  0
  152.4165  143.8799  159.6401 N   0  0  0  0  0  0  0  0  0  0  0  0
  151.8417  144.0863  158.3927 C   0  0  0  0  0  0  0  0  0  0  0  0
  150.9913  145.1607  158.5246 C   0  0  0  0  0  0  0  0  0  0  0  0
  151.0313  145.6323  159.8347 N   0  0  0  0  0  0  0  0  0  0  0  0
  151.8983  144.8268  160.4347 C   0  0  0  0  0  0  0  0  0  0  0  0
  152.6347  141.1549  158.4161 N   0  0  0  0  0  0  0  0  0  0  0  0
  151.4486  140.9588  157.8196 C   0  0  0  0  0  0  0  0  0  0  0  0
  150.3756  140.9887  158.4236 O   0  0  0  0  0  0  0  0  0  0  0  0
  151.4939  140.6938  156.3088 C   0  0  0  0  0  0  0  0  0  0  0  0
  150.1658  140.2226  155.6880 C   0  0  0  0  0  0  0  0  0  0  0  0
  150.9541  139.1676  154.9067 C   0  0  0  0  0  0  0  0  0  0  0  0
  152.0864  139.3269  155.9257 C   0  0  0  0  0  0  0  0  0  0  0  0
  153.8602  140.5075  161.5379 H   0  0  0  0  0  0  0  0  0  0  0  0
  154.7451  140.3779  160.0202 H   0  0  0  0  0  0  0  0  0  0  0  0
  153.3419  139.3568  160.3213 H   0  0  0  0  0  0  0  0  0  0  0  0
  151.8669  141.3863  160.3367 H   0  0  0  0  0  0  0  0  0  0  0  0
  153.7030  143.0309  161.0279 H   0  0  0  0  0  0  0  0  0  0  0  0
  154.2677  143.0001  159.3715 H   0  0  0  0  0  0  0  0  0  0  0  0
  152.0773  143.4672  157.5395 H   0  0  0  0  0  0  0  0  0  0  0  0
  150.3605  145.6283  157.7829 H   0  0  0  0  0  0  0  0  0  0  0  0
  152.1597  144.9265  161.4781 H   0  0  0  0  0  0  0  0  0  0  0  0
  153.4629  141.1134  157.8400 H   0  0  0  0  0  0  0  0  0  0  0  0
  151.9432  141.5087  155.7375 H   0  0  0  0  0  0  0  0  0  0  0  0
  149.4641  139.7804  156.3972 H   0  0  0  0  0  0  0  0  0  0  0  0
  149.6758  140.9655  155.0580 H   0  0  0  0  0  0  0  0  0  0  0  0
  150.4956  138.1785  154.8867 H   0  0  0  0  0  0  0  0  0  0  0  0
  151.2345  139.5055  153.9080 H   0  0  0  0  0  0  0  0  0  0  0  0
  153.0802  139.3769  155.4801 H   0  0  0  0  0  0  0  0  0  0  0  0
  152.0445  138.5820  156.7227 H   0  0  0  0  0  0  0  0  0  0  0  0
  1  2  1  0  0  0  0
  1 16  1  0  0  0  0
  1 17  1  0  0  0  0
  1 18  1  0  0  0  0
  2  3  1  0  0  0  0
  2  9  1  0  0  0  0
  2 19  1  0  0  0  0
  3  4  1  0  0  0  0
  3 20  1  0  0  0  0
  3 21  1  0  0  0  0
  4  8  1  0  0  0  0
  4  5  1  0  0  0  0
  5  6  2  0  0  0  0
  5 22  1  0  0  0  0
  6  7  1  0  0  0  0
  6 23  1  0  0  0  0
  7  8  2  0  0  0  0
  8 24  1  0  0  0  0
  9 10  1  0  0  0  0
  9 25  1  0  0  0  0
 10 11  2  0  0  0  0
 10 12  1  0  0  0  0
 12 15  1  0  0  0  0
 12 13  1  0  0  0  0
 12 26  1  0  0  0  0
 13 14  1  0  0  0  0
 13 27  1  0  0  0  0
 13 28  1  0  0  0  0
 14 15  1  0  0  0  0
 14 29  1  0  0  0  0
 14 30  1  0  0  0  0
 15 31  1  0  0  0  0
 15 32  1  0  0  0  0
M  END
> <s_m_source_file>
AV-unprocessed.smi

> <i_m_source_file_index>
3118

> <i_lp_mmshare_version>
43012

> <i_f3d_flags>
0

> <s_epik_input>
W0NIMl0xW0NIMl1bQ0gyXVtDSF0xQyg9TylbTkhdW0NASF0oW0NIM10pW0NIMl1uMltjSF1bY0hdbltjSF0y

> <s_epik_cmdline>
J2VwaWtfcHl0aG9uJywgJy1waCcsICc3LjAnLCAnLXRuJywgJzgnLCAnLW1hJywgJzIwMCcsICctbWV0YWxfYmluZGluZycsICctaW1hZScsICc8aW5maWxlLm1hZT4nLCAnLW9tYWUnLCAnPG91dGZpbGUubWFlPic=

> <r_lp_tautomer_probability>
1

> <r_epik_Ionization_Penalty>
0.642614

> <r_epik_Ionization_Penalty_Charging>
0.642614

> <r_epik_Ionization_Penalty_Neutral>
2.50867e-08

> <r_epik_State_Penalty>
0.660429

> <r_epik_Charging_Adjusted_Penalty>
1.30304

> <i_epik_Tot_Q>
0

> <i_epik_Tot_abs_Q>
0

> <r_epik_Metal_State_Penalty>
0.312239

> <b_epik_Metal_Only>
0

> <s_lp_Force_Field>
OPLS_2005

> <r_lp_Energy>
13.1137

> <b_lp_Chiralities_Consistent>
1

> <s_lp_Variant>
AV-unprocessed.smi:3118-4

> <Gold.Version>
5.8.1

> <Gold.Id.Protein>
6NUR|6NUR_protein|mol2

> <Gold.PLP.Fitness>
40.8132

> <Gold.PLP.PLP>
-38.0220

> <Gold.PLP.part.hbond>
-0.8863

> <Gold.PLP.part.metal>
0.0000

> <Gold.PLP.part.buried>
-2.5937

> <Gold.PLP.part.nonpolar>
-34.3362

> <Gold.PLP.part.repulsive>
0.3251

> <Gold.PLP.ligand.clash>
0.0000

> <Gold.PLP.ligand.torsion>
0.2725

> <Gold.PLP.Chemscore.Hbond>
0.0000

> <Gold.PLP.Chemscore.CHOScore>
0.9650

> <Gold.PLP.Chemscore.Metal>
0.0000

> <Gold.Chemscore.Hbonds>
donor molecule, donor type, donor heavy atom, donor atom, acceptor molecule, acceptor atom, score
      L1  C     6    23       P1  8028  0.12
      L1  C     6    23       P1  8029  0.58

> <Gold.PLP.Chemscore.Internal.Correction>
0.4413

> <Gold.Rescore>
     Score         DG    S(hbond)    S(metal)    S(lipo)     H(rot)  DE(clash)    DE(int)     intcor
      9.72     -10.18       0.00        0.00      79.28       1.79       0.00       0.45       ----

> <Gold.Chemscore.Fitness>
9.7226

> <Gold.Chemscore.DG>
-10.1764

> <Gold.Chemscore.ZeroCoef>
-5.4800

> <Gold.Chemscore.Hbond>
0.0000

> <Gold.Chemscore.Metal>
0.0000

> <Gold.Chemscore.Lipo>
79.2820

> <Gold.Chemscore.Internal_Hbond>
0.0000

> <Gold.Chemscore.DEClash>
0.0047

> <Gold.Chemscore.DEInternal>
0.4492

> <Gold.Chemscore.Rot>
1.7889

> <Gold.Chemscore.Internal.Correction>
   9.000000E+99

> <Gold.Chemscore.Hbond.Weighted>
-0.0000

> <Gold.Chemscore.Metal.Weighted>
-0.0000

> <Gold.Chemscore.Lipo.Weighted>
-9.2760

> <Gold.Chemscore.Internal_Hbond.Weighted>
0.0000

> <Gold.Chemscore.DEClash.Weighted>
0.0047

> <Gold.Chemscore.DEInternal.Weighted>
0.4492

> <Gold.Chemscore.Rot.Weighted>
4.5795

> <Gold.Chemscore.Internal.Correction.Weighted>
   9.000000E+99

> <Gold.Protein.RotatedTorsions>
[ 6907 6896 6895 6894 ] final -168.72 input  -60.11 | X-H torsion
[ 7974 7965 7964 7962 ] final  172.65 input  175.53 | X-H torsion
[ 8008 7997 7996 7995 ] final -148.56 input   59.86 | X-H torsion
[ 10167 10162 10161 10158 ] final   38.95 input  -65.29 | X-H torsion
[ 10718 10713 10712 10709 ] final -144.58 input   66.30 | X-H torsion
[ 10763 10752 10751 10750 ] final   67.21 input  -60.55 | X-H torsion
[ 11005 11000 10999 10996 ] final  119.07 input  -57.11 | X-H torsion

> <Gold.Protein.ActiveResidues>
 VAL166  LYS551  ARG553  GLY616  TRP617  ASP618  TYR619  PRO620  LYS621  CYS622 
 ASP623  PHE694  ASN695  SER759  ASP760  ASP761  ALA762  ILE779  LEU786  VAL792 
 PHE793  MET794  SER795  GLU796  ALA797  LYS798  CYS799  TRP800  GLU811  SER814 

> <Gold.Protein.RotatedAtoms>
  151.4801  133.3548  159.2836 H   0  0  0  0  0  0  0  0  0  0  0  0  # atno 6907 bound_to 6896
  150.8903  134.8307  159.7299 H   0  0  0  0  0  0  0  0  0  0  0  0  # atno 6908 bound_to 6896
  152.4818  134.4710  159.9687 H   0  0  0  0  0  0  0  0  0  0  0  0  # atno 6909 bound_to 6896
  144.7263  139.9530  143.6432 H   0  0  0  0  0  0  0  0  0  0  0  0  # atno 7974 bound_to 7965
  155.5936  140.0655  157.2752 H   0  0  0  0  0  0  0  0  0  0  0  0  # atno 8008 bound_to 7997
  154.4298  140.1831  156.1147 H   0  0  0  0  0  0  0  0  0  0  0  0  # atno 8009 bound_to 7997
  156.0213  140.3316  155.7045 H   0  0  0  0  0  0  0  0  0  0  0  0  # atno 8010 bound_to 7997
  140.3887  144.1882  150.6130 H   0  0  0  0  0  0  0  0  0  0  0  0  # atno 10167 bound_to 10162
  156.3719  130.7792  151.1974 H   0  0  0  0  0  0  0  0  0  0  0  0  # atno 10718 bound_to 10713
  153.0175  135.5292  154.6944 H   0  0  0  0  0  0  0  0  0  0  0  0  # atno 10763 bound_to 10752
  154.6070  135.2874  155.0476 H   0  0  0  0  0  0  0  0  0  0  0  0  # atno 10764 bound_to 10752
  154.1512  135.6562  153.5016 H   0  0  0  0  0  0  0  0  0  0  0  0  # atno 10765 bound_to 10752
  139.9133  134.9625  156.7599 H   0  0  0  0  0  0  0  0  0  0  0  0  # atno 11005 bound_to 11000
  146.0697  139.3686  143.0531 LP  0  0  0  0  0  0  0  0  0  0  0  0  # atno 17320 bound_to 7965
  145.7984  140.9782  143.1011 LP  0  0  0  0  0  0  0  0  0  0  0  0  # atno 17321 bound_to 7965
  140.4862  143.2362  151.8884 LP  0  0  0  0  0  0  0  0  0  0  0  0  # atno 17342 bound_to 10162
  139.4790  144.5216  151.8794 LP  0  0  0  0  0  0  0  0  0  0  0  0  # atno 17343 bound_to 10162
  157.7484  131.0369  150.4434 LP  0  0  0  0  0  0  0  0  0  0  0  0  # atno 17370 bound_to 10713
  156.4662  130.4042  149.6546 LP  0  0  0  0  0  0  0  0  0  0  0  0  # atno 17371 bound_to 10713
  140.6705  133.9563  155.7854 LP  0  0  0  0  0  0  0  0  0  0  0  0  # atno 17394 bound_to 11000
  141.0580  134.0387  157.3696 LP  0  0  0  0  0  0  0  0  0  0  0  0  # atno 17395 bound_to 11000

$$$$
