AV-unprocessed.smi:2528|AV-procd|sdf|9955|dock10
  -GOLD-   2272013593D 1   1.00000     0.00000
 Structure written by MMmdl.
 44 46  0  0  0  0  0  0  0  0  2 V2000
  150.9087  140.8739  155.6899 O   0  0  0  0  0  0  0  0  0  0  0  0
  150.1531  141.8463  155.6972 C   0  0  0  0  0  0  0  0  0  0  0  0
  149.1243  141.9841  154.8485 N   0  0  0  0  0  0  0  0  0  0  0  0
  148.7485  141.0128  153.8261 C   0  0  0  0  0  0  0  0  0  0  0  0
  147.3119  140.4965  154.0215 C   0  0  1  0  0  0  0  0  0  0  0  0
  147.0365  139.2305  153.1901 C   0  0  0  0  0  0  0  0  0  0  0  0
  145.6643  138.7341  153.4438 N   0  3  1  0  0  0  0  0  0  0  0  0
  145.3333  137.5396  152.6265 C   0  0  0  0  0  0  0  0  0  0  0  0
  143.8730  137.1114  152.8415 C   0  0  0  0  0  0  0  0  0  0  0  0
  143.5937  136.8562  154.3282 C   0  0  0  0  0  0  0  0  0  0  0  0
  143.9703  138.0938  155.1540 C   0  0  0  0  0  0  0  0  0  0  0  0
  145.4310  138.5148  154.8974 C   0  0  2  0  0  0  0  0  0  0  0  0
  145.7934  139.7885  155.6869 C   0  0  0  0  0  0  0  0  0  0  0  0
  147.1302  140.1764  155.3969 O   0  0  0  0  0  0  0  0  0  0  0  0
  150.2411  142.8956  156.5336 N   0  0  0  0  0  0  0  0  0  0  0  0
  151.1811  143.1107  157.5770 C   0  0  0  0  0  0  0  0  0  0  0  0
  151.4394  144.4669  157.8800 C   0  0  0  0  0  0  0  0  0  0  0  0
  152.3537  144.7865  158.9024 C   0  0  0  0  0  0  0  0  0  0  0  0
  152.9884  143.7408  159.5960 C   0  0  0  0  0  0  0  0  0  0  0  0
  152.6764  142.4183  159.2308 C   0  0  0  0  0  0  0  0  0  0  0  0
  151.8003  142.1094  158.2513 N   0  0  0  0  0  0  0  0  0  0  0  0
  148.5551  142.8150  154.9184 H   0  0  0  0  0  0  0  0  0  0  0  0
  148.8576  141.4661  152.8394 H   0  0  0  0  0  0  0  0  0  0  0  0
  149.4544  140.1827  153.8642 H   0  0  0  0  0  0  0  0  0  0  0  0
  146.6045  141.2756  153.7312 H   0  0  0  0  0  0  0  0  0  0  0  0
  147.1522  139.4512  152.1282 H   0  0  0  0  0  0  0  0  0  0  0  0
  147.7593  138.4511  153.4373 H   0  0  0  0  0  0  0  0  0  0  0  0
  145.4955  137.7627  151.5713 H   0  0  0  0  0  0  0  0  0  0  0  0
  146.0062  136.7205  152.8851 H   0  0  0  0  0  0  0  0  0  0  0  0
  143.2041  137.8887  152.4694 H   0  0  0  0  0  0  0  0  0  0  0  0
  143.6575  136.2136  152.2616 H   0  0  0  0  0  0  0  0  0  0  0  0
  142.5424  136.6088  154.4776 H   0  0  0  0  0  0  0  0  0  0  0  0
  144.1699  135.9954  154.6699 H   0  0  0  0  0  0  0  0  0  0  0  0
  143.2986  138.9160  154.9018 H   0  0  0  0  0  0  0  0  0  0  0  0
  143.8205  137.8876  156.2145 H   0  0  0  0  0  0  0  0  0  0  0  0
  146.0893  137.7088  155.2271 H   0  0  0  0  0  0  0  0  0  0  0  0
  145.1091  140.6061  155.4532 H   0  0  0  0  0  0  0  0  0  0  0  0
  145.7107  139.6030  156.7582 H   0  0  0  0  0  0  0  0  0  0  0  0
  149.5488  143.6209  156.4186 H   0  0  0  0  0  0  0  0  0  0  0  0
  150.9425  145.2587  157.3382 H   0  0  0  0  0  0  0  0  0  0  0  0
  152.5636  145.8166  159.1497 H   0  0  0  0  0  0  0  0  0  0  0  0
  153.6956  143.9463  160.3861 H   0  0  0  0  0  0  0  0  0  0  0  0
  153.1424  141.5862  159.7374 H   0  0  0  0  0  0  0  0  0  0  0  0
  145.0326  139.4677  153.1554 H   0  0  0  0  0  0  0  0  0  0  0  0
  1  2  2  0  0  0  0
  2  3  1  0  0  0  0
  2 15  1  0  0  0  0
  3  4  1  0  0  0  0
  3 22  1  0  0  0  0
  4  5  1  0  0  0  0
  4 23  1  0  0  0  0
  4 24  1  0  0  0  0
  5 14  1  0  0  0  0
  5  6  1  0  0  0  0
  5 25  1  0  0  0  0
  6  7  1  0  0  0  0
  6 26  1  0  0  0  0
  6 27  1  0  0  0  0
  7 12  1  0  0  0  0
  7  8  1  0  0  0  0
  7 44  1  0  0  0  0
  8  9  1  0  0  0  0
  8 28  1  0  0  0  0
  8 29  1  0  0  0  0
  9 10  1  0  0  0  0
  9 30  1  0  0  0  0
  9 31  1  0  0  0  0
 10 11  1  0  0  0  0
 10 32  1  0  0  0  0
 10 33  1  0  0  0  0
 11 12  1  0  0  0  0
 11 34  1  0  0  0  0
 11 35  1  0  0  0  0
 12 13  1  0  0  0  0
 12 36  1  0  0  0  0
 13 14  1  0  0  0  0
 13 37  1  0  0  0  0
 13 38  1  0  0  0  0
 15 16  1  0  0  0  0
 15 39  1  0  0  0  0
 16 21  1  0  0  0  0
 16 17  2  0  0  0  0
 17 18  1  0  0  0  0
 17 40  1  0  0  0  0
 18 19  2  0  0  0  0
 18 41  1  0  0  0  0
 19 20  1  0  0  0  0
 19 42  1  0  0  0  0
 20 21  2  0  0  0  0
 20 43  1  0  0  0  0
M  CHG  1   7   1
M  END
> <s_m_source_file>
AV-unprocessed.smi

> <i_m_source_file_index>
2528

> <i_lp_mmshare_version>
43012

> <i_f3d_flags>
0

> <s_epik_input>
bjFbY0hdW2NIXVtjSF1bY0hdYzFbTkhdQyg9TylbTkhdW0NIMl1bQ0BIXShbQ0gyXTIpT1tDSDJdW0NAQEhdKE4yMylbQ0gyXVtDSDJdW0NIMl1bQ0gyXTM=

> <s_epik_cmdline>
J2VwaWtfcHl0aG9uJywgJy1waCcsICc3LjAnLCAnLXRuJywgJzgnLCAnLW1hJywgJzIwMCcsICctbWV0YWxfYmluZGluZycsICctaW1hZScsICc8aW5maWxlLm1hZT4nLCAnLW9tYWUnLCAnPG91dGZpbGUubWFlPic=

> <r_epik_Ionization_Penalty>
0.0932337

> <r_epik_Ionization_Penalty_Charging>
0.0931942

> <r_epik_Ionization_Penalty_Neutral>
3.9565e-05

> <r_epik_State_Penalty>
0.0834605

> <r_epik_Charging_Adjusted_Penalty>
0.176655

> <i_epik_Tot_Q>
1

> <i_epik_Tot_abs_Q>
1

> <r_epik_Metal_State_Penalty>
0.0834607

> <b_epik_Metal_Only>
0

> <s_lp_Force_Field>
OPLS_2005

> <r_lp_Energy>
24.376

> <b_lp_Chiralities_Consistent>
1

> <s_lp_Variant>
AV-unprocessed.smi:2528-8

> <Gold.Version>
5.8.1

> <Gold.Id.Protein>
6NUR|6NUR_protein|mol2

> <Gold.PLP.Fitness>
48.7384

> <Gold.PLP.PLP>
-36.9538

> <Gold.PLP.part.hbond>
-3.9348

> <Gold.PLP.part.metal>
0.0000

> <Gold.PLP.part.buried>
-1.8987

> <Gold.PLP.part.nonpolar>
-31.4790

> <Gold.PLP.part.repulsive>
0.3608

> <Gold.PLP.ligand.clash>
0.0000

> <Gold.PLP.ligand.torsion>
0.2630

> <Gold.PLP.Chemscore.Hbond>
4.1034

> <Gold.PLP.Chemscore.CHOScore>
0.0000

> <Gold.PLP.Chemscore.Metal>
0.0000

> <Gold.Chemscore.Hbonds>
donor molecule, donor type, donor heavy atom, donor atom, acceptor molecule, acceptor atom, score
      L1  H     3    22       P1  8028  0.66
      L1  H     7    44       P1 10175  2.00
      L1  H    15    39       P1  8028  0.89
      P1  H  7989  7998       L1     1  0.24

> <Gold.PLP.Chemscore.Internal.Correction>
0.0002

> <Gold.Rescore>
     Score         DG    S(hbond)    S(metal)    S(lipo)     H(rot)  DE(clash)    DE(int)     intcor
     19.81     -21.35       2.84        0.00      82.89       1.29       0.17       1.37       ----

> <Gold.Chemscore.Fitness>
19.8079

> <Gold.Chemscore.DG>
-21.3540

> <Gold.Chemscore.ZeroCoef>
-5.4800

> <Gold.Chemscore.Hbond>
2.8355

> <Gold.Chemscore.Metal>
0.0000

> <Gold.Chemscore.Lipo>
82.8911

> <Gold.Chemscore.Internal_Hbond>
0.0000

> <Gold.Chemscore.DEClash>
0.1748

> <Gold.Chemscore.DEInternal>
1.3713

> <Gold.Chemscore.Rot>
1.2870

> <Gold.Chemscore.Internal.Correction>
   9.000000E+99

> <Gold.Chemscore.Hbonds>
donor molecule, donor type, donor heavy atom, donor atom, acceptor molecule, acceptor atom, score
      L1  H     3    22       P1  8028  0.63
      L1  H     7    44       P1 10175  1.00
      L1  H    15    39       P1  8028  0.85
      P1  H  7989  7998       L1     1  0.08

> <Gold.Chemscore.Hbond.Weighted>
-9.4706

> <Gold.Chemscore.Metal.Weighted>
-0.0000

> <Gold.Chemscore.Lipo.Weighted>
-9.6983

> <Gold.Chemscore.Internal_Hbond.Weighted>
0.0000

> <Gold.Chemscore.DEClash.Weighted>
0.1748

> <Gold.Chemscore.DEInternal.Weighted>
1.3713

> <Gold.Chemscore.Rot.Weighted>
3.2948

> <Gold.Chemscore.Internal.Correction.Weighted>
   9.000000E+99

> <Gold.Protein.RotatedTorsions>
[ 6907 6896 6895 6894 ] final  151.22 input  -60.11 | X-H torsion
[ 7974 7965 7964 7962 ] final  -56.58 input  175.53 | X-H torsion
[ 8008 7997 7996 7995 ] final  -97.60 input   59.86 | X-H torsion
[ 10167 10162 10161 10158 ] final  156.02 input  -65.29 | X-H torsion
[ 10718 10713 10712 10709 ] final  -14.23 input   66.30 | X-H torsion
[ 10763 10752 10751 10750 ] final -161.95 input  -60.55 | X-H torsion
[ 11005 11000 10999 10996 ] final  150.97 input  -57.11 | X-H torsion

> <Gold.Protein.ActiveResidues>
 VAL166  LYS551  ARG553  GLY616  TRP617  ASP618  TYR619  PRO620  LYS621  CYS622 
 ASP623  PHE694  ASN695  SER759  ASP760  ASP761  ALA762  ILE779  LEU786  VAL792 
 PHE793  MET794  SER795  GLU796  ALA797  LYS798  CYS799  TRP800  GLU811  SER814 

> <Gold.Protein.RotatedAtoms>
  152.1037  133.4263  159.4598 H   0  0  0  0  0  0  0  0  0  0  0  0  # atno 6907 bound_to 6896
  150.6865  134.2730  159.4605 H   0  0  0  0  0  0  0  0  0  0  0  0  # atno 6908 bound_to 6896
  152.0593  134.9604  160.0625 H   0  0  0  0  0  0  0  0  0  0  0  0  # atno 6909 bound_to 6896
  145.8610  140.8285  142.9937 H   0  0  0  0  0  0  0  0  0  0  0  0  # atno 7974 bound_to 7965
  154.7900  140.0462  157.1193 H   0  0  0  0  0  0  0  0  0  0  0  0  # atno 8008 bound_to 7997
  154.9602  140.3076  155.5014 H   0  0  0  0  0  0  0  0  0  0  0  0  # atno 8009 bound_to 7997
  156.2948  140.2272  156.4687 H   0  0  0  0  0  0  0  0  0  0  0  0  # atno 8010 bound_to 7997
  139.4821  144.5046  151.8117 H   0  0  0  0  0  0  0  0  0  0  0  0  # atno 10167 bound_to 10162
  156.6189  130.4870  149.6172 H   0  0  0  0  0  0  0  0  0  0  0  0  # atno 10718 bound_to 10713
  154.7258  135.3035  154.8973 H   0  0  0  0  0  0  0  0  0  0  0  0  # atno 10763 bound_to 10752
  153.9830  135.6728  153.4755 H   0  0  0  0  0  0  0  0  0  0  0  0  # atno 10764 bound_to 10752
  153.0874  135.4977  154.8542 H   0  0  0  0  0  0  0  0  0  0  0  0  # atno 10765 bound_to 10752
  140.1178  134.8883  157.2028 H   0  0  0  0  0  0  0  0  0  0  0  0  # atno 11005 bound_to 11000
  144.6726  140.1095  143.7456 LP  0  0  0  0  0  0  0  0  0  0  0  0  # atno 17320 bound_to 7965
  145.9248  139.2569  143.1360 LP  0  0  0  0  0  0  0  0  0  0  0  0  # atno 17321 bound_to 7965
  140.4543  144.1811  150.5900 LP  0  0  0  0  0  0  0  0  0  0  0  0  # atno 17342 bound_to 10162
  140.4552  143.2470  151.9294 LP  0  0  0  0  0  0  0  0  0  0  0  0  # atno 17343 bound_to 10162
  156.2328  130.6805  151.1480 LP  0  0  0  0  0  0  0  0  0  0  0  0  # atno 17370 bound_to 10713
  157.7233  131.0667  150.6041 LP  0  0  0  0  0  0  0  0  0  0  0  0  # atno 17371 bound_to 10713
  140.3005  134.3136  155.7291 LP  0  0  0  0  0  0  0  0  0  0  0  0  # atno 17394 bound_to 11000
  141.2145  133.7589  156.9634 LP  0  0  0  0  0  0  0  0  0  0  0  0  # atno 17395 bound_to 11000

$$$$
