AV-unprocessed.smi:3274|AV-procd|sdf|12524|dock3
  -GOLD-   2272018433D 1   1.00000     0.00000
 Structure written by MMmdl.
 43 44  0  0  0  0  0  0  0  0  2 V2000
  153.7866  140.6114  160.5957 C   0  0  0  0  0  0  0  0  0  0  0  0
  153.0447  141.9336  160.7039 C   0  0  0  0  0  0  0  0  0  0  0  0
  153.0211  142.5916  161.8788 C   0  0  0  0  0  0  0  0  0  0  0  0
  152.3811  143.9450  162.0858 C   0  0  0  0  0  0  0  0  0  0  0  0
  152.2101  144.6824  160.7557 C   0  0  0  0  0  0  0  0  0  0  0  0
  151.5452  143.7852  159.6994 C   0  0  1  0  0  0  0  0  0  0  0  0
  151.2961  144.6019  158.4160 C   0  0  0  0  0  0  0  0  0  0  0  0
  152.3621  142.4825  159.4342 C   0  0  2  0  0  0  0  0  0  0  0  0
  151.4717  141.4296  158.7238 C   0  0  0  0  0  0  0  0  0  0  0  0
  152.2495  140.4821  157.8958 N   0  3  0  0  0  0  0  0  0  0  0  0
  151.5499  139.9833  156.6905 C   0  0  2  0  0  0  0  0  0  0  0  0
  152.5022  139.0920  155.8825 C   0  0  0  0  0  0  0  0  0  0  0  0
  151.0279  141.1518  155.8283 C   0  0  0  0  0  0  0  0  0  0  0  0
  149.9717  140.7521  154.9160 N   0  0  0  0  0  0  0  0  0  0  0  0
  148.8543  141.3818  154.5500 C   0  0  0  0  0  0  0  0  0  0  0  0
  148.1248  140.7078  153.6721 N   0  0  0  0  0  0  0  0  0  0  0  0
  148.8992  139.5900  153.5392 C   0  0  0  0  0  0  0  0  0  0  0  0
  150.0216  139.5696  154.2583 N   0  0  0  0  0  0  0  0  0  0  0  0
  154.4782  140.6291  159.7530 H   0  0  0  0  0  0  0  0  0  0  0  0
  153.0904  139.7826  160.4681 H   0  0  0  0  0  0  0  0  0  0  0  0
  154.3691  140.4094  161.4952 H   0  0  0  0  0  0  0  0  0  0  0  0
  153.4941  142.1592  162.7489 H   0  0  0  0  0  0  0  0  0  0  0  0
  151.4187  143.8051  162.5791 H   0  0  0  0  0  0  0  0  0  0  0  0
  153.0034  144.5366  162.7579 H   0  0  0  0  0  0  0  0  0  0  0  0
  151.6200  145.5852  160.9181 H   0  0  0  0  0  0  0  0  0  0  0  0
  153.1849  145.0120  160.3930 H   0  0  0  0  0  0  0  0  0  0  0  0
  150.5716  143.4977  160.1000 H   0  0  0  0  0  0  0  0  0  0  0  0
  152.2338  144.8784  157.9329 H   0  0  0  0  0  0  0  0  0  0  0  0
  150.7582  145.5239  158.6389 H   0  0  0  0  0  0  0  0  0  0  0  0
  150.6947  144.0600  157.6887 H   0  0  0  0  0  0  0  0  0  0  0  0
  153.1775  142.7475  158.7589 H   0  0  0  0  0  0  0  0  0  0  0  0
  150.8887  140.8758  159.4609 H   0  0  0  0  0  0  0  0  0  0  0  0
  150.7493  141.9142  158.0707 H   0  0  0  0  0  0  0  0  0  0  0  0
  153.1067  140.9299  157.6036 H   0  0  0  0  0  0  0  0  0  0  0  0
  150.7048  139.3628  156.9939 H   0  0  0  0  0  0  0  0  0  0  0  0
  152.0042  138.6808  155.0038 H   0  0  0  0  0  0  0  0  0  0  0  0
  152.8573  138.2523  156.4810 H   0  0  0  0  0  0  0  0  0  0  0  0
  153.3748  139.6492  155.5395 H   0  0  0  0  0  0  0  0  0  0  0  0
  150.6603  141.9618  156.4605 H   0  0  0  0  0  0  0  0  0  0  0  0
  151.8416  141.5686  155.2333 H   0  0  0  0  0  0  0  0  0  0  0  0
  148.5719  142.3541  154.9270 H   0  0  0  0  0  0  0  0  0  0  0  0
  148.6327  138.7719  152.8864 H   0  0  0  0  0  0  0  0  0  0  0  0
  152.4847  139.6905  158.4773 H   0  0  0  0  0  0  0  0  0  0  0  0
  1  2  1  0  0  0  0
  1 19  1  0  0  0  0
  1 20  1  0  0  0  0
  1 21  1  0  0  0  0
  2  8  1  0  0  0  0
  2  3  2  0  0  0  0
  3  4  1  0  0  0  0
  3 22  1  0  0  0  0
  4  5  1  0  0  0  0
  4 23  1  0  0  0  0
  4 24  1  0  0  0  0
  5  6  1  0  0  0  0
  5 25  1  0  0  0  0
  5 26  1  0  0  0  0
  6  7  1  0  0  0  0
  6  8  1  0  0  0  0
  6 27  1  0  0  0  0
  7 28  1  0  0  0  0
  7 29  1  0  0  0  0
  7 30  1  0  0  0  0
  8  9  1  0  0  0  0
  8 31  1  0  0  0  0
  9 10  1  0  0  0  0
  9 32  1  0  0  0  0
  9 33  1  0  0  0  0
 10 11  1  0  0  0  0
 10 34  1  0  0  0  0
 10 43  1  0  0  0  0
 11 12  1  0  0  0  0
 11 13  1  0  0  0  0
 11 35  1  0  0  0  0
 12 36  1  0  0  0  0
 12 37  1  0  0  0  0
 12 38  1  0  0  0  0
 13 14  1  0  0  0  0
 13 39  1  0  0  0  0
 13 40  1  0  0  0  0
 14 18  1  0  0  0  0
 14 15  1  0  0  0  0
 15 16  2  0  0  0  0
 15 41  1  0  0  0  0
 16 17  1  0  0  0  0
 17 18  2  0  0  0  0
 17 42  1  0  0  0  0
M  CHG  1  10   1
M  END
> <s_m_source_file>
AV-unprocessed.smi

> <i_m_source_file_index>
3274

> <i_lp_mmshare_version>
43012

> <i_f3d_flags>
0

> <s_epik_input>
W0NIM11DMT1bQ0hdW0NIMl1bQ0gyXVtDQEBIXShbQ0gzXSlbQ0BIXTFbQ0gyXVtOSF1bQ0BIXShbQ0gzXSlbQ0gyXW4yW2NIXW5bY0hdbjI=

> <s_epik_cmdline>
J2VwaWtfcHl0aG9uJywgJy1waCcsICc3LjAnLCAnLXRuJywgJzgnLCAnLW1hJywgJzIwMCcsICctbWV0YWxfYmluZGluZycsICctaW1hZScsICc8aW5maWxlLm1hZT4nLCAnLW9tYWUnLCAnPG91dGZpbGUubWFlPic=

> <r_lp_tautomer_probability>
1

> <r_epik_Ionization_Penalty>
0.0017527

> <r_epik_Ionization_Penalty_Charging>
0.00175191

> <r_epik_Ionization_Penalty_Neutral>
7.94565e-07

> <r_epik_State_Penalty>
0.00118605

> <r_epik_Charging_Adjusted_Penalty>
0.00293796

> <i_epik_Tot_Q>
1

> <i_epik_Tot_abs_Q>
1

> <r_epik_Metal_State_Penalty>
-0

> <b_epik_Metal_Only>
0

> <s_lp_Force_Field>
OPLS_2005

> <r_lp_Energy>
18.1094

> <b_lp_Chiralities_Consistent>
1

> <s_lp_Variant>
AV-unprocessed.smi:3274-3

> <Gold.Version>
5.8.1

> <Gold.Id.Protein>
6NUR|6NUR_protein|mol2

> <Gold.PLP.Fitness>
46.5157

> <Gold.PLP.PLP>
-43.4285

> <Gold.PLP.part.hbond>
-0.2247

> <Gold.PLP.part.metal>
0.0000

> <Gold.PLP.part.buried>
-0.9170

> <Gold.PLP.part.nonpolar>
-42.3625

> <Gold.PLP.part.repulsive>
0.3802

> <Gold.PLP.ligand.clash>
0.0000

> <Gold.PLP.ligand.torsion>
0.9236

> <Gold.PLP.Chemscore.Hbond>
0.0000

> <Gold.PLP.Chemscore.CHOScore>
1.6010

> <Gold.PLP.Chemscore.Metal>
0.0000

> <Gold.Chemscore.Hbonds>
donor molecule, donor type, donor heavy atom, donor atom, acceptor molecule, acceptor atom, score
      L1  C    15    41       P1  8028  1.00
      L1  C    17    42       P1  7948  0.51
      L1  C    17    42       P1  7957  0.14

> <Gold.PLP.Chemscore.Internal.Correction>
0.1312

> <Gold.Rescore>
     Score         DG    S(hbond)    S(metal)    S(lipo)     H(rot)  DE(clash)    DE(int)     intcor
     11.99     -13.16       0.00        0.00     117.28       2.36       0.12       1.04       ----

> <Gold.Chemscore.Fitness>
11.9878

> <Gold.Chemscore.DG>
-13.1558

> <Gold.Chemscore.ZeroCoef>
-5.4800

> <Gold.Chemscore.Hbond>
0.0000

> <Gold.Chemscore.Metal>
0.0000

> <Gold.Chemscore.Lipo>
117.2756

> <Gold.Chemscore.Internal_Hbond>
0.0000

> <Gold.Chemscore.DEClash>
0.1231

> <Gold.Chemscore.DEInternal>
1.0449

> <Gold.Chemscore.Rot>
2.3615

> <Gold.Chemscore.Internal.Correction>
   9.000000E+99

> <Gold.Chemscore.Hbond.Weighted>
-0.0000

> <Gold.Chemscore.Metal.Weighted>
-0.0000

> <Gold.Chemscore.Lipo.Weighted>
-13.7212

> <Gold.Chemscore.Internal_Hbond.Weighted>
0.0000

> <Gold.Chemscore.DEClash.Weighted>
0.1231

> <Gold.Chemscore.DEInternal.Weighted>
1.0449

> <Gold.Chemscore.Rot.Weighted>
6.0454

> <Gold.Chemscore.Internal.Correction.Weighted>
   9.000000E+99

> <Gold.Protein.RotatedTorsions>
[ 6907 6896 6895 6894 ] final   54.89 input  -60.11 | X-H torsion
[ 7974 7965 7964 7962 ] final  -19.47 input  175.53 | X-H torsion
[ 8008 7997 7996 7995 ] final   71.85 input   59.86 | X-H torsion
[ 10167 10162 10161 10158 ] final   28.13 input  -65.29 | X-H torsion
[ 10718 10713 10712 10709 ] final -154.03 input   66.30 | X-H torsion
[ 10763 10752 10751 10750 ] final -108.70 input  -60.55 | X-H torsion
[ 11005 11000 10999 10996 ] final  153.69 input  -57.11 | X-H torsion

> <Gold.Protein.ActiveResidues>
 VAL166  LYS551  ARG553  GLY616  TRP617  ASP618  TYR619  PRO620  LYS621  CYS622 
 ASP623  PHE694  ASN695  SER759  ASP760  ASP761  ALA762  ILE779  LEU786  VAL792 
 PHE793  MET794  SER795  GLU796  ALA797  LYS798  CYS799  TRP800  GLU811  SER814 

> <Gold.Protein.RotatedAtoms>
  152.3484  134.7039  160.0243 H   0  0  0  0  0  0  0  0  0  0  0  0  # atno 6907 bound_to 6896
  151.7401  133.3316  159.3371 H   0  0  0  0  0  0  0  0  0  0  0  0  # atno 6908 bound_to 6896
  150.7524  134.6219  159.6185 H   0  0  0  0  0  0  0  0  0  0  0  0  # atno 6909 bound_to 6896
  146.1839  140.4067  142.8484 H   0  0  0  0  0  0  0  0  0  0  0  0  # atno 7974 bound_to 7965
  155.7600  140.3487  155.5193 H   0  0  0  0  0  0  0  0  0  0  0  0  # atno 8008 bound_to 7997
  155.8923  140.1020  157.1431 H   0  0  0  0  0  0  0  0  0  0  0  0  # atno 8009 bound_to 7997
  154.4035  140.1302  156.4318 H   0  0  0  0  0  0  0  0  0  0  0  0  # atno 8010 bound_to 7997
  140.4879  144.0513  150.6287 H   0  0  0  0  0  0  0  0  0  0  0  0  # atno 10167 bound_to 10162
  156.4938  130.8360  151.2581 H   0  0  0  0  0  0  0  0  0  0  0  0  # atno 10718 bound_to 10713
  154.8150  135.4628  154.0620 H   0  0  0  0  0  0  0  0  0  0  0  0  # atno 10763 bound_to 10752
  153.2020  135.6870  153.8227 H   0  0  0  0  0  0  0  0  0  0  0  0  # atno 10764 bound_to 10752
  153.7708  135.3270  155.3328 H   0  0  0  0  0  0  0  0  0  0  0  0  # atno 10765 bound_to 10752
  140.1421  134.8732  157.2344 H   0  0  0  0  0  0  0  0  0  0  0  0  # atno 11005 bound_to 11000
  144.8363  140.6787  143.6258 LP  0  0  0  0  0  0  0  0  0  0  0  0  # atno 17320 bound_to 7965
  145.3995  139.1600  143.4185 LP  0  0  0  0  0  0  0  0  0  0  0  0  # atno 17321 bound_to 7965
  140.3774  143.2821  152.0210 LP  0  0  0  0  0  0  0  0  0  0  0  0  # atno 17342 bound_to 10162
  139.4845  144.6182  151.7305 LP  0  0  0  0  0  0  0  0  0  0  0  0  # atno 17343 bound_to 10162
  157.7471  131.0004  150.2926 LP  0  0  0  0  0  0  0  0  0  0  0  0  # atno 17370 bound_to 10713
  156.3400  130.3814  149.7417 LP  0  0  0  0  0  0  0  0  0  0  0  0  # atno 17371 bound_to 10713
  140.2709  134.3461  155.7374 LP  0  0  0  0  0  0  0  0  0  0  0  0  # atno 17394 bound_to 11000
  141.2187  133.7423  156.9221 LP  0  0  0  0  0  0  0  0  0  0  0  0  # atno 17395 bound_to 11000

$$$$
