AV-unprocessed.smi:2069|AV-procd|sdf|8435|dock3
  -GOLD-   2272011133D 1   1.00000     0.00000
 Structure written by MMmdl.
 37 38  0  0  0  0  0  0  0  0  2 V2000
  145.0193  134.7108  161.7300 C   0  0  0  0  0  0  0  0  0  0  0  0
  146.1301  135.3384  160.9598 C   0  0  0  0  0  0  0  0  0  0  0  0
  146.3533  136.6547  160.9577 N   0  0  0  0  0  0  0  0  0  0  0  0
  147.4388  136.9997  160.1656 N   0  0  0  0  0  0  0  0  0  0  0  0
  148.0139  135.9440  159.5727 C   0  0  0  0  0  0  0  0  0  0  0  0
  149.0821  136.0646  158.7670 N   0  5  0  0  0  0  0  0  0  0  0  0
  149.4467  137.2822  158.3048 C   0  0  0  0  0  0  0  0  0  0  0  0
  148.8274  138.3377  158.4583 O   0  0  0  0  0  0  0  0  0  0  0  0
  150.5979  137.2758  157.6175 N   0  0  0  0  0  0  0  0  0  0  0  0
  151.2267  138.4350  156.9881 C   0  0  0  0  0  0  0  0  0  0  0  0
  152.3788  139.0525  157.8343 C   0  0  2  0  0  0  0  0  0  0  0  0
  153.0867  137.9185  158.6189 C   0  0  0  0  0  0  0  0  0  0  0  0
  151.9356  140.1627  158.7104 N   0  0  0  0  0  0  0  0  0  0  0  0
  151.3456  141.2776  157.9605 C   0  0  0  0  0  0  0  0  0  0  0  0
  150.9190  142.4470  158.8648 C   0  0  0  0  0  0  0  0  0  0  0  0
  152.0332  142.9030  159.6196 O   0  0  0  0  0  0  0  0  0  0  0  0
  152.5887  141.8714  160.4231 C   0  0  0  0  0  0  0  0  0  0  0  0
  153.0286  140.6985  159.5302 C   0  0  0  0  0  0  0  0  0  0  0  0
  147.2485  134.4075  159.9779 S   0  0  0  0  0  0  0  0  0  0  0  0
  144.0768  134.8442  161.1987 H   0  0  0  0  0  0  0  0  0  0  0  0
  144.9359  135.1703  162.7153 H   0  0  0  0  0  0  0  0  0  0  0  0
  145.2022  133.6438  161.8579 H   0  0  0  0  0  0  0  0  0  0  0  0
  151.0723  136.3904  157.5180 H   0  0  0  0  0  0  0  0  0  0  0  0
  151.5678  138.1091  156.0064 H   0  0  0  0  0  0  0  0  0  0  0  0
  150.4538  139.1836  156.8123 H   0  0  0  0  0  0  0  0  0  0  0  0
  153.1106  139.4557  157.1325 H   0  0  0  0  0  0  0  0  0  0  0  0
  153.3671  137.0822  157.9797 H   0  0  0  0  0  0  0  0  0  0  0  0
  152.4446  137.5260  159.4081 H   0  0  0  0  0  0  0  0  0  0  0  0
  154.0185  138.2493  159.0748 H   0  0  0  0  0  0  0  0  0  0  0  0
  152.0533  141.6365  157.2117 H   0  0  0  0  0  0  0  0  0  0  0  0
  150.4546  140.9541  157.4267 H   0  0  0  0  0  0  0  0  0  0  0  0
  150.5365  143.2707  158.2619 H   0  0  0  0  0  0  0  0  0  0  0  0
  150.1147  142.1423  159.5362 H   0  0  0  0  0  0  0  0  0  0  0  0
  153.4419  142.2696  160.9720 H   0  0  0  0  0  0  0  0  0  0  0  0
  151.8578  141.5411  161.1631 H   0  0  0  0  0  0  0  0  0  0  0  0
  153.4276  139.9294  160.1889 H   0  0  0  0  0  0  0  0  0  0  0  0
  153.8485  141.0221  158.8871 H   0  0  0  0  0  0  0  0  0  0  0  0
  1  2  1  0  0  0  0
  1 20  1  0  0  0  0
  1 21  1  0  0  0  0
  1 22  1  0  0  0  0
  2 19  1  0  0  0  0
  2  3  2  0  0  0  0
  3  4  1  0  0  0  0
  4  5  2  0  0  0  0
  5  6  1  0  0  0  0
  5 19  1  0  0  0  0
  6  7  1  0  0  0  0
  7  8  2  0  0  0  0
  7  9  1  0  0  0  0
  9 10  1  0  0  0  0
  9 23  1  0  0  0  0
 10 11  1  0  0  0  0
 10 24  1  0  0  0  0
 10 25  1  0  0  0  0
 11 12  1  0  0  0  0
 11 13  1  0  0  0  0
 11 26  1  0  0  0  0
 12 27  1  0  0  0  0
 12 28  1  0  0  0  0
 12 29  1  0  0  0  0
 13 18  1  0  0  0  0
 13 14  1  0  0  0  0
 14 15  1  0  0  0  0
 14 30  1  0  0  0  0
 14 31  1  0  0  0  0
 15 16  1  0  0  0  0
 15 32  1  0  0  0  0
 15 33  1  0  0  0  0
 16 17  1  0  0  0  0
 17 18  1  0  0  0  0
 17 34  1  0  0  0  0
 17 35  1  0  0  0  0
 18 36  1  0  0  0  0
 18 37  1  0  0  0  0
M  CHG  1   6  -1
M  END
> <s_m_source_file>
AV-unprocessed.smi

> <i_m_source_file_index>
2069

> <i_lp_mmshare_version>
43012

> <i_f3d_flags>
0

> <s_epik_input>
W0NIM11jMW5uYyhzMSlbTkhdQyg9TylbTkhdW0NIMl1bQ0BIXShbQ0gzXSlOMltDSDJdW0NIMl1PW0NIMl1bQ0gyXTI=

> <s_epik_cmdline>
J2VwaWtfcHl0aG9uJywgJy1waCcsICc3LjAnLCAnLXRuJywgJzgnLCAnLW1hJywgJzIwMCcsICctbWV0YWxfYmluZGluZycsICctaW1hZScsICc8aW5maWxlLm1hZT4nLCAnLW9tYWUnLCAnPG91dGZpbGUubWFlPic=

> <r_lp_tautomer_probability>
1

> <r_epik_Ionization_Penalty>
3.82002

> <r_epik_Ionization_Penalty_Charging>
3.36369

> <r_epik_Ionization_Penalty_Neutral>
0.456339

> <r_epik_State_Penalty>
3.571

> <r_epik_Charging_Adjusted_Penalty>
6.93469

> <i_epik_Tot_Q>
-1

> <i_epik_Tot_abs_Q>
1

> <r_epik_Metal_State_Penalty>
0.710436

> <b_epik_Metal_Only>
1

> <s_lp_Force_Field>
OPLS_2005

> <r_lp_Energy>
26.0796

> <b_lp_Chiralities_Consistent>
1

> <s_lp_Variant>
AV-unprocessed.smi:2069-5

> <Gold.Version>
5.8.1

> <Gold.Id.Protein>
6NUR|6NUR_protein|mol2

> <Gold.PLP.Fitness>
38.9699

> <Gold.PLP.PLP>
-30.0484

> <Gold.PLP.part.hbond>
-4.6755

> <Gold.PLP.part.metal>
0.0000

> <Gold.PLP.part.buried>
-5.9033

> <Gold.PLP.part.nonpolar>
-20.6445

> <Gold.PLP.part.repulsive>
0.0979

> <Gold.PLP.ligand.clash>
0.0000

> <Gold.PLP.ligand.torsion>
0.5894

> <Gold.PLP.Chemscore.Hbond>
3.3240

> <Gold.PLP.Chemscore.CHOScore>
0.0000

> <Gold.PLP.Chemscore.Metal>
0.0000

> <Gold.Chemscore.Hbonds>
donor molecule, donor type, donor heavy atom, donor atom, acceptor molecule, acceptor atom, score
      P1  H  6896  6908       L1     6  0.59
      P1  H  6934  6947       L1     4  0.23

> <Gold.PLP.Chemscore.Internal.Correction>
0.1284

> <Gold.Rescore>
     Score         DG    S(hbond)    S(metal)    S(lipo)     H(rot)  DE(clash)    DE(int)     intcor
     10.84     -13.12       0.95        0.00      72.74       1.57       0.05       2.23       ----

> <Gold.Chemscore.Fitness>
10.8373

> <Gold.Chemscore.DG>
-13.1217

> <Gold.Chemscore.ZeroCoef>
-5.4800

> <Gold.Chemscore.Hbond>
0.9458

> <Gold.Chemscore.Metal>
0.0000

> <Gold.Chemscore.Lipo>
72.7357

> <Gold.Chemscore.Internal_Hbond>
0.0000

> <Gold.Chemscore.DEClash>
0.0515

> <Gold.Chemscore.DEInternal>
2.2329

> <Gold.Chemscore.Rot>
1.5732

> <Gold.Chemscore.Internal.Correction>
   9.000000E+99

> <Gold.Chemscore.Hbonds>
donor molecule, donor type, donor heavy atom, donor atom, acceptor molecule, acceptor atom, score
      P1  H  6896  6908       L1     6  0.17

> <Gold.Chemscore.Hbond.Weighted>
-3.1591

> <Gold.Chemscore.Metal.Weighted>
-0.0000

> <Gold.Chemscore.Lipo.Weighted>
-8.5101

> <Gold.Chemscore.Internal_Hbond.Weighted>
0.0000

> <Gold.Chemscore.DEClash.Weighted>
0.0515

> <Gold.Chemscore.DEInternal.Weighted>
2.2329

> <Gold.Chemscore.Rot.Weighted>
4.0274

> <Gold.Chemscore.Internal.Correction.Weighted>
   9.000000E+99

> <Gold.Protein.RotatedTorsions>
[ 6907 6896 6895 6894 ] final  168.53 input  -60.11 | X-H torsion
[ 7974 7965 7964 7962 ] final -139.88 input  175.53 | X-H torsion
[ 8008 7997 7996 7995 ] final  101.30 input   59.86 | X-H torsion
[ 10167 10162 10161 10158 ] final -121.41 input  -65.29 | X-H torsion
[ 10718 10713 10712 10709 ] final  -91.75 input   66.30 | X-H torsion
[ 10763 10752 10751 10750 ] final   69.12 input  -60.55 | X-H torsion
[ 11005 11000 10999 10996 ] final   -3.30 input  -57.11 | X-H torsion

> <Gold.Protein.ActiveResidues>
 VAL166  LYS551  ARG553  GLY616  TRP617  ASP618  TYR619  PRO620  LYS621  CYS622 
 ASP623  PHE694  ASN695  SER759  ASP760  ASP761  ALA762  ILE779  LEU786  VAL792 
 PHE793  MET794  SER795  GLU796  ALA797  LYS798  CYS799  TRP800  GLU811  SER814 

> <Gold.Protein.RotatedAtoms>
  151.8461  133.3432  159.3658 H   0  0  0  0  0  0  0  0  0  0  0  0  # atno 6907 bound_to 6896
  150.7220  134.5344  159.5725 H   0  0  0  0  0  0  0  0  0  0  0  0  # atno 6908 bound_to 6896
  152.2828  134.7810  160.0444 H   0  0  0  0  0  0  0  0  0  0  0  0  # atno 6909 bound_to 6896
  144.8642  140.6267  143.5309 H   0  0  0  0  0  0  0  0  0  0  0  0  # atno 7974 bound_to 7965
  156.1286  140.3199  155.8314 H   0  0  0  0  0  0  0  0  0  0  0  0  # atno 8008 bound_to 7997
  155.4374  140.0523  157.3030 H   0  0  0  0  0  0  0  0  0  0  0  0  # atno 8009 bound_to 7997
  154.4881  140.2081  155.9622 H   0  0  0  0  0  0  0  0  0  0  0  0  # atno 8010 bound_to 7997
  140.0254  143.5302  152.2201 H   0  0  0  0  0  0  0  0  0  0  0  0  # atno 10167 bound_to 10162
  155.9996  130.4960  150.5522 H   0  0  0  0  0  0  0  0  0  0  0  0  # atno 10718 bound_to 10713
  153.0270  135.5222  154.7239 H   0  0  0  0  0  0  0  0  0  0  0  0  # atno 10763 bound_to 10752
  154.6287  135.2897  155.0245 H   0  0  0  0  0  0  0  0  0  0  0  0  # atno 10764 bound_to 10752
  154.1205  135.6608  153.4954 H   0  0  0  0  0  0  0  0  0  0  0  0  # atno 10765 bound_to 10752
  140.6679  133.9263  155.8476 H   0  0  0  0  0  0  0  0  0  0  0  0  # atno 11005 bound_to 11000
  145.4254  139.1557  143.4051 LP  0  0  0  0  0  0  0  0  0  0  0  0  # atno 17320 bound_to 7965
  146.2883  140.4367  142.8749 LP  0  0  0  0  0  0  0  0  0  0  0  0  # atno 17321 bound_to 7965
  139.6112  144.7609  151.2948 LP  0  0  0  0  0  0  0  0  0  0  0  0  # atno 17342 bound_to 10162
  140.7325  143.6822  150.7991 LP  0  0  0  0  0  0  0  0  0  0  0  0  # atno 17343 bound_to 10162
  157.3443  131.0722  151.1763 LP  0  0  0  0  0  0  0  0  0  0  0  0  # atno 17370 bound_to 10713
  157.2601  130.6655  149.5971 LP  0  0  0  0  0  0  0  0  0  0  0  0  # atno 17371 bound_to 10713
  141.0415  134.0614  157.3896 LP  0  0  0  0  0  0  0  0  0  0  0  0  # atno 17394 bound_to 11000
  139.8991  135.0157  156.7181 LP  0  0  0  0  0  0  0  0  0  0  0  0  # atno 17395 bound_to 11000

$$$$
