AV-unprocessed.smi:1965|AV-procd|sdf|7944|dock10
  -GOLD-   2272010113D 1   1.00000     0.00000
 Structure written by MMmdl.
 36 38  0  0  0  0  0  0  0  0  3 V2000
  151.5829  136.2741  155.3605 O   0  0  0  0  0  0  0  0  0  0  0  0
  150.7546  137.0507  154.8876 C   0  0  0  0  0  0  0  0  0  0  0  0
  151.0373  138.3345  154.5446 N   0  5  0  0  0  0  0  0  0  0  0  0
  150.4915  139.3888  155.1793 C   0  0  0  0  0  0  0  0  0  0  0  0
  150.5657  140.6414  154.7144 N   0  0  0  0  0  0  0  0  0  0  0  0
  149.9212  141.5750  155.5281 C   0  0  0  0  0  0  0  0  0  0  0  0
  149.3425  141.0202  156.6386 C   0  0  0  0  0  0  0  0  0  0  0  0
  149.5966  139.2994  156.6990 S   0  0  0  0  0  0  0  0  0  0  0  0
  149.4955  136.6186  154.6913 N   0  0  0  0  0  0  0  0  0  0  0  0
  148.9731  135.2915  154.9976 C   0  0  2  0  0  0  0  0  0  0  0  0
  149.7930  134.1443  154.3683 C   0  0  0  0  0  0  0  0  0  0  0  0
  148.7529  133.2117  153.7392 C   0  0  0  0  0  0  0  0  0  0  0  0
  147.6666  134.1257  153.3664 N   0  3  1  0  0  0  0  0  0  0  0  0
  146.3696  133.5435  152.9640 C   0  0  0  0  0  0  0  0  0  0  0  0
  145.4458  134.6812  152.4781 C   0  0  0  0  0  0  0  0  0  0  0  0
  145.3329  135.8243  153.5120 C   0  0  0  0  0  0  0  0  0  0  0  0
  146.7224  136.3089  153.9759 C   0  0  0  0  0  0  0  0  0  0  0  0
  147.5381  135.0974  154.4652 C   0  0  2  0  0  0  0  0  0  0  0  0
  149.9247  142.6157  155.2398 H   0  0  0  0  0  0  0  0  0  0  0  0
  148.7898  141.5153  157.4228 H   0  0  0  0  0  0  0  0  0  0  0  0
  148.8432  137.2818  154.2990 H   0  0  0  0  0  0  0  0  0  0  0  0
  148.9536  135.1759  156.0830 H   0  0  0  0  0  0  0  0  0  0  0  0
  150.4488  134.5311  153.5864 H   0  0  0  0  0  0  0  0  0  0  0  0
  150.4215  133.6320  155.0973 H   0  0  0  0  0  0  0  0  0  0  0  0
  149.1419  132.6664  152.8787 H   0  0  0  0  0  0  0  0  0  0  0  0
  148.3918  132.4901  154.4738 H   0  0  0  0  0  0  0  0  0  0  0  0
  146.5244  132.8174  152.1652 H   0  0  0  0  0  0  0  0  0  0  0  0
  145.9209  133.0111  153.8040 H   0  0  0  0  0  0  0  0  0  0  0  0
  145.8387  135.0854  151.5441 H   0  0  0  0  0  0  0  0  0  0  0  0
  144.4558  134.2864  152.2478 H   0  0  0  0  0  0  0  0  0  0  0  0
  144.7671  136.6561  153.0916 H   0  0  0  0  0  0  0  0  0  0  0  0
  144.7666  135.4728  154.3756 H   0  0  0  0  0  0  0  0  0  0  0  0
  147.2338  136.8074  153.1508 H   0  0  0  0  0  0  0  0  0  0  0  0
  146.6159  137.0448  154.7737 H   0  0  0  0  0  0  0  0  0  0  0  0
  146.9746  134.6122  155.2656 H   0  0  0  0  0  0  0  0  0  0  0  0
  148.0116  134.6472  152.5732 H   0  0  0  0  0  0  0  0  0  0  0  0
  1  2  2  0  0  0  0
  2  3  1  0  0  0  0
  2  9  1  0  0  0  0
  3  4  1  0  0  0  0
  4  8  1  0  0  0  0
  4  5  2  0  0  0  0
  5  6  1  0  0  0  0
  6  7  2  0  0  0  0
  6 19  1  0  0  0  0
  7  8  1  0  0  0  0
  7 20  1  0  0  0  0
  9 10  1  0  0  0  0
  9 21  1  0  0  0  0
 10 18  1  0  0  0  0
 10 11  1  0  0  0  0
 10 22  1  0  0  0  0
 11 12  1  0  0  0  0
 11 23  1  0  0  0  0
 11 24  1  0  0  0  0
 12 13  1  0  0  0  0
 12 25  1  0  0  0  0
 12 26  1  0  0  0  0
 13 18  1  0  0  0  0
 13 14  1  0  0  0  0
 13 36  1  0  0  0  0
 14 15  1  0  0  0  0
 14 27  1  0  0  0  0
 14 28  1  0  0  0  0
 15 16  1  0  0  0  0
 15 29  1  0  0  0  0
 15 30  1  0  0  0  0
 16 17  1  0  0  0  0
 16 31  1  0  0  0  0
 16 32  1  0  0  0  0
 17 18  1  0  0  0  0
 17 33  1  0  0  0  0
 17 34  1  0  0  0  0
 18 35  1  0  0  0  0
M  CHG  1   3  -1
M  CHG  1  13   1
M  END
> <s_m_source_file>
AV-unprocessed.smi

> <i_m_source_file_index>
1965

> <i_lp_mmshare_version>
43012

> <i_f3d_flags>
0

> <s_epik_input>
czFbY0hdW2NIXW5jMVtOSF1DKD1PKVtOSF1bQ0BIXShbQ0gyXVtDSDJdMilbQ0BASF0oTjIzKVtDSDJdW0NIMl1bQ0gyXVtDSDJdMw==

> <s_epik_cmdline>
J2VwaWtfcHl0aG9uJywgJy1waCcsICc3LjAnLCAnLXRuJywgJzgnLCAnLW1hJywgJzIwMCcsICctbWV0YWxfYmluZGluZycsICctaW1hZScsICc8aW5maWxlLm1hZT4nLCAnLW9tYWUnLCAnPG91dGZpbGUubWFlPic=

> <r_lp_tautomer_probability>
1

> <r_epik_Ionization_Penalty>
7.4116

> <r_epik_Ionization_Penalty_Charging>
6.13869

> <r_epik_Ionization_Penalty_Neutral>
1.27291

> <r_epik_State_Penalty>
6.13761

> <r_epik_Charging_Adjusted_Penalty>
12.2763

> <i_epik_Tot_Q>
0

> <i_epik_Tot_abs_Q>
2

> <r_epik_Metal_State_Penalty>
2.08142

> <b_epik_Metal_Only>
1

> <s_lp_Force_Field>
OPLS_2005

> <r_lp_Energy>
32.5811

> <b_lp_Chiralities_Consistent>
1

> <s_lp_Variant>
AV-unprocessed.smi:1965-13

> <Gold.Version>
5.8.1

> <Gold.Id.Protein>
6NUR|6NUR_protein|mol2

> <Gold.PLP.Fitness>
35.9711

> <Gold.PLP.PLP>
-22.4027

> <Gold.PLP.part.hbond>
-4.0000

> <Gold.PLP.part.metal>
0.0000

> <Gold.PLP.part.buried>
-1.5112

> <Gold.PLP.part.nonpolar>
-16.4606

> <Gold.PLP.part.repulsive>
0.3612

> <Gold.PLP.ligand.clash>
0.0000

> <Gold.PLP.ligand.torsion>
0.7055

> <Gold.PLP.Chemscore.Hbond>
3.9920

> <Gold.PLP.Chemscore.CHOScore>
1.0000

> <Gold.PLP.Chemscore.Metal>
0.0000

> <Gold.Chemscore.Hbonds>
donor molecule, donor type, donor heavy atom, donor atom, acceptor molecule, acceptor atom, score
      L1  H    13    36       P1  7948  2.00
      P1  H  7989  7998       L1     5  0.94
      P1  H 10752 10764       L1     1  1.00
      L1  C     6    19       P1  8028  1.00

> <Gold.PLP.Chemscore.Internal.Correction>
0.0034

> <Gold.Rescore>
     Score         DG    S(hbond)    S(metal)    S(lipo)     H(rot)  DE(clash)    DE(int)     intcor
     15.68     -17.07       2.80        0.00      40.99       1.00       0.02       1.37       ----

> <Gold.Chemscore.Fitness>
15.6797

> <Gold.Chemscore.DG>
-17.0734

> <Gold.Chemscore.ZeroCoef>
-5.4800

> <Gold.Chemscore.Hbond>
2.8015

> <Gold.Chemscore.Metal>
0.0000

> <Gold.Chemscore.Lipo>
40.9947

> <Gold.Chemscore.Internal_Hbond>
0.0000

> <Gold.Chemscore.DEClash>
0.0232

> <Gold.Chemscore.DEInternal>
1.3705

> <Gold.Chemscore.Rot>
1.0000

> <Gold.Chemscore.Internal.Correction>
   9.000000E+99

> <Gold.Chemscore.Hbonds>
donor molecule, donor type, donor heavy atom, donor atom, acceptor molecule, acceptor atom, score
      L1  H    13    36       P1  7948  0.57
      P1  H  7989  7998       L1     5  0.84
      P1  H 10752 10764       L1     1  0.99

> <Gold.Chemscore.Hbond.Weighted>
-9.3571

> <Gold.Chemscore.Metal.Weighted>
-0.0000

> <Gold.Chemscore.Lipo.Weighted>
-4.7964

> <Gold.Chemscore.Internal_Hbond.Weighted>
0.0000

> <Gold.Chemscore.DEClash.Weighted>
0.0232

> <Gold.Chemscore.DEInternal.Weighted>
1.3705

> <Gold.Chemscore.Rot.Weighted>
2.5600

> <Gold.Chemscore.Internal.Correction.Weighted>
   9.000000E+99

> <Gold.Protein.RotatedTorsions>
[ 6907 6896 6895 6894 ] final  -69.39 input  -60.11 | X-H torsion
[ 7974 7965 7964 7962 ] final   88.79 input  175.53 | X-H torsion
[ 8008 7997 7996 7995 ] final  151.34 input   59.86 | X-H torsion
[ 10167 10162 10161 10158 ] final   27.90 input  -65.29 | X-H torsion
[ 10718 10713 10712 10709 ] final  -96.73 input   66.30 | X-H torsion
[ 10763 10752 10751 10750 ] final  -35.64 input  -60.55 | X-H torsion
[ 11005 11000 10999 10996 ] final  138.80 input  -57.11 | X-H torsion

> <Gold.Protein.ActiveResidues>
 VAL166  LYS551  ARG553  GLY616  TRP617  ASP618  TYR619  PRO620  LYS621  CYS622 
 ASP623  PHE694  ASN695  SER759  ASP760  ASP761  ALA762  ILE779  LEU786  VAL792 
 PHE793  MET794  SER795  GLU796  ALA797  LYS798  CYS799  TRP800  GLU811  SER814 

> <Gold.Protein.RotatedAtoms>
  150.7308  134.5604  159.5838 H   0  0  0  0  0  0  0  0  0  0  0  0  # atno 6907 bound_to 6896
  152.3069  134.7542  160.0354 H   0  0  0  0  0  0  0  0  0  0  0  0  # atno 6908 bound_to 6896
  151.8103  133.3345  159.3590 H   0  0  0  0  0  0  0  0  0  0  0  0  # atno 6909 bound_to 6896
  145.5410  139.2288  143.2566 H   0  0  0  0  0  0  0  0  0  0  0  0  # atno 7974 bound_to 7965
  156.2678  140.2050  156.6161 H   0  0  0  0  0  0  0  0  0  0  0  0  # atno 8008 bound_to 7997
  154.6794  140.0541  157.0273 H   0  0  0  0  0  0  0  0  0  0  0  0  # atno 8009 bound_to 7997
  155.1023  140.3207  155.4546 H   0  0  0  0  0  0  0  0  0  0  0  0  # atno 8010 bound_to 7997
  140.4899  144.0483  150.6293 H   0  0  0  0  0  0  0  0  0  0  0  0  # atno 10167 bound_to 10162
  156.0068  130.5164  150.6269 H   0  0  0  0  0  0  0  0  0  0  0  0  # atno 10718 bound_to 10713
  153.8665  135.6835  153.4778 H   0  0  0  0  0  0  0  0  0  0  0  0  # atno 10763 bound_to 10752
  153.1312  135.4697  154.9349 H   0  0  0  0  0  0  0  0  0  0  0  0  # atno 10764 bound_to 10752
  154.7734  135.3246  154.8092 H   0  0  0  0  0  0  0  0  0  0  0  0  # atno 10765 bound_to 10752
  140.0209  134.9397  157.0472 H   0  0  0  0  0  0  0  0  0  0  0  0  # atno 11005 bound_to 11000
  146.1981  140.6230  142.9115 LP  0  0  0  0  0  0  0  0  0  0  0  0  # atno 17320 bound_to 7965
  144.7577  140.5347  143.6757 LP  0  0  0  0  0  0  0  0  0  0  0  0  # atno 17321 bound_to 7965
  140.3749  143.2834  152.0236 LP  0  0  0  0  0  0  0  0  0  0  0  0  # atno 17342 bound_to 10162
  139.4849  144.6200  151.7272 LP  0  0  0  0  0  0  0  0  0  0  0  0  # atno 17343 bound_to 10162
  157.4074  131.0818  151.1253 LP  0  0  0  0  0  0  0  0  0  0  0  0  # atno 17370 bound_to 10713
  157.1895  130.6345  149.5699 LP  0  0  0  0  0  0  0  0  0  0  0  0  # atno 17371 bound_to 10713
  140.4389  134.1702  155.7172 LP  0  0  0  0  0  0  0  0  0  0  0  0  # atno 17394 bound_to 11000
  141.1773  133.8487  157.1378 LP  0  0  0  0  0  0  0  0  0  0  0  0  # atno 17395 bound_to 11000

$$$$
