AV-unprocessed.smi:1695|AV-procd|sdf|6790|dock8
  -GOLD-   22720 7553D 1   1.00000     0.00000
 Structure written by MMmdl.
 51 53  0  0  0  0  0  0  0  0  2 V2000
  153.4560  142.2557  160.5547 C   0  0  0  0  0  0  0  0  0  0  0  0
  152.6072  142.0372  159.3146 C   0  0  0  0  0  0  0  0  0  0  0  0
  152.7187  140.8160  158.6122 C   0  0  0  0  0  0  0  0  0  0  0  0
  151.9474  140.5735  157.4547 C   0  0  0  0  0  0  0  0  0  0  0  0
  151.8962  139.4678  156.6233 N   0  0  0  0  0  0  0  0  0  0  0  0
  150.9916  139.8479  155.7261 C   0  0  0  0  0  0  0  0  0  0  0  0
  150.4547  141.0747  155.8739 N   0  0  0  0  0  0  0  0  0  0  0  0
  149.4615  141.7070  155.0247 C   0  0  0  0  0  0  0  0  0  0  0  0
  148.4332  140.7001  154.4753 C   0  0  1  0  0  0  0  0  0  0  0  0
  147.3128  141.4035  153.9734 O   0  0  0  0  0  0  0  0  0  0  0  0
  149.0258  139.8407  153.3414 C   0  0  0  0  0  0  0  0  0  0  0  0
  148.1496  138.6994  152.9712 N   0  3  1  0  0  0  0  0  0  0  0  0
  147.5831  138.0168  154.1624 C   0  0  0  0  0  0  0  0  0  0  0  0
  146.8057  136.7475  153.7635 C   0  0  0  0  0  0  0  0  0  0  0  0
  145.7085  137.0091  152.7099 C   0  0  1  0  0  0  0  0  0  0  0  0
  144.4505  137.6658  153.3090 C   0  0  0  0  0  0  0  0  0  0  0  0
  143.4675  137.9757  152.4600 N   0  0  0  0  0  0  0  0  0  0  0  0
  144.3595  137.8927  154.5134 O   0  0  0  0  0  0  0  0  0  0  0  0
  146.3041  137.8168  151.5368 C   0  0  0  0  0  0  0  0  0  0  0  0
  147.0922  139.0607  151.9904 C   0  0  0  0  0  0  0  0  0  0  0  0
  151.0559  141.5952  157.0145 C   0  0  0  0  0  0  0  0  0  0  0  0
  150.9353  142.8139  157.7051 C   0  0  0  0  0  0  0  0  0  0  0  0
  151.7122  143.0391  158.8607 C   0  0  0  0  0  0  0  0  0  0  0  0
  151.5751  144.3578  159.6009 C   0  0  0  0  0  0  0  0  0  0  0  0
  154.0806  141.3879  160.7678 H   0  0  0  0  0  0  0  0  0  0  0  0
  152.8237  142.4332  161.4247 H   0  0  0  0  0  0  0  0  0  0  0  0
  154.1123  143.1159  160.4213 H   0  0  0  0  0  0  0  0  0  0  0  0
  153.3998  140.0522  158.9579 H   0  0  0  0  0  0  0  0  0  0  0  0
  150.7069  139.1993  154.9104 H   0  0  0  0  0  0  0  0  0  0  0  0
  148.9629  142.4927  155.5946 H   0  0  0  0  0  0  0  0  0  0  0  0
  149.9828  142.2003  154.2034 H   0  0  0  0  0  0  0  0  0  0  0  0
  148.0964  140.0677  155.2961 H   0  0  0  0  0  0  0  0  0  0  0  0
  147.5998  142.2564  153.6827 H   0  0  0  0  0  0  0  0  0  0  0  0
  149.1823  140.4823  152.4725 H   0  0  0  0  0  0  0  0  0  0  0  0
  150.0111  139.4629  153.6192 H   0  0  0  0  0  0  0  0  0  0  0  0
  148.3917  137.7320  154.8368 H   0  0  0  0  0  0  0  0  0  0  0  0
  146.9485  138.7088  154.7170 H   0  0  0  0  0  0  0  0  0  0  0  0
  147.5085  136.0148  153.3644 H   0  0  0  0  0  0  0  0  0  0  0  0
  146.3735  136.2880  154.6536 H   0  0  0  0  0  0  0  0  0  0  0  0
  145.3996  136.0394  152.3150 H   0  0  0  0  0  0  0  0  0  0  0  0
  142.6211  138.4088  152.8006 H   0  0  0  0  0  0  0  0  0  0  0  0
  143.5740  137.7761  151.4757 H   0  0  0  0  0  0  0  0  0  0  0  0
  146.9688  137.1678  150.9650 H   0  0  0  0  0  0  0  0  0  0  0  0
  145.5151  138.1151  150.8446 H   0  0  0  0  0  0  0  0  0  0  0  0
  146.4259  139.8062  152.4254 H   0  0  0  0  0  0  0  0  0  0  0  0
  147.5361  139.5256  151.1111 H   0  0  0  0  0  0  0  0  0  0  0  0
  150.2496  143.5685  157.3488 H   0  0  0  0  0  0  0  0  0  0  0  0
  150.8296  145.0017  159.1333 H   0  0  0  0  0  0  0  0  0  0  0  0
  152.5251  144.8928  159.6058 H   0  0  0  0  0  0  0  0  0  0  0  0
  151.2682  144.1871  160.6329 H   0  0  0  0  0  0  0  0  0  0  0  0
  148.7507  138.0228  152.5217 H   0  0  0  0  0  0  0  0  0  0  0  0
  1  2  1  0  0  0  0
  1 25  1  0  0  0  0
  1 26  1  0  0  0  0
  1 27  1  0  0  0  0
  2 23  1  0  0  0  0
  2  3  2  0  0  0  0
  3  4  1  0  0  0  0
  3 28  1  0  0  0  0
  4 21  2  0  0  0  0
  4  5  1  0  0  0  0
  5  6  2  0  0  0  0
  6  7  1  0  0  0  0
  6 29  1  0  0  0  0
  7  8  1  0  0  0  0
  7 21  1  0  0  0  0
  8  9  1  0  0  0  0
  8 30  1  0  0  0  0
  8 31  1  0  0  0  0
  9 10  1  0  0  0  0
  9 11  1  0  0  0  0
  9 32  1  0  0  0  0
 10 33  1  0  0  0  0
 11 12  1  0  0  0  0
 11 34  1  0  0  0  0
 11 35  1  0  0  0  0
 12 20  1  0  0  0  0
 12 13  1  0  0  0  0
 12 51  1  0  0  0  0
 13 14  1  0  0  0  0
 13 36  1  0  0  0  0
 13 37  1  0  0  0  0
 14 15  1  0  0  0  0
 14 38  1  0  0  0  0
 14 39  1  0  0  0  0
 15 16  1  0  0  0  0
 15 19  1  0  0  0  0
 15 40  1  0  0  0  0
 16 17  1  0  0  0  0
 16 18  2  0  0  0  0
 17 41  1  0  0  0  0
 17 42  1  0  0  0  0
 19 20  1  0  0  0  0
 19 43  1  0  0  0  0
 19 44  1  0  0  0  0
 20 45  1  0  0  0  0
 20 46  1  0  0  0  0
 21 22  1  0  0  0  0
 22 23  2  0  0  0  0
 22 47  1  0  0  0  0
 23 24  1  0  0  0  0
 24 48  1  0  0  0  0
 24 49  1  0  0  0  0
 24 50  1  0  0  0  0
M  CHG  1  12   1
M  END
> <s_m_source_file>
AV-unprocessed.smi

> <i_m_source_file_index>
1695

> <i_lp_mmshare_version>
43012

> <i_f3d_flags>
0

> <s_epik_input>
W0NIM11jKFtjSF0xKWMoW0NIM10pW2NIXWMoYzEyKW4oW2NIXW4yKVtDSDJdW0NASF0oW09IXSlbQ0gyXU4zW0NIMl1bQ0gyXVtDSF0oQyg9TylbTkgyXSlbQ0gyXVtDSDJdMw==

> <s_epik_cmdline>
J2VwaWtfcHl0aG9uJywgJy1waCcsICc3LjAnLCAnLXRuJywgJzgnLCAnLW1hJywgJzIwMCcsICctbWV0YWxfYmluZGluZycsICctaW1hZScsICc8aW5maWxlLm1hZT4nLCAnLW9tYWUnLCAnPG91dGZpbGUubWFlPic=

> <r_epik_Ionization_Penalty>
0.113899

> <r_epik_Ionization_Penalty_Charging>
0.0258844

> <r_epik_Ionization_Penalty_Neutral>
0.0880147

> <r_epik_State_Penalty>
0.0974403

> <r_epik_Charging_Adjusted_Penalty>
0.123325

> <i_epik_Tot_Q>
1

> <i_epik_Tot_abs_Q>
1

> <r_epik_Metal_State_Penalty>
0.0851148

> <b_epik_Metal_Only>
0

> <s_lp_Force_Field>
OPLS_2005

> <r_lp_Energy>
15.764

> <b_lp_Chiralities_Consistent>
1

> <s_lp_Variant>
AV-unprocessed.smi:1695-2

> <Gold.Version>
5.8.1

> <Gold.Id.Protein>
6NUR|6NUR_protein|mol2

> <Gold.PLP.Fitness>
49.0614

> <Gold.PLP.PLP>
-41.9370

> <Gold.PLP.part.hbond>
-3.4015

> <Gold.PLP.part.metal>
0.0000

> <Gold.PLP.part.buried>
6.3405

> <Gold.PLP.part.nonpolar>
-44.7767

> <Gold.PLP.part.repulsive>
0.1806

> <Gold.PLP.ligand.clash>
0.0000

> <Gold.PLP.ligand.torsion>
0.7786

> <Gold.PLP.Chemscore.Hbond>
2.8640

> <Gold.PLP.Chemscore.CHOScore>
0.0000

> <Gold.PLP.Chemscore.Metal>
0.0000

> <Gold.Chemscore.Hbonds>
donor molecule, donor type, donor heavy atom, donor atom, acceptor molecule, acceptor atom, score
      L1  H    12    51       P1  7948  1.95
      L1  H    17    42       P1 10171  0.85

> <Gold.PLP.Chemscore.Internal.Correction>
0.0895

> <Gold.Rescore>
     Score         DG    S(hbond)    S(metal)    S(lipo)     H(rot)  DE(clash)    DE(int)     intcor
     14.65     -18.17       1.37        0.00     131.53       2.85       2.50       1.02       ----

> <Gold.Chemscore.Fitness>
14.6516

> <Gold.Chemscore.DG>
-18.1726

> <Gold.Chemscore.ZeroCoef>
-5.4800

> <Gold.Chemscore.Hbond>
1.3744

> <Gold.Chemscore.Metal>
0.0000

> <Gold.Chemscore.Lipo>
131.5276

> <Gold.Chemscore.Internal_Hbond>
0.0000

> <Gold.Chemscore.DEClash>
2.4961

> <Gold.Chemscore.DEInternal>
1.0249

> <Gold.Chemscore.Rot>
2.8464

> <Gold.Chemscore.Internal.Correction>
   9.000000E+99

> <Gold.Chemscore.Hbonds>
donor molecule, donor type, donor heavy atom, donor atom, acceptor molecule, acceptor atom, score
      L1  H    12    51       P1  7948  0.93
      L1  H    17    42       P1 10171  0.81

> <Gold.Chemscore.Hbond.Weighted>
-4.5906

> <Gold.Chemscore.Metal.Weighted>
-0.0000

> <Gold.Chemscore.Lipo.Weighted>
-15.3887

> <Gold.Chemscore.Internal_Hbond.Weighted>
0.0000

> <Gold.Chemscore.DEClash.Weighted>
2.4961

> <Gold.Chemscore.DEInternal.Weighted>
1.0249

> <Gold.Chemscore.Rot.Weighted>
7.2867

> <Gold.Chemscore.Internal.Correction.Weighted>
   9.000000E+99

> <Gold.Protein.RotatedTorsions>
[ 6907 6896 6895 6894 ] final  148.46 input  -60.11 | X-H torsion
[ 7974 7965 7964 7962 ] final -141.13 input  175.53 | X-H torsion
[ 8008 7997 7996 7995 ] final  149.24 input   59.86 | X-H torsion
[ 10167 10162 10161 10158 ] final  144.70 input  -65.29 | X-H torsion
[ 10718 10713 10712 10709 ] final  124.47 input   66.30 | X-H torsion
[ 10763 10752 10751 10750 ] final  -39.53 input  -60.55 | X-H torsion
[ 11005 11000 10999 10996 ] final  -44.01 input  -57.11 | X-H torsion

> <Gold.Protein.ActiveResidues>
 VAL166  LYS551  ARG553  GLY616  TRP617  ASP618  TYR619  PRO620  LYS621  CYS622 
 ASP623  PHE694  ASN695  SER759  ASP760  ASP761  ALA762  ILE779  LEU786  VAL792 
 PHE793  MET794  SER795  GLU796  ALA797  LYS798  CYS799  TRP800  GLU811  SER814 

> <Gold.Protein.RotatedAtoms>
  152.1411  133.4464  159.4767 H   0  0  0  0  0  0  0  0  0  0  0  0  # atno 6907 bound_to 6896
  150.6886  134.2304  159.4441 H   0  0  0  0  0  0  0  0  0  0  0  0  # atno 6908 bound_to 6896
  152.0194  134.9830  160.0621 H   0  0  0  0  0  0  0  0  0  0  0  0  # atno 6909 bound_to 6896
  144.8543  140.6117  143.5369 H   0  0  0  0  0  0  0  0  0  0  0  0  # atno 7974 bound_to 7965
  156.2762  140.2107  156.5826 H   0  0  0  0  0  0  0  0  0  0  0  0  # atno 8008 bound_to 7997
  154.7046  140.0517  157.0514 H   0  0  0  0  0  0  0  0  0  0  0  0  # atno 8009 bound_to 7997
  155.0688  140.3174  155.4640 H   0  0  0  0  0  0  0  0  0  0  0  0  # atno 8010 bound_to 7997
  139.4941  144.5953  151.6595 H   0  0  0  0  0  0  0  0  0  0  0  0  # atno 10167 bound_to 10162
  157.5582  131.1091  150.8584 H   0  0  0  0  0  0  0  0  0  0  0  0  # atno 10718 bound_to 10713
  153.9309  135.6772  153.4745 H   0  0  0  0  0  0  0  0  0  0  0  0  # atno 10763 bound_to 10752
  153.0980  135.4842  154.8812 H   0  0  0  0  0  0  0  0  0  0  0  0  # atno 10764 bound_to 10752
  154.7429  135.3165  154.8654 H   0  0  0  0  0  0  0  0  0  0  0  0  # atno 10765 bound_to 10752
  141.0422  133.6775  156.2813 H   0  0  0  0  0  0  0  0  0  0  0  0  # atno 11005 bound_to 11000
  145.4437  139.1532  143.3956 LP  0  0  0  0  0  0  0  0  0  0  0  0  # atno 17320 bound_to 7965
  146.2810  140.4560  142.8776 LP  0  0  0  0  0  0  0  0  0  0  0  0  # atno 17321 bound_to 7965
  140.5590  144.0300  150.6161 LP  0  0  0  0  0  0  0  0  0  0  0  0  # atno 17342 bound_to 10162
  140.3380  143.3037  152.0618 LP  0  0  0  0  0  0  0  0  0  0  0  0  # atno 17343 bound_to 10162
  156.9090  130.5274  149.5281 LP  0  0  0  0  0  0  0  0  0  0  0  0  # atno 17370 bound_to 10713
  156.0638  130.5685  150.9247 LP  0  0  0  0  0  0  0  0  0  0  0  0  # atno 17371 bound_to 10713
  140.6213  134.5358  157.5548 LP  0  0  0  0  0  0  0  0  0  0  0  0  # atno 17394 bound_to 11000
  139.9284  134.8010  156.1000 LP  0  0  0  0  0  0  0  0  0  0  0  0  # atno 17395 bound_to 11000

$$$$
