AV-unprocessed.smi:1597|AV-procd|sdf|6420|dock10
  -GOLD-   22720 7 53D 1   1.00000     0.00000
 Structure written by MMmdl.
 53 54  0  0  0  0  0  0  0  0  2 V2000
  151.1484  137.9566  154.3549 C   0  0  0  0  0  0  0  0  0  0  0  0
  149.7727  137.4173  154.5283 N   0  3  0  0  0  0  0  0  0  0  0  0
  149.8266  136.1223  155.2630 C   0  0  0  0  0  0  0  0  0  0  0  0
  148.7299  138.4090  154.9991 C   0  0  0  0  0  0  0  0  0  0  0  0
  149.0308  138.7543  156.4963 C   0  0  0  0  0  0  0  0  0  0  0  0
  150.1832  139.6375  156.6618 N   0  0  0  0  0  0  0  0  0  0  0  0
  150.2988  140.6736  157.5082 C   0  0  0  0  0  0  0  0  0  0  0  0
  149.4069  141.0018  158.2882 O   0  0  0  0  0  0  0  0  0  0  0  0
  151.6012  141.4916  157.4661 C   0  0  0  0  0  0  0  0  0  0  0  0
  152.2740  141.6309  158.7678 N   0  0  0  0  0  0  0  0  0  0  0  0
  152.0638  142.7706  159.5231 C   0  0  0  0  0  0  0  0  0  0  0  0
  152.6604  142.9963  160.7136 C   0  0  0  0  0  0  0  0  0  0  0  0
  153.5851  142.0235  161.2811 C   0  0  0  0  0  0  0  0  0  0  0  0
  154.1521  142.1785  162.3634 O   0  0  0  0  0  0  0  0  0  0  0  0
  153.7865  140.8703  160.4890 N   0  0  0  0  0  0  0  0  0  0  0  0
  154.6963  139.8760  161.0188 C   0  0  0  0  0  0  0  0  0  0  0  0
  153.1533  140.6343  159.2464 C   0  0  0  0  0  0  0  0  0  0  0  0
  153.3527  139.6135  158.5848 O   0  0  0  0  0  0  0  0  0  0  0  0
  148.8363  139.7167  154.1427 C   0  0  0  0  0  0  0  0  0  0  0  0
  147.5556  140.4807  153.7546 C   0  0  0  0  0  0  0  0  0  0  0  0
  146.5698  140.7921  154.8873 C   0  0  0  0  0  0  0  0  0  0  0  0
  145.5529  139.6646  155.0996 C   0  0  0  0  0  0  0  0  0  0  0  0
  146.1385  138.3798  155.6952 C   0  0  0  0  0  0  0  0  0  0  0  0
  147.3072  137.7472  154.9016 C   0  0  0  0  0  0  0  0  0  0  0  0
  151.5290  138.3934  155.2783 H   0  0  0  0  0  0  0  0  0  0  0  0
  151.2033  138.7079  153.5683 H   0  0  0  0  0  0  0  0  0  0  0  0
  151.8362  137.1644  154.0572 H   0  0  0  0  0  0  0  0  0  0  0  0
  150.2677  136.2312  156.2535 H   0  0  0  0  0  0  0  0  0  0  0  0
  150.4472  135.4145  154.7127 H   0  0  0  0  0  0  0  0  0  0  0  0
  148.8572  135.6449  155.3794 H   0  0  0  0  0  0  0  0  0  0  0  0
  148.1673  139.1672  157.0149 H   0  0  0  0  0  0  0  0  0  0  0  0
  149.2470  137.8501  157.0609 H   0  0  0  0  0  0  0  0  0  0  0  0
  150.9764  139.4445  156.0666 H   0  0  0  0  0  0  0  0  0  0  0  0
  152.2797  141.0120  156.7591 H   0  0  0  0  0  0  0  0  0  0  0  0
  151.3866  142.4720  157.0380 H   0  0  0  0  0  0  0  0  0  0  0  0
  151.3900  143.5239  159.1413 H   0  0  0  0  0  0  0  0  0  0  0  0
  152.4519  143.9087  161.2530 H   0  0  0  0  0  0  0  0  0  0  0  0
  154.8891  139.0870  160.2929 H   0  0  0  0  0  0  0  0  0  0  0  0
  154.2301  139.4625  161.9146 H   0  0  0  0  0  0  0  0  0  0  0  0
  155.6349  140.3808  161.2553 H   0  0  0  0  0  0  0  0  0  0  0  0
  149.5183  140.4122  154.6337 H   0  0  0  0  0  0  0  0  0  0  0  0
  149.3146  139.4994  153.1887 H   0  0  0  0  0  0  0  0  0  0  0  0
  147.8679  141.4260  153.3091 H   0  0  0  0  0  0  0  0  0  0  0  0
  147.0395  139.9521  152.9521 H   0  0  0  0  0  0  0  0  0  0  0  0
  147.0874  141.0508  155.8102 H   0  0  0  0  0  0  0  0  0  0  0  0
  146.0100  141.6854  154.6078 H   0  0  0  0  0  0  0  0  0  0  0  0
  144.7648  140.0231  155.7627 H   0  0  0  0  0  0  0  0  0  0  0  0
  145.0591  139.4357  154.1545 H   0  0  0  0  0  0  0  0  0  0  0  0
  146.3932  138.5382  156.7413 H   0  0  0  0  0  0  0  0  0  0  0  0
  145.3304  137.6480  155.7270 H   0  0  0  0  0  0  0  0  0  0  0  0
  147.0010  137.6557  153.8588 H   0  0  0  0  0  0  0  0  0  0  0  0
  147.3859  136.7224  155.2683 H   0  0  0  0  0  0  0  0  0  0  0  0
  149.4763  137.1685  153.5950 H   0  0  0  0  0  0  0  0  0  0  0  0
  1  2  1  0  0  0  0
  1 25  1  0  0  0  0
  1 26  1  0  0  0  0
  1 27  1  0  0  0  0
  2  3  1  0  0  0  0
  2  4  1  0  0  0  0
  2 53  1  0  0  0  0
  3 28  1  0  0  0  0
  3 29  1  0  0  0  0
  3 30  1  0  0  0  0
  4 24  1  0  0  0  0
  4  5  1  0  0  0  0
  4 19  1  0  0  0  0
  5  6  1  0  0  0  0
  5 31  1  0  0  0  0
  5 32  1  0  0  0  0
  6  7  1  0  0  0  0
  6 33  1  0  0  0  0
  7  8  2  0  0  0  0
  7  9  1  0  0  0  0
  9 10  1  0  0  0  0
  9 34  1  0  0  0  0
  9 35  1  0  0  0  0
 10 17  1  0  0  0  0
 10 11  1  0  0  0  0
 11 12  2  0  0  0  0
 11 36  1  0  0  0  0
 12 13  1  0  0  0  0
 12 37  1  0  0  0  0
 13 14  2  0  0  0  0
 13 15  1  0  0  0  0
 15 16  1  0  0  0  0
 15 17  1  0  0  0  0
 16 38  1  0  0  0  0
 16 39  1  0  0  0  0
 16 40  1  0  0  0  0
 17 18  2  0  0  0  0
 19 20  1  0  0  0  0
 19 41  1  0  0  0  0
 19 42  1  0  0  0  0
 20 21  1  0  0  0  0
 20 43  1  0  0  0  0
 20 44  1  0  0  0  0
 21 22  1  0  0  0  0
 21 45  1  0  0  0  0
 21 46  1  0  0  0  0
 22 23  1  0  0  0  0
 22 47  1  0  0  0  0
 22 48  1  0  0  0  0
 23 24  1  0  0  0  0
 23 49  1  0  0  0  0
 23 50  1  0  0  0  0
 24 51  1  0  0  0  0
 24 52  1  0  0  0  0
M  CHG  1   2   1
M  END
> <s_m_source_file>
AV-unprocessed.smi

> <i_m_source_file_index>
1597

> <i_lp_mmshare_version>
43012

> <i_f3d_flags>
0

> <s_epik_input>
W0NIMl0xW0NIMl1bQ0gyXVtDSDJdW0NIMl1bQ0gyXUMxKE4oW0NIM10pW0NIM10pW0NIMl1bTkhdQyg9TylbQ0gyXW4yW2NIXVtjSF1jKD1PKW4oW0NIM10pYzI9Tw==

> <s_epik_cmdline>
J2VwaWtfcHl0aG9uJywgJy1waCcsICc3LjAnLCAnLXRuJywgJzgnLCAnLW1hJywgJzIwMCcsICctbWV0YWxfYmluZGluZycsICctaW1hZScsICc8aW5maWxlLm1hZT4nLCAnLW9tYWUnLCAnPG91dGZpbGUubWFlPic=

> <r_lp_tautomer_probability>
1

> <r_epik_Ionization_Penalty>
0.00225783

> <r_epik_Ionization_Penalty_Charging>
0.00225776

> <r_epik_Ionization_Penalty_Neutral>
7.38919e-08

> <r_epik_State_Penalty>
0.00155497

> <r_epik_Charging_Adjusted_Penalty>
0.00381272

> <i_epik_Tot_Q>
1

> <i_epik_Tot_abs_Q>
1

> <r_epik_Metal_State_Penalty>
-0

> <b_epik_Metal_Only>
0

> <s_lp_Force_Field>
OPLS_2005

> <r_lp_Energy>
50.4542

> <b_lp_Chiralities_Consistent>
1

> <s_lp_Variant>
AV-unprocessed.smi:1597-1

> <Gold.Version>
5.8.1

> <Gold.Id.Protein>
6NUR|6NUR_protein|mol2

> <Gold.PLP.Fitness>
45.6781

> <Gold.PLP.PLP>
-38.1039

> <Gold.PLP.part.hbond>
-3.0000

> <Gold.PLP.part.metal>
0.0000

> <Gold.PLP.part.buried>
-2.9202

> <Gold.PLP.part.nonpolar>
-31.6747

> <Gold.PLP.part.repulsive>
0.0993

> <Gold.PLP.ligand.clash>
0.0000

> <Gold.PLP.ligand.torsion>
0.7497

> <Gold.PLP.Chemscore.Hbond>
2.9825

> <Gold.PLP.Chemscore.CHOScore>
0.0000

> <Gold.PLP.Chemscore.Metal>
0.0000

> <Gold.Chemscore.Hbonds>
donor molecule, donor type, donor heavy atom, donor atom, acceptor molecule, acceptor atom, score
      L1  H     2    53       P1  7948  2.00
      P1  H  7997  8010       L1    18  0.98

> <Gold.PLP.Chemscore.Internal.Correction>
0.1262

> <Gold.Rescore>
     Score         DG    S(hbond)    S(metal)    S(lipo)     H(rot)  DE(clash)    DE(int)     intcor
     14.20     -15.45       1.93        0.00      74.30       2.02       0.10       1.14       ----

> <Gold.Chemscore.Fitness>
14.2011

> <Gold.Chemscore.DG>
-15.4461

> <Gold.Chemscore.ZeroCoef>
-5.4800

> <Gold.Chemscore.Hbond>
1.9320

> <Gold.Chemscore.Metal>
0.0000

> <Gold.Chemscore.Lipo>
74.3042

> <Gold.Chemscore.Internal_Hbond>
0.0000

> <Gold.Chemscore.DEClash>
0.1025

> <Gold.Chemscore.DEInternal>
1.1425

> <Gold.Chemscore.Rot>
2.0236

> <Gold.Chemscore.Internal.Correction>
   9.000000E+99

> <Gold.Chemscore.Hbonds>
donor molecule, donor type, donor heavy atom, donor atom, acceptor molecule, acceptor atom, score
      L1  H     2    53       P1  7948  0.88
      P1  H  7997  8010       L1    18  0.67

> <Gold.Chemscore.Hbond.Weighted>
-6.4529

> <Gold.Chemscore.Metal.Weighted>
-0.0000

> <Gold.Chemscore.Lipo.Weighted>
-8.6936

> <Gold.Chemscore.Internal_Hbond.Weighted>
0.0000

> <Gold.Chemscore.DEClash.Weighted>
0.1025

> <Gold.Chemscore.DEInternal.Weighted>
1.1425

> <Gold.Chemscore.Rot.Weighted>
5.1803

> <Gold.Chemscore.Internal.Correction.Weighted>
   9.000000E+99

> <Gold.Protein.RotatedTorsions>
[ 6907 6896 6895 6894 ] final  137.66 input  -60.11 | X-H torsion
[ 7974 7965 7964 7962 ] final  156.46 input  175.53 | X-H torsion
[ 8008 7997 7996 7995 ] final   37.48 input   59.86 | X-H torsion
[ 10167 10162 10161 10158 ] final  -42.36 input  -65.29 | X-H torsion
[ 10718 10713 10712 10709 ] final   73.49 input   66.30 | X-H torsion
[ 10763 10752 10751 10750 ] final  -17.08 input  -60.55 | X-H torsion
[ 11005 11000 10999 10996 ] final  179.91 input  -57.11 | X-H torsion

> <Gold.Protein.ActiveResidues>
 VAL166  LYS551  ARG553  GLY616  TRP617  ASP618  TYR619  PRO620  LYS621  CYS622 
 ASP623  PHE694  ASN695  SER759  ASP760  ASP761  ALA762  ILE779  LEU786  VAL792 
 PHE793  MET794  SER795  GLU796  ALA797  LYS798  CYS799  TRP800  GLU811  SER814 

> <Gold.Protein.RotatedAtoms>
  152.2755  133.5422  159.5465 H   0  0  0  0  0  0  0  0  0  0  0  0  # atno 6907 bound_to 6896
  150.7175  134.0638  159.3849 H   0  0  0  0  0  0  0  0  0  0  0  0  # atno 6908 bound_to 6896
  151.8550  135.0544  160.0514 H   0  0  0  0  0  0  0  0  0  0  0  0  # atno 6909 bound_to 6896
  144.7962  139.7207  143.6201 H   0  0  0  0  0  0  0  0  0  0  0  0  # atno 7974 bound_to 7965
  155.2045  140.3318  155.4338 H   0  0  0  0  0  0  0  0  0  0  0  0  # atno 8008 bound_to 7997
  156.2394  140.1888  156.7079 H   0  0  0  0  0  0  0  0  0  0  0  0  # atno 8009 bound_to 7997
  154.6119  140.0607  156.9491 H   0  0  0  0  0  0  0  0  0  0  0  0  # atno 8010 bound_to 7997
  140.6972  143.3042  151.3198 H   0  0  0  0  0  0  0  0  0  0  0  0  # atno 10167 bound_to 10162
  157.6550  130.9631  150.1076 H   0  0  0  0  0  0  0  0  0  0  0  0  # atno 10718 bound_to 10713
  153.5684  135.7008  153.5515 H   0  0  0  0  0  0  0  0  0  0  0  0  # atno 10763 bound_to 10752
  153.3366  135.4032  155.1538 H   0  0  0  0  0  0  0  0  0  0  0  0  # atno 10764 bound_to 10752
  154.8637  135.3732  154.5206 H   0  0  0  0  0  0  0  0  0  0  0  0  # atno 10765 bound_to 10752
  140.4114  134.6689  157.4616 H   0  0  0  0  0  0  0  0  0  0  0  0  # atno 11005 bound_to 11000
  146.2230  139.5671  142.9605 LP  0  0  0  0  0  0  0  0  0  0  0  0  # atno 17320 bound_to 7965
  145.5668  141.0398  143.2196 LP  0  0  0  0  0  0  0  0  0  0  0  0  # atno 17321 bound_to 7965
  139.6441  144.0483  152.2577 LP  0  0  0  0  0  0  0  0  0  0  0  0  # atno 17342 bound_to 10162
  139.9998  144.6301  150.7740 LP  0  0  0  0  0  0  0  0  0  0  0  0  # atno 17343 bound_to 10162
  156.1981  130.3658  149.8822 LP  0  0  0  0  0  0  0  0  0  0  0  0  # atno 17370 bound_to 10713
  156.6733  130.8829  151.3565 LP  0  0  0  0  0  0  0  0  0  0  0  0  # atno 17371 bound_to 10713
  140.0265  134.6469  155.9166 LP  0  0  0  0  0  0  0  0  0  0  0  0  # atno 17394 bound_to 11000
  141.1820  133.6548  156.5058 LP  0  0  0  0  0  0  0  0  0  0  0  0  # atno 17395 bound_to 11000

$$$$
