AV-unprocessed.smi:3301|AV-procd|sdf|12654|dock5
  -GOLD-   2272018593D 1   1.00000     0.00000
 Structure written by MMmdl.
 36 37  0  0  0  0  0  0  0  0  1 V2000
  154.5816  140.6592  160.6541 C   0  0  0  0  0  0  0  0  0  0  0  0
  153.6317  141.5906  159.8892 C   0  0  2  0  0  0  0  0  0  0  0  0
  153.1532  142.7584  160.7787 C   0  0  0  0  0  0  0  0  0  0  0  0
  152.3876  143.7487  160.0432 N   0  0  0  0  0  0  0  0  0  0  0  0
  152.0169  143.6976  158.7059 C   0  0  0  0  0  0  0  0  0  0  0  0
  151.3209  144.8562  158.4459 C   0  0  0  0  0  0  0  0  0  0  0  0
  151.2405  145.6248  159.6048 N   0  0  0  0  0  0  0  0  0  0  0  0
  151.8916  144.9035  160.5083 C   0  0  0  0  0  0  0  0  0  0  0  0
  152.4956  140.8117  159.3970 N   0  0  0  0  0  0  0  0  0  0  0  0
  152.5707  139.7555  158.5719 C   0  0  0  0  0  0  0  0  0  0  0  0
  153.6348  139.2887  158.1636 O   0  0  0  0  0  0  0  0  0  0  0  0
  151.2377  139.1257  158.1528 C   0  0  0  0  0  0  0  0  0  0  0  0
  151.0604  139.1250  156.7008 N   0  0  0  0  0  0  0  0  0  0  0  0
  150.4449  140.2550  156.0247 C   0  0  0  0  0  0  0  0  0  0  0  0
  150.1957  139.7709  154.5891 C   0  0  0  0  0  0  0  0  0  0  0  0
  151.0250  138.4918  154.4309 C   0  0  0  0  0  0  0  0  0  0  0  0
  151.4066  138.1430  155.8591 C   0  0  0  0  0  0  0  0  0  0  0  0
  151.9591  137.0870  156.1642 O   0  0  0  0  0  0  0  0  0  0  0  0
  155.4602  141.2000  161.0069 H   0  0  0  0  0  0  0  0  0  0  0  0
  154.9311  139.8455  160.0177 H   0  0  0  0  0  0  0  0  0  0  0  0
  154.0923  140.2174  161.5228 H   0  0  0  0  0  0  0  0  0  0  0  0
  154.1935  141.9995  159.0474 H   0  0  0  0  0  0  0  0  0  0  0  0
  152.5447  142.3867  161.6044 H   0  0  0  0  0  0  0  0  0  0  0  0
  154.0094  143.2647  161.2261 H   0  0  0  0  0  0  0  0  0  0  0  0
  152.2822  142.8708  158.0636 H   0  0  0  0  0  0  0  0  0  0  0  0
  150.8754  145.1925  157.5215 H   0  0  0  0  0  0  0  0  0  0  0  0
  152.0185  145.2267  161.5309 H   0  0  0  0  0  0  0  0  0  0  0  0
  151.5778  141.1186  159.6852 H   0  0  0  0  0  0  0  0  0  0  0  0
  151.2023  138.1020  158.5274 H   0  0  0  0  0  0  0  0  0  0  0  0
  150.4064  139.6567  158.6203 H   0  0  0  0  0  0  0  0  0  0  0  0
  149.5192  140.5584  156.5155 H   0  0  0  0  0  0  0  0  0  0  0  0
  151.1335  141.1009  156.0391 H   0  0  0  0  0  0  0  0  0  0  0  0
  149.1377  139.5444  154.4499 H   0  0  0  0  0  0  0  0  0  0  0  0
  150.4682  140.5291  153.8543 H   0  0  0  0  0  0  0  0  0  0  0  0
  150.4574  137.6872  153.9623 H   0  0  0  0  0  0  0  0  0  0  0  0
  151.9285  138.6716  153.8474 H   0  0  0  0  0  0  0  0  0  0  0  0
  1  2  1  0  0  0  0
  1 19  1  0  0  0  0
  1 20  1  0  0  0  0
  1 21  1  0  0  0  0
  2  3  1  0  0  0  0
  2  9  1  0  0  0  0
  2 22  1  0  0  0  0
  3  4  1  0  0  0  0
  3 23  1  0  0  0  0
  3 24  1  0  0  0  0
  4  8  1  0  0  0  0
  4  5  1  0  0  0  0
  5  6  2  0  0  0  0
  5 25  1  0  0  0  0
  6  7  1  0  0  0  0
  6 26  1  0  0  0  0
  7  8  2  0  0  0  0
  8 27  1  0  0  0  0
  9 10  1  0  0  0  0
  9 28  1  0  0  0  0
 10 11  2  0  0  0  0
 10 12  1  0  0  0  0
 12 13  1  0  0  0  0
 12 29  1  0  0  0  0
 12 30  1  0  0  0  0
 13 17  1  0  0  0  0
 13 14  1  0  0  0  0
 14 15  1  0  0  0  0
 14 31  1  0  0  0  0
 14 32  1  0  0  0  0
 15 16  1  0  0  0  0
 15 33  1  0  0  0  0
 15 34  1  0  0  0  0
 16 17  1  0  0  0  0
 16 35  1  0  0  0  0
 16 36  1  0  0  0  0
 17 18  2  0  0  0  0
M  END
> <s_m_source_file>
AV-unprocessed.smi

> <i_m_source_file_index>
3301

> <i_lp_mmshare_version>
43012

> <i_f3d_flags>
0

> <s_epik_input>
W2NIXTFuW2NIXVtjSF1uMVtDSDJdW0NAQEhdKFtDSDNdKVtOSF1DKD1PKVtDSDJdTjJbQ0gyXVtDSDJdW0NIMl1DMj1P

> <s_epik_cmdline>
J2VwaWtfcHl0aG9uJywgJy1waCcsICc3LjAnLCAnLXRuJywgJzgnLCAnLW1hJywgJzIwMCcsICctbWV0YWxfYmluZGluZycsICctaW1hZScsICc8aW5maWxlLm1hZT4nLCAnLW9tYWUnLCAnPG91dGZpbGUubWFlPic=

> <r_lp_tautomer_probability>
1

> <r_epik_Ionization_Penalty>
0.623868

> <r_epik_Ionization_Penalty_Charging>
0.623868

> <r_epik_Ionization_Penalty_Neutral>
4.45089e-08

> <r_epik_State_Penalty>
0.640129

> <r_epik_Charging_Adjusted_Penalty>
1.264

> <i_epik_Tot_Q>
0

> <i_epik_Tot_abs_Q>
0

> <r_epik_Metal_State_Penalty>
0.307431

> <b_epik_Metal_Only>
0

> <s_lp_Force_Field>
OPLS_2005

> <r_lp_Energy>
13.1823

> <b_lp_Chiralities_Consistent>
1

> <s_lp_Variant>
AV-unprocessed.smi:3301-3

> <Gold.Version>
5.8.1

> <Gold.Id.Protein>
6NUR|6NUR_protein|mol2

> <Gold.PLP.Fitness>
50.9976

> <Gold.PLP.PLP>
-42.7805

> <Gold.PLP.part.hbond>
-3.0000

> <Gold.PLP.part.metal>
0.0000

> <Gold.PLP.part.buried>
-3.2243

> <Gold.PLP.part.nonpolar>
-35.8103

> <Gold.PLP.part.repulsive>
0.2773

> <Gold.PLP.ligand.clash>
0.0000

> <Gold.PLP.ligand.torsion>
0.4100

> <Gold.PLP.Chemscore.Hbond>
2.0000

> <Gold.PLP.Chemscore.CHOScore>
1.0000

> <Gold.PLP.Chemscore.Metal>
0.0000

> <Gold.Chemscore.Hbonds>
donor molecule, donor type, donor heavy atom, donor atom, acceptor molecule, acceptor atom, score
      P1  H  7997  8009       L1    11  1.00
      P1  H 10752 10765       L1    18  0.36
      L1  C     6    26       P1  8028  0.51

> <Gold.PLP.Chemscore.Internal.Correction>
0.0372

> <Gold.Rescore>
     Score         DG    S(hbond)    S(metal)    S(lipo)     H(rot)  DE(clash)    DE(int)     intcor
     13.84     -15.95       1.95        0.00      83.30       2.26       0.05       2.06       ----

> <Gold.Chemscore.Fitness>
13.8422

> <Gold.Chemscore.DG>
-15.9519

> <Gold.Chemscore.ZeroCoef>
-5.4800

> <Gold.Chemscore.Hbond>
1.9530

> <Gold.Chemscore.Metal>
0.0000

> <Gold.Chemscore.Lipo>
83.3023

> <Gold.Chemscore.Internal_Hbond>
0.0000

> <Gold.Chemscore.DEClash>
0.0484

> <Gold.Chemscore.DEInternal>
2.0614

> <Gold.Chemscore.Rot>
2.2647

> <Gold.Chemscore.Internal.Correction>
   9.000000E+99

> <Gold.Chemscore.Hbonds>
donor molecule, donor type, donor heavy atom, donor atom, acceptor molecule, acceptor atom, score
      P1  H  7997  8009       L1    11  0.98
      P1  H 10752 10765       L1    18  0.33

> <Gold.Chemscore.Hbond.Weighted>
-6.5231

> <Gold.Chemscore.Metal.Weighted>
-0.0000

> <Gold.Chemscore.Lipo.Weighted>
-9.7464

> <Gold.Chemscore.Internal_Hbond.Weighted>
0.0000

> <Gold.Chemscore.DEClash.Weighted>
0.0484

> <Gold.Chemscore.DEInternal.Weighted>
2.0614

> <Gold.Chemscore.Rot.Weighted>
5.7975

> <Gold.Chemscore.Internal.Correction.Weighted>
   9.000000E+99

> <Gold.Protein.RotatedTorsions>
[ 6907 6896 6895 6894 ] final  106.05 input  -60.11 | X-H torsion
[ 7974 7965 7964 7962 ] final -136.87 input  175.53 | X-H torsion
[ 8008 7997 7996 7995 ] final  132.61 input   59.86 | X-H torsion
[ 10167 10162 10161 10158 ] final  -63.80 input  -65.29 | X-H torsion
[ 10718 10713 10712 10709 ] final -154.86 input   66.30 | X-H torsion
[ 10763 10752 10751 10750 ] final -145.91 input  -60.55 | X-H torsion
[ 11005 11000 10999 10996 ] final   46.45 input  -57.11 | X-H torsion

> <Gold.Protein.ActiveResidues>
 VAL166  LYS551  ARG553  GLY616  TRP617  ASP618  TYR619  PRO620  LYS621  CYS622 
 ASP623  PHE694  ASN695  SER759  ASP760  ASP761  ALA762  ILE779  LEU786  VAL792 
 PHE793  MET794  SER795  GLU796  ALA797  LYS798  CYS799  TRP800  GLU811  SER814 

> <Gold.Protein.RotatedAtoms>
  152.5208  133.9439  159.7639 H   0  0  0  0  0  0  0  0  0  0  0  0  # atno 6907 bound_to 6896
  150.9763  133.6283  159.2737 H   0  0  0  0  0  0  0  0  0  0  0  0  # atno 6908 bound_to 6896
  151.3477  135.0883  159.9445 H   0  0  0  0  0  0  0  0  0  0  0  0  # atno 6909 bound_to 6896
  144.8890  140.6615  143.5158 H   0  0  0  0  0  0  0  0  0  0  0  0  # atno 7974 bound_to 7965
  156.2984  140.2542  156.3118 H   0  0  0  0  0  0  0  0  0  0  0  0  # atno 8008 bound_to 7997
  154.9319  140.0398  157.2071 H   0  0  0  0  0  0  0  0  0  0  0  0  # atno 8009 bound_to 7997
  154.8210  140.2860  155.5791 H   0  0  0  0  0  0  0  0  0  0  0  0  # atno 8010 bound_to 7997
  140.5845  143.2332  151.6272 H   0  0  0  0  0  0  0  0  0  0  0  0  # atno 10167 bound_to 10162
  156.5050  130.8409  151.2624 H   0  0  0  0  0  0  0  0  0  0  0  0  # atno 10718 bound_to 10713
  154.8361  135.3400  154.6578 H   0  0  0  0  0  0  0  0  0  0  0  0  # atno 10763 bound_to 10752
  153.7193  135.6959  153.5021 H   0  0  0  0  0  0  0  0  0  0  0  0  # atno 10764 bound_to 10752
  153.2393  135.4390  155.0634 H   0  0  0  0  0  0  0  0  0  0  0  0  # atno 10765 bound_to 10752
  140.1368  134.4635  155.8479 H   0  0  0  0  0  0  0  0  0  0  0  0  # atno 11005 bound_to 11000
  145.3818  139.1635  143.4276 LP  0  0  0  0  0  0  0  0  0  0  0  0  # atno 17320 bound_to 7965
  146.3042  140.3899  142.8693 LP  0  0  0  0  0  0  0  0  0  0  0  0  # atno 17321 bound_to 7965
  139.5189  144.3269  152.0861 LP  0  0  0  0  0  0  0  0  0  0  0  0  # atno 17342 bound_to 10162
  140.2424  144.4256  150.6255 LP  0  0  0  0  0  0  0  0  0  0  0  0  # atno 17343 bound_to 10162
  157.7458  130.9969  150.2795 LP  0  0  0  0  0  0  0  0  0  0  0  0  # atno 17370 bound_to 10713
  156.3295  130.3798  149.7503 LP  0  0  0  0  0  0  0  0  0  0  0  0  # atno 17371 bound_to 10713
  141.2179  133.6817  156.7172 LP  0  0  0  0  0  0  0  0  0  0  0  0  # atno 17394 bound_to 11000
  140.2772  134.8345  157.3901 LP  0  0  0  0  0  0  0  0  0  0  0  0  # atno 17395 bound_to 11000

$$$$
