AV-unprocessed.smi:72|AV-procd|sdf|730|dock4
  -GOLD-   2262017 53D 1   1.00000     0.00000
 Structure written by MMmdl.
 28 29  0  0  0  0  0  0  0  0  2 V2000
  154.6248  137.7263  155.9187 N   0  0  0  0  0  0  0  0  0  0  0  0
  153.3815  137.9294  155.8591 C   0  0  0  0  0  0  0  0  0  0  0  0
  152.4587  136.8456  156.1173 N   0  0  0  0  0  0  0  0  0  0  0  0
  151.1890  137.1015  156.0388 C   0  0  0  0  0  0  0  0  0  0  0  0
  150.6906  138.4274  155.7004 N   0  0  0  0  0  0  0  0  0  0  0  0
  149.2010  138.7057  155.6232 C   0  0  1  0  0  0  0  0  0  0  0  0
  148.9410  139.9564  156.1900 O   0  0  0  0  0  0  0  0  0  0  0  0
  147.9835  140.6526  155.3990 C   0  0  1  0  0  0  0  0  0  0  0  0
  148.0582  142.1705  155.6411 C   0  0  0  0  0  0  0  0  0  0  0  0
  148.4543  142.4322  156.9708 O   0  0  0  0  0  0  0  0  0  0  0  0
  148.3037  140.1943  153.9698 C   0  0  1  0  0  0  0  0  0  0  0  0
  149.3760  140.9446  153.4227 O   0  0  0  0  0  0  0  0  0  0  0  0
  148.6616  138.7261  154.1761 C   0  0  1  0  0  0  0  0  0  0  0  0
  149.5334  138.2193  153.1797 O   0  0  0  0  0  0  0  0  0  0  0  0
  151.6192  139.4772  155.4675 C   0  0  0  0  0  0  0  0  0  0  0  0
  151.1798  140.5991  155.2142 O   0  0  0  0  0  0  0  0  0  0  0  0
  152.9511  139.2001  155.5463 N   0  5  0  0  0  0  0  0  0  0  0  0
  148.7119  137.9537  156.2437 H   0  0  0  0  0  0  0  0  0  0  0  0
  146.9901  140.2798  155.6566 H   0  0  0  0  0  0  0  0  0  0  0  0
  147.4431  140.3075  153.3098 H   0  0  0  0  0  0  0  0  0  0  0  0
  147.7456  138.1338  154.1673 H   0  0  0  0  0  0  0  0  0  0  0  0
  154.8535  136.7713  156.1530 H   0  0  0  0  0  0  0  0  0  0  0  0
  150.4220  136.3484  156.2226 H   0  0  0  0  0  0  0  0  0  0  0  0
  148.7415  142.6516  154.9404 H   0  0  0  0  0  0  0  0  0  0  0  0
  147.0756  142.6216  155.5006 H   0  0  0  0  0  0  0  0  0  0  0  0
  148.9880  143.2121  156.9771 H   0  0  0  0  0  0  0  0  0  0  0  0
  149.7349  140.4602  152.6946 H   0  0  0  0  0  0  0  0  0  0  0  0
  149.0992  137.5018  152.7434 H   0  0  0  0  0  0  0  0  0  0  0  0
  1  2  2  0  0  0  0
  1 22  1  0  0  0  0
  2 17  1  0  0  0  0
  2  3  1  0  0  0  0
  3  4  2  0  0  0  0
  4  5  1  0  0  0  0
  4 23  1  0  0  0  0
  5  6  1  0  0  0  0
  5 15  1  0  0  0  0
  6 18  1  0  0  0  0
  6 13  1  0  0  0  0
  6  7  1  0  0  0  0
  7  8  1  0  0  0  0
  8 19  1  0  0  0  0
  8  9  1  0  0  0  0
  8 11  1  0  0  0  0
  9 10  1  0  0  0  0
  9 24  1  0  0  0  0
  9 25  1  0  0  0  0
 10 26  1  0  0  0  0
 11 20  1  0  0  0  0
 11 12  1  0  0  0  0
 11 13  1  0  0  0  0
 12 27  1  0  0  0  0
 13 21  1  0  0  0  0
 13 14  1  0  0  0  0
 14 28  1  0  0  0  0
 15 16  2  0  0  0  0
 15 17  1  0  0  0  0
M  CHG  1  17  -1
M  END
> <s_m_source_file>
AV-unprocessed.smi

> <i_m_source_file_index>
72

> <i_lp_mmshare_version>
43012

> <i_f3d_flags>
0

> <s_epik_input>
W05IMl1jMW5bY0hdbihjKD1PKW4xKVtDQEBIXTJPW0NASF0oW0NIMl1bT0hdKVtDQEBIXShbT0hdKVtDQEhdMltPSF0=

> <s_epik_cmdline>
J2VwaWtfcHl0aG9uJywgJy1waCcsICc3LjAnLCAnLXRuJywgJzgnLCAnLW1hJywgJzIwMCcsICctbWV0YWxfYmluZGluZycsICctaW1hZScsICc8aW5maWxlLm1hZT4nLCAnLW9tYWUnLCAnPG91dGZpbGUubWFlPic=

> <r_lp_tautomer_probability>
7.17554e-07

> <r_epik_Ionization_Penalty>
12.8705

> <r_epik_Ionization_Penalty_Charging>
5.64144

> <r_epik_Ionization_Penalty_Neutral>
7.22905

> <r_epik_State_Penalty>
3.30104

> <r_epik_Charging_Adjusted_Penalty>
8.94249

> <i_epik_Tot_Q>
-1

> <i_epik_Tot_abs_Q>
1

> <r_epik_Metal_State_Penalty>
0.529074

> <b_epik_Metal_Only>
1

> <s_epik_Chemistry_Notes>
This compound contains an acetal/aminal-like group ( X-CH(R)-Y where X, Y are N, S, or O) that may be acid/base labile, releasing an aldehyde.

> <s_lp_Force_Field>
OPLS_2005

> <r_lp_Energy>
43.5676

> <b_lp_Chiralities_Consistent>
1

> <s_lp_Variant>
AV-unprocessed.smi:72-68

> <Gold.Version>
5.8.1

> <Gold.Id.Protein>
6NUR|6NUR_protein|mol2

> <Gold.PLP.Fitness>
37.4966

> <Gold.PLP.PLP>
-20.0224

> <Gold.PLP.part.hbond>
-10.5296

> <Gold.PLP.part.metal>
0.0000

> <Gold.PLP.part.buried>
2.9097

> <Gold.PLP.part.nonpolar>
-12.4515

> <Gold.PLP.part.repulsive>
0.0517

> <Gold.PLP.ligand.clash>
0.0000

> <Gold.PLP.ligand.torsion>
0.9346

> <Gold.PLP.Chemscore.Hbond>
6.4460

> <Gold.PLP.Chemscore.CHOScore>
0.0000

> <Gold.PLP.Chemscore.Metal>
0.0000

> <Gold.Chemscore.Hbonds>
donor molecule, donor type, donor heavy atom, donor atom, acceptor molecule, acceptor atom, score
      L1  H    10    26       P1  8028  0.53
      L1  H    12    27       P1  7957  0.96
      L1  H    14    28       P1  7948  0.98
      P1  H  7989  7998       L1    16  0.90
      P1  H  7997  8009       L1    17  2.00
      P1  H  8011  8017       L1    12  0.10
      P1  H 10752 10765       L1     3  0.93

> <Gold.PLP.Chemscore.Internal.Correction>
0.0055

> <Gold.Rescore>
     Score         DG    S(hbond)    S(metal)    S(lipo)     H(rot)  DE(clash)    DE(int)     intcor
      4.37     -10.22       3.78        0.00      20.84       4.04       1.58       4.27       ----

> <Gold.Chemscore.Fitness>
4.3705

> <Gold.Chemscore.DG>
-10.2156

> <Gold.Chemscore.ZeroCoef>
-5.4800

> <Gold.Chemscore.Hbond>
3.7844

> <Gold.Chemscore.Metal>
0.0000

> <Gold.Chemscore.Lipo>
20.8431

> <Gold.Chemscore.Internal_Hbond>
0.0000

> <Gold.Chemscore.DEClash>
1.5769

> <Gold.Chemscore.DEInternal>
4.2682

> <Gold.Chemscore.Rot>
4.0403

> <Gold.Chemscore.Internal.Correction>
   9.000000E+99

> <Gold.Chemscore.Hbonds>
donor molecule, donor type, donor heavy atom, donor atom, acceptor molecule, acceptor atom, score
      L1  H    10    26       P1  8028  0.41
      L1  H    12    27       P1  7957  0.91
      L1  H    14    28       P1  7948  0.90
      P1  H  7989  7998       L1    16  0.44
      P1  H  7997  8009       L1    17  0.30
      P1  H 10752 10765       L1     3  0.23

> <Gold.Chemscore.Hbond.Weighted>
-12.6400

> <Gold.Chemscore.Metal.Weighted>
-0.0000

> <Gold.Chemscore.Lipo.Weighted>
-2.4386

> <Gold.Chemscore.Internal_Hbond.Weighted>
0.0000

> <Gold.Chemscore.DEClash.Weighted>
1.5769

> <Gold.Chemscore.DEInternal.Weighted>
4.2682

> <Gold.Chemscore.Rot.Weighted>
10.3431

> <Gold.Chemscore.Internal.Correction.Weighted>
   9.000000E+99

> <Gold.Protein.RotatedTorsions>
[ 6907 6896 6895 6894 ] final -117.89 input  -60.11 | X-H torsion
[ 7974 7965 7964 7962 ] final    5.73 input  175.53 | X-H torsion
[ 8008 7997 7996 7995 ] final -140.57 input   59.86 | X-H torsion
[ 10167 10162 10161 10158 ] final   43.26 input  -65.29 | X-H torsion
[ 10718 10713 10712 10709 ] final   15.25 input   66.30 | X-H torsion
[ 10763 10752 10751 10750 ] final -139.14 input  -60.55 | X-H torsion
[ 11005 11000 10999 10996 ] final   71.40 input  -57.11 | X-H torsion

> <Gold.Protein.ActiveResidues>
 VAL166  LYS551  ARG553  GLY616  TRP617  ASP618  TYR619  PRO620  LYS621  CYS622 
 ASP623  PHE694  ASN695  SER759  ASP760  ASP761  ALA762  ILE779  LEU786  VAL792 
 PHE793  MET794  SER795  GLU796  ALA797  LYS798  CYS799  TRP800  GLU811  SER814 

> <Gold.Protein.RotatedAtoms>
  150.8174  133.8313  159.3154 H   0  0  0  0  0  0  0  0  0  0  0  0  # atno 6907 bound_to 6896
  151.6081  135.1040  160.0084 H   0  0  0  0  0  0  0  0  0  0  0  0  # atno 6908 bound_to 6896
  152.4264  133.7163  159.6564 H   0  0  0  0  0  0  0  0  0  0  0  0  # atno 6909 bound_to 6896
  146.2439  140.0340  142.8387 H   0  0  0  0  0  0  0  0  0  0  0  0  # atno 7974 bound_to 7965
  155.4635  140.0547  157.2988 H   0  0  0  0  0  0  0  0  0  0  0  0  # atno 8008 bound_to 7997
  154.4727  140.2047  155.9908 H   0  0  0  0  0  0  0  0  0  0  0  0  # atno 8009 bound_to 7997
  156.1082  140.3208  155.8041 H   0  0  0  0  0  0  0  0  0  0  0  0  # atno 8010 bound_to 7997
  140.3461  144.2409  150.6150 H   0  0  0  0  0  0  0  0  0  0  0  0  # atno 10167 bound_to 10162
  157.0509  130.6269  149.5767 H   0  0  0  0  0  0  0  0  0  0  0  0  # atno 10718 bound_to 10713
  154.8617  135.3591  154.5498 H   0  0  0  0  0  0  0  0  0  0  0  0  # atno 10763 bound_to 10752
  153.6117  135.7009  153.5349 H   0  0  0  0  0  0  0  0  0  0  0  0  # atno 10764 bound_to 10752
  153.3204  135.4153  155.1372 H   0  0  0  0  0  0  0  0  0  0  0  0  # atno 10765 bound_to 10752
  139.9545  134.7168  156.0784 H   0  0  0  0  0  0  0  0  0  0  0  0  # atno 11005 bound_to 11000
  145.1129  140.9416  143.4646 LP  0  0  0  0  0  0  0  0  0  0  0  0  # atno 17320 bound_to 7965
  145.0558  139.3145  143.5905 LP  0  0  0  0  0  0  0  0  0  0  0  0  # atno 17321 bound_to 7965
  140.5263  143.2253  151.8309 LP  0  0  0  0  0  0  0  0  0  0  0  0  # atno 17342 bound_to 10162
  139.4833  144.4775  151.9348 LP  0  0  0  0  0  0  0  0  0  0  0  0  # atno 17343 bound_to 10162
  156.0008  130.5087  150.7655 LP  0  0  0  0  0  0  0  0  0  0  0  0  # atno 17370 bound_to 10713
  157.5031  131.0920  151.0290 LP  0  0  0  0  0  0  0  0  0  0  0  0  # atno 17371 bound_to 10713
  141.1215  133.6611  156.3226 LP  0  0  0  0  0  0  0  0  0  0  0  0  # atno 17394 bound_to 11000
  140.5640  134.5906  157.5441 LP  0  0  0  0  0  0  0  0  0  0  0  0  # atno 17395 bound_to 11000

$$$$
