AV-unprocessed.smi:3236|AV-procd|sdf|12362|dock6
  -GOLD-   2272018223D 1   1.00000     0.00000
 Structure written by MMmdl.
 40 41  0  0  0  0  0  0  0  0  1 V2000
  152.4624  143.8786  160.9854 C   0  0  0  0  0  0  0  0  0  0  0  0
  152.8379  142.8128  159.9466 C   0  0  0  0  0  0  0  0  0  0  0  0
  151.5919  142.2493  159.2298 C   0  0  0  0  0  0  0  0  0  0  0  0
  151.9727  141.1143  158.2621 C   0  0  0  0  0  0  0  0  0  0  0  0
  152.6813  140.0700  159.0145 N   0  0  0  0  0  0  0  0  0  0  0  0
  152.1988  138.8350  159.2970 C   0  0  0  0  0  0  0  0  0  0  0  0
  152.8276  138.0279  159.9850 O   0  0  0  0  0  0  0  0  0  0  0  0
  150.8195  138.4315  158.7472 C   0  0  0  0  0  0  0  0  0  0  0  0
  150.2052  137.3217  159.4863 N   0  0  0  0  0  0  0  0  0  0  0  0
  148.9007  136.9875  158.9326 C   0  0  0  0  0  0  0  0  0  0  0  0
  148.4099  135.6442  159.4984 C   0  0  0  0  0  0  0  0  0  0  0  0
  148.0187  135.7394  160.8936 N   0  0  0  0  0  0  0  0  0  0  0  0
  147.7249  134.7183  161.7725 C   0  0  0  0  0  0  0  0  0  0  0  0
  147.4057  135.2921  162.9697 C   0  0  0  0  0  0  0  0  0  0  0  0
  147.5341  136.6872  162.7207 C   0  0  0  0  0  0  0  0  0  0  0  0
  147.9033  136.9521  161.4776 N   0  0  0  0  0  0  0  0  0  0  0  0
  153.9584  140.5633  159.5461 C   0  0  0  0  0  0  0  0  0  0  0  0
  153.6745  141.6760  160.5716 C   0  0  0  0  0  0  0  0  0  0  0  0
  151.8381  143.4601  161.7753 H   0  0  0  0  0  0  0  0  0  0  0  0
  151.9114  144.6987  160.5244 H   0  0  0  0  0  0  0  0  0  0  0  0
  153.3520  144.3014  161.4527 H   0  0  0  0  0  0  0  0  0  0  0  0
  153.4581  143.2969  159.1909 H   0  0  0  0  0  0  0  0  0  0  0  0
  150.8796  141.8724  159.9654 H   0  0  0  0  0  0  0  0  0  0  0  0
  151.0826  143.0446  158.6848 H   0  0  0  0  0  0  0  0  0  0  0  0
  151.0838  140.7589  157.7442 H   0  0  0  0  0  0  0  0  0  0  0  0
  152.6285  141.4978  157.4791 H   0  0  0  0  0  0  0  0  0  0  0  0
  150.1562  139.2969  158.7862 H   0  0  0  0  0  0  0  0  0  0  0  0
  150.9334  138.1408  157.7018 H   0  0  0  0  0  0  0  0  0  0  0  0
  150.1081  137.5415  160.4674 H   0  0  0  0  0  0  0  0  0  0  0  0
  148.1891  137.7722  159.1931 H   0  0  0  0  0  0  0  0  0  0  0  0
  148.9490  136.9442  157.8435 H   0  0  0  0  0  0  0  0  0  0  0  0
  147.5650  135.2679  158.9201 H   0  0  0  0  0  0  0  0  0  0  0  0
  149.1996  134.8963  159.4153 H   0  0  0  0  0  0  0  0  0  0  0  0
  147.7636  133.6808  161.4748 H   0  0  0  0  0  0  0  0  0  0  0  0
  147.1214  134.7915  163.8830 H   0  0  0  0  0  0  0  0  0  0  0  0
  147.3708  137.5093  163.4018 H   0  0  0  0  0  0  0  0  0  0  0  0
  154.5579  139.7788  160.0094 H   0  0  0  0  0  0  0  0  0  0  0  0
  154.5641  140.9531  158.7268 H   0  0  0  0  0  0  0  0  0  0  0  0
  154.6149  142.0715  160.9571 H   0  0  0  0  0  0  0  0  0  0  0  0
  153.1438  141.2522  161.4257 H   0  0  0  0  0  0  0  0  0  0  0  0
  1  2  1  0  0  0  0
  1 19  1  0  0  0  0
  1 20  1  0  0  0  0
  1 21  1  0  0  0  0
  2 18  1  0  0  0  0
  2  3  1  0  0  0  0
  2 22  1  0  0  0  0
  3  4  1  0  0  0  0
  3 23  1  0  0  0  0
  3 24  1  0  0  0  0
  4  5  1  0  0  0  0
  4 25  1  0  0  0  0
  4 26  1  0  0  0  0
  5  6  1  0  0  0  0
  5 17  1  0  0  0  0
  6  7  2  0  0  0  0
  6  8  1  0  0  0  0
  8  9  1  0  0  0  0
  8 27  1  0  0  0  0
  8 28  1  0  0  0  0
  9 10  1  0  0  0  0
  9 29  1  0  0  0  0
 10 11  1  0  0  0  0
 10 30  1  0  0  0  0
 10 31  1  0  0  0  0
 11 12  1  0  0  0  0
 11 32  1  0  0  0  0
 11 33  1  0  0  0  0
 12 16  1  0  0  0  0
 12 13  1  0  0  0  0
 13 14  2  0  0  0  0
 13 34  1  0  0  0  0
 14 15  1  0  0  0  0
 14 35  1  0  0  0  0
 15 16  2  0  0  0  0
 15 36  1  0  0  0  0
 17 18  1  0  0  0  0
 17 37  1  0  0  0  0
 17 38  1  0  0  0  0
 18 39  1  0  0  0  0
 18 40  1  0  0  0  0
M  END
> <s_m_source_file>
AV-unprocessed.smi

> <i_m_source_file_index>
3236

> <i_lp_mmshare_version>
43012

> <i_f3d_flags>
0

> <s_epik_input>
W0NIM11bQ0hdMVtDSDJdW0NIMl1OKFtDSDJdW0NIMl0xKUMoPU8pW0NIMl1bTkhdW0NIMl1bQ0gyXW4yW2NIXVtjSF1bY0hdbjI=

> <s_epik_cmdline>
J2VwaWtfcHl0aG9uJywgJy1waCcsICc3LjAnLCAnLXRuJywgJzgnLCAnLW1hJywgJzIwMCcsICctbWV0YWxfYmluZGluZycsICctaW1hZScsICc8aW5maWxlLm1hZT4nLCAnLW9tYWUnLCAnPG91dGZpbGUubWFlPic=

> <r_lp_tautomer_probability>
1

> <r_epik_Ionization_Penalty>
0.778591

> <r_epik_Ionization_Penalty_Charging>
0

> <r_epik_Ionization_Penalty_Neutral>
0.778591

> <r_epik_State_Penalty>
0.806071

> <r_epik_Charging_Adjusted_Penalty>
0.806071

> <i_epik_Tot_Q>
0

> <i_epik_Tot_abs_Q>
0

> <r_epik_Metal_State_Penalty>
0.80479

> <b_epik_Metal_Only>
0

> <s_lp_Force_Field>
OPLS_2005

> <r_lp_Energy>
26.1059

> <b_lp_Chiralities_Consistent>
1

> <s_lp_Variant>
AV-unprocessed.smi:3236-2

> <Gold.Version>
5.8.1

> <Gold.Id.Protein>
6NUR|6NUR_protein|mol2

> <Gold.PLP.Fitness>
45.6194

> <Gold.PLP.PLP>
-41.7339

> <Gold.PLP.part.hbond>
-2.8916

> <Gold.PLP.part.metal>
0.0000

> <Gold.PLP.part.buried>
-4.9908

> <Gold.PLP.part.nonpolar>
-33.9095

> <Gold.PLP.part.repulsive>
0.0000

> <Gold.PLP.ligand.clash>
0.0000

> <Gold.PLP.ligand.torsion>
0.4734

> <Gold.PLP.Chemscore.Hbond>
1.5989

> <Gold.PLP.Chemscore.CHOScore>
0.0000

> <Gold.PLP.Chemscore.Metal>
0.0000

> <Gold.Chemscore.Hbonds>
donor molecule, donor type, donor heavy atom, donor atom, acceptor molecule, acceptor atom, score
      P1  H  6931  6943       L1    16  0.75
      P1  H  6934  6947       L1    16  0.32

> <Gold.PLP.Chemscore.Internal.Correction>
0.0356

> <Gold.Rescore>
     Score         DG    S(hbond)    S(metal)    S(lipo)     H(rot)  DE(clash)    DE(int)     intcor
     13.81     -15.52       0.78        0.00     101.26       1.73       0.16       1.56       ----

> <Gold.Chemscore.Fitness>
13.8053

> <Gold.Chemscore.DG>
-15.5198

> <Gold.Chemscore.ZeroCoef>
-5.4800

> <Gold.Chemscore.Hbond>
0.7845

> <Gold.Chemscore.Metal>
0.0000

> <Gold.Chemscore.Lipo>
101.2594

> <Gold.Chemscore.Internal_Hbond>
0.0000

> <Gold.Chemscore.DEClash>
0.1595

> <Gold.Chemscore.DEInternal>
1.5550

> <Gold.Chemscore.Rot>
1.7296

> <Gold.Chemscore.Internal.Correction>
   9.000000E+99

> <Gold.Chemscore.Hbonds>
donor molecule, donor type, donor heavy atom, donor atom, acceptor molecule, acceptor atom, score
      P1  H  6931  6943       L1    16  0.09
      P1  H  6934  6947       L1    16  0.22

> <Gold.Chemscore.Hbond.Weighted>
-2.6202

> <Gold.Chemscore.Metal.Weighted>
-0.0000

> <Gold.Chemscore.Lipo.Weighted>
-11.8473

> <Gold.Chemscore.Internal_Hbond.Weighted>
0.0000

> <Gold.Chemscore.DEClash.Weighted>
0.1595

> <Gold.Chemscore.DEInternal.Weighted>
1.5550

> <Gold.Chemscore.Rot.Weighted>
4.4278

> <Gold.Chemscore.Internal.Correction.Weighted>
   9.000000E+99

> <Gold.Protein.RotatedTorsions>
[ 6907 6896 6895 6894 ] final   35.91 input  -60.11 | X-H torsion
[ 7974 7965 7964 7962 ] final  -72.21 input  175.53 | X-H torsion
[ 8008 7997 7996 7995 ] final  171.54 input   59.86 | X-H torsion
[ 10167 10162 10161 10158 ] final  -50.03 input  -65.29 | X-H torsion
[ 10718 10713 10712 10709 ] final   25.80 input   66.30 | X-H torsion
[ 10763 10752 10751 10750 ] final  -39.24 input  -60.55 | X-H torsion
[ 11005 11000 10999 10996 ] final  108.02 input  -57.11 | X-H torsion

> <Gold.Protein.ActiveResidues>
 VAL166  LYS551  ARG553  GLY616  TRP617  ASP618  TYR619  PRO620  LYS621  CYS622 
 ASP623  PHE694  ASN695  SER759  ASP760  ASP761  ALA762  ILE779  LEU786  VAL792 
 PHE793  MET794  SER795  GLU796  ALA797  LYS798  CYS799  TRP800  GLU811  SER814 

> <Gold.Protein.RotatedAtoms>
  152.1226  134.9194  160.0562 H   0  0  0  0  0  0  0  0  0  0  0  0  # atno 6907 bound_to 6896
  152.0330  133.3940  159.4313 H   0  0  0  0  0  0  0  0  0  0  0  0  # atno 6908 bound_to 6896
  150.6850  134.3421  159.4916 H   0  0  0  0  0  0  0  0  0  0  0  0  # atno 6909 bound_to 6896
  145.6681  140.9230  143.0898 H   0  0  0  0  0  0  0  0  0  0  0  0  # atno 7974 bound_to 7965
  156.1261  140.1509  156.9133 H   0  0  0  0  0  0  0  0  0  0  0  0  # atno 8008 bound_to 7997
  154.4873  140.0861  156.7556 H   0  0  0  0  0  0  0  0  0  0  0  0  # atno 8009 bound_to 7997
  155.4340  140.3428  155.4285 H   0  0  0  0  0  0  0  0  0  0  0  0  # atno 8010 bound_to 7997
  140.6657  143.2674  151.4300 H   0  0  0  0  0  0  0  0  0  0  0  0  # atno 10167 bound_to 10162
  157.1982  130.6877  149.6177 H   0  0  0  0  0  0  0  0  0  0  0  0  # atno 10718 bound_to 10713
  153.9261  135.6777  153.4746 H   0  0  0  0  0  0  0  0  0  0  0  0  # atno 10763 bound_to 10752
  153.1003  135.4831  154.8852 H   0  0  0  0  0  0  0  0  0  0  0  0  # atno 10764 bound_to 10752
  154.7452  135.3170  154.8614 H   0  0  0  0  0  0  0  0  0  0  0  0  # atno 10765 bound_to 10752
  139.8837  134.9418  156.5909 H   0  0  0  0  0  0  0  0  0  0  0  0  # atno 11005 bound_to 11000
  144.7066  139.8536  143.7428 LP  0  0  0  0  0  0  0  0  0  0  0  0  # atno 17320 bound_to 7965
  146.1069  139.4070  143.0312 LP  0  0  0  0  0  0  0  0  0  0  0  0  # atno 17321 bound_to 7965
  139.5905  144.1509  152.2082 LP  0  0  0  0  0  0  0  0  0  0  0  0  # atno 17342 bound_to 10162
  140.0862  144.5659  150.7087 LP  0  0  0  0  0  0  0  0  0  0  0  0  # atno 17343 bound_to 10162
  155.9703  130.4591  150.6026 LP  0  0  0  0  0  0  0  0  0  0  0  0  # atno 17370 bound_to 10713
  157.3793  131.0778  151.1490 LP  0  0  0  0  0  0  0  0  0  0  0  0  # atno 17371 bound_to 10713
  140.7956  133.8547  155.8683 LP  0  0  0  0  0  0  0  0  0  0  0  0  # atno 17394 bound_to 11000
  140.9638  134.1620  157.4632 LP  0  0  0  0  0  0  0  0  0  0  0  0  # atno 17395 bound_to 11000

$$$$
