AV-unprocessed.smi:1593|AV-procd|sdf|6410|dock9
  -GOLD-   22720 7 43D 1   1.00000     0.00000
 Structure written by MMmdl.
 37 38  0  0  0  0  0  0  0  0  2 V2000
  151.9180  138.9950  158.2367 C   0  0  0  0  0  0  0  0  0  0  0  0
  151.5104  139.2601  156.8280 C   0  0  0  0  0  0  0  0  0  0  0  0
  150.3536  139.0361  156.1358 C   0  0  0  0  0  0  0  0  0  0  0  0
  150.6560  139.5314  154.8396 C   0  0  0  0  0  0  0  0  0  0  0  0
  149.6936  139.4837  153.7991 N   0  0  0  0  0  0  0  0  0  0  0  0
  148.4644  138.9425  153.8475 C   0  0  0  0  0  0  0  0  0  0  0  0
  147.9656  138.3988  154.8333 O   0  0  0  0  0  0  0  0  0  0  0  0
  147.8294  139.0614  152.6724 N   0  0  0  0  0  0  0  0  0  0  0  0
  146.4779  138.5817  152.4074 C   0  0  0  0  0  0  0  0  0  0  0  0
  146.4708  137.4653  151.3451 C   0  0  0  0  0  0  0  0  0  0  0  0
  145.2332  136.6481  151.3920 N   0  3  0  0  0  0  0  0  0  0  0  0
  145.4299  135.2948  150.8194 C   0  0  0  0  0  0  0  0  0  0  0  0
  144.1140  134.4991  150.8471 C   0  0  0  0  0  0  0  0  0  0  0  0
  143.6269  134.4281  152.1810 O   0  0  0  0  0  0  0  0  0  0  0  0
  143.3475  135.7167  152.7136 C   0  0  0  0  0  0  0  0  0  0  0  0
  144.6380  136.5528  152.7487 C   0  0  0  0  0  0  0  0  0  0  0  0
  151.8860  140.0136  154.7485 N   0  0  0  0  0  0  0  0  0  0  0  0
  152.4399  139.8419  156.0226 O   0  0  0  0  0  0  0  0  0  0  0  0
  151.1108  138.5190  158.7936 H   0  0  0  0  0  0  0  0  0  0  0  0
  152.1770  139.9242  158.7444 H   0  0  0  0  0  0  0  0  0  0  0  0
  152.7864  138.3368  158.2699 H   0  0  0  0  0  0  0  0  0  0  0  0
  149.4402  138.5904  156.5011 H   0  0  0  0  0  0  0  0  0  0  0  0
  149.9745  139.9010  152.9241 H   0  0  0  0  0  0  0  0  0  0  0  0
  148.3095  139.5228  151.9132 H   0  0  0  0  0  0  0  0  0  0  0  0
  146.0298  138.2467  153.3432 H   0  0  0  0  0  0  0  0  0  0  0  0
  145.8806  139.4261  152.0626 H   0  0  0  0  0  0  0  0  0  0  0  0
  146.5527  137.9338  150.3630 H   0  0  0  0  0  0  0  0  0  0  0  0
  147.3406  136.8148  151.4482 H   0  0  0  0  0  0  0  0  0  0  0  0
  145.7862  135.3746  149.7918 H   0  0  0  0  0  0  0  0  0  0  0  0
  146.1982  134.7662  151.3861 H   0  0  0  0  0  0  0  0  0  0  0  0
  143.3669  134.9573  150.1969 H   0  0  0  0  0  0  0  0  0  0  0  0
  144.2800  133.4872  150.4774 H   0  0  0  0  0  0  0  0  0  0  0  0
  142.5782  136.2111  152.1181 H   0  0  0  0  0  0  0  0  0  0  0  0
  142.9459  135.6032  153.7209 H   0  0  0  0  0  0  0  0  0  0  0  0
  145.3559  136.0975  153.4330 H   0  0  0  0  0  0  0  0  0  0  0  0
  144.4116  137.5445  153.1390 H   0  0  0  0  0  0  0  0  0  0  0  0
  144.5566  137.1102  150.8013 H   0  0  0  0  0  0  0  0  0  0  0  0
  1  2  1  0  0  0  0
  1 19  1  0  0  0  0
  1 20  1  0  0  0  0
  1 21  1  0  0  0  0
  2 18  1  0  0  0  0
  2  3  2  0  0  0  0
  3  4  1  0  0  0  0
  3 22  1  0  0  0  0
  4  5  1  0  0  0  0
  4 17  2  0  0  0  0
  5  6  1  0  0  0  0
  5 23  1  0  0  0  0
  6  7  2  0  0  0  0
  6  8  1  0  0  0  0
  8  9  1  0  0  0  0
  8 24  1  0  0  0  0
  9 10  1  0  0  0  0
  9 25  1  0  0  0  0
  9 26  1  0  0  0  0
 10 11  1  0  0  0  0
 10 27  1  0  0  0  0
 10 28  1  0  0  0  0
 11 16  1  0  0  0  0
 11 12  1  0  0  0  0
 11 37  1  0  0  0  0
 12 13  1  0  0  0  0
 12 29  1  0  0  0  0
 12 30  1  0  0  0  0
 13 14  1  0  0  0  0
 13 31  1  0  0  0  0
 13 32  1  0  0  0  0
 14 15  1  0  0  0  0
 15 16  1  0  0  0  0
 15 33  1  0  0  0  0
 15 34  1  0  0  0  0
 16 35  1  0  0  0  0
 16 36  1  0  0  0  0
 17 18  1  0  0  0  0
M  CHG  1  11   1
M  END
> <s_m_source_file>
AV-unprocessed.smi

> <i_m_source_file_index>
1593

> <i_lp_mmshare_version>
43012

> <i_f3d_flags>
0

> <s_epik_input>
W0NIM11jMVtjSF1jKG5vMSlbTkhdQyg9TylbTkhdW0NIMl1bQ0gyXU4yW0NIMl1bQ0gyXU9bQ0gyXVtDSDJdMg==

> <s_epik_cmdline>
J2VwaWtfcHl0aG9uJywgJy1waCcsICc3LjAnLCAnLXRuJywgJzgnLCAnLW1hJywgJzIwMCcsICctbWV0YWxfYmluZGluZycsICctaW1hZScsICc8aW5maWxlLm1hZT4nLCAnLW9tYWUnLCAnPG91dGZpbGUubWFlPic=

> <r_epik_Ionization_Penalty>
0.707076

> <r_epik_Ionization_Penalty_Charging>
0.707039

> <r_epik_Ionization_Penalty_Neutral>
3.67886e-05

> <r_epik_State_Penalty>
0.730276

> <r_epik_Charging_Adjusted_Penalty>
1.43732

> <i_epik_Tot_Q>
1

> <i_epik_Tot_abs_Q>
1

> <r_epik_Metal_State_Penalty>
0.743216

> <b_epik_Metal_Only>
0

> <s_lp_Force_Field>
OPLS_2005

> <r_lp_Energy>
12.0314

> <b_lp_Chiralities_Consistent>
1

> <s_lp_Variant>
AV-unprocessed.smi:1593-2

> <Gold.Version>
5.8.1

> <Gold.Id.Protein>
6NUR|6NUR_protein|mol2

> <Gold.PLP.Fitness>
40.5549

> <Gold.PLP.PLP>
-27.2728

> <Gold.PLP.part.hbond>
-5.4709

> <Gold.PLP.part.metal>
0.0000

> <Gold.PLP.part.buried>
0.0133

> <Gold.PLP.part.nonpolar>
-21.9020

> <Gold.PLP.part.repulsive>
0.5626

> <Gold.PLP.ligand.clash>
0.0000

> <Gold.PLP.ligand.torsion>
0.4196

> <Gold.PLP.Chemscore.Hbond>
4.7032

> <Gold.PLP.Chemscore.CHOScore>
0.0000

> <Gold.PLP.Chemscore.Metal>
0.0000

> <Gold.Chemscore.Hbonds>
donor molecule, donor type, donor heavy atom, donor atom, acceptor molecule, acceptor atom, score
      L1  H     5    23       P1  7957  0.91
      L1  H     8    24       P1  7957  1.00
      L1  H    11    37       P1 10171  1.00
      P1  H  7989  7998       L1    17  0.76
      P1  H  7997  8008       L1    18  1.00

> <Gold.PLP.Chemscore.Internal.Correction>
0.0117

> <Gold.Rescore>
     Score         DG    S(hbond)    S(metal)    S(lipo)     H(rot)  DE(clash)    DE(int)     intcor
     18.28     -20.62       4.12        0.00      47.89       1.65       0.51       1.83       ----

> <Gold.Chemscore.Fitness>
18.2809

> <Gold.Chemscore.DG>
-20.6196

> <Gold.Chemscore.ZeroCoef>
-5.4800

> <Gold.Chemscore.Hbond>
4.1210

> <Gold.Chemscore.Metal>
0.0000

> <Gold.Chemscore.Lipo>
47.8946

> <Gold.Chemscore.Internal_Hbond>
0.0000

> <Gold.Chemscore.DEClash>
0.5093

> <Gold.Chemscore.DEInternal>
1.8295

> <Gold.Chemscore.Rot>
1.6516

> <Gold.Chemscore.Internal.Correction>
   9.000000E+99

> <Gold.Chemscore.Hbonds>
donor molecule, donor type, donor heavy atom, donor atom, acceptor molecule, acceptor atom, score
      L1  H     5    23       P1  7957  0.90
      L1  H     8    24       P1  7957  0.95
      L1  H    11    37       P1 10171  0.98
      P1  H  7989  7998       L1    17  0.12
      P1  H  7997  8008       L1    18  0.97

> <Gold.Chemscore.Hbond.Weighted>
-13.7641

> <Gold.Chemscore.Metal.Weighted>
-0.0000

> <Gold.Chemscore.Lipo.Weighted>
-5.6037

> <Gold.Chemscore.Internal_Hbond.Weighted>
0.0000

> <Gold.Chemscore.DEClash.Weighted>
0.5093

> <Gold.Chemscore.DEInternal.Weighted>
1.8295

> <Gold.Chemscore.Rot.Weighted>
4.2281

> <Gold.Chemscore.Internal.Correction.Weighted>
   9.000000E+99

> <Gold.Protein.RotatedTorsions>
[ 6907 6896 6895 6894 ] final  -22.97 input  -60.11 | X-H torsion
[ 7974 7965 7964 7962 ] final  167.67 input  175.53 | X-H torsion
[ 8008 7997 7996 7995 ] final  -42.05 input   59.86 | X-H torsion
[ 10167 10162 10161 10158 ] final  -40.44 input  -65.29 | X-H torsion
[ 10718 10713 10712 10709 ] final  123.45 input   66.30 | X-H torsion
[ 10763 10752 10751 10750 ] final   63.04 input  -60.55 | X-H torsion
[ 11005 11000 10999 10996 ] final  144.28 input  -57.11 | X-H torsion

> <Gold.Protein.ActiveResidues>
 VAL166  LYS551  ARG553  GLY616  TRP617  ASP618  TYR619  PRO620  LYS621  CYS622 
 ASP623  PHE694  ASN695  SER759  ASP760  ASP761  ALA762  ILE779  LEU786  VAL792 
 PHE793  MET794  SER795  GLU796  ALA797  LYS798  CYS799  TRP800  GLU811  SER814 

> <Gold.Protein.RotatedAtoms>
  151.2108  135.0480  159.8909 H   0  0  0  0  0  0  0  0  0  0  0  0  # atno 6907 bound_to 6896
  152.5425  134.0747  159.8219 H   0  0  0  0  0  0  0  0  0  0  0  0  # atno 6908 bound_to 6896
  151.0900  133.5275  159.2647 H   0  0  0  0  0  0  0  0  0  0  0  0  # atno 6909 bound_to 6896
  144.7416  139.8795  143.6395 H   0  0  0  0  0  0  0  0  0  0  0  0  # atno 7974 bound_to 7965
  154.4001  140.1483  156.3291 H   0  0  0  0  0  0  0  0  0  0  0  0  # atno 8008 bound_to 7997
  155.8460  140.3460  155.5641 H   0  0  0  0  0  0  0  0  0  0  0  0  # atno 8009 bound_to 7997
  155.8036  140.0873  157.1934 H   0  0  0  0  0  0  0  0  0  0  0  0  # atno 8010 bound_to 7997
  140.7034  143.3153  151.2924 H   0  0  0  0  0  0  0  0  0  0  0  0  # atno 10167 bound_to 10162
  157.5664  131.1086  150.8447 H   0  0  0  0  0  0  0  0  0  0  0  0  # atno 10718 bound_to 10713
  153.0004  135.5443  154.6289 H   0  0  0  0  0  0  0  0  0  0  0  0  # atno 10763 bound_to 10752
  154.5571  135.2831  155.0956 H   0  0  0  0  0  0  0  0  0  0  0  0  # atno 10764 bound_to 10752
  154.2173  135.6457  153.5186 H   0  0  0  0  0  0  0  0  0  0  0  0  # atno 10765 bound_to 10752
  140.0620  134.9199  157.1200 H   0  0  0  0  0  0  0  0  0  0  0  0  # atno 11005 bound_to 11000
  146.1222  139.4242  143.0221 LP  0  0  0  0  0  0  0  0  0  0  0  0  # atno 17320 bound_to 7965
  145.7288  141.0049  143.1363 LP  0  0  0  0  0  0  0  0  0  0  0  0  # atno 17321 bound_to 7965
  139.6590  144.0224  152.2679 LP  0  0  0  0  0  0  0  0  0  0  0  0  # atno 17342 bound_to 10162
  139.9785  144.6445  150.7923 LP  0  0  0  0  0  0  0  0  0  0  0  0  # atno 17343 bound_to 10162
  156.8930  130.5220  149.5285 LP  0  0  0  0  0  0  0  0  0  0  0  0  # atno 17370 bound_to 10713
  156.0712  130.5744  150.9386 LP  0  0  0  0  0  0  0  0  0  0  0  0  # atno 17371 bound_to 10713
  140.3756  134.2343  155.7174 LP  0  0  0  0  0  0  0  0  0  0  0  0  # atno 17394 bound_to 11000
  141.1977  133.8053  157.0616 LP  0  0  0  0  0  0  0  0  0  0  0  0  # atno 17395 bound_to 11000

$$$$
