AV-unprocessed.smi:2895|AV-procd|sdf|11133|dock3
  -GOLD-   2272016 03D 1   1.00000     0.00000
 Structure written by MMmdl.
 54 57  0  0  0  0  0  0  0  0  3 V2000
  151.4757  137.6731  154.9720 O   0  0  0  0  0  0  0  0  0  0  0  0
  150.5531  137.9988  155.7211 C   0  0  0  0  0  0  0  0  0  0  0  0
  149.7523  137.0817  156.2936 N   0  0  0  0  0  0  0  0  0  0  0  0
  149.8636  135.6385  156.1165 C   0  0  0  0  0  0  0  0  0  0  0  0
  150.1501  135.2696  154.6522 C   0  0  0  0  0  0  0  0  0  0  0  0
  149.9718  133.7861  154.3923 C   0  0  0  0  0  0  0  0  0  0  0  0
  150.6434  132.8332  155.1898 C   0  0  0  0  0  0  0  0  0  0  0  0
  150.4565  131.4608  154.9254 C   0  0  0  0  0  0  0  0  0  0  0  0
  149.6410  131.0741  153.9198 N   0  3  0  0  0  0  0  0  0  0  0  0
  148.9785  131.9528  153.1356 C   0  0  0  0  0  0  0  0  0  0  0  0
  149.1272  133.3380  153.3526 C   0  0  0  0  0  0  0  0  0  0  0  0
  150.2819  139.2901  156.0523 N   0  0  0  0  0  0  0  0  0  0  0  0
  149.6163  139.6754  157.3194 C   0  0  0  0  0  0  0  0  0  0  0  0
  148.9438  141.0586  157.2925 C   0  0  0  0  0  0  0  0  0  0  0  0
  149.8217  142.1013  156.7139 N   0  3  0  0  0  0  0  0  0  0  0  0
  151.0343  142.4486  157.5209 C   0  0  1  0  0  0  0  0  0  0  0  0
  151.6812  143.7839  157.0660 C   0  0  0  0  0  0  0  0  0  0  0  0
  151.7699  144.6042  158.3632 C   0  0  2  0  0  0  0  0  0  0  0  0
  152.8130  143.9773  159.3040 C   0  0  0  0  0  0  0  0  0  0  0  0
  152.1034  142.6995  159.7846 C   0  0  0  0  0  0  0  0  0  0  0  0
  150.7636  142.7415  159.0234 C   0  0  1  0  0  0  0  0  0  0  0  0
  150.4570  144.2349  159.0393 C   0  0  0  0  0  0  0  0  0  0  0  0
  150.1225  141.7291  155.3116 C   0  0  0  0  0  0  0  0  0  0  0  0
  150.8305  140.3649  155.1972 C   0  0  0  0  0  0  0  0  0  0  0  0
  149.0204  137.4093  156.9073 H   0  0  0  0  0  0  0  0  0  0  0  0
  150.6401  135.2386  156.7710 H   0  0  0  0  0  0  0  0  0  0  0  0
  148.9251  135.1861  156.4379 H   0  0  0  0  0  0  0  0  0  0  0  0
  149.4877  135.8274  153.9887 H   0  0  0  0  0  0  0  0  0  0  0  0
  151.1673  135.5563  154.3814 H   0  0  0  0  0  0  0  0  0  0  0  0
  151.2926  133.1477  155.9944 H   0  0  0  0  0  0  0  0  0  0  0  0
  150.9309  130.6670  155.4836 H   0  0  0  0  0  0  0  0  0  0  0  0
  148.3546  131.5247  152.3647 H   0  0  0  0  0  0  0  0  0  0  0  0
  148.5987  134.0452  152.7299 H   0  0  0  0  0  0  0  0  0  0  0  0
  148.8421  138.9592  157.5988 H   0  0  0  0  0  0  0  0  0  0  0  0
  150.3625  139.6464  158.1146 H   0  0  0  0  0  0  0  0  0  0  0  0
  148.0456  140.9977  156.6761 H   0  0  0  0  0  0  0  0  0  0  0  0
  148.5768  141.3299  158.2796 H   0  0  0  0  0  0  0  0  0  0  0  0
  151.7563  141.6357  157.4372 H   0  0  0  0  0  0  0  0  0  0  0  0
  152.6560  143.6354  156.5995 H   0  0  0  0  0  0  0  0  0  0  0  0
  151.0532  144.3211  156.3544 H   0  0  0  0  0  0  0  0  0  0  0  0
  151.9169  145.6715  158.1957 H   0  0  0  0  0  0  0  0  0  0  0  0
  153.7546  143.7661  158.7953 H   0  0  0  0  0  0  0  0  0  0  0  0
  153.0267  144.6374  160.1459 H   0  0  0  0  0  0  0  0  0  0  0  0
  152.6789  141.7972  159.5742 H   0  0  0  0  0  0  0  0  0  0  0  0
  151.9358  142.7401  160.8617 H   0  0  0  0  0  0  0  0  0  0  0  0
  150.0149  142.1191  159.5078 H   0  0  0  0  0  0  0  0  0  0  0  0
  150.3583  144.6461  160.0456 H   0  0  0  0  0  0  0  0  0  0  0  0
  149.5755  144.5034  158.4547 H   0  0  0  0  0  0  0  0  0  0  0  0
  149.1801  141.6858  154.7636 H   0  0  0  0  0  0  0  0  0  0  0  0
  150.7105  142.4967  154.8096 H   0  0  0  0  0  0  0  0  0  0  0  0
  151.8838  140.4835  155.4550 H   0  0  0  0  0  0  0  0  0  0  0  0
  150.8120  140.0793  154.1438 H   0  0  0  0  0  0  0  0  0  0  0  0
  149.2689  142.9458  156.6745 H   0  0  0  0  0  0  0  0  0  0  0  0
  149.5204  130.0760  153.7455 H   0  0  0  0  0  0  0  0  0  0  0  0
  1  2  2  0  0  0  0
  2  3  1  0  0  0  0
  2 12  1  0  0  0  0
  3  4  1  0  0  0  0
  3 25  1  0  0  0  0
  4  5  1  0  0  0  0
  4 26  1  0  0  0  0
  4 27  1  0  0  0  0
  5  6  1  0  0  0  0
  5 28  1  0  0  0  0
  5 29  1  0  0  0  0
  6 11  1  0  0  0  0
  6  7  2  0  0  0  0
  7  8  1  0  0  0  0
  7 30  1  0  0  0  0
  8  9  2  0  0  0  0
  8 31  1  0  0  0  0
  9 10  1  0  0  0  0
  9 54  1  0  0  0  0
 10 11  2  0  0  0  0
 10 32  1  0  0  0  0
 11 33  1  0  0  0  0
 12 24  1  0  0  0  0
 12 13  1  0  0  0  0
 13 14  1  0  0  0  0
 13 34  1  0  0  0  0
 13 35  1  0  0  0  0
 14 15  1  0  0  0  0
 14 36  1  0  0  0  0
 14 37  1  0  0  0  0
 15 16  1  0  0  0  0
 15 23  1  0  0  0  0
 15 53  1  0  0  0  0
 16 21  1  0  0  0  0
 16 17  1  0  0  0  0
 16 38  1  0  0  0  0
 17 18  1  0  0  0  0
 17 39  1  0  0  0  0
 17 40  1  0  0  0  0
 18 22  1  0  0  0  0
 18 19  1  0  0  0  0
 18 41  1  0  0  0  0
 19 20  1  0  0  0  0
 19 42  1  0  0  0  0
 19 43  1  0  0  0  0
 20 21  1  0  0  0  0
 20 44  1  0  0  0  0
 20 45  1  0  0  0  0
 21 22  1  0  0  0  0
 21 46  1  0  0  0  0
 22 47  1  0  0  0  0
 22 48  1  0  0  0  0
 23 24  1  0  0  0  0
 23 49  1  0  0  0  0
 23 50  1  0  0  0  0
 24 51  1  0  0  0  0
 24 52  1  0  0  0  0
M  CHG  1   9   1
M  CHG  1  15   1
M  END
> <s_m_source_file>
AV-unprocessed.smi

> <i_m_source_file_index>
2895

> <i_lp_mmshare_version>
43012

> <i_f3d_flags>
0

> <s_epik_input>
W0NIMl0xW0NIMl1bQ0BASF0oW0NIMl0yKVtDQEBIXShbQ0gyXVtDQEhdMTIpTihbQ0gyXVtDSDJdMylbQ0gyXVtDSDJdTjNDKD1PKVtOSF1bQ0gyXVtDSDJdYzRbY0hdW2NIXW5bY0hdW2NIXTQ=

> <s_epik_cmdline>
J2VwaWtfcHl0aG9uJywgJy1waCcsICc3LjAnLCAnLXRuJywgJzgnLCAnLW1hJywgJzIwMCcsICctbWV0YWxfYmluZGluZycsICctaW1hZScsICc8aW5maWxlLm1hZT4nLCAnLW9tYWUnLCAnPG91dGZpbGUubWFlPic=

> <r_epik_Ionization_Penalty>
1.44916

> <r_epik_Ionization_Penalty_Charging>
1.44913

> <r_epik_Ionization_Penalty_Neutral>
2.64641e-05

> <r_epik_State_Penalty>
1.53218

> <r_epik_Charging_Adjusted_Penalty>
2.98131

> <i_epik_Tot_Q>
2

> <i_epik_Tot_abs_Q>
2

> <r_epik_Metal_State_Penalty>
1.58241

> <b_epik_Metal_Only>
0

> <s_lp_Force_Field>
OPLS_2005

> <r_lp_Energy>
108.8

> <b_lp_Chiralities_Consistent>
1

> <s_lp_Variant>
AV-unprocessed.smi:2895-6

> <Gold.Version>
5.8.1

> <Gold.Id.Protein>
6NUR|6NUR_protein|mol2

> <Gold.PLP.Fitness>
48.0453

> <Gold.PLP.PLP>
-42.9392

> <Gold.PLP.part.hbond>
-1.0000

> <Gold.PLP.part.metal>
0.0000

> <Gold.PLP.part.buried>
-2.9549

> <Gold.PLP.part.nonpolar>
-38.5091

> <Gold.PLP.part.repulsive>
0.1324

> <Gold.PLP.ligand.clash>
0.0000

> <Gold.PLP.ligand.torsion>
0.5339

> <Gold.PLP.Chemscore.Hbond>
1.9840

> <Gold.PLP.Chemscore.CHOScore>
0.0000

> <Gold.PLP.Chemscore.Metal>
0.0000

> <Gold.Chemscore.Hbonds>
donor molecule, donor type, donor heavy atom, donor atom, acceptor molecule, acceptor atom, score
      L1  H    15    53       P1  8028  1.66

> <Gold.PLP.Chemscore.Internal.Correction>
0.2219

> <Gold.Rescore>
     Score         DG    S(hbond)    S(metal)    S(lipo)     H(rot)  DE(clash)    DE(int)     intcor
     17.71     -20.24       0.91        0.00     132.16       1.46       0.29       2.25       ----

> <Gold.Chemscore.Fitness>
17.7072

> <Gold.Chemscore.DG>
-20.2429

> <Gold.Chemscore.ZeroCoef>
-5.4800

> <Gold.Chemscore.Hbond>
0.9073

> <Gold.Chemscore.Metal>
0.0000

> <Gold.Chemscore.Lipo>
132.1638

> <Gold.Chemscore.Internal_Hbond>
0.0000

> <Gold.Chemscore.DEClash>
0.2874

> <Gold.Chemscore.DEInternal>
2.2483

> <Gold.Chemscore.Rot>
1.4572

> <Gold.Chemscore.Internal.Correction>
   9.000000E+99

> <Gold.Chemscore.Hbonds>
donor molecule, donor type, donor heavy atom, donor atom, acceptor molecule, acceptor atom, score
      L1  H    15    53       P1  8028  0.78

> <Gold.Chemscore.Hbond.Weighted>
-3.0303

> <Gold.Chemscore.Metal.Weighted>
-0.0000

> <Gold.Chemscore.Lipo.Weighted>
-15.4632

> <Gold.Chemscore.Internal_Hbond.Weighted>
0.0000

> <Gold.Chemscore.DEClash.Weighted>
0.2874

> <Gold.Chemscore.DEInternal.Weighted>
2.2483

> <Gold.Chemscore.Rot.Weighted>
3.7305

> <Gold.Chemscore.Internal.Correction.Weighted>
   9.000000E+99

> <Gold.Protein.RotatedTorsions>
[ 6907 6896 6895 6894 ] final  -42.42 input  -60.11 | X-H torsion
[ 7974 7965 7964 7962 ] final   97.76 input  175.53 | X-H torsion
[ 8008 7997 7996 7995 ] final  -61.83 input   59.86 | X-H torsion
[ 10167 10162 10161 10158 ] final  -44.72 input  -65.29 | X-H torsion
[ 10718 10713 10712 10709 ] final   40.14 input   66.30 | X-H torsion
[ 10763 10752 10751 10750 ] final   62.93 input  -60.55 | X-H torsion
[ 11005 11000 10999 10996 ] final   81.07 input  -57.11 | X-H torsion

> <Gold.Protein.ActiveResidues>
 VAL166  LYS551  ARG553  GLY616  TRP617  ASP618  TYR619  PRO620  LYS621  CYS622 
 ASP623  PHE694  ASN695  SER759  ASP760  ASP761  ALA762  ILE779  LEU786  VAL792 
 PHE793  MET794  SER795  GLU796  ALA797  LYS798  CYS799  TRP800  GLU811  SER814 

> <Gold.Protein.RotatedAtoms>
  150.9555  134.8950  159.7698 H   0  0  0  0  0  0  0  0  0  0  0  0  # atno 6907 bound_to 6896
  152.5136  134.3746  159.9340 H   0  0  0  0  0  0  0  0  0  0  0  0  # atno 6908 bound_to 6896
  151.3760  133.3797  159.2739 H   0  0  0  0  0  0  0  0  0  0  0  0  # atno 6909 bound_to 6896
  145.4213  139.2321  143.3195 H   0  0  0  0  0  0  0  0  0  0  0  0  # atno 7974 bound_to 7965
  154.4468  140.1009  156.6491 H   0  0  0  0  0  0  0  0  0  0  0  0  # atno 8008 bound_to 7997
  155.5417  140.3483  155.4430 H   0  0  0  0  0  0  0  0  0  0  0  0  # atno 8009 bound_to 7997
  156.0592  140.1322  156.9950 H   0  0  0  0  0  0  0  0  0  0  0  0  # atno 8010 bound_to 7997
  140.6886  143.2916  151.3535 H   0  0  0  0  0  0  0  0  0  0  0  0  # atno 10167 bound_to 10162
  157.3787  130.7741  149.7175 H   0  0  0  0  0  0  0  0  0  0  0  0  # atno 10718 bound_to 10713
  153.0000  135.5447  154.6272 H   0  0  0  0  0  0  0  0  0  0  0  0  # atno 10763 bound_to 10752
  154.5557  135.2830  155.0968 H   0  0  0  0  0  0  0  0  0  0  0  0  # atno 10764 bound_to 10752
  154.2191  135.6454  153.5191 H   0  0  0  0  0  0  0  0  0  0  0  0  # atno 10765 bound_to 10752
  139.9111  134.7969  156.1993 H   0  0  0  0  0  0  0  0  0  0  0  0  # atno 11005 bound_to 11000
  146.2655  140.4937  142.8836 LP  0  0  0  0  0  0  0  0  0  0  0  0  # atno 17320 bound_to 7965
  144.8244  140.6603  143.6332 LP  0  0  0  0  0  0  0  0  0  0  0  0  # atno 17321 bound_to 7965
  139.6267  144.0801  152.2440 LP  0  0  0  0  0  0  0  0  0  0  0  0  # atno 17342 bound_to 10162
  140.0262  144.6115  150.7525 LP  0  0  0  0  0  0  0  0  0  0  0  0  # atno 17343 bound_to 10162
  155.9771  130.4067  150.3736 LP  0  0  0  0  0  0  0  0  0  0  0  0  # atno 17370 bound_to 10713
  157.1836  131.0398  151.2736 LP  0  0  0  0  0  0  0  0  0  0  0  0  # atno 17371 bound_to 10713
  141.0535  133.6877  156.1816 LP  0  0  0  0  0  0  0  0  0  0  0  0  # atno 17394 bound_to 11000
  140.6774  134.4804  157.5588 LP  0  0  0  0  0  0  0  0  0  0  0  0  # atno 17395 bound_to 11000

$$$$
