AV-unprocessed.smi:764|AV-procd|sdf|3642|dock1
  -GOLD-   22720 1 43D 1   1.00000     0.00000
 Structure written by MMmdl.
 37 37  0  0  0  0  0  0  0  0  2 V2000
  150.8092  137.5359  154.5062 C   0  0  0  0  0  0  0  0  0  0  0  0
  150.6529  139.0204  154.1488 C   0  0  0  0  0  0  0  0  0  0  0  0
  150.8961  139.9292  155.3612 C   0  0  0  0  0  0  0  0  0  0  0  0
  149.3119  139.2602  153.6210 N   0  0  0  0  0  0  0  0  0  0  0  0
  148.1569  139.0537  154.2733 C   0  0  0  0  0  0  0  0  0  0  0  0
  148.0923  138.6257  155.4257 O   0  0  0  0  0  0  0  0  0  0  0  0
  146.8771  139.3904  153.5025 C   0  0  0  0  0  0  0  0  0  0  0  0
  146.8047  138.6942  152.1328 C   0  0  0  0  0  0  0  0  0  0  0  0
  145.4032  138.4392  151.7466 N   0  3  0  0  0  0  0  0  0  0  0  0
  144.7985  137.2669  152.4078 C   0  0  0  0  0  0  0  0  0  0  0  0
  145.6235  136.0005  152.1390 C   0  0  0  0  0  0  0  0  0  0  0  0
  144.7792  134.8684  151.8126 N   0  0  0  0  0  0  0  0  0  0  0  0
  144.7861  134.0917  150.6731 C   0  0  0  0  0  0  0  0  0  0  0  0
  143.8089  133.1492  150.8190 C   0  0  0  0  0  0  0  0  0  0  0  0
  143.2520  133.4342  152.0971 C   0  0  0  0  0  0  0  0  0  0  0  0
  143.8366  134.4630  152.6901 N   0  0  0  0  0  0  0  0  0  0  0  0
  151.8048  137.3306  154.9004 H   0  0  0  0  0  0  0  0  0  0  0  0
  150.6659  136.9033  153.6295 H   0  0  0  0  0  0  0  0  0  0  0  0
  150.0837  137.2296  155.2607 H   0  0  0  0  0  0  0  0  0  0  0  0
  151.4051  139.2657  153.3973 H   0  0  0  0  0  0  0  0  0  0  0  0
  151.8959  139.7783  155.7690 H   0  0  0  0  0  0  0  0  0  0  0  0
  150.1787  139.7313  156.1584 H   0  0  0  0  0  0  0  0  0  0  0  0
  150.8088  140.9811  155.0871 H   0  0  0  0  0  0  0  0  0  0  0  0
  149.2613  139.6202  152.6788 H   0  0  0  0  0  0  0  0  0  0  0  0
  146.0211  139.1025  154.1139 H   0  0  0  0  0  0  0  0  0  0  0  0
  146.8164  140.4715  153.3662 H   0  0  0  0  0  0  0  0  0  0  0  0
  147.2762  139.3149  151.3690 H   0  0  0  0  0  0  0  0  0  0  0  0
  147.3445  137.7462  152.1587 H   0  0  0  0  0  0  0  0  0  0  0  0
  144.8536  139.2549  151.9766 H   0  0  0  0  0  0  0  0  0  0  0  0
  144.7365  137.4508  153.4813 H   0  0  0  0  0  0  0  0  0  0  0  0
  143.7789  137.1375  152.0423 H   0  0  0  0  0  0  0  0  0  0  0  0
  146.3187  136.1641  151.3140 H   0  0  0  0  0  0  0  0  0  0  0  0
  146.2238  135.7441  153.0129 H   0  0  0  0  0  0  0  0  0  0  0  0
  145.4764  134.2718  149.8620 H   0  0  0  0  0  0  0  0  0  0  0  0
  143.5324  132.3748  150.1188 H   0  0  0  0  0  0  0  0  0  0  0  0
  142.4459  132.9284  152.6079 H   0  0  0  0  0  0  0  0  0  0  0  0
  145.3685  138.2961  150.7474 H   0  0  0  0  0  0  0  0  0  0  0  0
  1  2  1  0  0  0  0
  1 17  1  0  0  0  0
  1 18  1  0  0  0  0
  1 19  1  0  0  0  0
  2  3  1  0  0  0  0
  2  4  1  0  0  0  0
  2 20  1  0  0  0  0
  3 21  1  0  0  0  0
  3 22  1  0  0  0  0
  3 23  1  0  0  0  0
  4  5  1  0  0  0  0
  4 24  1  0  0  0  0
  5  6  2  0  0  0  0
  5  7  1  0  0  0  0
  7  8  1  0  0  0  0
  7 25  1  0  0  0  0
  7 26  1  0  0  0  0
  8  9  1  0  0  0  0
  8 27  1  0  0  0  0
  8 28  1  0  0  0  0
  9 10  1  0  0  0  0
  9 29  1  0  0  0  0
  9 37  1  0  0  0  0
 10 11  1  0  0  0  0
 10 30  1  0  0  0  0
 10 31  1  0  0  0  0
 11 12  1  0  0  0  0
 11 32  1  0  0  0  0
 11 33  1  0  0  0  0
 12 16  1  0  0  0  0
 12 13  1  0  0  0  0
 13 14  2  0  0  0  0
 13 34  1  0  0  0  0
 14 15  1  0  0  0  0
 14 35  1  0  0  0  0
 15 16  2  0  0  0  0
 15 36  1  0  0  0  0
M  CHG  1   9   1
M  END
> <s_m_source_file>
AV-unprocessed.smi

> <i_m_source_file_index>
764

> <i_lp_mmshare_version>
43012

> <i_f3d_flags>
0

> <s_epik_input>
W0NIM11bQ0hdKFtDSDNdKVtOSF1DKD1PKVtDSDJdW0NIMl1bTkhdW0NIMl1bQ0gyXW4xW2NIXVtjSF1bY0hdbjE=

> <s_epik_cmdline>
J2VwaWtfcHl0aG9uJywgJy1waCcsICc3LjAnLCAnLXRuJywgJzgnLCAnLW1hJywgJzIwMCcsICctbWV0YWxfYmluZGluZycsICctaW1hZScsICc8aW5maWxlLm1hZT4nLCAnLW9tYWUnLCAnPG91dGZpbGUubWFlPic=

> <r_lp_tautomer_probability>
1

> <r_epik_Ionization_Penalty>
0.00578048

> <r_epik_Ionization_Penalty_Charging>
0.00577767

> <r_epik_Ionization_Penalty_Neutral>
2.80872e-06

> <r_epik_State_Penalty>
-0

> <r_epik_Charging_Adjusted_Penalty>
0.00577767

> <i_epik_Tot_Q>
1

> <i_epik_Tot_abs_Q>
1

> <r_epik_Metal_State_Penalty>
-0

> <b_epik_Metal_Only>
0

> <s_lp_Force_Field>
OPLS_2005

> <r_lp_Energy>
3.7627

> <b_lp_Chiralities_Consistent>
1

> <s_lp_Variant>
AV-unprocessed.smi:764-1

> <Gold.Version>
5.8.1

> <Gold.Id.Protein>
6NUR|6NUR_protein|mol2

> <Gold.PLP.Fitness>
44.0180

> <Gold.PLP.PLP>
-29.2854

> <Gold.PLP.part.hbond>
-2.7258

> <Gold.PLP.part.metal>
0.0000

> <Gold.PLP.part.buried>
-0.3907

> <Gold.PLP.part.nonpolar>
-26.0596

> <Gold.PLP.part.repulsive>
0.3264

> <Gold.PLP.ligand.clash>
0.0000

> <Gold.PLP.ligand.torsion>
0.6315

> <Gold.PLP.Chemscore.Hbond>
3.4640

> <Gold.PLP.Chemscore.CHOScore>
1.7657

> <Gold.PLP.Chemscore.Metal>
0.0000

> <Gold.Chemscore.Hbonds>
donor molecule, donor type, donor heavy atom, donor atom, acceptor molecule, acceptor atom, score
      L1  H     4    24       P1  7957  1.00
      L1  H     9    29       P1 10175  2.00
      L1  H     9    37       P1 10171  0.45
      L1  C    13    34       P1  7921  1.00
      L1  C    15    36       P1 10957  0.84

> <Gold.PLP.Chemscore.Internal.Correction>
0.3065

> <Gold.Rescore>
     Score         DG    S(hbond)    S(metal)    S(lipo)     H(rot)  DE(clash)    DE(int)     intcor
     14.21     -15.65       2.53        0.00      66.49       2.37       0.01       1.43       ----

> <Gold.Chemscore.Fitness>
14.2137

> <Gold.Chemscore.DG>
-15.6479

> <Gold.Chemscore.ZeroCoef>
-5.4800

> <Gold.Chemscore.Hbond>
2.5344

> <Gold.Chemscore.Metal>
0.0000

> <Gold.Chemscore.Lipo>
66.4949

> <Gold.Chemscore.Internal_Hbond>
0.0000

> <Gold.Chemscore.DEClash>
0.0086

> <Gold.Chemscore.DEInternal>
1.4256

> <Gold.Chemscore.Rot>
2.3738

> <Gold.Chemscore.Internal.Correction>
   9.000000E+99

> <Gold.Chemscore.Hbonds>
donor molecule, donor type, donor heavy atom, donor atom, acceptor molecule, acceptor atom, score
      L1  H     4    24       P1  7957  0.99
      L1  H     9    29       P1 10175  0.99
      L1  H     9    37       P1 10171  0.44

> <Gold.Chemscore.Hbond.Weighted>
-8.4649

> <Gold.Chemscore.Metal.Weighted>
-0.0000

> <Gold.Chemscore.Lipo.Weighted>
-7.7799

> <Gold.Chemscore.Internal_Hbond.Weighted>
0.0000

> <Gold.Chemscore.DEClash.Weighted>
0.0086

> <Gold.Chemscore.DEInternal.Weighted>
1.4256

> <Gold.Chemscore.Rot.Weighted>
6.0769

> <Gold.Chemscore.Internal.Correction.Weighted>
   9.000000E+99

> <Gold.Protein.RotatedTorsions>
[ 6907 6896 6895 6894 ] final   -2.14 input  -60.11 | X-H torsion
[ 7974 7965 7964 7962 ] final  -37.12 input  175.53 | X-H torsion
[ 8008 7997 7996 7995 ] final -148.13 input   59.86 | X-H torsion
[ 10167 10162 10161 10158 ] final  -99.36 input  -65.29 | X-H torsion
[ 10718 10713 10712 10709 ] final  -64.25 input   66.30 | X-H torsion
[ 10763 10752 10751 10750 ] final -140.04 input  -60.55 | X-H torsion
[ 11005 11000 10999 10996 ] final -148.01 input  -57.11 | X-H torsion

> <Gold.Protein.ActiveResidues>
 VAL166  LYS551  ARG553  GLY616  TRP617  ASP618  TYR619  PRO620  LYS621  CYS622 
 ASP623  PHE694  ASN695  SER759  ASP760  ASP761  ALA762  ILE779  LEU786  VAL792 
 PHE793  MET794  SER795  GLU796  ALA797  LYS798  CYS799  TRP800  GLU811  SER814 

> <Gold.Protein.RotatedAtoms>
  151.5348  135.1068  159.9911 H   0  0  0  0  0  0  0  0  0  0  0  0  # atno 6907 bound_to 6896
  152.4562  133.7724  159.6817 H   0  0  0  0  0  0  0  0  0  0  0  0  # atno 6908 bound_to 6896
  150.8507  133.7726  159.3051 H   0  0  0  0  0  0  0  0  0  0  0  0  # atno 6909 bound_to 6896
  146.0602  140.6359  142.9000 H   0  0  0  0  0  0  0  0  0  0  0  0  # atno 7974 bound_to 7965
  155.5867  140.0648  157.2769 H   0  0  0  0  0  0  0  0  0  0  0  0  # atno 8008 bound_to 7997
  154.4317  140.1842  156.1079 H   0  0  0  0  0  0  0  0  0  0  0  0  # atno 8009 bound_to 7997
  156.0264  140.3311  155.7096 H   0  0  0  0  0  0  0  0  0  0  0  0  # atno 8010 bound_to 7997
  140.2633  143.3393  152.0605 H   0  0  0  0  0  0  0  0  0  0  0  0  # atno 10167 bound_to 10162
  156.0741  130.4231  150.1392 H   0  0  0  0  0  0  0  0  0  0  0  0  # atno 10718 bound_to 10713
  154.8591  135.3565  154.5644 H   0  0  0  0  0  0  0  0  0  0  0  0  # atno 10763 bound_to 10752
  153.6258  135.7004  153.5298 H   0  0  0  0  0  0  0  0  0  0  0  0  # atno 10764 bound_to 10752
  153.3090  135.4184  155.1279 H   0  0  0  0  0  0  0  0  0  0  0  0  # atno 10765 bound_to 10752
  140.7657  134.3247  157.5089 H   0  0  0  0  0  0  0  0  0  0  0  0  # atno 11005 bound_to 11000
  144.7170  140.4246  143.7036 LP  0  0  0  0  0  0  0  0  0  0  0  0  # atno 17320 bound_to 7965
  145.6573  139.1575  143.2828 LP  0  0  0  0  0  0  0  0  0  0  0  0  # atno 17321 bound_to 7965
  139.5010  144.6704  151.6255 LP  0  0  0  0  0  0  0  0  0  0  0  0  # atno 17342 bound_to 10162
  140.5948  143.9715  150.6347 LP  0  0  0  0  0  0  0  0  0  0  0  0  # atno 17343 bound_to 10162
  156.9437  130.9753  151.3511 LP  0  0  0  0  0  0  0  0  0  0  0  0  # atno 17370 bound_to 10713
  157.5827  130.8388  149.8545 LP  0  0  0  0  0  0  0  0  0  0  0  0  # atno 17371 bound_to 10713
  139.8763  134.9229  156.3313 LP  0  0  0  0  0  0  0  0  0  0  0  0  # atno 17394 bound_to 11000
  140.9621  133.7381  156.0416 LP  0  0  0  0  0  0  0  0  0  0  0  0  # atno 17395 bound_to 11000

$$$$
