AV-unprocessed.smi:2896|AV-procd|sdf|11139|dock9
  -GOLD-   2272016 13D 1   1.00000     0.00000
 Structure written by MMmdl.
 49 50  0  0  0  0  0  0  0  0  1 V2000
  151.3421  140.5791  156.0570 C   0  0  0  0  0  0  0  0  0  0  0  0
  151.2033  141.8539  156.9130 C   0  0  1  0  0  0  0  0  0  0  0  0
  149.7407  142.3191  157.1014 C   0  0  0  0  0  0  0  0  0  0  0  0
  148.9041  142.0094  155.9472 N   0  0  0  0  0  0  0  0  0  0  0  0
  147.5638  142.0997  155.9104 C   0  0  0  0  0  0  0  0  0  0  0  0
  146.9054  142.4406  156.8947 O   0  0  0  0  0  0  0  0  0  0  0  0
  146.8558  141.7351  154.5801 C   0  0  0  0  0  0  0  0  0  0  0  0
  147.9193  141.3060  153.5347 C   0  0  0  0  0  0  0  0  0  0  0  0
  145.9212  140.5105  154.7630 C   0  0  0  0  0  0  0  0  0  0  0  0
  146.0510  142.9721  154.1308 C   0  0  0  0  0  0  0  0  0  0  0  0
  146.2853  143.6253  152.8952 C   0  0  0  0  0  0  0  0  0  0  0  0
  145.5191  144.7551  152.5509 C   0  0  0  0  0  0  0  0  0  0  0  0
  144.5401  145.2040  153.4557 C   0  0  0  0  0  0  0  0  0  0  0  0
  144.3021  144.6049  154.6395 N   0  0  0  0  0  0  0  0  0  0  0  0
  145.0415  143.5222  154.9601 C   0  0  0  0  0  0  0  0  0  0  0  0
  151.9995  141.7921  158.2402 C   0  0  0  0  0  0  0  0  0  0  0  0
  151.6188  142.7224  159.3082 N   0  0  0  0  0  0  0  0  0  0  0  0
  151.7140  144.1030  158.8433 C   0  0  0  0  0  0  0  0  0  0  0  0
  151.3130  145.1113  159.9331 C   0  0  0  0  0  0  0  0  0  0  0  0
  152.1310  144.9164  161.0811 O   0  0  0  0  0  0  0  0  0  0  0  0
  152.0319  143.5958  161.6023 C   0  0  0  0  0  0  0  0  0  0  0  0
  152.4233  142.5753  160.5186 C   0  0  0  0  0  0  0  0  0  0  0  0
  150.7773  139.7404  156.4583 H   0  0  0  0  0  0  0  0  0  0  0  0
  152.3849  140.2713  155.9785 H   0  0  0  0  0  0  0  0  0  0  0  0
  150.9836  140.7487  155.0414 H   0  0  0  0  0  0  0  0  0  0  0  0
  151.7025  142.6298  156.3309 H   0  0  0  0  0  0  0  0  0  0  0  0
  149.2951  141.8295  157.9669 H   0  0  0  0  0  0  0  0  0  0  0  0
  149.7066  143.3906  157.3062 H   0  0  0  0  0  0  0  0  0  0  0  0
  149.3800  141.7139  155.1071 H   0  0  0  0  0  0  0  0  0  0  0  0
  148.6768  142.0710  153.3598 H   0  0  0  0  0  0  0  0  0  0  0  0
  147.4584  141.0761  152.5734 H   0  0  0  0  0  0  0  0  0  0  0  0
  148.4504  140.4093  153.8570 H   0  0  0  0  0  0  0  0  0  0  0  0
  145.1362  140.6668  155.5024 H   0  0  0  0  0  0  0  0  0  0  0  0
  146.4811  139.6291  155.0793 H   0  0  0  0  0  0  0  0  0  0  0  0
  145.4253  140.2577  153.8253 H   0  0  0  0  0  0  0  0  0  0  0  0
  147.0377  143.2870  152.2006 H   0  0  0  0  0  0  0  0  0  0  0  0
  145.6803  145.2672  151.6139 H   0  0  0  0  0  0  0  0  0  0  0  0
  143.9348  146.0678  153.2239 H   0  0  0  0  0  0  0  0  0  0  0  0
  144.8175  143.0919  155.9241 H   0  0  0  0  0  0  0  0  0  0  0  0
  152.0080  140.7700  158.6214 H   0  0  0  0  0  0  0  0  0  0  0  0
  153.0373  142.0034  157.9773 H   0  0  0  0  0  0  0  0  0  0  0  0
  152.7338  144.3138  158.5171 H   0  0  0  0  0  0  0  0  0  0  0  0
  151.0734  144.2455  157.9723 H   0  0  0  0  0  0  0  0  0  0  0  0
  151.4418  146.1318  159.5723 H   0  0  0  0  0  0  0  0  0  0  0  0
  150.2615  144.9954  160.2006 H   0  0  0  0  0  0  0  0  0  0  0  0
  152.6905  143.5031  162.4658 H   0  0  0  0  0  0  0  0  0  0  0  0
  151.0155  143.4129  161.9541 H   0  0  0  0  0  0  0  0  0  0  0  0
  152.2935  141.5806  160.9374 H   0  0  0  0  0  0  0  0  0  0  0  0
  153.4817  142.6859  160.2781 H   0  0  0  0  0  0  0  0  0  0  0  0
  1  2  1  0  0  0  0
  1 23  1  0  0  0  0
  1 24  1  0  0  0  0
  1 25  1  0  0  0  0
  2  3  1  0  0  0  0
  2 16  1  0  0  0  0
  2 26  1  0  0  0  0
  3  4  1  0  0  0  0
  3 27  1  0  0  0  0
  3 28  1  0  0  0  0
  4  5  1  0  0  0  0
  4 29  1  0  0  0  0
  5  6  2  0  0  0  0
  5  7  1  0  0  0  0
  7  8  1  0  0  0  0
  7  9  1  0  0  0  0
  7 10  1  0  0  0  0
  8 30  1  0  0  0  0
  8 31  1  0  0  0  0
  8 32  1  0  0  0  0
  9 33  1  0  0  0  0
  9 34  1  0  0  0  0
  9 35  1  0  0  0  0
 10 15  1  0  0  0  0
 10 11  2  0  0  0  0
 11 12  1  0  0  0  0
 11 36  1  0  0  0  0
 12 13  2  0  0  0  0
 12 37  1  0  0  0  0
 13 14  1  0  0  0  0
 13 38  1  0  0  0  0
 14 15  2  0  0  0  0
 15 39  1  0  0  0  0
 16 17  1  0  0  0  0
 16 40  1  0  0  0  0
 16 41  1  0  0  0  0
 17 22  1  0  0  0  0
 17 18  1  0  0  0  0
 18 19  1  0  0  0  0
 18 42  1  0  0  0  0
 18 43  1  0  0  0  0
 19 20  1  0  0  0  0
 19 44  1  0  0  0  0
 19 45  1  0  0  0  0
 20 21  1  0  0  0  0
 21 22  1  0  0  0  0
 21 46  1  0  0  0  0
 21 47  1  0  0  0  0
 22 48  1  0  0  0  0
 22 49  1  0  0  0  0
M  END
> <s_m_source_file>
AV-unprocessed.smi

> <i_m_source_file_index>
2896

> <i_lp_mmshare_version>
43012

> <i_f3d_flags>
0

> <s_epik_input>
W0NIMl0xW0NIMl1PW0NIMl1bQ0gyXU4xW0NIMl1bQ0BIXShbQ0gzXSlbQ0gyXVtOSF1DKD1PKUMoW0NIM10pKFtDSDNdKWMyW2NIXVtjSF1bY0hdbltjSF0y

> <s_epik_cmdline>
J2VwaWtfcHl0aG9uJywgJy1waCcsICc3LjAnLCAnLXRuJywgJzgnLCAnLW1hJywgJzIwMCcsICctbWV0YWxfYmluZGluZycsICctaW1hZScsICc8aW5maWxlLm1hZT4nLCAnLW9tYWUnLCAnPG91dGZpbGUubWFlPic=

> <r_epik_Ionization_Penalty>
0.458454

> <r_epik_Ionization_Penalty_Charging>
0

> <r_epik_Ionization_Penalty_Neutral>
0.458454

> <r_epik_State_Penalty>
0.453234

> <r_epik_Charging_Adjusted_Penalty>
0.453234

> <i_epik_Tot_Q>
0

> <i_epik_Tot_abs_Q>
0

> <r_epik_Metal_State_Penalty>
0.448418

> <b_epik_Metal_Only>
0

> <s_lp_Force_Field>
OPLS_2005

> <r_lp_Energy>
37.0423

> <b_lp_Chiralities_Consistent>
1

> <s_lp_Variant>
AV-unprocessed.smi:2896-4

> <Gold.Version>
5.8.1

> <Gold.Id.Protein>
6NUR|6NUR_protein|mol2

> <Gold.PLP.Fitness>
42.2767

> <Gold.PLP.PLP>
-44.9667

> <Gold.PLP.part.hbond>
-1.0000

> <Gold.PLP.part.metal>
0.0000

> <Gold.PLP.part.buried>
-4.1505

> <Gold.PLP.part.nonpolar>
-39.4753

> <Gold.PLP.part.repulsive>
0.4737

> <Gold.PLP.ligand.clash>
1.8379

> <Gold.PLP.ligand.torsion>
0.5867

> <Gold.PLP.Chemscore.Hbond>
0.0000

> <Gold.PLP.Chemscore.CHOScore>
0.0000

> <Gold.PLP.Chemscore.Metal>
0.0000

> <Gold.PLP.Chemscore.Internal.Correction>
0.3213

> <Gold.Rescore>
     Score         DG    S(hbond)    S(metal)    S(lipo)     H(rot)  DE(clash)    DE(int)     intcor
     13.11     -15.10       0.00        0.00     119.05       1.68       0.03       1.97       ----

> <Gold.Chemscore.Fitness>
13.1059

> <Gold.Chemscore.DG>
-15.1005

> <Gold.Chemscore.ZeroCoef>
-5.4800

> <Gold.Chemscore.Hbond>
0.0000

> <Gold.Chemscore.Metal>
0.0000

> <Gold.Chemscore.Lipo>
119.0550

> <Gold.Chemscore.Internal_Hbond>
0.0000

> <Gold.Chemscore.DEClash>
0.0285

> <Gold.Chemscore.DEInternal>
1.9660

> <Gold.Chemscore.Rot>
1.6832

> <Gold.Chemscore.Internal.Correction>
   9.000000E+99

> <Gold.Chemscore.Hbond.Weighted>
-0.0000

> <Gold.Chemscore.Metal.Weighted>
-0.0000

> <Gold.Chemscore.Lipo.Weighted>
-13.9294

> <Gold.Chemscore.Internal_Hbond.Weighted>
0.0000

> <Gold.Chemscore.DEClash.Weighted>
0.0285

> <Gold.Chemscore.DEInternal.Weighted>
1.9660

> <Gold.Chemscore.Rot.Weighted>
4.3090

> <Gold.Chemscore.Internal.Correction.Weighted>
   9.000000E+99

> <Gold.Protein.RotatedTorsions>
[ 6907 6896 6895 6894 ] final  -55.13 input  -60.11 | X-H torsion
[ 7974 7965 7964 7962 ] final  -50.45 input  175.53 | X-H torsion
[ 8008 7997 7996 7995 ] final   53.11 input   59.86 | X-H torsion
[ 10167 10162 10161 10158 ] final   42.24 input  -65.29 | X-H torsion
[ 10718 10713 10712 10709 ] final  -37.16 input   66.30 | X-H torsion
[ 10763 10752 10751 10750 ] final  -11.69 input  -60.55 | X-H torsion
[ 11005 11000 10999 10996 ] final  -36.68 input  -57.11 | X-H torsion

> <Gold.Protein.ActiveResidues>
 VAL166  LYS551  ARG553  GLY616  TRP617  ASP618  TYR619  PRO620  LYS621  CYS622 
 ASP623  PHE694  ASN695  SER759  ASP760  ASP761  ALA762  ILE779  LEU786  VAL792 
 PHE793  MET794  SER795  GLU796  ALA797  LYS798  CYS799  TRP800  GLU811  SER814 

> <Gold.Protein.RotatedAtoms>
  150.8278  134.7517  159.6827 H   0  0  0  0  0  0  0  0  0  0  0  0  # atno 6907 bound_to 6896
  152.4386  134.5632  159.9910 H   0  0  0  0  0  0  0  0  0  0  0  0  # atno 6908 bound_to 6896
  151.5801  133.3341  159.3042 H   0  0  0  0  0  0  0  0  0  0  0  0  # atno 6909 bound_to 6896
  145.9297  140.7760  142.9606 H   0  0  0  0  0  0  0  0  0  0  0  0  # atno 7974 bound_to 7965
  155.4629  140.3462  155.4315 H   0  0  0  0  0  0  0  0  0  0  0  0  # atno 8008 bound_to 7997
  156.1149  140.1471  156.9316 H   0  0  0  0  0  0  0  0  0  0  0  0  # atno 8009 bound_to 7997
  154.4782  140.0878  156.7292 H   0  0  0  0  0  0  0  0  0  0  0  0  # atno 8010 bound_to 7997
  140.3564  144.2285  150.6141 H   0  0  0  0  0  0  0  0  0  0  0  0  # atno 10167 bound_to 10162
  156.3185  130.4262  149.7983 H   0  0  0  0  0  0  0  0  0  0  0  0  # atno 10718 bound_to 10713
  153.4875  135.7017  153.5903 H   0  0  0  0  0  0  0  0  0  0  0  0  # atno 10763 bound_to 10752
  153.4090  135.3853  155.2038 H   0  0  0  0  0  0  0  0  0  0  0  0  # atno 10764 bound_to 10752
  154.8718  135.3900  154.4331 H   0  0  0  0  0  0  0  0  0  0  0  0  # atno 10765 bound_to 10752
  140.9893  133.7013  156.1822 H   0  0  0  0  0  0  0  0  0  0  0  0  # atno 11005 bound_to 11000
  144.6763  140.2107  143.7377 LP  0  0  0  0  0  0  0  0  0  0  0  0  # atno 17320 bound_to 7965
  145.8442  139.2144  143.1809 LP  0  0  0  0  0  0  0  0  0  0  0  0  # atno 17321 bound_to 7965
  140.5170  143.2275  151.8448 LP  0  0  0  0  0  0  0  0  0  0  0  0  # atno 17342 bound_to 10162
  139.4819  144.4882  151.9219 LP  0  0  0  0  0  0  0  0  0  0  0  0  # atno 17343 bound_to 10162
  156.5300  130.8253  151.3233 LP  0  0  0  0  0  0  0  0  0  0  0  0  # atno 17370 bound_to 10713
  157.7406  130.9855  150.2393 LP  0  0  0  0  0  0  0  0  0  0  0  0  # atno 17371 bound_to 10713
  140.7064  134.4508  157.5584 LP  0  0  0  0  0  0  0  0  0  0  0  0  # atno 17394 bound_to 11000
  139.8985  134.8612  156.1999 LP  0  0  0  0  0  0  0  0  0  0  0  0  # atno 17395 bound_to 11000

$$$$
