AV-unprocessed.smi:828|AV-procd|sdf|3858|dock7
  -GOLD-   22720 1313D 1   1.00000     0.00000
 Structure written by MMmdl.
 35 36  0  0  0  0  0  0  0  0  2 V2000
  150.9629  142.1030  156.9604 C   0  0  0  0  0  0  0  0  0  0  0  0
  150.6199  141.0468  155.9665 C   0  0  0  0  0  0  0  0  0  0  0  0
  151.5484  140.3794  155.2702 N   0  0  0  0  0  0  0  0  0  0  0  0
  150.9896  139.4499  154.4042 N   0  0  0  0  0  0  0  0  0  0  0  0
  149.6513  139.4444  154.4728 C   0  0  0  0  0  0  0  0  0  0  0  0
  148.8252  138.5939  153.6911 N   0  0  0  0  0  0  0  0  0  0  0  0
  147.4826  138.5225  153.6767 C   0  0  0  0  0  0  0  0  0  0  0  0
  146.7232  139.2241  154.3455 O   0  0  0  0  0  0  0  0  0  0  0  0
  147.0525  137.5750  152.8311 N   0  0  0  0  0  0  0  0  0  0  0  0
  145.6496  137.2528  152.5901 C   0  0  0  0  0  0  0  0  0  0  0  0
  145.3152  135.7853  152.9300 C   0  0  2  0  0  0  0  0  0  0  0  0
  145.2531  135.5005  154.4447 C   0  0  0  0  0  0  0  0  0  0  0  0
  146.4947  134.6663  154.7430 C   0  0  0  0  0  0  0  0  0  0  0  0
  146.7237  133.9170  153.4368 C   0  0  0  0  0  0  0  0  0  0  0  0
  146.3548  134.8796  152.3811 N   0  3  1  0  0  0  0  0  0  0  0  0
  146.0046  134.2522  151.0888 C   0  0  0  0  0  0  0  0  0  0  0  0
  148.9590  140.5870  155.6115 S   0  0  0  0  0  0  0  0  0  0  0  0
  151.9436  141.9118  157.3972 H   0  0  0  0  0  0  0  0  0  0  0  0
  150.2236  142.1210  157.7613 H   0  0  0  0  0  0  0  0  0  0  0  0
  150.9790  143.0790  156.4752 H   0  0  0  0  0  0  0  0  0  0  0  0
  149.3162  137.9617  153.0765 H   0  0  0  0  0  0  0  0  0  0  0  0
  147.7404  137.0444  152.3165 H   0  0  0  0  0  0  0  0  0  0  0  0
  145.0197  137.9304  153.1689 H   0  0  0  0  0  0  0  0  0  0  0  0
  145.4308  137.4523  151.5404 H   0  0  0  0  0  0  0  0  0  0  0  0
  144.3483  135.5242  152.4961 H   0  0  0  0  0  0  0  0  0  0  0  0
  145.2080  136.3999  155.0596 H   0  0  0  0  0  0  0  0  0  0  0  0
  144.3609  134.9134  154.6662 H   0  0  0  0  0  0  0  0  0  0  0  0
  147.3418  135.3221  154.9487 H   0  0  0  0  0  0  0  0  0  0  0  0
  146.3660  134.0014  155.5977 H   0  0  0  0  0  0  0  0  0  0  0  0
  147.7511  133.5702  153.3245 H   0  0  0  0  0  0  0  0  0  0  0  0
  146.0651  133.0480  153.3934 H   0  0  0  0  0  0  0  0  0  0  0  0
  145.1264  133.6125  151.1860 H   0  0  0  0  0  0  0  0  0  0  0  0
  146.8330  133.6445  150.7236 H   0  0  0  0  0  0  0  0  0  0  0  0
  145.7907  135.0155  150.3401 H   0  0  0  0  0  0  0  0  0  0  0  0
  147.1717  135.4535  152.2271 H   0  0  0  0  0  0  0  0  0  0  0  0
  1  2  1  0  0  0  0
  1 18  1  0  0  0  0
  1 19  1  0  0  0  0
  1 20  1  0  0  0  0
  2 17  1  0  0  0  0
  2  3  2  0  0  0  0
  3  4  1  0  0  0  0
  4  5  2  0  0  0  0
  5  6  1  0  0  0  0
  5 17  1  0  0  0  0
  6  7  1  0  0  0  0
  6 21  1  0  0  0  0
  7  8  2  0  0  0  0
  7  9  1  0  0  0  0
  9 10  1  0  0  0  0
  9 22  1  0  0  0  0
 10 11  1  0  0  0  0
 10 23  1  0  0  0  0
 10 24  1  0  0  0  0
 11 15  1  0  0  0  0
 11 12  1  0  0  0  0
 11 25  1  0  0  0  0
 12 13  1  0  0  0  0
 12 26  1  0  0  0  0
 12 27  1  0  0  0  0
 13 14  1  0  0  0  0
 13 28  1  0  0  0  0
 13 29  1  0  0  0  0
 14 15  1  0  0  0  0
 14 30  1  0  0  0  0
 14 31  1  0  0  0  0
 15 16  1  0  0  0  0
 15 35  1  0  0  0  0
 16 32  1  0  0  0  0
 16 33  1  0  0  0  0
 16 34  1  0  0  0  0
M  CHG  1  15   1
M  END
> <s_m_source_file>
AV-unprocessed.smi

> <i_m_source_file_index>
828

> <i_lp_mmshare_version>
43012

> <i_f3d_flags>
0

> <s_epik_input>
W0NIM11jMW5uYyhzMSlbTkhdQyg9TylbTkhdW0NIMl1bQ0BASF0yW0NIMl1bQ0gyXVtDSDJdTjJbQ0gzXQ==

> <s_epik_cmdline>
J2VwaWtfcHl0aG9uJywgJy1waCcsICc3LjAnLCAnLXRuJywgJzgnLCAnLW1hJywgJzIwMCcsICctbWV0YWxfYmluZGluZycsICctaW1hZScsICc8aW5maWxlLm1hZT4nLCAnLW9tYWUnLCAnPG91dGZpbGUubWFlPic=

> <r_lp_tautomer_probability>
1

> <r_epik_Ionization_Penalty>
0.00466477

> <r_epik_Ionization_Penalty_Charging>
0.00372199

> <r_epik_Ionization_Penalty_Neutral>
0.000942783

> <r_epik_State_Penalty>
-0

> <r_epik_Charging_Adjusted_Penalty>
0.00372199

> <i_epik_Tot_Q>
1

> <i_epik_Tot_abs_Q>
1

> <r_epik_Metal_State_Penalty>
0.28212

> <b_epik_Metal_Only>
0

> <s_lp_Force_Field>
OPLS_2005

> <r_lp_Energy>
24.623

> <b_lp_Chiralities_Consistent>
1

> <s_lp_Variant>
AV-unprocessed.smi:828-1

> <Gold.Version>
5.8.1

> <Gold.Id.Protein>
6NUR|6NUR_protein|mol2

> <Gold.PLP.Fitness>
36.1899

> <Gold.PLP.PLP>
-25.2250

> <Gold.PLP.part.hbond>
-5.9615

> <Gold.PLP.part.metal>
0.0000

> <Gold.PLP.part.buried>
-1.1948

> <Gold.PLP.part.nonpolar>
-17.9513

> <Gold.PLP.part.repulsive>
0.4672

> <Gold.PLP.ligand.clash>
0.0000

> <Gold.PLP.ligand.torsion>
0.1002

> <Gold.PLP.Chemscore.Hbond>
3.7216

> <Gold.PLP.Chemscore.CHOScore>
0.0000

> <Gold.PLP.Chemscore.Metal>
0.0000

> <Gold.Chemscore.Hbonds>
donor molecule, donor type, donor heavy atom, donor atom, acceptor molecule, acceptor atom, score
      L1  H     6    21       P1  7948  0.66
      L1  H     9    22       P1  7948  0.98
      L1  H    15    35       P1  7948  2.00

> <Gold.PLP.Chemscore.Internal.Correction>
0.0005

> <Gold.Rescore>
     Score         DG    S(hbond)    S(metal)    S(lipo)     H(rot)  DE(clash)    DE(int)     intcor
     13.78     -16.15       2.63        0.00      45.15       1.33       0.99       1.38       ----

> <Gold.Chemscore.Fitness>
13.7754

> <Gold.Chemscore.DG>
-16.1488

> <Gold.Chemscore.ZeroCoef>
-5.4800

> <Gold.Chemscore.Hbond>
2.6315

> <Gold.Chemscore.Metal>
0.0000

> <Gold.Chemscore.Lipo>
45.1524

> <Gold.Chemscore.Internal_Hbond>
0.0000

> <Gold.Chemscore.DEClash>
0.9905

> <Gold.Chemscore.DEInternal>
1.3829

> <Gold.Chemscore.Rot>
1.3294

> <Gold.Chemscore.Internal.Correction>
   9.000000E+99

> <Gold.Chemscore.Hbonds>
donor molecule, donor type, donor heavy atom, donor atom, acceptor molecule, acceptor atom, score
      L1  H     6    21       P1  7948  0.63
      L1  H     9    22       P1  7948  0.91
      L1  H    15    35       P1  7948  0.99

> <Gold.Chemscore.Hbond.Weighted>
-8.7893

> <Gold.Chemscore.Metal.Weighted>
-0.0000

> <Gold.Chemscore.Lipo.Weighted>
-5.2828

> <Gold.Chemscore.Internal_Hbond.Weighted>
0.0000

> <Gold.Chemscore.DEClash.Weighted>
0.9905

> <Gold.Chemscore.DEInternal.Weighted>
1.3829

> <Gold.Chemscore.Rot.Weighted>
3.4033

> <Gold.Chemscore.Internal.Correction.Weighted>
   9.000000E+99

> <Gold.Protein.RotatedTorsions>
[ 6907 6896 6895 6894 ] final  -47.07 input  -60.11 | X-H torsion
[ 7974 7965 7964 7962 ] final  168.96 input  175.53 | X-H torsion
[ 8008 7997 7996 7995 ] final  137.49 input   59.86 | X-H torsion
[ 10167 10162 10161 10158 ] final -178.03 input  -65.29 | X-H torsion
[ 10718 10713 10712 10709 ] final -135.30 input   66.30 | X-H torsion
[ 10763 10752 10751 10750 ] final -164.48 input  -60.55 | X-H torsion
[ 11005 11000 10999 10996 ] final   82.97 input  -57.11 | X-H torsion

> <Gold.Protein.ActiveResidues>
 VAL166  LYS551  ARG553  GLY616  TRP617  ASP618  TYR619  PRO620  LYS621  CYS622 
 ASP623  PHE694  ASN695  SER759  ASP760  ASP761  ALA762  ILE779  LEU786  VAL792 
 PHE793  MET794  SER795  GLU796  ALA797  LYS798  CYS799  TRP800  GLU811  SER814 

> <Gold.Protein.RotatedAtoms>
  150.9046  134.8461  159.7383 H   0  0  0  0  0  0  0  0  0  0  0  0  # atno 6907 bound_to 6896
  152.4911  134.4450  159.9566 H   0  0  0  0  0  0  0  0  0  0  0  0  # atno 6908 bound_to 6896
  151.4498  133.3581  159.2829 H   0  0  0  0  0  0  0  0  0  0  0  0  # atno 6909 bound_to 6896
  144.7371  139.8983  143.6408 H   0  0  0  0  0  0  0  0  0  0  0  0  # atno 7974 bound_to 7965
  156.3002  140.2418  156.3919 H   0  0  0  0  0  0  0  0  0  0  0  0  # atno 8008 bound_to 7997
  154.8606  140.0420  157.1682 H   0  0  0  0  0  0  0  0  0  0  0  0  # atno 8009 bound_to 7997
  154.8900  140.2962  155.5380 H   0  0  0  0  0  0  0  0  0  0  0  0  # atno 8010 bound_to 7997
  139.5452  144.2256  152.0973 H   0  0  0  0  0  0  0  0  0  0  0  0  # atno 10167 bound_to 10162
  156.2647  130.7230  151.1177 H   0  0  0  0  0  0  0  0  0  0  0  0  # atno 10718 bound_to 10713
  154.7024  135.2990  154.9320 H   0  0  0  0  0  0  0  0  0  0  0  0  # atno 10763 bound_to 10752
  154.0248  135.6678  153.4779 H   0  0  0  0  0  0  0  0  0  0  0  0  # atno 10764 bound_to 10752
  153.0692  135.5071  154.8176 H   0  0  0  0  0  0  0  0  0  0  0  0  # atno 10765 bound_to 10752
  139.9046  134.8110  156.2246 H   0  0  0  0  0  0  0  0  0  0  0  0  # atno 11005 bound_to 11000
  146.1090  139.4093  143.0299 LP  0  0  0  0  0  0  0  0  0  0  0  0  # atno 17320 bound_to 7965
  145.7470  140.9987  143.1271 LP  0  0  0  0  0  0  0  0  0  0  0  0  # atno 17321 bound_to 7965
  140.1741  144.4908  150.6563 LP  0  0  0  0  0  0  0  0  0  0  0  0  # atno 17342 bound_to 10162
  140.6697  143.2281  151.5656 LP  0  0  0  0  0  0  0  0  0  0  0  0  # atno 17343 bound_to 10162
  157.7263  131.0647  150.5915 LP  0  0  0  0  0  0  0  0  0  0  0  0  # atno 17370 bound_to 10713
  156.6006  130.4353  149.5899 LP  0  0  0  0  0  0  0  0  0  0  0  0  # atno 17371 bound_to 10713
  141.0384  133.6951  156.1553 LP  0  0  0  0  0  0  0  0  0  0  0  0  # atno 17394 bound_to 11000
  140.6993  134.4582  157.5586 LP  0  0  0  0  0  0  0  0  0  0  0  0  # atno 17395 bound_to 11000

$$$$
