AV-unprocessed.smi:1047|AV-procd|sdf|4596|dock1
  -GOLD-   22720 3 83D 1   1.00000     0.00000
 Structure written by MMmdl.
 57 59  0  0  0  0  0  0  0  0  3 V2000
  150.5450  129.3873  153.9184 C   0  0  0  0  0  0  0  0  0  0  0  0
  150.4199  130.6076  154.8419 C   0  0  0  0  0  0  0  0  0  0  0  0
  149.9579  131.8227  154.1253 N   0  3  1  0  0  0  0  0  0  0  0  0
  148.5767  131.6777  153.6082 C   0  0  0  0  0  0  0  0  0  0  0  0
  148.1565  132.9376  152.8347 C   0  0  0  0  0  0  0  0  0  0  0  0
  148.2814  134.0737  153.6797 O   0  0  0  0  0  0  0  0  0  0  0  0
  149.6249  134.2892  154.1000 C   0  0  1  0  0  0  0  0  0  0  0  0
  149.6616  135.5804  154.9306 C   0  0  0  0  0  0  0  0  0  0  0  0
  150.5591  136.5638  154.3338 N   0  0  0  0  0  0  0  0  0  0  0  0
  150.3715  137.9137  154.8609 C   0  0  0  0  0  0  0  0  0  0  0  0
  151.6982  138.6870  154.9671 C   0  0  2  0  0  0  0  0  0  0  0  0
  152.7446  137.9075  154.4226 O   0  0  0  0  0  0  0  0  0  0  0  0
  152.0405  139.1631  156.3946 C   0  0  0  0  0  0  0  0  0  0  0  0
  151.4305  140.4588  156.7201 N   0  0  0  0  0  0  0  0  0  0  0  0
  150.5229  141.1982  156.0262 C   0  0  0  0  0  0  0  0  0  0  0  0
  150.2707  142.3232  156.7511 N   0  3  0  0  0  0  0  0  0  0  0  0
  151.0308  142.3031  157.9228 C   0  0  0  0  0  0  0  0  0  0  0  0
  151.1184  143.2147  158.9682 C   0  0  0  0  0  0  0  0  0  0  0  0
  151.9983  142.8979  160.0279 C   0  0  0  0  0  0  0  0  0  0  0  0
  152.1204  143.8742  161.1856 C   0  0  0  0  0  0  0  0  0  0  0  0
  152.7539  141.6966  160.0158 C   0  0  0  0  0  0  0  0  0  0  0  0
  153.6967  141.3665  161.1604 C   0  0  0  0  0  0  0  0  0  0  0  0
  152.6502  140.7819  158.9433 C   0  0  0  0  0  0  0  0  0  0  0  0
  151.7792  141.1102  157.9075 C   0  0  0  0  0  0  0  0  0  0  0  0
  150.0808  133.0682  154.9235 C   0  0  0  0  0  0  0  0  0  0  0  0
  150.7902  128.4958  154.4958 H   0  0  0  0  0  0  0  0  0  0  0  0
  151.3313  129.5146  153.1749 H   0  0  0  0  0  0  0  0  0  0  0  0
  149.6095  129.1927  153.3929 H   0  0  0  0  0  0  0  0  0  0  0  0
  149.6987  130.3617  155.6228 H   0  0  0  0  0  0  0  0  0  0  0  0
  151.3661  130.8067  155.3471 H   0  0  0  0  0  0  0  0  0  0  0  0
  148.5128  130.8079  152.9533 H   0  0  0  0  0  0  0  0  0  0  0  0
  147.8914  131.5051  154.4399 H   0  0  0  0  0  0  0  0  0  0  0  0
  148.7616  133.0663  151.9357 H   0  0  0  0  0  0  0  0  0  0  0  0
  147.1192  132.8511  152.5106 H   0  0  0  0  0  0  0  0  0  0  0  0
  150.2741  134.4001  153.2289 H   0  0  0  0  0  0  0  0  0  0  0  0
  148.6540  135.9880  155.0239 H   0  0  0  0  0  0  0  0  0  0  0  0
  150.0015  135.3526  155.9415 H   0  0  0  0  0  0  0  0  0  0  0  0
  150.4276  136.5773  153.3269 H   0  0  0  0  0  0  0  0  0  0  0  0
  149.6787  138.4706  154.2283 H   0  0  0  0  0  0  0  0  0  0  0  0
  149.9095  137.8588  155.8473 H   0  0  0  0  0  0  0  0  0  0  0  0
  151.6104  139.5638  154.3248 H   0  0  0  0  0  0  0  0  0  0  0  0
  152.4288  137.0252  154.3022 H   0  0  0  0  0  0  0  0  0  0  0  0
  151.7195  138.4324  157.1379 H   0  0  0  0  0  0  0  0  0  0  0  0
  153.1186  139.2756  156.5164 H   0  0  0  0  0  0  0  0  0  0  0  0
  150.0802  140.9380  155.0753 H   0  0  0  0  0  0  0  0  0  0  0  0
  150.5395  144.1268  158.9711 H   0  0  0  0  0  0  0  0  0  0  0  0
  153.1516  144.2103  161.2966 H   0  0  0  0  0  0  0  0  0  0  0  0
  151.8063  143.4042  162.1177 H   0  0  0  0  0  0  0  0  0  0  0  0
  151.4983  144.7565  161.0310 H   0  0  0  0  0  0  0  0  0  0  0  0
  154.1753  140.3975  161.0167 H   0  0  0  0  0  0  0  0  0  0  0  0
  153.1563  141.3332  162.1065 H   0  0  0  0  0  0  0  0  0  0  0  0
  154.4824  142.1184  161.2358 H   0  0  0  0  0  0  0  0  0  0  0  0
  153.2249  139.8676  158.9326 H   0  0  0  0  0  0  0  0  0  0  0  0
  149.4799  132.9809  155.8303 H   0  0  0  0  0  0  0  0  0  0  0  0
  151.1138  133.2133  155.2380 H   0  0  0  0  0  0  0  0  0  0  0  0
  150.5545  131.9283  153.3170 H   0  0  0  0  0  0  0  0  0  0  0  0
  149.6276  143.0500  156.4638 H   0  0  0  0  0  0  0  0  0  0  0  0
  1  2  1  0  0  0  0
  1 26  1  0  0  0  0
  1 27  1  0  0  0  0
  1 28  1  0  0  0  0
  2  3  1  0  0  0  0
  2 29  1  0  0  0  0
  2 30  1  0  0  0  0
  3 25  1  0  0  0  0
  3  4  1  0  0  0  0
  3 56  1  0  0  0  0
  4  5  1  0  0  0  0
  4 31  1  0  0  0  0
  4 32  1  0  0  0  0
  5  6  1  0  0  0  0
  5 33  1  0  0  0  0
  5 34  1  0  0  0  0
  6  7  1  0  0  0  0
  7  8  1  0  0  0  0
  7 25  1  0  0  0  0
  7 35  1  0  0  0  0
  8  9  1  0  0  0  0
  8 36  1  0  0  0  0
  8 37  1  0  0  0  0
  9 10  1  0  0  0  0
  9 38  1  0  0  0  0
 10 11  1  0  0  0  0
 10 39  1  0  0  0  0
 10 40  1  0  0  0  0
 11 12  1  0  0  0  0
 11 13  1  0  0  0  0
 11 41  1  0  0  0  0
 12 42  1  0  0  0  0
 13 14  1  0  0  0  0
 13 43  1  0  0  0  0
 13 44  1  0  0  0  0
 14 24  1  0  0  0  0
 14 15  1  0  0  0  0
 15 16  2  0  0  0  0
 15 45  1  0  0  0  0
 16 17  1  0  0  0  0
 16 57  1  0  0  0  0
 17 24  2  0  0  0  0
 17 18  1  0  0  0  0
 18 19  2  0  0  0  0
 18 46  1  0  0  0  0
 19 20  1  0  0  0  0
 19 21  1  0  0  0  0
 20 47  1  0  0  0  0
 20 48  1  0  0  0  0
 20 49  1  0  0  0  0
 21 22  1  0  0  0  0
 21 23  2  0  0  0  0
 22 50  1  0  0  0  0
 22 51  1  0  0  0  0
 22 52  1  0  0  0  0
 23 24  1  0  0  0  0
 23 53  1  0  0  0  0
 25 54  1  0  0  0  0
 25 55  1  0  0  0  0
M  CHG  1   3   1
M  CHG  1  16   1
M  END
> <s_m_source_file>
AV-unprocessed.smi

> <i_m_source_file_index>
1047

> <i_lp_mmshare_version>
43012

> <i_f3d_flags>
0

> <s_epik_input>
W0NIM11bQ0gyXU4xW0NIMl1bQ0gyXU9bQ0BIXShbQ0gyXTEpW0NIMl1bTkhdW0NIMl1bQ0BIXShbT0hdKVtDSDJdbihbY0hdbjIpYyhjMjMpW2NIXWMoW0NIM10pYyhbY0hdMylbQ0gzXQ==

> <s_epik_cmdline>
J2VwaWtfcHl0aG9uJywgJy1waCcsICc3LjAnLCAnLXRuJywgJzgnLCAnLW1hJywgJzIwMCcsICctbWV0YWxfYmluZGluZycsICctaW1hZScsICc8aW5maWxlLm1hZT4nLCAnLW9tYWUnLCAnPG91dGZpbGUubWFlPic=

> <r_epik_Ionization_Penalty>
2.03028

> <r_epik_Ionization_Penalty_Charging>
1.21256

> <r_epik_Ionization_Penalty_Neutral>
0.817715

> <r_epik_State_Penalty>
2.54959

> <r_epik_Charging_Adjusted_Penalty>
3.76215

> <i_epik_Tot_Q>
2

> <i_epik_Tot_abs_Q>
2

> <r_epik_Metal_State_Penalty>
6.52811

> <b_epik_Metal_Only>
0

> <s_lp_Force_Field>
OPLS_2005

> <r_lp_Energy>
37.5009

> <b_lp_Chiralities_Consistent>
1

> <s_lp_Variant>
AV-unprocessed.smi:1047-37

> <Gold.Version>
5.8.1

> <Gold.Id.Protein>
6NUR|6NUR_protein|mol2

> <Gold.PLP.Fitness>
59.2803

> <Gold.PLP.PLP>
-56.4642

> <Gold.PLP.part.hbond>
-3.9106

> <Gold.PLP.part.metal>
0.0000

> <Gold.PLP.part.buried>
-5.9298

> <Gold.PLP.part.nonpolar>
-46.5070

> <Gold.PLP.part.repulsive>
0.6726

> <Gold.PLP.ligand.clash>
0.0000

> <Gold.PLP.ligand.torsion>
2.2396

> <Gold.PLP.Chemscore.Hbond>
2.3510

> <Gold.PLP.Chemscore.CHOScore>
0.0000

> <Gold.PLP.Chemscore.Metal>
0.0000

> <Gold.Chemscore.Hbonds>
donor molecule, donor type, donor heavy atom, donor atom, acceptor molecule, acceptor atom, score
      L1  H     9    38       P1  7948  0.20
      L1  H    16    57       P1  8028  2.00

> <Gold.PLP.Chemscore.Internal.Correction>
0.2422

> <Gold.Rescore>
     Score         DG    S(hbond)    S(metal)    S(lipo)     H(rot)  DE(clash)    DE(int)     intcor
     15.85     -18.05       1.02        0.00     137.55       2.71       0.01       2.19       ----

> <Gold.Chemscore.Fitness>
15.8471

> <Gold.Chemscore.DG>
-18.0477

> <Gold.Chemscore.ZeroCoef>
-5.4800

> <Gold.Chemscore.Hbond>
1.0206

> <Gold.Chemscore.Metal>
0.0000

> <Gold.Chemscore.Lipo>
137.5515

> <Gold.Chemscore.Internal_Hbond>
0.0000

> <Gold.Chemscore.DEClash>
0.0115

> <Gold.Chemscore.DEInternal>
2.1890

> <Gold.Chemscore.Rot>
2.7088

> <Gold.Chemscore.Internal.Correction>
   9.000000E+99

> <Gold.Chemscore.Hbonds>
donor molecule, donor type, donor heavy atom, donor atom, acceptor molecule, acceptor atom, score
      L1  H    16    57       P1  8028  0.97

> <Gold.Chemscore.Hbond.Weighted>
-3.4088

> <Gold.Chemscore.Metal.Weighted>
-0.0000

> <Gold.Chemscore.Lipo.Weighted>
-16.0935

> <Gold.Chemscore.Internal_Hbond.Weighted>
0.0000

> <Gold.Chemscore.DEClash.Weighted>
0.0115

> <Gold.Chemscore.DEInternal.Weighted>
2.1890

> <Gold.Chemscore.Rot.Weighted>
6.9346

> <Gold.Chemscore.Internal.Correction.Weighted>
   9.000000E+99

> <Gold.Protein.RotatedTorsions>
[ 6907 6896 6895 6894 ] final  -52.82 input  -60.11 | X-H torsion
[ 7974 7965 7964 7962 ] final   75.35 input  175.53 | X-H torsion
[ 8008 7997 7996 7995 ] final    6.49 input   59.86 | X-H torsion
[ 10167 10162 10161 10158 ] final -151.47 input  -65.29 | X-H torsion
[ 10718 10713 10712 10709 ] final  167.96 input   66.30 | X-H torsion
[ 10763 10752 10751 10750 ] final  -25.81 input  -60.55 | X-H torsion
[ 11005 11000 10999 10996 ] final  109.20 input  -57.11 | X-H torsion

> <Gold.Protein.ActiveResidues>
 VAL166  LYS551  ARG553  GLY616  TRP617  ASP618  TYR619  PRO620  LYS621  CYS622 
 ASP623  PHE694  ASN695  SER759  ASP760  ASP761  ALA762  ILE779  LEU786  VAL792 
 PHE793  MET794  SER795  GLU796  ALA797  LYS798  CYS799  TRP800  GLU811  SER814 

> <Gold.Protein.RotatedAtoms>
  150.8482  134.7798  159.6987 H   0  0  0  0  0  0  0  0  0  0  0  0  # atno 6907 bound_to 6896
  152.4554  134.5300  159.9818 H   0  0  0  0  0  0  0  0  0  0  0  0  # atno 6908 bound_to 6896
  151.5426  133.3392  159.2974 H   0  0  0  0  0  0  0  0  0  0  0  0  # atno 6909 bound_to 6896
  145.7167  139.2634  143.1619 H   0  0  0  0  0  0  0  0  0  0  0  0  # atno 7974 bound_to 7965
  154.7417  140.2750  155.6368 H   0  0  0  0  0  0  0  0  0  0  0  0  # atno 8008 bound_to 7997
  156.2875  140.2696  156.2072 H   0  0  0  0  0  0  0  0  0  0  0  0  # atno 8009 bound_to 7997
  155.0250  140.0371  157.2442 H   0  0  0  0  0  0  0  0  0  0  0  0  # atno 8010 bound_to 7997
  139.7264  143.8876  152.2520 H   0  0  0  0  0  0  0  0  0  0  0  0  # atno 10167 bound_to 10162
  157.0440  131.0294  151.2704 H   0  0  0  0  0  0  0  0  0  0  0  0  # atno 10718 bound_to 10713
  153.7059  135.6953  153.5050 H   0  0  0  0  0  0  0  0  0  0  0  0  # atno 10763 bound_to 10752
  153.2308  135.4338  155.0592 H   0  0  0  0  0  0  0  0  0  0  0  0  # atno 10764 bound_to 10752
  154.8330  135.3484  154.6597 H   0  0  0  0  0  0  0  0  0  0  0  0  # atno 10765 bound_to 10752
  139.8857  134.9452  156.6089 H   0  0  0  0  0  0  0  0  0  0  0  0  # atno 11005 bound_to 11000
  146.0663  140.7917  142.9710 LP  0  0  0  0  0  0  0  0  0  0  0  0  # atno 17320 bound_to 7965
  144.6927  140.3273  143.7222 LP  0  0  0  0  0  0  0  0  0  0  0  0  # atno 17321 bound_to 7965
  139.8787  144.7029  150.8903 LP  0  0  0  0  0  0  0  0  0  0  0  0  # atno 17342 bound_to 10162
  140.7763  143.3679  151.1705 LP  0  0  0  0  0  0  0  0  0  0  0  0  # atno 17343 bound_to 10162
  157.5082  130.7922  149.7677 LP  0  0  0  0  0  0  0  0  0  0  0  0  # atno 17370 bound_to 10713
  156.0029  130.3870  150.2538 LP  0  0  0  0  0  0  0  0  0  0  0  0  # atno 17371 bound_to 10713
  140.7827  133.8647  155.8580 LP  0  0  0  0  0  0  0  0  0  0  0  0  # atno 17394 bound_to 11000
  140.9747  134.1485  157.4547 LP  0  0  0  0  0  0  0  0  0  0  0  0  # atno 17395 bound_to 11000

$$$$
