AV-unprocessed.smi:1166|AV-procd|sdf|4934|dock9
  -GOLD-   22720 3523D 1   1.00000     0.00000
 Structure written by MMmdl.
 47 48  0  0  0  0  0  0  0  0  2 V2000
  143.9129  132.7855  148.5758 C   0  0  0  0  0  0  0  0  0  0  0  0
  144.5194  132.7958  149.9023 N   0  0  0  0  0  0  0  0  0  0  0  0
  145.0371  131.5646  150.4841 C   0  0  0  0  0  0  0  0  0  0  0  0
  144.6357  134.0107  150.6119 C   0  0  0  0  0  0  0  0  0  0  0  0
  145.8391  134.4394  151.2241 C   0  0  0  0  0  0  0  0  0  0  0  0
  145.8753  135.6671  151.9165 C   0  0  0  0  0  0  0  0  0  0  0  0
  144.7122  136.4599  152.0036 C   0  0  0  0  0  0  0  0  0  0  0  0
  144.8040  137.6955  152.7005 N   0  0  0  0  0  0  0  0  0  0  0  0
  145.6113  138.0241  153.7238 C   0  0  0  0  0  0  0  0  0  0  0  0
  146.4544  137.2850  154.2312 O   0  0  0  0  0  0  0  0  0  0  0  0
  145.3964  139.2854  154.1242 N   0  0  0  0  0  0  0  0  0  0  0  0
  146.1195  139.9646  155.1949 C   0  0  2  0  0  0  0  0  0  0  0  0
  145.4401  141.2962  155.5546 C   0  0  0  0  0  0  0  0  0  0  0  0
  146.2499  142.0143  156.6397 C   0  0  0  0  0  0  0  0  0  0  0  0
  147.7107  142.2206  156.2025 C   0  0  0  0  0  0  0  0  0  0  0  0
  148.3378  140.9519  155.7790 N   0  0  0  0  0  0  0  0  0  0  0  0
  149.4154  140.1099  156.8555 S   0  0  0  0  0  0  0  0  0  0  0  0
  150.1730  141.4434  157.8714 C   0  0  0  0  0  0  0  0  0  0  0  0
  148.5975  139.2680  157.7419 O   0  0  0  0  0  0  0  0  0  0  0  0
  150.4749  139.4963  156.0405 O   0  0  0  0  0  0  0  0  0  0  0  0
  147.5793  140.1998  154.7597 C   0  0  0  0  0  0  0  0  0  0  0  0
  143.5373  135.9941  151.3667 C   0  0  0  0  0  0  0  0  0  0  0  0
  143.5473  134.8122  150.7132 N   0  3  0  0  0  0  0  0  0  0  0  0
  142.9009  133.1904  148.6121 H   0  0  0  0  0  0  0  0  0  0  0  0
  143.8512  131.7733  148.1755 H   0  0  0  0  0  0  0  0  0  0  0  0
  144.5026  133.3851  147.8812 H   0  0  0  0  0  0  0  0  0  0  0  0
  146.1012  131.6606  150.7023 H   0  0  0  0  0  0  0  0  0  0  0  0
  144.9130  130.7212  149.8042 H   0  0  0  0  0  0  0  0  0  0  0  0
  144.5111  131.3274  151.4093 H   0  0  0  0  0  0  0  0  0  0  0  0
  146.7395  133.8455  151.1749 H   0  0  0  0  0  0  0  0  0  0  0  0
  146.7945  135.9926  152.3816 H   0  0  0  0  0  0  0  0  0  0  0  0
  144.2135  138.4351  152.3490 H   0  0  0  0  0  0  0  0  0  0  0  0
  144.6851  139.8216  153.6490 H   0  0  0  0  0  0  0  0  0  0  0  0
  146.1191  139.3220  156.0754 H   0  0  0  0  0  0  0  0  0  0  0  0
  145.3650  141.9310  154.6706 H   0  0  0  0  0  0  0  0  0  0  0  0
  144.4220  141.1253  155.9064 H   0  0  0  0  0  0  0  0  0  0  0  0
  145.7934  142.9787  156.8634 H   0  0  0  0  0  0  0  0  0  0  0  0
  146.2121  141.4399  157.5645 H   0  0  0  0  0  0  0  0  0  0  0  0
  147.7444  142.9162  155.3633 H   0  0  0  0  0  0  0  0  0  0  0  0
  148.2864  142.6809  157.0049 H   0  0  0  0  0  0  0  0  0  0  0  0
  150.8883  140.9992  158.5632 H   0  0  0  0  0  0  0  0  0  0  0  0
  149.4035  141.9575  158.4444 H   0  0  0  0  0  0  0  0  0  0  0  0
  150.6959  142.1493  157.2287 H   0  0  0  0  0  0  0  0  0  0  0  0
  148.0721  139.2507  154.5493 H   0  0  0  0  0  0  0  0  0  0  0  0
  147.6016  140.7695  153.8297 H   0  0  0  0  0  0  0  0  0  0  0  0
  142.5929  136.5160  151.3393 H   0  0  0  0  0  0  0  0  0  0  0  0
  142.6827  134.5067  150.2664 H   0  0  0  0  0  0  0  0  0  0  0  0
  1  2  1  0  0  0  0
  1 24  1  0  0  0  0
  1 25  1  0  0  0  0
  1 26  1  0  0  0  0
  2  3  1  0  0  0  0
  2  4  1  0  0  0  0
  3 27  1  0  0  0  0
  3 28  1  0  0  0  0
  3 29  1  0  0  0  0
  4 23  1  0  0  0  0
  4  5  2  0  0  0  0
  5  6  1  0  0  0  0
  5 30  1  0  0  0  0
  6  7  2  0  0  0  0
  6 31  1  0  0  0  0
  7  8  1  0  0  0  0
  7 22  1  0  0  0  0
  8  9  1  0  0  0  0
  8 32  1  0  0  0  0
  9 10  2  0  0  0  0
  9 11  1  0  0  0  0
 11 12  1  0  0  0  0
 11 33  1  0  0  0  0
 12 21  1  0  0  0  0
 12 13  1  0  0  0  0
 12 34  1  0  0  0  0
 13 14  1  0  0  0  0
 13 35  1  0  0  0  0
 13 36  1  0  0  0  0
 14 15  1  0  0  0  0
 14 37  1  0  0  0  0
 14 38  1  0  0  0  0
 15 16  1  0  0  0  0
 15 39  1  0  0  0  0
 15 40  1  0  0  0  0
 16 17  1  0  0  0  0
 16 21  1  0  0  0  0
 17 18  1  0  0  0  0
 17 19  2  0  0  0  0
 17 20  2  0  0  0  0
 18 41  1  0  0  0  0
 18 42  1  0  0  0  0
 18 43  1  0  0  0  0
 21 44  1  0  0  0  0
 21 45  1  0  0  0  0
 22 23  2  0  0  0  0
 22 46  1  0  0  0  0
 23 47  1  0  0  0  0
M  CHG  1  23   1
M  END
> <s_m_source_file>
AV-unprocessed.smi

> <i_m_source_file_index>
1166

> <i_lp_mmshare_version>
43012

> <i_f3d_flags>
0

> <s_epik_input>
W0NIM11OKFtDSDNdKWMxW2NIXVtjSF1jKFtjSF1uMSlbTkhdQyg9TylbTkhdW0NAQEhdMltDSDJdW0NIMl1bQ0gyXU4oW0NIMl0yKVMoPU8pKD1PKVtDSDNd

> <s_epik_cmdline>
J2VwaWtfcHl0aG9uJywgJy1waCcsICc3LjAnLCAnLXRuJywgJzgnLCAnLW1hJywgJzIwMCcsICctbWV0YWxfYmluZGluZycsICctaW1hZScsICc8aW5maWxlLm1hZT4nLCAnLW9tYWUnLCAnPG91dGZpbGUubWFlPic=

> <r_lp_tautomer_probability>
0.999994

> <r_epik_Ionization_Penalty>
0.276583

> <r_epik_Ionization_Penalty_Charging>
0.276565

> <r_epik_Ionization_Penalty_Neutral>
1.87575e-05

> <r_epik_State_Penalty>
0.268949

> <r_epik_Charging_Adjusted_Penalty>
0.545513

> <i_epik_Tot_Q>
1

> <i_epik_Tot_abs_Q>
1

> <r_epik_Metal_State_Penalty>
0.551815

> <b_epik_Metal_Only>
0

> <s_lp_Force_Field>
OPLS_2005

> <r_lp_Energy>
7.52153

> <b_lp_Chiralities_Consistent>
1

> <s_lp_Variant>
AV-unprocessed.smi:1166-1

> <Gold.Version>
5.8.1

> <Gold.Id.Protein>
6NUR|6NUR_protein|mol2

> <Gold.PLP.Fitness>
44.3135

> <Gold.PLP.PLP>
-32.4604

> <Gold.PLP.part.hbond>
-4.8993

> <Gold.PLP.part.metal>
0.0000

> <Gold.PLP.part.buried>
2.6601

> <Gold.PLP.part.nonpolar>
-31.0906

> <Gold.PLP.part.repulsive>
0.5216

> <Gold.PLP.ligand.clash>
0.0000

> <Gold.PLP.ligand.torsion>
2.2993

> <Gold.PLP.Chemscore.Hbond>
4.7977

> <Gold.PLP.Chemscore.CHOScore>
0.0000

> <Gold.PLP.Chemscore.Metal>
0.0000

> <Gold.Chemscore.Hbonds>
donor molecule, donor type, donor heavy atom, donor atom, acceptor molecule, acceptor atom, score
      L1  H     8    32       P1 10175  0.84
      L1  H    11    33       P1 10175  1.00
      L1  H    23    47       P1 10186  2.00

> <Gold.PLP.Chemscore.Internal.Correction>
2.0587

> <Gold.Rescore>
     Score         DG    S(hbond)    S(metal)    S(lipo)     H(rot)  DE(clash)    DE(int)     intcor
     16.64     -22.46       3.23        0.00      74.89       1.00       2.85       2.98       ----

> <Gold.Chemscore.Fitness>
16.6391

> <Gold.Chemscore.DG>
-22.4632

> <Gold.Chemscore.ZeroCoef>
-5.4800

> <Gold.Chemscore.Hbond>
3.2278

> <Gold.Chemscore.Metal>
0.0000

> <Gold.Chemscore.Lipo>
74.8913

> <Gold.Chemscore.Internal_Hbond>
0.0000

> <Gold.Chemscore.DEClash>
2.8469

> <Gold.Chemscore.DEInternal>
2.9772

> <Gold.Chemscore.Rot>
1.0000

> <Gold.Chemscore.Internal.Correction>
   9.000000E+99

> <Gold.Chemscore.Hbonds>
donor molecule, donor type, donor heavy atom, donor atom, acceptor molecule, acceptor atom, score
      L1  H     8    32       P1 10175  0.79
      L1  H    11    33       P1 10175  1.00
      L1  H    23    47       P1 10186  0.60

> <Gold.Chemscore.Hbond.Weighted>
-10.7809

> <Gold.Chemscore.Metal.Weighted>
-0.0000

> <Gold.Chemscore.Lipo.Weighted>
-8.7623

> <Gold.Chemscore.Internal_Hbond.Weighted>
0.0000

> <Gold.Chemscore.DEClash.Weighted>
2.8469

> <Gold.Chemscore.DEInternal.Weighted>
2.9772

> <Gold.Chemscore.Rot.Weighted>
2.5600

> <Gold.Chemscore.Internal.Correction.Weighted>
   9.000000E+99

> <Gold.Protein.RotatedTorsions>
[ 6907 6896 6895 6894 ] final -168.71 input  -60.11 | X-H torsion
[ 7974 7965 7964 7962 ] final  128.07 input  175.53 | X-H torsion
[ 8008 7997 7996 7995 ] final  178.55 input   59.86 | X-H torsion
[ 10167 10162 10161 10158 ] final   69.17 input  -65.29 | X-H torsion
[ 10718 10713 10712 10709 ] final  -28.38 input   66.30 | X-H torsion
[ 10763 10752 10751 10750 ] final  -83.09 input  -60.55 | X-H torsion
[ 11005 11000 10999 10996 ] final   13.65 input  -57.11 | X-H torsion

> <Gold.Protein.ActiveResidues>
 VAL166  LYS551  ARG553  GLY616  TRP617  ASP618  TYR619  PRO620  LYS621  CYS622 
 ASP623  PHE694  ASN695  SER759  ASP760  ASP761  ALA762  ILE779  LEU786  VAL792 
 PHE793  MET794  SER795  GLU796  ALA797  LYS798  CYS799  TRP800  GLU811  SER814 

> <Gold.Protein.RotatedAtoms>
  151.4799  133.3549  159.2836 H   0  0  0  0  0  0  0  0  0  0  0  0  # atno 6907 bound_to 6896
  150.8904  134.8309  159.7300 H   0  0  0  0  0  0  0  0  0  0  0  0  # atno 6908 bound_to 6896
  152.4819  134.4708  159.9687 H   0  0  0  0  0  0  0  0  0  0  0  0  # atno 6909 bound_to 6896
  145.0436  139.3942  143.5089 H   0  0  0  0  0  0  0  0  0  0  0  0  # atno 7974 bound_to 7965
  156.0533  140.1330  157.0025 H   0  0  0  0  0  0  0  0  0  0  0  0  # atno 8008 bound_to 7997
  154.4445  140.1006  156.6479 H   0  0  0  0  0  0  0  0  0  0  0  0  # atno 8009 bound_to 7997
  155.5490  140.3462  155.4466 H   0  0  0  0  0  0  0  0  0  0  0  0  # atno 8010 bound_to 7997
  140.0707  144.5155  150.7229 H   0  0  0  0  0  0  0  0  0  0  0  0  # atno 10167 bound_to 10162
  156.4260  130.4436  149.7150 H   0  0  0  0  0  0  0  0  0  0  0  0  # atno 10718 bound_to 10713
  154.5836  135.5568  153.7209 H   0  0  0  0  0  0  0  0  0  0  0  0  # atno 10763 bound_to 10752
  153.0090  135.6326  154.1948 H   0  0  0  0  0  0  0  0  0  0  0  0  # atno 10764 bound_to 10752
  154.1889  135.2883  155.3008 H   0  0  0  0  0  0  0  0  0  0  0  0  # atno 10765 bound_to 10752
  140.4784  134.0960  155.7746 H   0  0  0  0  0  0  0  0  0  0  0  0  # atno 11005 bound_to 11000
  146.3511  140.0049  142.8672 LP  0  0  0  0  0  0  0  0  0  0  0  0  # atno 17320 bound_to 7965
  145.1617  140.9676  143.4373 LP  0  0  0  0  0  0  0  0  0  0  0  0  # atno 17321 bound_to 7965
  140.7127  143.2518  151.4531 LP  0  0  0  0  0  0  0  0  0  0  0  0  # atno 17342 bound_to 10162
  139.5838  144.1650  152.2002 LP  0  0  0  0  0  0  0  0  0  0  0  0  # atno 17343 bound_to 10162
  156.4072  130.7704  151.2715 LP  0  0  0  0  0  0  0  0  0  0  0  0  # atno 17370 bound_to 10713
  157.7508  131.0222  150.3783 LP  0  0  0  0  0  0  0  0  0  0  0  0  # atno 17371 bound_to 10713
  141.1543  133.8911  157.2017 LP  0  0  0  0  0  0  0  0  0  0  0  0  # atno 17394 bound_to 11000
  139.9842  135.0088  156.9822 LP  0  0  0  0  0  0  0  0  0  0  0  0  # atno 17395 bound_to 11000

$$$$
