AV-unprocessed.smi:2525|AV-procd|sdf|9929|dock10
  -GOLD-   2272013573D 1   1.00000     0.00000
 Structure written by MMmdl.
 44 45  0  0  0  0  0  0  0  0  1 V2000
  142.6957  134.5878  152.5237 C   0  0  0  0  0  0  0  0  0  0  0  0
  143.6197  135.6527  151.9090 C   0  0  0  0  0  0  0  0  0  0  0  0
  145.0739  135.1868  151.6476 C   0  0  0  0  0  0  0  0  0  0  0  0
  145.9437  136.4155  151.2872 C   0  0  0  0  0  0  0  0  0  0  0  0
  145.8779  137.5762  152.2925 C   0  0  0  0  0  0  0  0  0  0  0  0
  145.6085  134.2092  152.7367 C   0  0  2  0  0  0  0  0  0  0  0  0
  147.0587  134.2517  152.9225 N   0  0  0  0  0  0  0  0  0  0  0  0
  147.7639  133.3910  153.6718 C   0  0  0  0  0  0  0  0  0  0  0  0
  147.2498  132.4869  154.3294 O   0  0  0  0  0  0  0  0  0  0  0  0
  149.2819  133.5871  153.6925 C   0  0  0  0  0  0  0  0  0  0  0  0
  149.7148  134.2892  154.8890 N   0  0  0  0  0  0  0  0  0  0  0  0
  150.0358  135.6238  155.0350 C   0  0  0  0  0  0  0  0  0  0  0  0
  150.3885  135.7234  156.3503 C   0  0  0  0  0  0  0  0  0  0  0  0
  150.2678  134.4673  156.9416 N   0  0  0  0  0  0  0  0  0  0  0  0
  149.8621  133.6140  156.0544 N   0  0  0  0  0  0  0  0  0  0  0  0
  145.1849  133.0164  151.8604 C   0  0  2  0  0  0  0  0  0  0  0  0
  146.0241  131.7406  151.8293 C   0  0  0  0  0  0  0  0  0  0  0  0
  145.2203  133.9902  150.6736 C   0  0  1  0  0  0  0  0  0  0  0  0
  144.1308  133.8782  149.7694 O   0  0  0  0  0  0  0  0  0  0  0  0
  144.1564  132.6819  149.0110 C   0  0  0  0  0  0  0  0  0  0  0  0
  141.6698  134.9532  152.5684 H   0  0  0  0  0  0  0  0  0  0  0  0
  142.9895  134.3344  153.5418 H   0  0  0  0  0  0  0  0  0  0  0  0
  142.6917  133.6699  151.9359 H   0  0  0  0  0  0  0  0  0  0  0  0
  143.1624  135.9726  150.9726 H   0  0  0  0  0  0  0  0  0  0  0  0
  143.6024  136.5448  152.5344 H   0  0  0  0  0  0  0  0  0  0  0  0
  146.9826  136.1250  151.1318 H   0  0  0  0  0  0  0  0  0  0  0  0
  145.6251  136.8253  150.3288 H   0  0  0  0  0  0  0  0  0  0  0  0
  146.4052  138.4477  151.9041 H   0  0  0  0  0  0  0  0  0  0  0  0
  146.3443  137.3190  153.2431 H   0  0  0  0  0  0  0  0  0  0  0  0
  144.8478  137.8741  152.4889 H   0  0  0  0  0  0  0  0  0  0  0  0
  145.0508  134.2380  153.6741 H   0  0  0  0  0  0  0  0  0  0  0  0
  147.5632  134.9669  152.4192 H   0  0  0  0  0  0  0  0  0  0  0  0
  149.7748  132.6151  153.6537 H   0  0  0  0  0  0  0  0  0  0  0  0
  149.6030  134.1472  152.8127 H   0  0  0  0  0  0  0  0  0  0  0  0
  149.9911  136.3447  154.2321 H   0  0  0  0  0  0  0  0  0  0  0  0
  150.7165  136.5841  156.9144 H   0  0  0  0  0  0  0  0  0  0  0  0
  144.1471  132.7729  152.0941 H   0  0  0  0  0  0  0  0  0  0  0  0
  147.0206  131.9209  151.4253 H   0  0  0  0  0  0  0  0  0  0  0  0
  145.5567  130.9737  151.2125 H   0  0  0  0  0  0  0  0  0  0  0  0
  146.1438  131.3251  152.8302 H   0  0  0  0  0  0  0  0  0  0  0  0
  146.1887  133.9952  150.1680 H   0  0  0  0  0  0  0  0  0  0  0  0
  143.3185  132.6748  148.3139 H   0  0  0  0  0  0  0  0  0  0  0  0
  144.0651  131.8035  149.6494 H   0  0  0  0  0  0  0  0  0  0  0  0
  145.0765  132.6013  148.4309 H   0  0  0  0  0  0  0  0  0  0  0  0
  1  2  1  0  0  0  0
  1 21  1  0  0  0  0
  1 22  1  0  0  0  0
  1 23  1  0  0  0  0
  2  3  1  0  0  0  0
  2 24  1  0  0  0  0
  2 25  1  0  0  0  0
  3 18  1  0  0  0  0
  3  4  1  0  0  0  0
  3  6  1  0  0  0  0
  4  5  1  0  0  0  0
  4 26  1  0  0  0  0
  4 27  1  0  0  0  0
  5 28  1  0  0  0  0
  5 29  1  0  0  0  0
  5 30  1  0  0  0  0
  6  7  1  0  0  0  0
  6 16  1  0  0  0  0
  6 31  1  0  0  0  0
  7  8  1  0  0  0  0
  7 32  1  0  0  0  0
  8  9  2  0  0  0  0
  8 10  1  0  0  0  0
 10 11  1  0  0  0  0
 10 33  1  0  0  0  0
 10 34  1  0  0  0  0
 11 15  1  0  0  0  0
 11 12  1  0  0  0  0
 12 13  2  0  0  0  0
 12 35  1  0  0  0  0
 13 14  1  0  0  0  0
 13 36  1  0  0  0  0
 14 15  2  0  0  0  0
 16 17  1  0  0  0  0
 16 18  1  0  0  0  0
 16 37  1  0  0  0  0
 17 38  1  0  0  0  0
 17 39  1  0  0  0  0
 17 40  1  0  0  0  0
 18 19  1  0  0  0  0
 18 41  1  0  0  0  0
 19 20  1  0  0  0  0
 20 42  1  0  0  0  0
 20 43  1  0  0  0  0
 20 44  1  0  0  0  0
M  END
> <s_m_source_file>
AV-unprocessed.smi

> <i_m_source_file_index>
2525

> <i_lp_mmshare_version>
43012

> <i_f3d_flags>
0

> <s_epik_input>
W0NIM11PW0NAQEhdMVtDQEhdKFtDSDNdKVtDQEBIXShDMShbQ0gyXVtDSDNdKVtDSDJdW0NIM10pW05IXUMoPU8pW0NIMl1uMltjSF1bY0hdbm4y

> <s_epik_cmdline>
J2VwaWtfcHl0aG9uJywgJy1waCcsICc3LjAnLCAnLXRuJywgJzgnLCAnLW1hJywgJzIwMCcsICctbWV0YWxfYmluZGluZycsICctaW1hZScsICc8aW5maWxlLm1hZT4nLCAnLW9tYWUnLCAnPG91dGZpbGUubWFlPic=

> <r_lp_tautomer_probability>
1

> <r_epik_Ionization_Penalty>
1.18045e-06

> <r_epik_Ionization_Penalty_Charging>
0

> <r_epik_Ionization_Penalty_Neutral>
1.18045e-06

> <r_epik_State_Penalty>
-0

> <r_epik_Charging_Adjusted_Penalty>
0

> <i_epik_Tot_Q>
0

> <i_epik_Tot_abs_Q>
0

> <r_epik_Metal_State_Penalty>
-0

> <b_epik_Metal_Only>
0

> <s_lp_Force_Field>
OPLS_2005

> <r_lp_Energy>
27.9477

> <b_lp_Chiralities_Consistent>
1

> <s_lp_Variant>
AV-unprocessed.smi:2525-4

> <Gold.Version>
5.8.1

> <Gold.Id.Protein>
6NUR|6NUR_protein|mol2

> <Gold.PLP.Fitness>
37.1708

> <Gold.PLP.PLP>
-32.5315

> <Gold.PLP.part.hbond>
-1.2656

> <Gold.PLP.part.metal>
0.0000

> <Gold.PLP.part.buried>
-3.8106

> <Gold.PLP.part.nonpolar>
-28.1377

> <Gold.PLP.part.repulsive>
0.3393

> <Gold.PLP.ligand.clash>
0.0000

> <Gold.PLP.ligand.torsion>
0.9569

> <Gold.PLP.Chemscore.Hbond>
1.0000

> <Gold.PLP.Chemscore.CHOScore>
1.0000

> <Gold.PLP.Chemscore.Metal>
0.0000

> <Gold.Chemscore.Hbonds>
donor molecule, donor type, donor heavy atom, donor atom, acceptor molecule, acceptor atom, score
      L1  H     7    32       P1  7948  1.00
      L1  C    12    35       P1  7948  0.94

> <Gold.PLP.Chemscore.Internal.Correction>
0.5532

> <Gold.Rescore>
     Score         DG    S(hbond)    S(metal)    S(lipo)     H(rot)  DE(clash)    DE(int)     intcor
     10.59     -12.58       0.94        0.00      77.08       1.98       0.07       1.92       ----

> <Gold.Chemscore.Fitness>
10.5862

> <Gold.Chemscore.DG>
-12.5772

> <Gold.Chemscore.ZeroCoef>
-5.4800

> <Gold.Chemscore.Hbond>
0.9435

> <Gold.Chemscore.Metal>
0.0000

> <Gold.Chemscore.Lipo>
77.0847

> <Gold.Chemscore.Internal_Hbond>
0.0000

> <Gold.Chemscore.DEClash>
0.0689

> <Gold.Chemscore.DEInternal>
1.9221

> <Gold.Chemscore.Rot>
1.9817

> <Gold.Chemscore.Internal.Correction>
   9.000000E+99

> <Gold.Chemscore.Hbonds>
donor molecule, donor type, donor heavy atom, donor atom, acceptor molecule, acceptor atom, score
      L1  H     7    32       P1  7948  0.96

> <Gold.Chemscore.Hbond.Weighted>
-3.1514

> <Gold.Chemscore.Metal.Weighted>
-0.0000

> <Gold.Chemscore.Lipo.Weighted>
-9.0189

> <Gold.Chemscore.Internal_Hbond.Weighted>
0.0000

> <Gold.Chemscore.DEClash.Weighted>
0.0689

> <Gold.Chemscore.DEInternal.Weighted>
1.9221

> <Gold.Chemscore.Rot.Weighted>
5.0731

> <Gold.Chemscore.Internal.Correction.Weighted>
   9.000000E+99

> <Gold.Protein.RotatedTorsions>
[ 6907 6896 6895 6894 ] final   66.24 input  -60.11 | X-H torsion
[ 7974 7965 7964 7962 ] final   72.16 input  175.53 | X-H torsion
[ 8008 7997 7996 7995 ] final    5.96 input   59.86 | X-H torsion
[ 10167 10162 10161 10158 ] final   70.33 input  -65.29 | X-H torsion
[ 10718 10713 10712 10709 ] final -118.08 input   66.30 | X-H torsion
[ 10763 10752 10751 10750 ] final  128.55 input  -60.55 | X-H torsion
[ 11005 11000 10999 10996 ] final  -62.55 input  -57.11 | X-H torsion

> <Gold.Protein.ActiveResidues>
 VAL166  LYS551  ARG553  GLY616  TRP617  ASP618  TYR619  PRO620  LYS621  CYS622 
 ASP623  PHE694  ASN695  SER759  ASP760  ASP761  ALA762  ILE779  LEU786  VAL792 
 PHE793  MET794  SER795  GLU796  ALA797  LYS798  CYS799  TRP800  GLU811  SER814 

> <Gold.Protein.RotatedAtoms>
  152.4466  134.5481  159.9858 H   0  0  0  0  0  0  0  0  0  0  0  0  # atno 6907 bound_to 6896
  151.5564  133.3404  159.2970 H   0  0  0  0  0  0  0  0  0  0  0  0  # atno 6908 bound_to 6896
  150.8384  134.7699  159.6976 H   0  0  0  0  0  0  0  0  0  0  0  0  # atno 6909 bound_to 6896
  145.7569  139.2783  143.1399 H   0  0  0  0  0  0  0  0  0  0  0  0  # atno 7974 bound_to 7965
  154.7350  140.2738  155.6423 H   0  0  0  0  0  0  0  0  0  0  0  0  # atno 8008 bound_to 7997
  156.2859  140.2708  156.1986 H   0  0  0  0  0  0  0  0  0  0  0  0  # atno 8009 bound_to 7997
  155.0332  140.0371  157.2472 H   0  0  0  0  0  0  0  0  0  0  0  0  # atno 8010 bound_to 7997
  140.0581  144.5255  150.7314 H   0  0  0  0  0  0  0  0  0  0  0  0  # atno 10167 bound_to 10162
  156.1080  130.6226  150.9245 H   0  0  0  0  0  0  0  0  0  0  0  0  # atno 10718 bound_to 10713
  153.7274  135.3244  155.3279 H   0  0  0  0  0  0  0  0  0  0  0  0  # atno 10763 bound_to 10752
  154.8337  135.4514  154.1156 H   0  0  0  0  0  0  0  0  0  0  0  0  # atno 10764 bound_to 10752
  153.2294  135.6958  153.7988 H   0  0  0  0  0  0  0  0  0  0  0  0  # atno 10765 bound_to 10752
  141.1363  133.6641  156.5545 H   0  0  0  0  0  0  0  0  0  0  0  0  # atno 11005 bound_to 11000
  146.0303  140.8265  142.9879 LP  0  0  0  0  0  0  0  0  0  0  0  0  # atno 17320 bound_to 7965
  144.6838  140.2758  143.7299 LP  0  0  0  0  0  0  0  0  0  0  0  0  # atno 17321 bound_to 7965
  140.7185  143.2566  151.4357 LP  0  0  0  0  0  0  0  0  0  0  0  0  # atno 17342 bound_to 10162
  139.5911  144.1498  152.2088 LP  0  0  0  0  0  0  0  0  0  0  0  0  # atno 17343 bound_to 10162
  157.6259  131.0926  150.8535 LP  0  0  0  0  0  0  0  0  0  0  0  0  # atno 17370 bound_to 10713
  156.8651  130.5126  149.5301 LP  0  0  0  0  0  0  0  0  0  0  0  0  # atno 17371 bound_to 10713
  140.4037  134.7334  157.4795 LP  0  0  0  0  0  0  0  0  0  0  0  0  # atno 17394 bound_to 11000
  140.0477  134.6175  155.8900 LP  0  0  0  0  0  0  0  0  0  0  0  0  # atno 17395 bound_to 11000

$$$$
