AV-unprocessed.smi:1824|AV-procd|sdf|7404|dock1
  -GOLD-   22720 9 73D 1   1.00000     0.00000
 Structure written by MMmdl.
 45 47  0  0  0  0  0  0  0  0  2 V2000
  148.3248  133.1987  152.8921 C   0  0  0  0  0  0  0  0  0  0  0  0
  146.7902  133.1841  153.0106 C   0  0  1  0  0  0  0  0  0  0  0  0
  146.1705  134.5861  153.1753 C   0  0  0  0  0  0  0  0  0  0  0  0
  146.2110  135.3413  151.9010 N   0  3  2  0  0  0  0  0  0  0  0  0
  145.6901  136.7254  152.0402 C   0  0  0  0  0  0  0  0  0  0  0  0
  146.6078  137.6174  152.8995 C   0  0  2  0  0  0  0  0  0  0  0  0
  146.1079  137.6413  154.2236 O   0  0  0  0  0  0  0  0  0  0  0  0
  146.6815  139.0563  152.3524 C   0  0  0  0  0  0  0  0  0  0  0  0
  147.2711  139.9847  153.3013 N   0  0  0  0  0  0  0  0  0  0  0  0
  146.7320  141.1342  153.7513 C   0  0  0  0  0  0  0  0  0  0  0  0
  147.4438  141.8404  154.6248 N   0  0  0  0  0  0  0  0  0  0  0  0
  148.5778  141.0580  154.7598 C   0  0  0  0  0  0  0  0  0  0  0  0
  149.7342  141.2473  155.5500 C   0  0  0  0  0  0  0  0  0  0  0  0
  150.7794  140.3006  155.5258 C   0  0  0  0  0  0  0  0  0  0  0  0
  151.8800  140.4965  156.2903 F   0  0  0  0  0  0  0  0  0  0  0  0
  150.6849  139.1528  154.7110 C   0  0  0  0  0  0  0  0  0  0  0  0
  151.6935  138.2496  154.6921 F   0  0  0  0  0  0  0  0  0  0  0  0
  149.5427  138.9430  153.9148 C   0  0  0  0  0  0  0  0  0  0  0  0
  148.5013  139.8889  153.9438 C   0  0  0  0  0  0  0  0  0  0  0  0
  145.5536  134.5642  150.8228 C   0  0  0  0  0  0  0  0  0  0  0  0
  146.2207  133.1850  150.6748 C   0  0  2  0  0  0  0  0  0  0  0  0
  145.5159  132.3137  149.6296 C   0  0  0  0  0  0  0  0  0  0  0  0
  146.1715  132.4978  151.9225 O   0  0  0  0  0  0  0  0  0  0  0  0
  148.7785  133.6058  153.7960 H   0  0  0  0  0  0  0  0  0  0  0  0
  148.6714  133.8056  152.0560 H   0  0  0  0  0  0  0  0  0  0  0  0
  148.7131  132.1889  152.7561 H   0  0  0  0  0  0  0  0  0  0  0  0
  146.5503  132.6084  153.9050 H   0  0  0  0  0  0  0  0  0  0  0  0
  145.1327  134.4940  153.4997 H   0  0  0  0  0  0  0  0  0  0  0  0
  146.6982  135.1347  153.9567 H   0  0  0  0  0  0  0  0  0  0  0  0
  145.5526  137.1581  151.0480 H   0  0  0  0  0  0  0  0  0  0  0  0
  144.7005  136.7034  152.4995 H   0  0  0  0  0  0  0  0  0  0  0  0
  147.6170  137.2075  152.9269 H   0  0  0  0  0  0  0  0  0  0  0  0
  145.3275  137.1093  154.2636 H   0  0  0  0  0  0  0  0  0  0  0  0
  147.2771  139.0809  151.4388 H   0  0  0  0  0  0  0  0  0  0  0  0
  145.6874  139.4155  152.0832 H   0  0  0  0  0  0  0  0  0  0  0  0
  145.7618  141.4724  153.4173 H   0  0  0  0  0  0  0  0  0  0  0  0
  149.8184  142.1225  156.1768 H   0  0  0  0  0  0  0  0  0  0  0  0
  149.4698  138.0649  153.2909 H   0  0  0  0  0  0  0  0  0  0  0  0
  144.4929  134.4481  151.0516 H   0  0  0  0  0  0  0  0  0  0  0  0
  145.6173  135.0983  149.8754 H   0  0  0  0  0  0  0  0  0  0  0  0
  147.2575  133.3114  150.3631 H   0  0  0  0  0  0  0  0  0  0  0  0
  145.5258  132.7907  148.6492 H   0  0  0  0  0  0  0  0  0  0  0  0
  144.4764  132.1300  149.9032 H   0  0  0  0  0  0  0  0  0  0  0  0
  146.0103  131.3468  149.5324 H   0  0  0  0  0  0  0  0  0  0  0  0
  147.1871  135.4282  151.6545 H   0  0  0  0  0  0  0  0  0  0  0  0
  1  2  1  0  0  0  0
  1 24  1  0  0  0  0
  1 25  1  0  0  0  0
  1 26  1  0  0  0  0
  2 23  1  0  0  0  0
  2  3  1  0  0  0  0
  2 27  1  0  0  0  0
  3  4  1  0  0  0  0
  3 28  1  0  0  0  0
  3 29  1  0  0  0  0
  4  5  1  0  0  0  0
  4 20  1  0  0  0  0
  4 45  1  0  0  0  0
  5  6  1  0  0  0  0
  5 30  1  0  0  0  0
  5 31  1  0  0  0  0
  6  7  1  0  0  0  0
  6  8  1  0  0  0  0
  6 32  1  0  0  0  0
  7 33  1  0  0  0  0
  8  9  1  0  0  0  0
  8 34  1  0  0  0  0
  8 35  1  0  0  0  0
  9 19  1  0  0  0  0
  9 10  1  0  0  0  0
 10 11  2  0  0  0  0
 10 36  1  0  0  0  0
 11 12  1  0  0  0  0
 12 19  2  0  0  0  0
 12 13  1  0  0  0  0
 13 14  2  0  0  0  0
 13 37  1  0  0  0  0
 14 15  1  0  0  0  0
 14 16  1  0  0  0  0
 16 17  1  0  0  0  0
 16 18  2  0  0  0  0
 18 19  1  0  0  0  0
 18 38  1  0  0  0  0
 20 21  1  0  0  0  0
 20 39  1  0  0  0  0
 20 40  1  0  0  0  0
 21 22  1  0  0  0  0
 21 23  1  0  0  0  0
 21 41  1  0  0  0  0
 22 42  1  0  0  0  0
 22 43  1  0  0  0  0
 22 44  1  0  0  0  0
M  CHG  1   4   1
M  END
> <s_m_source_file>
AV-unprocessed.smi

> <i_m_source_file_index>
1824

> <i_lp_mmshare_version>
43012

> <i_f3d_flags>
0

> <s_epik_input>
W0NIM11bQ0BASF0xW0NIMl1OKFtDSDJdW0NASF0oTzEpW0NIM10pW0NIMl1bQ0BIXShbT0hdKVtDSDJdbihbY0hdbjIpYyhjMjMpW2NIXWMoRiljKEYpW2NIXTM=

> <s_epik_cmdline>
J2VwaWtfcHl0aG9uJywgJy1waCcsICc3LjAnLCAnLXRuJywgJzgnLCAnLW1hJywgJzIwMCcsICctbWV0YWxfYmluZGluZycsICctaW1hZScsICc8aW5maWxlLm1hZT4nLCAnLW9tYWUnLCAnPG91dGZpbGUubWFlPic=

> <r_epik_Ionization_Penalty>
0.61967

> <r_epik_Ionization_Penalty_Charging>
0.608065

> <r_epik_Ionization_Penalty_Neutral>
0.0116057

> <r_epik_State_Penalty>
0.664205

> <r_epik_Charging_Adjusted_Penalty>
1.27227

> <i_epik_Tot_Q>
1

> <i_epik_Tot_abs_Q>
1

> <r_epik_Metal_State_Penalty>
0.654947

> <b_epik_Metal_Only>
0

> <s_lp_Force_Field>
OPLS_2005

> <r_lp_Energy>
23.1423

> <b_lp_Chiralities_Consistent>
1

> <s_lp_Variant>
AV-unprocessed.smi:1824-12

> <Gold.Version>
5.8.1

> <Gold.Id.Protein>
6NUR|6NUR_protein|mol2

> <Gold.PLP.Fitness>
49.9316

> <Gold.PLP.PLP>
-42.6821

> <Gold.PLP.part.hbond>
-1.0000

> <Gold.PLP.part.metal>
0.0000

> <Gold.PLP.part.buried>
3.2298

> <Gold.PLP.part.nonpolar>
-44.1474

> <Gold.PLP.part.repulsive>
0.2984

> <Gold.PLP.ligand.clash>
0.0000

> <Gold.PLP.ligand.torsion>
0.7122

> <Gold.PLP.Chemscore.Hbond>
2.0000

> <Gold.PLP.Chemscore.CHOScore>
0.8223

> <Gold.PLP.Chemscore.Metal>
0.0000

> <Gold.Chemscore.Hbonds>
donor molecule, donor type, donor heavy atom, donor atom, acceptor molecule, acceptor atom, score
      L1  H     4    45       P1  7948  2.00
      L1  C    10    36       P1 10175  0.86

> <Gold.PLP.Chemscore.Internal.Correction>
0.2070

> <Gold.Rescore>
     Score         DG    S(hbond)    S(metal)    S(lipo)     H(rot)  DE(clash)    DE(int)     intcor
     12.11     -13.75       0.99        0.00      93.22       2.33       0.95       0.68       ----

> <Gold.Chemscore.Fitness>
12.1133

> <Gold.Chemscore.DG>
-13.7517

> <Gold.Chemscore.ZeroCoef>
-5.4800

> <Gold.Chemscore.Hbond>
0.9933

> <Gold.Chemscore.Metal>
0.0000

> <Gold.Chemscore.Lipo>
93.2158

> <Gold.Chemscore.Internal_Hbond>
0.0000

> <Gold.Chemscore.DEClash>
0.9549

> <Gold.Chemscore.DEInternal>
0.6835

> <Gold.Chemscore.Rot>
2.3251

> <Gold.Chemscore.Internal.Correction>
   9.000000E+99

> <Gold.Chemscore.Hbonds>
donor molecule, donor type, donor heavy atom, donor atom, acceptor molecule, acceptor atom, score
      L1  H     4    45       P1  7948  0.96

> <Gold.Chemscore.Hbond.Weighted>
-3.3178

> <Gold.Chemscore.Metal.Weighted>
-0.0000

> <Gold.Chemscore.Lipo.Weighted>
-10.9063

> <Gold.Chemscore.Internal_Hbond.Weighted>
0.0000

> <Gold.Chemscore.DEClash.Weighted>
0.9549

> <Gold.Chemscore.DEInternal.Weighted>
0.6835

> <Gold.Chemscore.Rot.Weighted>
5.9523

> <Gold.Chemscore.Internal.Correction.Weighted>
   9.000000E+99

> <Gold.Protein.RotatedTorsions>
[ 6907 6896 6895 6894 ] final   -5.14 input  -60.11 | X-H torsion
[ 7974 7965 7964 7962 ] final -139.98 input  175.53 | X-H torsion
[ 8008 7997 7996 7995 ] final   84.11 input   59.86 | X-H torsion
[ 10167 10162 10161 10158 ] final   10.45 input  -65.29 | X-H torsion
[ 10718 10713 10712 10709 ] final  140.63 input   66.30 | X-H torsion
[ 10763 10752 10751 10750 ] final  -35.03 input  -60.55 | X-H torsion
[ 11005 11000 10999 10996 ] final -121.73 input  -57.11 | X-H torsion

> <Gold.Protein.ActiveResidues>
 VAL166  LYS551  ARG553  GLY616  TRP617  ASP618  TYR619  PRO620  LYS621  CYS622 
 ASP623  PHE694  ASN695  SER759  ASP760  ASP761  ALA762  ILE779  LEU786  VAL792 
 PHE793  MET794  SER795  GLU796  ALA797  LYS798  CYS799  TRP800  GLU811  SER814 

> <Gold.Protein.RotatedAtoms>
  151.4864  135.1055  159.9791 H   0  0  0  0  0  0  0  0  0  0  0  0  # atno 6907 bound_to 6896
  152.4758  133.8132  159.7025 H   0  0  0  0  0  0  0  0  0  0  0  0  # atno 6908 bound_to 6896
  150.8796  133.7329  159.2962 H   0  0  0  0  0  0  0  0  0  0  0  0  # atno 6909 bound_to 6896
  144.8633  140.6254  143.5314 H   0  0  0  0  0  0  0  0  0  0  0  0  # atno 7974 bound_to 7965
  155.9328  140.3413  155.6263 H   0  0  0  0  0  0  0  0  0  0  0  0  # atno 8008 bound_to 7997
  155.7136  140.0775  157.2379 H   0  0  0  0  0  0  0  0  0  0  0  0  # atno 8009 bound_to 7997
  154.4088  140.1618  156.2311 H   0  0  0  0  0  0  0  0  0  0  0  0  # atno 8010 bound_to 7997
  140.6193  143.8239  150.7156 H   0  0  0  0  0  0  0  0  0  0  0  0  # atno 10167 bound_to 10162
  157.4011  131.1017  151.0551 H   0  0  0  0  0  0  0  0  0  0  0  0  # atno 10718 bound_to 10713
  153.8565  135.6844  153.4787 H   0  0  0  0  0  0  0  0  0  0  0  0  # atno 10763 bound_to 10752
  153.1367  135.4675  154.9431 H   0  0  0  0  0  0  0  0  0  0  0  0  # atno 10764 bound_to 10752
  154.7778  135.3259  154.8003 H   0  0  0  0  0  0  0  0  0  0  0  0  # atno 10765 bound_to 10752
  141.0049  134.0350  157.3490 H   0  0  0  0  0  0  0  0  0  0  0  0  # atno 11005 bound_to 11000
  145.4270  139.1555  143.4043 LP  0  0  0  0  0  0  0  0  0  0  0  0  # atno 17320 bound_to 7965
  146.2877  140.4383  142.8751 LP  0  0  0  0  0  0  0  0  0  0  0  0  # atno 17321 bound_to 7965
  140.1825  143.4103  152.1922 LP  0  0  0  0  0  0  0  0  0  0  0  0  # atno 17342 bound_to 10162
  139.5425  144.7269  151.4688 LP  0  0  0  0  0  0  0  0  0  0  0  0  # atno 17343 bound_to 10162
  157.1549  130.6200  149.5593 LP  0  0  0  0  0  0  0  0  0  0  0  0  # atno 17370 bound_to 10713
  155.9823  130.4836  150.6876 LP  0  0  0  0  0  0  0  0  0  0  0  0  # atno 17371 bound_to 10713
  139.9058  135.0179  156.7477 LP  0  0  0  0  0  0  0  0  0  0  0  0  # atno 17394 bound_to 11000
  140.6830  133.9458  155.7921 LP  0  0  0  0  0  0  0  0  0  0  0  0  # atno 17395 bound_to 11000

$$$$
