AV-unprocessed.smi:3285|AV-procd|sdf|12581|dock1
  -GOLD-   2272018503D 1   1.00000     0.00000
 Structure written by MMmdl.
 45 46  0  0  0  0  0  0  0  0  2 V2000
  146.3817  142.1539  153.8102 C   0  0  0  0  0  0  0  0  0  0  0  0
  147.1503  140.8654  153.8800 C   0  0  0  0  0  0  0  0  0  0  0  0
  146.5519  139.7328  153.5532 N   0  0  0  0  0  0  0  0  0  0  0  0
  147.5100  138.7292  153.7248 O   0  0  0  0  0  0  0  0  0  0  0  0
  148.6612  139.3039  154.1561 C   0  0  0  0  0  0  0  0  0  0  0  0
  149.8149  138.3919  154.4048 C   0  0  0  0  0  0  0  0  0  0  0  0
  148.5025  140.6569  154.2776 C   0  0  0  0  0  0  0  0  0  0  0  0
  149.5072  141.6828  154.7276 C   0  0  0  0  0  0  0  0  0  0  0  0
  150.1330  141.3013  156.0752 C   0  0  0  0  0  0  0  0  0  0  0  0
  149.9705  142.3904  157.0606 N   0  3  0  0  0  0  0  0  0  0  0  0
  151.2242  142.8813  157.6747 C   0  0  1  0  0  0  0  0  0  0  0  0
  150.9969  144.2835  158.2670 C   0  0  0  0  0  0  0  0  0  0  0  0
  152.2650  144.8217  158.9511 C   0  0  0  0  0  0  0  0  0  0  0  0
  152.7917  143.8673  160.0421 C   0  0  1  0  0  0  0  0  0  0  0  0
  151.8971  143.8898  161.2982 C   0  0  0  0  0  0  0  0  0  0  0  0
  153.0159  142.4540  159.4463 C   0  0  1  0  0  0  0  0  0  0  0  0
  153.5870  141.4496  160.4611 C   0  0  0  0  0  0  0  0  0  0  0  0
  151.7445  141.9136  158.7595 C   0  0  0  0  0  0  0  0  0  0  0  0
  145.9438  142.3978  154.7782 H   0  0  0  0  0  0  0  0  0  0  0  0
  145.5709  142.0982  153.0828 H   0  0  0  0  0  0  0  0  0  0  0  0
  147.0264  142.9828  153.5185 H   0  0  0  0  0  0  0  0  0  0  0  0
  150.1172  138.4297  155.4512 H   0  0  0  0  0  0  0  0  0  0  0  0
  150.6712  138.6784  153.7945 H   0  0  0  0  0  0  0  0  0  0  0  0
  149.5602  137.3595  154.1643 H   0  0  0  0  0  0  0  0  0  0  0  0
  150.2968  141.7966  153.9838 H   0  0  0  0  0  0  0  0  0  0  0  0
  149.0390  142.6642  154.8108 H   0  0  0  0  0  0  0  0  0  0  0  0
  149.6667  140.3907  156.4510 H   0  0  0  0  0  0  0  0  0  0  0  0
  151.1953  141.0909  155.9427 H   0  0  0  0  0  0  0  0  0  0  0  0
  149.5436  143.1682  156.5780 H   0  0  0  0  0  0  0  0  0  0  0  0
  151.9755  142.9694  156.8881 H   0  0  0  0  0  0  0  0  0  0  0  0
  150.6915  144.9736  157.4795 H   0  0  0  0  0  0  0  0  0  0  0  0
  150.1746  144.2580  158.9831 H   0  0  0  0  0  0  0  0  0  0  0  0
  153.0401  144.9669  158.1974 H   0  0  0  0  0  0  0  0  0  0  0  0
  152.0704  145.8080  159.3739 H   0  0  0  0  0  0  0  0  0  0  0  0
  153.7651  144.2489  160.3538 H   0  0  0  0  0  0  0  0  0  0  0  0
  150.9100  143.4688  161.1100 H   0  0  0  0  0  0  0  0  0  0  0  0
  151.7549  144.9103  161.6548 H   0  0  0  0  0  0  0  0  0  0  0  0
  152.3452  143.3291  162.1183 H   0  0  0  0  0  0  0  0  0  0  0  0
  153.7735  142.5601  158.6680 H   0  0  0  0  0  0  0  0  0  0  0  0
  152.8645  141.2058  161.2403 H   0  0  0  0  0  0  0  0  0  0  0  0
  154.4819  141.8433  160.9436 H   0  0  0  0  0  0  0  0  0  0  0  0
  153.8634  140.5158  159.9709 H   0  0  0  0  0  0  0  0  0  0  0  0
  150.9667  141.7341  159.5027 H   0  0  0  0  0  0  0  0  0  0  0  0
  151.9708  140.9434  158.3175 H   0  0  0  0  0  0  0  0  0  0  0  0
  149.3447  142.0868  157.7929 H   0  0  0  0  0  0  0  0  0  0  0  0
  1  2  1  0  0  0  0
  1 19  1  0  0  0  0
  1 20  1  0  0  0  0
  1 21  1  0  0  0  0
  2  7  1  0  0  0  0
  2  3  2  0  0  0  0
  3  4  1  0  0  0  0
  4  5  1  0  0  0  0
  5  6  1  0  0  0  0
  5  7  2  0  0  0  0
  6 22  1  0  0  0  0
  6 23  1  0  0  0  0
  6 24  1  0  0  0  0
  7  8  1  0  0  0  0
  8  9  1  0  0  0  0
  8 25  1  0  0  0  0
  8 26  1  0  0  0  0
  9 10  1  0  0  0  0
  9 27  1  0  0  0  0
  9 28  1  0  0  0  0
 10 11  1  0  0  0  0
 10 29  1  0  0  0  0
 10 45  1  0  0  0  0
 11 18  1  0  0  0  0
 11 12  1  0  0  0  0
 11 30  1  0  0  0  0
 12 13  1  0  0  0  0
 12 31  1  0  0  0  0
 12 32  1  0  0  0  0
 13 14  1  0  0  0  0
 13 33  1  0  0  0  0
 13 34  1  0  0  0  0
 14 15  1  0  0  0  0
 14 16  1  0  0  0  0
 14 35  1  0  0  0  0
 15 36  1  0  0  0  0
 15 37  1  0  0  0  0
 15 38  1  0  0  0  0
 16 17  1  0  0  0  0
 16 18  1  0  0  0  0
 16 39  1  0  0  0  0
 17 40  1  0  0  0  0
 17 41  1  0  0  0  0
 17 42  1  0  0  0  0
 18 43  1  0  0  0  0
 18 44  1  0  0  0  0
M  CHG  1  10   1
M  END
> <s_m_source_file>
AV-unprocessed.smi

> <i_m_source_file_index>
3285

> <i_lp_mmshare_version>
43012

> <i_f3d_flags>
0

> <s_epik_input>
W0NIM11jMW5vYyhbQ0gzXSljMVtDSDJdW0NIMl1bTkhdW0NAQEhdMltDSDJdW0NIMl1bQ0BASF0oW0NIM10pW0NAQEhdKFtDSDNdKVtDSDJdMg==

> <s_epik_cmdline>
J2VwaWtfcHl0aG9uJywgJy1waCcsICc3LjAnLCAnLXRuJywgJzgnLCAnLW1hJywgJzIwMCcsICctbWV0YWxfYmluZGluZycsICctaW1hZScsICc8aW5maWxlLm1hZT4nLCAnLW9tYWUnLCAnPG91dGZpbGUubWFlPic=

> <r_lp_tautomer_probability>
1

> <r_epik_Ionization_Penalty>
0.000204615

> <r_epik_Ionization_Penalty_Charging>
0.000204615

> <r_epik_Ionization_Penalty_Neutral>
9.28663e-11

> <r_epik_State_Penalty>
-0

> <r_epik_Charging_Adjusted_Penalty>
0.000204615

> <i_epik_Tot_Q>
1

> <i_epik_Tot_abs_Q>
1

> <r_epik_Metal_State_Penalty>
-0

> <b_epik_Metal_Only>
0

> <s_lp_Force_Field>
OPLS_2005

> <r_lp_Energy>
12.3416

> <b_lp_Chiralities_Consistent>
1

> <s_lp_Variant>
AV-unprocessed.smi:3285-2

> <Gold.Version>
5.8.1

> <Gold.Id.Protein>
6NUR|6NUR_protein|mol2

> <Gold.PLP.Fitness>
48.8349

> <Gold.PLP.PLP>
-44.7172

> <Gold.PLP.part.hbond>
-1.0000

> <Gold.PLP.part.metal>
0.0000

> <Gold.PLP.part.buried>
-2.9622

> <Gold.PLP.part.nonpolar>
-41.2005

> <Gold.PLP.part.repulsive>
0.4067

> <Gold.PLP.ligand.clash>
0.0000

> <Gold.PLP.ligand.torsion>
0.9565

> <Gold.PLP.Chemscore.Hbond>
2.0000

> <Gold.PLP.Chemscore.CHOScore>
0.0000

> <Gold.PLP.Chemscore.Metal>
0.0000

> <Gold.Chemscore.Hbonds>
donor molecule, donor type, donor heavy atom, donor atom, acceptor molecule, acceptor atom, score
      L1  H    10    29       P1  8028  2.00

> <Gold.PLP.Chemscore.Internal.Correction>
0.0307

> <Gold.Rescore>
     Score         DG    S(hbond)    S(metal)    S(lipo)     H(rot)  DE(clash)    DE(int)     intcor
     20.65     -21.86       1.00        0.00     140.93       1.35       0.19       1.02       ----

> <Gold.Chemscore.Fitness>
20.6463

> <Gold.Chemscore.DG>
-21.8613

> <Gold.Chemscore.ZeroCoef>
-5.4800

> <Gold.Chemscore.Hbond>
1.0000

> <Gold.Chemscore.Metal>
0.0000

> <Gold.Chemscore.Lipo>
140.9260

> <Gold.Chemscore.Internal_Hbond>
0.0000

> <Gold.Chemscore.DEClash>
0.1901

> <Gold.Chemscore.DEInternal>
1.0249

> <Gold.Chemscore.Rot>
1.3465

> <Gold.Chemscore.Internal.Correction>
   9.000000E+99

> <Gold.Chemscore.Hbonds>
donor molecule, donor type, donor heavy atom, donor atom, acceptor molecule, acceptor atom, score
      L1  H    10    29       P1  8028  1.00

> <Gold.Chemscore.Hbond.Weighted>
-3.3400

> <Gold.Chemscore.Metal.Weighted>
-0.0000

> <Gold.Chemscore.Lipo.Weighted>
-16.4883

> <Gold.Chemscore.Internal_Hbond.Weighted>
0.0000

> <Gold.Chemscore.DEClash.Weighted>
0.1901

> <Gold.Chemscore.DEInternal.Weighted>
1.0249

> <Gold.Chemscore.Rot.Weighted>
3.4470

> <Gold.Chemscore.Internal.Correction.Weighted>
   9.000000E+99

> <Gold.Protein.RotatedTorsions>
[ 6907 6896 6895 6894 ] final    9.80 input  -60.11 | X-H torsion
[ 7974 7965 7964 7962 ] final  119.85 input  175.53 | X-H torsion
[ 8008 7997 7996 7995 ] final  -15.78 input   59.86 | X-H torsion
[ 10167 10162 10161 10158 ] final -110.62 input  -65.29 | X-H torsion
[ 10718 10713 10712 10709 ] final -132.38 input   66.30 | X-H torsion
[ 10763 10752 10751 10750 ] final -116.99 input  -60.55 | X-H torsion
[ 11005 11000 10999 10996 ] final -163.69 input  -57.11 | X-H torsion

> <Gold.Protein.ActiveResidues>
 VAL166  LYS551  ARG553  GLY616  TRP617  ASP618  TYR619  PRO620  LYS621  CYS622 
 ASP623  PHE694  ASN695  SER759  ASP760  ASP761  ALA762  ILE779  LEU786  VAL792 
 PHE793  MET794  SER795  GLU796  ALA797  LYS798  CYS799  TRP800  GLU811  SER814 

> <Gold.Protein.RotatedAtoms>
  151.7280  135.0881  160.0295 H   0  0  0  0  0  0  0  0  0  0  0  0  # atno 6907 bound_to 6896
  152.3559  133.6233  159.5988 H   0  0  0  0  0  0  0  0  0  0  0  0  # atno 6908 bound_to 6896
  150.7571  133.9416  159.3499 H   0  0  0  0  0  0  0  0  0  0  0  0  # atno 6909 bound_to 6896
  145.1382  139.3285  143.4630 H   0  0  0  0  0  0  0  0  0  0  0  0  # atno 7974 bound_to 7965
  154.5104  140.2187  155.9168 H   0  0  0  0  0  0  0  0  0  0  0  0  # atno 8008 bound_to 7997
  156.1545  140.3155  155.8669 H   0  0  0  0  0  0  0  0  0  0  0  0  # atno 8009 bound_to 7997
  155.3874  140.0476  157.3032 H   0  0  0  0  0  0  0  0  0  0  0  0  # atno 8010 bound_to 7997
  140.1425  143.4267  152.1552 H   0  0  0  0  0  0  0  0  0  0  0  0  # atno 10167 bound_to 10162
  156.2340  130.7055  151.0888 H   0  0  0  0  0  0  0  0  0  0  0  0  # atno 10718 bound_to 10713
  154.8539  135.4325  154.1909 H   0  0  0  0  0  0  0  0  0  0  0  0  # atno 10763 bound_to 10752
  153.2977  135.6966  153.7238 H   0  0  0  0  0  0  0  0  0  0  0  0  # atno 10764 bound_to 10752
  153.6380  135.3473  155.3037 H   0  0  0  0  0  0  0  0  0  0  0  0  # atno 10765 bound_to 10752
  140.5953  134.5003  157.5198 H   0  0  0  0  0  0  0  0  0  0  0  0  # atno 11005 bound_to 11000
  146.3508  140.1408  142.8594 LP  0  0  0  0  0  0  0  0  0  0  0  0  # atno 17320 bound_to 7965
  145.0561  140.9054  143.4966 LP  0  0  0  0  0  0  0  0  0  0  0  0  # atno 17321 bound_to 7965
  139.5465  144.7303  151.4567 LP  0  0  0  0  0  0  0  0  0  0  0  0  # atno 17342 bound_to 10162
  140.6752  143.8206  150.7049 LP  0  0  0  0  0  0  0  0  0  0  0  0  # atno 17343 bound_to 10162
  157.7146  131.0717  150.6376 LP  0  0  0  0  0  0  0  0  0  0  0  0  # atno 17370 bound_to 10713
  156.6445  130.4468  149.5740 LP  0  0  0  0  0  0  0  0  0  0  0  0  # atno 17371 bound_to 10713
  139.9256  134.8062  156.1079 LP  0  0  0  0  0  0  0  0  0  0  0  0  # atno 17394 bound_to 11000
  141.0908  133.6715  156.2537 LP  0  0  0  0  0  0  0  0  0  0  0  0  # atno 17395 bound_to 11000

$$$$
