AV-unprocessed.smi:2351|AV-procd|sdf|9374|dock5
  -GOLD-   2272013 03D 1   1.00000     0.00000
 Structure written by MMmdl.
 47 49  0  0  0  0  0  0  0  0  2 V2000
  150.8008  140.5949  156.6373 O   0  0  0  0  0  0  0  0  0  0  0  0
  150.3327  141.7125  156.4187 C   0  0  0  0  0  0  0  0  0  0  0  0
  150.5660  142.8042  157.1653 N   0  0  0  0  0  0  0  0  0  0  0  0
  151.3623  142.8795  158.3370 C   0  0  0  0  0  0  0  0  0  0  0  0
  152.2247  141.8027  158.6286 C   0  0  0  0  0  0  0  0  0  0  0  0
  153.0362  141.8778  159.7783 C   0  0  0  0  0  0  0  0  0  0  0  0
  153.0438  142.9385  160.6133 N   0  0  0  0  0  0  0  0  0  0  0  0
  152.2361  143.9793  160.3173 C   0  0  0  0  0  0  0  0  0  0  0  0
  151.3863  144.0084  159.1929 C   0  0  0  0  0  0  0  0  0  0  0  0
  150.6432  145.1127  158.9400 F   0  0  0  0  0  0  0  0  0  0  0  0
  149.5329  141.9900  155.3788 N   0  0  0  0  0  0  0  0  0  0  0  0
  149.0924  141.0211  154.3794 C   0  0  2  0  0  0  0  0  0  0  0  0
  147.9237  141.6009  153.5675 C   0  0  0  0  0  0  0  0  0  0  0  0
  147.3792  140.5709  152.5636 C   0  0  0  0  0  0  0  0  0  0  0  0
  146.9639  139.3191  153.2481 N   0  3  1  0  0  0  0  0  0  0  0  0
  146.3059  138.3623  152.3218 C   0  0  0  0  0  0  0  0  0  0  0  0
  145.5133  137.2682  153.0642 C   0  0  2  0  0  0  0  0  0  0  0  0
  144.6367  136.4297  152.1559 C   0  0  0  0  0  0  0  0  0  0  0  0
  143.6561  135.8093  153.1468 C   0  0  0  0  0  0  0  0  0  0  0  0
  143.5056  136.7655  154.1923 O   0  0  0  0  0  0  0  0  0  0  0  0
  144.4733  137.8007  154.0517 C   0  0  0  0  0  0  0  0  0  0  0  0
  148.0903  138.7176  154.0105 C   0  0  0  0  0  0  0  0  0  0  0  0
  148.6504  139.7056  155.0466 C   0  0  0  0  0  0  0  0  0  0  0  0
  150.2286  143.6838  156.8031 H   0  0  0  0  0  0  0  0  0  0  0  0
  152.2595  140.9298  157.9930 H   0  0  0  0  0  0  0  0  0  0  0  0
  153.6989  141.0639  160.0329 H   0  0  0  0  0  0  0  0  0  0  0  0
  152.2786  144.8226  160.9908 H   0  0  0  0  0  0  0  0  0  0  0  0
  149.2021  142.9382  155.2732 H   0  0  0  0  0  0  0  0  0  0  0  0
  149.9172  140.8149  153.6942 H   0  0  0  0  0  0  0  0  0  0  0  0
  147.1213  141.9105  154.2389 H   0  0  0  0  0  0  0  0  0  0  0  0
  148.2455  142.4976  153.0364 H   0  0  0  0  0  0  0  0  0  0  0  0
  146.5274  141.0041  152.0381 H   0  0  0  0  0  0  0  0  0  0  0  0
  148.1343  140.3424  151.8097 H   0  0  0  0  0  0  0  0  0  0  0  0
  145.6174  138.9005  151.6684 H   0  0  0  0  0  0  0  0  0  0  0  0
  147.0558  137.9148  151.6677 H   0  0  0  0  0  0  0  0  0  0  0  0
  146.1879  136.5922  153.5900 H   0  0  0  0  0  0  0  0  0  0  0  0
  144.0994  137.0640  151.4491 H   0  0  0  0  0  0  0  0  0  0  0  0
  145.1945  135.6838  151.5888 H   0  0  0  0  0  0  0  0  0  0  0  0
  142.6980  135.5651  152.6874 H   0  0  0  0  0  0  0  0  0  0  0  0
  144.0712  134.8945  153.5715 H   0  0  0  0  0  0  0  0  0  0  0  0
  144.9104  138.0677  155.0143 H   0  0  0  0  0  0  0  0  0  0  0  0
  143.9738  138.6842  153.6516 H   0  0  0  0  0  0  0  0  0  0  0  0
  147.7630  137.8167  154.5275 H   0  0  0  0  0  0  0  0  0  0  0  0
  148.8788  138.4146  153.3199 H   0  0  0  0  0  0  0  0  0  0  0  0
  149.4896  139.2464  155.5705 H   0  0  0  0  0  0  0  0  0  0  0  0
  147.8895  139.9089  155.8018 H   0  0  0  0  0  0  0  0  0  0  0  0
  146.2627  139.5899  153.9228 H   0  0  0  0  0  0  0  0  0  0  0  0
  1  2  2  0  0  0  0
  2  3  1  0  0  0  0
  2 11  1  0  0  0  0
  3  4  1  0  0  0  0
  3 24  1  0  0  0  0
  4  9  1  0  0  0  0
  4  5  2  0  0  0  0
  5  6  1  0  0  0  0
  5 25  1  0  0  0  0
  6  7  2  0  0  0  0
  6 26  1  0  0  0  0
  7  8  1  0  0  0  0
  8  9  2  0  0  0  0
  8 27  1  0  0  0  0
  9 10  1  0  0  0  0
 11 12  1  0  0  0  0
 11 28  1  0  0  0  0
 12 23  1  0  0  0  0
 12 13  1  0  0  0  0
 12 29  1  0  0  0  0
 13 14  1  0  0  0  0
 13 30  1  0  0  0  0
 13 31  1  0  0  0  0
 14 15  1  0  0  0  0
 14 32  1  0  0  0  0
 14 33  1  0  0  0  0
 15 16  1  0  0  0  0
 15 22  1  0  0  0  0
 15 47  1  0  0  0  0
 16 17  1  0  0  0  0
 16 34  1  0  0  0  0
 16 35  1  0  0  0  0
 17 21  1  0  0  0  0
 17 18  1  0  0  0  0
 17 36  1  0  0  0  0
 18 19  1  0  0  0  0
 18 37  1  0  0  0  0
 18 38  1  0  0  0  0
 19 20  1  0  0  0  0
 19 39  1  0  0  0  0
 19 40  1  0  0  0  0
 20 21  1  0  0  0  0
 21 41  1  0  0  0  0
 21 42  1  0  0  0  0
 22 23  1  0  0  0  0
 22 43  1  0  0  0  0
 22 44  1  0  0  0  0
 23 45  1  0  0  0  0
 23 46  1  0  0  0  0
M  CHG  1  15   1
M  END
> <s_m_source_file>
AV-unprocessed.smi

> <i_m_source_file_index>
2351

> <i_lp_mmshare_version>
43012

> <i_f3d_flags>
0

> <s_epik_input>
RmMxW2NIXW5bY0hdW2NIXWMxW05IXUMoPU8pW05IXVtDSF0yW0NIMl1bQ0gyXU4oW0NIMl1bQ0gyXTIpW0NIMl1bQ0BASF0zW0NIMl1bQ0gyXU9bQ0gyXTM=

> <s_epik_cmdline>
J2VwaWtfcHl0aG9uJywgJy1waCcsICc3LjAnLCAnLXRuJywgJzgnLCAnLW1hJywgJzIwMCcsICctbWV0YWxfYmluZGluZycsICctaW1hZScsICc8aW5maWxlLm1hZT4nLCAnLW9tYWUnLCAnPG91dGZpbGUubWFlPic=

> <r_epik_Ionization_Penalty>
0.0102464

> <r_epik_Ionization_Penalty_Charging>
0.00747775

> <r_epik_Ionization_Penalty_Neutral>
0.00276864

> <r_epik_State_Penalty>
0.00558817

> <r_epik_Charging_Adjusted_Penalty>
0.0130659

> <i_epik_Tot_Q>
1

> <i_epik_Tot_abs_Q>
1

> <r_epik_Metal_State_Penalty>
-0

> <b_epik_Metal_Only>
0

> <s_lp_Force_Field>
OPLS_2005

> <r_lp_Energy>
40.2239

> <b_lp_Chiralities_Consistent>
1

> <s_lp_Variant>
AV-unprocessed.smi:2351-1

> <Gold.Version>
5.8.1

> <Gold.Id.Protein>
6NUR|6NUR_protein|mol2

> <Gold.PLP.Fitness>
43.3804

> <Gold.PLP.PLP>
-38.6397

> <Gold.PLP.part.hbond>
-2.0000

> <Gold.PLP.part.metal>
0.0000

> <Gold.PLP.part.buried>
-4.8188

> <Gold.PLP.part.nonpolar>
-32.8753

> <Gold.PLP.part.repulsive>
0.2538

> <Gold.PLP.ligand.clash>
0.7345

> <Gold.PLP.ligand.torsion>
0.3445

> <Gold.PLP.Chemscore.Hbond>
2.0000

> <Gold.PLP.Chemscore.CHOScore>
0.0000

> <Gold.PLP.Chemscore.Metal>
0.0000

> <Gold.Chemscore.Hbonds>
donor molecule, donor type, donor heavy atom, donor atom, acceptor molecule, acceptor atom, score
      L1  H     3    24       P1  8028  0.99
      L1  H    11    28       P1  8028  1.00

> <Gold.PLP.Chemscore.Internal.Correction>
0.1642

> <Gold.Rescore>
     Score         DG    S(hbond)    S(metal)    S(lipo)     H(rot)  DE(clash)    DE(int)     intcor
     16.76     -19.90       1.97        0.00      98.79       1.45       0.03       3.10       ----

> <Gold.Chemscore.Fitness>
16.7610

> <Gold.Chemscore.DG>
-19.8982

> <Gold.Chemscore.ZeroCoef>
-5.4800

> <Gold.Chemscore.Hbond>
1.9662

> <Gold.Chemscore.Metal>
0.0000

> <Gold.Chemscore.Lipo>
98.7921

> <Gold.Chemscore.Internal_Hbond>
0.0000

> <Gold.Chemscore.DEClash>
0.0347

> <Gold.Chemscore.DEInternal>
3.1025

> <Gold.Chemscore.Rot>
1.4483

> <Gold.Chemscore.Internal.Correction>
   9.000000E+99

> <Gold.Chemscore.Hbonds>
donor molecule, donor type, donor heavy atom, donor atom, acceptor molecule, acceptor atom, score
      L1  H     3    24       P1  8028  0.88
      L1  H    11    28       P1  8028  1.00

> <Gold.Chemscore.Hbond.Weighted>
-6.5672

> <Gold.Chemscore.Metal.Weighted>
-0.0000

> <Gold.Chemscore.Lipo.Weighted>
-11.5587

> <Gold.Chemscore.Internal_Hbond.Weighted>
0.0000

> <Gold.Chemscore.DEClash.Weighted>
0.0347

> <Gold.Chemscore.DEInternal.Weighted>
3.1025

> <Gold.Chemscore.Rot.Weighted>
3.7077

> <Gold.Chemscore.Internal.Correction.Weighted>
   9.000000E+99

> <Gold.Protein.RotatedTorsions>
[ 6907 6896 6895 6894 ] final  -34.25 input  -60.11 | X-H torsion
[ 7974 7965 7964 7962 ] final  179.73 input  175.53 | X-H torsion
[ 8008 7997 7996 7995 ] final  162.97 input   59.86 | X-H torsion
[ 10167 10162 10161 10158 ] final   96.57 input  -65.29 | X-H torsion
[ 10718 10713 10712 10709 ] final  129.52 input   66.30 | X-H torsion
[ 10763 10752 10751 10750 ] final  -39.30 input  -60.55 | X-H torsion
[ 11005 11000 10999 10996 ] final   81.99 input  -57.11 | X-H torsion

> <Gold.Protein.ActiveResidues>
 VAL166  LYS551  ARG553  GLY616  TRP617  ASP618  TYR619  PRO620  LYS621  CYS622 
 ASP623  PHE694  ASN695  SER759  ASP760  ASP761  ALA762  ILE779  LEU786  VAL792 
 PHE793  MET794  SER795  GLU796  ALA797  LYS798  CYS799  TRP800  GLU811  SER814 

> <Gold.Protein.RotatedAtoms>
  151.0550  134.9699  159.8230 H   0  0  0  0  0  0  0  0  0  0  0  0  # atno 6907 bound_to 6896
  152.5387  134.2489  159.8901 H   0  0  0  0  0  0  0  0  0  0  0  0  # atno 6908 bound_to 6896
  151.2506  133.4309  159.2645 H   0  0  0  0  0  0  0  0  0  0  0  0  # atno 6909 bound_to 6896
  144.7143  140.0592  143.6433 H   0  0  0  0  0  0  0  0  0  0  0  0  # atno 7974 bound_to 7965
  156.1992  140.1736  156.7935 H   0  0  0  0  0  0  0  0  0  0  0  0  # atno 8008 bound_to 7997
  154.5569  140.0707  156.8788 H   0  0  0  0  0  0  0  0  0  0  0  0  # atno 8009 bound_to 7997
  155.2922  140.3356  155.4254 H   0  0  0  0  0  0  0  0  0  0  0  0  # atno 8010 bound_to 7997
  139.7881  144.6862  150.9929 H   0  0  0  0  0  0  0  0  0  0  0  0  # atno 10167 bound_to 10162
  157.5147  131.1097  150.9242 H   0  0  0  0  0  0  0  0  0  0  0  0  # atno 10718 bound_to 10713
  153.9271  135.6776  153.4746 H   0  0  0  0  0  0  0  0  0  0  0  0  # atno 10763 bound_to 10752
  153.0998  135.4833  154.8844 H   0  0  0  0  0  0  0  0  0  0  0  0  # atno 10764 bound_to 10752
  154.7447  135.3169  154.8622 H   0  0  0  0  0  0  0  0  0  0  0  0  # atno 10765 bound_to 10752
  139.9079  134.8038  156.2114 H   0  0  0  0  0  0  0  0  0  0  0  0  # atno 11005 bound_to 11000
  145.9878  139.2991  143.1003 LP  0  0  0  0  0  0  0  0  0  0  0  0  # atno 17320 bound_to 7965
  145.8937  140.9287  143.0538 LP  0  0  0  0  0  0  0  0  0  0  0  0  # atno 17321 bound_to 7965
  140.7820  143.4410  151.0552 LP  0  0  0  0  0  0  0  0  0  0  0  0  # atno 17342 bound_to 10162
  139.8087  143.7981  152.3169 LP  0  0  0  0  0  0  0  0  0  0  0  0  # atno 17343 bound_to 10162
  156.9871  130.5549  149.5300 LP  0  0  0  0  0  0  0  0  0  0  0  0  # atno 17370 bound_to 10713
  156.0312  130.5403  150.8539 LP  0  0  0  0  0  0  0  0  0  0  0  0  # atno 17371 bound_to 10713
  141.0463  133.6912  156.1689 LP  0  0  0  0  0  0  0  0  0  0  0  0  # atno 17394 bound_to 11000
  140.6879  134.4697  157.5589 LP  0  0  0  0  0  0  0  0  0  0  0  0  # atno 17395 bound_to 11000

$$$$
