AV-unprocessed.smi:3176|AV-procd|sdf|12126|dock6
  -GOLD-   2272017563D 1   1.00000     0.00000
 Structure written by MMmdl.
 33 34  0  0  0  0  0  0  0  0  2 V2000
  153.0395  138.6491  155.4663 O   0  0  0  0  0  0  0  0  0  0  0  0
  151.8099  138.6720  155.4074 C   0  0  0  0  0  0  0  0  0  0  0  0
  151.0795  139.7277  155.8004 N   0  0  0  0  0  0  0  0  0  0  0  0
  151.6211  140.9704  156.3360 C   0  0  0  0  0  0  0  0  0  0  0  0
  150.5251  141.8241  156.9943 C   0  0  0  0  0  0  0  0  0  0  0  0
  151.0967  142.8592  157.9431 C   0  0  0  0  0  0  0  0  0  0  0  0
  151.9595  142.5090  159.0042 C   0  0  0  0  0  0  0  0  0  0  0  0
  152.4501  143.5209  159.8558 C   0  0  0  0  0  0  0  0  0  0  0  0
  152.0677  144.8593  159.6291 C   0  0  0  0  0  0  0  0  0  0  0  0
  151.2010  145.1523  158.5563 C   0  0  0  0  0  0  0  0  0  0  0  0
  150.7512  144.1549  157.7632 N   0  3  0  0  0  0  0  0  0  0  0  0
  151.0443  137.4487  154.8858 C   0  0  2  0  0  0  0  0  0  0  0  0
  149.5247  137.6141  154.8984 C   0  0  0  0  0  0  0  0  0  0  0  0
  149.0659  136.1721  154.8984 C   0  0  0  0  0  0  0  0  0  0  0  0
  150.1271  135.4805  155.7533 C   0  0  0  0  0  0  0  0  0  0  0  0
  151.2823  136.3156  155.7185 O   0  0  0  0  0  0  0  0  0  0  0  0
  150.0752  139.6618  155.7143 H   0  0  0  0  0  0  0  0  0  0  0  0
  152.4213  140.7544  157.0460 H   0  0  0  0  0  0  0  0  0  0  0  0
  152.0767  141.5221  155.5132 H   0  0  0  0  0  0  0  0  0  0  0  0
  149.9355  142.3297  156.2286 H   0  0  0  0  0  0  0  0  0  0  0  0
  149.8308  141.1887  157.5461 H   0  0  0  0  0  0  0  0  0  0  0  0
  152.2415  141.4787  159.1665 H   0  0  0  0  0  0  0  0  0  0  0  0
  153.1111  143.2727  160.6735 H   0  0  0  0  0  0  0  0  0  0  0  0
  152.4330  145.6490  160.2696 H   0  0  0  0  0  0  0  0  0  0  0  0
  150.8566  146.1462  158.3103 H   0  0  0  0  0  0  0  0  0  0  0  0
  151.3842  137.2130  153.8761 H   0  0  0  0  0  0  0  0  0  0  0  0
  149.1906  138.1164  155.8081 H   0  0  0  0  0  0  0  0  0  0  0  0
  149.1507  138.1722  154.0395 H   0  0  0  0  0  0  0  0  0  0  0  0
  148.0555  136.0435  155.2872 H   0  0  0  0  0  0  0  0  0  0  0  0
  149.0916  135.7767  153.8819 H   0  0  0  0  0  0  0  0  0  0  0  0
  149.7943  135.3946  156.7883 H   0  0  0  0  0  0  0  0  0  0  0  0
  150.3545  134.4789  155.3875 H   0  0  0  0  0  0  0  0  0  0  0  0
  150.1242  144.3899  156.9931 H   0  0  0  0  0  0  0  0  0  0  0  0
  1  2  2  0  0  0  0
  2  3  1  0  0  0  0
  2 12  1  0  0  0  0
  3  4  1  0  0  0  0
  3 17  1  0  0  0  0
  4  5  1  0  0  0  0
  4 18  1  0  0  0  0
  4 19  1  0  0  0  0
  5  6  1  0  0  0  0
  5 20  1  0  0  0  0
  5 21  1  0  0  0  0
  6 11  1  0  0  0  0
  6  7  2  0  0  0  0
  7  8  1  0  0  0  0
  7 22  1  0  0  0  0
  8  9  2  0  0  0  0
  8 23  1  0  0  0  0
  9 10  1  0  0  0  0
  9 24  1  0  0  0  0
 10 11  2  0  0  0  0
 10 25  1  0  0  0  0
 11 33  1  0  0  0  0
 12 16  1  0  0  0  0
 12 13  1  0  0  0  0
 12 26  1  0  0  0  0
 13 14  1  0  0  0  0
 13 27  1  0  0  0  0
 13 28  1  0  0  0  0
 14 15  1  0  0  0  0
 14 29  1  0  0  0  0
 14 30  1  0  0  0  0
 15 16  1  0  0  0  0
 15 31  1  0  0  0  0
 15 32  1  0  0  0  0
M  CHG  1  11   1
M  END
> <s_m_source_file>
AV-unprocessed.smi

> <i_m_source_file_index>
3176

> <i_lp_mmshare_version>
43012

> <i_f3d_flags>
0

> <s_epik_input>
TzFbQ0gyXVtDSDJdW0NIMl1bQ0BIXTFDKD1PKVtOSF1bQ0gyXVtDSDJdYzJbY0hdW2NIXVtjSF1bY0hdbjI=

> <s_epik_cmdline>
J2VwaWtfcHl0aG9uJywgJy1waCcsICc3LjAnLCAnLXRuJywgJzgnLCAnLW1hJywgJzIwMCcsICctbWV0YWxfYmluZGluZycsICctaW1hZScsICc8aW5maWxlLm1hZT4nLCAnLW9tYWUnLCAnPG91dGZpbGUubWFlPic=

> <r_epik_Ionization_Penalty>
1.81664

> <r_epik_Ionization_Penalty_Charging>
1.81664

> <r_epik_Ionization_Penalty_Neutral>
5.71603e-08

> <r_epik_State_Penalty>
1.93152

> <r_epik_Charging_Adjusted_Penalty>
3.74817

> <i_epik_Tot_Q>
1

> <i_epik_Tot_abs_Q>
1

> <r_epik_Metal_State_Penalty>
1.95876

> <b_epik_Metal_Only>
0

> <s_lp_Force_Field>
OPLS_2005

> <r_lp_Energy>
22.4632

> <b_lp_Chiralities_Consistent>
1

> <s_lp_Variant>
AV-unprocessed.smi:3176-3

> <Gold.Version>
5.8.1

> <Gold.Id.Protein>
6NUR|6NUR_protein|mol2

> <Gold.PLP.Fitness>
46.2961

> <Gold.PLP.PLP>
-34.6907

> <Gold.PLP.part.hbond>
-3.0616

> <Gold.PLP.part.metal>
0.0000

> <Gold.PLP.part.buried>
-6.2234

> <Gold.PLP.part.nonpolar>
-26.1608

> <Gold.PLP.part.repulsive>
0.2237

> <Gold.PLP.ligand.clash>
0.0000

> <Gold.PLP.ligand.torsion>
0.2034

> <Gold.PLP.Chemscore.Hbond>
4.0000

> <Gold.PLP.Chemscore.CHOScore>
0.0000

> <Gold.PLP.Chemscore.Metal>
0.0000

> <Gold.Chemscore.Hbonds>
donor molecule, donor type, donor heavy atom, donor atom, acceptor molecule, acceptor atom, score
      L1  H    11    33       P1  8028  2.00
      P1  H  7997  8010       L1     1  0.83
      P1  H 10752 10764       L1    16  0.71

> <Gold.PLP.Chemscore.Internal.Correction>
0.0122

> <Gold.Rescore>
     Score         DG    S(hbond)    S(metal)    S(lipo)     H(rot)  DE(clash)    DE(int)     intcor
     19.38     -19.59       2.40        0.00      87.17       1.61       0.01       0.19       ----

> <Gold.Chemscore.Fitness>
19.3820

> <Gold.Chemscore.DG>
-19.5859

> <Gold.Chemscore.ZeroCoef>
-5.4800

> <Gold.Chemscore.Hbond>
2.4002

> <Gold.Chemscore.Metal>
0.0000

> <Gold.Chemscore.Lipo>
87.1699

> <Gold.Chemscore.Internal_Hbond>
0.0000

> <Gold.Chemscore.DEClash>
0.0149

> <Gold.Chemscore.DEInternal>
0.1890

> <Gold.Chemscore.Rot>
1.6054

> <Gold.Chemscore.Internal.Correction>
   9.000000E+99

> <Gold.Chemscore.Hbonds>
donor molecule, donor type, donor heavy atom, donor atom, acceptor molecule, acceptor atom, score
      L1  H    11    33       P1  8028  0.78
      P1  H  7997  8010       L1     1  0.78
      P1  H 10752 10764       L1    16  0.37

> <Gold.Chemscore.Hbond.Weighted>
-8.0167

> <Gold.Chemscore.Metal.Weighted>
-0.0000

> <Gold.Chemscore.Lipo.Weighted>
-10.1989

> <Gold.Chemscore.Internal_Hbond.Weighted>
0.0000

> <Gold.Chemscore.DEClash.Weighted>
0.0149

> <Gold.Chemscore.DEInternal.Weighted>
0.1890

> <Gold.Chemscore.Rot.Weighted>
4.1097

> <Gold.Chemscore.Internal.Correction.Weighted>
   9.000000E+99

> <Gold.Protein.RotatedTorsions>
[ 6907 6896 6895 6894 ] final   -0.44 input  -60.11 | X-H torsion
[ 7974 7965 7964 7962 ] final   13.27 input  175.53 | X-H torsion
[ 8008 7997 7996 7995 ] final   90.21 input   59.86 | X-H torsion
[ 10167 10162 10161 10158 ] final  -87.21 input  -65.29 | X-H torsion
[ 10718 10713 10712 10709 ] final   85.59 input   66.30 | X-H torsion
[ 10763 10752 10751 10750 ] final  -28.92 input  -60.55 | X-H torsion
[ 11005 11000 10999 10996 ] final  120.37 input  -57.11 | X-H torsion

> <Gold.Protein.ActiveResidues>
 VAL166  LYS551  ARG553  GLY616  TRP617  ASP618  TYR619  PRO620  LYS621  CYS622 
 ASP623  PHE694  ASN695  SER759  ASP760  ASP761  ALA762  ILE779  LEU786  VAL792 
 PHE793  MET794  SER795  GLU796  ALA797  LYS798  CYS799  TRP800  GLU811  SER814 

> <Gold.Protein.RotatedAtoms>
  151.5622  135.1065  159.9974 H   0  0  0  0  0  0  0  0  0  0  0  0  # atno 6907 bound_to 6896
  152.4441  133.7499  159.6699 H   0  0  0  0  0  0  0  0  0  0  0  0  # atno 6908 bound_to 6896
  150.8353  133.7956  159.3106 H   0  0  0  0  0  0  0  0  0  0  0  0  # atno 6909 bound_to 6896
  146.2333  139.9213  142.8510 H   0  0  0  0  0  0  0  0  0  0  0  0  # atno 7974 bound_to 7965
  156.0092  140.3352  155.6924 H   0  0  0  0  0  0  0  0  0  0  0  0  # atno 8008 bound_to 7997
  155.6181  140.0672  157.2704 H   0  0  0  0  0  0  0  0  0  0  0  0  # atno 8009 bound_to 7997
  154.4275  140.1781  156.1330 H   0  0  0  0  0  0  0  0  0  0  0  0  # atno 8010 bound_to 7997
  140.3867  143.2723  151.9316 H   0  0  0  0  0  0  0  0  0  0  0  0  # atno 10167 bound_to 10162
  157.6917  131.0181  150.2845 H   0  0  0  0  0  0  0  0  0  0  0  0  # atno 10718 bound_to 10713
  153.7562  135.6922  153.4935 H   0  0  0  0  0  0  0  0  0  0  0  0  # atno 10763 bound_to 10752
  153.1969  135.4450  155.0218 H   0  0  0  0  0  0  0  0  0  0  0  0  # atno 10764 bound_to 10752
  154.8169  135.3403  154.7080 H   0  0  0  0  0  0  0  0  0  0  0  0  # atno 10765 bound_to 10752
  139.9182  134.9634  156.7796 H   0  0  0  0  0  0  0  0  0  0  0  0  # atno 11005 bound_to 11000
  145.2134  140.9905  143.4087 LP  0  0  0  0  0  0  0  0  0  0  0  0  # atno 17320 bound_to 7965
  144.9672  139.3918  143.6327 LP  0  0  0  0  0  0  0  0  0  0  0  0  # atno 17321 bound_to 7965
  139.4791  144.5767  151.8000 LP  0  0  0  0  0  0  0  0  0  0  0  0  # atno 17342 bound_to 10162
  140.4882  144.1349  150.5945 LP  0  0  0  0  0  0  0  0  0  0  0  0  # atno 17343 bound_to 10162
  156.3386  130.3812  149.7428 LP  0  0  0  0  0  0  0  0  0  0  0  0  # atno 17370 bound_to 10713
  156.4945  130.8100  151.3108 LP  0  0  0  0  0  0  0  0  0  0  0  0  # atno 17371 bound_to 10713
  140.6555  133.9693  155.7777 LP  0  0  0  0  0  0  0  0  0  0  0  0  # atno 17394 bound_to 11000
  141.0679  134.0249  157.3568 LP  0  0  0  0  0  0  0  0  0  0  0  0  # atno 17395 bound_to 11000

$$$$
