AV-unprocessed.smi:1058|AV-procd|sdf|4652|dock2
  -GOLD-   22720 3163D 1   1.00000     0.00000
 Structure written by MMmdl.
 40 41  0  0  0  0  0  0  0  0  1 V2000
  147.9443  136.8941  156.5297 C   0  0  0  0  0  0  0  0  0  0  0  0
  147.1018  137.5176  155.4038 C   0  0  2  0  0  0  0  0  0  0  0  0
  147.2437  136.6741  154.2159 N   0  0  0  0  0  0  0  0  0  0  0  0
  146.3400  135.7734  153.7993 C   0  0  0  0  0  0  0  0  0  0  0  0
  145.2870  135.5469  154.3971 O   0  0  0  0  0  0  0  0  0  0  0  0
  146.7355  135.1739  152.6623 N   0  0  0  0  0  0  0  0  0  0  0  0
  146.0591  134.1700  151.9187 C   0  0  0  0  0  0  0  0  0  0  0  0
  144.6566  134.3258  151.8387 C   0  0  0  0  0  0  0  0  0  0  0  0
  143.8941  133.3817  151.1237 C   0  0  0  0  0  0  0  0  0  0  0  0
  144.5551  132.3056  150.5048 C   0  0  0  0  0  0  0  0  0  0  0  0
  145.9539  132.2250  150.6321 C   0  0  0  0  0  0  0  0  0  0  0  0
  146.6862  133.1281  151.3175 N   0  0  0  0  0  0  0  0  0  0  0  0
  147.6376  138.9433  155.1326 C   0  0  0  0  0  0  0  0  0  0  0  0
  146.8643  139.8947  155.2665 O   0  0  0  0  0  0  0  0  0  0  0  0
  148.9296  139.1199  154.7561 N   0  0  0  0  0  0  0  0  0  0  0  0
  149.9245  138.0536  154.5866 C   0  0  0  0  0  0  0  0  0  0  0  0
  150.7664  137.9499  155.8680 C   0  0  0  0  0  0  0  0  0  0  0  0
  151.6696  139.5380  156.1496 S   0  0  0  0  0  0  0  0  0  0  0  0
  152.1319  139.5894  157.5445 O   0  0  0  0  0  0  0  0  0  0  0  0
  152.6275  139.7108  155.0466 O   0  0  0  0  0  0  0  0  0  0  0  0
  150.3127  140.7714  155.9146 C   0  0  0  0  0  0  0  0  0  0  0  0
  149.5274  140.4554  154.6306 C   0  0  0  0  0  0  0  0  0  0  0  0
  147.8661  137.4702  157.4525 H   0  0  0  0  0  0  0  0  0  0  0  0
  149.0008  136.8388  156.2621 H   0  0  0  0  0  0  0  0  0  0  0  0
  147.6078  135.8812  156.7526 H   0  0  0  0  0  0  0  0  0  0  0  0
  146.0480  137.5227  155.6815 H   0  0  0  0  0  0  0  0  0  0  0  0
  148.0781  136.8046  153.6631 H   0  0  0  0  0  0  0  0  0  0  0  0
  147.6217  135.4718  152.2821 H   0  0  0  0  0  0  0  0  0  0  0  0
  144.1647  135.1587  152.3200 H   0  0  0  0  0  0  0  0  0  0  0  0
  142.8211  133.4822  151.0516 H   0  0  0  0  0  0  0  0  0  0  0  0
  144.0052  131.5618  149.9471 H   0  0  0  0  0  0  0  0  0  0  0  0
  146.4999  131.4146  150.1724 H   0  0  0  0  0  0  0  0  0  0  0  0
  149.4783  137.0928  154.3359 H   0  0  0  0  0  0  0  0  0  0  0  0
  150.5725  138.2801  153.7389 H   0  0  0  0  0  0  0  0  0  0  0  0
  150.1384  137.7495  156.7370 H   0  0  0  0  0  0  0  0  0  0  0  0
  151.5006  137.1476  155.7953 H   0  0  0  0  0  0  0  0  0  0  0  0
  149.6609  140.7372  156.7885 H   0  0  0  0  0  0  0  0  0  0  0  0
  150.7573  141.7656  155.8710 H   0  0  0  0  0  0  0  0  0  0  0  0
  150.1900  140.4955  153.7650 H   0  0  0  0  0  0  0  0  0  0  0  0
  148.7783  141.2284  154.4536 H   0  0  0  0  0  0  0  0  0  0  0  0
  1  2  1  0  0  0  0
  1 23  1  0  0  0  0
  1 24  1  0  0  0  0
  1 25  1  0  0  0  0
  2  3  1  0  0  0  0
  2 13  1  0  0  0  0
  2 26  1  0  0  0  0
  3  4  1  0  0  0  0
  3 27  1  0  0  0  0
  4  5  2  0  0  0  0
  4  6  1  0  0  0  0
  6  7  1  0  0  0  0
  6 28  1  0  0  0  0
  7 12  1  0  0  0  0
  7  8  2  0  0  0  0
  8  9  1  0  0  0  0
  8 29  1  0  0  0  0
  9 10  2  0  0  0  0
  9 30  1  0  0  0  0
 10 11  1  0  0  0  0
 10 31  1  0  0  0  0
 11 12  2  0  0  0  0
 11 32  1  0  0  0  0
 13 14  2  0  0  0  0
 13 15  1  0  0  0  0
 15 22  1  0  0  0  0
 15 16  1  0  0  0  0
 16 17  1  0  0  0  0
 16 33  1  0  0  0  0
 16 34  1  0  0  0  0
 17 18  1  0  0  0  0
 17 35  1  0  0  0  0
 17 36  1  0  0  0  0
 18 19  2  0  0  0  0
 18 20  2  0  0  0  0
 18 21  1  0  0  0  0
 21 22  1  0  0  0  0
 21 37  1  0  0  0  0
 21 38  1  0  0  0  0
 22 39  1  0  0  0  0
 22 40  1  0  0  0  0
M  END
> <s_m_source_file>
AV-unprocessed.smi

> <i_m_source_file_index>
1058

> <i_lp_mmshare_version>
43012

> <i_f3d_flags>
0

> <s_epik_input>
Tz1TMSg9TylbQ0gyXVtDSDJdTihbQ0gyXVtDSDJdMSlDKD1PKVtDQEhdKFtDSDNdKVtOSF1DKD1PKVtOSF1jMltjSF1bY0hdW2NIXVtjSF1uMg==

> <s_epik_cmdline>
J2VwaWtfcHl0aG9uJywgJy1waCcsICc3LjAnLCAnLXRuJywgJzgnLCAnLW1hJywgJzIwMCcsICctbWV0YWxfYmluZGluZycsICctaW1hZScsICc8aW5maWxlLm1hZT4nLCAnLW9tYWUnLCAnPG91dGZpbGUubWFlPic=

> <r_lp_tautomer_probability>
1

> <r_epik_Ionization_Penalty>
3.69864e-05

> <r_epik_Ionization_Penalty_Charging>
0

> <r_epik_Ionization_Penalty_Neutral>
3.69864e-05

> <r_epik_State_Penalty>
-0

> <r_epik_Charging_Adjusted_Penalty>
0

> <i_epik_Tot_Q>
0

> <i_epik_Tot_abs_Q>
0

> <r_epik_Metal_State_Penalty>
-0

> <b_epik_Metal_Only>
0

> <s_lp_Force_Field>
OPLS_2005

> <r_lp_Energy>
18.4379

> <b_lp_Chiralities_Consistent>
1

> <s_lp_Variant>
AV-unprocessed.smi:1058-1

> <Gold.Version>
5.8.1

> <Gold.Id.Protein>
6NUR|6NUR_protein|mol2

> <Gold.PLP.Fitness>
41.1122

> <Gold.PLP.PLP>
-29.5799

> <Gold.PLP.part.hbond>
-3.9228

> <Gold.PLP.part.metal>
0.0000

> <Gold.PLP.part.buried>
-3.8314

> <Gold.PLP.part.nonpolar>
-22.9862

> <Gold.PLP.part.repulsive>
0.3183

> <Gold.PLP.ligand.clash>
0.0000

> <Gold.PLP.ligand.torsion>
0.5862

> <Gold.PLP.Chemscore.Hbond>
3.2288

> <Gold.PLP.Chemscore.CHOScore>
0.9969

> <Gold.PLP.Chemscore.Metal>
0.0000

> <Gold.Chemscore.Hbonds>
donor molecule, donor type, donor heavy atom, donor atom, acceptor molecule, acceptor atom, score
      L1  H     3    27       P1  7948  0.74
      L1  H     6    28       P1  7948  1.00
      P1  H  7989  7998       L1    20  0.42
      P1  H  7997  8010       L1    20  0.91
      L1  C    11    32       P1 10747  1.00

> <Gold.PLP.Chemscore.Internal.Correction>
0.0277

> <Gold.Rescore>
     Score         DG    S(hbond)    S(metal)    S(lipo)     H(rot)  DE(clash)    DE(int)     intcor
     13.44     -17.85       2.83        0.00      54.79       1.36       0.00       4.41       ----

> <Gold.Chemscore.Fitness>
13.4410

> <Gold.Chemscore.DG>
-17.8497

> <Gold.Chemscore.ZeroCoef>
-5.4800

> <Gold.Chemscore.Hbond>
2.8280

> <Gold.Chemscore.Metal>
0.0000

> <Gold.Chemscore.Lipo>
54.7890

> <Gold.Chemscore.Internal_Hbond>
0.0000

> <Gold.Chemscore.DEClash>
0.0004

> <Gold.Chemscore.DEInternal>
4.4083

> <Gold.Chemscore.Rot>
1.3617

> <Gold.Chemscore.Internal.Correction>
   9.000000E+99

> <Gold.Chemscore.Hbonds>
donor molecule, donor type, donor heavy atom, donor atom, acceptor molecule, acceptor atom, score
      L1  H     3    27       P1  7948  0.71
      L1  H     6    28       P1  7948  0.96
      P1  H  7989  7998       L1    20  0.29
      P1  H  7997  8010       L1    20  0.53

> <Gold.Chemscore.Hbond.Weighted>
-9.4454

> <Gold.Chemscore.Metal.Weighted>
-0.0000

> <Gold.Chemscore.Lipo.Weighted>
-6.4103

> <Gold.Chemscore.Internal_Hbond.Weighted>
0.0000

> <Gold.Chemscore.DEClash.Weighted>
0.0004

> <Gold.Chemscore.DEInternal.Weighted>
4.4083

> <Gold.Chemscore.Rot.Weighted>
3.4861

> <Gold.Chemscore.Internal.Correction.Weighted>
   9.000000E+99

> <Gold.Protein.RotatedTorsions>
[ 6907 6896 6895 6894 ] final  144.33 input  -60.11 | X-H torsion
[ 7974 7965 7964 7962 ] final  154.57 input  175.53 | X-H torsion
[ 8008 7997 7996 7995 ] final  104.74 input   59.86 | X-H torsion
[ 10167 10162 10161 10158 ] final   46.56 input  -65.29 | X-H torsion
[ 10718 10713 10712 10709 ] final  104.11 input   66.30 | X-H torsion
[ 10763 10752 10751 10750 ] final  119.66 input  -60.55 | X-H torsion
[ 11005 11000 10999 10996 ] final  -38.52 input  -57.11 | X-H torsion

> <Gold.Protein.ActiveResidues>
 VAL166  LYS551  ARG553  GLY616  TRP617  ASP618  TYR619  PRO620  LYS621  CYS622 
 ASP623  PHE694  ASN695  SER759  ASP760  ASP761  ALA762  ILE779  LEU786  VAL792 
 PHE793  MET794  SER795  GLU796  ALA797  LYS798  CYS799  TRP800  GLU811  SER814 

> <Gold.Protein.RotatedAtoms>
  152.1950  133.4800  159.5027 H   0  0  0  0  0  0  0  0  0  0  0  0  # atno 6907 bound_to 6896
  150.6958  134.1664  159.4205 H   0  0  0  0  0  0  0  0  0  0  0  0  # atno 6908 bound_to 6896
  151.9580  135.0137  160.0596 H   0  0  0  0  0  0  0  0  0  0  0  0  # atno 6909 bound_to 6896
  144.8080  139.6951  143.6153 H   0  0  0  0  0  0  0  0  0  0  0  0  # atno 7974 bound_to 7965
  156.1599  140.3142  155.8790 H   0  0  0  0  0  0  0  0  0  0  0  0  # atno 8008 bound_to 7997
  155.3802  140.0487  157.3061 H   0  0  0  0  0  0  0  0  0  0  0  0  # atno 8009 bound_to 7997
  154.5137  140.2173  155.9118 H   0  0  0  0  0  0  0  0  0  0  0  0  # atno 8010 bound_to 7997
  140.3126  144.2801  150.6197 H   0  0  0  0  0  0  0  0  0  0  0  0  # atno 10167 bound_to 10162
  157.6751  131.0795  150.5656 H   0  0  0  0  0  0  0  0  0  0  0  0  # atno 10718 bound_to 10713
  153.5865  135.3474  155.2895 H   0  0  0  0  0  0  0  0  0  0  0  0  # atno 10763 bound_to 10752
  154.8659  135.4194  154.2563 H   0  0  0  0  0  0  0  0  0  0  0  0  # atno 10764 bound_to 10752
  153.3361  135.7047  153.6977 H   0  0  0  0  0  0  0  0  0  0  0  0  # atno 10765 bound_to 10752
  141.0034  133.6944  156.2064 H   0  0  0  0  0  0  0  0  0  0  0  0  # atno 11005 bound_to 11000
  146.2375  139.5934  142.9514 LP  0  0  0  0  0  0  0  0  0  0  0  0  # atno 17320 bound_to 7965
  145.5391  141.0422  143.2340 LP  0  0  0  0  0  0  0  0  0  0  0  0  # atno 17321 bound_to 7965
  140.5554  143.2200  151.7856 LP  0  0  0  0  0  0  0  0  0  0  0  0  # atno 17342 bound_to 10162
  139.4890  144.4420  151.9753 LP  0  0  0  0  0  0  0  0  0  0  0  0  # atno 17343 bound_to 10162
  156.5958  130.4341  149.5917 LP  0  0  0  0  0  0  0  0  0  0  0  0  # atno 17370 bound_to 10713
  156.2546  130.6927  151.1676 LP  0  0  0  0  0  0  0  0  0  0  0  0  # atno 17371 bound_to 10713
  140.6852  134.4724  157.5589 LP  0  0  0  0  0  0  0  0  0  0  0  0  # atno 17394 bound_to 11000
  139.9050  134.8469  156.1741 LP  0  0  0  0  0  0  0  0  0  0  0  0  # atno 17395 bound_to 11000

$$$$
