AV-unprocessed.smi:1207|AV-procd|sdf|5057|dock1
  -GOLD-   22720 4 93D 1   1.00000     0.00000
 Structure written by MMmdl.
 53 55  0  0  0  0  0  0  0  0  3 V2000
  152.7437  143.4537  160.8118 C   0  0  0  0  0  0  0  0  0  0  0  0
  152.3084  142.5636  159.6598 C   0  0  0  0  0  0  0  0  0  0  0  0
  151.3806  143.0760  158.7249 C   0  0  0  0  0  0  0  0  0  0  0  0
  151.0018  142.2384  157.6825 C   0  0  0  0  0  0  0  0  0  0  0  0
  150.1204  142.4412  156.6182 N   0  3  0  0  0  0  0  0  0  0  0  0
  150.0722  141.3196  155.8470 C   0  0  0  0  0  0  0  0  0  0  0  0
  150.9150  140.4052  156.4007 N   0  0  0  0  0  0  0  0  0  0  0  0
  151.2350  139.0355  155.9771 C   0  0  0  0  0  0  0  0  0  0  0  0
  150.4013  138.5702  154.7668 C   0  0  2  0  0  0  0  0  0  0  0  0
  150.7131  139.3799  153.6498 O   0  0  0  0  0  0  0  0  0  0  0  0
  148.8879  138.6711  155.0450 C   0  0  0  0  0  0  0  0  0  0  0  0
  148.0714  137.9038  154.0671 N   0  3  1  0  0  0  0  0  0  0  0  0
  147.4429  136.6998  154.6661 C   0  0  0  0  0  0  0  0  0  0  0  0
  147.0944  138.7654  153.3512 C   0  0  0  0  0  0  0  0  0  0  0  0
  146.3151  139.6408  154.2994 C   0  0  0  0  0  0  0  0  0  0  0  0
  146.4799  141.0328  154.5579 C   0  0  0  0  0  0  0  0  0  0  0  0
  147.4687  141.9908  153.9571 C   0  0  0  0  0  0  0  0  0  0  0  0
  145.6125  141.4736  155.4530 N   0  0  0  0  0  0  0  0  0  0  0  0
  144.8348  140.3687  155.8116 O   0  0  0  0  0  0  0  0  0  0  0  0
  145.2704  139.2919  155.1104 C   0  0  0  0  0  0  0  0  0  0  0  0
  144.5584  138.0035  155.3504 C   0  0  0  0  0  0  0  0  0  0  0  0
  151.5127  140.9327  157.5505 C   0  0  0  0  0  0  0  0  0  0  0  0
  152.4263  140.4111  158.4631 C   0  0  0  0  0  0  0  0  0  0  0  0
  152.8243  141.2478  159.5305 C   0  0  0  0  0  0  0  0  0  0  0  0
  153.8209  140.7075  160.5419 C   0  0  0  0  0  0  0  0  0  0  0  0
  152.2488  144.4247  160.7748 H   0  0  0  0  0  0  0  0  0  0  0  0
  153.8195  143.6268  160.7772 H   0  0  0  0  0  0  0  0  0  0  0  0
  152.4975  142.9915  161.7681 H   0  0  0  0  0  0  0  0  0  0  0  0
  150.9826  144.0760  158.8182 H   0  0  0  0  0  0  0  0  0  0  0  0
  149.4745  141.1817  154.9572 H   0  0  0  0  0  0  0  0  0  0  0  0
  152.3026  138.9852  155.7591 H   0  0  0  0  0  0  0  0  0  0  0  0
  151.0633  138.3800  156.8323 H   0  0  0  0  0  0  0  0  0  0  0  0
  150.6787  137.5448  154.5276 H   0  0  0  0  0  0  0  0  0  0  0  0
  150.0209  139.2912  153.0121 H   0  0  0  0  0  0  0  0  0  0  0  0
  148.6590  138.3222  156.0531 H   0  0  0  0  0  0  0  0  0  0  0  0
  148.6111  139.7262  155.0223 H   0  0  0  0  0  0  0  0  0  0  0  0
  146.7002  136.9804  155.4137 H   0  0  0  0  0  0  0  0  0  0  0  0
  148.1784  136.0576  155.1477 H   0  0  0  0  0  0  0  0  0  0  0  0
  146.9485  136.0923  153.9083 H   0  0  0  0  0  0  0  0  0  0  0  0
  147.6196  139.3558  152.5993 H   0  0  0  0  0  0  0  0  0  0  0  0
  146.3976  138.1349  152.7978 H   0  0  0  0  0  0  0  0  0  0  0  0
  148.4093  141.4939  153.7215 H   0  0  0  0  0  0  0  0  0  0  0  0
  147.6948  142.8120  154.6380 H   0  0  0  0  0  0  0  0  0  0  0  0
  147.0809  142.4222  153.0341 H   0  0  0  0  0  0  0  0  0  0  0  0
  145.2514  137.1629  155.3107 H   0  0  0  0  0  0  0  0  0  0  0  0
  143.7885  137.8435  154.5955 H   0  0  0  0  0  0  0  0  0  0  0  0
  144.0790  137.9973  156.3295 H   0  0  0  0  0  0  0  0  0  0  0  0
  152.8175  139.4094  158.3664 H   0  0  0  0  0  0  0  0  0  0  0  0
  154.1128  139.6831  160.3078 H   0  0  0  0  0  0  0  0  0  0  0  0
  153.3896  140.7095  161.5431 H   0  0  0  0  0  0  0  0  0  0  0  0
  154.7248  141.3172  160.5523 H   0  0  0  0  0  0  0  0  0  0  0  0
  148.7204  137.5809  153.3633 H   0  0  0  0  0  0  0  0  0  0  0  0
  149.5870  143.2809  156.4316 H   0  0  0  0  0  0  0  0  0  0  0  0
  1  2  1  0  0  0  0
  1 26  1  0  0  0  0
  1 27  1  0  0  0  0
  1 28  1  0  0  0  0
  2 24  1  0  0  0  0
  2  3  2  0  0  0  0
  3  4  1  0  0  0  0
  3 29  1  0  0  0  0
  4 22  2  0  0  0  0
  4  5  1  0  0  0  0
  5  6  2  0  0  0  0
  5 53  1  0  0  0  0
  6  7  1  0  0  0  0
  6 30  1  0  0  0  0
  7  8  1  0  0  0  0
  7 22  1  0  0  0  0
  8  9  1  0  0  0  0
  8 31  1  0  0  0  0
  8 32  1  0  0  0  0
  9 10  1  0  0  0  0
  9 11  1  0  0  0  0
  9 33  1  0  0  0  0
 10 34  1  0  0  0  0
 11 12  1  0  0  0  0
 11 35  1  0  0  0  0
 11 36  1  0  0  0  0
 12 13  1  0  0  0  0
 12 14  1  0  0  0  0
 12 52  1  0  0  0  0
 13 37  1  0  0  0  0
 13 38  1  0  0  0  0
 13 39  1  0  0  0  0
 14 15  1  0  0  0  0
 14 40  1  0  0  0  0
 14 41  1  0  0  0  0
 15 20  2  0  0  0  0
 15 16  1  0  0  0  0
 16 17  1  0  0  0  0
 16 18  2  0  0  0  0
 17 42  1  0  0  0  0
 17 43  1  0  0  0  0
 17 44  1  0  0  0  0
 18 19  1  0  0  0  0
 19 20  1  0  0  0  0
 20 21  1  0  0  0  0
 21 45  1  0  0  0  0
 21 46  1  0  0  0  0
 21 47  1  0  0  0  0
 22 23  1  0  0  0  0
 23 24  2  0  0  0  0
 23 48  1  0  0  0  0
 24 25  1  0  0  0  0
 25 49  1  0  0  0  0
 25 50  1  0  0  0  0
 25 51  1  0  0  0  0
M  CHG  1   5   1
M  CHG  1  12   1
M  END
> <s_m_source_file>
AV-unprocessed.smi

> <i_m_source_file_index>
1207

> <i_lp_mmshare_version>
43012

> <i_f3d_flags>
0

> <s_epik_input>
W0NIM11jKFtjSF0xKWMoW0NIM10pW2NIXWMoYzEyKW4oW2NIXW4yKVtDSDJdW0NASF0oW09IXSlbQ0gyXU4oW0NIM10pW0NIMl1jM2MoW0NIM10pbm9jM1tDSDNd

> <s_epik_cmdline>
J2VwaWtfcHl0aG9uJywgJy1waCcsICc3LjAnLCAnLXRuJywgJzgnLCAnLW1hJywgJzIwMCcsICctbWV0YWxfYmluZGluZycsICctaW1hZScsICc8aW5maWxlLm1hZT4nLCAnLW9tYWUnLCAnPG91dGZpbGUubWFlPic=

> <r_epik_Ionization_Penalty>
1.77463

> <r_epik_Ionization_Penalty_Charging>
1.77463

> <r_epik_Ionization_Penalty_Neutral>
3.70885e-06

> <r_epik_State_Penalty>
1.85225

> <r_epik_Charging_Adjusted_Penalty>
3.62688

> <i_epik_Tot_Q>
2

> <i_epik_Tot_abs_Q>
2

> <r_epik_Metal_State_Penalty>
1.92674

> <b_epik_Metal_Only>
0

> <s_lp_Force_Field>
OPLS_2005

> <r_lp_Energy>
17.578

> <b_lp_Chiralities_Consistent>
1

> <s_lp_Variant>
AV-unprocessed.smi:1207-9

> <Gold.Version>
5.8.1

> <Gold.Id.Protein>
6NUR|6NUR_protein|mol2

> <Gold.PLP.Fitness>
53.3109

> <Gold.PLP.PLP>
-39.1487

> <Gold.PLP.part.hbond>
-4.0000

> <Gold.PLP.part.metal>
0.0000

> <Gold.PLP.part.buried>
-2.4404

> <Gold.PLP.part.nonpolar>
-33.1831

> <Gold.PLP.part.repulsive>
0.2559

> <Gold.PLP.ligand.clash>
0.0000

> <Gold.PLP.ligand.torsion>
1.2120

> <Gold.PLP.Chemscore.Hbond>
5.4880

> <Gold.PLP.Chemscore.CHOScore>
0.0000

> <Gold.PLP.Chemscore.Metal>
0.0000

> <Gold.Chemscore.Hbonds>
donor molecule, donor type, donor heavy atom, donor atom, acceptor molecule, acceptor atom, score
      L1  H     5    53       P1  8028  2.00
      L1  H    10    34       P1  7957  0.72
      L1  H    12    52       P1  7948  1.76
      P1  H  7989  7998       L1    10  0.94

> <Gold.PLP.Chemscore.Internal.Correction>
0.1221

> <Gold.Rescore>
     Score         DG    S(hbond)    S(metal)    S(lipo)     H(rot)  DE(clash)    DE(int)     intcor
     19.48     -23.54       3.37        0.00     113.63       2.54       1.50       2.55       ----

> <Gold.Chemscore.Fitness>
19.4845

> <Gold.Chemscore.DG>
-23.5354

> <Gold.Chemscore.ZeroCoef>
-5.4800

> <Gold.Chemscore.Hbond>
3.3686

> <Gold.Chemscore.Metal>
0.0000

> <Gold.Chemscore.Lipo>
113.6257

> <Gold.Chemscore.Internal_Hbond>
0.0000

> <Gold.Chemscore.DEClash>
1.5025

> <Gold.Chemscore.DEInternal>
2.5484

> <Gold.Chemscore.Rot>
2.5351

> <Gold.Chemscore.Internal.Correction>
   9.000000E+99

> <Gold.Chemscore.Hbonds>
donor molecule, donor type, donor heavy atom, donor atom, acceptor molecule, acceptor atom, score
      L1  H     5    53       P1  8028  1.00
      L1  H    10    34       P1  7957  0.64
      L1  H    12    52       P1  7948  0.82
      P1  H  7989  7998       L1    10  0.78

> <Gold.Chemscore.Hbond.Weighted>
-11.2512

> <Gold.Chemscore.Metal.Weighted>
-0.0000

> <Gold.Chemscore.Lipo.Weighted>
-13.2942

> <Gold.Chemscore.Internal_Hbond.Weighted>
0.0000

> <Gold.Chemscore.DEClash.Weighted>
1.5025

> <Gold.Chemscore.DEInternal.Weighted>
2.5484

> <Gold.Chemscore.Rot.Weighted>
6.4900

> <Gold.Chemscore.Internal.Correction.Weighted>
   9.000000E+99

> <Gold.Protein.RotatedTorsions>
[ 6907 6896 6895 6894 ] final  -99.67 input  -60.11 | X-H torsion
[ 7974 7965 7964 7962 ] final  172.20 input  175.53 | X-H torsion
[ 8008 7997 7996 7995 ] final  103.73 input   59.86 | X-H torsion
[ 10167 10162 10161 10158 ] final  120.97 input  -65.29 | X-H torsion
[ 10718 10713 10712 10709 ] final   82.45 input   66.30 | X-H torsion
[ 10763 10752 10751 10750 ] final -108.23 input  -60.55 | X-H torsion
[ 11005 11000 10999 10996 ] final  156.43 input  -57.11 | X-H torsion

> <Gold.Protein.ActiveResidues>
 VAL166  LYS551  ARG553  GLY616  TRP617  ASP618  TYR619  PRO620  LYS621  CYS622 
 ASP623  PHE694  ASN695  SER759  ASP760  ASP761  ALA762  ILE779  LEU786  VAL792 
 PHE793  MET794  SER795  GLU796  ALA797  LYS798  CYS799  TRP800  GLU811  SER814 

> <Gold.Protein.RotatedAtoms>
  150.7088  134.1006  159.3963 H   0  0  0  0  0  0  0  0  0  0  0  0  # atno 6907 bound_to 6896
  151.8992  135.0383  160.0514 H   0  0  0  0  0  0  0  0  0  0  0  0  # atno 6908 bound_to 6896
  152.2428  133.5114  159.5317 H   0  0  0  0  0  0  0  0  0  0  0  0  # atno 6909 bound_to 6896
  144.7274  139.9463  143.6430 H   0  0  0  0  0  0  0  0  0  0  0  0  # atno 7974 bound_to 7965
  156.1510  140.3160  155.8648 H   0  0  0  0  0  0  0  0  0  0  0  0  # atno 8008 bound_to 7997
  155.3970  140.0497  157.3055 H   0  0  0  0  0  0  0  0  0  0  0  0  # atno 8009 bound_to 7997
  154.5059  140.2146  155.9264 H   0  0  0  0  0  0  0  0  0  0  0  0  # atno 8010 bound_to 7997
  139.5949  144.7038  151.3201 H   0  0  0  0  0  0  0  0  0  0  0  0  # atno 10167 bound_to 10162
  157.6857  131.0048  150.2376 H   0  0  0  0  0  0  0  0  0  0  0  0  # atno 10718 bound_to 10713
  154.8123  135.4645  154.0549 H   0  0  0  0  0  0  0  0  0  0  0  0  # atno 10763 bound_to 10752
  153.1970  135.6863  153.8286 H   0  0  0  0  0  0  0  0  0  0  0  0  # atno 10764 bound_to 10752
  153.7784  135.3260  155.3339 H   0  0  0  0  0  0  0  0  0  0  0  0  # atno 10765 bound_to 10752
  140.1674  134.8567  157.2649 H   0  0  0  0  0  0  0  0  0  0  0  0  # atno 11005 bound_to 11000
  146.0746  139.3734  143.0502 LP  0  0  0  0  0  0  0  0  0  0  0  0  # atno 17320 bound_to 7965
  145.7923  140.9809  143.1042 LP  0  0  0  0  0  0  0  0  0  0  0  0  # atno 17321 bound_to 7965
  140.7203  143.7153  150.7738 LP  0  0  0  0  0  0  0  0  0  0  0  0  # atno 17342 bound_to 10162
  140.0717  143.5055  152.2576 LP  0  0  0  0  0  0  0  0  0  0  0  0  # atno 17343 bound_to 10162
  156.2997  130.3757  149.7762 LP  0  0  0  0  0  0  0  0  0  0  0  0  # atno 17370 bound_to 10713
  156.5396  130.8294  151.3265 LP  0  0  0  0  0  0  0  0  0  0  0  0  # atno 17371 bound_to 10713
  140.2417  134.3788  155.7478 LP  0  0  0  0  0  0  0  0  0  0  0  0  # atno 17394 bound_to 11000
  141.2215  133.7269  156.8799 LP  0  0  0  0  0  0  0  0  0  0  0  0  # atno 17395 bound_to 11000

$$$$
