AV-unprocessed.smi:2789|AV-procd|sdf|10763|dock10
  -GOLD-   2272015193D 1   1.00000     0.00000
 Structure written by MMmdl.
 35 36  0  0  0  0  0  0  0  0  1 V2000
  148.9211  144.9776  160.7583 C   0  0  0  0  0  0  0  0  0  0  0  0
  149.6650  144.0325  160.0047 O   0  0  0  0  0  0  0  0  0  0  0  0
  151.0521  144.3383  159.9229 C   0  0  1  0  0  0  0  0  0  0  0  0
  151.8985  143.1604  160.4015 C   0  0  0  0  0  0  0  0  0  0  0  0
  153.2847  143.4592  159.8356 C   0  0  0  0  0  0  0  0  0  0  0  0
  153.0292  144.1246  158.4777 C   0  0  0  0  0  0  0  0  0  0  0  0
  151.5692  144.6287  158.4987 C   0  0  1  0  0  0  0  0  0  0  0  0
  150.7594  143.9402  157.4946 N   0  0  0  0  0  0  0  0  0  0  0  0
  150.8510  142.6386  157.1895 C   0  0  0  0  0  0  0  0  0  0  0  0
  151.6264  141.8646  157.7509 O   0  0  0  0  0  0  0  0  0  0  0  0
  149.9973  142.3119  156.2040 N   0  0  0  0  0  0  0  0  0  0  0  0
  149.7945  141.0997  155.6227 C   0  0  0  0  0  0  0  0  0  0  0  0
  150.5340  139.9546  155.7402 C   0  0  0  0  0  0  0  0  0  0  0  0
  149.8222  139.0419  154.9103 C   0  0  0  0  0  0  0  0  0  0  0  0
  148.7500  139.5814  154.3438 N   0  0  0  0  0  0  0  0  0  0  0  0
  148.7286  140.8588  154.7834 N   0  0  0  0  0  0  0  0  0  0  0  0
  147.6723  141.7559  154.3568 C   0  0  0  0  0  0  0  0  0  0  0  0
  147.8713  144.6855  160.7742 H   0  0  0  0  0  0  0  0  0  0  0  0
  148.9831  145.9765  160.3256 H   0  0  0  0  0  0  0  0  0  0  0  0
  149.2721  145.0222  161.7898 H   0  0  0  0  0  0  0  0  0  0  0  0
  151.2806  145.1895  160.5679 H   0  0  0  0  0  0  0  0  0  0  0  0
  151.9001  143.0561  161.4868 H   0  0  0  0  0  0  0  0  0  0  0  0
  151.5198  142.2305  159.9747 H   0  0  0  0  0  0  0  0  0  0  0  0
  153.8026  144.1585  160.4933 H   0  0  0  0  0  0  0  0  0  0  0  0
  153.9032  142.5651  159.7538 H   0  0  0  0  0  0  0  0  0  0  0  0
  153.7292  144.9441  158.3113 H   0  0  0  0  0  0  0  0  0  0  0  0
  153.1899  143.4044  157.6738 H   0  0  0  0  0  0  0  0  0  0  0  0
  151.5280  145.7036  158.3131 H   0  0  0  0  0  0  0  0  0  0  0  0
  150.0983  144.5065  156.9830 H   0  0  0  0  0  0  0  0  0  0  0  0
  149.4351  143.0650  155.8360 H   0  0  0  0  0  0  0  0  0  0  0  0
  151.4304  139.7775  156.3152 H   0  0  0  0  0  0  0  0  0  0  0  0
  150.0503  138.0067  154.7043 H   0  0  0  0  0  0  0  0  0  0  0  0
  147.0813  142.0616  155.2203 H   0  0  0  0  0  0  0  0  0  0  0  0
  147.0178  141.2644  153.6356 H   0  0  0  0  0  0  0  0  0  0  0  0
  148.1082  142.6403  153.8915 H   0  0  0  0  0  0  0  0  0  0  0  0
  1  2  1  0  0  0  0
  1 18  1  0  0  0  0
  1 19  1  0  0  0  0
  1 20  1  0  0  0  0
  2  3  1  0  0  0  0
  3  7  1  0  0  0  0
  3  4  1  0  0  0  0
  3 21  1  0  0  0  0
  4  5  1  0  0  0  0
  4 22  1  0  0  0  0
  4 23  1  0  0  0  0
  5  6  1  0  0  0  0
  5 24  1  0  0  0  0
  5 25  1  0  0  0  0
  6  7  1  0  0  0  0
  6 26  1  0  0  0  0
  6 27  1  0  0  0  0
  7  8  1  0  0  0  0
  7 28  1  0  0  0  0
  8  9  1  0  0  0  0
  8 29  1  0  0  0  0
  9 10  2  0  0  0  0
  9 11  1  0  0  0  0
 11 12  1  0  0  0  0
 11 30  1  0  0  0  0
 12 16  1  0  0  0  0
 12 13  2  0  0  0  0
 13 14  1  0  0  0  0
 13 31  1  0  0  0  0
 14 15  2  0  0  0  0
 14 32  1  0  0  0  0
 15 16  1  0  0  0  0
 16 17  1  0  0  0  0
 17 33  1  0  0  0  0
 17 34  1  0  0  0  0
 17 35  1  0  0  0  0
M  END
> <s_m_source_file>
AV-unprocessed.smi

> <i_m_source_file_index>
2789

> <i_lp_mmshare_version>
43012

> <i_f3d_flags>
0

> <s_epik_input>
W0NIM11PW0NAQEhdMVtDSDJdW0NIMl1bQ0gyXVtDQEhdMVtOSF1DKD1PKVtOSF1jMltjSF1bY0hdbm4yW0NIM10=

> <s_epik_cmdline>
J2VwaWtfcHl0aG9uJywgJy1waCcsICc3LjAnLCAnLXRuJywgJzgnLCAnLW1hJywgJzIwMCcsICctbWV0YWxfYmluZGluZycsICctaW1hZScsICc8aW5maWxlLm1hZT4nLCAnLW9tYWUnLCAnPG91dGZpbGUubWFlPic=

> <r_lp_tautomer_probability>
1

> <r_epik_Ionization_Penalty>
4.40608e-05

> <r_epik_Ionization_Penalty_Charging>
0

> <r_epik_Ionization_Penalty_Neutral>
4.40608e-05

> <r_epik_State_Penalty>
-0

> <r_epik_Charging_Adjusted_Penalty>
0

> <i_epik_Tot_Q>
0

> <i_epik_Tot_abs_Q>
0

> <r_epik_Metal_State_Penalty>
-0

> <b_epik_Metal_Only>
0

> <s_lp_Force_Field>
OPLS_2005

> <r_lp_Energy>
22.0425

> <b_lp_Chiralities_Consistent>
1

> <s_lp_Variant>
AV-unprocessed.smi:2789-2

> <Gold.Version>
5.8.1

> <Gold.Id.Protein>
6NUR|6NUR_protein|mol2

> <Gold.PLP.Fitness>
44.1318

> <Gold.PLP.PLP>
-40.2101

> <Gold.PLP.part.hbond>
-2.6449

> <Gold.PLP.part.metal>
0.0000

> <Gold.PLP.part.buried>
-5.5342

> <Gold.PLP.part.nonpolar>
-32.0118

> <Gold.PLP.part.repulsive>
1.2638

> <Gold.PLP.ligand.clash>
0.0000

> <Gold.PLP.ligand.torsion>
1.0425

> <Gold.PLP.Chemscore.Hbond>
2.0000

> <Gold.PLP.Chemscore.CHOScore>
0.0000

> <Gold.PLP.Chemscore.Metal>
0.0000

> <Gold.Chemscore.Hbonds>
donor molecule, donor type, donor heavy atom, donor atom, acceptor molecule, acceptor atom, score
      L1  H     8    29       P1  8028  1.00
      L1  H    11    30       P1  8028  1.00

> <Gold.PLP.Chemscore.Internal.Correction>
0.0067

> <Gold.Rescore>
     Score         DG    S(hbond)    S(metal)    S(lipo)     H(rot)  DE(clash)    DE(int)     intcor
     13.80     -18.58       1.83        0.00      87.50       1.27       0.13       4.64       ----

> <Gold.Chemscore.Fitness>
13.8022

> <Gold.Chemscore.DG>
-18.5796

> <Gold.Chemscore.ZeroCoef>
-5.4800

> <Gold.Chemscore.Hbond>
1.8311

> <Gold.Chemscore.Metal>
0.0000

> <Gold.Chemscore.Lipo>
87.5039

> <Gold.Chemscore.Internal_Hbond>
0.0000

> <Gold.Chemscore.DEClash>
0.1346

> <Gold.Chemscore.DEInternal>
4.6427

> <Gold.Chemscore.Rot>
1.2712

> <Gold.Chemscore.Internal.Correction>
   9.000000E+99

> <Gold.Chemscore.Hbonds>
donor molecule, donor type, donor heavy atom, donor atom, acceptor molecule, acceptor atom, score
      L1  H     8    29       P1  8028  0.63
      L1  H    11    30       P1  8028  0.99

> <Gold.Chemscore.Hbond.Weighted>
-6.1160

> <Gold.Chemscore.Metal.Weighted>
-0.0000

> <Gold.Chemscore.Lipo.Weighted>
-10.2380

> <Gold.Chemscore.Internal_Hbond.Weighted>
0.0000

> <Gold.Chemscore.DEClash.Weighted>
0.1346

> <Gold.Chemscore.DEInternal.Weighted>
4.6427

> <Gold.Chemscore.Rot.Weighted>
3.2544

> <Gold.Chemscore.Internal.Correction.Weighted>
   9.000000E+99

> <Gold.Protein.RotatedTorsions>
[ 6907 6896 6895 6894 ] final -121.47 input  -60.11 | X-H torsion
[ 7974 7965 7964 7962 ] final  141.58 input  175.53 | X-H torsion
[ 8008 7997 7996 7995 ] final -141.84 input   59.86 | X-H torsion
[ 10167 10162 10161 10158 ] final  173.55 input  -65.29 | X-H torsion
[ 10718 10713 10712 10709 ] final -105.01 input   66.30 | X-H torsion
[ 10763 10752 10751 10750 ] final -101.73 input  -60.55 | X-H torsion
[ 11005 11000 10999 10996 ] final  132.50 input  -57.11 | X-H torsion

> <Gold.Protein.ActiveResidues>
 VAL166  LYS551  ARG553  GLY616  TRP617  ASP618  TYR619  PRO620  LYS621  CYS622 
 ASP623  PHE694  ASN695  SER759  ASP760  ASP761  ALA762  ILE779  LEU786  VAL792 
 PHE793  MET794  SER795  GLU796  ALA797  LYS798  CYS799  TRP800  GLU811  SER814 

> <Gold.Protein.RotatedAtoms>
  150.8486  133.7822  159.3033 H   0  0  0  0  0  0  0  0  0  0  0  0  # atno 6907 bound_to 6896
  151.5501  135.1066  159.9957 H   0  0  0  0  0  0  0  0  0  0  0  0  # atno 6908 bound_to 6896
  152.4534  133.7631  159.6814 H   0  0  0  0  0  0  0  0  0  0  0  0  # atno 6909 bound_to 6896
  144.9084  139.5327  143.5720 H   0  0  0  0  0  0  0  0  0  0  0  0  # atno 7974 bound_to 7965
  155.4843  140.0563  157.2963 H   0  0  0  0  0  0  0  0  0  0  0  0  # atno 8008 bound_to 7997
  154.4648  140.2013  156.0100 H   0  0  0  0  0  0  0  0  0  0  0  0  # atno 8009 bound_to 7997
  156.0954  140.3227  155.7875 H   0  0  0  0  0  0  0  0  0  0  0  0  # atno 8010 bound_to 7997
  139.5112  144.3248  152.0168 H   0  0  0  0  0  0  0  0  0  0  0  0  # atno 10167 bound_to 10162
  156.0328  130.5543  150.7478 H   0  0  0  0  0  0  0  0  0  0  0  0  # atno 10718 bound_to 10713
  154.7680  135.4887  153.9593 H   0  0  0  0  0  0  0  0  0  0  0  0  # atno 10763 bound_to 10752
  153.1332  135.6757  153.9152 H   0  0  0  0  0  0  0  0  0  0  0  0  # atno 10764 bound_to 10752
  153.8849  135.3128  155.3425 H   0  0  0  0  0  0  0  0  0  0  0  0  # atno 10765 bound_to 10752
  139.9794  134.9553  156.9591 H   0  0  0  0  0  0  0  0  0  0  0  0  # atno 11005 bound_to 11000
  146.3145  139.7870  142.8994 LP  0  0  0  0  0  0  0  0  0  0  0  0  # atno 17320 bound_to 7965
  145.3496  141.0305  143.3346 LP  0  0  0  0  0  0  0  0  0  0  0  0  # atno 17321 bound_to 7965
  140.2689  144.3985  150.6158 LP  0  0  0  0  0  0  0  0  0  0  0  0  # atno 17342 bound_to 10162
  140.6103  143.2169  151.6900 LP  0  0  0  0  0  0  0  0  0  0  0  0  # atno 17343 bound_to 10162
  157.5030  131.0920  151.0291 LP  0  0  0  0  0  0  0  0  0  0  0  0  # atno 17370 bound_to 10713
  157.0666  130.5847  149.5395 LP  0  0  0  0  0  0  0  0  0  0  0  0  # atno 17371 bound_to 10713
  140.5128  134.0985  155.7274 LP  0  0  0  0  0  0  0  0  0  0  0  0  # atno 17394 bound_to 11000
  141.1468  133.9041  157.2196 LP  0  0  0  0  0  0  0  0  0  0  0  0  # atno 17395 bound_to 11000

$$$$
