AV-unprocessed.smi:507|AV-procd|sdf|2754|dock2
  -GOLD-   2262023223D 1   1.00000     0.00000
 Structure written by MMmdl.
 35 36  0  0  0  0  0  0  0  0  3 V2000
  152.2128  144.6303  160.4149 C   0  0  0  0  0  0  0  0  0  0  0  0
  152.0286  143.4613  159.4624 C   0  0  0  0  0  0  0  0  0  0  0  0
  151.2307  143.6486  158.3110 C   0  0  0  0  0  0  0  0  0  0  0  0
  151.0839  142.5617  157.4574 C   0  0  0  0  0  0  0  0  0  0  0  0
  150.3750  142.4253  156.2619 N   0  3  0  0  0  0  0  0  0  0  0  0
  150.5325  141.1608  155.7814 C   0  0  0  0  0  0  0  0  0  0  0  0
  151.3337  140.4879  156.6522 N   0  0  0  0  0  0  0  0  0  0  0  0
  151.8237  139.1034  156.6117 C   0  0  0  0  0  0  0  0  0  0  0  0
  152.2348  138.6570  155.1940 C   0  0  2  0  0  0  0  0  0  0  0  0
  153.1801  139.5733  154.6750 O   0  0  0  0  0  0  0  0  0  0  0  0
  151.0326  138.5834  154.2373 C   0  0  0  0  0  0  0  0  0  0  0  0
  150.6088  137.1910  154.0065 N   0  3  0  0  0  0  0  0  0  0  0  0
  151.6984  141.3213  157.7153 C   0  0  0  0  0  0  0  0  0  0  0  0
  152.4860  141.1185  158.8459 C   0  0  0  0  0  0  0  0  0  0  0  0
  152.6470  142.2117  159.7272 C   0  0  0  0  0  0  0  0  0  0  0  0
  153.4992  142.0208  160.9704 C   0  0  0  0  0  0  0  0  0  0  0  0
  151.6696  145.5121  160.0738 H   0  0  0  0  0  0  0  0  0  0  0  0
  153.2667  144.8983  160.4925 H   0  0  0  0  0  0  0  0  0  0  0  0
  151.8450  144.3768  161.4094 H   0  0  0  0  0  0  0  0  0  0  0  0
  150.7564  144.5970  158.1040 H   0  0  0  0  0  0  0  0  0  0  0  0
  150.1029  140.7655  154.8719 H   0  0  0  0  0  0  0  0  0  0  0  0
  152.6577  139.0136  157.3091 H   0  0  0  0  0  0  0  0  0  0  0  0
  151.0292  138.4629  156.9980 H   0  0  0  0  0  0  0  0  0  0  0  0
  152.7084  137.6760  155.2518 H   0  0  0  0  0  0  0  0  0  0  0  0
  153.7887  139.1033  154.1250 H   0  0  0  0  0  0  0  0  0  0  0  0
  150.1845  139.1217  154.6621 H   0  0  0  0  0  0  0  0  0  0  0  0
  151.2635  139.0565  153.2819 H   0  0  0  0  0  0  0  0  0  0  0  0
  150.5529  136.7018  154.8883 H   0  0  0  0  0  0  0  0  0  0  0  0
  151.2776  136.7292  153.4069 H   0  0  0  0  0  0  0  0  0  0  0  0
  152.9570  140.1680  159.0475 H   0  0  0  0  0  0  0  0  0  0  0  0
  153.9057  141.0105  161.0251 H   0  0  0  0  0  0  0  0  0  0  0  0
  152.9072  142.1901  161.8702 H   0  0  0  0  0  0  0  0  0  0  0  0
  154.3381  142.7171  160.9714 H   0  0  0  0  0  0  0  0  0  0  0  0
  149.7022  137.1869  153.5606 H   0  0  0  0  0  0  0  0  0  0  0  0
  149.8238  143.1412  155.8055 H   0  0  0  0  0  0  0  0  0  0  0  0
  1  2  1  0  0  0  0
  1 17  1  0  0  0  0
  1 18  1  0  0  0  0
  1 19  1  0  0  0  0
  2 15  1  0  0  0  0
  2  3  2  0  0  0  0
  3  4  1  0  0  0  0
  3 20  1  0  0  0  0
  4 13  2  0  0  0  0
  4  5  1  0  0  0  0
  5  6  2  0  0  0  0
  5 35  1  0  0  0  0
  6  7  1  0  0  0  0
  6 21  1  0  0  0  0
  7  8  1  0  0  0  0
  7 13  1  0  0  0  0
  8  9  1  0  0  0  0
  8 22  1  0  0  0  0
  8 23  1  0  0  0  0
  9 10  1  0  0  0  0
  9 11  1  0  0  0  0
  9 24  1  0  0  0  0
 10 25  1  0  0  0  0
 11 12  1  0  0  0  0
 11 26  1  0  0  0  0
 11 27  1  0  0  0  0
 12 28  1  0  0  0  0
 12 29  1  0  0  0  0
 12 34  1  0  0  0  0
 13 14  1  0  0  0  0
 14 15  2  0  0  0  0
 14 30  1  0  0  0  0
 15 16  1  0  0  0  0
 16 31  1  0  0  0  0
 16 32  1  0  0  0  0
 16 33  1  0  0  0  0
M  CHG  1   5   1
M  CHG  1  12   1
M  END
> <s_m_source_file>
AV-unprocessed.smi

> <i_m_source_file_index>
507

> <i_lp_mmshare_version>
43012

> <i_f3d_flags>
0

> <s_epik_input>
W0NIM11jKFtjSF0xKWMoW0NIM10pW2NIXWMoYzEyKW4oW2NIXW4yKVtDSDJdW0NASF0oW09IXSlbQ0gyXVtOSDJd

> <s_epik_cmdline>
J2VwaWtfcHl0aG9uJywgJy1waCcsICc3LjAnLCAnLXRuJywgJzgnLCAnLW1hJywgJzIwMCcsICctbWV0YWxfYmluZGluZycsICctaW1hZScsICc8aW5maWxlLm1hZT4nLCAnLW9tYWUnLCAnPG91dGZpbGUubWFlPic=

> <r_epik_Ionization_Penalty>
1.17892

> <r_epik_Ionization_Penalty_Charging>
1.17892

> <r_epik_Ionization_Penalty_Neutral>
1.79057e-06

> <r_epik_State_Penalty>
1.21155

> <r_epik_Charging_Adjusted_Penalty>
2.39047

> <i_epik_Tot_Q>
2

> <i_epik_Tot_abs_Q>
2

> <r_epik_Metal_State_Penalty>
5.22091

> <b_epik_Metal_Only>
0

> <s_lp_Force_Field>
OPLS_2005

> <r_lp_Energy>
17.3712

> <b_lp_Chiralities_Consistent>
1

> <s_lp_Variant>
AV-unprocessed.smi:507-3

> <Gold.Version>
5.8.1

> <Gold.Id.Protein>
6NUR|6NUR_protein|mol2

> <Gold.PLP.Fitness>
56.5400

> <Gold.PLP.PLP>
-41.3119

> <Gold.PLP.part.hbond>
-5.0000

> <Gold.PLP.part.metal>
0.0000

> <Gold.PLP.part.buried>
-4.7001

> <Gold.PLP.part.nonpolar>
-31.9740

> <Gold.PLP.part.repulsive>
0.1781

> <Gold.PLP.ligand.clash>
0.0000

> <Gold.PLP.ligand.torsion>
0.9200

> <Gold.PLP.Chemscore.Hbond>
5.6875

> <Gold.PLP.Chemscore.CHOScore>
0.0000

> <Gold.PLP.Chemscore.Metal>
0.0000

> <Gold.Chemscore.Hbonds>
donor molecule, donor type, donor heavy atom, donor atom, acceptor molecule, acceptor atom, score
      L1  H     5    35       P1  8028  2.00
      L1  H    12    29       P1  7949  1.27
      L1  H    12    34       P1  7948  1.21
      P1  H  7989  7998       L1    10  0.09
      P1  H  7997  8010       L1    10  0.95

> <Gold.PLP.Chemscore.Internal.Correction>
0.0056

> <Gold.Rescore>
     Score         DG    S(hbond)    S(metal)    S(lipo)     H(rot)  DE(clash)    DE(int)     intcor
     17.03     -17.98       2.16        0.00      96.06       2.32       0.03       0.92       ----

> <Gold.Chemscore.Fitness>
17.0304

> <Gold.Chemscore.DG>
-17.9847

> <Gold.Chemscore.ZeroCoef>
-5.4800

> <Gold.Chemscore.Hbond>
2.1554

> <Gold.Chemscore.Metal>
0.0000

> <Gold.Chemscore.Lipo>
96.0644

> <Gold.Chemscore.Internal_Hbond>
0.0000

> <Gold.Chemscore.DEClash>
0.0300

> <Gold.Chemscore.DEInternal>
0.9243

> <Gold.Chemscore.Rot>
2.3180

> <Gold.Chemscore.Internal.Correction>
   9.000000E+99

> <Gold.Chemscore.Hbonds>
donor molecule, donor type, donor heavy atom, donor atom, acceptor molecule, acceptor atom, score
      L1  H     5    35       P1  8028  0.99
      L1  H    12    29       P1  7949  0.39
      L1  H    12    34       P1  7948  0.43
      P1  H  7989  7998       L1    10  0.01
      P1  H  7997  8010       L1    10  0.16

> <Gold.Chemscore.Hbond.Weighted>
-7.1992

> <Gold.Chemscore.Metal.Weighted>
-0.0000

> <Gold.Chemscore.Lipo.Weighted>
-11.2395

> <Gold.Chemscore.Internal_Hbond.Weighted>
0.0000

> <Gold.Chemscore.DEClash.Weighted>
0.0300

> <Gold.Chemscore.DEInternal.Weighted>
0.9243

> <Gold.Chemscore.Rot.Weighted>
5.9340

> <Gold.Chemscore.Internal.Correction.Weighted>
   9.000000E+99

> <Gold.Protein.RotatedTorsions>
[ 6907 6896 6895 6894 ] final  -50.17 input  -60.11 | X-H torsion
[ 7974 7965 7964 7962 ] final  -64.56 input  175.53 | X-H torsion
[ 8008 7997 7996 7995 ] final   92.61 input   59.86 | X-H torsion
[ 10167 10162 10161 10158 ] final   90.32 input  -65.29 | X-H torsion
[ 10718 10713 10712 10709 ] final   94.07 input   66.30 | X-H torsion
[ 10763 10752 10751 10750 ] final -119.67 input  -60.55 | X-H torsion
[ 11005 11000 10999 10996 ] final -124.29 input  -57.11 | X-H torsion

> <Gold.Protein.ActiveResidues>
 VAL166  LYS551  ARG553  GLY616  TRP617  ASP618  TYR619  PRO620  LYS621  CYS622 
 ASP623  PHE694  ASN695  SER759  ASP760  ASP761  ALA762  ILE779  LEU786  VAL792 
 PHE793  MET794  SER795  GLU796  ALA797  LYS798  CYS799  TRP800  GLU811  SER814 

> <Gold.Protein.RotatedAtoms>
  150.8733  134.8111  159.7170 H   0  0  0  0  0  0  0  0  0  0  0  0  # atno 6907 bound_to 6896
  152.4729  134.4912  159.9705 H   0  0  0  0  0  0  0  0  0  0  0  0  # atno 6908 bound_to 6896
  151.4997  133.3468  159.2902 H   0  0  0  0  0  0  0  0  0  0  0  0  # atno 6909 bound_to 6896
  145.7652  140.8841  143.0409 H   0  0  0  0  0  0  0  0  0  0  0  0  # atno 7974 bound_to 7965
  156.0373  140.3323  155.7205 H   0  0  0  0  0  0  0  0  0  0  0  0  # atno 8008 bound_to 7997
  155.5796  140.0635  157.2804 H   0  0  0  0  0  0  0  0  0  0  0  0  # atno 8009 bound_to 7997
  154.4378  140.1846  156.0951 H   0  0  0  0  0  0  0  0  0  0  0  0  # atno 8010 bound_to 7997
  139.8485  144.6605  150.9197 H   0  0  0  0  0  0  0  0  0  0  0  0  # atno 10167 bound_to 10162
  157.6950  131.0500  150.4130 H   0  0  0  0  0  0  0  0  0  0  0  0  # atno 10718 bound_to 10713
  154.8624  135.4230  154.2337 H   0  0  0  0  0  0  0  0  0  0  0  0  # atno 10763 bound_to 10752
  153.3316  135.6988  153.6948 H   0  0  0  0  0  0  0  0  0  0  0  0  # atno 10764 bound_to 10752
  153.5962  135.3545  155.2902 H   0  0  0  0  0  0  0  0  0  0  0  0  # atno 10765 bound_to 10752
  140.9853  134.0616  157.3718 H   0  0  0  0  0  0  0  0  0  0  0  0  # atno 11005 bound_to 11000
  144.6823  139.9778  143.7483 LP  0  0  0  0  0  0  0  0  0  0  0  0  # atno 17320 bound_to 7965
  146.0225  139.3263  143.0804 LP  0  0  0  0  0  0  0  0  0  0  0  0  # atno 17321 bound_to 7965
  140.7790  143.3848  151.1413 LP  0  0  0  0  0  0  0  0  0  0  0  0  # atno 17342 bound_to 10162
  139.7488  143.8810  152.3071 LP  0  0  0  0  0  0  0  0  0  0  0  0  # atno 17343 bound_to 10162
  156.4512  130.4012  149.6634 LP  0  0  0  0  0  0  0  0  0  0  0  0  # atno 17370 bound_to 10713
  156.3783  130.7566  151.2556 LP  0  0  0  0  0  0  0  0  0  0  0  0  # atno 17371 bound_to 10713
  139.8968  135.0147  156.7068 LP  0  0  0  0  0  0  0  0  0  0  0  0  # atno 17394 bound_to 11000
  140.7124  133.9212  155.8093 LP  0  0  0  0  0  0  0  0  0  0  0  0  # atno 17395 bound_to 11000

$$$$
