AV-unprocessed.smi:3202|AV-procd|sdf|12244|dock4
  -GOLD-   2272018 73D 1   1.00000     0.00000
 Structure written by MMmdl.
 43 44  0  0  0  0  0  0  0  0  2 V2000
  144.1599  132.5395  150.4391 C   0  0  0  0  0  0  0  0  0  0  0  0
  144.4530  133.9408  150.8549 C   0  0  0  0  0  0  0  0  0  0  0  0
  144.0115  134.6811  151.9150 C   0  0  0  0  0  0  0  0  0  0  0  0
  144.6547  135.9436  151.7563 C   0  0  0  0  0  0  0  0  0  0  0  0
  144.5435  137.1535  152.6445 C   0  0  0  0  0  0  0  0  0  0  0  0
  145.8844  137.8848  152.8613 C   0  0  1  0  0  0  0  0  0  0  0  0
  146.5065  138.4210  151.5610 C   0  0  0  0  0  0  0  0  0  0  0  0
  145.6838  139.0056  153.8068 N   0  3  0  0  0  0  0  0  0  0  0  0
  146.9174  139.6796  154.2724 C   0  0  1  0  0  0  0  0  0  0  0  0
  147.4776  140.6925  153.2636 C   0  0  0  0  0  0  0  0  0  0  0  0
  148.2797  141.6988  154.0991 C   0  0  0  0  0  0  0  0  0  0  0  0
  147.9786  141.3770  155.5709 C   0  0  0  0  0  0  0  0  0  0  0  0
  146.7252  140.4827  155.5767 C   0  0  0  0  0  0  0  0  0  0  0  0
  145.4540  141.3635  155.5579 C   0  0  0  0  0  0  0  0  0  0  0  0
  146.6997  139.5678  156.8156 C   0  0  0  0  0  0  0  0  0  0  0  0
  145.4327  135.9823  150.6836 N   0  0  0  0  0  0  0  0  0  0  0  0
  145.3016  134.7568  150.1431 N   0  0  0  0  0  0  0  0  0  0  0  0
  145.7899  134.4942  149.2981 H   0  0  0  0  0  0  0  0  0  0  0  0
  143.4196  132.0842  151.0975 H   0  0  0  0  0  0  0  0  0  0  0  0
  145.0622  131.9286  150.4737 H   0  0  0  0  0  0  0  0  0  0  0  0
  143.7686  132.5103  149.4219 H   0  0  0  0  0  0  0  0  0  0  0  0
  143.3293  134.3668  152.6910 H   0  0  0  0  0  0  0  0  0  0  0  0
  143.8108  137.8487  152.2311 H   0  0  0  0  0  0  0  0  0  0  0  0
  144.1433  136.8475  153.6122 H   0  0  0  0  0  0  0  0  0  0  0  0
  146.5857  137.1694  153.2938 H   0  0  0  0  0  0  0  0  0  0  0  0
  146.7626  137.6137  150.8749 H   0  0  0  0  0  0  0  0  0  0  0  0
  147.4270  138.9692  151.7638 H   0  0  0  0  0  0  0  0  0  0  0  0
  145.8247  139.0964  151.0429 H   0  0  0  0  0  0  0  0  0  0  0  0
  145.0842  139.6936  153.3742 H   0  0  0  0  0  0  0  0  0  0  0  0
  147.6773  138.9158  154.4501 H   0  0  0  0  0  0  0  0  0  0  0  0
  148.0906  140.2153  152.4984 H   0  0  0  0  0  0  0  0  0  0  0  0
  146.6664  141.2126  152.7521 H   0  0  0  0  0  0  0  0  0  0  0  0
  149.3489  141.6223  153.8988 H   0  0  0  0  0  0  0  0  0  0  0  0
  147.9757  142.7172  153.8546 H   0  0  0  0  0  0  0  0  0  0  0  0
  148.8267  140.8302  155.9860 H   0  0  0  0  0  0  0  0  0  0  0  0
  147.8599  142.2779  156.1746 H   0  0  0  0  0  0  0  0  0  0  0  0
  145.4049  141.9960  156.4450 H   0  0  0  0  0  0  0  0  0  0  0  0
  144.5453  140.7610  155.5458 H   0  0  0  0  0  0  0  0  0  0  0  0
  145.4232  142.0231  154.6904 H   0  0  0  0  0  0  0  0  0  0  0  0
  146.6500  140.1528  157.7348 H   0  0  0  0  0  0  0  0  0  0  0  0
  147.5915  138.9427  156.8741 H   0  0  0  0  0  0  0  0  0  0  0  0
  145.8347  138.9041  156.8008 H   0  0  0  0  0  0  0  0  0  0  0  0
  145.2085  138.6383  154.6187 H   0  0  0  0  0  0  0  0  0  0  0  0
  1  2  1  0  0  0  0
  1 19  1  0  0  0  0
  1 20  1  0  0  0  0
  1 21  1  0  0  0  0
  2 17  1  0  0  0  0
  2  3  2  0  0  0  0
  3  4  1  0  0  0  0
  3 22  1  0  0  0  0
  4  5  1  0  0  0  0
  4 16  2  0  0  0  0
  5  6  1  0  0  0  0
  5 23  1  0  0  0  0
  5 24  1  0  0  0  0
  6  7  1  0  0  0  0
  6  8  1  0  0  0  0
  6 25  1  0  0  0  0
  7 26  1  0  0  0  0
  7 27  1  0  0  0  0
  7 28  1  0  0  0  0
  8  9  1  0  0  0  0
  8 29  1  0  0  0  0
  8 43  1  0  0  0  0
  9 13  1  0  0  0  0
  9 10  1  0  0  0  0
  9 30  1  0  0  0  0
 10 11  1  0  0  0  0
 10 31  1  0  0  0  0
 10 32  1  0  0  0  0
 11 12  1  0  0  0  0
 11 33  1  0  0  0  0
 11 34  1  0  0  0  0
 12 13  1  0  0  0  0
 12 35  1  0  0  0  0
 12 36  1  0  0  0  0
 13 14  1  0  0  0  0
 13 15  1  0  0  0  0
 14 37  1  0  0  0  0
 14 38  1  0  0  0  0
 14 39  1  0  0  0  0
 15 40  1  0  0  0  0
 15 41  1  0  0  0  0
 15 42  1  0  0  0  0
 16 17  1  0  0  0  0
 17 18  1  0  0  0  0
M  CHG  1   8   1
M  END
> <s_m_source_file>
AV-unprocessed.smi

> <i_m_source_file_index>
3202

> <i_lp_mmshare_version>
43012

> <i_f3d_flags>
0

> <s_epik_input>
W0NIM11jMVtjSF1jKG5bbkhdMSlbQ0gyXVtDQEhdKFtDSDNdKVtOSF1bQ0BASF0oQzIoW0NIM10pW0NIM10pW0NIMl1bQ0gyXVtDSDJdMg==

> <s_epik_cmdline>
J2VwaWtfcHl0aG9uJywgJy1waCcsICc3LjAnLCAnLXRuJywgJzgnLCAnLW1hJywgJzIwMCcsICctbWV0YWxfYmluZGluZycsICctaW1hZScsICc8aW5maWxlLm1hZT4nLCAnLW9tYWUnLCAnPG91dGZpbGUubWFlPic=

> <r_lp_tautomer_probability>
0.5

> <r_epik_Ionization_Penalty>
0.000341671

> <r_epik_Ionization_Penalty_Charging>
0.000281809

> <r_epik_Ionization_Penalty_Neutral>
5.9862e-05

> <r_epik_State_Penalty>
0.41068

> <r_epik_Charging_Adjusted_Penalty>
0.410962

> <i_epik_Tot_Q>
1

> <i_epik_Tot_abs_Q>
1

> <r_epik_Metal_State_Penalty>
0.410672

> <b_epik_Metal_Only>
0

> <s_lp_Force_Field>
OPLS_2005

> <r_lp_Energy>
30.3083

> <b_lp_Chiralities_Consistent>
1

> <s_lp_Variant>
AV-unprocessed.smi:3202-4

> <Gold.Version>
5.8.1

> <Gold.Id.Protein>
6NUR|6NUR_protein|mol2

> <Gold.PLP.Fitness>
36.4325

> <Gold.PLP.PLP>
-28.3886

> <Gold.PLP.part.hbond>
-2.0000

> <Gold.PLP.part.metal>
0.0000

> <Gold.PLP.part.buried>
-1.7464

> <Gold.PLP.part.nonpolar>
-24.8861

> <Gold.PLP.part.repulsive>
0.4625

> <Gold.PLP.ligand.clash>
0.0000

> <Gold.PLP.ligand.torsion>
0.4893

> <Gold.PLP.Chemscore.Hbond>
3.0000

> <Gold.PLP.Chemscore.CHOScore>
0.0000

> <Gold.PLP.Chemscore.Metal>
0.0000

> <Gold.Chemscore.Hbonds>
donor molecule, donor type, donor heavy atom, donor atom, acceptor molecule, acceptor atom, score
      L1  H     8    29       P1 10175  2.00
      L1  H    17    18       P1  7921  0.98

> <Gold.PLP.Chemscore.Internal.Correction>
0.0225

> <Gold.Rescore>
     Score         DG    S(hbond)    S(metal)    S(lipo)     H(rot)  DE(clash)    DE(int)     intcor
     14.73     -16.68       1.96        0.00      71.81       1.46       0.19       1.76       ----

> <Gold.Chemscore.Fitness>
14.7261

> <Gold.Chemscore.DG>
-16.6816

> <Gold.Chemscore.ZeroCoef>
-5.4800

> <Gold.Chemscore.Hbond>
1.9570

> <Gold.Chemscore.Metal>
0.0000

> <Gold.Chemscore.Lipo>
71.8108

> <Gold.Chemscore.Internal_Hbond>
0.0000

> <Gold.Chemscore.DEClash>
0.1933

> <Gold.Chemscore.DEInternal>
1.7622

> <Gold.Chemscore.Rot>
1.4596

> <Gold.Chemscore.Internal.Correction>
   9.000000E+99

> <Gold.Chemscore.Hbonds>
donor molecule, donor type, donor heavy atom, donor atom, acceptor molecule, acceptor atom, score
      L1  H     8    29       P1 10175  1.00
      L1  H    17    18       P1  7921  0.73

> <Gold.Chemscore.Hbond.Weighted>
-6.5362

> <Gold.Chemscore.Metal.Weighted>
-0.0000

> <Gold.Chemscore.Lipo.Weighted>
-8.4019

> <Gold.Chemscore.Internal_Hbond.Weighted>
0.0000

> <Gold.Chemscore.DEClash.Weighted>
0.1933

> <Gold.Chemscore.DEInternal.Weighted>
1.7622

> <Gold.Chemscore.Rot.Weighted>
3.7365

> <Gold.Chemscore.Internal.Correction.Weighted>
   9.000000E+99

> <Gold.Protein.RotatedTorsions>
[ 6907 6896 6895 6894 ] final  150.06 input  -60.11 | X-H torsion
[ 7974 7965 7964 7962 ] final  159.90 input  175.53 | X-H torsion
[ 8008 7997 7996 7995 ] final -125.46 input   59.86 | X-H torsion
[ 10167 10162 10161 10158 ] final   49.10 input  -65.29 | X-H torsion
[ 10718 10713 10712 10709 ] final  117.17 input   66.30 | X-H torsion
[ 10763 10752 10751 10750 ] final -115.86 input  -60.55 | X-H torsion
[ 11005 11000 10999 10996 ] final  -34.80 input  -57.11 | X-H torsion

> <Gold.Protein.ActiveResidues>
 VAL166  LYS551  ARG553  GLY616  TRP617  ASP618  TYR619  PRO620  LYS621  CYS622 
 ASP623  PHE694  ASN695  SER759  ASP760  ASP761  ALA762  ILE779  LEU786  VAL792 
 PHE793  MET794  SER795  GLU796  ALA797  LYS798  CYS799  TRP800  GLU811  SER814 

> <Gold.Protein.RotatedAtoms>
  152.1196  133.4346  159.4669 H   0  0  0  0  0  0  0  0  0  0  0  0  # atno 6907 bound_to 6896
  150.6871  134.2550  159.4535 H   0  0  0  0  0  0  0  0  0  0  0  0  # atno 6908 bound_to 6896
  152.0426  134.9702  160.0624 H   0  0  0  0  0  0  0  0  0  0  0  0  # atno 6909 bound_to 6896
  144.7765  139.7682  143.6276 H   0  0  0  0  0  0  0  0  0  0  0  0  # atno 7974 bound_to 7965
  155.2136  140.0419  157.2937 H   0  0  0  0  0  0  0  0  0  0  0  0  # atno 8008 bound_to 7997
  154.5995  140.2448  155.7782 H   0  0  0  0  0  0  0  0  0  0  0  0  # atno 8009 bound_to 7997
  156.2312  140.2937  156.0202 H   0  0  0  0  0  0  0  0  0  0  0  0  # atno 8010 bound_to 7997
  140.2864  144.3097  150.6251 H   0  0  0  0  0  0  0  0  0  0  0  0  # atno 10167 bound_to 10162
  157.6113  131.1034  150.7577 H   0  0  0  0  0  0  0  0  0  0  0  0  # atno 10718 bound_to 10713
  154.8498  135.4366  154.1730 H   0  0  0  0  0  0  0  0  0  0  0  0  # atno 10763 bound_to 10752
  153.2839  135.6956  153.7364 H   0  0  0  0  0  0  0  0  0  0  0  0  # atno 10764 bound_to 10752
  153.6558  135.3443  155.3088 H   0  0  0  0  0  0  0  0  0  0  0  0  # atno 10765 bound_to 10752
  140.9746  133.7090  156.1580 H   0  0  0  0  0  0  0  0  0  0  0  0  # atno 11005 bound_to 11000
  146.1948  139.5208  142.9781 LP  0  0  0  0  0  0  0  0  0  0  0  0  # atno 17320 bound_to 7965
  145.6170  141.0329  143.1935 LP  0  0  0  0  0  0  0  0  0  0  0  0  # atno 17321 bound_to 7965
  140.5769  143.2176  151.7499 LP  0  0  0  0  0  0  0  0  0  0  0  0  # atno 17342 bound_to 10162
  139.4949  144.4137  152.0053 LP  0  0  0  0  0  0  0  0  0  0  0  0  # atno 17343 bound_to 10162
  156.7954  130.4904  149.5378 LP  0  0  0  0  0  0  0  0  0  0  0  0  # atno 17370 bound_to 10713
  156.1217  130.6115  151.0204 LP  0  0  0  0  0  0  0  0  0  0  0  0  # atno 17371 bound_to 10713
  140.7279  134.4287  157.5569 LP  0  0  0  0  0  0  0  0  0  0  0  0  # atno 17394 bound_to 11000
  139.8925  134.8753  156.2267 LP  0  0  0  0  0  0  0  0  0  0  0  0  # atno 17395 bound_to 11000

$$$$
