AV-unprocessed.smi:158|AV-procd|sdf|1331|dock10
  -GOLD-   2262019 33D 1   1.00000     0.00000
 Structure written by MMmdl.
 31 33  0  0  0  0  0  0  0  0  1 V2000
  149.7132  134.0227  156.2226 N   0  0  0  0  0  0  0  0  0  0  0  0
  149.1843  135.2393  156.0304 C   0  0  0  0  0  0  0  0  0  0  0  0
  147.9313  135.4758  156.4834 N   0  0  0  0  0  0  0  0  0  0  0  0
  147.3684  136.6779  156.3131 C   0  0  0  0  0  0  0  0  0  0  0  0
  145.7701  136.8747  156.9289 Cl  0  0  0  0  0  0  0  0  0  0  0  0
  147.9064  137.7468  155.7177 N   0  0  0  0  0  0  0  0  0  0  0  0
  149.1694  137.5156  155.2572 C   0  0  0  0  0  0  0  0  0  0  0  0
  149.8760  136.2883  155.3767 C   0  0  0  0  0  0  0  0  0  0  0  0
  151.1332  136.4065  154.8018 N   0  0  0  0  0  0  0  0  0  0  0  0
  151.1636  137.6378  154.3680 C   0  0  0  0  0  0  0  0  0  0  0  0
  150.0239  138.3780  154.5965 N   0  0  0  0  0  0  0  0  0  0  0  0
  149.7865  139.8034  154.2000 C   0  0  2  0  0  0  0  0  0  0  0  0
  150.7684  140.6108  154.7848 O   0  0  0  0  0  0  0  0  0  0  0  0
  150.1595  141.6542  155.5457 C   0  0  2  0  0  0  0  0  0  0  0  0
  151.0770  142.0642  156.7093 C   0  0  0  0  0  0  0  0  0  0  0  0
  150.5469  143.1839  157.3869 O   0  0  0  0  0  0  0  0  0  0  0  0
  148.8123  141.0570  155.9596 C   0  0  1  0  0  0  0  0  0  0  0  0
  147.8398  142.0242  156.3010 O   0  0  0  0  0  0  0  0  0  0  0  0
  148.4242  140.2825  154.7126 C   0  0  1  0  0  0  0  0  0  0  0  0
  147.9063  141.0900  153.7836 F   0  0  0  0  0  0  0  0  0  0  0  0
  149.8702  139.8001  153.1123 H   0  0  0  0  0  0  0  0  0  0  0  0
  150.0063  142.4975  154.8694 H   0  0  0  0  0  0  0  0  0  0  0  0
  148.9384  140.3707  156.7966 H   0  0  0  0  0  0  0  0  0  0  0  0
  147.7256  139.4627  154.8856 H   0  0  0  0  0  0  0  0  0  0  0  0
  150.6472  133.8234  155.8938 H   0  0  0  0  0  0  0  0  0  0  0  0
  149.1790  133.3095  156.6974 H   0  0  0  0  0  0  0  0  0  0  0  0
  152.0270  138.0434  153.8607 H   0  0  0  0  0  0  0  0  0  0  0  0
  151.2172  141.2453  157.4143 H   0  0  0  0  0  0  0  0  0  0  0  0
  152.0625  142.3336  156.3291 H   0  0  0  0  0  0  0  0  0  0  0  0
  149.9012  143.5929  156.8308 H   0  0  0  0  0  0  0  0  0  0  0  0
  148.0680  142.8375  155.8763 H   0  0  0  0  0  0  0  0  0  0  0  0
  1  2  1  0  0  0  0
  1 25  1  0  0  0  0
  1 26  1  0  0  0  0
  2  8  1  0  0  0  0
  2  3  2  0  0  0  0
  3  4  1  0  0  0  0
  4  5  1  0  0  0  0
  4  6  2  0  0  0  0
  6  7  1  0  0  0  0
  7 11  1  0  0  0  0
  7  8  2  0  0  0  0
  8  9  1  0  0  0  0
  9 10  2  0  0  0  0
 10 11  1  0  0  0  0
 10 27  1  0  0  0  0
 11 12  1  0  0  0  0
 12 21  1  0  0  0  0
 12 19  1  0  0  0  0
 12 13  1  0  0  0  0
 13 14  1  0  0  0  0
 14 22  1  0  0  0  0
 14 15  1  0  0  0  0
 14 17  1  0  0  0  0
 15 16  1  0  0  0  0
 15 28  1  0  0  0  0
 15 29  1  0  0  0  0
 16 30  1  0  0  0  0
 17 23  1  0  0  0  0
 17 18  1  0  0  0  0
 17 19  1  0  0  0  0
 18 31  1  0  0  0  0
 19 24  1  0  0  0  0
 19 20  1  0  0  0  0
M  END
> <s_m_source_file>
AV-unprocessed.smi

> <i_m_source_file_index>
158

> <i_lp_mmshare_version>
43012

> <i_f3d_flags>
0

> <s_epik_input>
Q2xjKG4xKW5jKFtOSDJdKWMoYzEyKW5bY0hdbjJbQ0BASF0zT1tDQEhdKFtDSDJdW09IXSlbQ0BASF0oW09IXSlbQ0BASF0zRg==

> <s_epik_cmdline>
J2VwaWtfcHl0aG9uJywgJy1waCcsICc3LjAnLCAnLXRuJywgJzgnLCAnLW1hJywgJzIwMCcsICctbWV0YWxfYmluZGluZycsICctaW1hZScsICc8aW5maWxlLm1hZT4nLCAnLW9tYWUnLCAnPG91dGZpbGUubWFlPic=

> <r_lp_tautomer_probability>
1

> <r_epik_Ionization_Penalty>
6.51543e-05

> <r_epik_Ionization_Penalty_Charging>
0

> <r_epik_Ionization_Penalty_Neutral>
6.51543e-05

> <r_epik_State_Penalty>
-0

> <r_epik_Charging_Adjusted_Penalty>
0

> <i_epik_Tot_Q>
0

> <i_epik_Tot_abs_Q>
0

> <r_epik_Metal_State_Penalty>
-0

> <b_epik_Metal_Only>
0

> <s_epik_Chemistry_Notes>
This compound contains an acetal/aminal-like group ( X-CH(R)-Y where X, Y are N, S, or O) that may be acid/base labile, releasing an aldehyde.

> <s_lp_Force_Field>
OPLS_2005

> <r_lp_Energy>
33.8646

> <b_lp_Chiralities_Consistent>
1

> <s_lp_Variant>
AV-unprocessed.smi:158-9

> <Gold.Version>
5.8.1

> <Gold.Id.Protein>
6NUR|6NUR_protein|mol2

> <Gold.PLP.Fitness>
36.1245

> <Gold.PLP.PLP>
-24.4121

> <Gold.PLP.part.hbond>
-3.8931

> <Gold.PLP.part.metal>
0.0000

> <Gold.PLP.part.buried>
-1.7858

> <Gold.PLP.part.nonpolar>
-18.5452

> <Gold.PLP.part.repulsive>
0.3508

> <Gold.PLP.ligand.clash>
0.0000

> <Gold.PLP.ligand.torsion>
0.0475

> <Gold.PLP.Chemscore.Hbond>
3.9337

> <Gold.PLP.Chemscore.CHOScore>
0.0000

> <Gold.PLP.Chemscore.Metal>
0.0000

> <Gold.Chemscore.Hbonds>
donor molecule, donor type, donor heavy atom, donor atom, acceptor molecule, acceptor atom, score
      L1  H    16    30       P1  8028  1.00
      L1  H    18    31       P1  8028  0.96
      P1  H  7989  7998       L1    13  0.88
      P1  H 10752 10764       L1     9  1.00

> <Gold.PLP.Chemscore.Internal.Correction>
0.0065

> <Gold.Rescore>
     Score         DG    S(hbond)    S(metal)    S(lipo)     H(rot)  DE(clash)    DE(int)     intcor
      9.27     -11.29       3.09        0.00      29.66       3.12       0.55       1.47       ----

> <Gold.Chemscore.Fitness>
9.2654

> <Gold.Chemscore.DG>
-11.2902

> <Gold.Chemscore.ZeroCoef>
-5.4800

> <Gold.Chemscore.Hbond>
3.0942

> <Gold.Chemscore.Metal>
0.0000

> <Gold.Chemscore.Lipo>
29.6631

> <Gold.Chemscore.Internal_Hbond>
0.0000

> <Gold.Chemscore.DEClash>
0.5532

> <Gold.Chemscore.DEInternal>
1.4716

> <Gold.Chemscore.Rot>
3.1230

> <Gold.Chemscore.Internal.Correction>
   9.000000E+99

> <Gold.Chemscore.Hbonds>
donor molecule, donor type, donor heavy atom, donor atom, acceptor molecule, acceptor atom, score
      L1  H    16    30       P1  8028  0.99
      L1  H    18    31       P1  8028  0.74
      P1  H  7989  7998       L1    13  0.16
      P1  H 10752 10764       L1     9  0.64

> <Gold.Chemscore.Hbond.Weighted>
-10.3345

> <Gold.Chemscore.Metal.Weighted>
-0.0000

> <Gold.Chemscore.Lipo.Weighted>
-3.4706

> <Gold.Chemscore.Internal_Hbond.Weighted>
0.0000

> <Gold.Chemscore.DEClash.Weighted>
0.5532

> <Gold.Chemscore.DEInternal.Weighted>
1.4716

> <Gold.Chemscore.Rot.Weighted>
7.9950

> <Gold.Chemscore.Internal.Correction.Weighted>
   9.000000E+99

> <Gold.Protein.RotatedTorsions>
[ 6907 6896 6895 6894 ] final  -50.54 input  -60.11 | X-H torsion
[ 7974 7965 7964 7962 ] final  -51.97 input  175.53 | X-H torsion
[ 8008 7997 7996 7995 ] final  -86.89 input   59.86 | X-H torsion
[ 10167 10162 10161 10158 ] final   93.65 input  -65.29 | X-H torsion
[ 10718 10713 10712 10709 ] final    4.70 input   66.30 | X-H torsion
[ 10763 10752 10751 10750 ] final  -67.13 input  -60.55 | X-H torsion
[ 11005 11000 10999 10996 ] final -105.08 input  -57.11 | X-H torsion

> <Gold.Protein.ActiveResidues>
 VAL166  LYS551  ARG553  GLY616  TRP617  ASP618  TYR619  PRO620  LYS621  CYS622 
 ASP623  PHE694  ASN695  SER759  ASP760  ASP761  ALA762  ILE779  LEU786  VAL792 
 PHE793  MET794  SER795  GLU796  ALA797  LYS798  CYS799  TRP800  GLU811  SER814 

> <Gold.Protein.RotatedAtoms>
  150.8697  134.8069  159.7145 H   0  0  0  0  0  0  0  0  0  0  0  0  # atno 6907 bound_to 6896
  152.4706  134.4966  159.9721 H   0  0  0  0  0  0  0  0  0  0  0  0  # atno 6908 bound_to 6896
  151.5056  133.3457  159.2912 H   0  0  0  0  0  0  0  0  0  0  0  0  # atno 6909 bound_to 6896
  145.9131  140.7898  142.9685 H   0  0  0  0  0  0  0  0  0  0  0  0  # atno 7974 bound_to 7965
  154.6570  140.0572  157.0020 H   0  0  0  0  0  0  0  0  0  0  0  0  # atno 8008 bound_to 7997
  155.1285  140.3254  155.4461 H   0  0  0  0  0  0  0  0  0  0  0  0  # atno 8009 bound_to 7997
  156.2601  140.1985  156.6405 H   0  0  0  0  0  0  0  0  0  0  0  0  # atno 8010 bound_to 7997
  139.8160  144.6753  150.9580 H   0  0  0  0  0  0  0  0  0  0  0  0  # atno 10167 bound_to 10162
  156.8965  130.5706  149.5649 H   0  0  0  0  0  0  0  0  0  0  0  0  # atno 10718 bound_to 10713
  154.3700  135.6097  153.5735 H   0  0  0  0  0  0  0  0  0  0  0  0  # atno 10763 bound_to 10752
  152.9790  135.5835  154.4533 H   0  0  0  0  0  0  0  0  0  0  0  0  # atno 10764 bound_to 10752
  154.4285  135.2847  155.1906 H   0  0  0  0  0  0  0  0  0  0  0  0  # atno 10765 bound_to 10752
  141.1070  133.8777  157.1690 H   0  0  0  0  0  0  0  0  0  0  0  0  # atno 11005 bound_to 11000
  144.6745  140.1857  143.7401 LP  0  0  0  0  0  0  0  0  0  0  0  0  # atno 17320 bound_to 7965
  145.8646  139.2240  143.1697 LP  0  0  0  0  0  0  0  0  0  0  0  0  # atno 17321 bound_to 7965
  140.7816  143.4138  151.0949 LP  0  0  0  0  0  0  0  0  0  0  0  0  # atno 17342 bound_to 10162
  139.7802  143.8366  152.3136 LP  0  0  0  0  0  0  0  0  0  0  0  0  # atno 17343 bound_to 10162
  156.0603  130.5657  150.9179 LP  0  0  0  0  0  0  0  0  0  0  0  0  # atno 17370 bound_to 10713
  157.6052  131.0939  150.8891 LP  0  0  0  0  0  0  0  0  0  0  0  0  # atno 17371 bound_to 10713
  139.9945  135.0052  157.0052 LP  0  0  0  0  0  0  0  0  0  0  0  0  # atno 17394 bound_to 11000
  140.4875  134.1227  155.7227 LP  0  0  0  0  0  0  0  0  0  0  0  0  # atno 17395 bound_to 11000

$$$$
