AV-unprocessed.smi:49|AV-procd|sdf|481|dock6
  -GOLD-   2262016343D 1   1.00000     0.00000
 Structure written by MMmdl.
 28 29  0  0  0  0  0  0  0  0  2 V2000
  152.0057  144.5569  159.2467 C   0  0  0  0  0  0  0  0  0  0  0  0
  151.8627  144.3528  157.7347 C   0  0  0  0  0  0  0  0  0  0  0  0
  151.2515  143.0346  157.3886 C   0  0  0  0  0  0  0  0  0  0  0  0
  150.0606  142.9413  156.7798 N   0  0  0  0  0  0  0  0  0  0  0  0
  149.8778  141.6169  156.6740 C   0  0  0  0  0  0  0  0  0  0  0  0
  148.6406  141.0453  156.0477 C   0  0  2  0  0  0  0  0  0  0  0  0
  148.8711  140.2761  154.7449 C   0  0  0  0  0  0  0  0  0  0  0  0
  147.5736  140.5342  153.9847 C   0  0  2  0  0  0  0  0  0  0  0  0
  147.7292  140.3597  152.5924 O   0  0  0  0  0  0  0  0  0  0  0  0
  147.2339  141.9834  154.3520 C   0  0  0  0  0  0  0  0  0  0  0  0
  147.8011  142.2105  155.6967 N   0  3  0  0  0  0  0  0  0  0  0  0
  150.8893  140.9095  157.1931 N   0  0  0  0  0  0  0  0  0  0  0  0
  151.7939  141.8449  157.6636 N   0  0  0  0  0  0  0  0  0  0  0  0
  148.0979  140.4287  156.7658 H   0  0  0  0  0  0  0  0  0  0  0  0
  146.7925  139.8664  154.3512 H   0  0  0  0  0  0  0  0  0  0  0  0
  149.4508  143.6887  156.4803 H   0  0  0  0  0  0  0  0  0  0  0  0
  152.4543  145.5257  159.4671 H   0  0  0  0  0  0  0  0  0  0  0  0
  152.6399  143.7881  159.6890 H   0  0  0  0  0  0  0  0  0  0  0  0
  151.0358  144.5178  159.7427 H   0  0  0  0  0  0  0  0  0  0  0  0
  151.2548  145.1513  157.3078 H   0  0  0  0  0  0  0  0  0  0  0  0
  152.8415  144.4194  157.2584 H   0  0  0  0  0  0  0  0  0  0  0  0
  149.7075  140.7125  154.1954 H   0  0  0  0  0  0  0  0  0  0  0  0
  149.0873  139.2191  154.9022 H   0  0  0  0  0  0  0  0  0  0  0  0
  148.6268  140.1219  152.4137 H   0  0  0  0  0  0  0  0  0  0  0  0
  147.7189  142.6794  153.6658 H   0  0  0  0  0  0  0  0  0  0  0  0
  146.1617  142.1800  154.3285 H   0  0  0  0  0  0  0  0  0  0  0  0
  147.0672  142.3230  156.3812 H   0  0  0  0  0  0  0  0  0  0  0  0
  148.3764  143.0411  155.6728 H   0  0  0  0  0  0  0  0  0  0  0  0
  1  2  1  0  0  0  0
  1 17  1  0  0  0  0
  1 18  1  0  0  0  0
  1 19  1  0  0  0  0
  2 20  1  0  0  0  0
  2 21  1  0  0  0  0
  2  3  1  0  0  0  0
  3  4  1  0  0  0  0
  3 13  2  0  0  0  0
  4 16  1  0  0  0  0
  4  5  1  0  0  0  0
  5 12  2  0  0  0  0
  5  6  1  0  0  0  0
  6 14  1  0  0  0  0
  6 11  1  0  0  0  0
  6  7  1  0  0  0  0
  7  8  1  0  0  0  0
  7 22  1  0  0  0  0
  7 23  1  0  0  0  0
  8 15  1  0  0  0  0
  8  9  1  0  0  0  0
  8 10  1  0  0  0  0
  9 24  1  0  0  0  0
 10 11  1  0  0  0  0
 10 25  1  0  0  0  0
 10 26  1  0  0  0  0
 11 27  1  0  0  0  0
 11 28  1  0  0  0  0
 12 13  1  0  0  0  0
M  CHG  1  11   1
M  END
> <s_m_source_file>
AV-unprocessed.smi

> <i_m_source_file_index>
49

> <i_lp_mmshare_version>
43012

> <i_f3d_flags>
0

> <s_epik_input>
W0NIM11bQ0gyXWMxbmMobltuSF0xKVtDQEBIXTJbQ0gyXVtDQEBIXShbT0hdKVtDSDJdW05IXTI=

> <s_epik_cmdline>
J2VwaWtfcHl0aG9uJywgJy1waCcsICc3LjAnLCAnLXRuJywgJzgnLCAnLW1hJywgJzIwMCcsICctbWV0YWxfYmluZGluZycsICctaW1hZScsICc8aW5maWxlLm1hZT4nLCAnLW9tYWUnLCAnPG91dGZpbGUubWFlPic=

> <r_lp_tautomer_probability>
0.0517155

> <r_epik_Ionization_Penalty>
0.939819

> <r_epik_Ionization_Penalty_Charging>
0.0688988

> <r_epik_Ionization_Penalty_Neutral>
0.87092

> <r_epik_State_Penalty>
2.1224

> <r_epik_Charging_Adjusted_Penalty>
2.1913

> <i_epik_Tot_Q>
1

> <i_epik_Tot_abs_Q>
1

> <r_epik_Metal_State_Penalty>
2.39725

> <b_epik_Metal_Only>
0

> <s_lp_Force_Field>
OPLS_2005

> <r_lp_Energy>
21.0752

> <b_lp_Chiralities_Consistent>
1

> <s_lp_Variant>
AV-unprocessed.smi:49-19

> <Gold.Version>
5.8.1

> <Gold.Id.Protein>
6NUR|6NUR_protein|mol2

> <Gold.PLP.Fitness>
37.2172

> <Gold.PLP.PLP>
-25.9134

> <Gold.PLP.part.hbond>
-2.4331

> <Gold.PLP.part.metal>
0.0000

> <Gold.PLP.part.buried>
-3.6659

> <Gold.PLP.part.nonpolar>
-19.8268

> <Gold.PLP.part.repulsive>
0.1200

> <Gold.PLP.ligand.clash>
0.0000

> <Gold.PLP.ligand.torsion>
0.0546

> <Gold.PLP.Chemscore.Hbond>
3.8000

> <Gold.PLP.Chemscore.CHOScore>
0.0000

> <Gold.PLP.Chemscore.Metal>
0.0000

> <Gold.Chemscore.Hbonds>
donor molecule, donor type, donor heavy atom, donor atom, acceptor molecule, acceptor atom, score
      L1  H     4    16       P1  8028  0.75
      L1  H     9    24       P1  7957  0.74
      L1  H    11    28       P1  8028  2.00

> <Gold.PLP.Chemscore.Internal.Correction>
0.0131

> <Gold.Rescore>
     Score         DG    S(hbond)    S(metal)    S(lipo)     H(rot)  DE(clash)    DE(int)     intcor
     14.84     -15.28       2.68        0.00      48.55       1.89       0.01       0.43       ----

> <Gold.Chemscore.Fitness>
14.8413

> <Gold.Chemscore.DG>
-15.2782

> <Gold.Chemscore.ZeroCoef>
-5.4800

> <Gold.Chemscore.Hbond>
2.6803

> <Gold.Chemscore.Metal>
0.0000

> <Gold.Chemscore.Lipo>
48.5476

> <Gold.Chemscore.Internal_Hbond>
0.0000

> <Gold.Chemscore.DEClash>
0.0073

> <Gold.Chemscore.DEInternal>
0.4296

> <Gold.Chemscore.Rot>
1.8883

> <Gold.Chemscore.Internal.Correction>
   9.000000E+99

> <Gold.Chemscore.Hbonds>
donor molecule, donor type, donor heavy atom, donor atom, acceptor molecule, acceptor atom, score
      L1  H     4    16       P1  8028  0.74
      L1  H     9    24       P1  7957  0.72
      L1  H    11    28       P1  8028  0.97

> <Gold.Chemscore.Hbond.Weighted>
-8.9522

> <Gold.Chemscore.Metal.Weighted>
-0.0000

> <Gold.Chemscore.Lipo.Weighted>
-5.6801

> <Gold.Chemscore.Internal_Hbond.Weighted>
0.0000

> <Gold.Chemscore.DEClash.Weighted>
0.0073

> <Gold.Chemscore.DEInternal.Weighted>
0.4296

> <Gold.Chemscore.Rot.Weighted>
4.8340

> <Gold.Chemscore.Internal.Correction.Weighted>
   9.000000E+99

> <Gold.Protein.RotatedTorsions>
[ 6907 6896 6895 6894 ] final -137.27 input  -60.11 | X-H torsion
[ 7974 7965 7964 7962 ] final -141.99 input  175.53 | X-H torsion
[ 8008 7997 7996 7995 ] final  176.08 input   59.86 | X-H torsion
[ 10167 10162 10161 10158 ] final -138.28 input  -65.29 | X-H torsion
[ 10718 10713 10712 10709 ] final -177.68 input   66.30 | X-H torsion
[ 10763 10752 10751 10750 ] final -156.26 input  -60.55 | X-H torsion
[ 11005 11000 10999 10996 ] final   54.06 input  -57.11 | X-H torsion

> <Gold.Protein.ActiveResidues>
 VAL166  LYS551  ARG553  GLY616  TRP617  ASP618  TYR619  PRO620  LYS621  CYS622 
 ASP623  PHE694  ASN695  SER759  ASP760  ASP761  ALA762  ILE779  LEU786  VAL792 
 PHE793  MET794  SER795  GLU796  ALA797  LYS798  CYS799  TRP800  GLU811  SER814 

> <Gold.Protein.RotatedAtoms>
  151.0204  133.5882  159.2671 H   0  0  0  0  0  0  0  0  0  0  0  0  # atno 6907 bound_to 6896
  151.3001  135.0765  159.9245 H   0  0  0  0  0  0  0  0  0  0  0  0  # atno 6908 bound_to 6896
  152.5321  133.9887  159.7895 H   0  0  0  0  0  0  0  0  0  0  0  0  # atno 6909 bound_to 6896
  144.8477  140.6012  143.5411 H   0  0  0  0  0  0  0  0  0  0  0  0  # atno 7974 bound_to 7965
  156.0802  140.1392  156.9721 H   0  0  0  0  0  0  0  0  0  0  0  0  # atno 8008 bound_to 7997
  154.4581  140.0953  156.6864 H   0  0  0  0  0  0  0  0  0  0  0  0  # atno 8009 bound_to 7997
  155.5087  140.3453  155.4386 H   0  0  0  0  0  0  0  0  0  0  0  0  # atno 8010 bound_to 7997
  139.8494  143.7218  152.2659 H   0  0  0  0  0  0  0  0  0  0  0  0  # atno 10167 bound_to 10162
  156.8331  130.9660  151.3105 H   0  0  0  0  0  0  0  0  0  0  0  0  # atno 10718 bound_to 10713
  154.7726  135.3150  154.8158 H   0  0  0  0  0  0  0  0  0  0  0  0  # atno 10763 bound_to 10752
  153.8889  135.6827  153.4766 H   0  0  0  0  0  0  0  0  0  0  0  0  # atno 10764 bound_to 10752
  153.1343  135.4766  154.9333 H   0  0  0  0  0  0  0  0  0  0  0  0  # atno 10765 bound_to 10752
  140.0716  134.5461  155.9040 H   0  0  0  0  0  0  0  0  0  0  0  0  # atno 11005 bound_to 11000
  145.4564  139.1517  143.3890 LP  0  0  0  0  0  0  0  0  0  0  0  0  # atno 17320 bound_to 7965
  146.2758  140.4692  142.8796 LP  0  0  0  0  0  0  0  0  0  0  0  0  # atno 17321 bound_to 7965
  139.7480  144.7542  151.0550 LP  0  0  0  0  0  0  0  0  0  0  0  0  # atno 17342 bound_to 10162
  140.7789  143.4893  150.9914 LP  0  0  0  0  0  0  0  0  0  0  0  0  # atno 17343 bound_to 10162
  157.6396  130.8794  149.9423 LP  0  0  0  0  0  0  0  0  0  0  0  0  # atno 17370 bound_to 10713
  156.0923  130.3662  150.0372 LP  0  0  0  0  0  0  0  0  0  0  0  0  # atno 17371 bound_to 10713
  141.2014  133.6618  156.5949 LP  0  0  0  0  0  0  0  0  0  0  0  0  # atno 17394 bound_to 11000
  140.3618  134.7681  157.4539 LP  0  0  0  0  0  0  0  0  0  0  0  0  # atno 17395 bound_to 11000

$$$$
