AV-unprocessed.smi:2505|AV-procd|sdf|9860|dock7
  -GOLD-   2272013493D 1   1.00000     0.00000
 Structure written by MMmdl.
 48 52  0  0  0  0  0  0  0  0  1 V2000
  146.8316  136.6266  155.4972 O   0  0  0  0  0  0  0  0  0  0  0  0
  147.4944  136.5346  154.4668 C   0  0  0  0  0  0  0  0  0  0  0  0
  148.5597  137.3006  154.1661 N   0  0  0  0  0  0  0  0  0  0  0  0
  149.0399  138.4630  154.8259 C   0  0  0  0  0  0  0  0  0  0  0  0
  148.6629  138.8863  156.1245 C   0  0  0  0  0  0  0  0  0  0  0  0
  149.1554  140.0185  156.6717 N   0  0  0  0  0  0  0  0  0  0  0  0
  150.0049  140.7326  155.9286 C   0  0  0  0  0  0  0  0  0  0  0  0
  150.5811  141.9615  156.5607 C   0  0  0  0  0  0  0  0  0  0  0  0
  151.5238  141.8576  157.7425 C   0  0  0  0  0  0  0  0  0  0  0  0
  150.1378  142.4052  157.9397 C   0  0  0  0  0  0  0  0  0  0  0  0
  150.4334  140.4323  154.6995 N   0  0  0  0  0  0  0  0  0  0  0  0
  149.9462  139.3020  154.1445 C   0  0  0  0  0  0  0  0  0  0  0  0
  147.2092  135.6073  153.5372 N   0  0  0  0  0  0  0  0  0  0  0  0
  146.1278  134.6204  153.5494 C   0  0  1  0  0  0  0  0  0  0  0  0
  145.5696  134.3821  152.1461 C   0  0  2  0  0  0  0  0  0  0  0  0
  144.2809  134.6915  151.4723 C   0  0  0  0  0  0  0  0  0  0  0  0
  144.0476  133.3067  150.8132 C   0  0  0  0  0  0  0  0  0  0  0  0
  145.0274  132.4166  151.4014 O   0  0  0  0  0  0  0  0  0  0  0  0
  145.2931  132.9885  152.6665 C   0  0  1  0  0  0  0  0  0  0  0  0
  146.6022  133.1152  153.4722 C   0  0  0  0  0  0  0  0  0  0  0  0
  147.9288  132.7586  152.7768 C   0  0  0  0  0  0  0  0  0  0  0  0
  148.9223  132.3922  153.8748 C   0  0  0  0  0  0  0  0  0  0  0  0
  148.0668  131.7295  154.9472 C   0  0  0  0  0  0  0  0  0  0  0  0
  146.6648  132.3296  154.7900 C   0  0  0  0  0  0  0  0  0  0  0  0
  149.0602  137.0444  153.3275 H   0  0  0  0  0  0  0  0  0  0  0  0
  147.9599  138.3471  156.7388 H   0  0  0  0  0  0  0  0  0  0  0  0
  150.7790  142.7322  155.8183 H   0  0  0  0  0  0  0  0  0  0  0  0
  151.7316  140.8667  158.1420 H   0  0  0  0  0  0  0  0  0  0  0  0
  152.3540  142.5596  157.7836 H   0  0  0  0  0  0  0  0  0  0  0  0
  150.0394  143.4747  158.1137 H   0  0  0  0  0  0  0  0  0  0  0  0
  149.4232  141.7790  158.4705 H   0  0  0  0  0  0  0  0  0  0  0  0
  150.2850  139.0658  153.1463 H   0  0  0  0  0  0  0  0  0  0  0  0
  147.8263  135.5687  152.7389 H   0  0  0  0  0  0  0  0  0  0  0  0
  145.3502  134.8151  154.2939 H   0  0  0  0  0  0  0  0  0  0  0  0
  146.3773  134.3986  151.4081 H   0  0  0  0  0  0  0  0  0  0  0  0
  143.4962  134.9415  152.1877 H   0  0  0  0  0  0  0  0  0  0  0  0
  144.3669  135.4951  150.7405 H   0  0  0  0  0  0  0  0  0  0  0  0
  143.0372  132.9470  151.0107 H   0  0  0  0  0  0  0  0  0  0  0  0
  144.1902  133.3413  149.7328 H   0  0  0  0  0  0  0  0  0  0  0  0
  144.4120  132.9222  153.3154 H   0  0  0  0  0  0  0  0  0  0  0  0
  147.7817  131.8977  152.1233 H   0  0  0  0  0  0  0  0  0  0  0  0
  148.3265  133.5590  152.1530 H   0  0  0  0  0  0  0  0  0  0  0  0
  149.7258  131.7473  153.5183 H   0  0  0  0  0  0  0  0  0  0  0  0
  149.3779  133.2975  154.2768 H   0  0  0  0  0  0  0  0  0  0  0  0
  148.0248  130.6544  154.7680 H   0  0  0  0  0  0  0  0  0  0  0  0
  148.4736  131.8806  155.9476 H   0  0  0  0  0  0  0  0  0  0  0  0
  146.4382  132.9745  155.6384 H   0  0  0  0  0  0  0  0  0  0  0  0
  145.9195  131.5336  154.8110 H   0  0  0  0  0  0  0  0  0  0  0  0
  1  2  2  0  0  0  0
  2  3  1  0  0  0  0
  2 13  1  0  0  0  0
  3  4  1  0  0  0  0
  3 25  1  0  0  0  0
  4 12  1  0  0  0  0
  4  5  2  0  0  0  0
  5  6  1  0  0  0  0
  5 26  1  0  0  0  0
  6  7  2  0  0  0  0
  7  8  1  0  0  0  0
  7 11  1  0  0  0  0
  8 10  1  0  0  0  0
  8  9  1  0  0  0  0
  8 27  1  0  0  0  0
  9 10  1  0  0  0  0
  9 28  1  0  0  0  0
  9 29  1  0  0  0  0
 10 30  1  0  0  0  0
 10 31  1  0  0  0  0
 11 12  2  0  0  0  0
 12 32  1  0  0  0  0
 13 14  1  0  0  0  0
 13 33  1  0  0  0  0
 14 20  1  0  0  0  0
 14 15  1  0  0  0  0
 14 34  1  0  0  0  0
 15 19  1  0  0  0  0
 15 16  1  0  0  0  0
 15 35  1  0  0  0  0
 16 17  1  0  0  0  0
 16 36  1  0  0  0  0
 16 37  1  0  0  0  0
 17 18  1  0  0  0  0
 17 38  1  0  0  0  0
 17 39  1  0  0  0  0
 18 19  1  0  0  0  0
 19 20  1  0  0  0  0
 19 40  1  0  0  0  0
 20 24  1  0  0  0  0
 20 21  1  0  0  0  0
 21 22  1  0  0  0  0
 21 41  1  0  0  0  0
 21 42  1  0  0  0  0
 22 23  1  0  0  0  0
 22 43  1  0  0  0  0
 22 44  1  0  0  0  0
 23 24  1  0  0  0  0
 23 45  1  0  0  0  0
 23 46  1  0  0  0  0
 24 47  1  0  0  0  0
 24 48  1  0  0  0  0
M  END
> <s_m_source_file>
AV-unprocessed.smi

> <i_m_source_file_index>
2505

> <i_lp_mmshare_version>
43012

> <i_f3d_flags>
0

> <s_epik_input>
W0NIMl0xW0NIMl1bQ0hdMWMobltjSF0yKW5bY0hdYzJbTkhdQyg9TylbTkhdW0NAQEhdM1tDQEBIXShbQ0gyXVtDSDJdTzQpW0NASF00QzM1W0NIMl1bQ0gyXVtDSDJdW0NIMl01

> <s_epik_cmdline>
J2VwaWtfcHl0aG9uJywgJy1waCcsICc3LjAnLCAnLXRuJywgJzgnLCAnLW1hJywgJzIwMCcsICctbWV0YWxfYmluZGluZycsICctaW1hZScsICc8aW5maWxlLm1hZT4nLCAnLW9tYWUnLCAnPG91dGZpbGUubWFlPic=

> <r_lp_tautomer_probability>
1

> <r_epik_Ionization_Penalty>
2.6075e-05

> <r_epik_Ionization_Penalty_Charging>
0

> <r_epik_Ionization_Penalty_Neutral>
2.6075e-05

> <r_epik_State_Penalty>
-0

> <r_epik_Charging_Adjusted_Penalty>
0

> <i_epik_Tot_Q>
0

> <i_epik_Tot_abs_Q>
0

> <r_epik_Metal_State_Penalty>
-0

> <b_epik_Metal_Only>
0

> <s_lp_Force_Field>
OPLS_2005

> <r_lp_Energy>
84.9225

> <b_lp_Chiralities_Consistent>
1

> <s_lp_Variant>
AV-unprocessed.smi:2505-8

> <Gold.Version>
5.8.1

> <Gold.Id.Protein>
6NUR|6NUR_protein|mol2

> <Gold.PLP.Fitness>
42.2994

> <Gold.PLP.PLP>
-30.7117

> <Gold.PLP.part.hbond>
-2.7936

> <Gold.PLP.part.metal>
0.0000

> <Gold.PLP.part.buried>
-3.0231

> <Gold.PLP.part.nonpolar>
-25.6112

> <Gold.PLP.part.repulsive>
0.2383

> <Gold.PLP.ligand.clash>
0.0000

> <Gold.PLP.ligand.torsion>
0.2985

> <Gold.PLP.Chemscore.Hbond>
2.9280

> <Gold.PLP.Chemscore.CHOScore>
0.9999

> <Gold.PLP.Chemscore.Metal>
0.0000

> <Gold.Chemscore.Hbonds>
donor molecule, donor type, donor heavy atom, donor atom, acceptor molecule, acceptor atom, score
      L1  H     3    25       P1  7948  0.93
      L1  H    13    33       P1  7948  1.00
      P1  H  7989  7998       L1    11  1.00
      L1  C    12    32       P1  7957  0.97

> <Gold.PLP.Chemscore.Internal.Correction>
0.4012

> <Gold.Rescore>
     Score         DG    S(hbond)    S(metal)    S(lipo)     H(rot)  DE(clash)    DE(int)     intcor
     18.58     -20.02       2.68        0.00      73.53       1.17       0.04       1.39       ----

> <Gold.Chemscore.Fitness>
18.5842

> <Gold.Chemscore.DG>
-20.0192

> <Gold.Chemscore.ZeroCoef>
-5.4800

> <Gold.Chemscore.Hbond>
2.6776

> <Gold.Chemscore.Metal>
0.0000

> <Gold.Chemscore.Lipo>
73.5253

> <Gold.Chemscore.Internal_Hbond>
0.0000

> <Gold.Chemscore.DEClash>
0.0436

> <Gold.Chemscore.DEInternal>
1.3914

> <Gold.Chemscore.Rot>
1.1744

> <Gold.Chemscore.Internal.Correction>
   9.000000E+99

> <Gold.Chemscore.Hbonds>
donor molecule, donor type, donor heavy atom, donor atom, acceptor molecule, acceptor atom, score
      L1  H     3    25       P1  7948  0.89
      L1  H    13    33       P1  7948  0.92
      P1  H  7989  7998       L1    11  0.25

> <Gold.Chemscore.Hbond.Weighted>
-8.9432

> <Gold.Chemscore.Metal.Weighted>
-0.0000

> <Gold.Chemscore.Lipo.Weighted>
-8.6025

> <Gold.Chemscore.Internal_Hbond.Weighted>
0.0000

> <Gold.Chemscore.DEClash.Weighted>
0.0436

> <Gold.Chemscore.DEInternal.Weighted>
1.3914

> <Gold.Chemscore.Rot.Weighted>
3.0064

> <Gold.Chemscore.Internal.Correction.Weighted>
   9.000000E+99

> <Gold.Protein.RotatedTorsions>
[ 6907 6896 6895 6894 ] final  173.70 input  -60.11 | X-H torsion
[ 7974 7965 7964 7962 ] final  -82.19 input  175.53 | X-H torsion
[ 8008 7997 7996 7995 ] final   43.11 input   59.86 | X-H torsion
[ 10167 10162 10161 10158 ] final   76.55 input  -65.29 | X-H torsion
[ 10718 10713 10712 10709 ] final   72.26 input   66.30 | X-H torsion
[ 10763 10752 10751 10750 ] final   41.74 input  -60.55 | X-H torsion
[ 11005 11000 10999 10996 ] final  170.98 input  -57.11 | X-H torsion

> <Gold.Protein.ActiveResidues>
 VAL166  LYS551  ARG553  GLY616  TRP617  ASP618  TYR619  PRO620  LYS621  CYS622 
 ASP623  PHE694  ASN695  SER759  ASP760  ASP761  ALA762  ILE779  LEU786  VAL792 
 PHE793  MET794  SER795  GLU796  ALA797  LYS798  CYS799  TRP800  GLU811  SER814 

> <Gold.Protein.RotatedAtoms>
  151.7641  133.3336  159.3425 H   0  0  0  0  0  0  0  0  0  0  0  0  # atno 6907 bound_to 6896
  150.7486  134.6078  159.6080 H   0  0  0  0  0  0  0  0  0  0  0  0  # atno 6908 bound_to 6896
  152.3385  134.7167  160.0322 H   0  0  0  0  0  0  0  0  0  0  0  0  # atno 6909 bound_to 6896
  145.5365  140.9515  143.1574 H   0  0  0  0  0  0  0  0  0  0  0  0  # atno 7974 bound_to 7965
  155.2973  140.3382  155.4249 H   0  0  0  0  0  0  0  0  0  0  0  0  # atno 8008 bound_to 7997
  156.2018  140.1736  156.7923 H   0  0  0  0  0  0  0  0  0  0  0  0  # atno 8009 bound_to 7997
  154.5569  140.0695  156.8741 H   0  0  0  0  0  0  0  0  0  0  0  0  # atno 8010 bound_to 7997
  139.9911  144.5756  150.7817 H   0  0  0  0  0  0  0  0  0  0  0  0  # atno 10167 bound_to 10162
  157.6492  130.9570  150.0904 H   0  0  0  0  0  0  0  0  0  0  0  0  # atno 10718 bound_to 10713
  152.9900  135.6152  154.2837 H   0  0  0  0  0  0  0  0  0  0  0  0  # atno 10763 bound_to 10752
  154.2565  135.2783  155.2797 H   0  0  0  0  0  0  0  0  0  0  0  0  # atno 10764 bound_to 10752
  154.5243  135.5806  153.6763 H   0  0  0  0  0  0  0  0  0  0  0  0  # atno 10765 bound_to 10752
  140.3141  134.7492  157.4014 H   0  0  0  0  0  0  0  0  0  0  0  0  # atno 11005 bound_to 11000
  144.7599  139.6983  143.7239 LP  0  0  0  0  0  0  0  0  0  0  0  0  # atno 17320 bound_to 7965
  146.2009  139.5303  142.9744 LP  0  0  0  0  0  0  0  0  0  0  0  0  # atno 17321 bound_to 7965
  140.7454  143.2875  151.3422 LP  0  0  0  0  0  0  0  0  0  0  0  0  # atno 17342 bound_to 10162
  139.6339  144.0667  152.2500 LP  0  0  0  0  0  0  0  0  0  0  0  0  # atno 17343 bound_to 10162
  156.1854  130.3652  149.8979 LP  0  0  0  0  0  0  0  0  0  0  0  0  # atno 17370 bound_to 10713
  156.6921  130.8900  151.3589 LP  0  0  0  0  0  0  0  0  0  0  0  0  # atno 17371 bound_to 10713
  140.0998  134.5487  155.8363 LP  0  0  0  0  0  0  0  0  0  0  0  0  # atno 17394 bound_to 11000
  141.2101  133.6691  156.6489 LP  0  0  0  0  0  0  0  0  0  0  0  0  # atno 17395 bound_to 11000

$$$$
