AV-unprocessed.smi:2273|AV-procd|sdf|9167|dock3
  -GOLD-   2272012383D 1   1.00000     0.00000
 Structure written by MMmdl.
 53 54  0  0  0  0  0  0  0  0  1 V2000
  153.0858  138.7911  154.5399 C   0  0  0  0  0  0  0  0  0  0  0  0
  151.6394  138.2796  154.4502 C   0  0  0  0  0  0  0  0  0  0  0  0
  150.5590  139.3800  154.2724 C   0  0  0  0  0  0  0  0  0  0  0  0
  150.5886  140.3526  155.4827 C   0  0  0  0  0  0  0  0  0  0  0  0
  149.7053  141.6009  155.3702 C   0  0  0  0  0  0  0  0  0  0  0  0
  149.1402  138.7729  154.0474 C   0  0  1  0  0  0  0  0  0  0  0  0
  148.6687  137.8703  155.2157 C   0  0  0  0  0  0  0  0  0  0  0  0
  147.2733  137.2751  154.9494 C   0  0  2  0  0  0  0  0  0  0  0  0
  147.3131  136.2799  153.8725 N   0  0  0  0  0  0  0  0  0  0  0  0
  146.3995  135.3432  153.5611 C   0  0  0  0  0  0  0  0  0  0  0  0
  145.3549  135.2320  154.2010 O   0  0  0  0  0  0  0  0  0  0  0  0
  146.7289  134.5715  152.5054 N   0  0  0  0  0  0  0  0  0  0  0  0
  145.9639  133.5312  151.9536 C   0  0  0  0  0  0  0  0  0  0  0  0
  144.9387  133.8448  151.1179 C   0  0  0  0  0  0  0  0  0  0  0  0
  144.5737  135.2863  150.8023 C   0  0  0  0  0  0  0  0  0  0  0  0
  144.1526  132.7776  150.5346 C   0  0  0  0  0  0  0  0  0  0  0  0
  144.4545  131.5044  150.8212 C   0  0  0  0  0  0  0  0  0  0  0  0
  145.5281  131.1732  151.6597 N   0  0  0  0  0  0  0  0  0  0  0  0
  145.7878  129.7511  151.8983 C   0  0  0  0  0  0  0  0  0  0  0  0
  146.3389  132.1194  152.2147 C   0  0  0  0  0  0  0  0  0  0  0  0
  147.3289  131.7921  152.8731 O   0  0  0  0  0  0  0  0  0  0  0  0
  146.2981  138.4066  154.5942 C   0  0  0  0  0  0  0  0  0  0  0  0
  146.8784  139.3244  153.5064 C   0  0  0  0  0  0  0  0  0  0  0  0
  148.1581  139.8011  153.9090 O   0  0  0  0  0  0  0  0  0  0  0  0
  153.7871  137.9568  154.5124 H   0  0  0  0  0  0  0  0  0  0  0  0
  153.2733  139.3317  155.4671 H   0  0  0  0  0  0  0  0  0  0  0  0
  153.3245  139.4505  153.7052 H   0  0  0  0  0  0  0  0  0  0  0  0
  151.6113  137.6005  153.5979 H   0  0  0  0  0  0  0  0  0  0  0  0
  151.4128  137.6742  155.3289 H   0  0  0  0  0  0  0  0  0  0  0  0
  150.8319  139.9401  153.3769 H   0  0  0  0  0  0  0  0  0  0  0  0
  150.3226  139.8125  156.3920 H   0  0  0  0  0  0  0  0  0  0  0  0
  151.6060  140.7099  155.6346 H   0  0  0  0  0  0  0  0  0  0  0  0
  149.8936  142.2785  156.2032 H   0  0  0  0  0  0  0  0  0  0  0  0
  148.6456  141.3484  155.3998 H   0  0  0  0  0  0  0  0  0  0  0  0
  149.9102  142.1477  154.4496 H   0  0  0  0  0  0  0  0  0  0  0  0
  149.1580  138.2059  153.1150 H   0  0  0  0  0  0  0  0  0  0  0  0
  149.3754  137.0713  155.4245 H   0  0  0  0  0  0  0  0  0  0  0  0
  148.6276  138.4677  156.1275 H   0  0  0  0  0  0  0  0  0  0  0  0
  146.9052  136.7983  155.8592 H   0  0  0  0  0  0  0  0  0  0  0  0
  148.1588  136.2739  153.3207 H   0  0  0  0  0  0  0  0  0  0  0  0
  147.5540  134.8322  151.9857 H   0  0  0  0  0  0  0  0  0  0  0  0
  143.7767  135.3390  150.0603 H   0  0  0  0  0  0  0  0  0  0  0  0
  145.4338  135.8284  150.4079 H   0  0  0  0  0  0  0  0  0  0  0  0
  144.2276  135.7905  151.7037 H   0  0  0  0  0  0  0  0  0  0  0  0
  143.3223  133.0003  149.8805 H   0  0  0  0  0  0  0  0  0  0  0  0
  143.9029  130.6670  150.4195 H   0  0  0  0  0  0  0  0  0  0  0  0
  145.8427  129.5424  152.9678 H   0  0  0  0  0  0  0  0  0  0  0  0
  146.7350  129.4561  151.4446 H   0  0  0  0  0  0  0  0  0  0  0  0
  145.0106  129.1068  151.4857 H   0  0  0  0  0  0  0  0  0  0  0  0
  145.3348  138.0026  154.2804 H   0  0  0  0  0  0  0  0  0  0  0  0
  146.1043  139.0019  155.4874 H   0  0  0  0  0  0  0  0  0  0  0  0
  146.9532  138.8044  152.5501 H   0  0  0  0  0  0  0  0  0  0  0  0
  146.2191  140.1780  153.3495 H   0  0  0  0  0  0  0  0  0  0  0  0
  1  2  1  0  0  0  0
  1 25  1  0  0  0  0
  1 26  1  0  0  0  0
  1 27  1  0  0  0  0
  2  3  1  0  0  0  0
  2 28  1  0  0  0  0
  2 29  1  0  0  0  0
  3  4  1  0  0  0  0
  3  6  1  0  0  0  0
  3 30  1  0  0  0  0
  4  5  1  0  0  0  0
  4 31  1  0  0  0  0
  4 32  1  0  0  0  0
  5 33  1  0  0  0  0
  5 34  1  0  0  0  0
  5 35  1  0  0  0  0
  6 24  1  0  0  0  0
  6  7  1  0  0  0  0
  6 36  1  0  0  0  0
  7  8  1  0  0  0  0
  7 37  1  0  0  0  0
  7 38  1  0  0  0  0
  8  9  1  0  0  0  0
  8 22  1  0  0  0  0
  8 39  1  0  0  0  0
  9 10  1  0  0  0  0
  9 40  1  0  0  0  0
 10 11  2  0  0  0  0
 10 12  1  0  0  0  0
 12 13  1  0  0  0  0
 12 41  1  0  0  0  0
 13 20  1  0  0  0  0
 13 14  2  0  0  0  0
 14 15  1  0  0  0  0
 14 16  1  0  0  0  0
 15 42  1  0  0  0  0
 15 43  1  0  0  0  0
 15 44  1  0  0  0  0
 16 17  2  0  0  0  0
 16 45  1  0  0  0  0
 17 18  1  0  0  0  0
 17 46  1  0  0  0  0
 18 19  1  0  0  0  0
 18 20  1  0  0  0  0
 19 47  1  0  0  0  0
 19 48  1  0  0  0  0
 19 49  1  0  0  0  0
 20 21  2  0  0  0  0
 22 23  1  0  0  0  0
 22 50  1  0  0  0  0
 22 51  1  0  0  0  0
 23 24  1  0  0  0  0
 23 52  1  0  0  0  0
 23 53  1  0  0  0  0
M  END
> <s_m_source_file>
AV-unprocessed.smi

> <i_m_source_file_index>
2273

> <i_lp_mmshare_version>
43012

> <i_f3d_flags>
0

> <s_epik_input>
W0NIM11bQ0gyXVtDSF0oW0NIMl1bQ0gzXSlbQ0BASF0xW0NIMl1bQ0BIXShbQ0gyXVtDSDJdTzEpW05IXUMoPU8pW05IXWMyYyhbQ0gzXSlbY0hdW2NIXW4oW0NIM10pYzI9Tw==

> <s_epik_cmdline>
J2VwaWtfcHl0aG9uJywgJy1waCcsICc3LjAnLCAnLXRuJywgJzgnLCAnLW1hJywgJzIwMCcsICctbWV0YWxfYmluZGluZycsICctaW1hZScsICc8aW5maWxlLm1hZT4nLCAnLW9tYWUnLCAnPG91dGZpbGUubWFlPic=

> <r_lp_tautomer_probability>
1

> <r_epik_Ionization_Penalty>
2.66245e-05

> <r_epik_Ionization_Penalty_Charging>
6.91055e-06

> <r_epik_Ionization_Penalty_Neutral>
1.97139e-05

> <r_epik_State_Penalty>
-0

> <r_epik_Charging_Adjusted_Penalty>
6.91055e-06

> <i_epik_Tot_Q>
0

> <i_epik_Tot_abs_Q>
0

> <r_epik_Metal_State_Penalty>
-0

> <b_epik_Metal_Only>
0

> <s_lp_Force_Field>
OPLS_2005

> <r_lp_Energy>
42.8543

> <b_lp_Chiralities_Consistent>
1

> <s_lp_Variant>
AV-unprocessed.smi:2273-4

> <Gold.Version>
5.8.1

> <Gold.Id.Protein>
6NUR|6NUR_protein|mol2

> <Gold.PLP.Fitness>
47.6901

> <Gold.PLP.PLP>
-43.2132

> <Gold.PLP.part.hbond>
-2.0000

> <Gold.PLP.part.metal>
0.0000

> <Gold.PLP.part.buried>
-5.7290

> <Gold.PLP.part.nonpolar>
-36.9138

> <Gold.PLP.part.repulsive>
0.3113

> <Gold.PLP.ligand.clash>
0.0000

> <Gold.PLP.ligand.torsion>
0.9584

> <Gold.PLP.Chemscore.Hbond>
1.8960

> <Gold.PLP.Chemscore.CHOScore>
0.0000

> <Gold.PLP.Chemscore.Metal>
0.0000

> <Gold.Chemscore.Hbonds>
donor molecule, donor type, donor heavy atom, donor atom, acceptor molecule, acceptor atom, score
      L1  H     9    40       P1  7948  1.00
      L1  H    12    41       P1  7948  0.88

> <Gold.PLP.Chemscore.Internal.Correction>
0.7058

> <Gold.Rescore>
     Score         DG    S(hbond)    S(metal)    S(lipo)     H(rot)  DE(clash)    DE(int)     intcor
     16.80     -19.13       1.75        0.00      97.77       1.42       0.01       2.32       ----

> <Gold.Chemscore.Fitness>
16.8026

> <Gold.Chemscore.DG>
-19.1280

> <Gold.Chemscore.ZeroCoef>
-5.4800

> <Gold.Chemscore.Hbond>
1.7525

> <Gold.Chemscore.Metal>
0.0000

> <Gold.Chemscore.Lipo>
97.7714

> <Gold.Chemscore.Internal_Hbond>
0.0000

> <Gold.Chemscore.DEClash>
0.0086

> <Gold.Chemscore.DEInternal>
2.3168

> <Gold.Chemscore.Rot>
1.4236

> <Gold.Chemscore.Internal.Correction>
   9.000000E+99

> <Gold.Chemscore.Hbonds>
donor molecule, donor type, donor heavy atom, donor atom, acceptor molecule, acceptor atom, score
      L1  H     9    40       P1  7948  0.96
      L1  H    12    41       P1  7948  0.67

> <Gold.Chemscore.Hbond.Weighted>
-5.8532

> <Gold.Chemscore.Metal.Weighted>
-0.0000

> <Gold.Chemscore.Lipo.Weighted>
-11.4392

> <Gold.Chemscore.Internal_Hbond.Weighted>
0.0000

> <Gold.Chemscore.DEClash.Weighted>
0.0086

> <Gold.Chemscore.DEInternal.Weighted>
2.3168

> <Gold.Chemscore.Rot.Weighted>
3.6445

> <Gold.Chemscore.Internal.Correction.Weighted>
   9.000000E+99

> <Gold.Protein.RotatedTorsions>
[ 6907 6896 6895 6894 ] final   57.21 input  -60.11 | X-H torsion
[ 7974 7965 7964 7962 ] final -158.58 input  175.53 | X-H torsion
[ 8008 7997 7996 7995 ] final  -68.81 input   59.86 | X-H torsion
[ 10167 10162 10161 10158 ] final  -66.46 input  -65.29 | X-H torsion
[ 10718 10713 10712 10709 ] final   56.07 input   66.30 | X-H torsion
[ 10763 10752 10751 10750 ] final   12.90 input  -60.55 | X-H torsion
[ 11005 11000 10999 10996 ] final   81.47 input  -57.11 | X-H torsion

> <Gold.Protein.ActiveResidues>
 VAL166  LYS551  ARG553  GLY616  TRP617  ASP618  TYR619  PRO620  LYS621  CYS622 
 ASP623  PHE694  ASN695  SER759  ASP760  ASP761  ALA762  ILE779  LEU786  VAL792 
 PHE793  MET794  SER795  GLU796  ALA797  LYS798  CYS799  TRP800  GLU811  SER814 

> <Gold.Protein.RotatedAtoms>
  152.3709  134.6735  160.0175 H   0  0  0  0  0  0  0  0  0  0  0  0  # atno 6907 bound_to 6896
  151.7028  133.3306  159.3279 H   0  0  0  0  0  0  0  0  0  0  0  0  # atno 6908 bound_to 6896
  150.7673  134.6536  159.6346 H   0  0  0  0  0  0  0  0  0  0  0  0  # atno 6909 bound_to 6896
  144.7500  140.3807  143.6055 H   0  0  0  0  0  0  0  0  0  0  0  0  # atno 7974 bound_to 7965
  154.4894  140.0865  156.7560 H   0  0  0  0  0  0  0  0  0  0  0  0  # atno 8008 bound_to 7997
  155.4268  140.3448  155.4258 H   0  0  0  0  0  0  0  0  0  0  0  0  # atno 8009 bound_to 7997
  156.1308  140.1501  156.9056 H   0  0  0  0  0  0  0  0  0  0  0  0  # atno 8010 bound_to 7997
  140.5655  143.2314  151.6643 H   0  0  0  0  0  0  0  0  0  0  0  0  # atno 10167 bound_to 10162
  157.5400  130.8690  149.8808 H   0  0  0  0  0  0  0  0  0  0  0  0  # atno 10718 bound_to 10713
  153.1775  135.6822  153.8523 H   0  0  0  0  0  0  0  0  0  0  0  0  # atno 10763 bound_to 10752
  153.7866  135.3175  155.3374 H   0  0  0  0  0  0  0  0  0  0  0  0  # atno 10764 bound_to 10752
  154.8038  135.4761  154.0435 H   0  0  0  0  0  0  0  0  0  0  0  0  # atno 10765 bound_to 10752
  139.9097  134.7999  156.2045 H   0  0  0  0  0  0  0  0  0  0  0  0  # atno 11005 bound_to 11000
  145.6980  139.1654  143.2609 LP  0  0  0  0  0  0  0  0  0  0  0  0  # atno 17320 bound_to 7965
  146.1435  140.7024  142.9355 LP  0  0  0  0  0  0  0  0  0  0  0  0  # atno 17321 bound_to 7965
  139.5091  144.3588  152.0582 LP  0  0  0  0  0  0  0  0  0  0  0  0  # atno 17342 bound_to 10162
  140.2720  144.3954  150.6148 LP  0  0  0  0  0  0  0  0  0  0  0  0  # atno 17343 bound_to 10162
  156.0489  130.3722  150.1250 LP  0  0  0  0  0  0  0  0  0  0  0  0  # atno 17370 bound_to 10713
  156.9430  130.9750  151.3512 LP  0  0  0  0  0  0  0  0  0  0  0  0  # atno 17371 bound_to 10713
  141.0504  133.6892  156.1761 LP  0  0  0  0  0  0  0  0  0  0  0  0  # atno 17394 bound_to 11000
  140.6819  134.4758  157.5589 LP  0  0  0  0  0  0  0  0  0  0  0  0  # atno 17395 bound_to 11000

$$$$
