AV-unprocessed.smi:148|AV-procd|sdf|1230|dock6
  -GOLD-   2262018433D 1   1.00000     0.00000
 Structure written by MMmdl.
 63 67  0  0  0  0  0  0  0  0  1 V2000
  150.4100  140.1075  154.0817 O   0  0  0  0  0  0  0  0  0  0  0  0
  149.8474  141.1233  154.8846 C   0  0  0  0  0  0  0  0  0  0  0  0
  149.8949  140.7608  156.3918 C   0  0  2  0  0  0  0  0  0  0  0  0
  148.5734  141.1446  157.1073 C   0  0  0  0  0  0  0  0  0  0  0  0
  147.3873  140.5849  156.4819 N   0  0  0  0  0  0  0  0  0  0  0  0
  146.2907  141.2795  156.0233 C   0  0  0  0  0  0  0  0  0  0  0  0
  145.3524  140.5465  155.4895 N   0  0  0  0  0  0  0  0  0  0  0  0
  145.8297  139.2461  155.6049 C   0  0  0  0  0  0  0  0  0  0  0  0
  145.3296  137.9635  155.2386 C   0  0  0  0  0  0  0  0  0  0  0  0
  144.1473  137.7360  154.6205 N   0  0  0  0  0  0  0  0  0  0  0  0
  143.0533  138.1641  155.4936 C   0  0  0  0  0  0  0  0  0  0  0  0
  141.7054  138.1534  154.7606 C   0  0  0  0  0  0  0  0  0  0  0  0
  141.4422  136.7741  154.1488 C   0  0  0  0  0  0  0  0  0  0  0  0
  142.6028  136.3896  153.2230 C   0  0  0  0  0  0  0  0  0  0  0  0
  143.9646  136.4258  153.9684 C   0  0  1  0  0  0  0  0  0  0  0  0
  145.1677  136.0056  153.0645 C   0  0  1  0  0  0  0  0  0  0  0  0
  144.9347  134.6824  152.3042 C   0  0  0  0  0  0  0  0  0  0  0  0
  144.9385  135.0379  150.8167 C   0  0  0  0  0  0  0  0  0  0  0  0
  145.8940  136.2225  150.7271 C   0  0  0  0  0  0  0  0  0  0  0  0
  145.5891  137.0362  151.9873 C   0  0  2  0  0  0  0  0  0  0  0  0
  146.7197  137.7879  152.3776 O   0  0  0  0  0  0  0  0  0  0  0  0
  146.1065  136.8823  155.4961 N   0  0  0  0  0  0  0  0  0  0  0  0
  147.2895  137.0363  156.0985 C   0  0  0  0  0  0  0  0  0  0  0  0
  147.8786  138.1624  156.5068 N   0  0  0  0  0  0  0  0  0  0  0  0
  147.1077  139.2532  156.2311 C   0  0  0  0  0  0  0  0  0  0  0  0
  151.1079  141.4116  157.1136 C   0  0  1  0  0  0  0  0  0  0  0  0
  150.9857  142.9082  157.3496 C   0  0  0  0  0  0  0  0  0  0  0  0
  152.0426  143.1595  158.4194 C   0  0  0  0  0  0  0  0  0  0  0  0
  152.0920  141.9700  159.1973 O   0  0  0  0  0  0  0  0  0  0  0  0
  151.3582  140.9360  158.5496 C   0  0  0  0  0  0  0  0  0  0  0  0
  149.8319  139.9447  153.3519 H   0  0  0  0  0  0  0  0  0  0  0  0
  150.3616  142.0662  154.6962 H   0  0  0  0  0  0  0  0  0  0  0  0
  148.8247  141.2484  154.5319 H   0  0  0  0  0  0  0  0  0  0  0  0
  149.9956  139.6770  156.4696 H   0  0  0  0  0  0  0  0  0  0  0  0
  148.5798  140.8023  158.1420 H   0  0  0  0  0  0  0  0  0  0  0  0
  148.4678  142.2297  157.1403 H   0  0  0  0  0  0  0  0  0  0  0  0
  146.2129  142.3551  156.0870 H   0  0  0  0  0  0  0  0  0  0  0  0
  143.0059  137.5025  156.3602 H   0  0  0  0  0  0  0  0  0  0  0  0
  143.2475  139.1687  155.8734 H   0  0  0  0  0  0  0  0  0  0  0  0
  140.9033  138.4186  155.4496 H   0  0  0  0  0  0  0  0  0  0  0  0
  141.7071  138.9111  153.9758 H   0  0  0  0  0  0  0  0  0  0  0  0
  141.3352  136.0300  154.9391 H   0  0  0  0  0  0  0  0  0  0  0  0
  140.5037  136.7809  153.5939 H   0  0  0  0  0  0  0  0  0  0  0  0
  142.4080  135.4003  152.8114 H   0  0  0  0  0  0  0  0  0  0  0  0
  142.6041  137.0748  152.3765 H   0  0  0  0  0  0  0  0  0  0  0  0
  143.8928  135.6860  154.7659 H   0  0  0  0  0  0  0  0  0  0  0  0
  146.0290  135.8099  153.7041 H   0  0  0  0  0  0  0  0  0  0  0  0
  145.7642  134.0033  152.5073 H   0  0  0  0  0  0  0  0  0  0  0  0
  144.0281  134.1566  152.6028 H   0  0  0  0  0  0  0  0  0  0  0  0
  145.2437  134.2023  150.1863 H   0  0  0  0  0  0  0  0  0  0  0  0
  143.9393  135.3452  150.5054 H   0  0  0  0  0  0  0  0  0  0  0  0
  146.9220  135.8563  150.7484 H   0  0  0  0  0  0  0  0  0  0  0  0
  145.7650  136.8011  149.8118 H   0  0  0  0  0  0  0  0  0  0  0  0
  144.7829  137.7334  151.7680 H   0  0  0  0  0  0  0  0  0  0  0  0
  147.4908  137.3813  152.0112 H   0  0  0  0  0  0  0  0  0  0  0  0
  147.8447  136.1272  156.2768 H   0  0  0  0  0  0  0  0  0  0  0  0
  152.0120  141.2321  156.5294 H   0  0  0  0  0  0  0  0  0  0  0  0
  151.1601  143.5044  156.4537 H   0  0  0  0  0  0  0  0  0  0  0  0
  149.9954  143.1534  157.7367 H   0  0  0  0  0  0  0  0  0  0  0  0
  153.0198  143.3132  157.9602 H   0  0  0  0  0  0  0  0  0  0  0  0
  151.8155  144.0306  159.0342 H   0  0  0  0  0  0  0  0  0  0  0  0
  150.4160  140.8037  159.0833 H   0  0  0  0  0  0  0  0  0  0  0  0
  151.9047  139.9936  158.5889 H   0  0  0  0  0  0  0  0  0  0  0  0
  1  2  1  0  0  0  0
  1 31  1  0  0  0  0
  2  3  1  0  0  0  0
  2 32  1  0  0  0  0
  2 33  1  0  0  0  0
  3  4  1  0  0  0  0
  3 26  1  0  0  0  0
  3 34  1  0  0  0  0
  4  5  1  0  0  0  0
  4 35  1  0  0  0  0
  4 36  1  0  0  0  0
  5 25  1  0  0  0  0
  5  6  1  0  0  0  0
  6  7  2  0  0  0  0
  6 37  1  0  0  0  0
  7  8  1  0  0  0  0
  8 25  2  0  0  0  0
  8  9  1  0  0  0  0
  9 10  1  0  0  0  0
  9 22  2  0  0  0  0
 10 15  1  0  0  0  0
 10 11  1  0  0  0  0
 11 12  1  0  0  0  0
 11 38  1  0  0  0  0
 11 39  1  0  0  0  0
 12 13  1  0  0  0  0
 12 40  1  0  0  0  0
 12 41  1  0  0  0  0
 13 14  1  0  0  0  0
 13 42  1  0  0  0  0
 13 43  1  0  0  0  0
 14 15  1  0  0  0  0
 14 44  1  0  0  0  0
 14 45  1  0  0  0  0
 15 16  1  0  0  0  0
 15 46  1  0  0  0  0
 16 20  1  0  0  0  0
 16 17  1  0  0  0  0
 16 47  1  0  0  0  0
 17 18  1  0  0  0  0
 17 48  1  0  0  0  0
 17 49  1  0  0  0  0
 18 19  1  0  0  0  0
 18 50  1  0  0  0  0
 18 51  1  0  0  0  0
 19 20  1  0  0  0  0
 19 52  1  0  0  0  0
 19 53  1  0  0  0  0
 20 21  1  0  0  0  0
 20 54  1  0  0  0  0
 21 55  1  0  0  0  0
 22 23  1  0  0  0  0
 23 24  2  0  0  0  0
 23 56  1  0  0  0  0
 24 25  1  0  0  0  0
 26 30  1  0  0  0  0
 26 27  1  0  0  0  0
 26 57  1  0  0  0  0
 27 28  1  0  0  0  0
 27 58  1  0  0  0  0
 27 59  1  0  0  0  0
 28 29  1  0  0  0  0
 28 60  1  0  0  0  0
 28 61  1  0  0  0  0
 29 30  1  0  0  0  0
 30 62  1  0  0  0  0
 30 63  1  0  0  0  0
M  END
> <s_m_source_file>
AV-unprocessed.smi

> <i_m_source_file_index>
148

> <i_lp_mmshare_version>
43012

> <i_f3d_flags>
0

> <s_epik_input>
W0NIMl0xT1tDSDJdW0NIMl1bQ0BIXTFbQ0BIXShbQ0gyXVtPSF0pW0NIMl1uKFtjSF1uMiljKGMyMyluW2NIXW5jM040W0NIMl1bQ0gyXVtDSDJdW0NIMl1bQ0BIXTRbQ0BASF01W0NIMl1bQ0gyXVtDSDJdW0NASF01W09IXQ==

> <s_epik_cmdline>
J2VwaWtfcHl0aG9uJywgJy1waCcsICc3LjAnLCAnLXRuJywgJzgnLCAnLW1hJywgJzIwMCcsICctbWV0YWxfYmluZGluZycsICctaW1hZScsICc8aW5maWxlLm1hZT4nLCAnLW9tYWUnLCAnPG91dGZpbGUubWFlPic=

> <r_lp_tautomer_probability>
1

> <r_epik_Ionization_Penalty>
0.00556303

> <r_epik_Ionization_Penalty_Charging>
0

> <r_epik_Ionization_Penalty_Neutral>
0.00556303

> <r_epik_State_Penalty>
0.00401767

> <r_epik_Charging_Adjusted_Penalty>
0.00401767

> <i_epik_Tot_Q>
0

> <i_epik_Tot_abs_Q>
0

> <r_epik_Metal_State_Penalty>
-0

> <b_epik_Metal_Only>
0

> <s_lp_Force_Field>
OPLS_2005

> <r_lp_Energy>
68.4818

> <b_lp_Chiralities_Consistent>
1

> <s_lp_Variant>
AV-unprocessed.smi:148-29

> <Gold.Version>
5.8.1

> <Gold.Id.Protein>
6NUR|6NUR_protein|mol2

> <Gold.PLP.Fitness>
39.4403

> <Gold.PLP.PLP>
-33.2907

> <Gold.PLP.part.hbond>
-2.8280

> <Gold.PLP.part.metal>
0.0000

> <Gold.PLP.part.buried>
-3.7480

> <Gold.PLP.part.nonpolar>
-26.1025

> <Gold.PLP.part.repulsive>
0.1947

> <Gold.PLP.ligand.clash>
0.0000

> <Gold.PLP.ligand.torsion>
0.9742

> <Gold.PLP.Chemscore.Hbond>
2.5387

> <Gold.PLP.Chemscore.CHOScore>
0.0000

> <Gold.PLP.Chemscore.Metal>
0.0000

> <Gold.Chemscore.Hbonds>
donor molecule, donor type, donor heavy atom, donor atom, acceptor molecule, acceptor atom, score
      L1  H     1    31       P1  7957  0.51
      L1  H    21    55       P1  7948  1.00
      P1  H  7989  7998       L1     1  1.00

> <Gold.PLP.Chemscore.Internal.Correction>
0.4817

> <Gold.Rescore>
     Score         DG    S(hbond)    S(metal)    S(lipo)     H(rot)  DE(clash)    DE(int)     intcor
     12.44     -14.92       2.29        0.00      87.99       3.32       0.14       2.34       ----

> <Gold.Chemscore.Fitness>
12.4364

> <Gold.Chemscore.DG>
-14.9175

> <Gold.Chemscore.ZeroCoef>
-5.4800

> <Gold.Chemscore.Hbond>
2.2882

> <Gold.Chemscore.Metal>
0.0000

> <Gold.Chemscore.Lipo>
87.9897

> <Gold.Chemscore.Internal_Hbond>
0.0000

> <Gold.Chemscore.DEClash>
0.1392

> <Gold.Chemscore.DEInternal>
2.3419

> <Gold.Chemscore.Rot>
3.3203

> <Gold.Chemscore.Internal.Correction>
   9.000000E+99

> <Gold.Chemscore.Hbonds>
donor molecule, donor type, donor heavy atom, donor atom, acceptor molecule, acceptor atom, score
      L1  H     1    31       P1  7957  0.50
      L1  H    21    55       P1  7948  1.00
      P1  H  7989  7998       L1     1  0.12

> <Gold.Chemscore.Hbond.Weighted>
-7.6427

> <Gold.Chemscore.Metal.Weighted>
-0.0000

> <Gold.Chemscore.Lipo.Weighted>
-10.2948

> <Gold.Chemscore.Internal_Hbond.Weighted>
0.0000

> <Gold.Chemscore.DEClash.Weighted>
0.1392

> <Gold.Chemscore.DEInternal.Weighted>
2.3419

> <Gold.Chemscore.Rot.Weighted>
8.5000

> <Gold.Chemscore.Internal.Correction.Weighted>
   9.000000E+99

> <Gold.Protein.RotatedTorsions>
[ 6907 6896 6895 6894 ] final  165.11 input  -60.11 | X-H torsion
[ 7974 7965 7964 7962 ] final  163.42 input  175.53 | X-H torsion
[ 8008 7997 7996 7995 ] final  136.74 input   59.86 | X-H torsion
[ 10167 10162 10161 10158 ] final   81.77 input  -65.29 | X-H torsion
[ 10718 10713 10712 10709 ] final -177.61 input   66.30 | X-H torsion
[ 10763 10752 10751 10750 ] final -109.28 input  -60.55 | X-H torsion
[ 11005 11000 10999 10996 ] final   76.27 input  -57.11 | X-H torsion

> <Gold.Protein.ActiveResidues>
 VAL166  LYS551  ARG553  GLY616  TRP617  ASP618  TYR619  PRO620  LYS621  CYS622 
 ASP623  PHE694  ASN695  SER759  ASP760  ASP761  ALA762  ILE779  LEU786  VAL792 
 PHE793  MET794  SER795  GLU796  ALA797  LYS798  CYS799  TRP800  GLU811  SER814 

> <Gold.Protein.RotatedAtoms>
  151.8994  133.3534  159.3825 H   0  0  0  0  0  0  0  0  0  0  0  0  # atno 6907 bound_to 6896
  150.7084  134.4843  159.5495 H   0  0  0  0  0  0  0  0  0  0  0  0  # atno 6908 bound_to 6896
  152.2429  134.8211  160.0508 H   0  0  0  0  0  0  0  0  0  0  0  0  # atno 6909 bound_to 6896
  144.7590  139.8180  143.6339 H   0  0  0  0  0  0  0  0  0  0  0  0  # atno 7974 bound_to 7965
  156.3003  140.2437  156.3796 H   0  0  0  0  0  0  0  0  0  0  0  0  # atno 8008 bound_to 7997
  154.8714  140.0416  157.1746 H   0  0  0  0  0  0  0  0  0  0  0  0  # atno 8009 bound_to 7997
  154.8792  140.2946  155.5439 H   0  0  0  0  0  0  0  0  0  0  0  0  # atno 8010 bound_to 7997
  139.9358  144.6122  150.8300 H   0  0  0  0  0  0  0  0  0  0  0  0  # atno 10167 bound_to 10162
  156.8320  130.9656  151.3106 H   0  0  0  0  0  0  0  0  0  0  0  0  # atno 10718 bound_to 10713
  154.8184  135.4607  154.0708 H   0  0  0  0  0  0  0  0  0  0  0  0  # atno 10763 bound_to 10752
  153.2082  135.6878  153.8153 H   0  0  0  0  0  0  0  0  0  0  0  0  # atno 10764 bound_to 10752
  153.7614  135.3283  155.3314 H   0  0  0  0  0  0  0  0  0  0  0  0  # atno 10765 bound_to 10752
  139.9306  134.7587  156.1374 H   0  0  0  0  0  0  0  0  0  0  0  0  # atno 11005 bound_to 11000
  146.1634  139.4756  142.9974 LP  0  0  0  0  0  0  0  0  0  0  0  0  # atno 17320 bound_to 7965
  145.6681  141.0223  143.1672 LP  0  0  0  0  0  0  0  0  0  0  0  0  # atno 17321 bound_to 7965
  140.7625  143.3199  151.2645 LP  0  0  0  0  0  0  0  0  0  0  0  0  # atno 17342 bound_to 10162
  139.6745  143.9962  152.2773 LP  0  0  0  0  0  0  0  0  0  0  0  0  # atno 17343 bound_to 10162
  157.6401  130.8799  149.9433 LP  0  0  0  0  0  0  0  0  0  0  0  0  # atno 17370 bound_to 10713
  156.0928  130.3662  150.0362 LP  0  0  0  0  0  0  0  0  0  0  0  0  # atno 17371 bound_to 10713
  141.0892  133.6721  156.2503 LP  0  0  0  0  0  0  0  0  0  0  0  0  # atno 17394 bound_to 11000
  140.6213  134.5358  157.5548 LP  0  0  0  0  0  0  0  0  0  0  0  0  # atno 17395 bound_to 11000

$$$$
