AV-unprocessed.smi:3257|AV-procd|sdf|12467|dock7
  -GOLD-   2272018363D 1   1.00000     0.00000
 Structure written by MMmdl.
 38 39  0  0  0  0  0  0  0  0  1 V2000
  153.2431  142.2615  162.1198 C   0  0  0  0  0  0  0  0  0  0  0  0
  152.6502  143.1737  161.1653 N   0  0  0  0  0  0  0  0  0  0  0  0
  152.4907  143.0116  159.8062 C   0  0  0  0  0  0  0  0  0  0  0  0
  151.8805  144.1369  159.3275 C   0  0  0  0  0  0  0  0  0  0  0  0
  151.4797  144.4611  157.9158 C   0  0  0  0  0  0  0  0  0  0  0  0
  151.7862  143.2963  156.9606 C   0  0  0  0  0  0  0  0  0  0  0  0
  150.5690  142.6100  156.5447 N   0  0  0  0  0  0  0  0  0  0  0  0
  150.3651  141.2829  156.6022 C   0  0  0  0  0  0  0  0  0  0  0  0
  151.2218  140.5090  157.0319 O   0  0  0  0  0  0  0  0  0  0  0  0
  149.1454  140.8752  156.1666 N   0  0  0  0  0  0  0  0  0  0  0  0
  148.2101  141.6530  155.3336 C   0  0  0  0  0  0  0  0  0  0  0  0
  148.1989  141.0605  153.9125 C   0  0  0  0  0  0  0  0  0  0  0  0
  147.8255  139.5652  153.9494 C   0  0  0  0  0  0  0  0  0  0  0  0
  147.9734  139.0017  152.6633 O   0  0  0  0  0  0  0  0  0  0  0  0
  148.6913  138.7909  154.9631 C   0  0  0  0  0  0  0  0  0  0  0  0
  148.6829  139.4906  156.3350 C   0  0  0  0  0  0  0  0  0  0  0  0
  151.7109  144.9407  160.4908 C   0  0  0  0  0  0  0  0  0  0  0  0
  152.1724  144.3623  161.5879 N   0  0  0  0  0  0  0  0  0  0  0  0
  153.3812  141.2812  161.6626 H   0  0  0  0  0  0  0  0  0  0  0  0
  152.5929  142.1571  162.9893 H   0  0  0  0  0  0  0  0  0  0  0  0
  154.2123  142.6442  162.4398 H   0  0  0  0  0  0  0  0  0  0  0  0
  152.8188  142.1176  159.2964 H   0  0  0  0  0  0  0  0  0  0  0  0
  150.4165  144.6997  157.8689 H   0  0  0  0  0  0  0  0  0  0  0  0
  151.9987  145.3560  157.5705 H   0  0  0  0  0  0  0  0  0  0  0  0
  152.2804  143.6707  156.0636 H   0  0  0  0  0  0  0  0  0  0  0  0
  152.4778  142.5904  157.4245 H   0  0  0  0  0  0  0  0  0  0  0  0
  149.8223  143.1861  156.1848 H   0  0  0  0  0  0  0  0  0  0  0  0
  147.2114  141.5916  155.7682 H   0  0  0  0  0  0  0  0  0  0  0  0
  148.4362  142.7180  155.2871 H   0  0  0  0  0  0  0  0  0  0  0  0
  147.4959  141.6083  153.2840 H   0  0  0  0  0  0  0  0  0  0  0  0
  149.1845  141.1880  153.4617 H   0  0  0  0  0  0  0  0  0  0  0  0
  146.7778  139.4703  154.2372 H   0  0  0  0  0  0  0  0  0  0  0  0
  148.6477  139.4769  152.2020 H   0  0  0  0  0  0  0  0  0  0  0  0
  148.3289  137.7673  155.0626 H   0  0  0  0  0  0  0  0  0  0  0  0
  149.7184  138.7230  154.6006 H   0  0  0  0  0  0  0  0  0  0  0  0
  149.2896  138.9250  157.0434 H   0  0  0  0  0  0  0  0  0  0  0  0
  147.6736  139.4935  156.7488 H   0  0  0  0  0  0  0  0  0  0  0  0
  151.2680  145.9226  160.5693 H   0  0  0  0  0  0  0  0  0  0  0  0
  1  2  1  0  0  0  0
  1 19  1  0  0  0  0
  1 20  1  0  0  0  0
  1 21  1  0  0  0  0
  2 18  1  0  0  0  0
  2  3  1  0  0  0  0
  3  4  2  0  0  0  0
  3 22  1  0  0  0  0
  4  5  1  0  0  0  0
  4 17  1  0  0  0  0
  5  6  1  0  0  0  0
  5 23  1  0  0  0  0
  5 24  1  0  0  0  0
  6  7  1  0  0  0  0
  6 25  1  0  0  0  0
  6 26  1  0  0  0  0
  7  8  1  0  0  0  0
  7 27  1  0  0  0  0
  8  9  2  0  0  0  0
  8 10  1  0  0  0  0
 10 16  1  0  0  0  0
 10 11  1  0  0  0  0
 11 12  1  0  0  0  0
 11 28  1  0  0  0  0
 11 29  1  0  0  0  0
 12 13  1  0  0  0  0
 12 30  1  0  0  0  0
 12 31  1  0  0  0  0
 13 14  1  0  0  0  0
 13 15  1  0  0  0  0
 13 32  1  0  0  0  0
 14 33  1  0  0  0  0
 15 16  1  0  0  0  0
 15 34  1  0  0  0  0
 15 35  1  0  0  0  0
 16 36  1  0  0  0  0
 16 37  1  0  0  0  0
 17 18  2  0  0  0  0
 17 38  1  0  0  0  0
M  END
> <s_m_source_file>
AV-unprocessed.smi

> <i_m_source_file_index>
3257

> <i_lp_mmshare_version>
43012

> <i_f3d_flags>
0

> <s_epik_input>
W0NIM11uMVtjSF1jKFtjSF1uMSlbQ0gyXVtDSDJdW05IXUMoPU8pTjJbQ0gyXVtDSDJdW0NIXShbT0hdKVtDSDJdW0NIMl0y

> <s_epik_cmdline>
J2VwaWtfcHl0aG9uJywgJy1waCcsICc3LjAnLCAnLXRuJywgJzgnLCAnLW1hJywgJzIwMCcsICctbWV0YWxfYmluZGluZycsICctaW1hZScsICc8aW5maWxlLm1hZT4nLCAnLW9tYWUnLCAnPG91dGZpbGUubWFlPic=

> <r_lp_tautomer_probability>
1

> <r_epik_Ionization_Penalty>
0.000563034

> <r_epik_Ionization_Penalty_Charging>
0

> <r_epik_Ionization_Penalty_Neutral>
0.000563034

> <r_epik_State_Penalty>
-0

> <r_epik_Charging_Adjusted_Penalty>
0

> <i_epik_Tot_Q>
0

> <i_epik_Tot_abs_Q>
0

> <r_epik_Metal_State_Penalty>
-0

> <b_epik_Metal_Only>
0

> <s_lp_Force_Field>
OPLS_2005

> <r_lp_Energy>
25.1646

> <b_lp_Chiralities_Consistent>
1

> <s_lp_Variant>
AV-unprocessed.smi:3257-1

> <Gold.Version>
5.8.1

> <Gold.Id.Protein>
6NUR|6NUR_protein|mol2

> <Gold.PLP.Fitness>
44.3943

> <Gold.PLP.PLP>
-39.2782

> <Gold.PLP.part.hbond>
-2.7221

> <Gold.PLP.part.metal>
0.0000

> <Gold.PLP.part.buried>
-6.0012

> <Gold.PLP.part.nonpolar>
-31.6070

> <Gold.PLP.part.repulsive>
0.2597

> <Gold.PLP.ligand.clash>
0.0000

> <Gold.PLP.ligand.torsion>
0.4603

> <Gold.PLP.Chemscore.Hbond>
2.0000

> <Gold.PLP.Chemscore.CHOScore>
0.0000

> <Gold.PLP.Chemscore.Metal>
0.0000

> <Gold.Chemscore.Hbonds>
donor molecule, donor type, donor heavy atom, donor atom, acceptor molecule, acceptor atom, score
      L1  H     7    27       P1  8028  1.00
      L1  H    14    33       P1  7957  0.96

> <Gold.PLP.Chemscore.Internal.Correction>
0.0367

> <Gold.Rescore>
     Score         DG    S(hbond)    S(metal)    S(lipo)     H(rot)  DE(clash)    DE(int)     intcor
     16.41     -18.24       1.99        0.00      94.75       1.95       1.39       0.44       ----

> <Gold.Chemscore.Fitness>
16.4094

> <Gold.Chemscore.DG>
-18.2388

> <Gold.Chemscore.ZeroCoef>
-5.4800

> <Gold.Chemscore.Hbond>
1.9920

> <Gold.Chemscore.Metal>
0.0000

> <Gold.Chemscore.Lipo>
94.7484

> <Gold.Chemscore.Internal_Hbond>
0.0000

> <Gold.Chemscore.DEClash>
1.3900

> <Gold.Chemscore.DEInternal>
0.4394

> <Gold.Chemscore.Rot>
1.9454

> <Gold.Chemscore.Internal.Correction>
   9.000000E+99

> <Gold.Chemscore.Hbonds>
donor molecule, donor type, donor heavy atom, donor atom, acceptor molecule, acceptor atom, score
      L1  H     7    27       P1  8028  0.99
      L1  H    14    33       P1  7957  0.90

> <Gold.Chemscore.Hbond.Weighted>
-6.6534

> <Gold.Chemscore.Metal.Weighted>
-0.0000

> <Gold.Chemscore.Lipo.Weighted>
-11.0856

> <Gold.Chemscore.Internal_Hbond.Weighted>
0.0000

> <Gold.Chemscore.DEClash.Weighted>
1.3900

> <Gold.Chemscore.DEInternal.Weighted>
0.4394

> <Gold.Chemscore.Rot.Weighted>
4.9802

> <Gold.Chemscore.Internal.Correction.Weighted>
   9.000000E+99

> <Gold.Protein.RotatedTorsions>
[ 6907 6896 6895 6894 ] final  -38.00 input  -60.11 | X-H torsion
[ 7974 7965 7964 7962 ] final -115.94 input  175.53 | X-H torsion
[ 8008 7997 7996 7995 ] final  -33.65 input   59.86 | X-H torsion
[ 10167 10162 10161 10158 ] final  179.72 input  -65.29 | X-H torsion
[ 10718 10713 10712 10709 ] final  168.84 input   66.30 | X-H torsion
[ 10763 10752 10751 10750 ] final    3.88 input  -60.55 | X-H torsion
[ 11005 11000 10999 10996 ] final   43.52 input  -57.11 | X-H torsion

> <Gold.Protein.ActiveResidues>
 VAL166  LYS551  ARG553  GLY616  TRP617  ASP618  TYR619  PRO620  LYS621  CYS622 
 ASP623  PHE694  ASN695  SER759  ASP760  ASP761  ALA762  ILE779  LEU786  VAL792 
 PHE793  MET794  SER795  GLU796  ALA797  LYS798  CYS799  TRP800  GLU811  SER814 

> <Gold.Protein.RotatedAtoms>
  151.0077  134.9372  159.7989 H   0  0  0  0  0  0  0  0  0  0  0  0  # atno 6907 bound_to 6896
  152.5294  134.3069  159.9109 H   0  0  0  0  0  0  0  0  0  0  0  0  # atno 6908 bound_to 6896
  151.3075  133.4053  159.2678 H   0  0  0  0  0  0  0  0  0  0  0  0  # atno 6909 bound_to 6896
  145.1026  140.8561  143.3917 H   0  0  0  0  0  0  0  0  0  0  0  0  # atno 7974 bound_to 7965
  154.4143  140.1705  156.1922 H   0  0  0  0  0  0  0  0  0  0  0  0  # atno 8008 bound_to 7997
  155.9594  140.3394  155.6453 H   0  0  0  0  0  0  0  0  0  0  0  0  # atno 8009 bound_to 7997
  155.6768  140.0718  157.2490 H   0  0  0  0  0  0  0  0  0  0  0  0  # atno 8010 bound_to 7997
  139.5348  144.2528  152.0771 H   0  0  0  0  0  0  0  0  0  0  0  0  # atno 10167 bound_to 10162
  157.0313  131.0260  151.2744 H   0  0  0  0  0  0  0  0  0  0  0  0  # atno 10718 bound_to 10713
  153.2780  135.6938  153.7414 H   0  0  0  0  0  0  0  0  0  0  0  0  # atno 10763 bound_to 10752
  153.6412  135.3393  155.3072 H   0  0  0  0  0  0  0  0  0  0  0  0  # atno 10764 bound_to 10752
  154.8486  135.4432  154.1824 H   0  0  0  0  0  0  0  0  0  0  0  0  # atno 10765 bound_to 10752
  140.1637  134.4309  155.8301 H   0  0  0  0  0  0  0  0  0  0  0  0  # atno 11005 bound_to 11000
  145.0939  139.2871  143.5721 LP  0  0  0  0  0  0  0  0  0  0  0  0  # atno 17320 bound_to 7965
  146.3529  140.0484  142.8637 LP  0  0  0  0  0  0  0  0  0  0  0  0  # atno 17321 bound_to 7965
  140.1996  144.4671  150.6438 LP  0  0  0  0  0  0  0  0  0  0  0  0  # atno 17342 bound_to 10162
  140.6549  143.2235  151.5992 LP  0  0  0  0  0  0  0  0  0  0  0  0  # atno 17343 bound_to 10162
  157.5176  130.7977  149.7773 LP  0  0  0  0  0  0  0  0  0  0  0  0  # atno 17370 bound_to 10713
  156.0069  130.3851  150.2401 LP  0  0  0  0  0  0  0  0  0  0  0  0  # atno 17371 bound_to 10713
  141.2212  133.6925  156.7640 LP  0  0  0  0  0  0  0  0  0  0  0  0  # atno 17394 bound_to 11000
  140.2459  134.8578  157.3620 LP  0  0  0  0  0  0  0  0  0  0  0  0  # atno 17395 bound_to 11000

$$$$
