AV-unprocessed.smi:2638|AV-procd|sdf|10263|dock10
  -GOLD-   2272014273D 1   1.00000     0.00000
 Structure written by MMmdl.
 43 44  0  0  0  0  0  0  0  0  1 V2000
  144.4260  136.2894  152.5859 O   0  0  0  0  0  0  0  0  0  0  0  0
  145.6258  136.2579  152.3134 C   0  0  0  0  0  0  0  0  0  0  0  0
  146.2374  135.2853  151.6151 N   0  0  0  0  0  0  0  0  0  0  0  0
  145.6735  134.1052  151.0607 C   0  0  0  0  0  0  0  0  0  0  0  0
  146.5033  133.0863  150.5246 C   0  0  0  0  0  0  0  0  0  0  0  0
  145.9142  131.9174  150.0052 C   0  0  0  0  0  0  0  0  0  0  0  0
  144.5149  131.7868  150.0452 C   0  0  0  0  0  0  0  0  0  0  0  0
  143.7685  132.8350  150.6130 C   0  0  0  0  0  0  0  0  0  0  0  0
  144.3295  133.9571  151.1117 N   0  0  0  0  0  0  0  0  0  0  0  0
  146.5042  137.1996  152.6966 N   0  0  0  0  0  0  0  0  0  0  0  0
  146.2252  138.4172  153.4689 C   0  0  1  0  0  0  0  0  0  0  0  0
  145.6407  138.0753  154.8649 C   0  0  0  0  0  0  0  0  0  0  0  0
  144.9567  139.2614  155.5676 C   0  0  0  0  0  0  0  0  0  0  0  0
  143.6542  139.4355  155.0534 O   0  0  0  0  0  0  0  0  0  0  0  0
  147.4456  139.3885  153.5014 C   0  0  0  0  0  0  0  0  0  0  0  0
  148.6378  138.8157  154.3073 C   0  0  0  0  0  0  0  0  0  0  0  0
  149.8318  139.7833  154.3573 C   0  0  0  0  0  0  0  0  0  0  0  0
  149.4232  141.1492  154.9221 C   0  0  0  0  0  0  0  0  0  0  0  0
  148.2640  141.7423  154.1125 C   0  0  0  0  0  0  0  0  0  0  0  0
  147.0666  140.7806  154.0694 C   0  0  0  0  0  0  0  0  0  0  0  0
  147.2431  135.3471  151.5591 H   0  0  0  0  0  0  0  0  0  0  0  0
  147.5790  133.1750  150.5140 H   0  0  0  0  0  0  0  0  0  0  0  0
  146.5271  131.1315  149.5891 H   0  0  0  0  0  0  0  0  0  0  0  0
  144.0273  130.9046  149.6575 H   0  0  0  0  0  0  0  0  0  0  0  0
  142.6921  132.7706  150.6713 H   0  0  0  0  0  0  0  0  0  0  0  0
  147.4671  137.0656  152.4250 H   0  0  0  0  0  0  0  0  0  0  0  0
  145.4335  138.9217  152.9137 H   0  0  0  0  0  0  0  0  0  0  0  0
  144.9389  137.2444  154.7841 H   0  0  0  0  0  0  0  0  0  0  0  0
  146.4401  137.7298  155.5190 H   0  0  0  0  0  0  0  0  0  0  0  0
  144.8923  139.0857  156.6417 H   0  0  0  0  0  0  0  0  0  0  0  0
  145.5130  140.1871  155.4190 H   0  0  0  0  0  0  0  0  0  0  0  0
  143.7099  139.5169  154.1136 H   0  0  0  0  0  0  0  0  0  0  0  0
  147.7917  139.5342  152.4774 H   0  0  0  0  0  0  0  0  0  0  0  0
  148.3169  138.5812  155.3230 H   0  0  0  0  0  0  0  0  0  0  0  0
  148.9873  137.8820  153.8692 H   0  0  0  0  0  0  0  0  0  0  0  0
  150.6304  139.3555  154.9639 H   0  0  0  0  0  0  0  0  0  0  0  0
  150.2411  139.9097  153.3541 H   0  0  0  0  0  0  0  0  0  0  0  0
  149.1261  141.0418  155.9660 H   0  0  0  0  0  0  0  0  0  0  0  0
  150.2752  141.8295  154.9092 H   0  0  0  0  0  0  0  0  0  0  0  0
  147.9588  142.6953  154.5456 H   0  0  0  0  0  0  0  0  0  0  0  0
  148.5971  141.9571  153.0963 H   0  0  0  0  0  0  0  0  0  0  0  0
  146.2819  141.2439  153.4717 H   0  0  0  0  0  0  0  0  0  0  0  0
  146.6585  140.6668  155.0745 H   0  0  0  0  0  0  0  0  0  0  0  0
  1  2  2  0  0  0  0
  2  3  1  0  0  0  0
  2 10  1  0  0  0  0
  3  4  1  0  0  0  0
  3 21  1  0  0  0  0
  4  9  1  0  0  0  0
  4  5  2  0  0  0  0
  5  6  1  0  0  0  0
  5 22  1  0  0  0  0
  6  7  2  0  0  0  0
  6 23  1  0  0  0  0
  7  8  1  0  0  0  0
  7 24  1  0  0  0  0
  8  9  2  0  0  0  0
  8 25  1  0  0  0  0
 10 11  1  0  0  0  0
 10 26  1  0  0  0  0
 11 12  1  0  0  0  0
 11 15  1  0  0  0  0
 11 27  1  0  0  0  0
 12 13  1  0  0  0  0
 12 28  1  0  0  0  0
 12 29  1  0  0  0  0
 13 14  1  0  0  0  0
 13 30  1  0  0  0  0
 13 31  1  0  0  0  0
 14 32  1  0  0  0  0
 15 20  1  0  0  0  0
 15 16  1  0  0  0  0
 15 33  1  0  0  0  0
 16 17  1  0  0  0  0
 16 34  1  0  0  0  0
 16 35  1  0  0  0  0
 17 18  1  0  0  0  0
 17 36  1  0  0  0  0
 17 37  1  0  0  0  0
 18 19  1  0  0  0  0
 18 38  1  0  0  0  0
 18 39  1  0  0  0  0
 19 20  1  0  0  0  0
 19 40  1  0  0  0  0
 19 41  1  0  0  0  0
 20 42  1  0  0  0  0
 20 43  1  0  0  0  0
M  END
> <s_m_source_file>
AV-unprocessed.smi

> <i_m_source_file_index>
2638

> <i_lp_mmshare_version>
43012

> <i_f3d_flags>
0

> <s_epik_input>
bjFbY0hdW2NIXVtjSF1bY0hdYzFbTkhdQyg9TylbTkhdW0NASF0oW0NIMl1bQ0gyXVtPSF0pW0NIXTJbQ0gyXVtDSDJdW0NIMl1bQ0gyXVtDSDJdMg==

> <s_epik_cmdline>
J2VwaWtfcHl0aG9uJywgJy1waCcsICc3LjAnLCAnLXRuJywgJzgnLCAnLW1hJywgJzIwMCcsICctbWV0YWxfYmluZGluZycsICctaW1hZScsICc8aW5maWxlLm1hZT4nLCAnLW9tYWUnLCAnPG91dGZpbGUubWFlPic=

> <r_lp_tautomer_probability>
1

> <r_epik_Ionization_Penalty>
5.22449e-05

> <r_epik_Ionization_Penalty_Charging>
0

> <r_epik_Ionization_Penalty_Neutral>
5.22449e-05

> <r_epik_State_Penalty>
-0

> <r_epik_Charging_Adjusted_Penalty>
0

> <i_epik_Tot_Q>
0

> <i_epik_Tot_abs_Q>
0

> <r_epik_Metal_State_Penalty>
-0

> <b_epik_Metal_Only>
0

> <s_lp_Force_Field>
OPLS_2005

> <r_lp_Energy>
21.512

> <b_lp_Chiralities_Consistent>
1

> <s_lp_Variant>
AV-unprocessed.smi:2638-2

> <Gold.Version>
5.8.1

> <Gold.Id.Protein>
6NUR|6NUR_protein|mol2

> <Gold.PLP.Fitness>
46.5730

> <Gold.PLP.PLP>
-35.0636

> <Gold.PLP.part.hbond>
-3.0000

> <Gold.PLP.part.metal>
0.0000

> <Gold.PLP.part.buried>
-2.7613

> <Gold.PLP.part.nonpolar>
-30.1512

> <Gold.PLP.part.repulsive>
0.3995

> <Gold.PLP.ligand.clash>
0.0000

> <Gold.PLP.ligand.torsion>
0.2923

> <Gold.PLP.Chemscore.Hbond>
3.0000

> <Gold.PLP.Chemscore.CHOScore>
0.9940

> <Gold.PLP.Chemscore.Metal>
0.0000

> <Gold.Chemscore.Hbonds>
donor molecule, donor type, donor heavy atom, donor atom, acceptor molecule, acceptor atom, score
      L1  H     3    21       P1  7948  1.00
      L1  H    10    26       P1  7948  1.00
      L1  H    14    32       P1 10175  1.00
      L1  C     8    25       P1 10186  0.75

> <Gold.PLP.Chemscore.Internal.Correction>
0.1120

> <Gold.Rescore>
     Score         DG    S(hbond)    S(metal)    S(lipo)     H(rot)  DE(clash)    DE(int)     intcor
     17.54     -19.42       2.91        0.00      86.27       2.30       0.03       1.85       ----

> <Gold.Chemscore.Fitness>
17.5402

> <Gold.Chemscore.DG>
-19.4205

> <Gold.Chemscore.ZeroCoef>
-5.4800

> <Gold.Chemscore.Hbond>
2.9125

> <Gold.Chemscore.Metal>
0.0000

> <Gold.Chemscore.Lipo>
86.2708

> <Gold.Chemscore.Internal_Hbond>
0.0000

> <Gold.Chemscore.DEClash>
0.0343

> <Gold.Chemscore.DEInternal>
1.8461

> <Gold.Chemscore.Rot>
2.2972

> <Gold.Chemscore.Internal.Correction>
   9.000000E+99

> <Gold.Chemscore.Hbonds>
donor molecule, donor type, donor heavy atom, donor atom, acceptor molecule, acceptor atom, score
      L1  H     3    21       P1  7948  0.92
      L1  H    10    26       P1  7948  1.00
      L1  H    14    32       P1 10175  0.98

> <Gold.Chemscore.Hbond.Weighted>
-9.7276

> <Gold.Chemscore.Metal.Weighted>
-0.0000

> <Gold.Chemscore.Lipo.Weighted>
-10.0937

> <Gold.Chemscore.Internal_Hbond.Weighted>
0.0000

> <Gold.Chemscore.DEClash.Weighted>
0.0343

> <Gold.Chemscore.DEInternal.Weighted>
1.8461

> <Gold.Chemscore.Rot.Weighted>
5.8807

> <Gold.Chemscore.Internal.Correction.Weighted>
   9.000000E+99

> <Gold.Protein.RotatedTorsions>
[ 6907 6896 6895 6894 ] final -165.11 input  -60.11 | X-H torsion
[ 7974 7965 7964 7962 ] final  -66.22 input  175.53 | X-H torsion
[ 8008 7997 7996 7995 ] final -167.86 input   59.86 | X-H torsion
[ 10167 10162 10161 10158 ] final -101.01 input  -65.29 | X-H torsion
[ 10718 10713 10712 10709 ] final  -84.65 input   66.30 | X-H torsion
[ 10763 10752 10751 10750 ] final  158.38 input  -60.55 | X-H torsion
[ 11005 11000 10999 10996 ] final  126.95 input  -57.11 | X-H torsion

> <Gold.Protein.ActiveResidues>
 VAL166  LYS551  ARG553  GLY616  TRP617  ASP618  TYR619  PRO620  LYS621  CYS622 
 ASP623  PHE694  ASN695  SER759  ASP760  ASP761  ALA762  ILE779  LEU786  VAL792 
 PHE793  MET794  SER795  GLU796  ALA797  LYS798  CYS799  TRP800  GLU811  SER814 

> <Gold.Protein.RotatedAtoms>
  151.4225  133.3694  159.2757 H   0  0  0  0  0  0  0  0  0  0  0  0  # atno 6907 bound_to 6896
  150.9283  134.8701  159.7545 H   0  0  0  0  0  0  0  0  0  0  0  0  # atno 6908 bound_to 6896
  152.5016  134.4168  159.9519 H   0  0  0  0  0  0  0  0  0  0  0  0  # atno 6909 bound_to 6896
  145.7445  140.8938  143.0512 H   0  0  0  0  0  0  0  0  0  0  0  0  # atno 7974 bound_to 7965
  155.8835  140.1013  157.1469 H   0  0  0  0  0  0  0  0  0  0  0  0  # atno 8008 bound_to 7997
  154.4007  140.1324  156.4289 H   0  0  0  0  0  0  0  0  0  0  0  0  # atno 8009 bound_to 7997
  155.7616  140.3463  155.5203 H   0  0  0  0  0  0  0  0  0  0  0  0  # atno 8010 bound_to 7997
  140.2458  143.3507  152.0760 H   0  0  0  0  0  0  0  0  0  0  0  0  # atno 10167 bound_to 10162
  156.0004  130.4705  150.4441 H   0  0  0  0  0  0  0  0  0  0  0  0  # atno 10718 bound_to 10713
  154.2152  135.2784  155.2944 H   0  0  0  0  0  0  0  0  0  0  0  0  # atno 10763 bound_to 10752
  154.5746  135.5608  153.7131 H   0  0  0  0  0  0  0  0  0  0  0  0  # atno 10764 bound_to 10752
  153.0055  135.6330  154.2291 H   0  0  0  0  0  0  0  0  0  0  0  0  # atno 10765 bound_to 10752
  139.9482  134.9626  156.8783 H   0  0  0  0  0  0  0  0  0  0  0  0  # atno 11005 bound_to 11000
  144.6863  139.9506  143.7478 LP  0  0  0  0  0  0  0  0  0  0  0  0  # atno 17320 bound_to 7965
  146.0416  139.3427  143.0694 LP  0  0  0  0  0  0  0  0  0  0  0  0  # atno 17321 bound_to 7965
  139.5062  144.6809  151.6010 LP  0  0  0  0  0  0  0  0  0  0  0  0  # atno 17342 bound_to 10162
  140.6078  143.9491  150.6431 LP  0  0  0  0  0  0  0  0  0  0  0  0  # atno 17343 bound_to 10162
  157.2480  131.0540  151.2396 LP  0  0  0  0  0  0  0  0  0  0  0  0  # atno 17370 bound_to 10713
  157.3556  130.7104  149.6468 LP  0  0  0  0  0  0  0  0  0  0  0  0  # atno 17371 bound_to 10713
  140.5782  134.0378  155.7454 LP  0  0  0  0  0  0  0  0  0  0  0  0  # atno 17394 bound_to 11000
  141.1139  133.9572  157.2859 LP  0  0  0  0  0  0  0  0  0  0  0  0  # atno 17395 bound_to 11000

$$$$
