AV-unprocessed.smi:1543|AV-procd|sdf|6205|dock9
  -GOLD-   22720 6373D 1   1.00000     0.00000
 Structure written by MMmdl.
 48 49  0  0  0  0  0  0  0  0  1 V2000
  152.8759  138.6298  154.5591 C   0  0  0  0  0  0  0  0  0  0  0  0
  151.6003  137.7806  154.5395 C   0  0  2  0  0  0  0  0  0  0  0  0
  150.3301  138.6441  154.6462 C   0  0  0  0  0  0  0  0  0  0  0  0
  149.1143  137.8291  154.7224 N   0  0  0  0  0  0  0  0  0  0  0  0
  147.8369  138.5940  154.6595 C   0  0  0  0  0  0  0  0  0  0  0  0
  147.6419  139.5440  155.8653 C   0  0  0  0  0  0  0  0  0  0  0  0
  147.7682  139.4604  153.3761 C   0  0  0  0  0  0  0  0  0  0  0  0
  146.6019  137.6476  154.6104 C   0  0  0  0  0  0  0  0  0  0  0  0
  146.7491  136.5941  153.6059 N   0  0  0  0  0  0  0  0  0  0  0  0
  145.7941  135.7406  153.2122 C   0  0  0  0  0  0  0  0  0  0  0  0
  144.6564  135.7274  153.6808 O   0  0  0  0  0  0  0  0  0  0  0  0
  146.2550  134.9125  152.2591 N   0  0  0  0  0  0  0  0  0  0  0  0
  145.5815  133.8529  151.5918 C   0  0  0  0  0  0  0  0  0  0  0  0
  146.2019  132.9339  150.7103 C   0  0  0  0  0  0  0  0  0  0  0  0
  145.4189  131.9214  150.1225 C   0  0  0  0  0  0  0  0  0  0  0  0
  144.0490  131.8588  150.4421 C   0  0  0  0  0  0  0  0  0  0  0  0
  143.4470  132.7190  151.2896 N   0  0  0  0  0  0  0  0  0  0  0  0
  144.2038  133.6871  151.8488 C   0  0  0  0  0  0  0  0  0  0  0  0
  149.2344  136.9215  155.8689 C   0  0  0  0  0  0  0  0  0  0  0  0
  150.5044  136.0515  155.8076 C   0  0  1  0  0  0  0  0  0  0  0  0
  150.4249  134.9415  154.7453 C   0  0  0  0  0  0  0  0  0  0  0  0
  151.6590  136.8731  155.6371 O   0  0  0  0  0  0  0  0  0  0  0  0
  152.8873  139.3409  153.7328 H   0  0  0  0  0  0  0  0  0  0  0  0
  153.7631  138.0024  154.4695 H   0  0  0  0  0  0  0  0  0  0  0  0
  152.9595  139.1944  155.4880 H   0  0  0  0  0  0  0  0  0  0  0  0
  151.5784  137.2176  153.6058 H   0  0  0  0  0  0  0  0  0  0  0  0
  150.4066  139.2854  155.5247 H   0  0  0  0  0  0  0  0  0  0  0  0
  150.3052  139.2996  153.7779 H   0  0  0  0  0  0  0  0  0  0  0  0
  146.7040  140.0945  155.7816 H   0  0  0  0  0  0  0  0  0  0  0  0
  148.4361  140.2870  155.9361 H   0  0  0  0  0  0  0  0  0  0  0  0
  147.6062  139.0051  156.8118 H   0  0  0  0  0  0  0  0  0  0  0  0
  146.7724  139.8807  153.2297 H   0  0  0  0  0  0  0  0  0  0  0  0
  148.0079  138.8792  152.4847 H   0  0  0  0  0  0  0  0  0  0  0  0
  148.4514  140.3086  153.4106 H   0  0  0  0  0  0  0  0  0  0  0  0
  146.4333  137.1696  155.5751 H   0  0  0  0  0  0  0  0  0  0  0  0
  145.6946  138.2284  154.4352 H   0  0  0  0  0  0  0  0  0  0  0  0
  147.6513  136.5302  153.1575 H   0  0  0  0  0  0  0  0  0  0  0  0
  147.2304  135.0175  152.0205 H   0  0  0  0  0  0  0  0  0  0  0  0
  147.2549  132.9731  150.4811 H   0  0  0  0  0  0  0  0  0  0  0  0
  145.8600  131.2059  149.4441 H   0  0  0  0  0  0  0  0  0  0  0  0
  143.4213  131.0941  150.0090 H   0  0  0  0  0  0  0  0  0  0  0  0
  143.6883  134.3560  152.5227 H   0  0  0  0  0  0  0  0  0  0  0  0
  149.2560  137.4976  156.7943 H   0  0  0  0  0  0  0  0  0  0  0  0
  148.3765  136.2556  155.9384 H   0  0  0  0  0  0  0  0  0  0  0  0
  150.6202  135.5596  156.7736 H   0  0  0  0  0  0  0  0  0  0  0  0
  149.5997  134.2615  154.9584 H   0  0  0  0  0  0  0  0  0  0  0  0
  151.3421  134.3527  154.7282 H   0  0  0  0  0  0  0  0  0  0  0  0
  150.2645  135.3415  153.7443 H   0  0  0  0  0  0  0  0  0  0  0  0
  1  2  1  0  0  0  0
  1 23  1  0  0  0  0
  1 24  1  0  0  0  0
  1 25  1  0  0  0  0
  2 22  1  0  0  0  0
  2  3  1  0  0  0  0
  2 26  1  0  0  0  0
  3  4  1  0  0  0  0
  3 27  1  0  0  0  0
  3 28  1  0  0  0  0
  4  5  1  0  0  0  0
  4 19  1  0  0  0  0
  5  6  1  0  0  0  0
  5  7  1  0  0  0  0
  5  8  1  0  0  0  0
  6 29  1  0  0  0  0
  6 30  1  0  0  0  0
  6 31  1  0  0  0  0
  7 32  1  0  0  0  0
  7 33  1  0  0  0  0
  7 34  1  0  0  0  0
  8  9  1  0  0  0  0
  8 35  1  0  0  0  0
  8 36  1  0  0  0  0
  9 10  1  0  0  0  0
  9 37  1  0  0  0  0
 10 11  2  0  0  0  0
 10 12  1  0  0  0  0
 12 13  1  0  0  0  0
 12 38  1  0  0  0  0
 13 18  1  0  0  0  0
 13 14  2  0  0  0  0
 14 15  1  0  0  0  0
 14 39  1  0  0  0  0
 15 16  2  0  0  0  0
 15 40  1  0  0  0  0
 16 17  1  0  0  0  0
 16 41  1  0  0  0  0
 17 18  2  0  0  0  0
 18 42  1  0  0  0  0
 19 20  1  0  0  0  0
 19 43  1  0  0  0  0
 19 44  1  0  0  0  0
 20 21  1  0  0  0  0
 20 22  1  0  0  0  0
 20 45  1  0  0  0  0
 21 46  1  0  0  0  0
 21 47  1  0  0  0  0
 21 48  1  0  0  0  0
M  END
> <s_m_source_file>
AV-unprocessed.smi

> <i_m_source_file_index>
1543

> <i_lp_mmshare_version>
43012

> <i_f3d_flags>
0

> <s_epik_input>
W0NIM11bQ0BASF0xW0NIMl1OKFtDSDJdW0NASF0oTzEpW0NIM10pQyhbQ0gzXSkoW0NIM10pW0NIMl1bTkhdQyg9TylbTkhdYzJbY0hdW2NIXVtjSF1uW2NIXTI=

> <s_epik_cmdline>
J2VwaWtfcHl0aG9uJywgJy1waCcsICc3LjAnLCAnLXRuJywgJzgnLCAnLW1hJywgJzIwMCcsICctbWV0YWxfYmluZGluZycsICctaW1hZScsICc8aW5maWxlLm1hZT4nLCAnLW9tYWUnLCAnPG91dGZpbGUubWFlPic=

> <r_epik_Ionization_Penalty>
0.270794

> <r_epik_Ionization_Penalty_Charging>
0

> <r_epik_Ionization_Penalty_Neutral>
0.270794

> <r_epik_State_Penalty>
0.268291

> <r_epik_Charging_Adjusted_Penalty>
0.268291

> <i_epik_Tot_Q>
0

> <i_epik_Tot_abs_Q>
0

> <r_epik_Metal_State_Penalty>
0.264827

> <b_epik_Metal_Only>
0

> <s_lp_Force_Field>
OPLS_2005

> <r_lp_Energy>
46.6988

> <b_lp_Chiralities_Consistent>
1

> <s_lp_Variant>
AV-unprocessed.smi:1543-1

> <Gold.Version>
5.8.1

> <Gold.Id.Protein>
6NUR|6NUR_protein|mol2

> <Gold.PLP.Fitness>
42.8463

> <Gold.PLP.PLP>
-32.3844

> <Gold.PLP.part.hbond>
-3.0000

> <Gold.PLP.part.metal>
0.0000

> <Gold.PLP.part.buried>
-5.0673

> <Gold.PLP.part.nonpolar>
-26.1423

> <Gold.PLP.part.repulsive>
0.5246

> <Gold.PLP.ligand.clash>
0.0000

> <Gold.PLP.ligand.torsion>
0.1523

> <Gold.PLP.Chemscore.Hbond>
2.9913

> <Gold.PLP.Chemscore.CHOScore>
0.5796

> <Gold.PLP.Chemscore.Metal>
0.0000

> <Gold.Chemscore.Hbonds>
donor molecule, donor type, donor heavy atom, donor atom, acceptor molecule, acceptor atom, score
      L1  H     9    37       P1  7948  1.00
      L1  H    12    38       P1  7948  0.89
      P1  H 10752 10763       L1    22  0.83
      L1  C    16    41       P1 10952  0.47

> <Gold.PLP.Chemscore.Internal.Correction>
0.0540

> <Gold.Rescore>
     Score         DG    S(hbond)    S(metal)    S(lipo)     H(rot)  DE(clash)    DE(int)     intcor
     17.47     -19.07       2.05        0.00      89.04       1.43       0.02       1.58       ----

> <Gold.Chemscore.Fitness>
17.4744

> <Gold.Chemscore.DG>
-19.0746

> <Gold.Chemscore.ZeroCoef>
-5.4800

> <Gold.Chemscore.Hbond>
2.0466

> <Gold.Chemscore.Metal>
0.0000

> <Gold.Chemscore.Lipo>
89.0369

> <Gold.Chemscore.Internal_Hbond>
0.0000

> <Gold.Chemscore.DEClash>
0.0230

> <Gold.Chemscore.DEInternal>
1.5771

> <Gold.Chemscore.Rot>
1.4291

> <Gold.Chemscore.Internal.Correction>
   9.000000E+99

> <Gold.Chemscore.Hbonds>
donor molecule, donor type, donor heavy atom, donor atom, acceptor molecule, acceptor atom, score
      L1  H     9    37       P1  7948  1.00
      L1  H    12    38       P1  7948  0.79
      P1  H 10752 10763       L1    22  0.05

> <Gold.Chemscore.Hbond.Weighted>
-6.8358

> <Gold.Chemscore.Metal.Weighted>
-0.0000

> <Gold.Chemscore.Lipo.Weighted>
-10.4173

> <Gold.Chemscore.Internal_Hbond.Weighted>
0.0000

> <Gold.Chemscore.DEClash.Weighted>
0.0230

> <Gold.Chemscore.DEInternal.Weighted>
1.5771

> <Gold.Chemscore.Rot.Weighted>
3.6586

> <Gold.Chemscore.Internal.Correction.Weighted>
   9.000000E+99

> <Gold.Protein.RotatedTorsions>
[ 6907 6896 6895 6894 ] final   85.29 input  -60.11 | X-H torsion
[ 7974 7965 7964 7962 ] final  122.36 input  175.53 | X-H torsion
[ 8008 7997 7996 7995 ] final   76.90 input   59.86 | X-H torsion
[ 10167 10162 10161 10158 ] final   54.83 input  -65.29 | X-H torsion
[ 10718 10713 10712 10709 ] final   16.76 input   66.30 | X-H torsion
[ 10763 10752 10751 10750 ] final   75.41 input  -60.55 | X-H torsion
[ 11005 11000 10999 10996 ] final   70.73 input  -57.11 | X-H torsion

> <Gold.Protein.ActiveResidues>
 VAL166  LYS551  ARG553  GLY616  TRP617  ASP618  TYR619  PRO620  LYS621  CYS622 
 ASP623  PHE694  ASN695  SER759  ASP760  ASP761  ALA762  ILE779  LEU786  VAL792 
 PHE793  MET794  SER795  GLU796  ALA797  LYS798  CYS799  TRP800  GLU811  SER814 

> <Gold.Protein.RotatedAtoms>
  152.5371  134.2609  159.8934 H   0  0  0  0  0  0  0  0  0  0  0  0  # atno 6907 bound_to 6896
  151.2569  133.4315  159.2622 H   0  0  0  0  0  0  0  0  0  0  0  0  # atno 6908 bound_to 6896
  151.0488  134.9673  159.8257 H   0  0  0  0  0  0  0  0  0  0  0  0  # atno 6909 bound_to 6896
  145.1085  139.3469  143.4775 H   0  0  0  0  0  0  0  0  0  0  0  0  # atno 7974 bound_to 7965
  155.8340  140.3465  155.5590 H   0  0  0  0  0  0  0  0  0  0  0  0  # atno 8008 bound_to 7997
  155.8212  140.0913  157.1868 H   0  0  0  0  0  0  0  0  0  0  0  0  # atno 8009 bound_to 7997
  154.4004  140.1429  156.3489 H   0  0  0  0  0  0  0  0  0  0  0  0  # atno 8010 bound_to 7997
  140.2259  144.3739  150.6432 H   0  0  0  0  0  0  0  0  0  0  0  0  # atno 10167 bound_to 10162
  157.0724  130.6354  149.5808 H   0  0  0  0  0  0  0  0  0  0  0  0  # atno 10718 bound_to 10713
  153.0653  135.4990  154.8185 H   0  0  0  0  0  0  0  0  0  0  0  0  # atno 10763 bound_to 10752
  154.6944  135.2990  154.9436 H   0  0  0  0  0  0  0  0  0  0  0  0  # atno 10764 bound_to 10752
  154.0180  135.6745  153.4823 H   0  0  0  0  0  0  0  0  0  0  0  0  # atno 10765 bound_to 10752
  139.9582  134.7107  156.0706 H   0  0  0  0  0  0  0  0  0  0  0  0  # atno 11005 bound_to 11000
  146.3527  140.0994  142.8608 LP  0  0  0  0  0  0  0  0  0  0  0  0  # atno 17320 bound_to 7965
  145.0874  140.9261  143.4789 LP  0  0  0  0  0  0  0  0  0  0  0  0  # atno 17321 bound_to 7965
  140.6221  143.2177  151.6673 LP  0  0  0  0  0  0  0  0  0  0  0  0  # atno 17342 bound_to 10162
  139.5127  144.3467  152.0690 LP  0  0  0  0  0  0  0  0  0  0  0  0  # atno 17343 bound_to 10162
  155.9946  130.5011  150.7428 LP  0  0  0  0  0  0  0  0  0  0  0  0  # atno 17370 bound_to 10713
  157.4867  131.0907  151.0474 LP  0  0  0  0  0  0  0  0  0  0  0  0  # atno 17371 bound_to 10713
  141.1256  133.6600  156.3328 LP  0  0  0  0  0  0  0  0  0  0  0  0  # atno 17394 bound_to 11000
  140.5561  134.5980  157.5421 LP  0  0  0  0  0  0  0  0  0  0  0  0  # atno 17395 bound_to 11000

$$$$
