AV-unprocessed.smi:2532|AV-procd|sdf|9969|dock4
  -GOLD-   2272014 13D 1   1.00000     0.00000
 Structure written by MMmdl.
 36 38  0  0  0  0  0  0  0  0  1 V2000
  148.7230  142.4208  157.0787 O   0  0  0  0  0  0  0  0  0  0  0  0
  149.6764  141.5630  156.4820 C   0  0  1  0  0  0  0  0  0  0  0  0
  149.2311  141.2640  155.0415 C   0  0  0  0  0  0  0  0  0  0  0  0
  150.2208  140.4749  154.4025 O   0  0  0  0  0  0  0  0  0  0  0  0
  150.0494  139.0864  154.6374 C   0  0  0  0  0  0  0  0  0  0  0  0
  150.7874  138.7402  155.8910 C   0  0  0  0  0  0  0  0  0  0  0  0
  152.1453  138.7726  156.0840 C   0  0  0  0  0  0  0  0  0  0  0  0
  152.5364  138.4043  157.4047 C   0  0  0  0  0  0  0  0  0  0  0  0
  151.4703  138.1020  158.2092 C   0  0  0  0  0  0  0  0  0  0  0  0
  149.9594  138.2662  157.3568 S   0  0  0  0  0  0  0  0  0  0  0  0
  151.0582  142.2440  156.5252 C   0  0  0  0  0  0  0  0  0  0  0  0
  151.3633  142.8074  157.8289 N   0  0  0  0  0  0  0  0  0  0  0  0
  151.0277  144.0317  158.2791 C   0  0  0  0  0  0  0  0  0  0  0  0
  151.4040  144.3515  159.5140 N   0  0  0  0  0  0  0  0  0  0  0  0
  152.0595  143.1995  159.9136 C   0  0  0  0  0  0  0  0  0  0  0  0
  152.6985  142.8845  161.1342 C   0  0  0  0  0  0  0  0  0  0  0  0
  153.3101  141.6266  161.3166 C   0  0  0  0  0  0  0  0  0  0  0  0
  153.2939  140.6671  160.2836 C   0  0  0  0  0  0  0  0  0  0  0  0
  152.6638  140.9582  159.0583 C   0  0  0  0  0  0  0  0  0  0  0  0
  152.0525  142.2134  158.8810 C   0  0  0  0  0  0  0  0  0  0  0  0
  148.6257  143.1861  156.5328 H   0  0  0  0  0  0  0  0  0  0  0  0
  149.7216  140.6333  157.0513 H   0  0  0  0  0  0  0  0  0  0  0  0
  148.2552  140.7752  155.0234 H   0  0  0  0  0  0  0  0  0  0  0  0
  149.1335  142.1981  154.4859 H   0  0  0  0  0  0  0  0  0  0  0  0
  148.9899  138.8477  154.7427 H   0  0  0  0  0  0  0  0  0  0  0  0
  150.4435  138.5054  153.8026 H   0  0  0  0  0  0  0  0  0  0  0  0
  152.8666  139.0448  155.3275 H   0  0  0  0  0  0  0  0  0  0  0  0
  153.5709  138.3765  157.7142 H   0  0  0  0  0  0  0  0  0  0  0  0
  151.4790  137.7971  159.2451 H   0  0  0  0  0  0  0  0  0  0  0  0
  151.8396  141.5243  156.2776 H   0  0  0  0  0  0  0  0  0  0  0  0
  151.1178  143.0356  155.7771 H   0  0  0  0  0  0  0  0  0  0  0  0
  150.4768  144.7281  157.6637 H   0  0  0  0  0  0  0  0  0  0  0  0
  152.7183  143.6123  161.9318 H   0  0  0  0  0  0  0  0  0  0  0  0
  153.7947  141.3970  162.2543 H   0  0  0  0  0  0  0  0  0  0  0  0
  153.7660  139.7069  160.4322 H   0  0  0  0  0  0  0  0  0  0  0  0
  152.6517  140.2262  158.2642 H   0  0  0  0  0  0  0  0  0  0  0  0
  1  2  1  0  0  0  0
  1 21  1  0  0  0  0
  2  3  1  0  0  0  0
  2 11  1  0  0  0  0
  2 22  1  0  0  0  0
  3  4  1  0  0  0  0
  3 23  1  0  0  0  0
  3 24  1  0  0  0  0
  4  5  1  0  0  0  0
  5  6  1  0  0  0  0
  5 25  1  0  0  0  0
  5 26  1  0  0  0  0
  6 10  1  0  0  0  0
  6  7  2  0  0  0  0
  7  8  1  0  0  0  0
  7 27  1  0  0  0  0
  8  9  2  0  0  0  0
  8 28  1  0  0  0  0
  9 10  1  0  0  0  0
  9 29  1  0  0  0  0
 11 12  1  0  0  0  0
 11 30  1  0  0  0  0
 11 31  1  0  0  0  0
 12 20  1  0  0  0  0
 12 13  1  0  0  0  0
 13 14  2  0  0  0  0
 13 32  1  0  0  0  0
 14 15  1  0  0  0  0
 15 20  2  0  0  0  0
 15 16  1  0  0  0  0
 16 17  2  0  0  0  0
 16 33  1  0  0  0  0
 17 18  1  0  0  0  0
 17 34  1  0  0  0  0
 18 19  2  0  0  0  0
 18 35  1  0  0  0  0
 19 20  1  0  0  0  0
 19 36  1  0  0  0  0
M  END
> <s_m_source_file>
AV-unprocessed.smi

> <i_m_source_file_index>
2532

> <i_lp_mmshare_version>
43012

> <i_f3d_flags>
0

> <s_epik_input>
W2NIXTFbY0hdW2NIXVtjSF1jKGMxMiluKFtjSF1uMilbQ0gyXVtDQEhdKFtPSF0pW0NIMl1PW0NIMl1jM1tjSF1bY0hdW2NIXXMz

> <s_epik_cmdline>
J2VwaWtfcHl0aG9uJywgJy1waCcsICc3LjAnLCAnLXRuJywgJzgnLCAnLW1hJywgJzIwMCcsICctbWV0YWxfYmluZGluZycsICctaW1hZScsICc8aW5maWxlLm1hZT4nLCAnLW9tYWUnLCAnPG91dGZpbGUubWFlPic=

> <r_epik_Ionization_Penalty>
0.0678455

> <r_epik_Ionization_Penalty_Charging>
0

> <r_epik_Ionization_Penalty_Neutral>
0.0678455

> <r_epik_State_Penalty>
0.0593261

> <r_epik_Charging_Adjusted_Penalty>
0.0593261

> <i_epik_Tot_Q>
0

> <i_epik_Tot_abs_Q>
0

> <r_epik_Metal_State_Penalty>
6.23947e-05

> <b_epik_Metal_Only>
0

> <s_lp_Force_Field>
OPLS_2005

> <r_lp_Energy>
10.0551

> <b_lp_Chiralities_Consistent>
1

> <s_lp_Variant>
AV-unprocessed.smi:2532-2

> <Gold.Version>
5.8.1

> <Gold.Id.Protein>
6NUR|6NUR_protein|mol2

> <Gold.PLP.Fitness>
49.1400

> <Gold.PLP.PLP>
-41.9278

> <Gold.PLP.part.hbond>
-1.9965

> <Gold.PLP.part.metal>
0.0000

> <Gold.PLP.part.buried>
-6.0460

> <Gold.PLP.part.nonpolar>
-34.4261

> <Gold.PLP.part.repulsive>
0.2040

> <Gold.PLP.ligand.clash>
0.0000

> <Gold.PLP.ligand.torsion>
0.8369

> <Gold.PLP.Chemscore.Hbond>
1.9280

> <Gold.PLP.Chemscore.CHOScore>
1.0086

> <Gold.PLP.Chemscore.Metal>
0.0000

> <Gold.Chemscore.Hbonds>
donor molecule, donor type, donor heavy atom, donor atom, acceptor molecule, acceptor atom, score
      L1  H     1    21       P1  8028  1.00
      P1  H  7989  7998       L1     4  0.91
      L1  C    13    32       P1  8028  1.00
      L1  C    13    32       P1  8029  0.04

> <Gold.PLP.Chemscore.Internal.Correction>
0.0763

> <Gold.Rescore>
     Score         DG    S(hbond)    S(metal)    S(lipo)     H(rot)  DE(clash)    DE(int)     intcor
     18.21     -19.17       1.90        0.00     114.35       2.36       0.03       0.92       ----

> <Gold.Chemscore.Fitness>
18.2120

> <Gold.Chemscore.DG>
-19.1674

> <Gold.Chemscore.ZeroCoef>
-5.4800

> <Gold.Chemscore.Hbond>
1.9026

> <Gold.Chemscore.Metal>
0.0000

> <Gold.Chemscore.Lipo>
114.3541

> <Gold.Chemscore.Internal_Hbond>
0.0000

> <Gold.Chemscore.DEClash>
0.0309

> <Gold.Chemscore.DEInternal>
0.9245

> <Gold.Chemscore.Rot>
2.3620

> <Gold.Chemscore.Internal.Correction>
   9.000000E+99

> <Gold.Chemscore.Hbonds>
donor molecule, donor type, donor heavy atom, donor atom, acceptor molecule, acceptor atom, score
      L1  H     1    21       P1  8028  0.82
      P1  H  7989  7998       L1     4  0.81

> <Gold.Chemscore.Hbond.Weighted>
-6.3548

> <Gold.Chemscore.Metal.Weighted>
-0.0000

> <Gold.Chemscore.Lipo.Weighted>
-13.3794

> <Gold.Chemscore.Internal_Hbond.Weighted>
0.0000

> <Gold.Chemscore.DEClash.Weighted>
0.0309

> <Gold.Chemscore.DEInternal.Weighted>
0.9245

> <Gold.Chemscore.Rot.Weighted>
6.0468

> <Gold.Chemscore.Internal.Correction.Weighted>
   9.000000E+99

> <Gold.Protein.RotatedTorsions>
[ 6907 6896 6895 6894 ] final   97.43 input  -60.11 | X-H torsion
[ 7974 7965 7964 7962 ] final   -8.11 input  175.53 | X-H torsion
[ 8008 7997 7996 7995 ] final   84.60 input   59.86 | X-H torsion
[ 10167 10162 10161 10158 ] final -115.16 input  -65.29 | X-H torsion
[ 10718 10713 10712 10709 ] final  149.98 input   66.30 | X-H torsion
[ 10763 10752 10751 10750 ] final  165.56 input  -60.55 | X-H torsion
[ 11005 11000 10999 10996 ] final   42.14 input  -57.11 | X-H torsion

> <Gold.Protein.ActiveResidues>
 VAL166  LYS551  ARG553  GLY616  TRP617  ASP618  TYR619  PRO620  LYS621  CYS622 
 ASP623  PHE694  ASN695  SER759  ASP760  ASP761  ALA762  ILE779  LEU786  VAL792 
 PHE793  MET794  SER795  GLU796  ALA797  LYS798  CYS799  TRP800  GLU811  SER814 

> <Gold.Protein.RotatedAtoms>
  152.5423  134.0735  159.8203 H   0  0  0  0  0  0  0  0  0  0  0  0  # atno 6907 bound_to 6896
  151.0846  133.5356  159.2626 H   0  0  0  0  0  0  0  0  0  0  0  0  # atno 6908 bound_to 6896
  151.2170  135.0512  159.8988 H   0  0  0  0  0  0  0  0  0  0  0  0  # atno 6909 bound_to 6896
  146.2289  140.2420  142.8344 H   0  0  0  0  0  0  0  0  0  0  0  0  # atno 7974 bound_to 7965
  155.9392  140.3409  155.6313 H   0  0  0  0  0  0  0  0  0  0  0  0  # atno 8008 bound_to 7997
  155.7061  140.0766  157.2409 H   0  0  0  0  0  0  0  0  0  0  0  0  # atno 8009 bound_to 7997
  154.4099  140.1631  156.2232 H   0  0  0  0  0  0  0  0  0  0  0  0  # atno 8010 bound_to 7997
  140.0931  143.4681  152.1858 H   0  0  0  0  0  0  0  0  0  0  0  0  # atno 10167 bound_to 10162
  157.2892  131.0850  151.1474 H   0  0  0  0  0  0  0  0  0  0  0  0  # atno 10718 bound_to 10713
  154.3258  135.2755  155.2497 H   0  0  0  0  0  0  0  0  0  0  0  0  # atno 10763 bound_to 10752
  154.4830  135.5853  153.6407 H   0  0  0  0  0  0  0  0  0  0  0  0  # atno 10764 bound_to 10752
  152.9871  135.6116  154.3446 H   0  0  0  0  0  0  0  0  0  0  0  0  # atno 10765 bound_to 10752
  140.1768  134.4154  155.8224 H   0  0  0  0  0  0  0  0  0  0  0  0  # atno 11005 bound_to 11000
  144.9477  140.8146  143.5591 LP  0  0  0  0  0  0  0  0  0  0  0  0  # atno 17320 bound_to 7965
  145.2378  139.2086  143.5009 LP  0  0  0  0  0  0  0  0  0  0  0  0  # atno 17321 bound_to 7965
  139.5713  144.7464  151.3882 LP  0  0  0  0  0  0  0  0  0  0  0  0  # atno 17342 bound_to 10162
  140.7018  143.7613  150.7415 LP  0  0  0  0  0  0  0  0  0  0  0  0  # atno 17343 bound_to 10162
  157.2877  130.6781  149.6098 LP  0  0  0  0  0  0  0  0  0  0  0  0  # atno 17370 bound_to 10713
  155.9666  130.4430  150.5405 LP  0  0  0  0  0  0  0  0  0  0  0  0  # atno 17371 bound_to 10713
  141.2221  133.6981  156.7860 LP  0  0  0  0  0  0  0  0  0  0  0  0  # atno 17394 bound_to 11000
  140.2314  134.8683  157.3480 LP  0  0  0  0  0  0  0  0  0  0  0  0  # atno 17395 bound_to 11000

$$$$
