AV-unprocessed.smi:258|AV-procd|sdf|1971|dock3
  -GOLD-   2262021133D 1   1.00000     0.00000
 Structure written by MMmdl.
 57 60  0  0  0  0  0  0  0  0  1 V2000
  149.4257  144.7566  159.2907 O   0  0  0  0  0  0  0  0  0  0  0  0
  150.8101  145.0309  159.2541 C   0  0  0  0  0  0  0  0  0  0  0  0
  151.4618  144.3024  158.0725 C   0  0  0  0  0  0  0  0  0  0  0  0
  152.6703  143.7002  158.5135 O   0  0  0  0  0  0  0  0  0  0  0  0
  152.5352  142.8735  159.6622 C   0  0  2  0  0  0  0  0  0  0  0  0
  152.8731  143.6528  160.9491 C   0  0  0  0  0  0  0  0  0  0  0  0
  152.8752  142.7066  162.1589 C   0  0  0  0  0  0  0  0  0  0  0  0
  153.8318  141.5256  161.9326 C   0  0  0  0  0  0  0  0  0  0  0  0
  153.5248  140.8396  160.6792 N   0  0  0  0  0  0  0  0  0  0  0  0
  153.9891  139.5766  160.4932 C   0  0  0  0  0  0  0  0  0  0  0  0
  153.6483  138.9556  159.3336 N   0  0  0  0  0  0  0  0  0  0  0  0
  154.0653  137.7124  159.0793 C   0  0  0  0  0  0  0  0  0  0  0  0
  154.8242  136.9173  159.8340 N   0  0  0  0  0  0  0  0  0  0  0  0
  155.1754  137.5321  160.9989 C   0  0  0  0  0  0  0  0  0  0  0  0
  154.8037  138.8451  161.4108 C   0  0  0  0  0  0  0  0  0  0  0  0
  155.3621  139.1140  162.6571 N   0  0  0  0  0  0  0  0  0  0  0  0
  156.0175  138.0282  162.9624 C   0  0  0  0  0  0  0  0  0  0  0  0
  155.9661  137.0309  162.0169 N   0  0  0  0  0  0  0  0  0  0  0  0
  156.6091  135.7308  162.0841 C   0  0  0  0  0  0  0  0  0  0  0  0
  155.6293  134.5660  162.3758 C   0  0  1  0  0  0  0  0  0  0  0  0
  155.8405  133.3521  161.4337 C   0  0  0  0  0  0  0  0  0  0  0  0
  155.4583  133.6497  160.1066 O   0  0  0  0  0  0  0  0  0  0  0  0
  155.6872  134.2042  163.8830 C   0  0  1  0  0  0  0  0  0  0  0  0
  154.9273  132.9604  164.3071 C   0  0  0  0  0  0  0  0  0  0  0  0
  155.4957  132.7180  165.7025 C   0  0  0  0  0  0  0  0  0  0  0  0
  156.8438  133.1798  165.6614 O   0  0  0  0  0  0  0  0  0  0  0  0
  157.0739  133.9313  164.4725 C   0  0  0  0  0  0  0  0  0  0  0  0
  153.4991  141.6867  159.4852 C   0  0  0  0  0  0  0  0  0  0  0  0
  149.0094  145.2187  158.5796 H   0  0  0  0  0  0  0  0  0  0  0  0
  150.9295  146.1082  159.1351 H   0  0  0  0  0  0  0  0  0  0  0  0
  151.2800  144.7560  160.1990 H   0  0  0  0  0  0  0  0  0  0  0  0
  150.7735  143.5783  157.6362 H   0  0  0  0  0  0  0  0  0  0  0  0
  151.7009  145.0300  157.2956 H   0  0  0  0  0  0  0  0  0  0  0  0
  151.5180  142.4814  159.7229 H   0  0  0  0  0  0  0  0  0  0  0  0
  153.8527  144.1222  160.8497 H   0  0  0  0  0  0  0  0  0  0  0  0
  152.1569  144.4564  161.1190 H   0  0  0  0  0  0  0  0  0  0  0  0
  153.1609  143.2500  163.0596 H   0  0  0  0  0  0  0  0  0  0  0  0
  151.8657  142.3306  162.3301 H   0  0  0  0  0  0  0  0  0  0  0  0
  154.8605  141.8865  161.9015 H   0  0  0  0  0  0  0  0  0  0  0  0
  153.7520  140.8322  162.7707 H   0  0  0  0  0  0  0  0  0  0  0  0
  153.7464  137.2960  158.1351 H   0  0  0  0  0  0  0  0  0  0  0  0
  156.5700  137.9295  163.8854 H   0  0  0  0  0  0  0  0  0  0  0  0
  157.1321  135.5568  161.1430 H   0  0  0  0  0  0  0  0  0  0  0  0
  157.3766  135.7824  162.8574 H   0  0  0  0  0  0  0  0  0  0  0  0
  154.6193  134.9414  162.2031 H   0  0  0  0  0  0  0  0  0  0  0  0
  156.8820  133.0297  161.4437 H   0  0  0  0  0  0  0  0  0  0  0  0
  155.2460  132.4945  161.7421 H   0  0  0  0  0  0  0  0  0  0  0  0
  155.8847  134.4506  159.8423 H   0  0  0  0  0  0  0  0  0  0  0  0
  155.2501  135.0323  164.4437 H   0  0  0  0  0  0  0  0  0  0  0  0
  153.8463  133.1020  164.3117 H   0  0  0  0  0  0  0  0  0  0  0  0
  155.1535  132.1073  163.6694 H   0  0  0  0  0  0  0  0  0  0  0  0
  154.9506  133.3065  166.4414 H   0  0  0  0  0  0  0  0  0  0  0  0
  155.4413  131.6702  165.9988 H   0  0  0  0  0  0  0  0  0  0  0  0
  157.6834  133.3218  163.8057 H   0  0  0  0  0  0  0  0  0  0  0  0
  157.6233  134.8481  164.6858 H   0  0  0  0  0  0  0  0  0  0  0  0
  153.2078  141.1221  158.5992 H   0  0  0  0  0  0  0  0  0  0  0  0
  154.5102  142.0535  159.3023 H   0  0  0  0  0  0  0  0  0  0  0  0
  1  2  1  0  0  0  0
  1 29  1  0  0  0  0
  2  3  1  0  0  0  0
  2 30  1  0  0  0  0
  2 31  1  0  0  0  0
  3  4  1  0  0  0  0
  3 32  1  0  0  0  0
  3 33  1  0  0  0  0
  4  5  1  0  0  0  0
  5 28  1  0  0  0  0
  5  6  1  0  0  0  0
  5 34  1  0  0  0  0
  6  7  1  0  0  0  0
  6 35  1  0  0  0  0
  6 36  1  0  0  0  0
  7  8  1  0  0  0  0
  7 37  1  0  0  0  0
  7 38  1  0  0  0  0
  8  9  1  0  0  0  0
  8 39  1  0  0  0  0
  8 40  1  0  0  0  0
  9 10  1  0  0  0  0
  9 28  1  0  0  0  0
 10 15  1  0  0  0  0
 10 11  2  0  0  0  0
 11 12  1  0  0  0  0
 12 13  2  0  0  0  0
 12 41  1  0  0  0  0
 13 14  1  0  0  0  0
 14 18  1  0  0  0  0
 14 15  2  0  0  0  0
 15 16  1  0  0  0  0
 16 17  2  0  0  0  0
 17 18  1  0  0  0  0
 17 42  1  0  0  0  0
 18 19  1  0  0  0  0
 19 20  1  0  0  0  0
 19 43  1  0  0  0  0
 19 44  1  0  0  0  0
 20 21  1  0  0  0  0
 20 23  1  0  0  0  0
 20 45  1  0  0  0  0
 21 22  1  0  0  0  0
 21 46  1  0  0  0  0
 21 47  1  0  0  0  0
 22 48  1  0  0  0  0
 23 27  1  0  0  0  0
 23 24  1  0  0  0  0
 23 49  1  0  0  0  0
 24 25  1  0  0  0  0
 24 50  1  0  0  0  0
 24 51  1  0  0  0  0
 25 26  1  0  0  0  0
 25 52  1  0  0  0  0
 25 53  1  0  0  0  0
 26 27  1  0  0  0  0
 27 54  1  0  0  0  0
 27 55  1  0  0  0  0
 28 56  1  0  0  0  0
 28 57  1  0  0  0  0
M  END
> <s_m_source_file>
AV-unprocessed.smi

> <i_m_source_file_index>
258

> <i_lp_mmshare_version>
43012

> <i_f3d_flags>
0

> <s_epik_input>
W09IXVtDSDJdW0NIMl1PW0NAQEhdMVtDSDJdW0NIMl1bQ0gyXU4oW0NIMl0xKWMobltjSF1uMiljKGMyMyluW2NIXW4zW0NIMl1bQ0BIXShbQ0gyXVtPSF0pW0NAQEhdNFtDSDJdW0NIMl1PW0NIMl00

> <s_epik_cmdline>
J2VwaWtfcHl0aG9uJywgJy1waCcsICc3LjAnLCAnLXRuJywgJzgnLCAnLW1hJywgJzIwMCcsICctbWV0YWxfYmluZGluZycsICctaW1hZScsICc8aW5maWxlLm1hZT4nLCAnLW9tYWUnLCAnPG91dGZpbGUubWFlPic=

> <r_lp_tautomer_probability>
1

> <r_epik_Ionization_Penalty>
0.00349036

> <r_epik_Ionization_Penalty_Charging>
0

> <r_epik_Ionization_Penalty_Neutral>
0.00349036

> <r_epik_State_Penalty>
0.00229798

> <r_epik_Charging_Adjusted_Penalty>
0.00229798

> <i_epik_Tot_Q>
0

> <i_epik_Tot_abs_Q>
0

> <r_epik_Metal_State_Penalty>
-0

> <b_epik_Metal_Only>
0

> <s_lp_Force_Field>
OPLS_2005

> <r_lp_Energy>
47.622

> <b_lp_Chiralities_Consistent>
1

> <s_lp_Variant>
AV-unprocessed.smi:258-7

> <Gold.Version>
5.8.1

> <Gold.Id.Protein>
6NUR|6NUR_protein|mol2

> <Gold.PLP.Fitness>
47.9622

> <Gold.PLP.PLP>
-45.2562

> <Gold.PLP.part.hbond>
-2.1349

> <Gold.PLP.part.metal>
0.0000

> <Gold.PLP.part.buried>
-7.9420

> <Gold.PLP.part.nonpolar>
-35.1249

> <Gold.PLP.part.repulsive>
0.0485

> <Gold.PLP.ligand.clash>
0.0000

> <Gold.PLP.ligand.torsion>
2.1308

> <Gold.PLP.Chemscore.Hbond>
2.0000

> <Gold.PLP.Chemscore.CHOScore>
0.0000

> <Gold.PLP.Chemscore.Metal>
0.0000

> <Gold.Chemscore.Hbonds>
donor molecule, donor type, donor heavy atom, donor atom, acceptor molecule, acceptor atom, score
      L1  H     1    29       P1  8029  1.00

> <Gold.PLP.Chemscore.Internal.Correction>
0.9677

> <Gold.Rescore>
     Score         DG    S(hbond)    S(metal)    S(lipo)     H(rot)  DE(clash)    DE(int)     intcor
     11.60     -15.20       1.92        0.00     120.82       4.22       0.12       3.48       ----

> <Gold.Chemscore.Fitness>
11.6037

> <Gold.Chemscore.DG>
-15.2050

> <Gold.Chemscore.ZeroCoef>
-5.4800

> <Gold.Chemscore.Hbond>
1.9174

> <Gold.Chemscore.Metal>
0.0000

> <Gold.Chemscore.Lipo>
120.8196

> <Gold.Chemscore.Internal_Hbond>
0.0000

> <Gold.Chemscore.DEClash>
0.1223

> <Gold.Chemscore.DEInternal>
3.4789

> <Gold.Chemscore.Rot>
4.2246

> <Gold.Chemscore.Internal.Correction>
   9.000000E+99

> <Gold.Chemscore.Hbonds>
donor molecule, donor type, donor heavy atom, donor atom, acceptor molecule, acceptor atom, score
      L1  H     1    29       P1  8029  0.97

> <Gold.Chemscore.Hbond.Weighted>
-6.4040

> <Gold.Chemscore.Metal.Weighted>
-0.0000

> <Gold.Chemscore.Lipo.Weighted>
-14.1359

> <Gold.Chemscore.Internal_Hbond.Weighted>
0.0000

> <Gold.Chemscore.DEClash.Weighted>
0.1223

> <Gold.Chemscore.DEInternal.Weighted>
3.4789

> <Gold.Chemscore.Rot.Weighted>
10.8149

> <Gold.Chemscore.Internal.Correction.Weighted>
   9.000000E+99

> <Gold.Protein.RotatedTorsions>
[ 6907 6896 6895 6894 ] final  -19.90 input  -60.11 | X-H torsion
[ 7974 7965 7964 7962 ] final  -61.61 input  175.53 | X-H torsion
[ 8008 7997 7996 7995 ] final  176.21 input   59.86 | X-H torsion
[ 10167 10162 10161 10158 ] final  127.47 input  -65.29 | X-H torsion
[ 10718 10713 10712 10709 ] final  149.16 input   66.30 | X-H torsion
[ 10763 10752 10751 10750 ] final  -66.06 input  -60.55 | X-H torsion
[ 11005 11000 10999 10996 ] final  -74.87 input  -57.11 | X-H torsion

> <Gold.Protein.ActiveResidues>
 VAL166  LYS551  ARG553  GLY616  TRP617  ASP618  TYR619  PRO620  LYS621  CYS622 
 ASP623  PHE694  ASN695  SER759  ASP760  ASP761  ALA762  ILE779  LEU786  VAL792 
 PHE793  MET794  SER795  GLU796  ALA797  LYS798  CYS799  TRP800  GLU811  SER814 

> <Gold.Protein.RotatedAtoms>
  151.2563  135.0639  159.9080 H   0  0  0  0  0  0  0  0  0  0  0  0  # atno 6907 bound_to 6896
  152.5373  134.0279  159.8021 H   0  0  0  0  0  0  0  0  0  0  0  0  # atno 6908 bound_to 6896
  151.0495  133.5587  159.2675 H   0  0  0  0  0  0  0  0  0  0  0  0  # atno 6909 bound_to 6896
  145.8014  140.8653  143.0229 H   0  0  0  0  0  0  0  0  0  0  0  0  # atno 7974 bound_to 7965
  156.0788  140.1389  156.9738 H   0  0  0  0  0  0  0  0  0  0  0  0  # atno 8008 bound_to 7997
  154.4573  140.0956  156.6844 H   0  0  0  0  0  0  0  0  0  0  0  0  # atno 8009 bound_to 7997
  155.5109  140.3453  155.4390 H   0  0  0  0  0  0  0  0  0  0  0  0  # atno 8010 bound_to 7997
  139.5577  144.6860  151.4135 H   0  0  0  0  0  0  0  0  0  0  0  0  # atno 10167 bound_to 10162
  157.2996  131.0868  151.1400 H   0  0  0  0  0  0  0  0  0  0  0  0  # atno 10718 bound_to 10713
  154.3543  135.6130  153.5658 H   0  0  0  0  0  0  0  0  0  0  0  0  # atno 10763 bound_to 10752
  152.9796  135.5800  154.4707 H   0  0  0  0  0  0  0  0  0  0  0  0  # atno 10764 bound_to 10752
  154.4434  135.2851  155.1809 H   0  0  0  0  0  0  0  0  0  0  0  0  # atno 10765 bound_to 10752
  141.1640  133.6926  156.7431 H   0  0  0  0  0  0  0  0  0  0  0  0  # atno 11005 bound_to 11000
  144.6768  140.0264  143.7483 LP  0  0  0  0  0  0  0  0  0  0  0  0  # atno 17320 bound_to 7965
  145.9874  139.2988  143.1005 LP  0  0  0  0  0  0  0  0  0  0  0  0  # atno 17321 bound_to 7965
  140.6852  143.7990  150.7176 LP  0  0  0  0  0  0  0  0  0  0  0  0  # atno 17342 bound_to 10162
  140.1456  143.4403  152.2165 LP  0  0  0  0  0  0  0  0  0  0  0  0  # atno 17343 bound_to 10162
  157.2765  130.6729  149.6045 LP  0  0  0  0  0  0  0  0  0  0  0  0  # atno 17370 bound_to 10713
  155.9671  130.4463  150.5535 LP  0  0  0  0  0  0  0  0  0  0  0  0  # atno 17371 bound_to 10713
  140.2660  134.8430  157.3803 LP  0  0  0  0  0  0  0  0  0  0  0  0  # atno 17394 bound_to 11000
  140.1566  134.4781  155.7923 LP  0  0  0  0  0  0  0  0  0  0  0  0  # atno 17395 bound_to 11000

$$$$
