AV-unprocessed.smi:1239|AV-procd|sdf|5193|dock3
  -GOLD-   22720 4273D 1   1.00000     0.00000
 Structure written by MMmdl.
 48 49  0  0  0  0  0  0  0  0  4 V2000
  146.7418  139.0597  151.7885 C   0  0  0  0  0  0  0  0  0  0  0  0
  146.4797  138.1267  152.9978 C   0  0  2  0  0  0  0  0  0  0  0  0
  147.4529  138.3392  154.1913 C   0  0  0  0  0  0  0  0  0  0  0  0
  148.6934  138.9842  153.7575 N   0  5  0  0  0  0  0  0  0  0  0  0
  149.5375  139.6778  154.5676 C   0  0  0  0  0  0  0  0  0  0  0  0
  150.7655  139.5619  154.6498 O   0  0  0  0  0  0  0  0  0  0  0  0
  148.8785  140.5447  155.3569 N   0  0  0  0  0  0  0  0  0  0  0  0
  149.3913  141.4730  156.3027 C   0  0  0  0  0  0  0  0  0  0  0  0
  150.7420  141.8569  156.1786 C   0  0  0  0  0  0  0  0  0  0  0  0
  151.3044  142.7562  157.1073 C   0  0  0  0  0  0  0  0  0  0  0  0
  150.5120  143.2615  158.1673 C   0  0  0  0  0  0  0  0  0  0  0  0
  151.0023  144.1621  159.1377 N   0  0  0  0  0  0  0  0  0  0  0  0
  150.0854  144.7509  160.1074 C   0  0  0  0  0  0  0  0  0  0  0  0
  152.4326  144.4268  159.2224 C   0  0  0  0  0  0  0  0  0  0  0  0
  149.2224  142.8526  158.2524 N   0  3  0  0  0  0  0  0  0  0  0  0
  148.6441  141.9941  157.3849 C   0  0  0  0  0  0  0  0  0  0  0  0
  146.4283  136.6809  152.6164 N   0  3  0  0  0  0  0  0  0  0  0  0
  146.1969  135.7706  153.7655 C   0  0  0  0  0  0  0  0  0  0  0  0
  146.3489  134.3053  153.3225 C   0  0  0  0  0  0  0  0  0  0  0  0
  145.4544  134.0284  152.2515 O   0  0  0  0  0  0  0  0  0  0  0  0
  145.7161  134.8414  151.1137 C   0  0  0  0  0  0  0  0  0  0  0  0
  145.5264  136.3201  151.4868 C   0  0  0  0  0  0  0  0  0  0  0  0
  146.6184  140.1115  152.0531 H   0  0  0  0  0  0  0  0  0  0  0  0
  146.0335  138.8601  150.9842 H   0  0  0  0  0  0  0  0  0  0  0  0
  147.7462  138.9462  151.3770 H   0  0  0  0  0  0  0  0  0  0  0  0
  145.4873  138.3793  153.3742 H   0  0  0  0  0  0  0  0  0  0  0  0
  146.9459  138.9259  154.9591 H   0  0  0  0  0  0  0  0  0  0  0  0
  147.6539  137.3756  154.6592 H   0  0  0  0  0  0  0  0  0  0  0  0
  147.8719  140.5011  155.2932 H   0  0  0  0  0  0  0  0  0  0  0  0
  151.3474  141.4679  155.3726 H   0  0  0  0  0  0  0  0  0  0  0  0
  152.3391  143.0413  156.9900 H   0  0  0  0  0  0  0  0  0  0  0  0
  149.6102  143.9733  160.7067 H   0  0  0  0  0  0  0  0  0  0  0  0
  149.3075  145.3229  159.6008 H   0  0  0  0  0  0  0  0  0  0  0  0
  150.6059  145.4261  160.7872 H   0  0  0  0  0  0  0  0  0  0  0  0
  152.7974  144.8643  158.2926 H   0  0  0  0  0  0  0  0  0  0  0  0
  152.9821  143.5046  159.4139 H   0  0  0  0  0  0  0  0  0  0  0  0
  152.6597  145.1243  160.0290 H   0  0  0  0  0  0  0  0  0  0  0  0
  147.6154  141.7509  157.6040 H   0  0  0  0  0  0  0  0  0  0  0  0
  146.9120  135.9797  154.5621 H   0  0  0  0  0  0  0  0  0  0  0  0
  145.1999  135.9392  154.1746 H   0  0  0  0  0  0  0  0  0  0  0  0
  147.3751  134.0968  153.0159 H   0  0  0  0  0  0  0  0  0  0  0  0
  146.1235  133.6366  154.1532 H   0  0  0  0  0  0  0  0  0  0  0  0
  146.7256  134.6586  150.7415 H   0  0  0  0  0  0  0  0  0  0  0  0
  145.0269  134.5637  150.3160 H   0  0  0  0  0  0  0  0  0  0  0  0
  144.4852  136.4875  151.7653 H   0  0  0  0  0  0  0  0  0  0  0  0
  145.7303  136.9430  150.6156 H   0  0  0  0  0  0  0  0  0  0  0  0
  148.6539  143.2093  159.0205 H   0  0  0  0  0  0  0  0  0  0  0  0
  147.3651  136.4716  152.3013 H   0  0  0  0  0  0  0  0  0  0  0  0
  1  2  1  0  0  0  0
  1 23  1  0  0  0  0
  1 24  1  0  0  0  0
  1 25  1  0  0  0  0
  2  3  1  0  0  0  0
  2 17  1  0  0  0  0
  2 26  1  0  0  0  0
  3  4  1  0  0  0  0
  3 27  1  0  0  0  0
  3 28  1  0  0  0  0
  4  5  1  0  0  0  0
  5  6  2  0  0  0  0
  5  7  1  0  0  0  0
  7  8  1  0  0  0  0
  7 29  1  0  0  0  0
  8 16  1  0  0  0  0
  8  9  2  0  0  0  0
  9 10  1  0  0  0  0
  9 30  1  0  0  0  0
 10 11  2  0  0  0  0
 10 31  1  0  0  0  0
 11 12  1  0  0  0  0
 11 15  1  0  0  0  0
 12 13  1  0  0  0  0
 12 14  1  0  0  0  0
 13 32  1  0  0  0  0
 13 33  1  0  0  0  0
 13 34  1  0  0  0  0
 14 35  1  0  0  0  0
 14 36  1  0  0  0  0
 14 37  1  0  0  0  0
 15 16  2  0  0  0  0
 15 47  1  0  0  0  0
 16 38  1  0  0  0  0
 17 22  1  0  0  0  0
 17 18  1  0  0  0  0
 17 48  1  0  0  0  0
 18 19  1  0  0  0  0
 18 39  1  0  0  0  0
 18 40  1  0  0  0  0
 19 20  1  0  0  0  0
 19 41  1  0  0  0  0
 19 42  1  0  0  0  0
 20 21  1  0  0  0  0
 21 22  1  0  0  0  0
 21 43  1  0  0  0  0
 21 44  1  0  0  0  0
 22 45  1  0  0  0  0
 22 46  1  0  0  0  0
M  CHG  1   4  -1
M  CHG  1  15   1
M  CHG  1  17   1
M  END
> <s_m_source_file>
AV-unprocessed.smi

> <i_m_source_file_index>
1239

> <i_lp_mmshare_version>
43012

> <i_f3d_flags>
0

> <s_epik_input>
W0NIMl0xW0NIMl1PW0NIMl1bQ0gyXU4xW0NASF0oW0NIM10pW0NIMl1bTkhdQyg9TylbTkhdYzJbY0hdW2NIXWMoTihbQ0gzXSlbQ0gzXSluW2NIXTI=

> <s_epik_cmdline>
J2VwaWtfcHl0aG9uJywgJy1waCcsICc3LjAnLCAnLXRuJywgJzgnLCAnLW1hJywgJzIwMCcsICctbWV0YWxfYmluZGluZycsICctaW1hZScsICc8aW5maWxlLm1hZT4nLCAnLW9tYWUnLCAnPG91dGZpbGUubWFlPic=

> <r_lp_tautomer_probability>
0.999994

> <r_epik_Ionization_Penalty>
7.43905

> <r_epik_Ionization_Penalty_Charging>
7.43905

> <r_epik_Ionization_Penalty_Neutral>
3.43851e-06

> <r_epik_State_Penalty>
7.63789

> <r_epik_Charging_Adjusted_Penalty>
15.0769

> <i_epik_Tot_Q>
1

> <i_epik_Tot_abs_Q>
3

> <r_epik_Metal_State_Penalty>
3.83826

> <b_epik_Metal_Only>
1

> <s_lp_Force_Field>
OPLS_2005

> <r_lp_Energy>
24.2949

> <b_lp_Chiralities_Consistent>
1

> <s_lp_Variant>
AV-unprocessed.smi:1239-9

> <Gold.Version>
5.8.1

> <Gold.Id.Protein>
6NUR|6NUR_protein|mol2

> <Gold.PLP.Fitness>
43.6469

> <Gold.PLP.PLP>
-37.1020

> <Gold.PLP.part.hbond>
-2.3413

> <Gold.PLP.part.metal>
0.0000

> <Gold.PLP.part.buried>
-5.5939

> <Gold.PLP.part.nonpolar>
-31.1734

> <Gold.PLP.part.repulsive>
1.8673

> <Gold.PLP.ligand.clash>
0.0000

> <Gold.PLP.ligand.torsion>
1.3529

> <Gold.PLP.Chemscore.Hbond>
3.0000

> <Gold.PLP.Chemscore.CHOScore>
0.0000

> <Gold.PLP.Chemscore.Metal>
0.0000

> <Gold.Chemscore.Hbonds>
donor molecule, donor type, donor heavy atom, donor atom, acceptor molecule, acceptor atom, score
      L1  H    17    48       P1  7948  2.00
      P1  H  7989  7998       L1     6  1.00

> <Gold.PLP.Chemscore.Internal.Correction>
0.2508

> <Gold.Rescore>
     Score         DG    S(hbond)    S(metal)    S(lipo)     H(rot)  DE(clash)    DE(int)     intcor
     14.91     -17.86       2.00        0.00      81.32       1.48       0.26       2.70       ----

> <Gold.Chemscore.Fitness>
14.9071

> <Gold.Chemscore.DG>
-17.8620

> <Gold.Chemscore.ZeroCoef>
-5.4800

> <Gold.Chemscore.Hbond>
1.9954

> <Gold.Chemscore.Metal>
0.0000

> <Gold.Chemscore.Lipo>
81.3152

> <Gold.Chemscore.Internal_Hbond>
0.0000

> <Gold.Chemscore.DEClash>
0.2587

> <Gold.Chemscore.DEInternal>
2.6962

> <Gold.Chemscore.Rot>
1.4830

> <Gold.Chemscore.Internal.Correction>
   9.000000E+99

> <Gold.Chemscore.Hbonds>
donor molecule, donor type, donor heavy atom, donor atom, acceptor molecule, acceptor atom, score
      L1  H    17    48       P1  7948  1.00
      P1  H  7989  7998       L1     6  0.74

> <Gold.Chemscore.Hbond.Weighted>
-6.6645

> <Gold.Chemscore.Metal.Weighted>
-0.0000

> <Gold.Chemscore.Lipo.Weighted>
-9.5139

> <Gold.Chemscore.Internal_Hbond.Weighted>
0.0000

> <Gold.Chemscore.DEClash.Weighted>
0.2587

> <Gold.Chemscore.DEInternal.Weighted>
2.6962

> <Gold.Chemscore.Rot.Weighted>
3.7964

> <Gold.Chemscore.Internal.Correction.Weighted>
   9.000000E+99

> <Gold.Protein.RotatedTorsions>
[ 6907 6896 6895 6894 ] final  -37.85 input  -60.11 | X-H torsion
[ 7974 7965 7964 7962 ] final  128.31 input  175.53 | X-H torsion
[ 8008 7997 7996 7995 ] final  -99.61 input   59.86 | X-H torsion
[ 10167 10162 10161 10158 ] final -118.27 input  -65.29 | X-H torsion
[ 10718 10713 10712 10709 ] final  -16.51 input   66.30 | X-H torsion
[ 10763 10752 10751 10750 ] final  -63.37 input  -60.55 | X-H torsion
[ 11005 11000 10999 10996 ] final   47.98 input  -57.11 | X-H torsion

> <Gold.Protein.ActiveResidues>
 VAL166  LYS551  ARG553  GLY616  TRP617  ASP618  TYR619  PRO620  LYS621  CYS622 
 ASP623  PHE694  ASN695  SER759  ASP760  ASP761  ALA762  ILE779  LEU786  VAL792 
 PHE793  MET794  SER795  GLU796  ALA797  LYS798  CYS799  TRP800  GLU811  SER814 

> <Gold.Protein.RotatedAtoms>
  151.0097  134.9387  159.7999 H   0  0  0  0  0  0  0  0  0  0  0  0  # atno 6907 bound_to 6896
  152.5299  134.3045  159.9100 H   0  0  0  0  0  0  0  0  0  0  0  0  # atno 6908 bound_to 6896
  151.3051  133.4063  159.2677 H   0  0  0  0  0  0  0  0  0  0  0  0  # atno 6909 bound_to 6896
  145.0410  139.3964  143.5102 H   0  0  0  0  0  0  0  0  0  0  0  0  # atno 7974 bound_to 7965
  154.8173  140.0446  157.1385 H   0  0  0  0  0  0  0  0  0  0  0  0  # atno 8008 bound_to 7997
  154.9300  140.3038  155.5152 H   0  0  0  0  0  0  0  0  0  0  0  0  # atno 8009 bound_to 7997
  156.2977  140.2325  156.4359 H   0  0  0  0  0  0  0  0  0  0  0  0  # atno 8010 bound_to 7997
  140.0593  143.4983  152.2040 H   0  0  0  0  0  0  0  0  0  0  0  0  # atno 10167 bound_to 10162
  156.5866  130.4788  149.6297 H   0  0  0  0  0  0  0  0  0  0  0  0  # atno 10718 bound_to 10713
  154.3141  135.6209  153.5478 H   0  0  0  0  0  0  0  0  0  0  0  0  # atno 10763 bound_to 10752
  152.9826  135.5708  154.5144 H   0  0  0  0  0  0  0  0  0  0  0  0  # atno 10764 bound_to 10752
  154.4800  135.2863  155.1555 H   0  0  0  0  0  0  0  0  0  0  0  0  # atno 10765 bound_to 10752
  140.1231  134.4803  155.8581 H   0  0  0  0  0  0  0  0  0  0  0  0  # atno 11005 bound_to 11000
  146.3509  140.0010  142.8676 LP  0  0  0  0  0  0  0  0  0  0  0  0  # atno 17320 bound_to 7965
  145.1648  140.9691  143.4356 LP  0  0  0  0  0  0  0  0  0  0  0  0  # atno 17321 bound_to 7965
  139.5904  144.7547  151.3416 LP  0  0  0  0  0  0  0  0  0  0  0  0  # atno 17342 bound_to 10162
  140.7179  143.7215  150.7692 LP  0  0  0  0  0  0  0  0  0  0  0  0  # atno 17343 bound_to 10162
  156.2585  130.6948  151.1710 LP  0  0  0  0  0  0  0  0  0  0  0  0  # atno 17370 bound_to 10713
  157.7314  131.0609  150.5681 LP  0  0  0  0  0  0  0  0  0  0  0  0  # atno 17371 bound_to 10713
  141.2156  133.6768  156.6927 LP  0  0  0  0  0  0  0  0  0  0  0  0  # atno 17394 bound_to 11000
  140.2939  134.8218  157.4040 LP  0  0  0  0  0  0  0  0  0  0  0  0  # atno 17395 bound_to 11000

$$$$
