AV-unprocessed.smi:1633|AV-procd|sdf|6535|dock10
  -GOLD-   22720 7213D 1   1.00000     0.00000
 Structure written by MMmdl.
 52 54  0  0  0  0  0  0  0  0  3 V2000
  148.4718  132.5848  157.2262 C   0  0  0  0  0  0  0  0  0  0  0  0
  147.7438  133.7867  156.6203 C   0  0  0  0  0  0  0  0  0  0  0  0
  146.7281  134.1922  157.1847 O   0  0  0  0  0  0  0  0  0  0  0  0
  148.2329  134.3611  155.4948 N   0  0  0  0  0  0  0  0  0  0  0  0
  149.4768  133.9845  154.8158 C   0  0  0  0  0  0  0  0  0  0  0  0
  150.4864  135.1420  154.9294 C   0  0  0  0  0  0  0  0  0  0  0  0
  149.9175  136.4151  154.4051 N   0  3  0  0  0  0  0  0  0  0  0  0
  150.8517  137.5673  154.4926 C   0  0  0  0  0  0  0  0  0  0  0  0
  150.7323  138.3549  155.8174 C   0  0  1  0  0  0  0  0  0  0  0  0
  150.8378  137.4572  156.9040 O   0  0  0  0  0  0  0  0  0  0  0  0
  151.8309  139.4211  156.0046 C   0  0  0  0  0  0  0  0  0  0  0  0
  151.2971  140.7544  156.3171 N   0  0  0  0  0  0  0  0  0  0  0  0
  150.4241  141.5241  155.6115 C   0  0  0  0  0  0  0  0  0  0  0  0
  150.2278  142.6733  156.3147 N   0  3  0  0  0  0  0  0  0  0  0  0
  150.9809  142.6357  157.4899 C   0  0  0  0  0  0  0  0  0  0  0  0
  151.1090  143.5625  158.5175 C   0  0  0  0  0  0  0  0  0  0  0  0
  151.9653  143.2233  159.5892 C   0  0  0  0  0  0  0  0  0  0  0  0
  152.1295  144.2153  160.7281 C   0  0  0  0  0  0  0  0  0  0  0  0
  152.6598  141.9863  159.6050 C   0  0  0  0  0  0  0  0  0  0  0  0
  153.5803  141.6326  160.7611 C   0  0  0  0  0  0  0  0  0  0  0  0
  152.5148  141.0562  158.5509 C   0  0  0  0  0  0  0  0  0  0  0  0
  151.6676  141.4056  157.5010 C   0  0  0  0  0  0  0  0  0  0  0  0
  148.5880  136.7309  154.9930 C   0  0  0  0  0  0  0  0  0  0  0  0
  147.6211  135.5395  154.8745 C   0  0  0  0  0  0  0  0  0  0  0  0
  149.4905  132.8506  157.5095 H   0  0  0  0  0  0  0  0  0  0  0  0
  148.5039  131.7553  156.5193 H   0  0  0  0  0  0  0  0  0  0  0  0
  147.9580  132.2365  158.1228 H   0  0  0  0  0  0  0  0  0  0  0  0
  149.9259  133.0695  155.1991 H   0  0  0  0  0  0  0  0  0  0  0  0
  149.2585  133.7837  153.7659 H   0  0  0  0  0  0  0  0  0  0  0  0
  150.7747  135.2767  155.9732 H   0  0  0  0  0  0  0  0  0  0  0  0
  151.3903  134.8763  154.3830 H   0  0  0  0  0  0  0  0  0  0  0  0
  151.8779  137.2079  154.4001 H   0  0  0  0  0  0  0  0  0  0  0  0
  150.6784  138.2185  153.6353 H   0  0  0  0  0  0  0  0  0  0  0  0
  149.7648  138.8520  155.8812 H   0  0  0  0  0  0  0  0  0  0  0  0
  151.7229  137.1299  156.9504 H   0  0  0  0  0  0  0  0  0  0  0  0
  152.4819  139.1390  156.8336 H   0  0  0  0  0  0  0  0  0  0  0  0
  152.4739  139.4854  155.1268 H   0  0  0  0  0  0  0  0  0  0  0  0
  149.9670  141.2689  154.6661 H   0  0  0  0  0  0  0  0  0  0  0  0
  150.5772  144.5026  158.4989 H   0  0  0  0  0  0  0  0  0  0  0  0
  151.8556  143.7584  161.6789 H   0  0  0  0  0  0  0  0  0  0  0  0
  151.4983  145.0931  160.5877 H   0  0  0  0  0  0  0  0  0  0  0  0
  153.1634  144.5548  160.7919 H   0  0  0  0  0  0  0  0  0  0  0  0
  154.0486  140.6587  160.6162 H   0  0  0  0  0  0  0  0  0  0  0  0
  153.0229  141.5972  161.6975 H   0  0  0  0  0  0  0  0  0  0  0  0
  154.3750  142.3725  160.8582 H   0  0  0  0  0  0  0  0  0  0  0  0
  153.0455  140.1161  158.5685 H   0  0  0  0  0  0  0  0  0  0  0  0
  148.7130  137.0030  156.0424 H   0  0  0  0  0  0  0  0  0  0  0  0
  148.1597  137.5977  154.4881 H   0  0  0  0  0  0  0  0  0  0  0  0
  147.4164  135.3250  153.8245 H   0  0  0  0  0  0  0  0  0  0  0  0
  146.6588  135.8022  155.3164 H   0  0  0  0  0  0  0  0  0  0  0  0
  149.7452  136.2660  153.4211 H   0  0  0  0  0  0  0  0  0  0  0  0
  149.6182  143.4240  156.0156 H   0  0  0  0  0  0  0  0  0  0  0  0
  1  2  1  0  0  0  0
  1 25  1  0  0  0  0
  1 26  1  0  0  0  0
  1 27  1  0  0  0  0
  2  3  2  0  0  0  0
  2  4  1  0  0  0  0
  4 24  1  0  0  0  0
  4  5  1  0  0  0  0
  5  6  1  0  0  0  0
  5 28  1  0  0  0  0
  5 29  1  0  0  0  0
  6  7  1  0  0  0  0
  6 30  1  0  0  0  0
  6 31  1  0  0  0  0
  7  8  1  0  0  0  0
  7 23  1  0  0  0  0
  7 51  1  0  0  0  0
  8  9  1  0  0  0  0
  8 32  1  0  0  0  0
  8 33  1  0  0  0  0
  9 10  1  0  0  0  0
  9 11  1  0  0  0  0
  9 34  1  0  0  0  0
 10 35  1  0  0  0  0
 11 12  1  0  0  0  0
 11 36  1  0  0  0  0
 11 37  1  0  0  0  0
 12 22  1  0  0  0  0
 12 13  1  0  0  0  0
 13 14  2  0  0  0  0
 13 38  1  0  0  0  0
 14 15  1  0  0  0  0
 14 52  1  0  0  0  0
 15 22  2  0  0  0  0
 15 16  1  0  0  0  0
 16 17  2  0  0  0  0
 16 39  1  0  0  0  0
 17 18  1  0  0  0  0
 17 19  1  0  0  0  0
 18 40  1  0  0  0  0
 18 41  1  0  0  0  0
 18 42  1  0  0  0  0
 19 20  1  0  0  0  0
 19 21  2  0  0  0  0
 20 43  1  0  0  0  0
 20 44  1  0  0  0  0
 20 45  1  0  0  0  0
 21 22  1  0  0  0  0
 21 46  1  0  0  0  0
 23 24  1  0  0  0  0
 23 47  1  0  0  0  0
 23 48  1  0  0  0  0
 24 49  1  0  0  0  0
 24 50  1  0  0  0  0
M  CHG  1   7   1
M  CHG  1  14   1
M  END
> <s_m_source_file>
AV-unprocessed.smi

> <i_m_source_file_index>
1633

> <i_lp_mmshare_version>
43012

> <i_f3d_flags>
0

> <s_epik_input>
W0NIM11DKD1PKU4xW0NIMl1bQ0gyXU4oW0NIMl1bQ0gyXTEpW0NIMl1bQ0BIXShbT0hdKVtDSDJdbihbY0hdbjIpYyhjMjMpW2NIXWMoW0NIM10pYyhbY0hdMylbQ0gzXQ==

> <s_epik_cmdline>
J2VwaWtfcHl0aG9uJywgJy1waCcsICc3LjAnLCAnLXRuJywgJzgnLCAnLW1hJywgJzIwMCcsICctbWV0YWxfYmluZGluZycsICctaW1hZScsICc8aW5maWxlLm1hZT4nLCAnLW9tYWUnLCAnPG91dGZpbGUubWFlPic=

> <r_epik_Ionization_Penalty>
1.18448

> <r_epik_Ionization_Penalty_Charging>
1.18447

> <r_epik_Ionization_Penalty_Neutral>
4.53746e-06

> <r_epik_State_Penalty>
1.28566

> <r_epik_Charging_Adjusted_Penalty>
2.47013

> <i_epik_Tot_Q>
2

> <i_epik_Tot_abs_Q>
2

> <r_epik_Metal_State_Penalty>
5.30076

> <b_epik_Metal_Only>
0

> <s_lp_Force_Field>
OPLS_2005

> <r_lp_Energy>
59.1266

> <b_lp_Chiralities_Consistent>
1

> <s_lp_Variant>
AV-unprocessed.smi:1633-4

> <Gold.Version>
5.8.1

> <Gold.Id.Protein>
6NUR|6NUR_protein|mol2

> <Gold.PLP.Fitness>
51.9717

> <Gold.PLP.PLP>
-42.0350

> <Gold.PLP.part.hbond>
-2.2613

> <Gold.PLP.part.metal>
0.0000

> <Gold.PLP.part.buried>
-4.9856

> <Gold.PLP.part.nonpolar>
-34.7722

> <Gold.PLP.part.repulsive>
0.1431

> <Gold.PLP.ligand.clash>
0.0000

> <Gold.PLP.ligand.torsion>
1.0542

> <Gold.PLP.Chemscore.Hbond>
4.0000

> <Gold.PLP.Chemscore.CHOScore>
0.0000

> <Gold.PLP.Chemscore.Metal>
0.0000

> <Gold.Chemscore.Hbonds>
donor molecule, donor type, donor heavy atom, donor atom, acceptor molecule, acceptor atom, score
      L1  H     7    51       P1  7948  1.90
      L1  H    14    52       P1  8028  1.98

> <Gold.PLP.Chemscore.Internal.Correction>
0.0451

> <Gold.Rescore>
     Score         DG    S(hbond)    S(metal)    S(lipo)     H(rot)  DE(clash)    DE(int)     intcor
     18.16     -19.28       1.94        0.00     111.08       2.22       0.07       1.06       ----

> <Gold.Chemscore.Fitness>
18.1551

> <Gold.Chemscore.DG>
-19.2792

> <Gold.Chemscore.ZeroCoef>
-5.4800

> <Gold.Chemscore.Hbond>
1.9402

> <Gold.Chemscore.Metal>
0.0000

> <Gold.Chemscore.Lipo>
111.0803

> <Gold.Chemscore.Internal_Hbond>
0.0000

> <Gold.Chemscore.DEClash>
0.0651

> <Gold.Chemscore.DEInternal>
1.0590

> <Gold.Chemscore.Rot>
2.2178

> <Gold.Chemscore.Internal.Correction>
   9.000000E+99

> <Gold.Chemscore.Hbonds>
donor molecule, donor type, donor heavy atom, donor atom, acceptor molecule, acceptor atom, score
      L1  H     7    51       P1  7948  0.22
      L1  H    14    52       P1  8028  0.93

> <Gold.Chemscore.Hbond.Weighted>
-6.4803

> <Gold.Chemscore.Metal.Weighted>
-0.0000

> <Gold.Chemscore.Lipo.Weighted>
-12.9964

> <Gold.Chemscore.Internal_Hbond.Weighted>
0.0000

> <Gold.Chemscore.DEClash.Weighted>
0.0651

> <Gold.Chemscore.DEInternal.Weighted>
1.0590

> <Gold.Chemscore.Rot.Weighted>
5.6775

> <Gold.Chemscore.Internal.Correction.Weighted>
   9.000000E+99

> <Gold.Protein.RotatedTorsions>
[ 6907 6896 6895 6894 ] final  -30.69 input  -60.11 | X-H torsion
[ 7974 7965 7964 7962 ] final  -63.02 input  175.53 | X-H torsion
[ 8008 7997 7996 7995 ] final  174.92 input   59.86 | X-H torsion
[ 10167 10162 10161 10158 ] final   19.87 input  -65.29 | X-H torsion
[ 10718 10713 10712 10709 ] final  -74.91 input   66.30 | X-H torsion
[ 10763 10752 10751 10750 ] final -161.87 input  -60.55 | X-H torsion
[ 11005 11000 10999 10996 ] final  153.71 input  -57.11 | X-H torsion

> <Gold.Protein.ActiveResidues>
 VAL166  LYS551  ARG553  GLY616  TRP617  ASP618  TYR619  PRO620  LYS621  CYS622 
 ASP623  PHE694  ASN695  SER759  ASP760  ASP761  ALA762  ILE779  LEU786  VAL792 
 PHE793  MET794  SER795  GLU796  ALA797  LYS798  CYS799  TRP800  GLU811  SER814 

> <Gold.Protein.RotatedAtoms>
  151.1021  134.9978  159.8453 H   0  0  0  0  0  0  0  0  0  0  0  0  # atno 6907 bound_to 6896
  152.5437  134.1937  159.8694 H   0  0  0  0  0  0  0  0  0  0  0  0  # atno 6908 bound_to 6896
  151.1981  133.4583  159.2629 H   0  0  0  0  0  0  0  0  0  0  0  0  # atno 6909 bound_to 6896
  145.7841  140.8746  143.0315 H   0  0  0  0  0  0  0  0  0  0  0  0  # atno 7974 bound_to 7965
  156.0924  140.1422  156.9575 H   0  0  0  0  0  0  0  0  0  0  0  0  # atno 8008 bound_to 7997
  154.4650  140.0929  156.7042 H   0  0  0  0  0  0  0  0  0  0  0  0  # atno 8009 bound_to 7997
  155.4898  140.3447  155.4355 H   0  0  0  0  0  0  0  0  0  0  0  0  # atno 8010 bound_to 7997
  140.5546  143.9447  150.6601 H   0  0  0  0  0  0  0  0  0  0  0  0  # atno 10167 bound_to 10162
  156.0226  130.4428  150.2963 H   0  0  0  0  0  0  0  0  0  0  0  0  # atno 10718 bound_to 10713
  154.7265  135.3037  154.8963 H   0  0  0  0  0  0  0  0  0  0  0  0  # atno 10763 bound_to 10752
  153.9819  135.6729  153.4754 H   0  0  0  0  0  0  0  0  0  0  0  0  # atno 10764 bound_to 10752
  153.0879  135.4974  154.8553 H   0  0  0  0  0  0  0  0  0  0  0  0  # atno 10765 bound_to 10752
  140.1423  134.8731  157.2347 H   0  0  0  0  0  0  0  0  0  0  0  0  # atno 11005 bound_to 11000
  144.6792  140.0031  143.7484 LP  0  0  0  0  0  0  0  0  0  0  0  0  # atno 17320 bound_to 7965
  146.0044  139.3117  143.0908 LP  0  0  0  0  0  0  0  0  0  0  0  0  # atno 17321 bound_to 7965
  140.2882  143.3342  152.1087 LP  0  0  0  0  0  0  0  0  0  0  0  0  # atno 17342 bound_to 10162
  139.5042  144.6771  151.6101 LP  0  0  0  0  0  0  0  0  0  0  0  0  # atno 17343 bound_to 10162
  157.1066  131.0210  151.3064 LP  0  0  0  0  0  0  0  0  0  0  0  0  # atno 17370 bound_to 10713
  157.4738  130.7724  149.7348 LP  0  0  0  0  0  0  0  0  0  0  0  0  # atno 17371 bound_to 10713
  140.2707  134.3464  155.7374 LP  0  0  0  0  0  0  0  0  0  0  0  0  # atno 17394 bound_to 11000
  141.2187  133.7421  156.9218 LP  0  0  0  0  0  0  0  0  0  0  0  0  # atno 17395 bound_to 11000

$$$$
