AV-unprocessed.smi:1824|AV-procd|sdf|7399|dock6
  -GOLD-   22720 9 73D 1   1.00000     0.00000
 Structure written by MMmdl.
 45 47  0  0  0  0  0  0  0  0  2 V2000
  144.2300  144.9739  155.2866 C   0  0  0  0  0  0  0  0  0  0  0  0
  145.4832  144.2677  155.8157 C   0  0  2  0  0  0  0  0  0  0  0  0
  146.0464  143.2551  154.8024 C   0  0  0  0  0  0  0  0  0  0  0  0
  147.2016  142.5318  155.3819 N   0  3  2  0  0  0  0  0  0  0  0  0
  147.8556  141.6239  154.4052 C   0  0  0  0  0  0  0  0  0  0  0  0
  149.3823  141.5442  154.6028 C   0  0  2  0  0  0  0  0  0  0  0  0
  149.9252  140.6868  153.6161 O   0  0  0  0  0  0  0  0  0  0  0  0
  149.7484  141.0144  156.0027 C   0  0  0  0  0  0  0  0  0  0  0  0
  150.6022  141.9288  156.7404 N   0  0  0  0  0  0  0  0  0  0  0  0
  150.7790  143.2427  156.5017 C   0  0  0  0  0  0  0  0  0  0  0  0
  151.6119  143.9011  157.3026 N   0  0  0  0  0  0  0  0  0  0  0  0
  152.0235  142.8986  158.1639 C   0  0  0  0  0  0  0  0  0  0  0  0
  152.9170  142.9386  159.2582 C   0  0  0  0  0  0  0  0  0  0  0  0
  153.1880  141.7719  160.0035 C   0  0  0  0  0  0  0  0  0  0  0  0
  154.0457  141.8282  161.0498 F   0  0  0  0  0  0  0  0  0  0  0  0
  152.5710  140.5490  159.6651 C   0  0  0  0  0  0  0  0  0  0  0  0
  152.8362  139.4334  160.3853 F   0  0  0  0  0  0  0  0  0  0  0  0
  151.6779  140.4845  158.5784 C   0  0  0  0  0  0  0  0  0  0  0  0
  151.4094  141.6513  157.8389 C   0  0  0  0  0  0  0  0  0  0  0  0
  146.8073  141.8622  156.6458 C   0  0  0  0  0  0  0  0  0  0  0  0
  146.1954  142.8696  157.6388 C   0  0  1  0  0  0  0  0  0  0  0  0
  147.2339  143.8047  158.2835 C   0  0  0  0  0  0  0  0  0  0  0  0
  145.1295  143.5885  157.0179 O   0  0  0  0  0  0  0  0  0  0  0  0
  144.4448  145.5224  154.3690 H   0  0  0  0  0  0  0  0  0  0  0  0
  143.8476  145.6872  156.0172 H   0  0  0  0  0  0  0  0  0  0  0  0
  143.4342  144.2599  155.0714 H   0  0  0  0  0  0  0  0  0  0  0  0
  146.2341  145.0287  156.0293 H   0  0  0  0  0  0  0  0  0  0  0  0
  145.2768  142.5386  154.5102 H   0  0  0  0  0  0  0  0  0  0  0  0
  146.3560  143.7802  153.8977 H   0  0  0  0  0  0  0  0  0  0  0  0
  147.4062  140.6325  154.4804 H   0  0  0  0  0  0  0  0  0  0  0  0
  147.6562  141.9699  153.3897 H   0  0  0  0  0  0  0  0  0  0  0  0
  149.8325  142.5287  154.4790 H   0  0  0  0  0  0  0  0  0  0  0  0
  149.2157  140.3002  153.1254 H   0  0  0  0  0  0  0  0  0  0  0  0
  148.8439  140.8469  156.5890 H   0  0  0  0  0  0  0  0  0  0  0  0
  150.2517  140.0495  155.9280 H   0  0  0  0  0  0  0  0  0  0  0  0
  150.2677  143.7444  155.6929 H   0  0  0  0  0  0  0  0  0  0  0  0
  153.3956  143.8688  159.5264 H   0  0  0  0  0  0  0  0  0  0  0  0
  151.2064  139.5489  158.3185 H   0  0  0  0  0  0  0  0  0  0  0  0
  146.0770  141.0829  156.4221 H   0  0  0  0  0  0  0  0  0  0  0  0
  147.6605  141.3668  157.1081 H   0  0  0  0  0  0  0  0  0  0  0  0
  145.7408  142.2996  158.4498 H   0  0  0  0  0  0  0  0  0  0  0  0
  147.9627  143.2335  158.8593 H   0  0  0  0  0  0  0  0  0  0  0  0
  146.7538  144.5063  158.9662 H   0  0  0  0  0  0  0  0  0  0  0  0
  147.7885  144.3825  157.5447 H   0  0  0  0  0  0  0  0  0  0  0  0
  147.8871  143.2354  155.6183 H   0  0  0  0  0  0  0  0  0  0  0  0
  1  2  1  0  0  0  0
  1 24  1  0  0  0  0
  1 25  1  0  0  0  0
  1 26  1  0  0  0  0
  2 23  1  0  0  0  0
  2  3  1  0  0  0  0
  2 27  1  0  0  0  0
  3  4  1  0  0  0  0
  3 28  1  0  0  0  0
  3 29  1  0  0  0  0
  4  5  1  0  0  0  0
  4 20  1  0  0  0  0
  4 45  1  0  0  0  0
  5  6  1  0  0  0  0
  5 30  1  0  0  0  0
  5 31  1  0  0  0  0
  6  7  1  0  0  0  0
  6  8  1  0  0  0  0
  6 32  1  0  0  0  0
  7 33  1  0  0  0  0
  8  9  1  0  0  0  0
  8 34  1  0  0  0  0
  8 35  1  0  0  0  0
  9 19  1  0  0  0  0
  9 10  1  0  0  0  0
 10 11  2  0  0  0  0
 10 36  1  0  0  0  0
 11 12  1  0  0  0  0
 12 19  2  0  0  0  0
 12 13  1  0  0  0  0
 13 14  2  0  0  0  0
 13 37  1  0  0  0  0
 14 15  1  0  0  0  0
 14 16  1  0  0  0  0
 16 17  1  0  0  0  0
 16 18  2  0  0  0  0
 18 19  1  0  0  0  0
 18 38  1  0  0  0  0
 20 21  1  0  0  0  0
 20 39  1  0  0  0  0
 20 40  1  0  0  0  0
 21 22  1  0  0  0  0
 21 23  1  0  0  0  0
 21 41  1  0  0  0  0
 22 42  1  0  0  0  0
 22 43  1  0  0  0  0
 22 44  1  0  0  0  0
M  CHG  1   4   1
M  END
> <s_m_source_file>
AV-unprocessed.smi

> <i_m_source_file_index>
1824

> <i_lp_mmshare_version>
43012

> <i_f3d_flags>
0

> <s_epik_input>
W0NIM11bQ0BASF0xW0NIMl1OKFtDSDJdW0NASF0oTzEpW0NIM10pW0NIMl1bQ0BIXShbT0hdKVtDSDJdbihbY0hdbjIpYyhjMjMpW2NIXWMoRiljKEYpW2NIXTM=

> <s_epik_cmdline>
J2VwaWtfcHl0aG9uJywgJy1waCcsICc3LjAnLCAnLXRuJywgJzgnLCAnLW1hJywgJzIwMCcsICctbWV0YWxfYmluZGluZycsICctaW1hZScsICc8aW5maWxlLm1hZT4nLCAnLW9tYWUnLCAnPG91dGZpbGUubWFlPic=

> <r_epik_Ionization_Penalty>
0.61967

> <r_epik_Ionization_Penalty_Charging>
0.608065

> <r_epik_Ionization_Penalty_Neutral>
0.0116057

> <r_epik_State_Penalty>
0.664205

> <r_epik_Charging_Adjusted_Penalty>
1.27227

> <i_epik_Tot_Q>
1

> <i_epik_Tot_abs_Q>
1

> <r_epik_Metal_State_Penalty>
0.654947

> <b_epik_Metal_Only>
0

> <s_lp_Force_Field>
OPLS_2005

> <r_lp_Energy>
23.0723

> <b_lp_Chiralities_Consistent>
1

> <s_lp_Variant>
AV-unprocessed.smi:1824-7

> <Gold.Version>
5.8.1

> <Gold.Id.Protein>
6NUR|6NUR_protein|mol2

> <Gold.PLP.Fitness>
46.4260

> <Gold.PLP.PLP>
-40.2769

> <Gold.PLP.part.hbond>
-3.5963

> <Gold.PLP.part.metal>
0.0000

> <Gold.PLP.part.buried>
0.7900

> <Gold.PLP.part.nonpolar>
-35.4658

> <Gold.PLP.part.repulsive>
0.2399

> <Gold.PLP.ligand.clash>
0.0000

> <Gold.PLP.ligand.torsion>
1.4144

> <Gold.PLP.Chemscore.Hbond>
2.9795

> <Gold.PLP.Chemscore.CHOScore>
0.0000

> <Gold.PLP.Chemscore.Metal>
0.0000

> <Gold.Chemscore.Hbonds>
donor molecule, donor type, donor heavy atom, donor atom, acceptor molecule, acceptor atom, score
      L1  H     4    45       P1  8028  2.00
      L1  H     7    33       P1  7957  0.29
      P1  H  7989  7998       L1     7  0.46
      P1  H  8011  8017       L1     7  0.08
      L1  C    10    36       P1  8028  0.12

> <Gold.PLP.Chemscore.Internal.Correction>
0.0394

> <Gold.Rescore>
     Score         DG    S(hbond)    S(metal)    S(lipo)     H(rot)  DE(clash)    DE(int)     intcor
     10.65     -13.88       1.17        0.00      89.40       2.33       1.77       1.46       ----

> <Gold.Chemscore.Fitness>
10.6525

> <Gold.Chemscore.DG>
-13.8848

> <Gold.Chemscore.ZeroCoef>
-5.4800

> <Gold.Chemscore.Hbond>
1.1667

> <Gold.Chemscore.Metal>
0.0000

> <Gold.Chemscore.Lipo>
89.4048

> <Gold.Chemscore.Internal_Hbond>
0.0000

> <Gold.Chemscore.DEClash>
1.7743

> <Gold.Chemscore.DEInternal>
1.4580

> <Gold.Chemscore.Rot>
2.3251

> <Gold.Chemscore.Internal.Correction>
   9.000000E+99

> <Gold.Chemscore.Hbonds>
donor molecule, donor type, donor heavy atom, donor atom, acceptor molecule, acceptor atom, score
      L1  H     4    45       P1  8028  0.50
      L1  H     7    33       P1  7957  0.27
      P1  H  7989  7998       L1     7  0.38

> <Gold.Chemscore.Hbond.Weighted>
-3.8968

> <Gold.Chemscore.Metal.Weighted>
-0.0000

> <Gold.Chemscore.Lipo.Weighted>
-10.4604

> <Gold.Chemscore.Internal_Hbond.Weighted>
0.0000

> <Gold.Chemscore.DEClash.Weighted>
1.7743

> <Gold.Chemscore.DEInternal.Weighted>
1.4580

> <Gold.Chemscore.Rot.Weighted>
5.9523

> <Gold.Chemscore.Internal.Correction.Weighted>
   9.000000E+99

> <Gold.Protein.RotatedTorsions>
[ 6907 6896 6895 6894 ] final   24.23 input  -60.11 | X-H torsion
[ 7974 7965 7964 7962 ] final  118.35 input  175.53 | X-H torsion
[ 8008 7997 7996 7995 ] final   61.95 input   59.86 | X-H torsion
[ 10167 10162 10161 10158 ] final -143.83 input  -65.29 | X-H torsion
[ 10718 10713 10712 10709 ] final   43.87 input   66.30 | X-H torsion
[ 10763 10752 10751 10750 ] final  -68.26 input  -60.55 | X-H torsion
[ 11005 11000 10999 10996 ] final   37.91 input  -57.11 | X-H torsion

> <Gold.Protein.ActiveResidues>
 VAL166  LYS551  ARG553  GLY616  TRP617  ASP618  TYR619  PRO620  LYS621  CYS622 
 ASP623  PHE694  ASN695  SER759  ASP760  ASP761  ALA762  ILE779  LEU786  VAL792 
 PHE793  MET794  SER795  GLU796  ALA797  LYS798  CYS799  TRP800  GLU811  SER814 

> <Gold.Protein.RotatedAtoms>
  151.9544  135.0154  160.0543 H   0  0  0  0  0  0  0  0  0  0  0  0  # atno 6907 bound_to 6896
  152.1924  133.4778  159.5023 H   0  0  0  0  0  0  0  0  0  0  0  0  # atno 6908 bound_to 6896
  150.6938  134.1612  159.4220 H   0  0  0  0  0  0  0  0  0  0  0  0  # atno 6909 bound_to 6896
  145.1563  139.3181  143.4540 H   0  0  0  0  0  0  0  0  0  0  0  0  # atno 7974 bound_to 7965
  155.6066  140.3494  155.4609 H   0  0  0  0  0  0  0  0  0  0  0  0  # atno 8008 bound_to 7997
  156.0187  140.1249  157.0404 H   0  0  0  0  0  0  0  0  0  0  0  0  # atno 8009 bound_to 7997
  154.4307  140.1067  156.5919 H   0  0  0  0  0  0  0  0  0  0  0  0  # atno 8010 bound_to 7997
  139.7956  143.7904  152.2654 H   0  0  0  0  0  0  0  0  0  0  0  0  # atno 10167 bound_to 10162
  157.4206  130.7967  149.7512 H   0  0  0  0  0  0  0  0  0  0  0  0  # atno 10718 bound_to 10713
  154.3864  135.6062  153.5819 H   0  0  0  0  0  0  0  0  0  0  0  0  # atno 10763 bound_to 10752
  152.9787  135.5873  154.4349 H   0  0  0  0  0  0  0  0  0  0  0  0  # atno 10764 bound_to 10752
  154.4127  135.2844  155.2004 H   0  0  0  0  0  0  0  0  0  0  0  0  # atno 10765 bound_to 10752
  140.2179  134.3677  155.8018 H   0  0  0  0  0  0  0  0  0  0  0  0  # atno 11005 bound_to 11000
  146.3488  140.1656  142.8590 LP  0  0  0  0  0  0  0  0  0  0  0  0  # atno 17320 bound_to 7965
  145.0378  140.8921  143.5071 LP  0  0  0  0  0  0  0  0  0  0  0  0  # atno 17321 bound_to 7965
  139.8009  144.7374  150.9826 LP  0  0  0  0  0  0  0  0  0  0  0  0  # atno 17342 bound_to 10162
  140.7820  143.4346  151.0643 LP  0  0  0  0  0  0  0  0  0  0  0  0  # atno 17343 bound_to 10162
  155.9879  130.3963  150.3141 LP  0  0  0  0  0  0  0  0  0  0  0  0  # atno 17370 bound_to 10713
  157.1289  131.0266  151.2978 LP  0  0  0  0  0  0  0  0  0  0  0  0  # atno 17371 bound_to 10713
  141.2224  133.7177  156.8526 LP  0  0  0  0  0  0  0  0  0  0  0  0  # atno 17394 bound_to 11000
  140.1881  134.8985  157.3028 LP  0  0  0  0  0  0  0  0  0  0  0  0  # atno 17395 bound_to 11000

$$$$
