AV-unprocessed.smi:1936|AV-procd|sdf|7829|dock3
  -GOLD-   22720 9573D 1   1.00000     0.00000
 Structure written by MMmdl.
 38 39  0  0  0  0  0  0  0  0  1 V2000
  145.5221  135.8484  155.1273 C   0  0  0  0  0  0  0  0  0  0  0  0
  146.6678  136.5457  154.3824 C   0  0  2  0  0  0  0  0  0  0  0  0
  146.6901  138.0647  154.6571 C   0  0  0  0  0  0  0  0  0  0  0  0
  147.9092  138.7602  154.2378 N   0  0  0  0  0  0  0  0  0  0  0  0
  149.1289  138.0907  154.6831 C   0  0  0  0  0  0  0  0  0  0  0  0
  150.3911  138.8420  154.2259 C   0  0  0  0  0  0  0  0  0  0  0  0
  150.3445  140.1873  154.6908 O   0  0  0  0  0  0  0  0  0  0  0  0
  149.1875  140.8854  154.2416 C   0  0  0  0  0  0  0  0  0  0  0  0
  147.9243  140.1406  154.7060 C   0  0  0  0  0  0  0  0  0  0  0  0
  146.5373  136.3128  152.9461 N   0  0  0  0  0  0  0  0  0  0  0  0
  145.4057  136.4237  152.2332 C   0  0  0  0  0  0  0  0  0  0  0  0
  144.3594  136.8954  152.6772 O   0  0  0  0  0  0  0  0  0  0  0  0
  145.4540  135.8749  150.8079 C   0  0  0  0  0  0  0  0  0  0  0  0
  145.3421  134.4259  150.8175 N   0  0  0  0  0  0  0  0  0  0  0  0
  144.2286  133.6487  150.5701 C   0  0  0  0  0  0  0  0  0  0  0  0
  144.6113  132.3424  150.6755 C   0  0  0  0  0  0  0  0  0  0  0  0
  145.9961  132.4214  150.9934 C   0  0  0  0  0  0  0  0  0  0  0  0
  146.4302  133.6685  151.0782 N   0  0  0  0  0  0  0  0  0  0  0  0
  145.6043  136.0033  156.2034 H   0  0  0  0  0  0  0  0  0  0  0  0
  145.5347  134.7729  154.9476 H   0  0  0  0  0  0  0  0  0  0  0  0
  144.5504  136.2282  154.8094 H   0  0  0  0  0  0  0  0  0  0  0  0
  147.6006  136.1170  154.7514 H   0  0  0  0  0  0  0  0  0  0  0  0
  145.8424  138.5083  154.1327 H   0  0  0  0  0  0  0  0  0  0  0  0
  146.5093  138.2451  155.7179 H   0  0  0  0  0  0  0  0  0  0  0  0
  149.1301  138.0075  155.7709 H   0  0  0  0  0  0  0  0  0  0  0  0
  149.1698  137.0750  154.2907 H   0  0  0  0  0  0  0  0  0  0  0  0
  151.2843  138.3583  154.6215 H   0  0  0  0  0  0  0  0  0  0  0  0
  150.4749  138.8276  153.1383 H   0  0  0  0  0  0  0  0  0  0  0  0
  149.2020  141.8978  154.6455 H   0  0  0  0  0  0  0  0  0  0  0  0
  149.2064  140.9732  153.1542 H   0  0  0  0  0  0  0  0  0  0  0  0
  147.0421  140.6664  154.3389 H   0  0  0  0  0  0  0  0  0  0  0  0
  147.8705  140.1629  155.7956 H   0  0  0  0  0  0  0  0  0  0  0  0
  147.3440  135.9220  152.4818 H   0  0  0  0  0  0  0  0  0  0  0  0
  144.6448  136.3015  150.2127 H   0  0  0  0  0  0  0  0  0  0  0  0
  146.3920  136.1544  150.3260 H   0  0  0  0  0  0  0  0  0  0  0  0
  143.2686  134.0851  150.3355 H   0  0  0  0  0  0  0  0  0  0  0  0
  143.9974  131.4645  150.5411 H   0  0  0  0  0  0  0  0  0  0  0  0
  146.6945  131.6149  151.1620 H   0  0  0  0  0  0  0  0  0  0  0  0
  1  2  1  0  0  0  0
  1 19  1  0  0  0  0
  1 20  1  0  0  0  0
  1 21  1  0  0  0  0
  2  3  1  0  0  0  0
  2 10  1  0  0  0  0
  2 22  1  0  0  0  0
  3  4  1  0  0  0  0
  3 23  1  0  0  0  0
  3 24  1  0  0  0  0
  4  9  1  0  0  0  0
  4  5  1  0  0  0  0
  5  6  1  0  0  0  0
  5 25  1  0  0  0  0
  5 26  1  0  0  0  0
  6  7  1  0  0  0  0
  6 27  1  0  0  0  0
  6 28  1  0  0  0  0
  7  8  1  0  0  0  0
  8  9  1  0  0  0  0
  8 29  1  0  0  0  0
  8 30  1  0  0  0  0
  9 31  1  0  0  0  0
  9 32  1  0  0  0  0
 10 11  1  0  0  0  0
 10 33  1  0  0  0  0
 11 12  2  0  0  0  0
 11 13  1  0  0  0  0
 13 14  1  0  0  0  0
 13 34  1  0  0  0  0
 13 35  1  0  0  0  0
 14 18  1  0  0  0  0
 14 15  1  0  0  0  0
 15 16  2  0  0  0  0
 15 36  1  0  0  0  0
 16 17  1  0  0  0  0
 16 37  1  0  0  0  0
 17 18  2  0  0  0  0
 17 38  1  0  0  0  0
M  END
> <s_m_source_file>
AV-unprocessed.smi

> <i_m_source_file_index>
1936

> <i_lp_mmshare_version>
43012

> <i_f3d_flags>
0

> <s_epik_input>
W0NIMl0xW0NIMl1PW0NIMl1bQ0gyXU4xW0NIMl1bQ0BASF0oW0NIM10pW05IXUMoPU8pW0NIMl1uMltjSF1bY0hdW2NIXW4y

> <s_epik_cmdline>
J2VwaWtfcHl0aG9uJywgJy1waCcsICc3LjAnLCAnLXRuJywgJzgnLCAnLW1hJywgJzIwMCcsICctbWV0YWxfYmluZGluZycsICctaW1hZScsICc8aW5maWxlLm1hZT4nLCAnLW9tYWUnLCAnPG91dGZpbGUubWFlPic=

> <r_lp_tautomer_probability>
1

> <r_epik_Ionization_Penalty>
0.196927

> <r_epik_Ionization_Penalty_Charging>
0

> <r_epik_Ionization_Penalty_Neutral>
0.196927

> <r_epik_State_Penalty>
0.186684

> <r_epik_Charging_Adjusted_Penalty>
0.186684

> <i_epik_Tot_Q>
0

> <i_epik_Tot_abs_Q>
0

> <r_epik_Metal_State_Penalty>
0.186682

> <b_epik_Metal_Only>
0

> <s_lp_Force_Field>
OPLS_2005

> <r_lp_Energy>
24.3888

> <b_lp_Chiralities_Consistent>
1

> <s_lp_Variant>
AV-unprocessed.smi:1936-1

> <Gold.Version>
5.8.1

> <Gold.Id.Protein>
6NUR|6NUR_protein|mol2

> <Gold.PLP.Fitness>
36.8245

> <Gold.PLP.PLP>
-27.1008

> <Gold.PLP.part.hbond>
-2.0000

> <Gold.PLP.part.metal>
0.0000

> <Gold.PLP.part.buried>
-5.2108

> <Gold.PLP.part.nonpolar>
-21.1634

> <Gold.PLP.part.repulsive>
0.6118

> <Gold.PLP.ligand.clash>
0.0000

> <Gold.PLP.ligand.torsion>
0.8797

> <Gold.PLP.Chemscore.Hbond>
1.7940

> <Gold.PLP.Chemscore.CHOScore>
1.9998

> <Gold.PLP.Chemscore.Metal>
0.0000

> <Gold.Chemscore.Hbonds>
donor molecule, donor type, donor heavy atom, donor atom, acceptor molecule, acceptor atom, score
      L1  H    10    33       P1  7948  0.94
      P1  H  7989  7998       L1     7  0.85
      L1  C    15    36       P1 10186  1.00
      L1  C    17    38       P1 10747  0.92

> <Gold.PLP.Chemscore.Internal.Correction>
0.1018

> <Gold.Rescore>
     Score         DG    S(hbond)    S(metal)    S(lipo)     H(rot)  DE(clash)    DE(int)     intcor
      9.44     -11.49       1.05        0.00      61.93       1.85       0.04       2.01       ----

> <Gold.Chemscore.Fitness>
9.4404

> <Gold.Chemscore.DG>
-11.4870

> <Gold.Chemscore.ZeroCoef>
-5.4800

> <Gold.Chemscore.Hbond>
1.0507

> <Gold.Chemscore.Metal>
0.0000

> <Gold.Chemscore.Lipo>
61.9342

> <Gold.Chemscore.Internal_Hbond>
0.0000

> <Gold.Chemscore.DEClash>
0.0369

> <Gold.Chemscore.DEInternal>
2.0097

> <Gold.Chemscore.Rot>
1.8549

> <Gold.Chemscore.Internal.Correction>
   9.000000E+99

> <Gold.Chemscore.Hbonds>
donor molecule, donor type, donor heavy atom, donor atom, acceptor molecule, acceptor atom, score
      L1  H    10    33       P1  7948  0.91
      P1  H  7989  7998       L1     7  0.04

> <Gold.Chemscore.Hbond.Weighted>
-3.5092

> <Gold.Chemscore.Metal.Weighted>
-0.0000

> <Gold.Chemscore.Lipo.Weighted>
-7.2463

> <Gold.Chemscore.Internal_Hbond.Weighted>
0.0000

> <Gold.Chemscore.DEClash.Weighted>
0.0369

> <Gold.Chemscore.DEInternal.Weighted>
2.0097

> <Gold.Chemscore.Rot.Weighted>
4.7485

> <Gold.Chemscore.Internal.Correction.Weighted>
   9.000000E+99

> <Gold.Protein.RotatedTorsions>
[ 6907 6896 6895 6894 ] final   74.11 input  -60.11 | X-H torsion
[ 7974 7965 7964 7962 ] final   -6.84 input  175.53 | X-H torsion
[ 8008 7997 7996 7995 ] final  -41.20 input   59.86 | X-H torsion
[ 10167 10162 10161 10158 ] final -151.68 input  -65.29 | X-H torsion
[ 10718 10713 10712 10709 ] final  178.52 input   66.30 | X-H torsion
[ 10763 10752 10751 10750 ] final   45.36 input  -60.55 | X-H torsion
[ 11005 11000 10999 10996 ] final  -23.33 input  -57.11 | X-H torsion

> <Gold.Protein.ActiveResidues>
 VAL166  LYS551  ARG553  GLY616  TRP617  ASP618  TYR619  PRO620  LYS621  CYS622 
 ASP623  PHE694  ASN695  SER759  ASP760  ASP761  ALA762  ILE779  LEU786  VAL792 
 PHE793  MET794  SER795  GLU796  ALA797  LYS798  CYS799  TRP800  GLU811  SER814 

> <Gold.Protein.RotatedAtoms>
  152.4958  134.4321  159.9515 H   0  0  0  0  0  0  0  0  0  0  0  0  # atno 6907 bound_to 6896
  151.4300  133.3667  159.2775 H   0  0  0  0  0  0  0  0  0  0  0  0  # atno 6908 bound_to 6896
  150.9161  134.8602  159.7518 H   0  0  0  0  0  0  0  0  0  0  0  0  # atno 6909 bound_to 6896
  146.2321  140.2231  142.8338 H   0  0  0  0  0  0  0  0  0  0  0  0  # atno 7974 bound_to 7965
  154.4006  140.1505  156.3152 H   0  0  0  0  0  0  0  0  0  0  0  0  # atno 8008 bound_to 7997
  155.8579  140.3455  155.5715 H   0  0  0  0  0  0  0  0  0  0  0  0  # atno 8009 bound_to 7997
  155.7912  140.0857  157.1998 H   0  0  0  0  0  0  0  0  0  0  0  0  # atno 8010 bound_to 7997
  139.7246  143.8903  152.2515 H   0  0  0  0  0  0  0  0  0  0  0  0  # atno 10167 bound_to 10162
  156.8894  130.9842  151.3051 H   0  0  0  0  0  0  0  0  0  0  0  0  # atno 10718 bound_to 10713
  152.9826  135.6042  154.3425 H   0  0  0  0  0  0  0  0  0  0  0  0  # atno 10763 bound_to 10752
  154.3120  135.2771  155.2563 H   0  0  0  0  0  0  0  0  0  0  0  0  # atno 10764 bound_to 10752
  154.4768  135.5927  153.6417 H   0  0  0  0  0  0  0  0  0  0  0  0  # atno 10765 bound_to 10752
  140.8742  133.7699  156.0223 H   0  0  0  0  0  0  0  0  0  0  0  0  # atno 11005 bound_to 11000
  144.9616  140.8281  143.5510 LP  0  0  0  0  0  0  0  0  0  0  0  0  # atno 17320 bound_to 7965
  145.2202  139.2162  143.5097 LP  0  0  0  0  0  0  0  0  0  0  0  0  # atno 17321 bound_to 7965
  139.8809  144.7018  150.8879 LP  0  0  0  0  0  0  0  0  0  0  0  0  # atno 17342 bound_to 10162
  140.7760  143.3662  151.1735 LP  0  0  0  0  0  0  0  0  0  0  0  0  # atno 17343 bound_to 10162
  157.6093  130.8571  149.8925 LP  0  0  0  0  0  0  0  0  0  0  0  0  # atno 17370 bound_to 10713
  156.0637  130.3695  150.0926 LP  0  0  0  0  0  0  0  0  0  0  0  0  # atno 17371 bound_to 10713
  140.8538  134.2923  157.5264 LP  0  0  0  0  0  0  0  0  0  0  0  0  # atno 17394 bound_to 11000
  139.8714  134.9482  156.3989 LP  0  0  0  0  0  0  0  0  0  0  0  0  # atno 17395 bound_to 11000

$$$$
