AV-unprocessed.smi:1813|AV-procd|sdf|7345|dock5
  -GOLD-   22720 9 03D 1   1.00000     0.00000
 Structure written by MMmdl.
 39 40  0  0  0  0  0  0  0  0  3 V2000
  150.7581  132.4354  155.9869 C   0  0  0  0  0  0  0  0  0  0  0  0
  149.8957  133.6104  156.0297 N   0  5  0  0  0  0  0  0  0  0  0  0
  149.2600  134.1142  154.9379 C   0  0  0  0  0  0  0  0  0  0  0  0
  149.2179  133.7096  153.7712 O   0  0  0  0  0  0  0  0  0  0  0  0
  148.4665  135.3767  155.2940 C   0  0  0  0  0  0  0  0  0  0  0  0
  149.1059  136.5712  154.6881 N   0  3  2  0  0  0  0  0  0  0  0  0
  150.4931  136.7744  155.1770 C   0  0  0  0  0  0  0  0  0  0  0  0
  151.1844  137.9262  154.4265 C   0  0  0  0  0  0  0  0  0  0  0  0
  150.3807  139.2387  154.5153 C   0  0  2  0  0  0  0  0  0  0  0  0
  150.4119  139.8074  155.8627 N   0  0  0  0  0  0  0  0  0  0  0  0
  151.5184  140.0089  156.5933 C   0  0  0  0  0  0  0  0  0  0  0  0
  152.6502  139.7220  156.2022 O   0  0  0  0  0  0  0  0  0  0  0  0
  151.2222  140.5536  157.7865 N   0  0  0  0  0  0  0  0  0  0  0  0
  152.1120  140.9043  158.8358 C   0  0  0  0  0  0  0  0  0  0  0  0
  153.0823  140.1083  159.3003 N   0  0  0  0  0  0  0  0  0  0  0  0
  153.8027  140.7092  160.3356 C   0  0  0  0  0  0  0  0  0  0  0  0
  153.3628  141.9709  160.6501 C   0  0  0  0  0  0  0  0  0  0  0  0
  152.0202  142.4589  159.6503 S   0  0  0  0  0  0  0  0  0  0  0  0
  148.9298  138.9868  154.0704 C   0  0  0  0  0  0  0  0  0  0  0  0
  148.2893  137.8076  154.8250 C   0  0  0  0  0  0  0  0  0  0  0  0
  151.2099  132.2287  156.9567 H   0  0  0  0  0  0  0  0  0  0  0  0
  151.5810  132.5467  155.2804 H   0  0  0  0  0  0  0  0  0  0  0  0
  150.2155  131.5339  155.7006 H   0  0  0  0  0  0  0  0  0  0  0  0
  147.4154  135.3156  155.0026 H   0  0  0  0  0  0  0  0  0  0  0  0
  148.4787  135.4588  156.3818 H   0  0  0  0  0  0  0  0  0  0  0  0
  150.4775  136.9726  156.2499 H   0  0  0  0  0  0  0  0  0  0  0  0
  151.0709  135.8607  155.0331 H   0  0  0  0  0  0  0  0  0  0  0  0
  152.1967  138.0665  154.8072 H   0  0  0  0  0  0  0  0  0  0  0  0
  151.2961  137.6480  153.3776 H   0  0  0  0  0  0  0  0  0  0  0  0
  150.8211  139.9684  153.8332 H   0  0  0  0  0  0  0  0  0  0  0  0
  149.5253  140.0777  156.2631 H   0  0  0  0  0  0  0  0  0  0  0  0
  150.2468  140.7390  157.9673 H   0  0  0  0  0  0  0  0  0  0  0  0
  154.6156  140.1652  160.7942 H   0  0  0  0  0  0  0  0  0  0  0  0
  153.7465  142.6403  161.4057 H   0  0  0  0  0  0  0  0  0  0  0  0
  148.3300  139.8879  154.2046 H   0  0  0  0  0  0  0  0  0  0  0  0
  148.9161  138.7717  153.0010 H   0  0  0  0  0  0  0  0  0  0  0  0
  147.2863  137.6434  154.4308 H   0  0  0  0  0  0  0  0  0  0  0  0
  148.1724  138.0516  155.8818 H   0  0  0  0  0  0  0  0  0  0  0  0
  149.1774  136.3725  153.7002 H   0  0  0  0  0  0  0  0  0  0  0  0
  1  2  1  0  0  0  0
  1 21  1  0  0  0  0
  1 22  1  0  0  0  0
  1 23  1  0  0  0  0
  2  3  1  0  0  0  0
  3  4  2  0  0  0  0
  3  5  1  0  0  0  0
  5  6  1  0  0  0  0
  5 24  1  0  0  0  0
  5 25  1  0  0  0  0
  6 20  1  0  0  0  0
  6  7  1  0  0  0  0
  6 39  1  0  0  0  0
  7  8  1  0  0  0  0
  7 26  1  0  0  0  0
  7 27  1  0  0  0  0
  8  9  1  0  0  0  0
  8 28  1  0  0  0  0
  8 29  1  0  0  0  0
  9 10  1  0  0  0  0
  9 19  1  0  0  0  0
  9 30  1  0  0  0  0
 10 11  1  0  0  0  0
 10 31  1  0  0  0  0
 11 12  2  0  0  0  0
 11 13  1  0  0  0  0
 13 14  1  0  0  0  0
 13 32  1  0  0  0  0
 14 18  1  0  0  0  0
 14 15  2  0  0  0  0
 15 16  1  0  0  0  0
 16 17  2  0  0  0  0
 16 33  1  0  0  0  0
 17 18  1  0  0  0  0
 17 34  1  0  0  0  0
 19 20  1  0  0  0  0
 19 35  1  0  0  0  0
 19 36  1  0  0  0  0
 20 37  1  0  0  0  0
 20 38  1  0  0  0  0
M  CHG  1   2  -1
M  CHG  1   6   1
M  END
> <s_m_source_file>
AV-unprocessed.smi

> <i_m_source_file_index>
1813

> <i_lp_mmshare_version>
43012

> <i_f3d_flags>
0

> <s_epik_input>
W0NIM11bTkhdQyg9TylbQ0gyXU4xW0NIMl1bQ0gyXVtDSF0oW0NIMl1bQ0gyXTEpW05IXUMoPU8pW05IXWMybltjSF1bY0hdczI=

> <s_epik_cmdline>
J2VwaWtfcHl0aG9uJywgJy1waCcsICc3LjAnLCAnLXRuJywgJzgnLCAnLW1hJywgJzIwMCcsICctbWV0YWxfYmluZGluZycsICctaW1hZScsICc8aW5maWxlLm1hZT4nLCAnLW9tYWUnLCAnPG91dGZpbGUubWFlPic=

> <r_lp_tautomer_probability>
0.999

> <r_epik_Ionization_Penalty>
6.14232

> <r_epik_Ionization_Penalty_Charging>
6.14218

> <r_epik_Ionization_Penalty_Neutral>
0.000139308

> <r_epik_State_Penalty>
6.98503

> <r_epik_Charging_Adjusted_Penalty>
13.1272

> <i_epik_Tot_Q>
0

> <i_epik_Tot_abs_Q>
2

> <r_epik_Metal_State_Penalty>
2.95036

> <b_epik_Metal_Only>
1

> <s_lp_Force_Field>
OPLS_2005

> <r_lp_Energy>
8.34863

> <b_lp_Chiralities_Consistent>
1

> <s_lp_Variant>
AV-unprocessed.smi:1813-6

> <Gold.Version>
5.8.1

> <Gold.Id.Protein>
6NUR|6NUR_protein|mol2

> <Gold.PLP.Fitness>
40.9005

> <Gold.PLP.PLP>
-33.0465

> <Gold.PLP.part.hbond>
-2.0000

> <Gold.PLP.part.metal>
0.0000

> <Gold.PLP.part.buried>
-3.4356

> <Gold.PLP.part.nonpolar>
-27.1394

> <Gold.PLP.part.repulsive>
0.3217

> <Gold.PLP.ligand.clash>
0.0000

> <Gold.PLP.ligand.torsion>
0.5984

> <Gold.PLP.Chemscore.Hbond>
3.0000

> <Gold.PLP.Chemscore.CHOScore>
0.0000

> <Gold.PLP.Chemscore.Metal>
0.0000

> <Gold.Chemscore.Hbonds>
donor molecule, donor type, donor heavy atom, donor atom, acceptor molecule, acceptor atom, score
      L1  H     6    39       P1  7948  2.00
      P1  H  7997  8010       L1    12  0.96

> <Gold.PLP.Chemscore.Internal.Correction>
0.0507

> <Gold.Rescore>
     Score         DG    S(hbond)    S(metal)    S(lipo)     H(rot)  DE(clash)    DE(int)     intcor
     13.86     -15.73       2.00        0.00      68.41       1.73       0.09       1.77       ----

> <Gold.Chemscore.Fitness>
13.8615

> <Gold.Chemscore.DG>
-15.7260

> <Gold.Chemscore.ZeroCoef>
-5.4800

> <Gold.Chemscore.Hbond>
1.9980

> <Gold.Chemscore.Metal>
0.0000

> <Gold.Chemscore.Lipo>
68.4148

> <Gold.Chemscore.Internal_Hbond>
0.0000

> <Gold.Chemscore.DEClash>
0.0914

> <Gold.Chemscore.DEInternal>
1.7731

> <Gold.Chemscore.Rot>
1.7312

> <Gold.Chemscore.Internal.Correction>
   9.000000E+99

> <Gold.Chemscore.Hbonds>
donor molecule, donor type, donor heavy atom, donor atom, acceptor molecule, acceptor atom, score
      L1  H     6    39       P1  7948  0.96
      P1  H  7997  8010       L1    12  0.92

> <Gold.Chemscore.Hbond.Weighted>
-6.6734

> <Gold.Chemscore.Metal.Weighted>
-0.0000

> <Gold.Chemscore.Lipo.Weighted>
-8.0045

> <Gold.Chemscore.Internal_Hbond.Weighted>
0.0000

> <Gold.Chemscore.DEClash.Weighted>
0.0914

> <Gold.Chemscore.DEInternal.Weighted>
1.7731

> <Gold.Chemscore.Rot.Weighted>
4.4319

> <Gold.Chemscore.Internal.Correction.Weighted>
   9.000000E+99

> <Gold.Protein.RotatedTorsions>
[ 6907 6896 6895 6894 ] final   71.01 input  -60.11 | X-H torsion
[ 7974 7965 7964 7962 ] final  142.58 input  175.53 | X-H torsion
[ 8008 7997 7996 7995 ] final   99.40 input   59.86 | X-H torsion
[ 10167 10162 10161 10158 ] final   12.59 input  -65.29 | X-H torsion
[ 10718 10713 10712 10709 ] final   79.19 input   66.30 | X-H torsion
[ 10763 10752 10751 10750 ] final   72.39 input  -60.55 | X-H torsion
[ 11005 11000 10999 10996 ] final   56.78 input  -57.11 | X-H torsion

> <Gold.Protein.ActiveResidues>
 VAL166  LYS551  ARG553  GLY616  TRP617  ASP618  TYR619  PRO620  LYS621  CYS622 
 ASP623  PHE694  ASN695  SER759  ASP760  ASP761  ALA762  ILE779  LEU786  VAL792 
 PHE793  MET794  SER795  GLU796  ALA797  LYS798  CYS799  TRP800  GLU811  SER814 

> <Gold.Protein.RotatedAtoms>
  152.4784  134.4784  159.9657 H   0  0  0  0  0  0  0  0  0  0  0  0  # atno 6907 bound_to 6896
  151.4795  133.3544  159.2844 H   0  0  0  0  0  0  0  0  0  0  0  0  # atno 6908 bound_to 6896
  150.8838  134.8260  159.7305 H   0  0  0  0  0  0  0  0  0  0  0  0  # atno 6909 bound_to 6896
  144.8996  139.5442  143.5760 H   0  0  0  0  0  0  0  0  0  0  0  0  # atno 7974 bound_to 7965
  156.1101  140.3229  155.8061 H   0  0  0  0  0  0  0  0  0  0  0  0  # atno 8008 bound_to 7997
  155.4688  140.0545  157.2999 H   0  0  0  0  0  0  0  0  0  0  0  0  # atno 8009 bound_to 7997
  154.4754  140.2030  155.9905 H   0  0  0  0  0  0  0  0  0  0  0  0  # atno 8010 bound_to 7997
  140.6058  143.8511  150.7012 H   0  0  0  0  0  0  0  0  0  0  0  0  # atno 10167 bound_to 10162
  157.6769  130.9903  150.1896 H   0  0  0  0  0  0  0  0  0  0  0  0  # atno 10718 bound_to 10713
  153.0456  135.5102  154.7736 H   0  0  0  0  0  0  0  0  0  0  0  0  # atno 10763 bound_to 10752
  154.6639  135.2943  154.9833 H   0  0  0  0  0  0  0  0  0  0  0  0  # atno 10764 bound_to 10752
  154.0674  135.6682  153.4872 H   0  0  0  0  0  0  0  0  0  0  0  0  # atno 10765 bound_to 10752
  140.0503  134.5747  155.9272 H   0  0  0  0  0  0  0  0  0  0  0  0  # atno 11005 bound_to 11000
  146.3100  139.7714  142.9027 LP  0  0  0  0  0  0  0  0  0  0  0  0  # atno 17320 bound_to 7965
  145.3640  141.0331  143.3268 LP  0  0  0  0  0  0  0  0  0  0  0  0  # atno 17321 bound_to 7965
  140.2067  143.3915  152.1749 LP  0  0  0  0  0  0  0  0  0  0  0  0  # atno 17342 bound_to 10162
  139.5324  144.7173  151.5010 LP  0  0  0  0  0  0  0  0  0  0  0  0  # atno 17343 bound_to 10162
  156.2611  130.3711  149.8130 LP  0  0  0  0  0  0  0  0  0  0  0  0  # atno 17370 bound_to 10713
  156.5875  130.8492  151.3399 LP  0  0  0  0  0  0  0  0  0  0  0  0  # atno 17371 bound_to 10713
  141.1927  133.6576  156.5513 LP  0  0  0  0  0  0  0  0  0  0  0  0  # atno 17394 bound_to 11000
  140.3928  134.7425  157.4732 LP  0  0  0  0  0  0  0  0  0  0  0  0  # atno 17395 bound_to 11000

$$$$
