AV-unprocessed.smi:2859|AV-procd|sdf|11004|dock2
  -GOLD-   2272015463D 1   1.00000     0.00000
 Structure written by MMmdl.
 51 52  0  0  0  0  0  0  0  0  1 V2000
  152.1940  144.4828  160.8756 C   0  0  0  0  0  0  0  0  0  0  0  0
  151.7521  144.0387  159.4631 C   0  0  0  0  0  0  0  0  0  0  0  0
  150.2106  144.0875  159.4207 C   0  0  0  0  0  0  0  0  0  0  0  0
  152.3366  145.0481  158.4534 C   0  0  0  0  0  0  0  0  0  0  0  0
  152.2346  142.6201  159.1150 C   0  0  0  0  0  0  0  0  0  0  0  0
  153.1931  141.9100  159.8776 C   0  0  0  0  0  0  0  0  0  0  0  0
  153.5252  140.6009  159.4479 C   0  0  0  0  0  0  0  0  0  0  0  0
  154.4617  139.7869  160.1253 N   0  0  0  0  0  0  0  0  0  0  0  0
  155.0101  140.2597  161.3928 C   0  0  0  0  0  0  0  0  0  0  0  0
  156.2332  139.4225  161.7965 C   0  0  0  0  0  0  0  0  0  0  0  0
  155.8828  138.0445  161.8244 O   0  0  0  0  0  0  0  0  0  0  0  0
  155.4858  137.5650  160.5400 C   0  0  1  0  0  0  0  0  0  0  0  0
  155.2344  136.0526  160.6333 C   0  0  0  0  0  0  0  0  0  0  0  0
  156.2548  135.2873  161.0320 N   0  0  0  0  0  0  0  0  0  0  0  0
  154.1428  135.5712  160.3347 O   0  0  0  0  0  0  0  0  0  0  0  0
  154.2350  138.3420  160.0700 C   0  0  0  0  0  0  0  0  0  0  0  0
  152.9414  140.0826  158.3428 N   0  0  0  0  0  0  0  0  0  0  0  0
  152.0782  140.8380  157.6563 C   0  0  0  0  0  0  0  0  0  0  0  0
  151.3229  140.1682  156.4965 C   0  0  0  0  0  0  0  0  0  0  0  0
  150.4366  141.2118  155.7927 C   0  0  0  0  0  0  0  0  0  0  0  0
  150.4426  139.0017  157.0048 C   0  0  0  0  0  0  0  0  0  0  0  0
  152.3088  139.5497  155.4774 C   0  0  0  0  0  0  0  0  0  0  0  0
  151.6783  142.0611  158.0164 N   0  0  0  0  0  0  0  0  0  0  0  0
  151.8420  145.4901  161.1010 H   0  0  0  0  0  0  0  0  0  0  0  0
  153.2803  144.4961  160.9724 H   0  0  0  0  0  0  0  0  0  0  0  0
  151.7935  143.8259  161.6488 H   0  0  0  0  0  0  0  0  0  0  0  0
  149.7734  143.3756  160.1218 H   0  0  0  0  0  0  0  0  0  0  0  0
  149.8248  143.8502  158.4286 H   0  0  0  0  0  0  0  0  0  0  0  0
  149.8366  145.0782  159.6816 H   0  0  0  0  0  0  0  0  0  0  0  0
  152.0254  146.0672  158.6849 H   0  0  0  0  0  0  0  0  0  0  0  0
  152.0113  144.8370  157.4342 H   0  0  0  0  0  0  0  0  0  0  0  0
  153.4271  145.0270  158.4610 H   0  0  0  0  0  0  0  0  0  0  0  0
  153.6371  142.3417  160.7593 H   0  0  0  0  0  0  0  0  0  0  0  0
  155.3171  141.3026  161.3095 H   0  0  0  0  0  0  0  0  0  0  0  0
  154.2407  140.2003  162.1638 H   0  0  0  0  0  0  0  0  0  0  0  0
  157.0622  139.5851  161.1058 H   0  0  0  0  0  0  0  0  0  0  0  0
  156.5807  139.7205  162.7858 H   0  0  0  0  0  0  0  0  0  0  0  0
  156.3019  137.7179  159.8317 H   0  0  0  0  0  0  0  0  0  0  0  0
  156.1336  134.2869  161.0980 H   0  0  0  0  0  0  0  0  0  0  0  0
  157.1433  135.7105  161.2565 H   0  0  0  0  0  0  0  0  0  0  0  0
  153.3779  138.1011  160.7006 H   0  0  0  0  0  0  0  0  0  0  0  0
  153.9862  138.0219  159.0579 H   0  0  0  0  0  0  0  0  0  0  0  0
  149.8829  140.7702  154.9636 H   0  0  0  0  0  0  0  0  0  0  0  0
  151.0333  142.0316  155.3909 H   0  0  0  0  0  0  0  0  0  0  0  0
  149.7096  141.6423  156.4826 H   0  0  0  0  0  0  0  0  0  0  0  0
  149.6609  139.3451  157.6836 H   0  0  0  0  0  0  0  0  0  0  0  0
  151.0376  138.2571  157.5353 H   0  0  0  0  0  0  0  0  0  0  0  0
  149.9416  138.4936  156.1804 H   0  0  0  0  0  0  0  0  0  0  0  0
  151.7794  139.0327  154.6763 H   0  0  0  0  0  0  0  0  0  0  0  0
  152.9698  138.8250  155.9544 H   0  0  0  0  0  0  0  0  0  0  0  0
  152.9354  140.3061  155.0030 H   0  0  0  0  0  0  0  0  0  0  0  0
  1  2  1  0  0  0  0
  1 24  1  0  0  0  0
  1 25  1  0  0  0  0
  1 26  1  0  0  0  0
  2  3  1  0  0  0  0
  2  4  1  0  0  0  0
  2  5  1  0  0  0  0
  3 27  1  0  0  0  0
  3 28  1  0  0  0  0
  3 29  1  0  0  0  0
  4 30  1  0  0  0  0
  4 31  1  0  0  0  0
  4 32  1  0  0  0  0
  5 23  1  0  0  0  0
  5  6  2  0  0  0  0
  6  7  1  0  0  0  0
  6 33  1  0  0  0  0
  7  8  1  0  0  0  0
  7 17  2  0  0  0  0
  8 16  1  0  0  0  0
  8  9  1  0  0  0  0
  9 10  1  0  0  0  0
  9 34  1  0  0  0  0
  9 35  1  0  0  0  0
 10 11  1  0  0  0  0
 10 36  1  0  0  0  0
 10 37  1  0  0  0  0
 11 12  1  0  0  0  0
 12 13  1  0  0  0  0
 12 16  1  0  0  0  0
 12 38  1  0  0  0  0
 13 14  1  0  0  0  0
 13 15  2  0  0  0  0
 14 39  1  0  0  0  0
 14 40  1  0  0  0  0
 16 41  1  0  0  0  0
 16 42  1  0  0  0  0
 17 18  1  0  0  0  0
 18 19  1  0  0  0  0
 18 23  2  0  0  0  0
 19 20  1  0  0  0  0
 19 21  1  0  0  0  0
 19 22  1  0  0  0  0
 20 43  1  0  0  0  0
 20 44  1  0  0  0  0
 20 45  1  0  0  0  0
 21 46  1  0  0  0  0
 21 47  1  0  0  0  0
 21 48  1  0  0  0  0
 22 49  1  0  0  0  0
 22 50  1  0  0  0  0
 22 51  1  0  0  0  0
M  END
> <s_m_source_file>
AV-unprocessed.smi

> <i_m_source_file_index>
2859

> <i_lp_mmshare_version>
43012

> <i_f3d_flags>
0

> <s_epik_input>
W0NIM11DKFtDSDNdKShbQ0gzXSljMVtjSF1jKG5jKG4xKUMoW0NIM10pKFtDSDNdKVtDSDNdKU4yW0NIMl1bQ0gyXU9bQ0BIXShbQ0gyXTIpQyg9TylbTkgyXQ==

> <s_epik_cmdline>
J2VwaWtfcHl0aG9uJywgJy1waCcsICc3LjAnLCAnLXRuJywgJzgnLCAnLW1hJywgJzIwMCcsICctbWV0YWxfYmluZGluZycsICctaW1hZScsICc8aW5maWxlLm1hZT4nLCAnLW9tYWUnLCAnPG91dGZpbGUubWFlPic=

> <r_lp_tautomer_probability>
1

> <r_epik_Ionization_Penalty>
0.0011326

> <r_epik_Ionization_Penalty_Charging>
0

> <r_epik_Ionization_Penalty_Neutral>
0.0011326

> <r_epik_State_Penalty>
0.000721507

> <r_epik_Charging_Adjusted_Penalty>
0.000721507

> <i_epik_Tot_Q>
0

> <i_epik_Tot_abs_Q>
0

> <r_epik_Metal_State_Penalty>
-0

> <b_epik_Metal_Only>
0

> <s_lp_Force_Field>
OPLS_2005

> <r_lp_Energy>
9.66703

> <b_lp_Chiralities_Consistent>
1

> <s_lp_Variant>
AV-unprocessed.smi:2859-1

> <Gold.Version>
5.8.1

> <Gold.Id.Protein>
6NUR|6NUR_protein|mol2

> <Gold.PLP.Fitness>
43.8906

> <Gold.PLP.PLP>
-39.7923

> <Gold.PLP.part.hbond>
-2.0000

> <Gold.PLP.part.metal>
0.0000

> <Gold.PLP.part.buried>
-4.8726

> <Gold.PLP.part.nonpolar>
-32.3638

> <Gold.PLP.part.repulsive>
0.0310

> <Gold.PLP.ligand.clash>
0.0000

> <Gold.PLP.ligand.torsion>
1.0202

> <Gold.PLP.Chemscore.Hbond>
1.8288

> <Gold.PLP.Chemscore.CHOScore>
0.0000

> <Gold.PLP.Chemscore.Metal>
0.0000

> <Gold.Chemscore.Hbonds>
donor molecule, donor type, donor heavy atom, donor atom, acceptor molecule, acceptor atom, score
      P1  H  6896  6907       L1    15  1.00
      P1  H  7997  8010       L1    17  0.81

> <Gold.PLP.Chemscore.Internal.Correction>
0.6524

> <Gold.Rescore>
     Score         DG    S(hbond)    S(metal)    S(lipo)     H(rot)  DE(clash)    DE(int)     intcor
     16.97     -17.88       1.04        0.00     116.25       1.83       0.09       0.82       ----

> <Gold.Chemscore.Fitness>
16.9706

> <Gold.Chemscore.DG>
-17.8761

> <Gold.Chemscore.ZeroCoef>
-5.4800

> <Gold.Chemscore.Hbond>
1.0435

> <Gold.Chemscore.Metal>
0.0000

> <Gold.Chemscore.Lipo>
116.2519

> <Gold.Chemscore.Internal_Hbond>
0.0000

> <Gold.Chemscore.DEClash>
0.0852

> <Gold.Chemscore.DEInternal>
0.8203

> <Gold.Chemscore.Rot>
1.8323

> <Gold.Chemscore.Internal.Correction>
   9.000000E+99

> <Gold.Chemscore.Hbonds>
donor molecule, donor type, donor heavy atom, donor atom, acceptor molecule, acceptor atom, score
      P1  H  6896  6907       L1    15  0.90
      P1  H  7997  8010       L1    17  0.07

> <Gold.Chemscore.Hbond.Weighted>
-3.4854

> <Gold.Chemscore.Metal.Weighted>
-0.0000

> <Gold.Chemscore.Lipo.Weighted>
-13.6015

> <Gold.Chemscore.Internal_Hbond.Weighted>
0.0000

> <Gold.Chemscore.DEClash.Weighted>
0.0852

> <Gold.Chemscore.DEInternal.Weighted>
0.8203

> <Gold.Chemscore.Rot.Weighted>
4.6907

> <Gold.Chemscore.Internal.Correction.Weighted>
   9.000000E+99

> <Gold.Protein.RotatedTorsions>
[ 6907 6896 6895 6894 ] final   42.10 input  -60.11 | X-H torsion
[ 7974 7965 7964 7962 ] final -100.74 input  175.53 | X-H torsion
[ 8008 7997 7996 7995 ] final   38.44 input   59.86 | X-H torsion
[ 10167 10162 10161 10158 ] final  -80.41 input  -65.29 | X-H torsion
[ 10718 10713 10712 10709 ] final  138.90 input   66.30 | X-H torsion
[ 10763 10752 10751 10750 ] final -131.47 input  -60.55 | X-H torsion
[ 11005 11000 10999 10996 ] final  -94.74 input  -57.11 | X-H torsion

> <Gold.Protein.ActiveResidues>
 VAL166  LYS551  ARG553  GLY616  TRP617  ASP618  TYR619  PRO620  LYS621  CYS622 
 ASP623  PHE694  ASN695  SER759  ASP760  ASP761  ALA762  ILE779  LEU786  VAL792 
 PHE793  MET794  SER795  GLU796  ALA797  LYS798  CYS799  TRP800  GLU811  SER814 

> <Gold.Protein.RotatedAtoms>
  152.2036  134.8565  160.0504 H   0  0  0  0  0  0  0  0  0  0  0  0  # atno 6907 bound_to 6896
  151.9409  133.3633  159.3973 H   0  0  0  0  0  0  0  0  0  0  0  0  # atno 6908 bound_to 6896
  150.6960  134.4364  159.5316 H   0  0  0  0  0  0  0  0  0  0  0  0  # atno 6909 bound_to 6896
  145.2906  140.9351  143.2880 H   0  0  0  0  0  0  0  0  0  0  0  0  # atno 7974 bound_to 7965
  155.2203  140.3330  155.4316 H   0  0  0  0  0  0  0  0  0  0  0  0  # atno 8008 bound_to 7997
  156.2336  140.1862  156.7226 H   0  0  0  0  0  0  0  0  0  0  0  0  # atno 8009 bound_to 7997
  154.6020  140.0622  156.9366 H   0  0  0  0  0  0  0  0  0  0  0  0  # atno 8010 bound_to 7997
  140.4506  143.2484  151.8494 H   0  0  0  0  0  0  0  0  0  0  0  0  # atno 10167 bound_to 10162
  157.4202  131.1038  151.0361 H   0  0  0  0  0  0  0  0  0  0  0  0  # atno 10718 bound_to 10713
  154.8750  135.3829  154.4251 H   0  0  0  0  0  0  0  0  0  0  0  0  # atno 10763 bound_to 10752
  153.4951  135.7030  153.5868 H   0  0  0  0  0  0  0  0  0  0  0  0  # atno 10764 bound_to 10752
  153.4224  135.3898  155.2086 H   0  0  0  0  0  0  0  0  0  0  0  0  # atno 10765 bound_to 10752
  141.1462  133.7977  157.0340 H   0  0  0  0  0  0  0  0  0  0  0  0  # atno 11005 bound_to 11000
  144.9176  139.4451  143.6557 LP  0  0  0  0  0  0  0  0  0  0  0  0  # atno 17320 bound_to 7965
  146.3186  139.8018  142.8964 LP  0  0  0  0  0  0  0  0  0  0  0  0  # atno 17321 bound_to 7965
  139.4796  144.5124  151.8914 LP  0  0  0  0  0  0  0  0  0  0  0  0  # atno 17342 bound_to 10162
  140.4212  144.2241  150.5887 LP  0  0  0  0  0  0  0  0  0  0  0  0  # atno 17343 bound_to 10162
  157.1294  130.6096  149.5525 LP  0  0  0  0  0  0  0  0  0  0  0  0  # atno 17370 bound_to 10713
  155.9878  130.4919  150.7142 LP  0  0  0  0  0  0  0  0  0  0  0  0  # atno 17371 bound_to 10713
  140.0736  134.9688  157.1508 LP  0  0  0  0  0  0  0  0  0  0  0  0  # atno 17394 bound_to 11000
  140.3676  134.2425  155.7181 LP  0  0  0  0  0  0  0  0  0  0  0  0  # atno 17395 bound_to 11000

$$$$
