AV-unprocessed.smi:1099|AV-procd|sdf|4755|dock10
  -GOLD-   22720 3293D 1   1.00000     0.00000
 Structure written by MMmdl.
 41 43  0  0  0  0  0  0  0  0  1 V2000
  153.6361  142.2892  161.8371 C   0  0  0  0  0  0  0  0  0  0  0  0
  152.7475  143.5360  161.7759 C   0  0  0  0  0  0  0  0  0  0  0  0
  152.0561  143.6823  160.4617 C   0  0  0  0  0  0  0  0  0  0  0  0
  151.4662  142.6690  159.8217 N   0  0  0  0  0  0  0  0  0  0  0  0
  150.8569  143.0679  158.6276 C   0  0  0  0  0  0  0  0  0  0  0  0
  150.1566  142.0591  157.7689 C   0  0  0  0  0  0  0  0  0  0  0  0
  150.9189  141.7770  156.4635 C   0  0  0  0  0  0  0  0  0  0  0  0
  151.2950  140.3721  156.3545 N   0  0  0  0  0  0  0  0  0  0  0  0
  151.0680  139.5950  155.2841 C   0  0  0  0  0  0  0  0  0  0  0  0
  150.5165  140.0079  154.2635 O   0  0  0  0  0  0  0  0  0  0  0  0
  151.5350  138.1324  155.3941 C   0  0  2  0  0  0  0  0  0  0  0  0
  151.1680  137.2735  154.1584 C   0  0  0  0  0  0  0  0  0  0  0  0
  150.3835  136.0948  154.7677 C   0  0  1  0  0  0  0  0  0  0  0  0
  151.3430  135.2063  155.5825 C   0  0  0  0  0  0  0  0  0  0  0  0
  151.6329  136.0703  156.8253 C   0  0  0  0  0  0  0  0  0  0  0  0
  150.8322  137.3546  156.5358 C   0  0  2  0  0  0  0  0  0  0  0  0
  149.5839  136.7798  155.8672 C   0  0  0  0  0  0  0  0  0  0  0  0
  150.9873  144.4109  158.3760 C   0  0  0  0  0  0  0  0  0  0  0  0
  151.8768  145.2248  159.6331 S   0  0  0  0  0  0  0  0  0  0  0  0
  154.1251  142.2081  162.8082 H   0  0  0  0  0  0  0  0  0  0  0  0
  154.4141  142.3223  161.0736 H   0  0  0  0  0  0  0  0  0  0  0  0
  153.0516  141.3820  161.6814 H   0  0  0  0  0  0  0  0  0  0  0  0
  151.9945  143.4943  162.5633 H   0  0  0  0  0  0  0  0  0  0  0  0
  153.3450  144.4292  161.9623 H   0  0  0  0  0  0  0  0  0  0  0  0
  150.0265  141.1280  158.3219 H   0  0  0  0  0  0  0  0  0  0  0  0
  149.1503  142.4108  157.5380 H   0  0  0  0  0  0  0  0  0  0  0  0
  150.3196  142.0714  155.6001 H   0  0  0  0  0  0  0  0  0  0  0  0
  151.8300  142.3751  156.4268 H   0  0  0  0  0  0  0  0  0  0  0  0
  151.7566  139.9593  157.1523 H   0  0  0  0  0  0  0  0  0  0  0  0
  152.6156  138.1233  155.5478 H   0  0  0  0  0  0  0  0  0  0  0  0
  150.5427  137.8161  153.4475 H   0  0  0  0  0  0  0  0  0  0  0  0
  152.0532  136.9364  153.6179 H   0  0  0  0  0  0  0  0  0  0  0  0
  149.7882  135.5429  154.0397 H   0  0  0  0  0  0  0  0  0  0  0  0
  150.8601  134.2718  155.8705 H   0  0  0  0  0  0  0  0  0  0  0  0
  152.2482  134.9584  155.0268 H   0  0  0  0  0  0  0  0  0  0  0  0
  151.2635  135.5795  157.7266 H   0  0  0  0  0  0  0  0  0  0  0  0
  152.6977  136.2611  156.9634 H   0  0  0  0  0  0  0  0  0  0  0  0
  150.6351  137.9517  157.4274 H   0  0  0  0  0  0  0  0  0  0  0  0
  148.8877  137.5303  155.4923 H   0  0  0  0  0  0  0  0  0  0  0  0
  149.0366  136.0808  156.5022 H   0  0  0  0  0  0  0  0  0  0  0  0
  150.6129  144.9692  157.5306 H   0  0  0  0  0  0  0  0  0  0  0  0
  1  2  1  0  0  0  0
  1 20  1  0  0  0  0
  1 21  1  0  0  0  0
  1 22  1  0  0  0  0
  2  3  1  0  0  0  0
  2 23  1  0  0  0  0
  2 24  1  0  0  0  0
  3 19  1  0  0  0  0
  3  4  2  0  0  0  0
  4  5  1  0  0  0  0
  5  6  1  0  0  0  0
  5 18  2  0  0  0  0
  6  7  1  0  0  0  0
  6 25  1  0  0  0  0
  6 26  1  0  0  0  0
  7  8  1  0  0  0  0
  7 27  1  0  0  0  0
  7 28  1  0  0  0  0
  8  9  1  0  0  0  0
  8 29  1  0  0  0  0
  9 10  2  0  0  0  0
  9 11  1  0  0  0  0
 11 16  1  0  0  0  0
 11 12  1  0  0  0  0
 11 30  1  0  0  0  0
 12 13  1  0  0  0  0
 12 31  1  0  0  0  0
 12 32  1  0  0  0  0
 13 17  1  0  0  0  0
 13 14  1  0  0  0  0
 13 33  1  0  0  0  0
 14 15  1  0  0  0  0
 14 34  1  0  0  0  0
 14 35  1  0  0  0  0
 15 16  1  0  0  0  0
 15 36  1  0  0  0  0
 15 37  1  0  0  0  0
 16 17  1  0  0  0  0
 16 38  1  0  0  0  0
 17 39  1  0  0  0  0
 17 40  1  0  0  0  0
 18 19  1  0  0  0  0
 18 41  1  0  0  0  0
M  END
> <s_m_source_file>
AV-unprocessed.smi

> <i_m_source_file_index>
1099

> <i_lp_mmshare_version>
43012

> <i_f3d_flags>
0

> <s_epik_input>
W0NIM11bQ0gyXWMxbmMoW2NIXXMxKVtDSDJdW0NIMl1bTkhdQyg9TylbQ0BIXShbQ0gyXVtDQEBIXTIzKVtDQEBIXShbQ0gyXTMpW0NIMl1bQ0gyXTI=

> <s_epik_cmdline>
J2VwaWtfcHl0aG9uJywgJy1waCcsICc3LjAnLCAnLXRuJywgJzgnLCAnLW1hJywgJzIwMCcsICctbWV0YWxfYmluZGluZycsICctaW1hZScsICc8aW5maWxlLm1hZT4nLCAnLW9tYWUnLCAnPG91dGZpbGUubWFlPic=

> <r_epik_Ionization_Penalty>
0.00110131

> <r_epik_Ionization_Penalty_Charging>
0

> <r_epik_Ionization_Penalty_Neutral>
0.00110131

> <r_epik_State_Penalty>
0.00072257

> <r_epik_Charging_Adjusted_Penalty>
0.00072257

> <i_epik_Tot_Q>
0

> <i_epik_Tot_abs_Q>
0

> <r_epik_Metal_State_Penalty>
-0

> <b_epik_Metal_Only>
0

> <s_lp_Force_Field>
OPLS_2005

> <r_lp_Energy>
37.6271

> <b_lp_Chiralities_Consistent>
1

> <s_lp_Variant>
AV-unprocessed.smi:1099-1

> <Gold.Version>
5.8.1

> <Gold.Id.Protein>
6NUR|6NUR_protein|mol2

> <Gold.PLP.Fitness>
44.1824

> <Gold.PLP.PLP>
-39.6797

> <Gold.PLP.part.hbond>
-1.6516

> <Gold.PLP.part.metal>
0.0000

> <Gold.PLP.part.buried>
-5.7071

> <Gold.PLP.part.nonpolar>
-33.2050

> <Gold.PLP.part.repulsive>
0.2372

> <Gold.PLP.ligand.clash>
0.0000

> <Gold.PLP.ligand.torsion>
0.7692

> <Gold.PLP.Chemscore.Hbond>
1.0000

> <Gold.PLP.Chemscore.CHOScore>
0.9980

> <Gold.PLP.Chemscore.Metal>
0.0000

> <Gold.Chemscore.Hbonds>
donor molecule, donor type, donor heavy atom, donor atom, acceptor molecule, acceptor atom, score
      P1  H  7989  7998       L1    10  1.00
      L1  C    18    41       P1  8028  0.96
      L1  C    18    41       P1  8029  0.02

> <Gold.PLP.Chemscore.Internal.Correction>
0.0471

> <Gold.Rescore>
     Score         DG    S(hbond)    S(metal)    S(lipo)     H(rot)  DE(clash)    DE(int)     intcor
     17.95     -18.60       0.97        0.00     115.46       1.42       0.07       0.59       ----

> <Gold.Chemscore.Fitness>
17.9462

> <Gold.Chemscore.DG>
-18.6002

> <Gold.Chemscore.ZeroCoef>
-5.4800

> <Gold.Chemscore.Hbond>
0.9693

> <Gold.Chemscore.Metal>
0.0000

> <Gold.Chemscore.Lipo>
115.4604

> <Gold.Chemscore.Internal_Hbond>
0.0000

> <Gold.Chemscore.DEClash>
0.0677

> <Gold.Chemscore.DEInternal>
0.5864

> <Gold.Chemscore.Rot>
1.4165

> <Gold.Chemscore.Internal.Correction>
   9.000000E+99

> <Gold.Chemscore.Hbonds>
donor molecule, donor type, donor heavy atom, donor atom, acceptor molecule, acceptor atom, score
      P1  H  7989  7998       L1    10  0.54

> <Gold.Chemscore.Hbond.Weighted>
-3.2376

> <Gold.Chemscore.Metal.Weighted>
-0.0000

> <Gold.Chemscore.Lipo.Weighted>
-13.5089

> <Gold.Chemscore.Internal_Hbond.Weighted>
0.0000

> <Gold.Chemscore.DEClash.Weighted>
0.0677

> <Gold.Chemscore.DEInternal.Weighted>
0.5864

> <Gold.Chemscore.Rot.Weighted>
3.6262

> <Gold.Chemscore.Internal.Correction.Weighted>
   9.000000E+99

> <Gold.Protein.RotatedTorsions>
[ 6907 6896 6895 6894 ] final  160.86 input  -60.11 | X-H torsion
[ 7974 7965 7964 7962 ] final  103.38 input  175.53 | X-H torsion
[ 8008 7997 7996 7995 ] final -149.43 input   59.86 | X-H torsion
[ 10167 10162 10161 10158 ] final  173.30 input  -65.29 | X-H torsion
[ 10718 10713 10712 10709 ] final  175.91 input   66.30 | X-H torsion
[ 10763 10752 10751 10750 ] final   90.90 input  -60.55 | X-H torsion
[ 11005 11000 10999 10996 ] final  -99.96 input  -57.11 | X-H torsion

> <Gold.Protein.ActiveResidues>
 VAL166  LYS551  ARG553  GLY616  TRP617  ASP618  TYR619  PRO620  LYS621  CYS622 
 ASP623  PHE694  ASN695  SER759  ASP760  ASP761  ALA762  ILE779  LEU786  VAL792 
 PHE793  MET794  SER795  GLU796  ALA797  LYS798  CYS799  TRP800  GLU811  SER814 

> <Gold.Protein.RotatedAtoms>
  151.9643  133.3705  159.4046 H   0  0  0  0  0  0  0  0  0  0  0  0  # atno 6907 bound_to 6896
  150.6959  134.4207  159.5213 H   0  0  0  0  0  0  0  0  0  0  0  0  # atno 6908 bound_to 6896
  152.1901  134.8679  160.0569 H   0  0  0  0  0  0  0  0  0  0  0  0  # atno 6909 bound_to 6896
  145.3467  139.2449  143.3580 H   0  0  0  0  0  0  0  0  0  0  0  0  # atno 7974 bound_to 7965
  155.6076  140.0668  157.2715 H   0  0  0  0  0  0  0  0  0  0  0  0  # atno 8008 bound_to 7997
  154.4262  140.1807  156.1286 H   0  0  0  0  0  0  0  0  0  0  0  0  # atno 8009 bound_to 7997
  156.0110  140.3326  155.6944 H   0  0  0  0  0  0  0  0  0  0  0  0  # atno 8010 bound_to 7997
  139.5104  144.3277  152.0142 H   0  0  0  0  0  0  0  0  0  0  0  0  # atno 10167 bound_to 10162
  156.9279  130.9961  151.2992 H   0  0  0  0  0  0  0  0  0  0  0  0  # atno 10718 bound_to 10713
  153.2025  135.4417  155.0284 H   0  0  0  0  0  0  0  0  0  0  0  0  # atno 10763 bound_to 10752
  154.8155  135.3313  154.7190 H   0  0  0  0  0  0  0  0  0  0  0  0  # atno 10764 bound_to 10752
  153.7634  135.6990  153.4976 H   0  0  0  0  0  0  0  0  0  0  0  0  # atno 10765 bound_to 10752
  141.1289  133.8362  157.1041 H   0  0  0  0  0  0  0  0  0  0  0  0  # atno 11005 bound_to 11000
  146.2985  140.4075  142.8713 LP  0  0  0  0  0  0  0  0  0  0  0  0  # atno 17320 bound_to 7965
  144.8749  140.7323  143.6023 LP  0  0  0  0  0  0  0  0  0  0  0  0  # atno 17321 bound_to 7965
  140.2717  144.3957  150.6149 LP  0  0  0  0  0  0  0  0  0  0  0  0  # atno 17342 bound_to 10162
  140.6083  143.2168  151.6936 LP  0  0  0  0  0  0  0  0  0  0  0  0  # atno 17343 bound_to 10162
  157.5866  130.8414  149.8598 LP  0  0  0  0  0  0  0  0  0  0  0  0  # atno 17370 bound_to 10713
  156.0461  130.3727  150.1315 LP  0  0  0  0  0  0  0  0  0  0  0  0  # atno 17371 bound_to 10713
  140.0315  134.9898  157.0790 LP  0  0  0  0  0  0  0  0  0  0  0  0  # atno 17394 bound_to 11000
  140.4277  134.1813  155.7167 LP  0  0  0  0  0  0  0  0  0  0  0  0  # atno 17395 bound_to 11000

$$$$
