AV-unprocessed.smi:1131|AV-procd|sdf|4851|dock7
  -GOLD-   22720 3423D 1   1.00000     0.00000
 Structure written by MMmdl.
 33 34  0  0  0  0  0  0  0  0  1 V2000
  149.7659  140.8155  157.9027 O   0  0  0  0  0  0  0  0  0  0  0  0
  149.4920  141.7156  157.1075 C   0  0  0  0  0  0  0  0  0  0  0  0
  149.3259  141.4263  155.6084 C   0  0  0  0  0  0  0  0  0  0  0  0
  150.0936  140.2589  155.1503 N   0  0  0  0  0  0  0  0  0  0  0  0
  151.4117  140.0887  155.5492 C   0  0  0  0  0  0  0  0  0  0  0  0
  152.1789  139.0421  155.1622 C   0  0  0  0  0  0  0  0  0  0  0  0
  151.6356  138.0146  154.2804 C   0  0  0  0  0  0  0  0  0  0  0  0
  152.2491  137.0285  153.8783 O   0  0  0  0  0  0  0  0  0  0  0  0
  150.3080  138.2232  153.8977 N   0  0  0  0  0  0  0  0  0  0  0  0
  149.5128  139.3009  154.2907 C   0  0  0  0  0  0  0  0  0  0  0  0
  148.3530  139.3921  153.8901 O   0  0  0  0  0  0  0  0  0  0  0  0
  149.3044  142.9892  157.4809 N   0  0  0  0  0  0  0  0  0  0  0  0
  149.4090  143.4733  158.8508 C   0  0  0  0  0  0  0  0  0  0  0  0
  150.8425  143.9336  159.1626 C   0  0  1  0  0  0  0  0  0  0  0  0
  151.8333  142.8002  159.3280 C   0  0  0  0  0  0  0  0  0  0  0  0
  153.1646  143.5248  159.1581 C   0  0  0  0  0  0  0  0  0  0  0  0
  152.9143  144.5784  158.2327 O   0  0  0  0  0  0  0  0  0  0  0  0
  151.5109  144.7510  158.0548 C   0  0  0  0  0  0  0  0  0  0  0  0
  149.8900  137.5393  153.2840 H   0  0  0  0  0  0  0  0  0  0  0  0
  148.2640  141.2793  155.4061 H   0  0  0  0  0  0  0  0  0  0  0  0
  149.6070  142.3117  155.0345 H   0  0  0  0  0  0  0  0  0  0  0  0
  151.8568  140.8275  156.2004 H   0  0  0  0  0  0  0  0  0  0  0  0
  153.1999  138.9651  155.5067 H   0  0  0  0  0  0  0  0  0  0  0  0
  149.0798  143.6683  156.7681 H   0  0  0  0  0  0  0  0  0  0  0  0
  148.7167  144.3039  158.9977 H   0  0  0  0  0  0  0  0  0  0  0  0
  149.1057  142.6794  159.5354 H   0  0  0  0  0  0  0  0  0  0  0  0
  150.8413  144.5242  160.0806 H   0  0  0  0  0  0  0  0  0  0  0  0
  151.7471  142.2907  160.2881 H   0  0  0  0  0  0  0  0  0  0  0  0
  151.7058  142.0613  158.5353 H   0  0  0  0  0  0  0  0  0  0  0  0
  153.4809  143.9635  160.1053 H   0  0  0  0  0  0  0  0  0  0  0  0
  153.9589  142.8648  158.8082 H   0  0  0  0  0  0  0  0  0  0  0  0
  151.2410  144.3644  157.0713 H   0  0  0  0  0  0  0  0  0  0  0  0
  151.2340  145.8048  158.0899 H   0  0  0  0  0  0  0  0  0  0  0  0
  1  2  2  0  0  0  0
  2  3  1  0  0  0  0
  2 12  1  0  0  0  0
  3  4  1  0  0  0  0
  3 20  1  0  0  0  0
  3 21  1  0  0  0  0
  4 10  1  0  0  0  0
  4  5  1  0  0  0  0
  5  6  2  0  0  0  0
  5 22  1  0  0  0  0
  6  7  1  0  0  0  0
  6 23  1  0  0  0  0
  7  8  2  0  0  0  0
  7  9  1  0  0  0  0
  9 19  1  0  0  0  0
  9 10  1  0  0  0  0
 10 11  2  0  0  0  0
 12 13  1  0  0  0  0
 12 24  1  0  0  0  0
 13 14  1  0  0  0  0
 13 25  1  0  0  0  0
 13 26  1  0  0  0  0
 14 18  1  0  0  0  0
 14 15  1  0  0  0  0
 14 27  1  0  0  0  0
 15 16  1  0  0  0  0
 15 28  1  0  0  0  0
 15 29  1  0  0  0  0
 16 17  1  0  0  0  0
 16 30  1  0  0  0  0
 16 31  1  0  0  0  0
 17 18  1  0  0  0  0
 18 32  1  0  0  0  0
 18 33  1  0  0  0  0
M  END
> <s_m_source_file>
AV-unprocessed.smi

> <i_m_source_file_index>
1131

> <i_lp_mmshare_version>
43012

> <i_f3d_flags>
0

> <s_epik_input>
W0NIMl0xT1tDSDJdW0NIMl1bQ0BIXTFbQ0gyXVtOSF1DKD1PKVtDSDJdbjJbY0hdW2NIXWMoPU8pW25IXWMyPU8=

> <s_epik_cmdline>
J2VwaWtfcHl0aG9uJywgJy1waCcsICc3LjAnLCAnLXRuJywgJzgnLCAnLW1hJywgJzIwMCcsICctbWV0YWxfYmluZGluZycsICctaW1hZScsICc8aW5maWxlLm1hZT4nLCAnLW9tYWUnLCAnPG91dGZpbGUubWFlPic=

> <r_lp_tautomer_probability>
0.999537

> <r_epik_Ionization_Penalty>
0.00329016

> <r_epik_Ionization_Penalty_Charging>
0.00329014

> <r_epik_Ionization_Penalty_Neutral>
1.87063e-08

> <r_epik_State_Penalty>
0.00232461

> <r_epik_Charging_Adjusted_Penalty>
0.00561475

> <i_epik_Tot_Q>
0

> <i_epik_Tot_abs_Q>
0

> <r_epik_Metal_State_Penalty>
0.365289

> <b_epik_Metal_Only>
0

> <s_lp_Force_Field>
OPLS_2005

> <r_lp_Energy>
18.0195

> <b_lp_Chiralities_Consistent>
1

> <s_lp_Variant>
AV-unprocessed.smi:1131-2

> <Gold.Version>
5.8.1

> <Gold.Id.Protein>
6NUR|6NUR_protein|mol2

> <Gold.PLP.Fitness>
40.6888

> <Gold.PLP.PLP>
-33.8072

> <Gold.PLP.part.hbond>
-2.7434

> <Gold.PLP.part.metal>
0.0000

> <Gold.PLP.part.buried>
-5.7127

> <Gold.PLP.part.nonpolar>
-29.3591

> <Gold.PLP.part.repulsive>
2.4308

> <Gold.PLP.ligand.clash>
0.0000

> <Gold.PLP.ligand.torsion>
0.8577

> <Gold.PLP.Chemscore.Hbond>
2.8613

> <Gold.PLP.Chemscore.CHOScore>
0.0000

> <Gold.PLP.Chemscore.Metal>
0.0000

> <Gold.Chemscore.Hbonds>
donor molecule, donor type, donor heavy atom, donor atom, acceptor molecule, acceptor atom, score
      L1  H     9    19       P1  7948  0.81
      L1  H    12    24       P1  8028  0.99
      P1  H 10752 10765       L1     8  0.99

> <Gold.PLP.Chemscore.Internal.Correction>
0.0134

> <Gold.Rescore>
     Score         DG    S(hbond)    S(metal)    S(lipo)     H(rot)  DE(clash)    DE(int)     intcor
     14.50     -17.47       2.64        0.00      72.97       2.09       0.88       2.08       ----

> <Gold.Chemscore.Fitness>
14.5019

> <Gold.Chemscore.DG>
-17.4660

> <Gold.Chemscore.ZeroCoef>
-5.4800

> <Gold.Chemscore.Hbond>
2.6358

> <Gold.Chemscore.Metal>
0.0000

> <Gold.Chemscore.Lipo>
72.9729

> <Gold.Chemscore.Internal_Hbond>
0.0000

> <Gold.Chemscore.DEClash>
0.8794

> <Gold.Chemscore.DEInternal>
2.0847

> <Gold.Chemscore.Rot>
2.0919

> <Gold.Chemscore.Internal.Correction>
   9.000000E+99

> <Gold.Chemscore.Hbonds>
donor molecule, donor type, donor heavy atom, donor atom, acceptor molecule, acceptor atom, score
      L1  H     9    19       P1  7948  0.40
      L1  H    12    24       P1  8028  0.73
      P1  H 10752 10765       L1     8  0.87

> <Gold.Chemscore.Hbond.Weighted>
-8.8034

> <Gold.Chemscore.Metal.Weighted>
-0.0000

> <Gold.Chemscore.Lipo.Weighted>
-8.5378

> <Gold.Chemscore.Internal_Hbond.Weighted>
0.0000

> <Gold.Chemscore.DEClash.Weighted>
0.8794

> <Gold.Chemscore.DEInternal.Weighted>
2.0847

> <Gold.Chemscore.Rot.Weighted>
5.3552

> <Gold.Chemscore.Internal.Correction.Weighted>
   9.000000E+99

> <Gold.Protein.RotatedTorsions>
[ 6907 6896 6895 6894 ] final   87.47 input  -60.11 | X-H torsion
[ 7974 7965 7964 7962 ] final  -22.01 input  175.53 | X-H torsion
[ 8008 7997 7996 7995 ] final   98.31 input   59.86 | X-H torsion
[ 10167 10162 10161 10158 ] final   22.11 input  -65.29 | X-H torsion
[ 10718 10713 10712 10709 ] final   26.93 input   66.30 | X-H torsion
[ 10763 10752 10751 10750 ] final  140.02 input  -60.55 | X-H torsion
[ 11005 11000 10999 10996 ] final   67.55 input  -57.11 | X-H torsion

> <Gold.Protein.ActiveResidues>
 VAL166  LYS551  ARG553  GLY616  TRP617  ASP618  TYR619  PRO620  LYS621  CYS622 
 ASP623  PHE694  ASN695  SER759  ASP760  ASP761  ALA762  ILE779  LEU786  VAL792 
 PHE793  MET794  SER795  GLU796  ALA797  LYS798  CYS799  TRP800  GLU811  SER814 

> <Gold.Protein.RotatedAtoms>
  152.5411  134.2271  159.8810 H   0  0  0  0  0  0  0  0  0  0  0  0  # atno 6907 bound_to 6896
  151.2245  133.4477  159.2609 H   0  0  0  0  0  0  0  0  0  0  0  0  # atno 6908 bound_to 6896
  151.0773  134.9850  159.8395 H   0  0  0  0  0  0  0  0  0  0  0  0  # atno 6909 bound_to 6896
  146.1700  140.4421  142.8536 H   0  0  0  0  0  0  0  0  0  0  0  0  # atno 7974 bound_to 7965
  156.0991  140.3245  155.7918 H   0  0  0  0  0  0  0  0  0  0  0  0  # atno 8008 bound_to 7997
  155.4867  140.0558  157.2977 H   0  0  0  0  0  0  0  0  0  0  0  0  # atno 8009 bound_to 7997
  154.4685  140.2000  156.0070 H   0  0  0  0  0  0  0  0  0  0  0  0  # atno 8010 bound_to 7997
  140.5374  143.9737  150.6499 H   0  0  0  0  0  0  0  0  0  0  0  0  # atno 10167 bound_to 10162
  157.2134  130.6945  149.6238 H   0  0  0  0  0  0  0  0  0  0  0  0  # atno 10718 bound_to 10713
  153.9157  135.3006  155.3448 H   0  0  0  0  0  0  0  0  0  0  0  0  # atno 10763 bound_to 10752
  154.7601  135.4938  153.9450 H   0  0  0  0  0  0  0  0  0  0  0  0  # atno 10764 bound_to 10752
  153.1168  135.6773  153.9506 H   0  0  0  0  0  0  0  0  0  0  0  0  # atno 10765 bound_to 10752
  139.9764  134.6815  156.0346 H   0  0  0  0  0  0  0  0  0  0  0  0  # atno 11005 bound_to 11000
  144.8149  140.6450  143.6391 LP  0  0  0  0  0  0  0  0  0  0  0  0  # atno 17320 bound_to 7965
  145.4366  139.1541  143.3993 LP  0  0  0  0  0  0  0  0  0  0  0  0  # atno 17321 bound_to 7965
  140.3128  143.3187  152.0862 LP  0  0  0  0  0  0  0  0  0  0  0  0  # atno 17342 bound_to 10162
  139.4976  144.6625  151.6432 LP  0  0  0  0  0  0  0  0  0  0  0  0  # atno 17343 bound_to 10162
  155.9688  130.4543  150.5847 LP  0  0  0  0  0  0  0  0  0  0  0  0  # atno 17370 bound_to 10713
  157.3649  131.0756  151.1606 LP  0  0  0  0  0  0  0  0  0  0  0  0  # atno 17371 bound_to 10713
  141.1440  133.6559  156.3814 LP  0  0  0  0  0  0  0  0  0  0  0  0  # atno 17394 bound_to 11000
  140.5186  134.6326  157.5310 LP  0  0  0  0  0  0  0  0  0  0  0  0  # atno 17395 bound_to 11000

$$$$
