AV-unprocessed.smi:153|AV-procd|sdf|1257|dock4
  -GOLD-   2262018493D 1   1.00000     0.00000
 Structure written by MMmdl.
 60 63  0  0  0  0  0  0  0  0  2 V2000
  152.2272  140.5830  158.6876 C   0  0  0  0  0  0  0  0  0  0  0  0
  151.4001  141.8723  158.8161 C   0  0  1  0  0  0  0  0  0  0  0  0
  152.2249  142.7624  159.5716 O   0  0  0  0  0  0  0  0  0  0  0  0
  152.2904  144.0367  158.9511 C   0  0  0  0  0  0  0  0  0  0  0  0
  152.1044  143.7292  157.4727 C   0  0  0  0  0  0  0  0  0  0  0  0
  151.0647  142.6185  157.4944 C   0  0  2  0  0  0  0  0  0  0  0  0
  149.7968  143.2338  157.6501 O   0  0  0  0  0  0  0  0  0  0  0  0
  151.0405  141.8038  156.1710 C   0  0  0  0  0  0  0  0  0  0  0  0
  150.0218  140.7611  156.0839 N   0  0  0  0  0  0  0  0  0  0  0  0
  149.6127  139.8910  157.0710 C   0  0  0  0  0  0  0  0  0  0  0  0
  148.6566  139.0718  156.7309 N   0  0  0  0  0  0  0  0  0  0  0  0
  148.3604  139.4082  155.4153 C   0  0  0  0  0  0  0  0  0  0  0  0
  147.4199  138.9398  154.4478 C   0  0  0  0  0  0  0  0  0  0  0  0
  146.5329  137.9270  154.6532 N   0  0  0  0  0  0  0  0  0  0  0  0
  146.5617  137.1904  155.9103 C   0  0  0  0  0  0  0  0  0  0  0  0
  145.3684  137.7791  153.7735 C   0  0  0  0  0  0  0  0  0  0  0  0
  145.1326  136.3340  153.2758 C   0  0  1  0  0  0  0  0  0  0  0  0
  144.4944  135.5880  154.2930 O   0  0  0  0  0  0  0  0  0  0  0  0
  144.3397  136.2241  151.9552 C   0  0  0  0  0  0  0  0  0  0  0  0
  144.4053  134.8658  151.3604 N   0  3  0  0  0  0  0  0  0  0  0  0
  145.7549  134.2627  151.4729 C   0  0  0  0  0  0  0  0  0  0  0  0
  145.7866  132.8834  150.7936 C   0  0  0  0  0  0  0  0  0  0  0  0
  144.7958  132.0434  151.3724 O   0  0  0  0  0  0  0  0  0  0  0  0
  143.4854  132.5667  151.1947 C   0  0  0  0  0  0  0  0  0  0  0  0
  143.3770  133.9350  151.8884 C   0  0  0  0  0  0  0  0  0  0  0  0
  147.4045  139.5741  153.2459 N   0  0  0  0  0  0  0  0  0  0  0  0
  148.2463  140.5792  152.9934 C   0  0  0  0  0  0  0  0  0  0  0  0
  149.1718  141.1096  153.7922 N   0  0  0  0  0  0  0  0  0  0  0  0
  149.1954  140.4877  155.0053 C   0  0  0  0  0  0  0  0  0  0  0  0
  151.6436  139.7675  158.2669 H   0  0  0  0  0  0  0  0  0  0  0  0
  152.5674  140.2474  159.6675 H   0  0  0  0  0  0  0  0  0  0  0  0
  153.1106  140.7322  158.0665 H   0  0  0  0  0  0  0  0  0  0  0  0
  150.4942  141.6538  159.3840 H   0  0  0  0  0  0  0  0  0  0  0  0
  151.4792  144.6630  159.3247 H   0  0  0  0  0  0  0  0  0  0  0  0
  153.2353  144.5371  159.1629 H   0  0  0  0  0  0  0  0  0  0  0  0
  151.8059  144.6008  156.8886 H   0  0  0  0  0  0  0  0  0  0  0  0
  153.0452  143.3590  157.0624 H   0  0  0  0  0  0  0  0  0  0  0  0
  149.6370  143.7854  156.8997 H   0  0  0  0  0  0  0  0  0  0  0  0
  150.8989  142.4759  155.3239 H   0  0  0  0  0  0  0  0  0  0  0  0
  152.0153  141.3407  156.0160 H   0  0  0  0  0  0  0  0  0  0  0  0
  150.0361  139.8756  158.0637 H   0  0  0  0  0  0  0  0  0  0  0  0
  147.5865  136.9658  156.2086 H   0  0  0  0  0  0  0  0  0  0  0  0
  146.0325  136.2425  155.8105 H   0  0  0  0  0  0  0  0  0  0  0  0
  146.0809  137.7620  156.7045 H   0  0  0  0  0  0  0  0  0  0  0  0
  144.4654  138.1296  154.2725 H   0  0  0  0  0  0  0  0  0  0  0  0
  145.4876  138.4464  152.9190 H   0  0  0  0  0  0  0  0  0  0  0  0
  146.1171  135.8860  153.1465 H   0  0  0  0  0  0  0  0  0  0  0  0
  143.5603  135.6244  154.1516 H   0  0  0  0  0  0  0  0  0  0  0  0
  143.2970  136.4776  152.1525 H   0  0  0  0  0  0  0  0  0  0  0  0
  144.7003  136.9532  151.2279 H   0  0  0  0  0  0  0  0  0  0  0  0
  146.4936  134.9153  151.0058 H   0  0  0  0  0  0  0  0  0  0  0  0
  146.0283  134.1697  152.5251 H   0  0  0  0  0  0  0  0  0  0  0  0
  145.6218  132.9739  149.7187 H   0  0  0  0  0  0  0  0  0  0  0  0
  146.7647  132.4211  150.9278 H   0  0  0  0  0  0  0  0  0  0  0  0
  143.2534  132.6488  150.1316 H   0  0  0  0  0  0  0  0  0  0  0  0
  142.7659  131.8695  151.6245 H   0  0  0  0  0  0  0  0  0  0  0  0
  143.5082  133.8153  152.9651 H   0  0  0  0  0  0  0  0  0  0  0  0
  142.3775  134.3394  151.7325 H   0  0  0  0  0  0  0  0  0  0  0  0
  148.1683  141.0203  152.0106 H   0  0  0  0  0  0  0  0  0  0  0  0
  144.2270  134.9787  150.3722 H   0  0  0  0  0  0  0  0  0  0  0  0
  1  2  1  0  0  0  0
  1 30  1  0  0  0  0
  1 31  1  0  0  0  0
  1 32  1  0  0  0  0
  2  6  1  0  0  0  0
  2  3  1  0  0  0  0
  2 33  1  0  0  0  0
  3  4  1  0  0  0  0
  4  5  1  0  0  0  0
  4 34  1  0  0  0  0
  4 35  1  0  0  0  0
  5  6  1  0  0  0  0
  5 36  1  0  0  0  0
  5 37  1  0  0  0  0
  6  7  1  0  0  0  0
  6  8  1  0  0  0  0
  7 38  1  0  0  0  0
  8  9  1  0  0  0  0
  8 39  1  0  0  0  0
  8 40  1  0  0  0  0
  9 29  1  0  0  0  0
  9 10  1  0  0  0  0
 10 11  2  0  0  0  0
 10 41  1  0  0  0  0
 11 12  1  0  0  0  0
 12 29  2  0  0  0  0
 12 13  1  0  0  0  0
 13 14  1  0  0  0  0
 13 26  2  0  0  0  0
 14 15  1  0  0  0  0
 14 16  1  0  0  0  0
 15 42  1  0  0  0  0
 15 43  1  0  0  0  0
 15 44  1  0  0  0  0
 16 17  1  0  0  0  0
 16 45  1  0  0  0  0
 16 46  1  0  0  0  0
 17 18  1  0  0  0  0
 17 19  1  0  0  0  0
 17 47  1  0  0  0  0
 18 48  1  0  0  0  0
 19 20  1  0  0  0  0
 19 49  1  0  0  0  0
 19 50  1  0  0  0  0
 20 25  1  0  0  0  0
 20 21  1  0  0  0  0
 20 60  1  0  0  0  0
 21 22  1  0  0  0  0
 21 51  1  0  0  0  0
 21 52  1  0  0  0  0
 22 23  1  0  0  0  0
 22 53  1  0  0  0  0
 22 54  1  0  0  0  0
 23 24  1  0  0  0  0
 24 25  1  0  0  0  0
 24 55  1  0  0  0  0
 24 56  1  0  0  0  0
 25 57  1  0  0  0  0
 25 58  1  0  0  0  0
 26 27  1  0  0  0  0
 27 28  2  0  0  0  0
 27 59  1  0  0  0  0
 28 29  1  0  0  0  0
M  CHG  1  20   1
M  END
> <s_m_source_file>
AV-unprocessed.smi

> <i_m_source_file_index>
153

> <i_lp_mmshare_version>
43012

> <i_f3d_flags>
0

> <s_epik_input>
W0NIMl0xW0NIMl1PW0NAQEhdKFtDSDNdKVtDQEBdMShbT0hdKVtDSDJdbihbY0hdbjIpYyhjMjMpbltjSF1uYzNOKFtDSDNdKVtDSDJdW0NASF0oW09IXSlbQ0gyXU40W0NIMl1bQ0gyXU9bQ0gyXVtDSDJdNA==

> <s_epik_cmdline>
J2VwaWtfcHl0aG9uJywgJy1waCcsICc3LjAnLCAnLXRuJywgJzgnLCAnLW1hJywgJzIwMCcsICctbWV0YWxfYmluZGluZycsICctaW1hZScsICc8aW5maWxlLm1hZT4nLCAnLW9tYWUnLCAnPG91dGZpbGUubWFlPic=

> <r_lp_tautomer_probability>
1

> <r_epik_Ionization_Penalty>
0.403509

> <r_epik_Ionization_Penalty_Charging>
0.40072

> <r_epik_Ionization_Penalty_Neutral>
0.00278876

> <r_epik_State_Penalty>
0.400058

> <r_epik_Charging_Adjusted_Penalty>
0.800778

> <i_epik_Tot_Q>
1

> <i_epik_Tot_abs_Q>
1

> <r_epik_Metal_State_Penalty>
0.400321

> <b_epik_Metal_Only>
0

> <s_lp_Force_Field>
OPLS_2005

> <r_lp_Energy>
51.1355

> <b_lp_Chiralities_Consistent>
1

> <s_lp_Variant>
AV-unprocessed.smi:153-8

> <Gold.Version>
5.8.1

> <Gold.Id.Protein>
6NUR|6NUR_protein|mol2

> <Gold.PLP.Fitness>
44.8087

> <Gold.PLP.PLP>
-41.2565

> <Gold.PLP.part.hbond>
-2.8294

> <Gold.PLP.part.metal>
0.0000

> <Gold.PLP.part.buried>
-5.9462

> <Gold.PLP.part.nonpolar>
-33.0418

> <Gold.PLP.part.repulsive>
0.4846

> <Gold.PLP.ligand.clash>
0.0000

> <Gold.PLP.ligand.torsion>
0.9150

> <Gold.PLP.Chemscore.Hbond>
1.3838

> <Gold.PLP.Chemscore.CHOScore>
0.2202

> <Gold.PLP.Chemscore.Metal>
0.0000

> <Gold.Chemscore.Hbonds>
donor molecule, donor type, donor heavy atom, donor atom, acceptor molecule, acceptor atom, score
      L1  H     7    38       P1  8028  1.00
      P1  H  8011  8017       L1    28  0.52
      L1  C    27    59       P1  7957  0.27

> <Gold.PLP.Chemscore.Internal.Correction>
0.5701

> <Gold.Rescore>
     Score         DG    S(hbond)    S(metal)    S(lipo)     H(rot)  DE(clash)    DE(int)     intcor
      6.25     -10.17       0.74        0.00      98.14       3.62       1.66       2.25       ----

> <Gold.Chemscore.Fitness>
6.2535

> <Gold.Chemscore.DG>
-10.1651

> <Gold.Chemscore.ZeroCoef>
-5.4800

> <Gold.Chemscore.Hbond>
0.7381

> <Gold.Chemscore.Metal>
0.0000

> <Gold.Chemscore.Lipo>
98.1401

> <Gold.Chemscore.Internal_Hbond>
0.0000

> <Gold.Chemscore.DEClash>
1.6632

> <Gold.Chemscore.DEInternal>
2.2484

> <Gold.Chemscore.Rot>
3.6182

> <Gold.Chemscore.Internal.Correction>
   9.000000E+99

> <Gold.Chemscore.Hbonds>
donor molecule, donor type, donor heavy atom, donor atom, acceptor molecule, acceptor atom, score
      L1  H     7    38       P1  8028  0.94
      P1  H  8011  8017       L1    28  0.03

> <Gold.Chemscore.Hbond.Weighted>
-2.4651

> <Gold.Chemscore.Metal.Weighted>
-0.0000

> <Gold.Chemscore.Lipo.Weighted>
-11.4824

> <Gold.Chemscore.Internal_Hbond.Weighted>
0.0000

> <Gold.Chemscore.DEClash.Weighted>
1.6632

> <Gold.Chemscore.DEInternal.Weighted>
2.2484

> <Gold.Chemscore.Rot.Weighted>
9.2625

> <Gold.Chemscore.Internal.Correction.Weighted>
   9.000000E+99

> <Gold.Protein.RotatedTorsions>
[ 6907 6896 6895 6894 ] final   -1.73 input  -60.11 | X-H torsion
[ 7974 7965 7964 7962 ] final  103.65 input  175.53 | X-H torsion
[ 8008 7997 7996 7995 ] final   83.72 input   59.86 | X-H torsion
[ 10167 10162 10161 10158 ] final  -29.69 input  -65.29 | X-H torsion
[ 10718 10713 10712 10709 ] final -144.06 input   66.30 | X-H torsion
[ 10763 10752 10751 10750 ] final   -8.72 input  -60.55 | X-H torsion
[ 11005 11000 10999 10996 ] final -114.57 input  -57.11 | X-H torsion

> <Gold.Protein.ActiveResidues>
 VAL166  LYS551  ARG553  GLY616  TRP617  ASP618  TYR619  PRO620  LYS621  CYS622 
 ASP623  PHE694  ASN695  SER759  ASP760  ASP761  ALA762  ILE779  LEU786  VAL792 
 PHE793  MET794  SER795  GLU796  ALA797  LYS798  CYS799  TRP800  GLU811  SER814 

> <Gold.Protein.RotatedAtoms>
  151.5413  135.1068  159.9926 H   0  0  0  0  0  0  0  0  0  0  0  0  # atno 6907 bound_to 6896
  152.4534  133.7670  159.6789 H   0  0  0  0  0  0  0  0  0  0  0  0  # atno 6908 bound_to 6896
  150.8470  133.7780  159.3064 H   0  0  0  0  0  0  0  0  0  0  0  0  # atno 6909 bound_to 6896
  145.3431  139.2457  143.3599 H   0  0  0  0  0  0  0  0  0  0  0  0  # atno 7974 bound_to 7965
  155.9276  140.3417  155.6223 H   0  0  0  0  0  0  0  0  0  0  0  0  # atno 8008 bound_to 7997
  155.7197  140.0782  157.2355 H   0  0  0  0  0  0  0  0  0  0  0  0  # atno 8009 bound_to 7997
  154.4080  140.1608  156.2375 H   0  0  0  0  0  0  0  0  0  0  0  0  # atno 8010 bound_to 7997
  140.7258  143.3908  151.1433 H   0  0  0  0  0  0  0  0  0  0  0  0  # atno 10167 bound_to 10162
  156.3655  130.7761  151.1934 H   0  0  0  0  0  0  0  0  0  0  0  0  # atno 10718 bound_to 10713
  153.4445  135.7014  153.6148 H   0  0  0  0  0  0  0  0  0  0  0  0  # atno 10763 bound_to 10752
  153.4509  135.3758  155.2283 H   0  0  0  0  0  0  0  0  0  0  0  0  # atno 10764 bound_to 10752
  154.8728  135.3996  154.3848 H   0  0  0  0  0  0  0  0  0  0  0  0  # atno 10765 bound_to 10752
  141.0543  133.9637  157.2781 H   0  0  0  0  0  0  0  0  0  0  0  0  # atno 11005 bound_to 11000
  146.2999  140.4032  142.8708 LP  0  0  0  0  0  0  0  0  0  0  0  0  # atno 17320 bound_to 7965
  144.8775  140.7356  143.6008 LP  0  0  0  0  0  0  0  0  0  0  0  0  # atno 17321 bound_to 7965
  139.7513  143.8775  152.3077 LP  0  0  0  0  0  0  0  0  0  0  0  0  # atno 17342 bound_to 10162
  139.8629  144.7108  150.9078 LP  0  0  0  0  0  0  0  0  0  0  0  0  # atno 17343 bound_to 10162
  157.7478  131.0387  150.4517 LP  0  0  0  0  0  0  0  0  0  0  0  0  # atno 17370 bound_to 10713
  156.4735  130.4058  149.6504 LP  0  0  0  0  0  0  0  0  0  0  0  0  # atno 17371 bound_to 10713
  139.9377  135.0195  156.8608 LP  0  0  0  0  0  0  0  0  0  0  0  0  # atno 17394 bound_to 11000
  140.5994  134.0186  155.7531 LP  0  0  0  0  0  0  0  0  0  0  0  0  # atno 17395 bound_to 11000

$$$$
