AV-unprocessed.smi:419|AV-procd|sdf|2531|dock7
  -GOLD-   2262022493D 1   1.00000     0.00000
 Structure written by MMmdl.
 44 46  0  0  0  0  0  0  0  0  1 V2000
  144.7271  142.6014  155.2211 C   0  0  0  0  0  0  0  0  0  0  0  0
  145.1473  141.2676  155.4687 O   0  0  0  0  0  0  0  0  0  0  0  0
  146.4631  140.9445  155.2147 C   0  0  0  0  0  0  0  0  0  0  0  0
  147.4125  141.8400  154.6639 C   0  0  0  0  0  0  0  0  0  0  0  0
  148.7377  141.4217  154.4359 C   0  0  0  0  0  0  0  0  0  0  0  0
  149.1488  140.1112  154.7490 C   0  0  0  0  0  0  0  0  0  0  0  0
  150.4638  139.7874  154.4914 O   0  0  0  0  0  0  0  0  0  0  0  0
  150.9897  138.5990  155.0678 C   0  0  0  0  0  0  0  0  0  0  0  0
  151.7346  138.9572  156.3649 C   0  0  1  0  0  0  0  0  0  0  0  0
  152.8753  139.7096  156.0008 O   0  0  0  0  0  0  0  0  0  0  0  0
  150.8712  139.8339  157.2954 C   0  0  0  0  0  0  0  0  0  0  0  0
  151.6862  140.5617  158.2672 N   0  0  0  0  0  0  0  0  0  0  0  0
  152.5158  140.0190  159.1899 C   0  0  0  0  0  0  0  0  0  0  0  0
  152.7218  138.8168  159.3560 O   0  0  0  0  0  0  0  0  0  0  0  0
  153.0799  141.0290  159.8925 N   0  0  0  0  0  0  0  0  0  0  0  0
  154.0387  140.9092  160.9839 C   0  0  0  0  0  0  0  0  0  0  0  0
  152.6095  142.2519  159.3974 C   0  0  0  0  0  0  0  0  0  0  0  0
  152.8998  143.5736  159.7768 C   0  0  0  0  0  0  0  0  0  0  0  0
  152.2506  144.6079  159.0627 C   0  0  0  0  0  0  0  0  0  0  0  0
  151.3476  144.3081  158.0097 C   0  0  0  0  0  0  0  0  0  0  0  0
  151.0745  142.9679  157.6482 C   0  0  0  0  0  0  0  0  0  0  0  0
  151.7318  141.9594  158.3748 C   0  0  0  0  0  0  0  0  0  0  0  0
  148.1997  139.2163  155.3009 C   0  0  0  0  0  0  0  0  0  0  0  0
  146.8743  139.6341  155.5280 C   0  0  0  0  0  0  0  0  0  0  0  0
  143.6689  142.6964  155.4644 H   0  0  0  0  0  0  0  0  0  0  0  0
  144.8487  142.8694  154.1707 H   0  0  0  0  0  0  0  0  0  0  0  0
  145.2734  143.3127  155.8420 H   0  0  0  0  0  0  0  0  0  0  0  0
  147.1493  142.8548  154.4069 H   0  0  0  0  0  0  0  0  0  0  0  0
  149.4487  142.1171  154.0144 H   0  0  0  0  0  0  0  0  0  0  0  0
  150.2063  137.8628  155.2590 H   0  0  0  0  0  0  0  0  0  0  0  0
  151.6934  138.1608  154.3582 H   0  0  0  0  0  0  0  0  0  0  0  0
  152.0357  138.0424  156.8774 H   0  0  0  0  0  0  0  0  0  0  0  0
  152.7103  140.1212  155.1666 H   0  0  0  0  0  0  0  0  0  0  0  0
  150.2403  140.5162  156.7245 H   0  0  0  0  0  0  0  0  0  0  0  0
  150.1805  139.2033  157.8575 H   0  0  0  0  0  0  0  0  0  0  0  0
  153.7480  141.5493  161.8172 H   0  0  0  0  0  0  0  0  0  0  0  0
  155.0298  141.2138  160.6475 H   0  0  0  0  0  0  0  0  0  0  0  0
  154.1053  139.8868  161.3585 H   0  0  0  0  0  0  0  0  0  0  0  0
  153.5897  143.7934  160.5782 H   0  0  0  0  0  0  0  0  0  0  0  0
  152.4458  145.6382  159.3214 H   0  0  0  0  0  0  0  0  0  0  0  0
  150.8638  145.1130  157.4760 H   0  0  0  0  0  0  0  0  0  0  0  0
  150.3915  142.7353  156.8450 H   0  0  0  0  0  0  0  0  0  0  0  0
  148.4609  138.2012  155.5582 H   0  0  0  0  0  0  0  0  0  0  0  0
  146.1635  138.9375  155.9476 H   0  0  0  0  0  0  0  0  0  0  0  0
  1  2  1  0  0  0  0
  1 25  1  0  0  0  0
  1 26  1  0  0  0  0
  1 27  1  0  0  0  0
  2  3  1  0  0  0  0
  3 24  1  0  0  0  0
  3  4  2  0  0  0  0
  4  5  1  0  0  0  0
  4 28  1  0  0  0  0
  5  6  2  0  0  0  0
  5 29  1  0  0  0  0
  6  7  1  0  0  0  0
  6 23  1  0  0  0  0
  7  8  1  0  0  0  0
  8  9  1  0  0  0  0
  8 30  1  0  0  0  0
  8 31  1  0  0  0  0
  9 10  1  0  0  0  0
  9 11  1  0  0  0  0
  9 32  1  0  0  0  0
 10 33  1  0  0  0  0
 11 12  1  0  0  0  0
 11 34  1  0  0  0  0
 11 35  1  0  0  0  0
 12 22  1  0  0  0  0
 12 13  1  0  0  0  0
 13 14  2  0  0  0  0
 13 15  1  0  0  0  0
 15 16  1  0  0  0  0
 15 17  1  0  0  0  0
 16 36  1  0  0  0  0
 16 37  1  0  0  0  0
 16 38  1  0  0  0  0
 17 22  2  0  0  0  0
 17 18  1  0  0  0  0
 18 19  2  0  0  0  0
 18 39  1  0  0  0  0
 19 20  1  0  0  0  0
 19 40  1  0  0  0  0
 20 21  2  0  0  0  0
 20 41  1  0  0  0  0
 21 22  1  0  0  0  0
 21 42  1  0  0  0  0
 23 24  2  0  0  0  0
 23 43  1  0  0  0  0
 24 44  1  0  0  0  0
M  END
> <s_m_source_file>
AV-unprocessed.smi

> <i_m_source_file_index>
419

> <i_lp_mmshare_version>
43012

> <i_f3d_flags>
0

> <s_epik_input>
W0NIM11PYzFbY0hdW2NIXWMoW2NIXVtjSF0xKU9bQ0gyXVtDQEhdKFtPSF0pW0NIMl1uKGMoPU8pbjJbQ0gzXSljKGMyMylbY0hdW2NIXVtjSF1bY0hdMw==

> <s_epik_cmdline>
J2VwaWtfcHl0aG9uJywgJy1waCcsICc3LjAnLCAnLXRuJywgJzgnLCAnLW1hJywgJzIwMCcsICctbWV0YWxfYmluZGluZycsICctaW1hZScsICc8aW5maWxlLm1hZT4nLCAnLW9tYWUnLCAnPG91dGZpbGUubWFlPic=

> <r_lp_tautomer_probability>
1

> <r_epik_Ionization_Penalty>
2.40131e-06

> <r_epik_Ionization_Penalty_Charging>
2.01037e-09

> <r_epik_Ionization_Penalty_Neutral>
2.3993e-06

> <r_epik_State_Penalty>
-0

> <r_epik_Charging_Adjusted_Penalty>
2.01037e-09

> <i_epik_Tot_Q>
0

> <i_epik_Tot_abs_Q>
0

> <r_epik_Metal_State_Penalty>
-0

> <b_epik_Metal_Only>
0

> <s_lp_Force_Field>
OPLS_2005

> <r_lp_Energy>
50.9462

> <b_lp_Chiralities_Consistent>
1

> <s_lp_Variant>
AV-unprocessed.smi:419-2

> <Gold.Version>
5.8.1

> <Gold.Id.Protein>
6NUR|6NUR_protein|mol2

> <Gold.PLP.Fitness>
56.5829

> <Gold.PLP.PLP>
-51.7633

> <Gold.PLP.part.hbond>
-2.0000

> <Gold.PLP.part.metal>
0.0000

> <Gold.PLP.part.buried>
-5.3393

> <Gold.PLP.part.nonpolar>
-45.3947

> <Gold.PLP.part.repulsive>
0.2793

> <Gold.PLP.ligand.clash>
0.0000

> <Gold.PLP.ligand.torsion>
0.6408

> <Gold.PLP.Chemscore.Hbond>
2.0000

> <Gold.PLP.Chemscore.CHOScore>
0.0000

> <Gold.PLP.Chemscore.Metal>
0.0000

> <Gold.Chemscore.Hbonds>
donor molecule, donor type, donor heavy atom, donor atom, acceptor molecule, acceptor atom, score
      P1  H  7989  7998       L1     7  1.00
      P1  H  7997  8009       L1    10  0.98

> <Gold.PLP.Chemscore.Internal.Correction>
0.1011

> <Gold.Rescore>
     Score         DG    S(hbond)    S(metal)    S(lipo)     H(rot)  DE(clash)    DE(int)     intcor
     20.43     -21.05       1.84        0.00     133.04       2.40       0.09       0.53       ----

> <Gold.Chemscore.Fitness>
20.4268

> <Gold.Chemscore.DG>
-21.0485

> <Gold.Chemscore.ZeroCoef>
-5.4800

> <Gold.Chemscore.Hbond>
1.8367

> <Gold.Chemscore.Metal>
0.0000

> <Gold.Chemscore.Lipo>
133.0388

> <Gold.Chemscore.Internal_Hbond>
0.0000

> <Gold.Chemscore.DEClash>
0.0884

> <Gold.Chemscore.DEInternal>
0.5332

> <Gold.Chemscore.Rot>
2.3952

> <Gold.Chemscore.Internal.Correction>
   9.000000E+99

> <Gold.Chemscore.Hbonds>
donor molecule, donor type, donor heavy atom, donor atom, acceptor molecule, acceptor atom, score
      P1  H  7989  7998       L1     7  0.95
      P1  H  7997  8009       L1    10  0.73

> <Gold.Chemscore.Hbond.Weighted>
-6.1346

> <Gold.Chemscore.Metal.Weighted>
-0.0000

> <Gold.Chemscore.Lipo.Weighted>
-15.5655

> <Gold.Chemscore.Internal_Hbond.Weighted>
0.0000

> <Gold.Chemscore.DEClash.Weighted>
0.0884

> <Gold.Chemscore.DEInternal.Weighted>
0.5332

> <Gold.Chemscore.Rot.Weighted>
6.1316

> <Gold.Chemscore.Internal.Correction.Weighted>
   9.000000E+99

> <Gold.Protein.RotatedTorsions>
[ 6907 6896 6895 6894 ] final  155.96 input  -60.11 | X-H torsion
[ 7974 7965 7964 7962 ] final -152.73 input  175.53 | X-H torsion
[ 8008 7997 7996 7995 ] final -177.36 input   59.86 | X-H torsion
[ 10167 10162 10161 10158 ] final -173.79 input  -65.29 | X-H torsion
[ 10718 10713 10712 10709 ] final   -3.97 input   66.30 | X-H torsion
[ 10763 10752 10751 10750 ] final   59.85 input  -60.55 | X-H torsion
[ 11005 11000 10999 10996 ] final -150.55 input  -57.11 | X-H torsion

> <Gold.Protein.ActiveResidues>
 VAL166  LYS551  ARG553  GLY616  TRP617  ASP618  TYR619  PRO620  LYS621  CYS622 
 ASP623  PHE694  ASN695  SER759  ASP760  ASP761  ALA762  ILE779  LEU786  VAL792 
 PHE793  MET794  SER795  GLU796  ALA797  LYS798  CYS799  TRP800  GLU811  SER814 

> <Gold.Protein.RotatedAtoms>
  152.0367  133.3960  159.4319 H   0  0  0  0  0  0  0  0  0  0  0  0  # atno 6907 bound_to 6896
  150.6878  134.3461  159.4898 H   0  0  0  0  0  0  0  0  0  0  0  0  # atno 6908 bound_to 6896
  152.1254  134.9174  160.0612 H   0  0  0  0  0  0  0  0  0  0  0  0  # atno 6909 bound_to 6896
  144.7779  140.4623  143.5860 H   0  0  0  0  0  0  0  0  0  0  0  0  # atno 7974 bound_to 7965
  156.0060  140.1230  157.0501 H   0  0  0  0  0  0  0  0  0  0  0  0  # atno 8008 bound_to 7997
  154.4259  140.1097  156.5832 H   0  0  0  0  0  0  0  0  0  0  0  0  # atno 8009 bound_to 7997
  155.6146  140.3472  155.4635 H   0  0  0  0  0  0  0  0  0  0  0  0  # atno 8010 bound_to 7997
  139.5669  144.1734  152.1326 H   0  0  0  0  0  0  0  0  0  0  0  0  # atno 10167 bound_to 10162
  156.7682  130.5291  149.5772 H   0  0  0  0  0  0  0  0  0  0  0  0  # atno 10718 bound_to 10713
  152.9905  135.5557  154.5780 H   0  0  0  0  0  0  0  0  0  0  0  0  # atno 10763 bound_to 10752
  154.5167  135.2805  155.1299 H   0  0  0  0  0  0  0  0  0  0  0  0  # atno 10764 bound_to 10752
  154.2669  135.6370  153.5348 H   0  0  0  0  0  0  0  0  0  0  0  0  # atno 10765 bound_to 10752
  140.7390  134.3536  157.5151 H   0  0  0  0  0  0  0  0  0  0  0  0  # atno 11005 bound_to 11000
  145.6135  139.1516  143.3063 LP  0  0  0  0  0  0  0  0  0  0  0  0  # atno 17320 bound_to 7965
  146.1969  140.6249  142.9120 LP  0  0  0  0  0  0  0  0  0  0  0  0  # atno 17321 bound_to 7965
  140.1259  144.5332  150.6833 LP  0  0  0  0  0  0  0  0  0  0  0  0  # atno 17342 bound_to 10162
  140.6953  143.2400  151.5018 LP  0  0  0  0  0  0  0  0  0  0  0  0  # atno 17343 bound_to 10162
  156.1295  130.6168  151.0313 LP  0  0  0  0  0  0  0  0  0  0  0  0  # atno 17370 bound_to 10713
  157.6703  131.0863  150.7627 LP  0  0  0  0  0  0  0  0  0  0  0  0  # atno 17371 bound_to 10713
  139.8810  134.9068  156.2931 LP  0  0  0  0  0  0  0  0  0  0  0  0  # atno 17394 bound_to 11000
  140.9854  133.7241  156.0734 LP  0  0  0  0  0  0  0  0  0  0  0  0  # atno 17395 bound_to 11000

$$$$
