AV-unprocessed.smi:657|AV-procd|sdf|3227|dock5
  -GOLD-   22720 0163D 1   1.00000     0.00000
 Structure written by MMmdl.
 46 47  0  0  0  0  0  0  0  0  3 V2000
  151.6521  137.9331  154.3603 C   0  0  0  0  0  0  0  0  0  0  0  0
  150.4500  137.2463  155.0440 C   0  0  0  0  0  0  0  0  0  0  0  0
  150.7283  135.7294  155.0970 C   0  0  0  0  0  0  0  0  0  0  0  0
  149.1419  137.5652  154.3744 N   0  3  1  0  0  0  0  0  0  0  0  0
  147.9443  137.0028  155.0761 C   0  0  0  0  0  0  0  0  0  0  0  0
  146.6387  137.2251  154.2929 C   0  0  0  0  0  0  0  0  0  0  0  0
  146.4281  138.7008  153.9527 C   0  0  0  0  0  0  0  0  0  0  0  0
  147.6487  139.2062  153.1780 C   0  0  0  0  0  0  0  0  0  0  0  0
  148.9662  139.0015  153.9605 C   0  0  1  0  0  0  0  0  0  0  0  0
  149.1090  140.0390  155.1025 C   0  0  0  0  0  0  0  0  0  0  0  0
  148.2335  140.1091  155.9714 O   0  0  0  0  0  0  0  0  0  0  0  0
  150.2406  140.7812  154.9447 N   0  5  0  0  0  0  0  0  0  0  0  0
  150.9893  141.3736  156.0552 C   0  0  0  0  0  0  0  0  0  0  0  0
  150.0286  141.9923  157.0973 C   0  0  0  0  0  0  0  0  0  0  0  0
  150.7285  142.7187  158.2252 C   0  0  0  0  0  0  0  0  0  0  0  0
  150.6100  144.0865  158.6126 C   0  0  0  0  0  0  0  0  0  0  0  0
  151.3911  144.4043  159.6324 N   0  0  0  0  0  0  0  0  0  0  0  0
  152.0272  143.2552  159.9377 N   0  0  0  0  0  0  0  0  0  0  0  0
  152.9873  143.2350  161.0199 C   0  0  0  0  0  0  0  0  0  0  0  0
  151.6366  142.2200  159.1177 C   0  0  0  0  0  0  0  0  0  0  0  0
  152.5934  137.6089  154.8047 H   0  0  0  0  0  0  0  0  0  0  0  0
  151.6273  139.0171  154.4685 H   0  0  0  0  0  0  0  0  0  0  0  0
  151.6932  137.6980  153.2963 H   0  0  0  0  0  0  0  0  0  0  0  0
  150.4072  137.6020  156.0741 H   0  0  0  0  0  0  0  0  0  0  0  0
  151.7350  135.5281  155.4645 H   0  0  0  0  0  0  0  0  0  0  0  0
  150.6431  135.2734  154.1102 H   0  0  0  0  0  0  0  0  0  0  0  0
  150.0539  135.2084  155.7756 H   0  0  0  0  0  0  0  0  0  0  0  0
  148.0462  135.9268  155.2003 H   0  0  0  0  0  0  0  0  0  0  0  0
  147.8582  137.4150  156.0806 H   0  0  0  0  0  0  0  0  0  0  0  0
  146.6618  136.6393  153.3731 H   0  0  0  0  0  0  0  0  0  0  0  0
  145.7922  136.8545  154.8718 H   0  0  0  0  0  0  0  0  0  0  0  0
  145.5250  138.8260  153.3551 H   0  0  0  0  0  0  0  0  0  0  0  0
  146.2818  139.2823  154.8635 H   0  0  0  0  0  0  0  0  0  0  0  0
  147.7121  138.6776  152.2260 H   0  0  0  0  0  0  0  0  0  0  0  0
  147.5152  140.2578  152.9220 H   0  0  0  0  0  0  0  0  0  0  0  0
  149.7478  139.2007  153.2260 H   0  0  0  0  0  0  0  0  0  0  0  0
  151.6420  140.6548  156.5527 H   0  0  0  0  0  0  0  0  0  0  0  0
  151.6545  142.1575  155.6929 H   0  0  0  0  0  0  0  0  0  0  0  0
  149.3562  142.6759  156.5786 H   0  0  0  0  0  0  0  0  0  0  0  0
  149.3845  141.2062  157.4937 H   0  0  0  0  0  0  0  0  0  0  0  0
  149.9926  144.8561  158.1731 H   0  0  0  0  0  0  0  0  0  0  0  0
  153.5339  142.2916  161.0154 H   0  0  0  0  0  0  0  0  0  0  0  0
  152.4691  143.3429  161.9731 H   0  0  0  0  0  0  0  0  0  0  0  0
  153.6975  144.0540  160.9011 H   0  0  0  0  0  0  0  0  0  0  0  0
  152.0450  141.2257  159.2213 H   0  0  0  0  0  0  0  0  0  0  0  0
  149.1762  137.0639  153.4990 H   0  0  0  0  0  0  0  0  0  0  0  0
  1  2  1  0  0  0  0
  1 21  1  0  0  0  0
  1 22  1  0  0  0  0
  1 23  1  0  0  0  0
  2  3  1  0  0  0  0
  2  4  1  0  0  0  0
  2 24  1  0  0  0  0
  3 25  1  0  0  0  0
  3 26  1  0  0  0  0
  3 27  1  0  0  0  0
  4  9  1  0  0  0  0
  4  5  1  0  0  0  0
  4 46  1  0  0  0  0
  5  6  1  0  0  0  0
  5 28  1  0  0  0  0
  5 29  1  0  0  0  0
  6  7  1  0  0  0  0
  6 30  1  0  0  0  0
  6 31  1  0  0  0  0
  7  8  1  0  0  0  0
  7 32  1  0  0  0  0
  7 33  1  0  0  0  0
  8  9  1  0  0  0  0
  8 34  1  0  0  0  0
  8 35  1  0  0  0  0
  9 10  1  0  0  0  0
  9 36  1  0  0  0  0
 10 11  2  0  0  0  0
 10 12  1  0  0  0  0
 12 13  1  0  0  0  0
 13 14  1  0  0  0  0
 13 37  1  0  0  0  0
 13 38  1  0  0  0  0
 14 15  1  0  0  0  0
 14 39  1  0  0  0  0
 14 40  1  0  0  0  0
 15 20  2  0  0  0  0
 15 16  1  0  0  0  0
 16 17  2  0  0  0  0
 16 41  1  0  0  0  0
 17 18  1  0  0  0  0
 18 19  1  0  0  0  0
 18 20  1  0  0  0  0
 19 42  1  0  0  0  0
 19 43  1  0  0  0  0
 19 44  1  0  0  0  0
 20 45  1  0  0  0  0
M  CHG  1   4   1
M  CHG  1  12  -1
M  END
> <s_m_source_file>
AV-unprocessed.smi

> <i_m_source_file_index>
657

> <i_lp_mmshare_version>
43012

> <i_f3d_flags>
0

> <s_epik_input>
W0NIM11bQ0hdKFtDSDNdKU4xW0NIMl1bQ0gyXVtDSDJdW0NIMl1bQ0BIXTFDKD1PKVtOSF1bQ0gyXVtDSDJdYzJbY0hdbm4oW0NIM10pW2NIXTI=

> <s_epik_cmdline>
J2VwaWtfcHl0aG9uJywgJy1waCcsICc3LjAnLCAnLXRuJywgJzgnLCAnLW1hJywgJzIwMCcsICctbWV0YWxfYmluZGluZycsICctaW1hZScsICc8aW5maWxlLm1hZT4nLCAnLW9tYWUnLCAnPG91dGZpbGUubWFlPic=

> <r_lp_tautomer_probability>
1

> <r_epik_Ionization_Penalty>
6.1622

> <r_epik_Ionization_Penalty_Charging>
6.16146

> <r_epik_Ionization_Penalty_Neutral>
0.00073675

> <r_epik_State_Penalty>
6.18018

> <r_epik_Charging_Adjusted_Penalty>
12.3416

> <i_epik_Tot_Q>
0

> <i_epik_Tot_abs_Q>
2

> <r_epik_Metal_State_Penalty>
2.12232

> <b_epik_Metal_Only>
1

> <s_lp_Force_Field>
OPLS_2005

> <r_lp_Energy>
12.187

> <b_lp_Chiralities_Consistent>
1

> <s_lp_Variant>
AV-unprocessed.smi:657-8

> <Gold.Version>
5.8.1

> <Gold.Id.Protein>
6NUR|6NUR_protein|mol2

> <Gold.PLP.Fitness>
43.1206

> <Gold.PLP.PLP>
-32.3164

> <Gold.PLP.part.hbond>
-2.0000

> <Gold.PLP.part.metal>
0.0000

> <Gold.PLP.part.buried>
-2.6400

> <Gold.PLP.part.nonpolar>
-27.2943

> <Gold.PLP.part.repulsive>
0.1832

> <Gold.PLP.ligand.clash>
0.0000

> <Gold.PLP.ligand.torsion>
0.5452

> <Gold.PLP.Chemscore.Hbond>
2.8320

> <Gold.PLP.Chemscore.CHOScore>
1.0416

> <Gold.PLP.Chemscore.Metal>
0.0000

> <Gold.Chemscore.Hbonds>
donor molecule, donor type, donor heavy atom, donor atom, acceptor molecule, acceptor atom, score
      L1  H     4    46       P1  7948  2.00
      P1  H  7989  7998       L1    12  0.82
      L1  C    16    41       P1  8028  0.20
      L1  C    16    41       P1  8029  0.83

> <Gold.PLP.Chemscore.Internal.Correction>
0.2737

> <Gold.Rescore>
     Score         DG    S(hbond)    S(metal)    S(lipo)     H(rot)  DE(clash)    DE(int)     intcor
     12.96     -16.83       1.38        0.00      91.89       1.57       1.32       2.55       ----

> <Gold.Chemscore.Fitness>
12.9607

> <Gold.Chemscore.DG>
-16.8258

> <Gold.Chemscore.ZeroCoef>
-5.4800

> <Gold.Chemscore.Hbond>
1.3847

> <Gold.Chemscore.Metal>
0.0000

> <Gold.Chemscore.Lipo>
91.8851

> <Gold.Chemscore.Internal_Hbond>
0.0000

> <Gold.Chemscore.DEClash>
1.3174

> <Gold.Chemscore.DEInternal>
2.5477

> <Gold.Chemscore.Rot>
1.5741

> <Gold.Chemscore.Internal.Correction>
   9.000000E+99

> <Gold.Chemscore.Hbonds>
donor molecule, donor type, donor heavy atom, donor atom, acceptor molecule, acceptor atom, score
      L1  H     4    46       P1  7948  0.99
      P1  H  7989  7998       L1    12  0.20

> <Gold.Chemscore.Hbond.Weighted>
-4.6249

> <Gold.Chemscore.Metal.Weighted>
-0.0000

> <Gold.Chemscore.Lipo.Weighted>
-10.7506

> <Gold.Chemscore.Internal_Hbond.Weighted>
0.0000

> <Gold.Chemscore.DEClash.Weighted>
1.3174

> <Gold.Chemscore.DEInternal.Weighted>
2.5477

> <Gold.Chemscore.Rot.Weighted>
4.0297

> <Gold.Chemscore.Internal.Correction.Weighted>
   9.000000E+99

> <Gold.Protein.RotatedTorsions>
[ 6907 6896 6895 6894 ] final -146.33 input  -60.11 | X-H torsion
[ 7974 7965 7964 7962 ] final  -84.23 input  175.53 | X-H torsion
[ 8008 7997 7996 7995 ] final   18.61 input   59.86 | X-H torsion
[ 10167 10162 10161 10158 ] final   75.91 input  -65.29 | X-H torsion
[ 10718 10713 10712 10709 ] final  107.93 input   66.30 | X-H torsion
[ 10763 10752 10751 10750 ] final -143.16 input  -60.55 | X-H torsion
[ 11005 11000 10999 10996 ] final  157.53 input  -57.11 | X-H torsion

> <Gold.Protein.ActiveResidues>
 VAL166  LYS551  ARG553  GLY616  TRP617  ASP618  TYR619  PRO620  LYS621  CYS622 
 ASP623  PHE694  ASN695  SER759  ASP760  ASP761  ALA762  ILE779  LEU786  VAL792 
 PHE793  MET794  SER795  GLU796  ALA797  LYS798  CYS799  TRP800  GLU811  SER814 

> <Gold.Protein.RotatedAtoms>
  151.1401  133.4977  159.2596 H   0  0  0  0  0  0  0  0  0  0  0  0  # atno 6907 bound_to 6896
  151.1664  135.0297  159.8742 H   0  0  0  0  0  0  0  0  0  0  0  0  # atno 6908 bound_to 6896
  152.5462  134.1269  159.8476 H   0  0  0  0  0  0  0  0  0  0  0  0  # atno 6909 bound_to 6896
  145.5094  140.9541  143.1716 H   0  0  0  0  0  0  0  0  0  0  0  0  # atno 7974 bound_to 7965
  154.9085  140.3010  155.5279 H   0  0  0  0  0  0  0  0  0  0  0  0  # atno 8008 bound_to 7997
  156.3016  140.2393  156.4056 H   0  0  0  0  0  0  0  0  0  0  0  0  # atno 8009 bound_to 7997
  154.8449  140.0412  157.1555 H   0  0  0  0  0  0  0  0  0  0  0  0  # atno 8010 bound_to 7997
  139.9979  144.5708  150.7762 H   0  0  0  0  0  0  0  0  0  0  0  0  # atno 10167 bound_to 10162
  157.6608  131.0883  150.6230 H   0  0  0  0  0  0  0  0  0  0  0  0  # atno 10718 bound_to 10713
  154.8481  135.3475  154.6144 H   0  0  0  0  0  0  0  0  0  0  0  0  # atno 10763 bound_to 10752
  153.6752  135.6983  153.5139 H   0  0  0  0  0  0  0  0  0  0  0  0  # atno 10764 bound_to 10752
  153.2711  135.4292  155.0945 H   0  0  0  0  0  0  0  0  0  0  0  0  # atno 10765 bound_to 10752
  140.1778  134.8497  157.2767 H   0  0  0  0  0  0  0  0  0  0  0  0  # atno 11005 bound_to 11000
  144.7736  139.6680  143.7184 LP  0  0  0  0  0  0  0  0  0  0  0  0  # atno 17320 bound_to 7965
  146.2176  139.5577  142.9640 LP  0  0  0  0  0  0  0  0  0  0  0  0  # atno 17321 bound_to 7965
  140.7430  143.2840  151.3517 LP  0  0  0  0  0  0  0  0  0  0  0  0  # atno 17342 bound_to 10162
  139.6292  144.0753  152.2462 LP  0  0  0  0  0  0  0  0  0  0  0  0  # atno 17343 bound_to 10162
  156.6533  130.4491  149.5712 LP  0  0  0  0  0  0  0  0  0  0  0  0  # atno 17370 bound_to 10713
  156.2121  130.6685  151.1281 LP  0  0  0  0  0  0  0  0  0  0  0  0  # atno 17371 bound_to 10713
  140.2302  134.3918  155.7525 LP  0  0  0  0  0  0  0  0  0  0  0  0  # atno 17394 bound_to 11000
  141.2221  133.7211  156.8629 LP  0  0  0  0  0  0  0  0  0  0  0  0  # atno 17395 bound_to 11000

$$$$
