AV-unprocessed.smi:2706|AV-procd|sdf|10445|dock1
  -GOLD-   2272014483D 1   1.00000     0.00000
 Structure written by MMmdl.
 43 46  0  0  0  0  0  0  0  0  1 V2000
  150.7543  142.0572  156.3666 C   0  0  0  0  0  0  0  0  0  0  0  0
  150.5346  140.8258  155.6142 N   0  0  0  0  0  0  0  0  0  0  0  0
  151.5214  139.7546  155.6693 C   0  0  0  0  0  0  0  0  0  0  0  0
  149.3255  140.6436  154.9054 C   0  0  0  0  0  0  0  0  0  0  0  0
  148.3962  141.6984  154.7388 C   0  0  0  0  0  0  0  0  0  0  0  0
  147.2127  141.4549  154.0193 C   0  0  0  0  0  0  0  0  0  0  0  0
  146.9877  140.1720  153.4889 C   0  0  0  0  0  0  0  0  0  0  0  0
  147.9527  139.1638  153.6942 C   0  0  0  0  0  0  0  0  0  0  0  0
  147.6422  137.9010  153.1229 N   0  0  0  0  0  0  0  0  0  0  0  0
  146.4387  137.3083  153.0252 C   0  0  0  0  0  0  0  0  0  0  0  0
  145.3736  137.7928  153.4096 O   0  0  0  0  0  0  0  0  0  0  0  0
  146.5383  136.1041  152.4454 N   0  0  0  0  0  0  0  0  0  0  0  0
  145.4499  135.2195  152.1822 C   0  0  2  0  0  0  0  0  0  0  0  0
  145.7823  133.7490  151.9830 C   0  0  1  0  0  0  0  0  0  0  0  0
  144.7751  132.6029  151.9596 C   0  0  2  0  0  0  0  0  0  0  0  0
  145.1326  131.6835  150.7736 C   0  0  0  0  0  0  0  0  0  0  0  0
  144.7343  132.5460  149.5505 C   0  0  0  0  0  0  0  0  0  0  0  0
  144.2024  133.8354  150.2102 C   0  0  1  0  0  0  0  0  0  0  0  0
  143.4908  133.2388  151.4253 C   0  0  0  0  0  0  0  0  0  0  0  0
  145.3936  134.5843  150.8008 C   0  0  1  0  0  0  0  0  0  0  0  0
  149.0890  139.4134  154.3887 N   0  0  0  0  0  0  0  0  0  0  0  0
  150.7079  142.9240  155.7067 H   0  0  0  0  0  0  0  0  0  0  0  0
  151.7310  142.0602  156.8506 H   0  0  0  0  0  0  0  0  0  0  0  0
  149.9961  142.1717  157.1418 H   0  0  0  0  0  0  0  0  0  0  0  0
  151.9026  139.5349  154.6716 H   0  0  0  0  0  0  0  0  0  0  0  0
  151.0818  138.8472  156.0848 H   0  0  0  0  0  0  0  0  0  0  0  0
  152.3694  140.0289  156.2967 H   0  0  0  0  0  0  0  0  0  0  0  0
  148.5667  142.6835  155.1456 H   0  0  0  0  0  0  0  0  0  0  0  0
  146.4869  142.2418  153.8759 H   0  0  0  0  0  0  0  0  0  0  0  0
  146.0834  139.9692  152.9336 H   0  0  0  0  0  0  0  0  0  0  0  0
  148.4274  137.3882  152.7504 H   0  0  0  0  0  0  0  0  0  0  0  0
  147.4547  135.7883  152.1635 H   0  0  0  0  0  0  0  0  0  0  0  0
  144.5031  135.4628  152.6593 H   0  0  0  0  0  0  0  0  0  0  0  0
  146.8272  133.4571  152.0750 H   0  0  0  0  0  0  0  0  0  0  0  0
  144.6850  132.0986  152.9218 H   0  0  0  0  0  0  0  0  0  0  0  0
  146.1888  131.4110  150.7650 H   0  0  0  0  0  0  0  0  0  0  0  0
  144.5486  130.7628  150.8025 H   0  0  0  0  0  0  0  0  0  0  0  0
  145.5771  132.7390  148.8855 H   0  0  0  0  0  0  0  0  0  0  0  0
  143.9543  132.0531  148.9685 H   0  0  0  0  0  0  0  0  0  0  0  0
  143.5865  134.4615  149.5646 H   0  0  0  0  0  0  0  0  0  0  0  0
  142.7204  132.5104  151.1642 H   0  0  0  0  0  0  0  0  0  0  0  0
  143.0435  133.9763  152.0909 H   0  0  0  0  0  0  0  0  0  0  0  0
  146.1760  134.8570  150.0945 H   0  0  0  0  0  0  0  0  0  0  0  0
  1  2  1  0  0  0  0
  1 22  1  0  0  0  0
  1 23  1  0  0  0  0
  1 24  1  0  0  0  0
  2  3  1  0  0  0  0
  2  4  1  0  0  0  0
  3 25  1  0  0  0  0
  3 26  1  0  0  0  0
  3 27  1  0  0  0  0
  4 21  1  0  0  0  0
  4  5  2  0  0  0  0
  5  6  1  0  0  0  0
  5 28  1  0  0  0  0
  6  7  2  0  0  0  0
  6 29  1  0  0  0  0
  7  8  1  0  0  0  0
  7 30  1  0  0  0  0
  8  9  1  0  0  0  0
  8 21  2  0  0  0  0
  9 10  1  0  0  0  0
  9 31  1  0  0  0  0
 10 11  2  0  0  0  0
 10 12  1  0  0  0  0
 12 13  1  0  0  0  0
 12 32  1  0  0  0  0
 13 20  1  0  0  0  0
 13 14  1  0  0  0  0
 13 33  1  0  0  0  0
 14 20  1  0  0  0  0
 14 15  1  0  0  0  0
 14 34  1  0  0  0  0
 15 19  1  0  0  0  0
 15 16  1  0  0  0  0
 15 35  1  0  0  0  0
 16 17  1  0  0  0  0
 16 36  1  0  0  0  0
 16 37  1  0  0  0  0
 17 18  1  0  0  0  0
 17 38  1  0  0  0  0
 17 39  1  0  0  0  0
 18 19  1  0  0  0  0
 18 20  1  0  0  0  0
 18 40  1  0  0  0  0
 19 41  1  0  0  0  0
 19 42  1  0  0  0  0
 20 43  1  0  0  0  0
M  END
> <s_m_source_file>
AV-unprocessed.smi

> <i_m_source_file_index>
2706

> <i_lp_mmshare_version>
43012

> <i_f3d_flags>
0

> <s_epik_input>
W0NIM11OKFtDSDNdKWMxW2NIXVtjSF1bY0hdYyhuMSlbTkhdQyg9TylbTkhdW0NASF0yW0NAQEhdM1tDQEBIXShbQ0gyXTQpW0NIMl1bQ0gyXVtDQEBIXTRbQ0BIXTIz

> <s_epik_cmdline>
J2VwaWtfcHl0aG9uJywgJy1waCcsICc3LjAnLCAnLXRuJywgJzgnLCAnLW1hJywgJzIwMCcsICctbWV0YWxfYmluZGluZycsICctaW1hZScsICc8aW5maWxlLm1hZT4nLCAnLW9tYWUnLCAnPG91dGZpbGUubWFlPic=

> <r_lp_tautomer_probability>
1

> <r_epik_Ionization_Penalty>
0.0296788

> <r_epik_Ionization_Penalty_Charging>
0

> <r_epik_Ionization_Penalty_Neutral>
0.0296788

> <r_epik_State_Penalty>
0.0248512

> <r_epik_Charging_Adjusted_Penalty>
0.0248512

> <i_epik_Tot_Q>
0

> <i_epik_Tot_abs_Q>
0

> <r_epik_Metal_State_Penalty>
0.0237882

> <b_epik_Metal_Only>
0

> <s_lp_Force_Field>
OPLS_2005

> <r_lp_Energy>
77.4142

> <b_lp_Chiralities_Consistent>
1

> <s_lp_Variant>
AV-unprocessed.smi:2706-2

> <Gold.Version>
5.8.1

> <Gold.Id.Protein>
6NUR|6NUR_protein|mol2

> <Gold.PLP.Fitness>
44.9590

> <Gold.PLP.PLP>
-40.2099

> <Gold.PLP.part.hbond>
-1.5238

> <Gold.PLP.part.metal>
0.0000

> <Gold.PLP.part.buried>
-2.9152

> <Gold.PLP.part.nonpolar>
-36.5939

> <Gold.PLP.part.repulsive>
0.3966

> <Gold.PLP.ligand.clash>
0.0000

> <Gold.PLP.ligand.torsion>
0.5214

> <Gold.PLP.Chemscore.Hbond>
1.9200

> <Gold.PLP.Chemscore.CHOScore>
0.0000

> <Gold.PLP.Chemscore.Metal>
0.0000

> <Gold.Chemscore.Hbonds>
donor molecule, donor type, donor heavy atom, donor atom, acceptor molecule, acceptor atom, score
      L1  H     9    31       P1  7948  0.99
      L1  H    12    32       P1  7948  0.93

> <Gold.PLP.Chemscore.Internal.Correction>
0.0319

> <Gold.Rescore>
     Score         DG    S(hbond)    S(metal)    S(lipo)     H(rot)  DE(clash)    DE(int)     intcor
     17.47     -19.42       1.83        0.00      88.87       1.00       0.17       1.78       ----

> <Gold.Chemscore.Fitness>
17.4730

> <Gold.Chemscore.DG>
-19.4213

> <Gold.Chemscore.ZeroCoef>
-5.4800

> <Gold.Chemscore.Hbond>
1.8273

> <Gold.Chemscore.Metal>
0.0000

> <Gold.Chemscore.Lipo>
88.8717

> <Gold.Chemscore.Internal_Hbond>
0.0000

> <Gold.Chemscore.DEClash>
0.1700

> <Gold.Chemscore.DEInternal>
1.7783

> <Gold.Chemscore.Rot>
1.0000

> <Gold.Chemscore.Internal.Correction>
   9.000000E+99

> <Gold.Chemscore.Hbonds>
donor molecule, donor type, donor heavy atom, donor atom, acceptor molecule, acceptor atom, score
      L1  H     9    31       P1  7948  0.88
      L1  H    12    32       P1  7948  0.87

> <Gold.Chemscore.Hbond.Weighted>
-6.1033

> <Gold.Chemscore.Metal.Weighted>
-0.0000

> <Gold.Chemscore.Lipo.Weighted>
-10.3980

> <Gold.Chemscore.Internal_Hbond.Weighted>
0.0000

> <Gold.Chemscore.DEClash.Weighted>
0.1700

> <Gold.Chemscore.DEInternal.Weighted>
1.7783

> <Gold.Chemscore.Rot.Weighted>
2.5600

> <Gold.Chemscore.Internal.Correction.Weighted>
   9.000000E+99

> <Gold.Protein.RotatedTorsions>
[ 6907 6896 6895 6894 ] final   55.87 input  -60.11 | X-H torsion
[ 7974 7965 7964 7962 ] final  -50.97 input  175.53 | X-H torsion
[ 8008 7997 7996 7995 ] final  -49.37 input   59.86 | X-H torsion
[ 10167 10162 10161 10158 ] final  -75.72 input  -65.29 | X-H torsion
[ 10718 10713 10712 10709 ] final  -48.57 input   66.30 | X-H torsion
[ 10763 10752 10751 10750 ] final  146.41 input  -60.55 | X-H torsion
[ 11005 11000 10999 10996 ] final  -51.64 input  -57.11 | X-H torsion

> <Gold.Protein.ActiveResidues>
 VAL166  LYS551  ARG553  GLY616  TRP617  ASP618  TYR619  PRO620  LYS621  CYS622 
 ASP623  PHE694  ASN695  SER759  ASP760  ASP761  ALA762  ILE779  LEU786  VAL792 
 PHE793  MET794  SER795  GLU796  ALA797  LYS798  CYS799  TRP800  GLU811  SER814 

> <Gold.Protein.RotatedAtoms>
  152.3581  134.6912  160.0215 H   0  0  0  0  0  0  0  0  0  0  0  0  # atno 6907 bound_to 6896
  151.7244  133.3310  159.3332 H   0  0  0  0  0  0  0  0  0  0  0  0  # atno 6908 bound_to 6896
  150.7585  134.6353  159.6253 H   0  0  0  0  0  0  0  0  0  0  0  0  # atno 6909 bound_to 6896
  145.9240  140.7808  142.9633 H   0  0  0  0  0  0  0  0  0  0  0  0  # atno 7974 bound_to 7965
  154.4043  140.1298  156.4491 H   0  0  0  0  0  0  0  0  0  0  0  0  # atno 8008 bound_to 7997
  155.7384  140.3490  155.5072 H   0  0  0  0  0  0  0  0  0  0  0  0  # atno 8009 bound_to 7997
  155.9062  140.1028  157.1303 H   0  0  0  0  0  0  0  0  0  0  0  0  # atno 8010 bound_to 7997
  140.4919  143.2378  151.7894 H   0  0  0  0  0  0  0  0  0  0  0  0  # atno 10167 bound_to 10162
  156.1975  130.4155  149.9286 H   0  0  0  0  0  0  0  0  0  0  0  0  # atno 10718 bound_to 10713
  154.0214  135.2905  155.3380 H   0  0  0  0  0  0  0  0  0  0  0  0  # atno 10763 bound_to 10752
  154.7043  135.5175  153.8576 H   0  0  0  0  0  0  0  0  0  0  0  0  # atno 10764 bound_to 10752
  153.0679  135.6637  154.0436 H   0  0  0  0  0  0  0  0  0  0  0  0  # atno 10765 bound_to 10752
  141.0882  133.6638  156.3907 H   0  0  0  0  0  0  0  0  0  0  0  0  # atno 11005 bound_to 11000
  144.6756  140.2021  143.7386 LP  0  0  0  0  0  0  0  0  0  0  0  0  # atno 17320 bound_to 7965
  145.8513  139.2177  143.1770 LP  0  0  0  0  0  0  0  0  0  0  0  0  # atno 17321 bound_to 7965
  139.4853  144.4638  151.9509 LP  0  0  0  0  0  0  0  0  0  0  0  0  # atno 17342 bound_to 10162
  140.3725  144.2837  150.5918 LP  0  0  0  0  0  0  0  0  0  0  0  0  # atno 17343 bound_to 10162
  156.7007  130.8932  151.3599 LP  0  0  0  0  0  0  0  0  0  0  0  0  # atno 17370 bound_to 10713
  157.6966  130.9288  150.0662 LP  0  0  0  0  0  0  0  0  0  0  0  0  # atno 17371 bound_to 10713
  140.5314  134.6209  157.5351 LP  0  0  0  0  0  0  0  0  0  0  0  0  # atno 17394 bound_to 11000
  139.9703  134.7304  156.0055 LP  0  0  0  0  0  0  0  0  0  0  0  0  # atno 17395 bound_to 11000

$$$$
