AV-unprocessed.smi:3291|AV-procd|sdf|12619|dock3
  -GOLD-   2272018553D 1   1.00000     0.00000
 Structure written by MMmdl.
 43 45  0  0  0  0  0  0  0  0  2 V2000
  151.7438  136.9297  156.2875 C   0  0  0  0  0  0  0  0  0  0  0  0
  151.2069  138.2928  155.9552 C   0  0  0  0  0  0  0  0  0  0  0  0
  150.4848  138.4570  154.8608 N   0  0  0  0  0  0  0  0  0  0  0  0
  150.1364  139.8093  154.8334 O   0  0  0  0  0  0  0  0  0  0  0  0
  150.6673  140.4154  155.9252 C   0  0  0  0  0  0  0  0  0  0  0  0
  150.3925  141.8767  156.0582 C   0  0  0  0  0  0  0  0  0  0  0  0
  151.3655  139.5092  156.6819 C   0  0  0  0  0  0  0  0  0  0  0  0
  152.1275  139.7007  157.9744 C   0  0  2  0  0  0  0  0  0  0  0  0
  151.6759  138.6602  159.0143 C   0  0  0  0  0  0  0  0  0  0  0  0
  151.9858  141.1441  158.4943 C   0  0  0  0  0  0  0  0  0  0  0  0
  153.2440  141.6378  159.0926 N   0  3  0  0  0  0  0  0  0  0  0  0
  153.1750  142.9991  159.6662 C   0  0  0  0  0  0  0  0  0  0  0  0
  152.7833  142.8975  161.1293 C   0  0  0  0  0  0  0  0  0  0  0  0
  153.1527  143.9826  162.1148 C   0  0  0  0  0  0  0  0  0  0  0  0
  153.8175  142.6294  162.1979 C   0  0  0  0  0  0  0  0  0  0  0  0
  152.1814  143.8574  158.8970 C   0  0  0  0  0  0  0  0  0  0  0  0
  152.6244  144.7555  157.7635 C   0  0  0  0  0  0  0  0  0  0  0  0
  152.1563  145.3604  159.0637 C   0  0  0  0  0  0  0  0  0  0  0  0
  151.3573  136.5830  157.2459 H   0  0  0  0  0  0  0  0  0  0  0  0
  152.8318  136.9453  156.3536 H   0  0  0  0  0  0  0  0  0  0  0  0
  151.4699  136.1905  155.5335 H   0  0  0  0  0  0  0  0  0  0  0  0
  150.1638  142.1424  157.0897 H   0  0  0  0  0  0  0  0  0  0  0  0
  149.5423  142.1723  155.4427 H   0  0  0  0  0  0  0  0  0  0  0  0
  151.2553  142.4617  155.7396 H   0  0  0  0  0  0  0  0  0  0  0  0
  153.1891  139.5292  157.7916 H   0  0  0  0  0  0  0  0  0  0  0  0
  151.8068  137.6470  158.6325 H   0  0  0  0  0  0  0  0  0  0  0  0
  150.6249  138.7811  159.2758 H   0  0  0  0  0  0  0  0  0  0  0  0
  152.2550  138.7351  159.9348 H   0  0  0  0  0  0  0  0  0  0  0  0
  151.7119  141.8067  157.6718 H   0  0  0  0  0  0  0  0  0  0  0  0
  151.1867  141.1993  159.2318 H   0  0  0  0  0  0  0  0  0  0  0  0
  153.5409  140.9963  159.8140 H   0  0  0  0  0  0  0  0  0  0  0  0
  154.1631  143.4591  159.6094 H   0  0  0  0  0  0  0  0  0  0  0  0
  151.8088  142.4385  161.2882 H   0  0  0  0  0  0  0  0  0  0  0  0
  153.7619  144.8125  161.7627 H   0  0  0  0  0  0  0  0  0  0  0  0
  152.4222  144.2333  162.8810 H   0  0  0  0  0  0  0  0  0  0  0  0
  153.5316  141.9796  163.0226 H   0  0  0  0  0  0  0  0  0  0  0  0
  154.8603  142.5646  161.8934 H   0  0  0  0  0  0  0  0  0  0  0  0
  151.2037  143.3919  158.7826 H   0  0  0  0  0  0  0  0  0  0  0  0
  153.6886  144.8080  157.5415 H   0  0  0  0  0  0  0  0  0  0  0  0
  151.9648  144.8368  156.9019 H   0  0  0  0  0  0  0  0  0  0  0  0
  151.1836  145.8481  159.0705 H   0  0  0  0  0  0  0  0  0  0  0  0
  152.9124  145.8216  159.6953 H   0  0  0  0  0  0  0  0  0  0  0  0
  153.9430  141.6452  158.3637 H   0  0  0  0  0  0  0  0  0  0  0  0
  1  2  1  0  0  0  0
  1 19  1  0  0  0  0
  1 20  1  0  0  0  0
  1 21  1  0  0  0  0
  2  7  1  0  0  0  0
  2  3  2  0  0  0  0
  3  4  1  0  0  0  0
  4  5  1  0  0  0  0
  5  6  1  0  0  0  0
  5  7  2  0  0  0  0
  6 22  1  0  0  0  0
  6 23  1  0  0  0  0
  6 24  1  0  0  0  0
  7  8  1  0  0  0  0
  8  9  1  0  0  0  0
  8 10  1  0  0  0  0
  8 25  1  0  0  0  0
  9 26  1  0  0  0  0
  9 27  1  0  0  0  0
  9 28  1  0  0  0  0
 10 11  1  0  0  0  0
 10 29  1  0  0  0  0
 10 30  1  0  0  0  0
 11 12  1  0  0  0  0
 11 31  1  0  0  0  0
 11 43  1  0  0  0  0
 12 13  1  0  0  0  0
 12 16  1  0  0  0  0
 12 32  1  0  0  0  0
 13 15  1  0  0  0  0
 13 14  1  0  0  0  0
 13 33  1  0  0  0  0
 14 15  1  0  0  0  0
 14 34  1  0  0  0  0
 14 35  1  0  0  0  0
 15 36  1  0  0  0  0
 15 37  1  0  0  0  0
 16 18  1  0  0  0  0
 16 17  1  0  0  0  0
 16 38  1  0  0  0  0
 17 18  1  0  0  0  0
 17 39  1  0  0  0  0
 17 40  1  0  0  0  0
 18 41  1  0  0  0  0
 18 42  1  0  0  0  0
M  CHG  1  11   1
M  END
> <s_m_source_file>
AV-unprocessed.smi

> <i_m_source_file_index>
3291

> <i_lp_mmshare_version>
43012

> <i_f3d_flags>
0

> <s_epik_input>
W0NIM11jMW5vYyhbQ0gzXSljMVtDQEhdKFtDSDNdKVtDSDJdW05IXVtDSF0oW0NIXTJbQ0gyXVtDSDJdMilbQ0hdM1tDSDJdW0NIMl0z

> <s_epik_cmdline>
J2VwaWtfcHl0aG9uJywgJy1waCcsICc3LjAnLCAnLXRuJywgJzgnLCAnLW1hJywgJzIwMCcsICctbWV0YWxfYmluZGluZycsICctaW1hZScsICc8aW5maWxlLm1hZT4nLCAnLW9tYWUnLCAnPG91dGZpbGUubWFlPic=

> <r_lp_tautomer_probability>
1

> <r_epik_Ionization_Penalty>
0.000158108

> <r_epik_Ionization_Penalty_Charging>
0.000158108

> <r_epik_Ionization_Penalty_Neutral>
1.14678e-10

> <r_epik_State_Penalty>
-0

> <r_epik_Charging_Adjusted_Penalty>
0.000158108

> <i_epik_Tot_Q>
1

> <i_epik_Tot_abs_Q>
1

> <r_epik_Metal_State_Penalty>
-0

> <b_epik_Metal_Only>
0

> <s_lp_Force_Field>
OPLS_2005

> <r_lp_Energy>
25.2548

> <b_lp_Chiralities_Consistent>
1

> <s_lp_Variant>
AV-unprocessed.smi:3291-1

> <Gold.Version>
5.8.1

> <Gold.Id.Protein>
6NUR|6NUR_protein|mol2

> <Gold.PLP.Fitness>
46.6951

> <Gold.PLP.PLP>
-45.5398

> <Gold.PLP.part.hbond>
-1.0000

> <Gold.PLP.part.metal>
0.0000

> <Gold.PLP.part.buried>
-5.8151

> <Gold.PLP.part.nonpolar>
-37.7843

> <Gold.PLP.part.repulsive>
0.3163

> <Gold.PLP.ligand.clash>
0.0000

> <Gold.PLP.ligand.torsion>
2.0388

> <Gold.PLP.Chemscore.Hbond>
1.0000

> <Gold.PLP.Chemscore.CHOScore>
0.0000

> <Gold.PLP.Chemscore.Metal>
0.0000

> <Gold.Chemscore.Hbonds>
donor molecule, donor type, donor heavy atom, donor atom, acceptor molecule, acceptor atom, score
      P1  H  7989  7998       L1     4  0.22

> <Gold.PLP.Chemscore.Internal.Correction>
2.2329

> <Gold.Rescore>
     Score         DG    S(hbond)    S(metal)    S(lipo)     H(rot)  DE(clash)    DE(int)     intcor
     14.05     -17.56       0.00        0.00     136.11       1.50       0.48       3.03       ----

> <Gold.Chemscore.Fitness>
14.0480

> <Gold.Chemscore.DG>
-17.5621

> <Gold.Chemscore.ZeroCoef>
-5.4800

> <Gold.Chemscore.Hbond>
0.0005

> <Gold.Chemscore.Metal>
0.0000

> <Gold.Chemscore.Lipo>
136.1053

> <Gold.Chemscore.Internal_Hbond>
0.0000

> <Gold.Chemscore.DEClash>
0.4846

> <Gold.Chemscore.DEInternal>
3.0295

> <Gold.Chemscore.Rot>
1.5015

> <Gold.Chemscore.Internal.Correction>
   9.000000E+99

> <Gold.Chemscore.Hbonds>
donor molecule, donor type, donor heavy atom, donor atom, acceptor molecule, acceptor atom, score
      P1  H  7989  7998       L1     4  0.01

> <Gold.Chemscore.Hbond.Weighted>
-0.0016

> <Gold.Chemscore.Metal.Weighted>
-0.0000

> <Gold.Chemscore.Lipo.Weighted>
-15.9243

> <Gold.Chemscore.Internal_Hbond.Weighted>
0.0000

> <Gold.Chemscore.DEClash.Weighted>
0.4846

> <Gold.Chemscore.DEInternal.Weighted>
3.0295

> <Gold.Chemscore.Rot.Weighted>
3.8438

> <Gold.Chemscore.Internal.Correction.Weighted>
   9.000000E+99

> <Gold.Protein.RotatedTorsions>
[ 6907 6896 6895 6894 ] final -148.03 input  -60.11 | X-H torsion
[ 7974 7965 7964 7962 ] final -128.48 input  175.53 | X-H torsion
[ 8008 7997 7996 7995 ] final   74.26 input   59.86 | X-H torsion
[ 10167 10162 10161 10158 ] final -102.46 input  -65.29 | X-H torsion
[ 10718 10713 10712 10709 ] final   89.52 input   66.30 | X-H torsion
[ 10763 10752 10751 10750 ] final   76.50 input  -60.55 | X-H torsion
[ 11005 11000 10999 10996 ] final   -4.63 input  -57.11 | X-H torsion

> <Gold.Protein.ActiveResidues>
 VAL166  LYS551  ARG553  GLY616  TRP617  ASP618  TYR619  PRO620  LYS621  CYS622 
 ASP623  PHE694  ASN695  SER759  ASP760  ASP761  ALA762  ILE779  LEU786  VAL792 
 PHE793  MET794  SER795  GLU796  ALA797  LYS798  CYS799  TRP800  GLU811  SER814 

> <Gold.Protein.RotatedAtoms>
  151.1640  133.4826  159.2593 H   0  0  0  0  0  0  0  0  0  0  0  0  # atno 6907 bound_to 6896
  151.1424  135.0186  159.8642 H   0  0  0  0  0  0  0  0  0  0  0  0  # atno 6908 bound_to 6896
  152.5462  134.1532  159.8580 H   0  0  0  0  0  0  0  0  0  0  0  0  # atno 6909 bound_to 6896
  144.9666  140.7502  143.4696 H   0  0  0  0  0  0  0  0  0  0  0  0  # atno 7974 bound_to 7965
  155.7958  140.3478  155.5375 H   0  0  0  0  0  0  0  0  0  0  0  0  # atno 8008 bound_to 7997
  155.8588  140.0968  157.1647 H   0  0  0  0  0  0  0  0  0  0  0  0  # atno 8009 bound_to 7997
  154.4011  140.1362  156.3922 H   0  0  0  0  0  0  0  0  0  0  0  0  # atno 8010 bound_to 7997
  140.2304  143.3611  152.0891 H   0  0  0  0  0  0  0  0  0  0  0  0  # atno 10167 bound_to 10162
  157.6955  131.0336  150.3439 H   0  0  0  0  0  0  0  0  0  0  0  0  # atno 10718 bound_to 10713
  153.0730  135.4949  154.8345 H   0  0  0  0  0  0  0  0  0  0  0  0  # atno 10763 bound_to 10752
  154.7049  135.3008  154.9288 H   0  0  0  0  0  0  0  0  0  0  0  0  # atno 10764 bound_to 10752
  154.0000  135.6767  153.4811 H   0  0  0  0  0  0  0  0  0  0  0  0  # atno 10765 bound_to 10752
  140.6824  133.9142  155.8564 H   0  0  0  0  0  0  0  0  0  0  0  0  # atno 11005 bound_to 11000
  145.2620  139.1988  143.4887 LP  0  0  0  0  0  0  0  0  0  0  0  0  # atno 17320 bound_to 7965
  146.3369  140.2552  142.8600 LP  0  0  0  0  0  0  0  0  0  0  0  0  # atno 17321 bound_to 7965
  139.5112  144.6897  151.5794 LP  0  0  0  0  0  0  0  0  0  0  0  0  # atno 17342 bound_to 10162
  140.6189  143.9296  150.6510 LP  0  0  0  0  0  0  0  0  0  0  0  0  # atno 17343 bound_to 10162
  156.3896  130.3895  149.7040 LP  0  0  0  0  0  0  0  0  0  0  0  0  # atno 17370 bound_to 10713
  156.4394  130.7854  151.2875 LP  0  0  0  0  0  0  0  0  0  0  0  0  # atno 17371 bound_to 10713
  141.0307  134.0760  157.4017 LP  0  0  0  0  0  0  0  0  0  0  0  0  # atno 17394 bound_to 11000
  139.8948  135.0137  156.6967 LP  0  0  0  0  0  0  0  0  0  0  0  0  # atno 17395 bound_to 11000

$$$$
