AV-unprocessed.smi:2053|AV-procd|sdf|8331|dock4
  -GOLD-   2272010593D 1   1.00000     0.00000
 Structure written by MMmdl.
 44 45  0  0  0  0  0  0  0  0  1 V2000
  152.1552  144.9902  159.0490 C   0  0  0  0  0  0  0  0  0  0  0  0
  151.9961  143.6098  158.7727 O   0  0  0  0  0  0  0  0  0  0  0  0
  151.5562  143.3691  157.4464 C   0  0  0  0  0  0  0  0  0  0  0  0
  150.9156  141.9799  157.3721 C   0  0  0  0  0  0  0  0  0  0  0  0
  150.6843  141.6548  156.0047 O   0  0  0  0  0  0  0  0  0  0  0  0
  150.3102  140.3654  155.6871 C   0  0  0  0  0  0  0  0  0  0  0  0
  149.8871  139.5131  156.7260 C   0  0  0  0  0  0  0  0  0  0  0  0
  149.5049  138.1946  156.4132 C   0  0  0  0  0  0  0  0  0  0  0  0
  149.5671  137.7661  155.0658 C   0  0  0  0  0  0  0  0  0  0  0  0
  149.1899  136.4727  154.6145 N   0  0  0  0  0  0  0  0  0  0  0  0
  148.7153  135.4308  155.3221 C   0  0  0  0  0  0  0  0  0  0  0  0
  148.5668  135.4299  156.5441 O   0  0  0  0  0  0  0  0  0  0  0  0
  148.3703  134.1835  154.4916 C   0  0  1  0  0  0  0  0  0  0  0  0
  149.5715  133.5636  153.7553 C   0  0  0  0  0  0  0  0  0  0  0  0
  150.0660  132.4877  154.7117 C   0  0  0  0  0  0  0  0  0  0  0  0
  148.7735  131.9609  155.3317 C   0  0  0  0  0  0  0  0  0  0  0  0
  147.8312  133.0899  155.3176 N   0  0  0  0  0  0  0  0  0  0  0  0
  146.1346  132.7530  155.2420 S   0  0  0  0  0  0  0  0  0  0  0  0
  145.9259  132.0953  153.5378 C   0  0  0  0  0  0  0  0  0  0  0  0
  145.8542  131.6655  156.1919 O   0  0  0  0  0  0  0  0  0  0  0  0
  145.4165  134.0313  155.3590 O   0  0  0  0  0  0  0  0  0  0  0  0
  149.9915  138.7014  154.0994 C   0  0  0  0  0  0  0  0  0  0  0  0
  150.3595  139.9664  154.3923 N   0  0  0  0  0  0  0  0  0  0  0  0
  152.4920  145.1219  160.0773 H   0  0  0  0  0  0  0  0  0  0  0  0
  151.2133  145.5275  158.9322 H   0  0  0  0  0  0  0  0  0  0  0  0
  152.8992  145.4407  158.3907 H   0  0  0  0  0  0  0  0  0  0  0  0
  150.8183  144.1244  157.1721 H   0  0  0  0  0  0  0  0  0  0  0  0
  152.3832  143.4457  156.7387 H   0  0  0  0  0  0  0  0  0  0  0  0
  151.5589  141.2408  157.8529 H   0  0  0  0  0  0  0  0  0  0  0  0
  149.9649  141.9972  157.9074 H   0  0  0  0  0  0  0  0  0  0  0  0
  149.8507  139.8663  157.7459 H   0  0  0  0  0  0  0  0  0  0  0  0
  149.1615  137.5512  157.2077 H   0  0  0  0  0  0  0  0  0  0  0  0
  149.3274  136.3038  153.6279 H   0  0  0  0  0  0  0  0  0  0  0  0
  147.6284  134.4784  153.7475 H   0  0  0  0  0  0  0  0  0  0  0  0
  149.2313  133.1019  152.8272 H   0  0  0  0  0  0  0  0  0  0  0  0
  150.3526  134.2770  153.4892 H   0  0  0  0  0  0  0  0  0  0  0  0
  150.6435  131.7093  154.2124 H   0  0  0  0  0  0  0  0  0  0  0  0
  150.6960  132.9332  155.4828 H   0  0  0  0  0  0  0  0  0  0  0  0
  148.3753  131.1460  154.7261 H   0  0  0  0  0  0  0  0  0  0  0  0
  148.9200  131.5909  156.3467 H   0  0  0  0  0  0  0  0  0  0  0  0
  144.8843  131.8141  153.3837 H   0  0  0  0  0  0  0  0  0  0  0  0
  146.5602  131.2189  153.4064 H   0  0  0  0  0  0  0  0  0  0  0  0
  146.2038  132.8586  152.8118 H   0  0  0  0  0  0  0  0  0  0  0  0
  150.0413  138.4260  153.0561 H   0  0  0  0  0  0  0  0  0  0  0  0
  1  2  1  0  0  0  0
  1 24  1  0  0  0  0
  1 25  1  0  0  0  0
  1 26  1  0  0  0  0
  2  3  1  0  0  0  0
  3  4  1  0  0  0  0
  3 27  1  0  0  0  0
  3 28  1  0  0  0  0
  4  5  1  0  0  0  0
  4 29  1  0  0  0  0
  4 30  1  0  0  0  0
  5  6  1  0  0  0  0
  6 23  1  0  0  0  0
  6  7  2  0  0  0  0
  7  8  1  0  0  0  0
  7 31  1  0  0  0  0
  8  9  2  0  0  0  0
  8 32  1  0  0  0  0
  9 10  1  0  0  0  0
  9 22  1  0  0  0  0
 10 11  1  0  0  0  0
 10 33  1  0  0  0  0
 11 12  2  0  0  0  0
 11 13  1  0  0  0  0
 13 17  1  0  0  0  0
 13 14  1  0  0  0  0
 13 34  1  0  0  0  0
 14 15  1  0  0  0  0
 14 35  1  0  0  0  0
 14 36  1  0  0  0  0
 15 16  1  0  0  0  0
 15 37  1  0  0  0  0
 15 38  1  0  0  0  0
 16 17  1  0  0  0  0
 16 39  1  0  0  0  0
 16 40  1  0  0  0  0
 17 18  1  0  0  0  0
 18 19  1  0  0  0  0
 18 20  2  0  0  0  0
 18 21  2  0  0  0  0
 19 41  1  0  0  0  0
 19 42  1  0  0  0  0
 19 43  1  0  0  0  0
 22 23  2  0  0  0  0
 22 44  1  0  0  0  0
M  END
> <s_m_source_file>
AV-unprocessed.smi

> <i_m_source_file_index>
2053

> <i_lp_mmshare_version>
43012

> <i_f3d_flags>
0

> <s_epik_input>
W0NIM11PW0NIMl1bQ0gyXU9jMVtjSF1bY0hdYyhbY0hdbjEpW05IXUMoPU8pW0NAQEhdMltDSDJdW0NIMl1bQ0gyXU4yUyg9TykoPU8pW0NIM10=

> <s_epik_cmdline>
J2VwaWtfcHl0aG9uJywgJy1waCcsICc3LjAnLCAnLXRuJywgJzgnLCAnLW1hJywgJzIwMCcsICctbWV0YWxfYmluZGluZycsICctaW1hZScsICc8aW5maWxlLm1hZT4nLCAnLW9tYWUnLCAnPG91dGZpbGUubWFlPic=

> <r_lp_tautomer_probability>
1

> <r_epik_Ionization_Penalty>
1.28704e-05

> <r_epik_Ionization_Penalty_Charging>
0

> <r_epik_Ionization_Penalty_Neutral>
1.28704e-05

> <r_epik_State_Penalty>
-0

> <r_epik_Charging_Adjusted_Penalty>
0

> <i_epik_Tot_Q>
0

> <i_epik_Tot_abs_Q>
0

> <r_epik_Metal_State_Penalty>
-0

> <b_epik_Metal_Only>
0

> <s_lp_Force_Field>
OPLS_2005

> <r_lp_Energy>
12.3258

> <b_lp_Chiralities_Consistent>
1

> <s_lp_Variant>
AV-unprocessed.smi:2053-2

> <Gold.Version>
5.8.1

> <Gold.Id.Protein>
6NUR|6NUR_protein|mol2

> <Gold.PLP.Fitness>
39.5631

> <Gold.PLP.PLP>
-29.6048

> <Gold.PLP.part.hbond>
-2.0000

> <Gold.PLP.part.metal>
0.0000

> <Gold.PLP.part.buried>
-5.5289

> <Gold.PLP.part.nonpolar>
-22.1664

> <Gold.PLP.part.repulsive>
0.4635

> <Gold.PLP.ligand.clash>
0.0123

> <Gold.PLP.ligand.torsion>
0.5876

> <Gold.PLP.Chemscore.Hbond>
2.0000

> <Gold.PLP.Chemscore.CHOScore>
1.5227

> <Gold.PLP.Chemscore.Metal>
0.0000

> <Gold.Chemscore.Hbonds>
donor molecule, donor type, donor heavy atom, donor atom, acceptor molecule, acceptor atom, score
      L1  H    10    33       P1  7948  1.00
      P1  H  7989  7998       L1    23  1.00
      L1  C    22    44       P1  7948  0.62
      L1  C    22    44       P1  7957  0.89

> <Gold.PLP.Chemscore.Internal.Correction>
0.5777

> <Gold.Rescore>
     Score         DG    S(hbond)    S(metal)    S(lipo)     H(rot)  DE(clash)    DE(int)     intcor
     12.42     -14.25       1.81        0.00      72.83       2.26       0.05       1.78       ----

> <Gold.Chemscore.Fitness>
12.4224

> <Gold.Chemscore.DG>
-14.2537

> <Gold.Chemscore.ZeroCoef>
-5.4800

> <Gold.Chemscore.Hbond>
1.8060

> <Gold.Chemscore.Metal>
0.0000

> <Gold.Chemscore.Lipo>
72.8307

> <Gold.Chemscore.Internal_Hbond>
0.0000

> <Gold.Chemscore.DEClash>
0.0465

> <Gold.Chemscore.DEInternal>
1.7848

> <Gold.Chemscore.Rot>
2.2576

> <Gold.Chemscore.Internal.Correction>
   9.000000E+99

> <Gold.Chemscore.Hbonds>
donor molecule, donor type, donor heavy atom, donor atom, acceptor molecule, acceptor atom, score
      L1  H    10    33       P1  7948  0.85
      P1  H  7989  7998       L1    23  0.78

> <Gold.Chemscore.Hbond.Weighted>
-6.0321

> <Gold.Chemscore.Metal.Weighted>
-0.0000

> <Gold.Chemscore.Lipo.Weighted>
-8.5212

> <Gold.Chemscore.Internal_Hbond.Weighted>
0.0000

> <Gold.Chemscore.DEClash.Weighted>
0.0465

> <Gold.Chemscore.DEInternal.Weighted>
1.7848

> <Gold.Chemscore.Rot.Weighted>
5.7796

> <Gold.Chemscore.Internal.Correction.Weighted>
   9.000000E+99

> <Gold.Protein.RotatedTorsions>
[ 6907 6896 6895 6894 ] final  107.03 input  -60.11 | X-H torsion
[ 7974 7965 7964 7962 ] final   25.46 input  175.53 | X-H torsion
[ 8008 7997 7996 7995 ] final   33.43 input   59.86 | X-H torsion
[ 10167 10162 10161 10158 ] final  -64.21 input  -65.29 | X-H torsion
[ 10718 10713 10712 10709 ] final   25.73 input   66.30 | X-H torsion
[ 10763 10752 10751 10750 ] final  -46.53 input  -60.55 | X-H torsion
[ 11005 11000 10999 10996 ] final  -60.78 input  -57.11 | X-H torsion

> <Gold.Protein.ActiveResidues>
 VAL166  LYS551  ARG553  GLY616  TRP617  ASP618  TYR619  PRO620  LYS621  CYS622 
 ASP623  PHE694  ASN695  SER759  ASP760  ASP761  ALA762  ILE779  LEU786  VAL792 
 PHE793  MET794  SER795  GLU796  ALA797  LYS798  CYS799  TRP800  GLU811  SER814 

> <Gold.Protein.RotatedAtoms>
  152.5171  133.9294  159.7573 H   0  0  0  0  0  0  0  0  0  0  0  0  # atno 6907 bound_to 6896
  150.9648  133.6398  159.2755 H   0  0  0  0  0  0  0  0  0  0  0  0  # atno 6908 bound_to 6896
  151.3630  135.0913  159.9493 H   0  0  0  0  0  0  0  0  0  0  0  0  # atno 6909 bound_to 6896
  146.1887  139.7462  142.8848 H   0  0  0  0  0  0  0  0  0  0  0  0  # atno 7974 bound_to 7965
  155.1385  140.3264  155.4457 H   0  0  0  0  0  0  0  0  0  0  0  0  # atno 8008 bound_to 7997
  156.2612  140.1998  156.6451 H   0  0  0  0  0  0  0  0  0  0  0  0  # atno 8009 bound_to 7997
  154.6560  140.0553  156.9996 H   0  0  0  0  0  0  0  0  0  0  0  0  # atno 8010 bound_to 7997
  140.5816  143.2328  151.6329 H   0  0  0  0  0  0  0  0  0  0  0  0  # atno 10167 bound_to 10162
  157.1973  130.6874  149.6174 H   0  0  0  0  0  0  0  0  0  0  0  0  # atno 10718 bound_to 10713
  154.0465  135.6637  153.4795 H   0  0  0  0  0  0  0  0  0  0  0  0  # atno 10763 bound_to 10752
  153.0480  135.5102  154.7791 H   0  0  0  0  0  0  0  0  0  0  0  0  # atno 10764 bound_to 10752
  154.6784  135.3041  154.9612 H   0  0  0  0  0  0  0  0  0  0  0  0  # atno 10765 bound_to 10752
  141.1300  133.6625  156.5275 H   0  0  0  0  0  0  0  0  0  0  0  0  # atno 11005 bound_to 11000
  145.3859  141.0365  143.3151 LP  0  0  0  0  0  0  0  0  0  0  0  0  # atno 17320 bound_to 7965
  144.8445  139.5418  143.6885 LP  0  0  0  0  0  0  0  0  0  0  0  0  # atno 17321 bound_to 7965
  139.5173  144.3319  152.0819 LP  0  0  0  0  0  0  0  0  0  0  0  0  # atno 17342 bound_to 10162
  140.2470  144.4210  150.6237 LP  0  0  0  0  0  0  0  0  0  0  0  0  # atno 17343 bound_to 10162
  155.9704  130.4594  150.6036 LP  0  0  0  0  0  0  0  0  0  0  0  0  # atno 17370 bound_to 10713
  157.3801  131.0779  151.1484 LP  0  0  0  0  0  0  0  0  0  0  0  0  # atno 17371 bound_to 10713
  140.4242  134.7160  157.4907 LP  0  0  0  0  0  0  0  0  0  0  0  0  # atno 17394 bound_to 11000
  140.0338  134.6367  155.9070 LP  0  0  0  0  0  0  0  0  0  0  0  0  # atno 17395 bound_to 11000

$$$$
