AV-unprocessed.smi:2077|AV-procd|sdf|8462|dock5
  -GOLD-   2272011163D 1   1.00000     0.00000
 Structure written by MMmdl.
 38 40  0  0  0  0  0  0  0  0  1 V2000
  155.5537  139.9694  161.3220 C   0  0  0  0  0  0  0  0  0  0  0  0
  154.4227  140.7172  160.7409 N   0  0  0  0  0  0  0  0  0  0  0  0
  153.9762  140.3527  159.4977 C   0  0  0  0  0  0  0  0  0  0  0  0
  154.4411  139.4344  158.8208 O   0  0  0  0  0  0  0  0  0  0  0  0
  152.8600  141.1658  159.0081 C   0  0  0  0  0  0  0  0  0  0  0  0
  152.3101  142.1746  159.7252 C   0  0  0  0  0  0  0  0  0  0  0  0
  151.2689  142.7804  159.0306 N   0  0  0  0  0  0  0  0  0  0  0  0
  151.2476  142.0800  157.8952 C   0  0  0  0  0  0  0  0  0  0  0  0
  152.1658  141.0964  157.8021 N   0  0  0  0  0  0  0  0  0  0  0  0
  152.3587  140.1911  156.6804 C   0  0  0  0  0  0  0  0  0  0  0  0
  151.0289  139.7766  156.0210 C   0  0  1  0  0  0  0  0  0  0  0  0
  151.1143  139.9591  154.6205 O   0  0  0  0  0  0  0  0  0  0  0  0
  150.6469  138.3544  156.3986 C   0  0  0  0  0  0  0  0  0  0  0  0
  150.6559  137.3222  155.4341 C   0  0  0  0  0  0  0  0  0  0  0  0
  150.3112  136.0064  155.8001 C   0  0  0  0  0  0  0  0  0  0  0  0
  149.9586  135.7145  157.1318 C   0  0  0  0  0  0  0  0  0  0  0  0
  149.9526  136.7386  158.0980 C   0  0  0  0  0  0  0  0  0  0  0  0
  149.6182  136.4582  159.3797 F   0  0  0  0  0  0  0  0  0  0  0  0
  150.2964  138.0545  157.7325 C   0  0  0  0  0  0  0  0  0  0  0  0
  152.8383  142.4610  161.0086 N   0  0  0  0  0  0  0  0  0  0  0  0
  152.2163  143.5560  161.7589 C   0  0  0  0  0  0  0  0  0  0  0  0
  153.8954  141.7405  161.5112 C   0  0  0  0  0  0  0  0  0  0  0  0
  154.3630  142.0008  162.6231 O   0  0  0  0  0  0  0  0  0  0  0  0
  155.9623  139.1849  160.6840 H   0  0  0  0  0  0  0  0  0  0  0  0
  155.2516  139.4868  162.2528 H   0  0  0  0  0  0  0  0  0  0  0  0
  156.3813  140.6443  161.5469 H   0  0  0  0  0  0  0  0  0  0  0  0
  150.5402  142.2878  157.1055 H   0  0  0  0  0  0  0  0  0  0  0  0
  153.0115  140.6720  155.9502 H   0  0  0  0  0  0  0  0  0  0  0  0
  152.8993  139.3142  157.0371 H   0  0  0  0  0  0  0  0  0  0  0  0
  150.2369  140.4409  156.3691 H   0  0  0  0  0  0  0  0  0  0  0  0
  150.2616  139.7996  154.2454 H   0  0  0  0  0  0  0  0  0  0  0  0
  150.9303  137.5351  154.4111 H   0  0  0  0  0  0  0  0  0  0  0  0
  150.3194  135.2205  155.0594 H   0  0  0  0  0  0  0  0  0  0  0  0
  149.6955  134.7052  157.4125 H   0  0  0  0  0  0  0  0  0  0  0  0
  150.2931  138.8329  158.4819 H   0  0  0  0  0  0  0  0  0  0  0  0
  152.6105  143.6931  162.7661 H   0  0  0  0  0  0  0  0  0  0  0  0
  151.1447  143.3786  161.8560 H   0  0  0  0  0  0  0  0  0  0  0  0
  152.3524  144.4962  161.2235 H   0  0  0  0  0  0  0  0  0  0  0  0
  1  2  1  0  0  0  0
  1 24  1  0  0  0  0
  1 25  1  0  0  0  0
  1 26  1  0  0  0  0
  2 22  1  0  0  0  0
  2  3  1  0  0  0  0
  3  4  2  0  0  0  0
  3  5  1  0  0  0  0
  5  9  1  0  0  0  0
  5  6  2  0  0  0  0
  6  7  1  0  0  0  0
  6 20  1  0  0  0  0
  7  8  2  0  0  0  0
  8  9  1  0  0  0  0
  8 27  1  0  0  0  0
  9 10  1  0  0  0  0
 10 11  1  0  0  0  0
 10 28  1  0  0  0  0
 10 29  1  0  0  0  0
 11 12  1  0  0  0  0
 11 13  1  0  0  0  0
 11 30  1  0  0  0  0
 12 31  1  0  0  0  0
 13 19  1  0  0  0  0
 13 14  2  0  0  0  0
 14 15  1  0  0  0  0
 14 32  1  0  0  0  0
 15 16  2  0  0  0  0
 15 33  1  0  0  0  0
 16 17  1  0  0  0  0
 16 34  1  0  0  0  0
 17 18  1  0  0  0  0
 17 19  2  0  0  0  0
 19 35  1  0  0  0  0
 20 21  1  0  0  0  0
 20 22  1  0  0  0  0
 21 36  1  0  0  0  0
 21 37  1  0  0  0  0
 21 38  1  0  0  0  0
 22 23  2  0  0  0  0
M  END
> <s_m_source_file>
AV-unprocessed.smi

> <i_m_source_file_index>
2077

> <i_lp_mmshare_version>
43012

> <i_f3d_flags>
0

> <s_epik_input>
Tz1jMW4oW0NIM10pYyg9TyluKFtDSDNdKWMoYzEyKW5bY0hdbjJbQ0gyXVtDQEhdKFtPSF0pYzNbY0hdW2NIXVtjSF1jKEYpW2NIXTM=

> <s_epik_cmdline>
J2VwaWtfcHl0aG9uJywgJy1waCcsICc3LjAnLCAnLXRuJywgJzgnLCAnLW1hJywgJzIwMCcsICctbWV0YWxfYmluZGluZycsICctaW1hZScsICc8aW5maWxlLm1hZT4nLCAnLW9tYWUnLCAnPG91dGZpbGUubWFlPic=

> <r_lp_tautomer_probability>
1

> <r_epik_Ionization_Penalty>
1.5338e-06

> <r_epik_Ionization_Penalty_Charging>
3.74189e-09

> <r_epik_Ionization_Penalty_Neutral>
1.53006e-06

> <r_epik_State_Penalty>
-0

> <r_epik_Charging_Adjusted_Penalty>
3.74189e-09

> <i_epik_Tot_Q>
0

> <i_epik_Tot_abs_Q>
0

> <r_epik_Metal_State_Penalty>
-0

> <b_epik_Metal_Only>
0

> <s_lp_Force_Field>
OPLS_2005

> <r_lp_Energy>
35.2463

> <b_lp_Chiralities_Consistent>
1

> <s_lp_Variant>
AV-unprocessed.smi:2077-2

> <Gold.Version>
5.8.1

> <Gold.Id.Protein>
6NUR|6NUR_protein|mol2

> <Gold.PLP.Fitness>
44.8396

> <Gold.PLP.PLP>
-41.1447

> <Gold.PLP.part.hbond>
-3.0000

> <Gold.PLP.part.metal>
0.0000

> <Gold.PLP.part.buried>
-4.8566

> <Gold.PLP.part.nonpolar>
-32.5931

> <Gold.PLP.part.repulsive>
0.0462

> <Gold.PLP.ligand.clash>
0.0000

> <Gold.PLP.ligand.torsion>
1.1639

> <Gold.PLP.Chemscore.Hbond>
2.0000

> <Gold.PLP.Chemscore.CHOScore>
0.0000

> <Gold.PLP.Chemscore.Metal>
0.0000

> <Gold.Chemscore.Hbonds>
donor molecule, donor type, donor heavy atom, donor atom, acceptor molecule, acceptor atom, score
      P1  H  7989  7998       L1    12  0.85
      P1  H  7997  8008       L1     4  1.00

> <Gold.PLP.Chemscore.Internal.Correction>
0.0227

> <Gold.Rescore>
     Score         DG    S(hbond)    S(metal)    S(lipo)     H(rot)  DE(clash)    DE(int)     intcor
     11.61     -12.79       1.94        0.00      55.90       2.24       0.15       1.03       ----

> <Gold.Chemscore.Fitness>
11.6108

> <Gold.Chemscore.DG>
-12.7858

> <Gold.Chemscore.ZeroCoef>
-5.4800

> <Gold.Chemscore.Hbond>
1.9444

> <Gold.Chemscore.Metal>
0.0000

> <Gold.Chemscore.Lipo>
55.8993

> <Gold.Chemscore.Internal_Hbond>
0.0000

> <Gold.Chemscore.DEClash>
0.1484

> <Gold.Chemscore.DEInternal>
1.0267

> <Gold.Chemscore.Rot>
2.2377

> <Gold.Chemscore.Internal.Correction>
   9.000000E+99

> <Gold.Chemscore.Hbonds>
donor molecule, donor type, donor heavy atom, donor atom, acceptor molecule, acceptor atom, score
      P1  H  7989  7998       L1    12  0.14
      P1  H  7997  8008       L1     4  0.78

> <Gold.Chemscore.Hbond.Weighted>
-6.4942

> <Gold.Chemscore.Metal.Weighted>
-0.0000

> <Gold.Chemscore.Lipo.Weighted>
-6.5402

> <Gold.Chemscore.Internal_Hbond.Weighted>
0.0000

> <Gold.Chemscore.DEClash.Weighted>
0.1484

> <Gold.Chemscore.DEInternal.Weighted>
1.0267

> <Gold.Chemscore.Rot.Weighted>
5.7286

> <Gold.Chemscore.Internal.Correction.Weighted>
   9.000000E+99

> <Gold.Protein.RotatedTorsions>
[ 6907 6896 6895 6894 ] final   83.11 input  -60.11 | X-H torsion
[ 7974 7965 7964 7962 ] final   43.46 input  175.53 | X-H torsion
[ 8008 7997 7996 7995 ] final -117.03 input   59.86 | X-H torsion
[ 10167 10162 10161 10158 ] final  136.80 input  -65.29 | X-H torsion
[ 10718 10713 10712 10709 ] final   52.53 input   66.30 | X-H torsion
[ 10763 10752 10751 10750 ] final -179.39 input  -60.55 | X-H torsion
[ 11005 11000 10999 10996 ] final  -32.24 input  -57.11 | X-H torsion

> <Gold.Protein.ActiveResidues>
 VAL166  LYS551  ARG553  GLY616  TRP617  ASP618  TYR619  PRO620  LYS621  CYS622 
 ASP623  PHE694  ASN695  SER759  ASP760  ASP761  ALA762  ILE779  LEU786  VAL792 
 PHE793  MET794  SER795  GLU796  ALA797  LYS798  CYS799  TRP800  GLU811  SER814 

> <Gold.Protein.RotatedAtoms>
  152.5318  134.2947  159.9055 H   0  0  0  0  0  0  0  0  0  0  0  0  # atno 6907 bound_to 6896
  151.2898  133.4164  159.2640 H   0  0  0  0  0  0  0  0  0  0  0  0  # atno 6908 bound_to 6896
  151.0210  134.9485  159.8116 H   0  0  0  0  0  0  0  0  0  0  0  0  # atno 6909 bound_to 6896
  146.0653  139.5183  142.9632 H   0  0  0  0  0  0  0  0  0  0  0  0  # atno 7974 bound_to 7965
  155.0773  140.0394  157.2628 H   0  0  0  0  0  0  0  0  0  0  0  0  # atno 8008 bound_to 7997
  154.6935  140.2658  155.6765 H   0  0  0  0  0  0  0  0  0  0  0  0  # atno 8009 bound_to 7997
  156.2736  140.2755  156.1521 H   0  0  0  0  0  0  0  0  0  0  0  0  # atno 8010 bound_to 7997
  139.5167  144.6444  151.5479 H   0  0  0  0  0  0  0  0  0  0  0  0  # atno 10167 bound_to 10162
  157.5083  130.8484  149.8403 H   0  0  0  0  0  0  0  0  0  0  0  0  # atno 10718 bound_to 10713
  154.5357  135.2802  155.1141 H   0  0  0  0  0  0  0  0  0  0  0  0  # atno 10763 bound_to 10752
  154.2643  135.6315  153.5290 H   0  0  0  0  0  0  0  0  0  0  0  0  # atno 10764 bound_to 10752
  152.9967  135.5613  154.5882 H   0  0  0  0  0  0  0  0  0  0  0  0  # atno 10765 bound_to 10752
  140.9535  133.7206  156.1257 H   0  0  0  0  0  0  0  0  0  0  0  0  # atno 11005 bound_to 11000
  145.6488  141.0268  143.1771 LP  0  0  0  0  0  0  0  0  0  0  0  0  # atno 17320 bound_to 7965
  144.7199  139.8067  143.7386 LP  0  0  0  0  0  0  0  0  0  0  0  0  # atno 17321 bound_to 7965
  140.6224  143.9233  150.6537 LP  0  0  0  0  0  0  0  0  0  0  0  0  # atno 17342 bound_to 10162
  140.2511  143.3592  152.1405 LP  0  0  0  0  0  0  0  0  0  0  0  0  # atno 17343 bound_to 10162
  156.0273  130.3775  150.1787 LP  0  0  0  0  0  0  0  0  0  0  0  0  # atno 17370 bound_to 10713
  156.9977  130.9913  151.3399 LP  0  0  0  0  0  0  0  0  0  0  0  0  # atno 17371 bound_to 10713
  140.7569  134.3983  157.5532 LP  0  0  0  0  0  0  0  0  0  0  0  0  # atno 17394 bound_to 11000
  139.8855  134.8936  156.2640 LP  0  0  0  0  0  0  0  0  0  0  0  0  # atno 17395 bound_to 11000

$$$$
