AV-unprocessed.smi:1414|AV-procd|sdf|5762|dock6
  -GOLD-   22720 5403D 1   1.00000     0.00000
 Structure written by MMmdl.
 45 46  0  0  0  0  0  0  0  0  1 V2000
  150.1119  140.7632  156.7675 C   0  0  0  0  0  0  0  0  0  0  0  0
  150.8081  139.4754  156.3137 C   0  0  1  0  0  0  0  0  0  0  0  0
  149.8877  138.2520  156.4390 C   0  0  0  0  0  0  0  0  0  0  0  0
  150.5197  137.0536  155.8692 N   0  0  0  0  0  0  0  0  0  0  0  0
  150.8010  135.6426  156.8418 S   0  0  0  0  0  0  0  0  0  0  0  0
  152.2031  135.2498  156.6337 O   0  0  0  0  0  0  0  0  0  0  0  0
  150.3152  135.9297  158.2007 O   0  0  0  0  0  0  0  0  0  0  0  0
  149.7300  134.3489  156.0683 C   0  0  0  0  0  0  0  0  0  0  0  0
  150.2154  133.9568  154.6618 C   0  0  0  0  0  0  0  0  0  0  0  0
  149.1843  134.1592  153.6495 N   0  0  0  0  0  0  0  0  0  0  0  0
  148.3248  133.2306  153.2080 C   0  0  0  0  0  0  0  0  0  0  0  0
  148.2978  132.0738  153.6250 O   0  0  0  0  0  0  0  0  0  0  0  0
  147.5267  133.7254  152.2470 N   0  0  0  0  0  0  0  0  0  0  0  0
  146.4714  133.0682  151.5598 C   0  0  0  0  0  0  0  0  0  0  0  0
  145.6260  133.8434  150.7397 C   0  0  0  0  0  0  0  0  0  0  0  0
  144.5607  133.2159  150.0664 C   0  0  0  0  0  0  0  0  0  0  0  0
  144.3753  131.8317  150.2494 C   0  0  0  0  0  0  0  0  0  0  0  0
  145.1649  131.0780  151.0432 N   0  0  0  0  0  0  0  0  0  0  0  0
  146.1867  131.6857  151.6838 C   0  0  0  0  0  0  0  0  0  0  0  0
  151.1463  137.2160  154.5453 C   0  0  0  0  0  0  0  0  0  0  0  0
  151.9193  138.5453  154.4048 C   0  0  2  0  0  0  0  0  0  0  0  0
  153.3548  138.4908  154.9488 C   0  0  0  0  0  0  0  0  0  0  0  0
  151.1880  139.6397  154.9527 O   0  0  0  0  0  0  0  0  0  0  0  0
  149.8029  140.6953  157.8108 H   0  0  0  0  0  0  0  0  0  0  0  0
  149.2240  140.9659  156.1679 H   0  0  0  0  0  0  0  0  0  0  0  0
  150.7797  141.6199  156.6741 H   0  0  0  0  0  0  0  0  0  0  0  0
  151.6904  139.3382  156.9383 H   0  0  0  0  0  0  0  0  0  0  0  0
  149.6306  138.0831  157.4845 H   0  0  0  0  0  0  0  0  0  0  0  0
  148.9518  138.4301  155.9084 H   0  0  0  0  0  0  0  0  0  0  0  0
  149.6660  133.4927  156.7388 H   0  0  0  0  0  0  0  0  0  0  0  0
  148.7283  134.7728  155.9965 H   0  0  0  0  0  0  0  0  0  0  0  0
  151.0626  134.5797  154.3757 H   0  0  0  0  0  0  0  0  0  0  0  0
  150.5693  132.9259  154.6454 H   0  0  0  0  0  0  0  0  0  0  0  0
  149.1300  135.0816  153.2425 H   0  0  0  0  0  0  0  0  0  0  0  0
  147.7308  134.6637  151.9355 H   0  0  0  0  0  0  0  0  0  0  0  0
  145.7923  134.9044  150.6222 H   0  0  0  0  0  0  0  0  0  0  0  0
  143.9002  133.7814  149.4258 H   0  0  0  0  0  0  0  0  0  0  0  0
  143.5676  131.3178  149.7496 H   0  0  0  0  0  0  0  0  0  0  0  0
  146.7663  131.0395  152.3247 H   0  0  0  0  0  0  0  0  0  0  0  0
  151.7973  136.3713  154.3206 H   0  0  0  0  0  0  0  0  0  0  0  0
  150.3481  137.1916  153.8031 H   0  0  0  0  0  0  0  0  0  0  0  0
  152.0090  138.7540  153.3383 H   0  0  0  0  0  0  0  0  0  0  0  0
  153.9392  137.7282  154.4338 H   0  0  0  0  0  0  0  0  0  0  0  0
  153.3755  138.2551  156.0088 H   0  0  0  0  0  0  0  0  0  0  0  0
  153.8618  139.4456  154.8092 H   0  0  0  0  0  0  0  0  0  0  0  0
  1  2  1  0  0  0  0
  1 24  1  0  0  0  0
  1 25  1  0  0  0  0
  1 26  1  0  0  0  0
  2 23  1  0  0  0  0
  2  3  1  0  0  0  0
  2 27  1  0  0  0  0
  3  4  1  0  0  0  0
  3 28  1  0  0  0  0
  3 29  1  0  0  0  0
  4  5  1  0  0  0  0
  4 20  1  0  0  0  0
  5  6  2  0  0  0  0
  5  7  2  0  0  0  0
  5  8  1  0  0  0  0
  8  9  1  0  0  0  0
  8 30  1  0  0  0  0
  8 31  1  0  0  0  0
  9 10  1  0  0  0  0
  9 32  1  0  0  0  0
  9 33  1  0  0  0  0
 10 11  1  0  0  0  0
 10 34  1  0  0  0  0
 11 12  2  0  0  0  0
 11 13  1  0  0  0  0
 13 14  1  0  0  0  0
 13 35  1  0  0  0  0
 14 19  1  0  0  0  0
 14 15  2  0  0  0  0
 15 16  1  0  0  0  0
 15 36  1  0  0  0  0
 16 17  2  0  0  0  0
 16 37  1  0  0  0  0
 17 18  1  0  0  0  0
 17 38  1  0  0  0  0
 18 19  2  0  0  0  0
 19 39  1  0  0  0  0
 20 21  1  0  0  0  0
 20 40  1  0  0  0  0
 20 41  1  0  0  0  0
 21 22  1  0  0  0  0
 21 23  1  0  0  0  0
 21 42  1  0  0  0  0
 22 43  1  0  0  0  0
 22 44  1  0  0  0  0
 22 45  1  0  0  0  0
M  END
> <s_m_source_file>
AV-unprocessed.smi

> <i_m_source_file_index>
1414

> <i_lp_mmshare_version>
43012

> <i_f3d_flags>
0

> <s_epik_input>
W0NIM11bQ0BASF0xW0NIMl1OKFtDSDJdW0NASF0oTzEpW0NIM10pUyg9TykoPU8pW0NIMl1bQ0gyXVtOSF1DKD1PKVtOSF1jMltjSF1bY0hdW2NIXW5bY0hdMg==

> <s_epik_cmdline>
J2VwaWtfcHl0aG9uJywgJy1waCcsICc3LjAnLCAnLXRuJywgJzgnLCAnLW1hJywgJzIwMCcsICctbWV0YWxfYmluZGluZycsICctaW1hZScsICc8aW5maWxlLm1hZT4nLCAnLW9tYWUnLCAnPG91dGZpbGUubWFlPic=

> <r_epik_Ionization_Penalty>
0.00437531

> <r_epik_Ionization_Penalty_Charging>
0

> <r_epik_Ionization_Penalty_Neutral>
0.00437531

> <r_epik_State_Penalty>
0.00312896

> <r_epik_Charging_Adjusted_Penalty>
0.00312896

> <i_epik_Tot_Q>
0

> <i_epik_Tot_abs_Q>
0

> <r_epik_Metal_State_Penalty>
-0

> <b_epik_Metal_Only>
0

> <s_lp_Force_Field>
OPLS_2005

> <r_lp_Energy>
7.0755

> <b_lp_Chiralities_Consistent>
1

> <s_lp_Variant>
AV-unprocessed.smi:1414-3

> <Gold.Version>
5.8.1

> <Gold.Id.Protein>
6NUR|6NUR_protein|mol2

> <Gold.PLP.Fitness>
52.3581

> <Gold.PLP.PLP>
-37.3074

> <Gold.PLP.part.hbond>
-5.0000

> <Gold.PLP.part.metal>
0.0000

> <Gold.PLP.part.buried>
-6.1319

> <Gold.PLP.part.nonpolar>
-27.5000

> <Gold.PLP.part.repulsive>
0.3051

> <Gold.PLP.ligand.clash>
0.0000

> <Gold.PLP.ligand.torsion>
1.7163

> <Gold.PLP.Chemscore.Hbond>
4.9199

> <Gold.PLP.Chemscore.CHOScore>
0.5313

> <Gold.PLP.Chemscore.Metal>
0.0000

> <Gold.Chemscore.Hbonds>
donor molecule, donor type, donor heavy atom, donor atom, acceptor molecule, acceptor atom, score
      L1  H    10    34       P1  7948  0.85
      L1  H    13    35       P1  7948  0.99
      P1  H  6896  6908       L1     7  0.83
      P1  H  7989  7998       L1    23  0.70
      P1  H 10752 10763       L1     6  1.00
      L1  C    17    38       P1 10952  0.02

> <Gold.PLP.Chemscore.Internal.Correction>
2.1299

> <Gold.Rescore>
     Score         DG    S(hbond)    S(metal)    S(lipo)     H(rot)  DE(clash)    DE(int)     intcor
     20.10     -23.74       3.58        0.00      88.05       1.57       0.75       2.89       ----

> <Gold.Chemscore.Fitness>
20.0998

> <Gold.Chemscore.DG>
-23.7379

> <Gold.Chemscore.ZeroCoef>
-5.4800

> <Gold.Chemscore.Hbond>
3.5844

> <Gold.Chemscore.Metal>
0.0000

> <Gold.Chemscore.Lipo>
88.0513

> <Gold.Chemscore.Internal_Hbond>
0.0000

> <Gold.Chemscore.DEClash>
0.7477

> <Gold.Chemscore.DEInternal>
2.8904

> <Gold.Chemscore.Rot>
1.5687

> <Gold.Chemscore.Internal.Correction>
   9.000000E+99

> <Gold.Chemscore.Hbonds>
donor molecule, donor type, donor heavy atom, donor atom, acceptor molecule, acceptor atom, score
      L1  H    10    34       P1  7948  0.14
      L1  H    13    35       P1  7948  0.42
      P1  H  6896  6908       L1     7  0.80
      P1  H  7989  7998       L1    23  0.07
      P1  H 10752 10763       L1     6  1.00

> <Gold.Chemscore.Hbond.Weighted>
-11.9718

> <Gold.Chemscore.Metal.Weighted>
-0.0000

> <Gold.Chemscore.Lipo.Weighted>
-10.3020

> <Gold.Chemscore.Internal_Hbond.Weighted>
0.0000

> <Gold.Chemscore.DEClash.Weighted>
0.7477

> <Gold.Chemscore.DEInternal.Weighted>
2.8904

> <Gold.Chemscore.Rot.Weighted>
4.0160

> <Gold.Chemscore.Internal.Correction.Weighted>
   9.000000E+99

> <Gold.Protein.RotatedTorsions>
[ 6907 6896 6895 6894 ] final -170.54 input  -60.11 | X-H torsion
[ 7974 7965 7964 7962 ] final  129.77 input  175.53 | X-H torsion
[ 8008 7997 7996 7995 ] final  -18.25 input   59.86 | X-H torsion
[ 10167 10162 10161 10158 ] final   48.18 input  -65.29 | X-H torsion
[ 10718 10713 10712 10709 ] final   97.00 input   66.30 | X-H torsion
[ 10763 10752 10751 10750 ] final  106.09 input  -60.55 | X-H torsion
[ 11005 11000 10999 10996 ] final   -5.27 input  -57.11 | X-H torsion

> <Gold.Protein.ActiveResidues>
 VAL166  LYS551  ARG553  GLY616  TRP617  ASP618  TYR619  PRO620  LYS621  CYS622 
 ASP623  PHE694  ASN695  SER759  ASP760  ASP761  ALA762  ILE779  LEU786  VAL792 
 PHE793  MET794  SER795  GLU796  ALA797  LYS798  CYS799  TRP800  GLU811  SER814 

> <Gold.Protein.RotatedAtoms>
  151.5094  133.3488  159.2882 H   0  0  0  0  0  0  0  0  0  0  0  0  # atno 6907 bound_to 6896
  150.8722  134.8100  159.7174 H   0  0  0  0  0  0  0  0  0  0  0  0  # atno 6908 bound_to 6896
  152.4706  134.4979  159.9767 H   0  0  0  0  0  0  0  0  0  0  0  0  # atno 6909 bound_to 6896
  145.0250  139.4097  143.5178 H   0  0  0  0  0  0  0  0  0  0  0  0  # atno 7974 bound_to 7965
  154.4920  140.2121  155.9529 H   0  0  0  0  0  0  0  0  0  0  0  0  # atno 8008 bound_to 7997
  156.1318  140.3195  155.8329 H   0  0  0  0  0  0  0  0  0  0  0  0  # atno 8009 bound_to 7997
  155.4283  140.0501  157.3011 H   0  0  0  0  0  0  0  0  0  0  0  0  # atno 8010 bound_to 7997
  140.2959  144.2991  150.6230 H   0  0  0  0  0  0  0  0  0  0  0  0  # atno 10167 bound_to 10162
  157.6919  131.0596  150.4577 H   0  0  0  0  0  0  0  0  0  0  0  0  # atno 10718 bound_to 10713
  153.3882  135.3888  155.1905 H   0  0  0  0  0  0  0  0  0  0  0  0  # atno 10763 bound_to 10752
  154.8716  135.3742  154.4770 H   0  0  0  0  0  0  0  0  0  0  0  0  # atno 10764 bound_to 10752
  153.5254  135.7086  153.5771 H   0  0  0  0  0  0  0  0  0  0  0  0  # atno 10765 bound_to 10752
  140.6894  133.9085  155.8608 H   0  0  0  0  0  0  0  0  0  0  0  0  # atno 11005 bound_to 11000
  146.3491  139.9769  142.8700 LP  0  0  0  0  0  0  0  0  0  0  0  0  # atno 17320 bound_to 7965
  145.1845  140.9783  143.4247 LP  0  0  0  0  0  0  0  0  0  0  0  0  # atno 17321 bound_to 7965
  140.5692  143.2182  151.7628 LP  0  0  0  0  0  0  0  0  0  0  0  0  # atno 17342 bound_to 10162
  139.4926  144.4240  151.9946 LP  0  0  0  0  0  0  0  0  0  0  0  0  # atno 17343 bound_to 10162
  156.4924  130.4098  149.6399 LP  0  0  0  0  0  0  0  0  0  0  0  0  # atno 17370 bound_to 10713
  156.3405  130.7379  151.2324 LP  0  0  0  0  0  0  0  0  0  0  0  0  # atno 17371 bound_to 10713
  141.0254  134.0831  157.4074 LP  0  0  0  0  0  0  0  0  0  0  0  0  # atno 17394 bound_to 11000
  139.8928  135.0127  156.6865 LP  0  0  0  0  0  0  0  0  0  0  0  0  # atno 17395 bound_to 11000

$$$$
