AV-unprocessed.smi:2424|AV-procd|sdf|9559|dock1
  -GOLD-   2272013193D 1   1.00000     0.00000
 Structure written by MMmdl.
 50 51  0  0  0  0  0  0  0  0  1 V2000
  147.3165  140.9891  153.3522 C   0  0  0  0  0  0  0  0  0  0  0  0
  146.9962  139.4976  153.5415 C   0  0  0  0  0  0  0  0  0  0  0  0
  147.3091  138.9311  154.9517 C   0  0  0  0  0  0  0  0  0  0  0  0
  146.6121  139.8252  156.0070 C   0  0  0  0  0  0  0  0  0  0  0  0
  147.0614  139.6007  157.4607 C   0  0  0  0  0  0  0  0  0  0  0  0
  147.0998  137.4056  155.1843 C   0  0  1  0  0  0  0  0  0  0  0  0
  147.1863  136.6078  153.9597 N   0  0  0  0  0  0  0  0  0  0  0  0
  146.1898  135.8897  153.4269 C   0  0  0  0  0  0  0  0  0  0  0  0
  145.0709  135.8036  153.9314 O   0  0  0  0  0  0  0  0  0  0  0  0
  146.5838  135.3108  152.2787 N   0  0  0  0  0  0  0  0  0  0  0  0
  145.8714  134.4368  151.4476 C   0  0  0  0  0  0  0  0  0  0  0  0
  144.5400  134.5971  151.3570 C   0  0  0  0  0  0  0  0  0  0  0  0
  143.7566  133.7706  150.5482 N   0  0  0  0  0  0  0  0  0  0  0  0
  144.2462  132.7618  149.7924 C   0  0  0  0  0  0  0  0  0  0  0  0
  143.4909  132.0695  149.1123 O   0  0  0  0  0  0  0  0  0  0  0  0
  145.7055  132.5776  149.8507 C   0  0  0  0  0  0  0  0  0  0  0  0
  146.3206  131.4829  148.9973 C   0  0  0  0  0  0  0  0  0  0  0  0
  146.4624  133.3763  150.6386 C   0  0  0  0  0  0  0  0  0  0  0  0
  148.4132  137.3658  155.9843 C   0  0  1  0  0  0  0  0  0  0  0  0
  149.3194  136.1361  155.9595 C   0  0  0  0  0  0  0  0  0  0  0  0
  148.8085  138.6672  155.2615 C   0  0  1  0  0  0  0  0  0  0  0  0
  149.5638  138.4268  154.0787 O   0  0  0  0  0  0  0  0  0  0  0  0
  150.9258  138.1332  154.3376 C   0  0  0  0  0  0  0  0  0  0  0  0
  142.7618  133.9430  150.5429 H   0  0  0  0  0  0  0  0  0  0  0  0
  147.1924  141.2751  152.3077 H   0  0  0  0  0  0  0  0  0  0  0  0
  148.3449  141.2150  153.6343 H   0  0  0  0  0  0  0  0  0  0  0  0
  146.6553  141.6265  153.9383 H   0  0  0  0  0  0  0  0  0  0  0  0
  145.9577  139.3114  153.2699 H   0  0  0  0  0  0  0  0  0  0  0  0
  147.5695  138.9648  152.7832 H   0  0  0  0  0  0  0  0  0  0  0  0
  146.7931  140.8751  155.7769 H   0  0  0  0  0  0  0  0  0  0  0  0
  145.5290  139.7244  155.9463 H   0  0  0  0  0  0  0  0  0  0  0  0
  146.6185  140.3511  158.1155 H   0  0  0  0  0  0  0  0  0  0  0  0
  148.1437  139.6743  157.5647 H   0  0  0  0  0  0  0  0  0  0  0  0
  146.7504  138.6268  157.8371 H   0  0  0  0  0  0  0  0  0  0  0  0
  146.2363  137.1716  155.8084 H   0  0  0  0  0  0  0  0  0  0  0  0
  148.0722  136.6244  153.4756 H   0  0  0  0  0  0  0  0  0  0  0  0
  147.5168  135.5318  151.9628 H   0  0  0  0  0  0  0  0  0  0  0  0
  143.9773  135.3483  151.8926 H   0  0  0  0  0  0  0  0  0  0  0  0
  147.4041  131.4466  149.1141 H   0  0  0  0  0  0  0  0  0  0  0  0
  146.1011  131.6526  147.9426 H   0  0  0  0  0  0  0  0  0  0  0  0
  145.9185  130.5094  149.2793 H   0  0  0  0  0  0  0  0  0  0  0  0
  147.5290  133.2189  150.6336 H   0  0  0  0  0  0  0  0  0  0  0  0
  148.1799  137.6105  157.0217 H   0  0  0  0  0  0  0  0  0  0  0  0
  149.6513  135.8911  154.9505 H   0  0  0  0  0  0  0  0  0  0  0  0
  148.8025  135.2615  156.3548 H   0  0  0  0  0  0  0  0  0  0  0  0
  150.2100  136.2925  156.5680 H   0  0  0  0  0  0  0  0  0  0  0  0
  149.2482  139.4276  155.9099 H   0  0  0  0  0  0  0  0  0  0  0  0
  151.4364  137.9163  153.3998 H   0  0  0  0  0  0  0  0  0  0  0  0
  151.0347  137.2665  154.9897 H   0  0  0  0  0  0  0  0  0  0  0  0
  151.4254  138.9834  154.8032 H   0  0  0  0  0  0  0  0  0  0  0  0
  1  2  1  0  0  0  0
  1 25  1  0  0  0  0
  1 26  1  0  0  0  0
  1 27  1  0  0  0  0
  2  3  1  0  0  0  0
  2 28  1  0  0  0  0
  2 29  1  0  0  0  0
  3 21  1  0  0  0  0
  3  4  1  0  0  0  0
  3  6  1  0  0  0  0
  4  5  1  0  0  0  0
  4 30  1  0  0  0  0
  4 31  1  0  0  0  0
  5 32  1  0  0  0  0
  5 33  1  0  0  0  0
  5 34  1  0  0  0  0
  6  7  1  0  0  0  0
  6 19  1  0  0  0  0
  6 35  1  0  0  0  0
  7  8  1  0  0  0  0
  7 36  1  0  0  0  0
  8  9  2  0  0  0  0
  8 10  1  0  0  0  0
 10 11  1  0  0  0  0
 10 37  1  0  0  0  0
 11 18  1  0  0  0  0
 11 12  2  0  0  0  0
 12 13  1  0  0  0  0
 12 38  1  0  0  0  0
 13 24  1  0  0  0  0
 13 14  1  0  0  0  0
 14 15  2  0  0  0  0
 14 16  1  0  0  0  0
 16 17  1  0  0  0  0
 16 18  2  0  0  0  0
 17 39  1  0  0  0  0
 17 40  1  0  0  0  0
 17 41  1  0  0  0  0
 18 42  1  0  0  0  0
 19 20  1  0  0  0  0
 19 21  1  0  0  0  0
 19 43  1  0  0  0  0
 20 44  1  0  0  0  0
 20 45  1  0  0  0  0
 20 46  1  0  0  0  0
 21 22  1  0  0  0  0
 21 47  1  0  0  0  0
 22 23  1  0  0  0  0
 23 48  1  0  0  0  0
 23 49  1  0  0  0  0
 23 50  1  0  0  0  0
M  END
> <s_m_source_file>
AV-unprocessed.smi

> <i_m_source_file_index>
2424

> <i_lp_mmshare_version>
43012

> <i_f3d_flags>
0

> <s_epik_input>
W0NIM11PW0NAQEhdMVtDQEhdKFtDSDNdKVtDQEBIXShDMShbQ0gyXVtDSDNdKVtDSDJdW0NIM10pW05IXUMoPU8pW05IXWMyW2NIXVtuSF1jKD1PKWMoW0NIM10pW2NIXTI=

> <s_epik_cmdline>
J2VwaWtfcHl0aG9uJywgJy1waCcsICc3LjAnLCAnLXRuJywgJzgnLCAnLW1hJywgJzIwMCcsICctbWV0YWxfYmluZGluZycsICctaW1hZScsICc8aW5maWxlLm1hZT4nLCAnLW9tYWUnLCAnPG91dGZpbGUubWFlPic=

> <r_lp_tautomer_probability>
1

> <r_epik_Ionization_Penalty>
4.7326e-05

> <r_epik_Ionization_Penalty_Charging>
2.70169e-05

> <r_epik_Ionization_Penalty_Neutral>
2.0309e-05

> <r_epik_State_Penalty>
-0

> <r_epik_Charging_Adjusted_Penalty>
2.70169e-05

> <i_epik_Tot_Q>
0

> <i_epik_Tot_abs_Q>
0

> <r_epik_Metal_State_Penalty>
0.0198736

> <b_epik_Metal_Only>
0

> <s_lp_Force_Field>
OPLS_2005

> <r_lp_Energy>
37.8943

> <b_lp_Chiralities_Consistent>
1

> <s_lp_Variant>
AV-unprocessed.smi:2424-1

> <Gold.Version>
5.8.1

> <Gold.Id.Protein>
6NUR|6NUR_protein|mol2

> <Gold.PLP.Fitness>
41.7962

> <Gold.PLP.PLP>
-31.0306

> <Gold.PLP.part.hbond>
-4.0000

> <Gold.PLP.part.metal>
0.0000

> <Gold.PLP.part.buried>
-4.4027

> <Gold.PLP.part.nonpolar>
-23.4508

> <Gold.PLP.part.repulsive>
0.5824

> <Gold.PLP.ligand.clash>
0.0000

> <Gold.PLP.ligand.torsion>
0.7145

> <Gold.PLP.Chemscore.Hbond>
3.8400

> <Gold.PLP.Chemscore.CHOScore>
0.0000

> <Gold.PLP.Chemscore.Metal>
0.0000

> <Gold.Chemscore.Hbonds>
donor molecule, donor type, donor heavy atom, donor atom, acceptor molecule, acceptor atom, score
      L1  H     7    36       P1  7948  0.91
      L1  H    10    37       P1  7948  1.00
      L1  H    13    24       P1 10186  0.91
      P1  H 10785 10796       L1    15  0.93

> <Gold.PLP.Chemscore.Internal.Correction>
0.6746

> <Gold.Rescore>
     Score         DG    S(hbond)    S(metal)    S(lipo)     H(rot)  DE(clash)    DE(int)     intcor
     19.15     -23.10       3.79        0.00      76.20       1.55       0.83       3.11       ----

> <Gold.Chemscore.Fitness>
19.1540

> <Gold.Chemscore.DG>
-23.0967

> <Gold.Chemscore.ZeroCoef>
-5.4800

> <Gold.Chemscore.Hbond>
3.7932

> <Gold.Chemscore.Metal>
0.0000

> <Gold.Chemscore.Lipo>
76.2046

> <Gold.Chemscore.Internal_Hbond>
0.0000

> <Gold.Chemscore.DEClash>
0.8283

> <Gold.Chemscore.DEInternal>
3.1145

> <Gold.Chemscore.Rot>
1.5502

> <Gold.Chemscore.Internal.Correction>
   9.000000E+99

> <Gold.Chemscore.Hbonds>
donor molecule, donor type, donor heavy atom, donor atom, acceptor molecule, acceptor atom, score
      L1  H     7    36       P1  7948  0.88
      L1  H    10    37       P1  7948  0.97
      L1  H    13    24       P1 10186  0.76
      P1  H 10785 10796       L1    15  0.89

> <Gold.Chemscore.Hbond.Weighted>
-12.6693

> <Gold.Chemscore.Metal.Weighted>
-0.0000

> <Gold.Chemscore.Lipo.Weighted>
-8.9159

> <Gold.Chemscore.Internal_Hbond.Weighted>
0.0000

> <Gold.Chemscore.DEClash.Weighted>
0.8283

> <Gold.Chemscore.DEInternal.Weighted>
3.1145

> <Gold.Chemscore.Rot.Weighted>
3.9685

> <Gold.Chemscore.Internal.Correction.Weighted>
   9.000000E+99

> <Gold.Protein.RotatedTorsions>
[ 6907 6896 6895 6894 ] final  171.15 input  -60.11 | X-H torsion
[ 7974 7965 7964 7962 ] final -160.58 input  175.53 | X-H torsion
[ 8008 7997 7996 7995 ] final -150.64 input   59.86 | X-H torsion
[ 10167 10162 10161 10158 ] final -165.00 input  -65.29 | X-H torsion
[ 10718 10713 10712 10709 ] final   43.37 input   66.30 | X-H torsion
[ 10763 10752 10751 10750 ] final   49.63 input  -60.55 | X-H torsion
[ 11005 11000 10999 10996 ] final  -10.06 input  -57.11 | X-H torsion

> <Gold.Protein.ActiveResidues>
 VAL166  LYS551  ARG553  GLY616  TRP617  ASP618  TYR619  PRO620  LYS621  CYS622 
 ASP623  PHE694  ASN695  SER759  ASP760  ASP761  ALA762  ILE779  LEU786  VAL792 
 PHE793  MET794  SER795  GLU796  ALA797  LYS798  CYS799  TRP800  GLU811  SER814 

> <Gold.Protein.RotatedAtoms>
  151.8048  133.3374  159.3537 H   0  0  0  0  0  0  0  0  0  0  0  0  # atno 6907 bound_to 6896
  150.7346  134.5719  159.5904 H   0  0  0  0  0  0  0  0  0  0  0  0  # atno 6908 bound_to 6896
  152.3117  134.7490  160.0386 H   0  0  0  0  0  0  0  0  0  0  0  0  # atno 6909 bound_to 6896
  144.7422  140.3522  143.6113 H   0  0  0  0  0  0  0  0  0  0  0  0  # atno 7974 bound_to 7965
  155.6267  140.0687  157.2661 H   0  0  0  0  0  0  0  0  0  0  0  0  # atno 8008 bound_to 7997
  154.4216  140.1775  156.1478 H   0  0  0  0  0  0  0  0  0  0  0  0  # atno 8009 bound_to 7997
  155.9966  140.3340  155.6808 H   0  0  0  0  0  0  0  0  0  0  0  0  # atno 8010 bound_to 7997
  139.6212  144.0621  152.1934 H   0  0  0  0  0  0  0  0  0  0  0  0  # atno 10167 bound_to 10162
  157.4151  130.7937  149.7465 H   0  0  0  0  0  0  0  0  0  0  0  0  # atno 10718 bound_to 10713
  152.9786  135.5905  154.4121 H   0  0  0  0  0  0  0  0  0  0  0  0  # atno 10763 bound_to 10752
  154.3755  135.2767  155.2244 H   0  0  0  0  0  0  0  0  0  0  0  0  # atno 10764 bound_to 10752
  154.4180  135.6066  153.6047 H   0  0  0  0  0  0  0  0  0  0  0  0  # atno 10765 bound_to 10752
  140.7407  133.8673  155.8965 H   0  0  0  0  0  0  0  0  0  0  0  0  # atno 11005 bound_to 11000
  145.7264  139.1724  143.2455 LP  0  0  0  0  0  0  0  0  0  0  0  0  # atno 17320 bound_to 7965
  146.1238  140.7274  142.9444 LP  0  0  0  0  0  0  0  0  0  0  0  0  # atno 17321 bound_to 7965
  140.0263  144.6114  150.7524 LP  0  0  0  0  0  0  0  0  0  0  0  0  # atno 17342 bound_to 10162
  140.7383  143.2776  151.3694 LP  0  0  0  0  0  0  0  0  0  0  0  0  # atno 17343 bound_to 10162
  155.9863  130.3976  150.3221 LP  0  0  0  0  0  0  0  0  0  0  0  0  # atno 17370 bound_to 10713
  157.1363  131.0285  151.2947 LP  0  0  0  0  0  0  0  0  0  0  0  0  # atno 17371 bound_to 10713
  140.9839  134.1369  157.4469 LP  0  0  0  0  0  0  0  0  0  0  0  0  # atno 17394 bound_to 11000
  139.8807  135.0019  156.6096 LP  0  0  0  0  0  0  0  0  0  0  0  0  # atno 17395 bound_to 11000

$$$$
