AV-unprocessed.smi:1964|AV-procd|sdf|7929|dock9
  -GOLD-   2272010103D 1   1.00000     0.00000
 Structure written by MMmdl.
 46 48  0  0  0  0  0  0  0  0  1 V2000
  155.1565  135.6661  160.6214 C   0  0  0  0  0  0  0  0  0  0  0  0
  154.8528  135.7948  162.1244 C   0  0  1  0  0  0  0  0  0  0  0  0
  156.1228  136.1527  162.9264 C   0  0  0  0  0  0  0  0  0  0  0  0
  155.8337  136.2425  164.4338 C   0  0  0  0  0  0  0  0  0  0  0  0
  154.6978  137.2335  164.7316 C   0  0  0  0  0  0  0  0  0  0  0  0
  153.4286  136.8821  163.9345 C   0  0  0  0  0  0  0  0  0  0  0  0
  153.7046  136.7917  162.4193 C   0  0  1  0  0  0  0  0  0  0  0  0
  154.0329  138.1111  161.8903 N   0  0  0  0  0  0  0  0  0  0  0  0
  153.6356  138.6414  160.7228 C   0  0  0  0  0  0  0  0  0  0  0  0
  152.9141  138.0451  159.9249 O   0  0  0  0  0  0  0  0  0  0  0  0
  154.1133  140.0683  160.3952 C   0  0  0  0  0  0  0  0  0  0  0  0
  153.1410  140.8698  159.6133 N   0  0  0  0  0  0  0  0  0  0  0  0
  152.7998  140.4356  158.3064 C   0  0  0  0  0  0  0  0  0  0  0  0
  153.3145  139.4288  157.8172 O   0  0  0  0  0  0  0  0  0  0  0  0
  151.8053  141.2500  157.6122 C   0  0  0  0  0  0  0  0  0  0  0  0
  151.4680  140.8706  156.2801 C   0  0  0  0  0  0  0  0  0  0  0  0
  151.1825  140.5846  155.1957 N   0  0  0  0  0  0  0  0  0  0  0  0
  151.2307  142.3100  158.2167 C   0  0  0  0  0  0  0  0  0  0  0  0
  151.5327  142.6783  159.5095 N   0  0  0  0  0  0  0  0  0  0  0  0
  150.9910  143.8709  160.0968 C   0  0  0  0  0  0  0  0  0  0  0  0
  151.0945  145.1964  159.3665 C   0  0  0  0  0  0  0  0  0  0  0  0
  151.9406  144.9416  160.5888 C   0  0  0  0  0  0  0  0  0  0  0  0
  152.5427  141.9992  160.2244 C   0  0  0  0  0  0  0  0  0  0  0  0
  152.8828  142.3645  161.3522 O   0  0  0  0  0  0  0  0  0  0  0  0
  155.5355  136.5989  160.2031 H   0  0  0  0  0  0  0  0  0  0  0  0
  154.2616  135.3909  160.0630 H   0  0  0  0  0  0  0  0  0  0  0  0
  155.9070  134.8968  160.4395 H   0  0  0  0  0  0  0  0  0  0  0  0
  154.5209  134.8122  162.4637 H   0  0  0  0  0  0  0  0  0  0  0  0
  156.8959  135.4040  162.7506 H   0  0  0  0  0  0  0  0  0  0  0  0
  156.5331  137.1012  162.5760 H   0  0  0  0  0  0  0  0  0  0  0  0
  155.5635  135.2558  164.8119 H   0  0  0  0  0  0  0  0  0  0  0  0
  156.7364  136.5410  164.9676 H   0  0  0  0  0  0  0  0  0  0  0  0
  154.4761  137.2335  165.7991 H   0  0  0  0  0  0  0  0  0  0  0  0
  155.0215  138.2462  164.4866 H   0  0  0  0  0  0  0  0  0  0  0  0
  153.0391  135.9256  164.2854 H   0  0  0  0  0  0  0  0  0  0  0  0
  152.6480  137.6174  164.1338 H   0  0  0  0  0  0  0  0  0  0  0  0
  152.8023  136.4275  161.9247 H   0  0  0  0  0  0  0  0  0  0  0  0
  154.6257  138.6830  162.4739 H   0  0  0  0  0  0  0  0  0  0  0  0
  154.3610  140.5660  161.3337 H   0  0  0  0  0  0  0  0  0  0  0  0
  155.0709  139.9974  159.8773 H   0  0  0  0  0  0  0  0  0  0  0  0
  150.4963  142.8873  157.6733 H   0  0  0  0  0  0  0  0  0  0  0  0
  150.0908  143.7273  160.6917 H   0  0  0  0  0  0  0  0  0  0  0  0
  151.6074  145.2193  158.4068 H   0  0  0  0  0  0  0  0  0  0  0  0
  150.2615  145.8891  159.4655 H   0  0  0  0  0  0  0  0  0  0  0  0
  151.6733  145.4672  161.5033 H   0  0  0  0  0  0  0  0  0  0  0  0
  153.0075  144.7938  160.4320 H   0  0  0  0  0  0  0  0  0  0  0  0
  1  2  1  0  0  0  0
  1 25  1  0  0  0  0
  1 26  1  0  0  0  0
  1 27  1  0  0  0  0
  2  7  1  0  0  0  0
  2  3  1  0  0  0  0
  2 28  1  0  0  0  0
  3  4  1  0  0  0  0
  3 29  1  0  0  0  0
  3 30  1  0  0  0  0
  4  5  1  0  0  0  0
  4 31  1  0  0  0  0
  4 32  1  0  0  0  0
  5  6  1  0  0  0  0
  5 33  1  0  0  0  0
  5 34  1  0  0  0  0
  6  7  1  0  0  0  0
  6 35  1  0  0  0  0
  6 36  1  0  0  0  0
  7  8  1  0  0  0  0
  7 37  1  0  0  0  0
  8  9  1  0  0  0  0
  8 38  1  0  0  0  0
  9 10  2  0  0  0  0
  9 11  1  0  0  0  0
 11 12  1  0  0  0  0
 11 39  1  0  0  0  0
 11 40  1  0  0  0  0
 12 23  1  0  0  0  0
 12 13  1  0  0  0  0
 13 14  2  0  0  0  0
 13 15  1  0  0  0  0
 15 16  1  0  0  0  0
 15 18  2  0  0  0  0
 16 17  3  0  0  0  0
 18 19  1  0  0  0  0
 18 41  1  0  0  0  0
 19 20  1  0  0  0  0
 19 23  1  0  0  0  0
 20 22  1  0  0  0  0
 20 21  1  0  0  0  0
 20 42  1  0  0  0  0
 21 22  1  0  0  0  0
 21 43  1  0  0  0  0
 21 44  1  0  0  0  0
 22 45  1  0  0  0  0
 22 46  1  0  0  0  0
 23 24  2  0  0  0  0
M  END
> <s_m_source_file>
AV-unprocessed.smi

> <i_m_source_file_index>
1964

> <i_lp_mmshare_version>
43012

> <i_f3d_flags>
0

> <s_epik_input>
W0NIM11bQ0BASF0xW0NIMl1bQ0gyXVtDSDJdW0NIMl1bQ0BIXTFbTkhdQyg9TylbQ0gyXW4yYyg9TyljKEMjTilbY0hdbihjMj1PKVtDSF0zW0NIMl1bQ0gyXTM=

> <s_epik_cmdline>
J2VwaWtfcHl0aG9uJywgJy1waCcsICc3LjAnLCAnLXRuJywgJzgnLCAnLW1hJywgJzIwMCcsICctbWV0YWxfYmluZGluZycsICctaW1hZScsICc8aW5maWxlLm1hZT4nLCAnLW9tYWUnLCAnPG91dGZpbGUubWFlPic=

> <r_lp_tautomer_probability>
1

> <r_epik_Ionization_Penalty>
1.91372e-08

> <r_epik_Ionization_Penalty_Charging>
9.0283e-11

> <r_epik_Ionization_Penalty_Neutral>
1.90469e-08

> <r_epik_State_Penalty>
-0

> <r_epik_Charging_Adjusted_Penalty>
9.0283e-11

> <i_epik_Tot_Q>
0

> <i_epik_Tot_abs_Q>
0

> <r_epik_Metal_State_Penalty>
-0

> <b_epik_Metal_Only>
0

> <s_lp_Force_Field>
OPLS_2005

> <r_lp_Energy>
33.6562

> <b_lp_Chiralities_Consistent>
1

> <s_lp_Variant>
AV-unprocessed.smi:1964-2

> <Gold.Version>
5.8.1

> <Gold.Id.Protein>
6NUR|6NUR_protein|mol2

> <Gold.PLP.Fitness>
49.6955

> <Gold.PLP.PLP>
-45.2349

> <Gold.PLP.part.hbond>
-2.0000

> <Gold.PLP.part.metal>
0.0000

> <Gold.PLP.part.buried>
-6.8479

> <Gold.PLP.part.nonpolar>
-35.6341

> <Gold.PLP.part.repulsive>
0.0804

> <Gold.PLP.ligand.clash>
0.0000

> <Gold.PLP.ligand.torsion>
0.7763

> <Gold.PLP.Chemscore.Hbond>
1.9420

> <Gold.PLP.Chemscore.CHOScore>
0.0000

> <Gold.PLP.Chemscore.Metal>
0.0000

> <Gold.Chemscore.Hbonds>
donor molecule, donor type, donor heavy atom, donor atom, acceptor molecule, acceptor atom, score
      P1  H  7989  7998       L1    17  0.91
      P1  H  7997  8010       L1    14  0.93

> <Gold.PLP.Chemscore.Internal.Correction>
0.1873

> <Gold.Rescore>
     Score         DG    S(hbond)    S(metal)    S(lipo)     H(rot)  DE(clash)    DE(int)     intcor
     12.30     -17.13       1.70        0.00      88.26       1.70       0.07       4.75       ----

> <Gold.Chemscore.Fitness>
12.3036

> <Gold.Chemscore.DG>
-17.1263

> <Gold.Chemscore.ZeroCoef>
-5.4800

> <Gold.Chemscore.Hbond>
1.7012

> <Gold.Chemscore.Metal>
0.0000

> <Gold.Chemscore.Lipo>
88.2571

> <Gold.Chemscore.Internal_Hbond>
0.0000

> <Gold.Chemscore.DEClash>
0.0699

> <Gold.Chemscore.DEInternal>
4.7529

> <Gold.Chemscore.Rot>
1.7038

> <Gold.Chemscore.Internal.Correction>
   9.000000E+99

> <Gold.Chemscore.Hbonds>
donor molecule, donor type, donor heavy atom, donor atom, acceptor molecule, acceptor atom, score
      P1  H  7989  7998       L1    17  0.88
      P1  H  7997  8010       L1    14  0.36

> <Gold.Chemscore.Hbond.Weighted>
-5.6820

> <Gold.Chemscore.Metal.Weighted>
-0.0000

> <Gold.Chemscore.Lipo.Weighted>
-10.3261

> <Gold.Chemscore.Internal_Hbond.Weighted>
0.0000

> <Gold.Chemscore.DEClash.Weighted>
0.0699

> <Gold.Chemscore.DEInternal.Weighted>
4.7529

> <Gold.Chemscore.Rot.Weighted>
4.3618

> <Gold.Chemscore.Internal.Correction.Weighted>
   9.000000E+99

> <Gold.Protein.RotatedTorsions>
[ 6907 6896 6895 6894 ] final   45.06 input  -60.11 | X-H torsion
[ 7974 7965 7964 7962 ] final -117.33 input  175.53 | X-H torsion
[ 8008 7997 7996 7995 ] final   61.90 input   59.86 | X-H torsion
[ 10167 10162 10161 10158 ] final  -47.39 input  -65.29 | X-H torsion
[ 10718 10713 10712 10709 ] final -167.04 input   66.30 | X-H torsion
[ 10763 10752 10751 10750 ] final  125.05 input  -60.55 | X-H torsion
[ 11005 11000 10999 10996 ] final -121.23 input  -57.11 | X-H torsion

> <Gold.Protein.ActiveResidues>
 VAL166  LYS551  ARG553  GLY616  TRP617  ASP618  TYR619  PRO620  LYS621  CYS622 
 ASP623  PHE694  ASN695  SER759  ASP760  ASP761  ALA762  ILE779  LEU786  VAL792 
 PHE793  MET794  SER795  GLU796  ALA797  LYS798  CYS799  TRP800  GLU811  SER814 

> <Gold.Protein.RotatedAtoms>
  152.2401  134.8237  160.0461 H   0  0  0  0  0  0  0  0  0  0  0  0  # atno 6907 bound_to 6896
  151.8955  133.3521  159.3821 H   0  0  0  0  0  0  0  0  0  0  0  0  # atno 6908 bound_to 6896
  150.7051  134.4807  159.5513 H   0  0  0  0  0  0  0  0  0  0  0  0  # atno 6909 bound_to 6896
  145.0864  140.8460  143.4008 H   0  0  0  0  0  0  0  0  0  0  0  0  # atno 7974 bound_to 7965
  155.6057  140.3494  155.4607 H   0  0  0  0  0  0  0  0  0  0  0  0  # atno 8008 bound_to 7997
  156.0193  140.1250  157.0398 H   0  0  0  0  0  0  0  0  0  0  0  0  # atno 8009 bound_to 7997
  154.4309  140.1065  156.5927 H   0  0  0  0  0  0  0  0  0  0  0  0  # atno 8010 bound_to 7997
  140.6777  143.2786  151.3920 H   0  0  0  0  0  0  0  0  0  0  0  0  # atno 10167 bound_to 10162
  156.6766  130.9105  151.3051 H   0  0  0  0  0  0  0  0  0  0  0  0  # atno 10718 bound_to 10713
  153.6712  135.3330  155.3154 H   0  0  0  0  0  0  0  0  0  0  0  0  # atno 10763 bound_to 10752
  154.8490  135.4387  154.1703 H   0  0  0  0  0  0  0  0  0  0  0  0  # atno 10764 bound_to 10752
  153.2695  135.6999  153.7571 H   0  0  0  0  0  0  0  0  0  0  0  0  # atno 10765 bound_to 10752
  141.0085  134.0299  157.3445 H   0  0  0  0  0  0  0  0  0  0  0  0  # atno 11005 bound_to 11000
  145.1117  139.2752  143.5634 LP  0  0  0  0  0  0  0  0  0  0  0  0  # atno 17320 bound_to 7965
  146.3531  140.0715  142.8623 LP  0  0  0  0  0  0  0  0  0  0  0  0  # atno 17321 bound_to 7965
  139.6079  144.1159  152.2268 LP  0  0  0  0  0  0  0  0  0  0  0  0  # atno 17342 bound_to 10162
  140.0564  144.5892  150.7297 LP  0  0  0  0  0  0  0  0  0  0  0  0  # atno 17343 bound_to 10162
  157.7058  130.9384  150.0928 LP  0  0  0  0  0  0  0  0  0  0  0  0  # atno 17370 bound_to 10713
  156.1899  130.3654  149.8924 LP  0  0  0  0  0  0  0  0  0  0  0  0  # atno 17371 bound_to 10713
  139.9077  135.0183  156.7557 LP  0  0  0  0  0  0  0  0  0  0  0  0  # atno 17394 bound_to 11000
  140.6772  133.9507  155.7890 LP  0  0  0  0  0  0  0  0  0  0  0  0  # atno 17395 bound_to 11000

$$$$
