AV-unprocessed.smi:1419|AV-procd|sdf|5782|dock2
  -GOLD-   22720 5423D 1   1.00000     0.00000
 Structure written by MMmdl.
 41 42  0  0  0  0  0  0  0  0  1 V2000
  154.0253  140.3251  160.7223 C   0  0  0  0  0  0  0  0  0  0  0  0
  153.3929  141.4163  159.8484 C   0  0  2  0  0  0  0  0  0  0  0  0
  152.7985  142.5536  160.7040 C   0  0  0  0  0  0  0  0  0  0  0  0
  152.4722  143.7304  159.9178 N   0  0  0  0  0  0  0  0  0  0  0  0
  152.5748  143.8762  158.5406 C   0  0  0  0  0  0  0  0  0  0  0  0
  152.1473  145.1515  158.2476 C   0  0  0  0  0  0  0  0  0  0  0  0
  151.7861  145.8069  159.4226 N   0  0  0  0  0  0  0  0  0  0  0  0
  152.0073  144.9038  160.3687 C   0  0  0  0  0  0  0  0  0  0  0  0
  152.3538  140.8195  159.0109 N   0  0  0  0  0  0  0  0  0  0  0  0
  152.5306  139.8345  158.1131 C   0  0  0  0  0  0  0  0  0  0  0  0
  153.6007  139.2371  157.9895 O   0  0  0  0  0  0  0  0  0  0  0  0
  151.4333  139.5478  157.3707 N   0  0  0  0  0  0  0  0  0  0  0  0
  150.3726  140.4856  156.9803 C   0  0  0  0  0  0  0  0  0  0  0  0
  150.5724  140.8404  155.4938 C   0  0  2  0  0  0  0  0  0  0  0  0
  149.4776  141.7770  154.9720 C   0  0  0  0  0  0  0  0  0  0  0  0
  150.5399  139.6434  154.7121 O   0  0  0  0  0  0  0  0  0  0  0  0
  151.4687  138.6240  155.0967 C   0  0  1  0  0  0  0  0  0  0  0  0
  152.9060  138.9903  154.6834 C   0  0  0  0  0  0  0  0  0  0  0  0
  151.3067  138.3084  156.5998 C   0  0  0  0  0  0  0  0  0  0  0  0
  154.8153  140.7365  161.3511 H   0  0  0  0  0  0  0  0  0  0  0  0
  154.4687  139.5392  160.1098 H   0  0  0  0  0  0  0  0  0  0  0  0
  153.2867  139.8612  161.3773 H   0  0  0  0  0  0  0  0  0  0  0  0
  154.1871  141.8339  159.2269 H   0  0  0  0  0  0  0  0  0  0  0  0
  151.8975  142.2146  161.2179 H   0  0  0  0  0  0  0  0  0  0  0  0
  153.5065  142.8515  161.4783 H   0  0  0  0  0  0  0  0  0  0  0  0
  152.9267  143.0801  157.9009 H   0  0  0  0  0  0  0  0  0  0  0  0
  152.0726  145.6438  157.2893 H   0  0  0  0  0  0  0  0  0  0  0  0
  151.8180  145.0981  161.4142 H   0  0  0  0  0  0  0  0  0  0  0  0
  151.4359  141.2360  159.0676 H   0  0  0  0  0  0  0  0  0  0  0  0
  149.4012  140.0110  157.1271 H   0  0  0  0  0  0  0  0  0  0  0  0
  150.3452  141.3954  157.5798 H   0  0  0  0  0  0  0  0  0  0  0  0
  151.5343  141.3366  155.3613 H   0  0  0  0  0  0  0  0  0  0  0  0
  149.4715  142.7182  155.5222 H   0  0  0  0  0  0  0  0  0  0  0  0
  148.4907  141.3241  155.0706 H   0  0  0  0  0  0  0  0  0  0  0  0
  149.6340  142.0094  153.9181 H   0  0  0  0  0  0  0  0  0  0  0  0
  151.1931  137.7307  154.5357 H   0  0  0  0  0  0  0  0  0  0  0  0
  153.5911  138.1704  154.9002 H   0  0  0  0  0  0  0  0  0  0  0  0
  153.2780  139.8692  155.2074 H   0  0  0  0  0  0  0  0  0  0  0  0
  152.9626  139.1942  153.6141 H   0  0  0  0  0  0  0  0  0  0  0  0
  152.0218  137.5436  156.9066 H   0  0  0  0  0  0  0  0  0  0  0  0
  150.3212  137.8775  156.7823 H   0  0  0  0  0  0  0  0  0  0  0  0
  1  2  1  0  0  0  0
  1 20  1  0  0  0  0
  1 21  1  0  0  0  0
  1 22  1  0  0  0  0
  2  3  1  0  0  0  0
  2  9  1  0  0  0  0
  2 23  1  0  0  0  0
  3  4  1  0  0  0  0
  3 24  1  0  0  0  0
  3 25  1  0  0  0  0
  4  8  1  0  0  0  0
  4  5  1  0  0  0  0
  5  6  2  0  0  0  0
  5 26  1  0  0  0  0
  6  7  1  0  0  0  0
  6 27  1  0  0  0  0
  7  8  2  0  0  0  0
  8 28  1  0  0  0  0
  9 10  1  0  0  0  0
  9 29  1  0  0  0  0
 10 11  2  0  0  0  0
 10 12  1  0  0  0  0
 12 19  1  0  0  0  0
 12 13  1  0  0  0  0
 13 14  1  0  0  0  0
 13 30  1  0  0  0  0
 13 31  1  0  0  0  0
 14 15  1  0  0  0  0
 14 16  1  0  0  0  0
 14 32  1  0  0  0  0
 15 33  1  0  0  0  0
 15 34  1  0  0  0  0
 15 35  1  0  0  0  0
 16 17  1  0  0  0  0
 17 18  1  0  0  0  0
 17 19  1  0  0  0  0
 17 36  1  0  0  0  0
 18 37  1  0  0  0  0
 18 38  1  0  0  0  0
 18 39  1  0  0  0  0
 19 40  1  0  0  0  0
 19 41  1  0  0  0  0
M  END
> <s_m_source_file>
AV-unprocessed.smi

> <i_m_source_file_index>
1419

> <i_lp_mmshare_version>
43012

> <i_f3d_flags>
0

> <s_epik_input>
W2NIXTFuW2NIXVtjSF1uMVtDSDJdW0NAQEhdKFtDSDNdKVtOSF1DKD1PKU4yW0NIMl1bQ0BASF0oW0NIM10pT1tDQEBIXShbQ0gzXSlbQ0gyXTI=

> <s_epik_cmdline>
J2VwaWtfcHl0aG9uJywgJy1waCcsICc3LjAnLCAnLXRuJywgJzgnLCAnLW1hJywgJzIwMCcsICctbWV0YWxfYmluZGluZycsICctaW1hZScsICc8aW5maWxlLm1hZT4nLCAnLW9tYWUnLCAnPG91dGZpbGUubWFlPic=

> <r_lp_tautomer_probability>
1

> <r_epik_Ionization_Penalty>
0.625124

> <r_epik_Ionization_Penalty_Charging>
0.625093

> <r_epik_Ionization_Penalty_Neutral>
3.17415e-05

> <r_epik_State_Penalty>
0.641455

> <r_epik_Charging_Adjusted_Penalty>
1.26655

> <i_epik_Tot_Q>
0

> <i_epik_Tot_abs_Q>
0

> <r_epik_Metal_State_Penalty>
0.307717

> <b_epik_Metal_Only>
0

> <s_lp_Force_Field>
OPLS_2005

> <r_lp_Energy>
29.9288

> <b_lp_Chiralities_Consistent>
1

> <s_lp_Variant>
AV-unprocessed.smi:1419-9

> <Gold.Version>
5.8.1

> <Gold.Id.Protein>
6NUR|6NUR_protein|mol2

> <Gold.PLP.Fitness>
47.7462

> <Gold.PLP.PLP>
-45.2193

> <Gold.PLP.part.hbond>
-2.8799

> <Gold.PLP.part.metal>
0.0000

> <Gold.PLP.part.buried>
-3.5655

> <Gold.PLP.part.nonpolar>
-38.8713

> <Gold.PLP.part.repulsive>
0.3599

> <Gold.PLP.ligand.clash>
0.0000

> <Gold.PLP.ligand.torsion>
0.3356

> <Gold.PLP.Chemscore.Hbond>
1.0463

> <Gold.PLP.Chemscore.CHOScore>
0.0000

> <Gold.PLP.Chemscore.Metal>
0.0000

> <Gold.Chemscore.Hbonds>
donor molecule, donor type, donor heavy atom, donor atom, acceptor molecule, acceptor atom, score
      P1  H  7997  8009       L1    11  1.00

> <Gold.PLP.Chemscore.Internal.Correction>
0.0591

> <Gold.Rescore>
     Score         DG    S(hbond)    S(metal)    S(lipo)     H(rot)  DE(clash)    DE(int)     intcor
     14.12     -15.71       0.90        0.00      96.14       1.58       0.25       1.34       ----

> <Gold.Chemscore.Fitness>
14.1250

> <Gold.Chemscore.DG>
-15.7100

> <Gold.Chemscore.ZeroCoef>
-5.4800

> <Gold.Chemscore.Hbond>
0.9038

> <Gold.Chemscore.Metal>
0.0000

> <Gold.Chemscore.Lipo>
96.1384

> <Gold.Chemscore.Internal_Hbond>
0.0000

> <Gold.Chemscore.DEClash>
0.2452

> <Gold.Chemscore.DEInternal>
1.3398

> <Gold.Chemscore.Rot>
1.5769

> <Gold.Chemscore.Internal.Correction>
   9.000000E+99

> <Gold.Chemscore.Hbonds>
donor molecule, donor type, donor heavy atom, donor atom, acceptor molecule, acceptor atom, score
      P1  H  7997  8009       L1    11  0.73

> <Gold.Chemscore.Hbond.Weighted>
-3.0187

> <Gold.Chemscore.Metal.Weighted>
-0.0000

> <Gold.Chemscore.Lipo.Weighted>
-11.2482

> <Gold.Chemscore.Internal_Hbond.Weighted>
0.0000

> <Gold.Chemscore.DEClash.Weighted>
0.2452

> <Gold.Chemscore.DEInternal.Weighted>
1.3398

> <Gold.Chemscore.Rot.Weighted>
4.0369

> <Gold.Chemscore.Internal.Correction.Weighted>
   9.000000E+99

> <Gold.Protein.RotatedTorsions>
[ 6907 6896 6895 6894 ] final -151.85 input  -60.11 | X-H torsion
[ 7974 7965 7964 7962 ] final  -50.39 input  175.53 | X-H torsion
[ 8008 7997 7996 7995 ] final  159.93 input   59.86 | X-H torsion
[ 10167 10162 10161 10158 ] final -157.26 input  -65.29 | X-H torsion
[ 10718 10713 10712 10709 ] final  116.24 input   66.30 | X-H torsion
[ 10763 10752 10751 10750 ] final   94.53 input  -60.55 | X-H torsion
[ 11005 11000 10999 10996 ] final  121.01 input  -57.11 | X-H torsion

> <Gold.Protein.ActiveResidues>
 VAL166  LYS551  ARG553  GLY616  TRP617  ASP618  TYR619  PRO620  LYS621  CYS622 
 ASP623  PHE694  ASN695  SER759  ASP760  ASP761  ALA762  ILE779  LEU786  VAL792 
 PHE793  MET794  SER795  GLU796  ALA797  LYS798  CYS799  TRP800  GLU811  SER814 

> <Gold.Protein.RotatedAtoms>
  151.2192  133.4512  159.2600 H   0  0  0  0  0  0  0  0  0  0  0  0  # atno 6907 bound_to 6896
  151.0901  134.9911  159.8409 H   0  0  0  0  0  0  0  0  0  0  0  0  # atno 6908 bound_to 6896
  152.5434  134.2126  159.8809 H   0  0  0  0  0  0  0  0  0  0  0  0  # atno 6909 bound_to 6896
  145.9303  140.7755  142.9603 H   0  0  0  0  0  0  0  0  0  0  0  0  # atno 7974 bound_to 7965
  156.2206  140.1818  156.7485 H   0  0  0  0  0  0  0  0  0  0  0  0  # atno 8008 bound_to 7997
  154.5860  140.0658  156.9200 H   0  0  0  0  0  0  0  0  0  0  0  0  # atno 8009 bound_to 7997
  155.2420  140.3322  155.4294 H   0  0  0  0  0  0  0  0  0  0  0  0  # atno 8010 bound_to 7997
  139.6785  143.9622  152.2323 H   0  0  0  0  0  0  0  0  0  0  0  0  # atno 10167 bound_to 10162
  157.6172  131.1023  150.7445 H   0  0  0  0  0  0  0  0  0  0  0  0  # atno 10718 bound_to 10713
  153.2427  135.4286  155.0715 H   0  0  0  0  0  0  0  0  0  0  0  0  # atno 10763 bound_to 10752
  154.8348  135.3406  154.6625 H   0  0  0  0  0  0  0  0  0  0  0  0  # atno 10764 bound_to 10752
  153.7049  135.7026  153.5109 H   0  0  0  0  0  0  0  0  0  0  0  0  # atno 10765 bound_to 10752
  139.9208  134.9637  156.7893 H   0  0  0  0  0  0  0  0  0  0  0  0  # atno 11005 bound_to 11000
  144.6764  140.2117  143.7376 LP  0  0  0  0  0  0  0  0  0  0  0  0  # atno 17320 bound_to 7965
  145.8434  139.2141  143.1814 LP  0  0  0  0  0  0  0  0  0  0  0  0  # atno 17321 bound_to 7965
  139.9406  144.6684  150.8270 LP  0  0  0  0  0  0  0  0  0  0  0  0  # atno 17342 bound_to 10162
  140.7644  143.3247  151.2542 LP  0  0  0  0  0  0  0  0  0  0  0  0  # atno 17343 bound_to 10162
  156.7809  130.4859  149.5401 LP  0  0  0  0  0  0  0  0  0  0  0  0  # atno 17370 bound_to 10713
  156.1300  130.6171  151.0320 LP  0  0  0  0  0  0  0  0  0  0  0  0  # atno 17371 bound_to 10713
  140.6480  133.9757  155.7740 LP  0  0  0  0  0  0  0  0  0  0  0  0  # atno 17394 bound_to 11000
  141.0727  134.0181  157.3503 LP  0  0  0  0  0  0  0  0  0  0  0  0  # atno 17395 bound_to 11000

$$$$
