AV-unprocessed.smi:2514|AV-procd|sdf|9895|dock7
  -GOLD-   2272013533D 1   1.00000     0.00000
 Structure written by MMmdl.
 24 25  0  0  0  0  0  0  0  0  1 V2000
  150.4605  138.5229  154.1835 C   0  0  0  0  0  0  0  0  0  0  0  0
  149.7881  139.8403  154.5894 C   0  0  2  0  0  0  0  0  0  0  0  0
  149.7861  140.7305  153.4918 O   0  0  0  0  0  0  0  0  0  0  0  0
  150.5012  140.5307  155.7183 C   0  0  0  0  0  0  0  0  0  0  0  0
  150.1946  141.7176  156.3213 C   0  0  0  0  0  0  0  0  0  0  0  0
  151.1637  141.8433  157.2943 N   0  0  0  0  0  0  0  0  0  0  0  0
  151.3693  142.9451  158.1873 C   0  0  0  0  0  0  0  0  0  0  0  0
  151.8600  144.3018  157.6745 C   0  0  0  0  0  0  0  0  0  0  0  0
  152.6013  144.4142  158.9191 N   0  0  0  0  0  0  0  0  0  0  0  0
  152.5874  142.9740  159.1119 C   0  0  0  0  0  0  0  0  0  0  0  0
  152.0434  140.8152  157.2581 N   0  0  0  0  0  0  0  0  0  0  0  0
  151.6432  140.0054  156.3289 N   0  0  0  0  0  0  0  0  0  0  0  0
  150.4715  137.8185  155.0155 H   0  0  0  0  0  0  0  0  0  0  0  0
  151.4923  138.6824  153.8687 H   0  0  0  0  0  0  0  0  0  0  0  0
  149.9293  138.0501  153.3570 H   0  0  0  0  0  0  0  0  0  0  0  0
  148.7513  139.6439  154.8645 H   0  0  0  0  0  0  0  0  0  0  0  0
  149.5726  140.2420  152.7115 H   0  0  0  0  0  0  0  0  0  0  0  0
  149.4127  142.4434  156.1539 H   0  0  0  0  0  0  0  0  0  0  0  0
  150.4428  143.0538  158.7558 H   0  0  0  0  0  0  0  0  0  0  0  0
  152.5204  144.2471  156.8078 H   0  0  0  0  0  0  0  0  0  0  0  0
  151.0743  145.0485  157.5572 H   0  0  0  0  0  0  0  0  0  0  0  0
  153.5344  144.7753  158.7800 H   0  0  0  0  0  0  0  0  0  0  0  0
  152.3804  142.6648  160.1366 H   0  0  0  0  0  0  0  0  0  0  0  0
  153.4777  142.4955  158.7008 H   0  0  0  0  0  0  0  0  0  0  0  0
  1  2  1  0  0  0  0
  1 13  1  0  0  0  0
  1 14  1  0  0  0  0
  1 15  1  0  0  0  0
  2  3  1  0  0  0  0
  2  4  1  0  0  0  0
  2 16  1  0  0  0  0
  3 17  1  0  0  0  0
  4 12  1  0  0  0  0
  4  5  2  0  0  0  0
  5  6  1  0  0  0  0
  5 18  1  0  0  0  0
  6  7  1  0  0  0  0
  6 11  1  0  0  0  0
  7 10  1  0  0  0  0
  7  8  1  0  0  0  0
  7 19  1  0  0  0  0
  8  9  1  0  0  0  0
  8 20  1  0  0  0  0
  8 21  1  0  0  0  0
  9 10  1  0  0  0  0
  9 22  1  0  0  0  0
 10 23  1  0  0  0  0
 10 24  1  0  0  0  0
 11 12  2  0  0  0  0
M  END
> <s_m_source_file>
AV-unprocessed.smi

> <i_m_source_file_index>
2514

> <i_lp_mmshare_version>
43012

> <i_f3d_flags>
0

> <s_epik_input>
W0NIM11bQ0BIXShbT0hdKWMxW2NIXW4obm4xKVtDSF0yW0NIMl1bTkhdW0NIMl0y

> <s_epik_cmdline>
J2VwaWtfcHl0aG9uJywgJy1waCcsICc3LjAnLCAnLXRuJywgJzgnLCAnLW1hJywgJzIwMCcsICctbWV0YWxfYmluZGluZycsICctaW1hZScsICc8aW5maWxlLm1hZT4nLCAnLW9tYWUnLCAnPG91dGZpbGUubWFlPic=

> <r_lp_tautomer_probability>
1

> <r_epik_Ionization_Penalty>
0.704859

> <r_epik_Ionization_Penalty_Charging>
0

> <r_epik_Ionization_Penalty_Neutral>
0.704859

> <r_epik_State_Penalty>
0.727806

> <r_epik_Charging_Adjusted_Penalty>
0.727806

> <i_epik_Tot_Q>
0

> <i_epik_Tot_abs_Q>
0

> <r_epik_Metal_State_Penalty>
0.727738

> <b_epik_Metal_Only>
0

> <s_lp_Force_Field>
OPLS_2005

> <r_lp_Energy>
11.6004

> <b_lp_Chiralities_Consistent>
1

> <s_lp_Variant>
AV-unprocessed.smi:2514-3

> <Gold.Version>
5.8.1

> <Gold.Id.Protein>
6NUR|6NUR_protein|mol2

> <Gold.PLP.Fitness>
35.9370

> <Gold.PLP.PLP>
-27.9002

> <Gold.PLP.part.hbond>
-2.4329

> <Gold.PLP.part.metal>
0.0000

> <Gold.PLP.part.buried>
-3.1998

> <Gold.PLP.part.nonpolar>
-21.9536

> <Gold.PLP.part.repulsive>
0.0000

> <Gold.PLP.ligand.clash>
0.0000

> <Gold.PLP.ligand.torsion>
0.1497

> <Gold.PLP.Chemscore.Hbond>
1.6972

> <Gold.PLP.Chemscore.CHOScore>
1.0000

> <Gold.PLP.Chemscore.Metal>
0.0000

> <Gold.Chemscore.Hbonds>
donor molecule, donor type, donor heavy atom, donor atom, acceptor molecule, acceptor atom, score
      L1  H     3    17       P1  7957  1.00
      P1  H  7989  7998       L1     3  0.26
      P1  H  8011  8017       L1     3  0.34
      L1  C     5    18       P1  8028  1.00

> <Gold.PLP.Chemscore.Internal.Correction>
0.2446

> <Gold.Rescore>
     Score         DG    S(hbond)    S(metal)    S(lipo)     H(rot)  DE(clash)    DE(int)     intcor
     12.06     -12.23       1.23        0.00      61.64       1.78       0.05       0.13       ----

> <Gold.Chemscore.Fitness>
12.0557

> <Gold.Chemscore.DG>
-12.2294

> <Gold.Chemscore.ZeroCoef>
-5.4800

> <Gold.Chemscore.Hbond>
1.2278

> <Gold.Chemscore.Metal>
0.0000

> <Gold.Chemscore.Lipo>
61.6354

> <Gold.Chemscore.Internal_Hbond>
0.0000

> <Gold.Chemscore.DEClash>
0.0451

> <Gold.Chemscore.DEInternal>
0.1286

> <Gold.Chemscore.Rot>
1.7823

> <Gold.Chemscore.Internal.Correction>
   9.000000E+99

> <Gold.Chemscore.Hbonds>
donor molecule, donor type, donor heavy atom, donor atom, acceptor molecule, acceptor atom, score
      L1  H     3    17       P1  7957  0.92
      P1  H  7989  7998       L1     3  0.01
      P1  H  8011  8017       L1     3  0.01

> <Gold.Chemscore.Hbond.Weighted>
-4.1007

> <Gold.Chemscore.Metal.Weighted>
-0.0000

> <Gold.Chemscore.Lipo.Weighted>
-7.2113

> <Gold.Chemscore.Internal_Hbond.Weighted>
0.0000

> <Gold.Chemscore.DEClash.Weighted>
0.0451

> <Gold.Chemscore.DEInternal.Weighted>
0.1286

> <Gold.Chemscore.Rot.Weighted>
4.5627

> <Gold.Chemscore.Internal.Correction.Weighted>
   9.000000E+99

> <Gold.Protein.RotatedTorsions>
[ 6907 6896 6895 6894 ] final  -58.12 input  -60.11 | X-H torsion
[ 7974 7965 7964 7962 ] final  -65.68 input  175.53 | X-H torsion
[ 8008 7997 7996 7995 ] final  -71.17 input   59.86 | X-H torsion
[ 10167 10162 10161 10158 ] final  174.46 input  -65.29 | X-H torsion
[ 10718 10713 10712 10709 ] final  174.36 input   66.30 | X-H torsion
[ 10763 10752 10751 10750 ] final -110.40 input  -60.55 | X-H torsion
[ 11005 11000 10999 10996 ] final   -0.99 input  -57.11 | X-H torsion

> <Gold.Protein.ActiveResidues>
 VAL166  LYS551  ARG553  GLY616  TRP617  ASP618  TYR619  PRO620  LYS621  CYS622 
 ASP623  PHE694  ASN695  SER759  ASP760  ASP761  ALA762  ILE779  LEU786  VAL792 
 PHE793  MET794  SER795  GLU796  ALA797  LYS798  CYS799  TRP800  GLU811  SER814 

> <Gold.Protein.RotatedAtoms>
  150.8032  134.7140  159.6619 H   0  0  0  0  0  0  0  0  0  0  0  0  # atno 6907 bound_to 6896
  152.4150  134.6054  160.0021 H   0  0  0  0  0  0  0  0  0  0  0  0  # atno 6908 bound_to 6896
  151.6286  133.3296  159.3140 H   0  0  0  0  0  0  0  0  0  0  0  0  # atno 6909 bound_to 6896
  145.7512  140.8907  143.0479 H   0  0  0  0  0  0  0  0  0  0  0  0  # atno 7974 bound_to 7965
  154.5067  140.0820  156.7909 H   0  0  0  0  0  0  0  0  0  0  0  0  # atno 8008 bound_to 7997
  155.3877  140.3431  155.4231 H   0  0  0  0  0  0  0  0  0  0  0  0  # atno 8009 bound_to 7997
  156.1524  140.1562  156.8735 H   0  0  0  0  0  0  0  0  0  0  0  0  # atno 8010 bound_to 7997
  139.5143  144.3144  152.0262 H   0  0  0  0  0  0  0  0  0  0  0  0  # atno 10167 bound_to 10162
  156.9508  131.0030  151.2949 H   0  0  0  0  0  0  0  0  0  0  0  0  # atno 10718 bound_to 10713
  154.8246  135.4565  154.0879 H   0  0  0  0  0  0  0  0  0  0  0  0  # atno 10763 bound_to 10752
  153.2204  135.6893  153.8013 H   0  0  0  0  0  0  0  0  0  0  0  0  # atno 10764 bound_to 10752
  153.7432  135.3309  155.3284 H   0  0  0  0  0  0  0  0  0  0  0  0  # atno 10765 bound_to 10752
  140.6424  133.9478  155.8333 H   0  0  0  0  0  0  0  0  0  0  0  0  # atno 11005 bound_to 11000
  144.6849  139.9594  143.7480 LP  0  0  0  0  0  0  0  0  0  0  0  0  # atno 17320 bound_to 7965
  146.0354  139.3373  143.0729 LP  0  0  0  0  0  0  0  0  0  0  0  0  # atno 17321 bound_to 7965
  140.2587  144.4090  150.6194 LP  0  0  0  0  0  0  0  0  0  0  0  0  # atno 17342 bound_to 10162
  140.6173  143.2173  151.6766 LP  0  0  0  0  0  0  0  0  0  0  0  0  # atno 17343 bound_to 10162
  157.5723  130.8319  149.8408 LP  0  0  0  0  0  0  0  0  0  0  0  0  # atno 17370 bound_to 10713
  156.0363  130.3750  150.1550 LP  0  0  0  0  0  0  0  0  0  0  0  0  # atno 17371 bound_to 10713
  141.0597  134.0364  157.3675 LP  0  0  0  0  0  0  0  0  0  0  0  0  # atno 17394 bound_to 11000
  139.9075  135.0183  156.7551 LP  0  0  0  0  0  0  0  0  0  0  0  0  # atno 17395 bound_to 11000

$$$$
