AV-unprocessed.smi:20|AV-procd|sdf|117|dock5
  -GOLD-   2262015283D 1   1.00000     0.00000
 Structure written by MMmdl.
 57 61  0  0  0  0  0  0  0  0  1 V2000
  146.5331  133.5867  151.9921 O   0  0  0  0  0  0  0  0  0  0  0  0
  147.4675  133.4466  152.7776 C   0  0  0  0  0  0  0  0  0  0  0  0
  147.6007  134.2208  154.0779 C   0  0  0  0  0  0  0  0  0  0  0  0
  148.6883  133.4376  154.8525 C   0  0  2  0  0  0  0  0  0  0  0  0
  148.0649  132.3946  155.8186 C   0  0  0  0  0  0  0  0  0  0  0  0
  147.4212  133.0563  157.0497 C   0  0  0  0  0  0  0  0  0  0  0  0
  148.4099  133.9974  157.7521 C   0  0  0  0  0  0  0  0  0  0  0  0
  148.9706  134.9588  156.8053 N   0  0  0  0  0  0  0  0  0  0  0  0
  149.5520  136.0421  157.3800 C   0  0  0  0  0  0  0  0  0  0  0  0
  149.6327  136.1314  158.7350 N   0  0  0  0  0  0  0  0  0  0  0  0
  150.1969  137.1978  159.3092 C   0  0  0  0  0  0  0  0  0  0  0  0
  150.7375  138.2704  158.7284 N   0  0  0  0  0  0  0  0  0  0  0  0
  150.6638  138.1847  157.3697 C   0  0  0  0  0  0  0  0  0  0  0  0
  150.0939  137.1171  156.6202 C   0  0  0  0  0  0  0  0  0  0  0  0
  150.2165  137.3772  155.2599 N   0  0  0  0  0  0  0  0  0  0  0  0
  150.8163  138.5355  155.2088 C   0  0  0  0  0  0  0  0  0  0  0  0
  151.1163  139.0940  156.4309 N   0  0  0  0  0  0  0  0  0  0  0  0
  151.7827  140.3610  156.6743 C   0  0  0  0  0  0  0  0  0  0  0  0
  151.3611  141.0503  157.9993 C   0  0  2  0  0  0  0  0  0  0  0  0
  149.9337  141.6500  157.9208 C   0  0  0  0  0  0  0  0  0  0  0  0
  149.6110  142.0794  156.6142 O   0  0  0  0  0  0  0  0  0  0  0  0
  152.3963  142.1333  158.4019 C   0  0  1  0  0  0  0  0  0  0  0  0
  152.0160  143.5607  158.0121 C   0  0  0  0  0  0  0  0  0  0  0  0
  152.5935  144.4401  159.1256 C   0  0  0  0  0  0  0  0  0  0  0  0
  153.2507  143.5509  160.0162 O   0  0  0  0  0  0  0  0  0  0  0  0
  152.6206  142.2870  159.9081 C   0  0  0  0  0  0  0  0  0  0  0  0
  149.6376  134.3649  155.6450 C   0  0  0  0  0  0  0  0  0  0  0  0
  149.4478  132.7069  153.7196 C   0  0  0  0  0  0  0  0  0  0  0  0
  148.4961  132.6155  152.6296 N   0  0  0  0  0  0  0  0  0  0  0  0
  147.9230  135.2360  153.8438 H   0  0  0  0  0  0  0  0  0  0  0  0
  146.6469  134.2818  154.6008 H   0  0  0  0  0  0  0  0  0  0  0  0
  147.3292  131.7776  155.3010 H   0  0  0  0  0  0  0  0  0  0  0  0
  148.8422  131.7122  156.1655 H   0  0  0  0  0  0  0  0  0  0  0  0
  146.5317  133.6148  156.7587 H   0  0  0  0  0  0  0  0  0  0  0  0
  147.0819  132.2903  157.7473 H   0  0  0  0  0  0  0  0  0  0  0  0
  147.9078  134.4954  158.5809 H   0  0  0  0  0  0  0  0  0  0  0  0
  149.2267  133.4187  158.1853 H   0  0  0  0  0  0  0  0  0  0  0  0
  150.2178  137.1909  160.3890 H   0  0  0  0  0  0  0  0  0  0  0  0
  151.0538  139.0195  154.2727 H   0  0  0  0  0  0  0  0  0  0  0  0
  152.8535  140.1595  156.6679 H   0  0  0  0  0  0  0  0  0  0  0  0
  151.5900  141.0228  155.8291 H   0  0  0  0  0  0  0  0  0  0  0  0
  151.3659  140.2973  158.7890 H   0  0  0  0  0  0  0  0  0  0  0  0
  149.1787  140.9141  158.1938 H   0  0  0  0  0  0  0  0  0  0  0  0
  149.8243  142.4819  158.6169 H   0  0  0  0  0  0  0  0  0  0  0  0
  149.3819  142.9959  156.6464 H   0  0  0  0  0  0  0  0  0  0  0  0
  153.3585  141.8995  157.9429 H   0  0  0  0  0  0  0  0  0  0  0  0
  152.4182  143.8305  157.0351 H   0  0  0  0  0  0  0  0  0  0  0  0
  150.9331  143.6859  157.9716 H   0  0  0  0  0  0  0  0  0  0  0  0
  153.2938  145.1843  158.7456 H   0  0  0  0  0  0  0  0  0  0  0  0
  151.7964  144.9630  159.6553 H   0  0  0  0  0  0  0  0  0  0  0  0
  151.6749  142.2999  160.4531 H   0  0  0  0  0  0  0  0  0  0  0  0
  153.2530  141.5043  160.3277 H   0  0  0  0  0  0  0  0  0  0  0  0
  150.5024  133.7973  155.9920 H   0  0  0  0  0  0  0  0  0  0  0  0
  150.0174  135.1493  154.9881 H   0  0  0  0  0  0  0  0  0  0  0  0
  150.3061  133.2856  153.3747 H   0  0  0  0  0  0  0  0  0  0  0  0
  149.8092  131.7206  154.0121 H   0  0  0  0  0  0  0  0  0  0  0  0
  148.6228  131.9982  151.8406 H   0  0  0  0  0  0  0  0  0  0  0  0
  1  2  2  0  0  0  0
  2 29  1  0  0  0  0
  2  3  1  0  0  0  0
  3  4  1  0  0  0  0
  3 30  1  0  0  0  0
  3 31  1  0  0  0  0
  4 27  1  0  0  0  0
  4  5  1  0  0  0  0
  4 28  1  0  0  0  0
  5  6  1  0  0  0  0
  5 32  1  0  0  0  0
  5 33  1  0  0  0  0
  6  7  1  0  0  0  0
  6 34  1  0  0  0  0
  6 35  1  0  0  0  0
  7  8  1  0  0  0  0
  7 36  1  0  0  0  0
  7 37  1  0  0  0  0
  8  9  1  0  0  0  0
  8 27  1  0  0  0  0
  9 14  1  0  0  0  0
  9 10  2  0  0  0  0
 10 11  1  0  0  0  0
 11 12  2  0  0  0  0
 11 38  1  0  0  0  0
 12 13  1  0  0  0  0
 13 17  1  0  0  0  0
 13 14  2  0  0  0  0
 14 15  1  0  0  0  0
 15 16  2  0  0  0  0
 16 17  1  0  0  0  0
 16 39  1  0  0  0  0
 17 18  1  0  0  0  0
 18 19  1  0  0  0  0
 18 40  1  0  0  0  0
 18 41  1  0  0  0  0
 19 20  1  0  0  0  0
 19 22  1  0  0  0  0
 19 42  1  0  0  0  0
 20 21  1  0  0  0  0
 20 43  1  0  0  0  0
 20 44  1  0  0  0  0
 21 45  1  0  0  0  0
 22 26  1  0  0  0  0
 22 23  1  0  0  0  0
 22 46  1  0  0  0  0
 23 24  1  0  0  0  0
 23 47  1  0  0  0  0
 23 48  1  0  0  0  0
 24 25  1  0  0  0  0
 24 49  1  0  0  0  0
 24 50  1  0  0  0  0
 25 26  1  0  0  0  0
 26 51  1  0  0  0  0
 26 52  1  0  0  0  0
 27 53  1  0  0  0  0
 27 54  1  0  0  0  0
 28 29  1  0  0  0  0
 28 55  1  0  0  0  0
 28 56  1  0  0  0  0
 29 57  1  0  0  0  0
M  END
> <s_m_source_file>
AV-unprocessed.smi

> <i_m_source_file_index>
20

> <i_lp_mmshare_version>
43012

> <i_f3d_flags>
0

> <s_epik_input>
W0NIMl0xW05IXUMoPU8pW0NIMl1bQ0BAXTEyW0NIMl1bQ0gyXVtDSDJdTihbQ0gyXTIpYyhuW2NIXW4zKWMoYzM0KW5bY0hdbjRbQ0gyXVtDQEhdKFtDSDJdW09IXSlbQ0BASF01W0NIMl1bQ0gyXU9bQ0gyXTU=

> <s_epik_cmdline>
J2VwaWtfcHl0aG9uJywgJy1waCcsICc3LjAnLCAnLXRuJywgJzgnLCAnLW1hJywgJzIwMCcsICctbWV0YWxfYmluZGluZycsICctaW1hZScsICc8aW5maWxlLm1hZT4nLCAnLW9tYWUnLCAnPG91dGZpbGUubWFlPic=

> <r_lp_tautomer_probability>
1

> <r_epik_Ionization_Penalty>
0.0019697

> <r_epik_Ionization_Penalty_Charging>
0

> <r_epik_Ionization_Penalty_Neutral>
0.0019697

> <r_epik_State_Penalty>
0.00113613

> <r_epik_Charging_Adjusted_Penalty>
0.00113613

> <i_epik_Tot_Q>
0

> <i_epik_Tot_abs_Q>
0

> <r_epik_Metal_State_Penalty>
-0

> <b_epik_Metal_Only>
0

> <s_lp_Force_Field>
OPLS_2005

> <r_lp_Energy>
58.6133

> <b_lp_Chiralities_Consistent>
1

> <s_lp_Variant>
AV-unprocessed.smi:20-5

> <Gold.Version>
5.8.1

> <Gold.Id.Protein>
6NUR|6NUR_protein|mol2

> <Gold.PLP.Fitness>
43.8452

> <Gold.PLP.PLP>
-38.4471

> <Gold.PLP.part.hbond>
-3.0000

> <Gold.PLP.part.metal>
0.0000

> <Gold.PLP.part.buried>
-7.8524

> <Gold.PLP.part.nonpolar>
-28.5383

> <Gold.PLP.part.repulsive>
0.2552

> <Gold.PLP.ligand.clash>
0.0000

> <Gold.PLP.ligand.torsion>
2.0054

> <Gold.PLP.Chemscore.Hbond>
2.9833

> <Gold.PLP.Chemscore.CHOScore>
0.0000

> <Gold.PLP.Chemscore.Metal>
0.0000

> <Gold.Chemscore.Hbonds>
donor molecule, donor type, donor heavy atom, donor atom, acceptor molecule, acceptor atom, score
      L1  H    21    45       P1  8028  0.95
      L1  H    29    57       P1 10747  1.00
      P1  H  6896  6908       L1    10  0.90

> <Gold.PLP.Chemscore.Internal.Correction>
0.4589

> <Gold.Rescore>
     Score         DG    S(hbond)    S(metal)    S(lipo)     H(rot)  DE(clash)    DE(int)     intcor
     14.42     -17.69       2.62        0.00      89.61       2.74       0.10       3.17       ----

> <Gold.Chemscore.Fitness>
14.4182

> <Gold.Chemscore.DG>
-17.6918

> <Gold.Chemscore.ZeroCoef>
-5.4800

> <Gold.Chemscore.Hbond>
2.6185

> <Gold.Chemscore.Metal>
0.0000

> <Gold.Chemscore.Lipo>
89.6071

> <Gold.Chemscore.Internal_Hbond>
0.0000

> <Gold.Chemscore.DEClash>
0.0989

> <Gold.Chemscore.DEInternal>
3.1747

> <Gold.Chemscore.Rot>
2.7415

> <Gold.Chemscore.Internal.Correction>
   9.000000E+99

> <Gold.Chemscore.Hbonds>
donor molecule, donor type, donor heavy atom, donor atom, acceptor molecule, acceptor atom, score
      L1  H    21    45       P1  8028  0.86
      L1  H    29    57       P1 10747  0.98
      P1  H  6896  6908       L1    10  0.29

> <Gold.Chemscore.Hbond.Weighted>
-8.7459

> <Gold.Chemscore.Metal.Weighted>
-0.0000

> <Gold.Chemscore.Lipo.Weighted>
-10.4840

> <Gold.Chemscore.Internal_Hbond.Weighted>
0.0000

> <Gold.Chemscore.DEClash.Weighted>
0.0989

> <Gold.Chemscore.DEInternal.Weighted>
3.1747

> <Gold.Chemscore.Rot.Weighted>
7.0182

> <Gold.Chemscore.Internal.Correction.Weighted>
   9.000000E+99

> <Gold.Protein.RotatedTorsions>
[ 6907 6896 6895 6894 ] final  164.51 input  -60.11 | X-H torsion
[ 7974 7965 7964 7962 ] final  -41.47 input  175.53 | X-H torsion
[ 8008 7997 7996 7995 ] final   28.70 input   59.86 | X-H torsion
[ 10167 10162 10161 10158 ] final  142.53 input  -65.29 | X-H torsion
[ 10718 10713 10712 10709 ] final -143.82 input   66.30 | X-H torsion
[ 10763 10752 10751 10750 ] final  103.36 input  -60.55 | X-H torsion
[ 11005 11000 10999 10996 ] final  -66.71 input  -57.11 | X-H torsion

> <Gold.Protein.ActiveResidues>
 VAL166  LYS551  ARG553  GLY616  TRP617  ASP618  TYR619  PRO620  LYS621  CYS622 
 ASP623  PHE694  ASN695  SER759  ASP760  ASP761  ALA762  ILE779  LEU786  VAL792 
 PHE793  MET794  SER795  GLU796  ALA797  LYS798  CYS799  TRP800  GLU811  SER814 

> <Gold.Protein.RotatedAtoms>
  151.9087  133.3556  159.3855 H   0  0  0  0  0  0  0  0  0  0  0  0  # atno 6907 bound_to 6896
  150.7063  134.4754  159.5454 H   0  0  0  0  0  0  0  0  0  0  0  0  # atno 6908 bound_to 6896
  152.2356  134.8279  160.0518 H   0  0  0  0  0  0  0  0  0  0  0  0  # atno 6909 bound_to 6896
  146.0208  140.6852  142.9179 H   0  0  0  0  0  0  0  0  0  0  0  0  # atno 7974 bound_to 7965
  155.0629  140.3192  155.4655 H   0  0  0  0  0  0  0  0  0  0  0  0  # atno 8008 bound_to 7997
  156.2809  140.2126  156.5700 H   0  0  0  0  0  0  0  0  0  0  0  0  # atno 8009 bound_to 7997
  154.7118  140.0497  157.0544 H   0  0  0  0  0  0  0  0  0  0  0  0  # atno 8010 bound_to 7997
  139.4992  144.6101  151.6291 H   0  0  0  0  0  0  0  0  0  0  0  0  # atno 10167 bound_to 10162
  156.3626  130.7746  151.1916 H   0  0  0  0  0  0  0  0  0  0  0  0  # atno 10718 bound_to 10713
  153.3517  135.3979  155.1651 H   0  0  0  0  0  0  0  0  0  0  0  0  # atno 10763 bound_to 10752
  154.8663  135.3658  154.5214 H   0  0  0  0  0  0  0  0  0  0  0  0  # atno 10764 bound_to 10752
  153.5666  135.7080  153.5583 H   0  0  0  0  0  0  0  0  0  0  0  0  # atno 10765 bound_to 10752
  141.1489  133.6704  156.6182 H   0  0  0  0  0  0  0  0  0  0  0  0  # atno 11005 bound_to 11000
  144.6989  140.3562  143.7172 LP  0  0  0  0  0  0  0  0  0  0  0  0  # atno 17320 bound_to 7965
  145.7196  139.1706  143.2492 LP  0  0  0  0  0  0  0  0  0  0  0  0  # atno 17321 bound_to 7965
  140.5773  144.0006  150.6249 LP  0  0  0  0  0  0  0  0  0  0  0  0  # atno 17342 bound_to 10162
  140.3144  143.3177  152.0847 LP  0  0  0  0  0  0  0  0  0  0  0  0  # atno 17343 bound_to 10162
  157.7475  131.0395  150.4556 LP  0  0  0  0  0  0  0  0  0  0  0  0  # atno 17370 bound_to 10713
  156.4769  130.4065  149.6484 LP  0  0  0  0  0  0  0  0  0  0  0  0  # atno 17371 bound_to 10713
  140.3561  134.7727  157.4501 LP  0  0  0  0  0  0  0  0  0  0  0  0  # atno 17394 bound_to 11000
  140.0822  134.5716  155.8529 LP  0  0  0  0  0  0  0  0  0  0  0  0  # atno 17395 bound_to 11000

$$$$
