AV-unprocessed.smi:2119|AV-procd|sdf|8630|dock9
  -GOLD-   2272011373D 1   1.00000     0.00000
 Structure written by MMmdl.
 47 49  0  0  0  0  0  0  0  0  1 V2000
  145.1206  136.0248  154.0295 O   0  0  0  0  0  0  0  0  0  0  0  0
  146.1458  135.9753  153.3504 C   0  0  0  0  0  0  0  0  0  0  0  0
  147.2062  136.7690  153.5561 N   0  0  0  0  0  0  0  0  0  0  0  0
  147.3013  137.7927  154.5939 C   0  0  0  0  0  0  0  0  0  0  0  0
  148.4374  138.8348  154.3448 C   0  0  2  0  0  0  0  0  0  0  0  0
  149.7615  138.3070  154.9961 C   0  0  2  0  0  0  0  0  0  0  0  0
  150.9943  139.1761  154.7790 C   0  0  0  0  0  0  0  0  0  0  0  0
  152.1648  138.2248  155.0522 C   0  0  0  0  0  0  0  0  0  0  0  0
  151.5899  136.9327  155.2194 O   0  0  0  0  0  0  0  0  0  0  0  0
  150.3119  136.9354  154.6064 C   0  0  0  0  0  0  0  0  0  0  0  0
  148.1038  140.2311  154.7273 N   0  0  0  0  0  0  0  0  0  0  0  0
  147.1288  140.8312  153.8068 C   0  0  0  0  0  0  0  0  0  0  0  0
  146.8562  142.3094  154.1294 C   0  0  0  0  0  0  0  0  0  0  0  0
  146.3677  142.4163  155.4608 O   0  0  0  0  0  0  0  0  0  0  0  0
  147.2699  141.8708  156.4155 C   0  0  0  0  0  0  0  0  0  0  0  0
  147.5610  140.3965  156.0799 C   0  0  0  0  0  0  0  0  0  0  0  0
  146.3522  135.1533  152.3074 N   0  0  0  0  0  0  0  0  0  0  0  0
  145.4870  134.1611  151.7714 C   0  0  0  0  0  0  0  0  0  0  0  0
  145.8737  133.1947  150.8110 C   0  0  0  0  0  0  0  0  0  0  0  0
  144.9129  132.2756  150.3467 C   0  0  0  0  0  0  0  0  0  0  0  0
  143.6011  132.3602  150.8521 C   0  0  0  0  0  0  0  0  0  0  0  0
  143.2155  133.2835  151.7578 N   0  0  0  0  0  0  0  0  0  0  0  0
  144.1421  134.1610  152.1983 C   0  0  0  0  0  0  0  0  0  0  0  0
  148.0049  136.6639  152.9478 H   0  0  0  0  0  0  0  0  0  0  0  0
  146.3266  138.2791  154.6507 H   0  0  0  0  0  0  0  0  0  0  0  0
  147.4469  137.2879  155.5492 H   0  0  0  0  0  0  0  0  0  0  0  0
  148.5982  138.8291  153.2657 H   0  0  0  0  0  0  0  0  0  0  0  0
  149.5975  138.2467  156.0730 H   0  0  0  0  0  0  0  0  0  0  0  0
  151.0374  139.5308  153.7482 H   0  0  0  0  0  0  0  0  0  0  0  0
  151.0121  140.0469  155.4348 H   0  0  0  0  0  0  0  0  0  0  0  0
  152.8640  138.2187  154.2152 H   0  0  0  0  0  0  0  0  0  0  0  0
  152.7143  138.5015  155.9523 H   0  0  0  0  0  0  0  0  0  0  0  0
  149.6942  136.1079  154.9561 H   0  0  0  0  0  0  0  0  0  0  0  0
  150.4693  136.8424  153.5314 H   0  0  0  0  0  0  0  0  0  0  0  0
  147.4381  140.7527  152.7703 H   0  0  0  0  0  0  0  0  0  0  0  0
  146.1878  140.2817  153.8673 H   0  0  0  0  0  0  0  0  0  0  0  0
  147.7622  142.9061  154.0123 H   0  0  0  0  0  0  0  0  0  0  0  0
  146.1121  142.7163  153.4446 H   0  0  0  0  0  0  0  0  0  0  0  0
  148.1932  142.4523  156.4248 H   0  0  0  0  0  0  0  0  0  0  0  0
  146.8296  141.9536  157.4091 H   0  0  0  0  0  0  0  0  0  0  0  0
  146.6470  139.8109  156.1908 H   0  0  0  0  0  0  0  0  0  0  0  0
  148.2698  140.0303  156.8220 H   0  0  0  0  0  0  0  0  0  0  0  0
  147.2166  135.2872  151.8033 H   0  0  0  0  0  0  0  0  0  0  0  0
  146.8747  133.1458  150.4127 H   0  0  0  0  0  0  0  0  0  0  0  0
  145.1750  131.5251  149.6156 H   0  0  0  0  0  0  0  0  0  0  0  0
  142.8401  131.6716  150.5157 H   0  0  0  0  0  0  0  0  0  0  0  0
  143.7971  134.8863  152.9209 H   0  0  0  0  0  0  0  0  0  0  0  0
  1  2  2  0  0  0  0
  2  3  1  0  0  0  0
  2 17  1  0  0  0  0
  3  4  1  0  0  0  0
  3 24  1  0  0  0  0
  4  5  1  0  0  0  0
  4 25  1  0  0  0  0
  4 26  1  0  0  0  0
  5  6  1  0  0  0  0
  5 11  1  0  0  0  0
  5 27  1  0  0  0  0
  6 10  1  0  0  0  0
  6  7  1  0  0  0  0
  6 28  1  0  0  0  0
  7  8  1  0  0  0  0
  7 29  1  0  0  0  0
  7 30  1  0  0  0  0
  8  9  1  0  0  0  0
  8 31  1  0  0  0  0
  8 32  1  0  0  0  0
  9 10  1  0  0  0  0
 10 33  1  0  0  0  0
 10 34  1  0  0  0  0
 11 16  1  0  0  0  0
 11 12  1  0  0  0  0
 12 13  1  0  0  0  0
 12 35  1  0  0  0  0
 12 36  1  0  0  0  0
 13 14  1  0  0  0  0
 13 37  1  0  0  0  0
 13 38  1  0  0  0  0
 14 15  1  0  0  0  0
 15 16  1  0  0  0  0
 15 39  1  0  0  0  0
 15 40  1  0  0  0  0
 16 41  1  0  0  0  0
 16 42  1  0  0  0  0
 17 18  1  0  0  0  0
 17 43  1  0  0  0  0
 18 23  1  0  0  0  0
 18 19  2  0  0  0  0
 19 20  1  0  0  0  0
 19 44  1  0  0  0  0
 20 21  2  0  0  0  0
 20 45  1  0  0  0  0
 21 22  1  0  0  0  0
 21 46  1  0  0  0  0
 22 23  2  0  0  0  0
 23 47  1  0  0  0  0
M  END
> <s_m_source_file>
AV-unprocessed.smi

> <i_m_source_file_index>
2119

> <i_lp_mmshare_version>
43012

> <i_f3d_flags>
0

> <s_epik_input>
W2NIXTFuW2NIXVtjSF1bY0hdYzFbTkhdQyg9TylbTkhdW0NIMl1bQ0BIXShbQ0BASF0yW0NIMl1bQ0gyXU9bQ0gyXTIpTjNbQ0gyXVtDSDJdT1tDSDJdW0NIMl0z

> <s_epik_cmdline>
J2VwaWtfcHl0aG9uJywgJy1waCcsICc3LjAnLCAnLXRuJywgJzgnLCAnLW1hJywgJzIwMCcsICctbWV0YWxfYmluZGluZycsICctaW1hZScsICc8aW5maWxlLm1hZT4nLCAnLW9tYWUnLCAnPG91dGZpbGUubWFlPic=

> <r_epik_Ionization_Penalty>
0.129787

> <r_epik_Ionization_Penalty_Charging>
0

> <r_epik_Ionization_Penalty_Neutral>
0.129787

> <r_epik_State_Penalty>
0.121311

> <r_epik_Charging_Adjusted_Penalty>
0.121311

> <i_epik_Tot_Q>
0

> <i_epik_Tot_abs_Q>
0

> <r_epik_Metal_State_Penalty>
0.117931

> <b_epik_Metal_Only>
0

> <s_lp_Force_Field>
OPLS_2005

> <r_lp_Energy>
59.4027

> <b_lp_Chiralities_Consistent>
1

> <s_lp_Variant>
AV-unprocessed.smi:2119-1

> <Gold.Version>
5.8.1

> <Gold.Id.Protein>
6NUR|6NUR_protein|mol2

> <Gold.PLP.Fitness>
43.3447

> <Gold.PLP.PLP>
-33.3080

> <Gold.PLP.part.hbond>
-2.9199

> <Gold.PLP.part.metal>
0.0000

> <Gold.PLP.part.buried>
-4.3946

> <Gold.PLP.part.nonpolar>
-27.8980

> <Gold.PLP.part.repulsive>
0.6473

> <Gold.PLP.ligand.clash>
0.0000

> <Gold.PLP.ligand.torsion>
0.8015

> <Gold.PLP.Chemscore.Hbond>
2.8463

> <Gold.PLP.Chemscore.CHOScore>
0.9767

> <Gold.PLP.Chemscore.Metal>
0.0000

> <Gold.Chemscore.Hbonds>
donor molecule, donor type, donor heavy atom, donor atom, acceptor molecule, acceptor atom, score
      L1  H     3    24       P1  7948  0.94
      L1  H    17    43       P1  7948  0.90
      P1  H 10752 10765       L1     9  0.98
      L1  C    21    46       P1 10952  0.85

> <Gold.PLP.Chemscore.Internal.Correction>
0.1708

> <Gold.Rescore>
     Score         DG    S(hbond)    S(metal)    S(lipo)     H(rot)  DE(clash)    DE(int)     intcor
     17.16     -19.29       2.42        0.00      85.12       1.65       0.08       2.05       ----

> <Gold.Chemscore.Fitness>
17.1625

> <Gold.Chemscore.DG>
-19.2926

> <Gold.Chemscore.ZeroCoef>
-5.4800

> <Gold.Chemscore.Hbond>
2.4192

> <Gold.Chemscore.Metal>
0.0000

> <Gold.Chemscore.Lipo>
85.1155

> <Gold.Chemscore.Internal_Hbond>
0.0000

> <Gold.Chemscore.DEClash>
0.0818

> <Gold.Chemscore.DEInternal>
2.0483

> <Gold.Chemscore.Rot>
1.6508

> <Gold.Chemscore.Internal.Correction>
   9.000000E+99

> <Gold.Chemscore.Hbonds>
donor molecule, donor type, donor heavy atom, donor atom, acceptor molecule, acceptor atom, score
      L1  H     3    24       P1  7948  0.90
      L1  H    17    43       P1  7948  0.86
      P1  H 10752 10765       L1     9  0.39

> <Gold.Chemscore.Hbond.Weighted>
-8.0803

> <Gold.Chemscore.Metal.Weighted>
-0.0000

> <Gold.Chemscore.Lipo.Weighted>
-9.9585

> <Gold.Chemscore.Internal_Hbond.Weighted>
0.0000

> <Gold.Chemscore.DEClash.Weighted>
0.0818

> <Gold.Chemscore.DEInternal.Weighted>
2.0483

> <Gold.Chemscore.Rot.Weighted>
4.2262

> <Gold.Chemscore.Internal.Correction.Weighted>
   9.000000E+99

> <Gold.Protein.RotatedTorsions>
[ 6907 6896 6895 6894 ] final  144.81 input  -60.11 | X-H torsion
[ 7974 7965 7964 7962 ] final -127.28 input  175.53 | X-H torsion
[ 8008 7997 7996 7995 ] final   -4.33 input   59.86 | X-H torsion
[ 10167 10162 10161 10158 ] final  119.36 input  -65.29 | X-H torsion
[ 10718 10713 10712 10709 ] final -177.99 input   66.30 | X-H torsion
[ 10763 10752 10751 10750 ] final  166.06 input  -60.55 | X-H torsion
[ 11005 11000 10999 10996 ] final   84.26 input  -57.11 | X-H torsion

> <Gold.Protein.ActiveResidues>
 VAL166  LYS551  ARG553  GLY616  TRP617  ASP618  TYR619  PRO620  LYS621  CYS622 
 ASP623  PHE694  ASN695  SER759  ASP760  ASP761  ALA762  ILE779  LEU786  VAL792 
 PHE793  MET794  SER795  GLU796  ALA797  LYS798  CYS799  TRP800  GLU811  SER814 

> <Gold.Protein.RotatedAtoms>
  152.1889  133.4759  159.4997 H   0  0  0  0  0  0  0  0  0  0  0  0  # atno 6907 bound_to 6896
  150.6947  134.1738  159.4231 H   0  0  0  0  0  0  0  0  0  0  0  0  # atno 6908 bound_to 6896
  151.9652  135.0104  160.0600 H   0  0  0  0  0  0  0  0  0  0  0  0  # atno 6909 bound_to 6896
  144.9787  140.7619  143.4625 H   0  0  0  0  0  0  0  0  0  0  0  0  # atno 7974 bound_to 7965
  154.6154  140.2486  155.7616 H   0  0  0  0  0  0  0  0  0  0  0  0  # atno 8008 bound_to 7997
  156.2395  140.2938  156.0355 H   0  0  0  0  0  0  0  0  0  0  0  0  # atno 8009 bound_to 7997
  155.1984  140.0393  157.2903 H   0  0  0  0  0  0  0  0  0  0  0  0  # atno 8010 bound_to 7997
  139.6051  144.7067  151.2972 H   0  0  0  0  0  0  0  0  0  0  0  0  # atno 10167 bound_to 10162
  156.8376  130.9675  151.3102 H   0  0  0  0  0  0  0  0  0  0  0  0  # atno 10718 bound_to 10713
  154.3333  135.2754  155.2460 H   0  0  0  0  0  0  0  0  0  0  0  0  # atno 10763 bound_to 10752
  154.4763  135.5870  153.6360 H   0  0  0  0  0  0  0  0  0  0  0  0  # atno 10764 bound_to 10752
  152.9864  135.6100  154.3528 H   0  0  0  0  0  0  0  0  0  0  0  0  # atno 10765 bound_to 10752
  139.9005  134.8204  156.2421 H   0  0  0  0  0  0  0  0  0  0  0  0  # atno 11005 bound_to 11000
  145.2452  139.2055  143.4971 LP  0  0  0  0  0  0  0  0  0  0  0  0  # atno 17320 bound_to 7965
  146.3402  140.2355  142.8594 LP  0  0  0  0  0  0  0  0  0  0  0  0  # atno 17321 bound_to 7965
  140.7279  143.6951  150.7890 LP  0  0  0  0  0  0  0  0  0  0  0  0  # atno 17342 bound_to 10162
  140.0535  143.5226  152.2662 LP  0  0  0  0  0  0  0  0  0  0  0  0  # atno 17343 bound_to 10162
  157.6373  130.8777  149.9382 LP  0  0  0  0  0  0  0  0  0  0  0  0  # atno 17370 bound_to 10713
  156.0898  130.3664  150.0416 LP  0  0  0  0  0  0  0  0  0  0  0  0  # atno 17371 bound_to 10713
  141.0278  133.7005  156.1377 LP  0  0  0  0  0  0  0  0  0  0  0  0  # atno 17394 bound_to 11000
  140.7141  134.4430  157.5579 LP  0  0  0  0  0  0  0  0  0  0  0  0  # atno 17395 bound_to 11000

$$$$
