AV-unprocessed.smi:50|AV-procd|sdf|491|dock6
  -GOLD-   2262016353D 1   1.00000     0.00000
 Structure written by MMmdl.
 44 45  0  0  0  0  0  0  0  0  2 V2000
  151.9331  144.1429  159.3404 C   0  0  0  0  0  0  0  0  0  0  0  0
  152.0757  142.6147  159.4701 C   0  0  0  0  0  0  0  0  0  0  0  0
  153.5385  142.2651  159.8078 C   0  0  0  0  0  0  0  0  0  0  0  0
  151.5468  141.8787  158.2083 C   0  0  2  0  0  0  0  0  0  0  0  0
  150.0713  141.8503  158.1771 N   0  3  0  0  0  0  0  0  0  0  0  0
  152.0178  140.4170  158.1131 C   0  0  0  0  0  0  0  0  0  0  0  0
  152.6487  139.9469  157.1643 O   0  0  0  0  0  0  0  0  0  0  0  0
  151.6232  139.7288  159.1968 O   0  0  0  0  0  0  0  0  0  0  0  0
  152.0801  138.4004  159.3939 C   0  0  0  0  0  0  0  0  0  0  0  0
  151.6301  137.5273  158.2195 C   0  0  0  0  0  0  0  0  0  0  0  0
  150.7725  136.5077  158.7068 O   0  0  0  0  0  0  0  0  0  0  0  0
  149.5407  136.9871  159.1360 C   0  0  0  0  0  0  0  0  0  0  0  0
  148.8129  135.8771  159.7248 N   0  0  0  0  0  0  0  0  0  0  0  0
  148.3930  134.7177  159.1210 C   0  0  0  0  0  0  0  0  0  0  0  0
  147.7527  133.9066  159.9160 N   0  0  0  0  0  0  0  0  0  0  0  0
  147.7324  134.5729  161.1378 C   0  0  0  0  0  0  0  0  0  0  0  0
  147.1615  134.1805  162.3952 C   0  0  0  0  0  0  0  0  0  0  0  0
  146.5586  133.1447  162.6683 O   0  0  0  0  0  0  0  0  0  0  0  0
  147.3536  135.1500  163.3878 N   0  0  0  0  0  0  0  0  0  0  0  0
  148.0210  136.3555  163.1846 C   0  0  0  0  0  0  0  0  0  0  0  0
  148.1168  137.1774  164.2379 N   0  0  0  0  0  0  0  0  0  0  0  0
  148.5493  136.7136  162.0277 N   0  0  0  0  0  0  0  0  0  0  0  0
  148.3804  135.7887  161.0317 C   0  0  0  0  0  0  0  0  0  0  0  0
  151.8796  142.4167  157.3197 H   0  0  0  0  0  0  0  0  0  0  0  0
  146.9771  134.9472  164.3022 H   0  0  0  0  0  0  0  0  0  0  0  0
  152.4985  144.5216  158.4882 H   0  0  0  0  0  0  0  0  0  0  0  0
  152.3037  144.6488  160.2325 H   0  0  0  0  0  0  0  0  0  0  0  0
  150.8941  144.4470  159.2139 H   0  0  0  0  0  0  0  0  0  0  0  0
  151.4672  142.3071  160.3222 H   0  0  0  0  0  0  0  0  0  0  0  0
  154.2008  142.4811  158.9687 H   0  0  0  0  0  0  0  0  0  0  0  0
  153.6578  141.2132  160.0672 H   0  0  0  0  0  0  0  0  0  0  0  0
  153.8918  142.8413  160.6636 H   0  0  0  0  0  0  0  0  0  0  0  0
  149.7635  141.3290  157.3688 H   0  0  0  0  0  0  0  0  0  0  0  0
  149.7151  142.7940  158.1287 H   0  0  0  0  0  0  0  0  0  0  0  0
  153.1697  138.4022  159.4487 H   0  0  0  0  0  0  0  0  0  0  0  0
  151.7040  138.0012  160.3369 H   0  0  0  0  0  0  0  0  0  0  0  0
  151.1309  138.1316  157.4602 H   0  0  0  0  0  0  0  0  0  0  0  0
  152.5058  137.0729  157.7537 H   0  0  0  0  0  0  0  0  0  0  0  0
  149.6781  137.7746  159.8789 H   0  0  0  0  0  0  0  0  0  0  0  0
  148.9589  137.3723  158.2972 H   0  0  0  0  0  0  0  0  0  0  0  0
  148.5779  134.4922  158.0808 H   0  0  0  0  0  0  0  0  0  0  0  0
  147.7134  136.9058  165.1229 H   0  0  0  0  0  0  0  0  0  0  0  0
  148.5903  138.0650  164.1509 H   0  0  0  0  0  0  0  0  0  0  0  0
  149.7293  141.4014  159.0150 H   0  0  0  0  0  0  0  0  0  0  0  0
  1  2  1  0  0  0  0
  1 26  1  0  0  0  0
  1 27  1  0  0  0  0
  1 28  1  0  0  0  0
  2  3  1  0  0  0  0
  2  4  1  0  0  0  0
  2 29  1  0  0  0  0
  3 30  1  0  0  0  0
  3 31  1  0  0  0  0
  3 32  1  0  0  0  0
  4 24  1  0  0  0  0
  4  5  1  0  0  0  0
  4  6  1  0  0  0  0
  5 33  1  0  0  0  0
  5 34  1  0  0  0  0
  5 44  1  0  0  0  0
  6  7  2  0  0  0  0
  6  8  1  0  0  0  0
  8  9  1  0  0  0  0
  9 10  1  0  0  0  0
  9 35  1  0  0  0  0
  9 36  1  0  0  0  0
 10 11  1  0  0  0  0
 10 37  1  0  0  0  0
 10 38  1  0  0  0  0
 11 12  1  0  0  0  0
 12 13  1  0  0  0  0
 12 39  1  0  0  0  0
 12 40  1  0  0  0  0
 13 23  1  0  0  0  0
 13 14  1  0  0  0  0
 14 15  2  0  0  0  0
 14 41  1  0  0  0  0
 15 16  1  0  0  0  0
 16 23  2  0  0  0  0
 16 17  1  0  0  0  0
 17 18  2  0  0  0  0
 17 19  1  0  0  0  0
 19 25  1  0  0  0  0
 19 20  1  0  0  0  0
 20 21  1  0  0  0  0
 20 22  2  0  0  0  0
 21 42  1  0  0  0  0
 21 43  1  0  0  0  0
 22 23  1  0  0  0  0
M  CHG  1   5   1
M  END
> <s_m_source_file>
AV-unprocessed.smi

> <i_m_source_file_index>
50

> <i_lp_mmshare_version>
43012

> <i_f3d_flags>
0

> <s_epik_input>
W0NIM11bQ0hdKFtDSDNdKVtDQEhdKFtOSDJdKUMoPU8pT1tDSDJdW0NIMl1PW0NIMl1uKFtjSF1uMSljKGMxMiluYyhbTkgyXSlbbkhdYzI9Tw==

> <s_epik_cmdline>
J2VwaWtfcHl0aG9uJywgJy1waCcsICc3LjAnLCAnLXRuJywgJzgnLCAnLW1hJywgJzIwMCcsICctbWV0YWxfYmluZGluZycsICctaW1hZScsICc8aW5maWxlLm1hZT4nLCAnLW9tYWUnLCAnPG91dGZpbGUubWFlPic=

> <r_lp_tautomer_probability>
0.99994

> <r_epik_Ionization_Penalty>
0.217551

> <r_epik_Ionization_Penalty_Charging>
0.217477

> <r_epik_Ionization_Penalty_Neutral>
7.42487e-05

> <r_epik_State_Penalty>
0.206211

> <r_epik_Charging_Adjusted_Penalty>
0.423688

> <i_epik_Tot_Q>
1

> <i_epik_Tot_abs_Q>
1

> <r_epik_Metal_State_Penalty>
0.526339

> <b_epik_Metal_Only>
0

> <s_epik_Chemistry_Notes>
This compound has an ester and may undergo hydrolysis at high or low pH. This compound contains an acetal/aminal-like group ( X-CH(R)-Y where X, Y are N, S, or O) that may be acid/base labile, releasing an aldehyde.

> <s_lp_Force_Field>
OPLS_2005

> <r_lp_Energy>
8.83135

> <b_lp_Chiralities_Consistent>
1

> <s_lp_Variant>
AV-unprocessed.smi:50-1

> <Gold.Version>
5.8.1

> <Gold.Id.Protein>
6NUR|6NUR_protein|mol2

> <Gold.PLP.Fitness>
45.9318

> <Gold.PLP.PLP>
-38.5987

> <Gold.PLP.part.hbond>
-3.7510

> <Gold.PLP.part.metal>
0.0000

> <Gold.PLP.part.buried>
-4.8790

> <Gold.PLP.part.nonpolar>
-30.7707

> <Gold.PLP.part.repulsive>
0.7197

> <Gold.PLP.ligand.clash>
0.0000

> <Gold.PLP.ligand.torsion>
0.8109

> <Gold.PLP.Chemscore.Hbond>
2.9600

> <Gold.PLP.Chemscore.CHOScore>
0.0000

> <Gold.PLP.Chemscore.Metal>
0.0000

> <Gold.Chemscore.Hbonds>
donor molecule, donor type, donor heavy atom, donor atom, acceptor molecule, acceptor atom, score
      P1  H  6896  6909       L1    11  0.93
      P1  H  6931  6943       L1    22  1.00
      P1  H  7997  8009       L1     7  1.00

> <Gold.PLP.Chemscore.Internal.Correction>
0.0748

> <Gold.Rescore>
     Score         DG    S(hbond)    S(metal)    S(lipo)     H(rot)  DE(clash)    DE(int)     intcor
      7.40      -9.92       3.04        0.00      57.36       4.86       0.27       2.25       ----

> <Gold.Chemscore.Fitness>
7.4002

> <Gold.Chemscore.DG>
-9.9174

> <Gold.Chemscore.ZeroCoef>
-5.4800

> <Gold.Chemscore.Hbond>
3.0419

> <Gold.Chemscore.Metal>
0.0000

> <Gold.Chemscore.Lipo>
57.3643

> <Gold.Chemscore.Internal_Hbond>
0.0000

> <Gold.Chemscore.DEClash>
0.2675

> <Gold.Chemscore.DEInternal>
2.2496

> <Gold.Chemscore.Rot>
4.8571

> <Gold.Chemscore.Internal.Correction>
   9.000000E+99

> <Gold.Chemscore.Hbonds>
donor molecule, donor type, donor heavy atom, donor atom, acceptor molecule, acceptor atom, score
      P1  H  6896  6909       L1    11  0.31
      P1  H  6931  6943       L1    22  0.91
      P1  H  7997  8009       L1     7  0.99

> <Gold.Chemscore.Hbond.Weighted>
-10.1600

> <Gold.Chemscore.Metal.Weighted>
-0.0000

> <Gold.Chemscore.Lipo.Weighted>
-6.7116

> <Gold.Chemscore.Internal_Hbond.Weighted>
0.0000

> <Gold.Chemscore.DEClash.Weighted>
0.2675

> <Gold.Chemscore.DEInternal.Weighted>
2.2496

> <Gold.Chemscore.Rot.Weighted>
12.4343

> <Gold.Chemscore.Internal.Correction.Weighted>
   9.000000E+99

> <Gold.Protein.RotatedTorsions>
[ 6907 6896 6895 6894 ] final   81.39 input  -60.11 | X-H torsion
[ 7974 7965 7964 7962 ] final   -8.14 input  175.53 | X-H torsion
[ 8008 7997 7996 7995 ] final -171.83 input   59.86 | X-H torsion
[ 10167 10162 10161 10158 ] final  -45.55 input  -65.29 | X-H torsion
[ 10718 10713 10712 10709 ] final   38.74 input   66.30 | X-H torsion
[ 10763 10752 10751 10750 ] final   21.33 input  -60.55 | X-H torsion
[ 11005 11000 10999 10996 ] final  -44.49 input  -57.11 | X-H torsion

> <Gold.Protein.ActiveResidues>
 VAL166  LYS551  ARG553  GLY616  TRP617  ASP618  TYR619  PRO620  LYS621  CYS622 
 ASP623  PHE694  ASN695  SER759  ASP760  ASP761  ALA762  ILE779  LEU786  VAL792 
 PHE793  MET794  SER795  GLU796  ALA797  LYS798  CYS799  TRP800  GLU811  SER814 

> <Gold.Protein.RotatedAtoms>
  152.5267  134.3210  159.9148 H   0  0  0  0  0  0  0  0  0  0  0  0  # atno 6907 bound_to 6896
  151.3159  133.4054  159.2658 H   0  0  0  0  0  0  0  0  0  0  0  0  # atno 6908 bound_to 6896
  150.9999  134.9330  159.8005 H   0  0  0  0  0  0  0  0  0  0  0  0  # atno 6909 bound_to 6896
  146.2288  140.2424  142.8344 H   0  0  0  0  0  0  0  0  0  0  0  0  # atno 7974 bound_to 7965
  155.9367  140.1101  157.1089 H   0  0  0  0  0  0  0  0  0  0  0  0  # atno 8008 bound_to 7997
  154.4081  140.1227  156.4939 H   0  0  0  0  0  0  0  0  0  0  0  0  # atno 8009 bound_to 7997
  155.7013  140.3472  155.4936 H   0  0  0  0  0  0  0  0  0  0  0  0  # atno 8010 bound_to 7997
  140.6853  143.2874  151.3654 H   0  0  0  0  0  0  0  0  0  0  0  0  # atno 10167 bound_to 10162
  157.3624  130.7656  149.7057 H   0  0  0  0  0  0  0  0  0  0  0  0  # atno 10718 bound_to 10713
  153.1004  135.6671  153.9684 H   0  0  0  0  0  0  0  0  0  0  0  0  # atno 10763 bound_to 10752
  153.9256  135.3009  155.3448 H   0  0  0  0  0  0  0  0  0  0  0  0  # atno 10764 bound_to 10752
  154.7424  135.5073  153.9221 H   0  0  0  0  0  0  0  0  0  0  0  0  # atno 10765 bound_to 10752
  141.0454  133.6763  156.2880 H   0  0  0  0  0  0  0  0  0  0  0  0  # atno 11005 bound_to 11000
  144.9474  140.8142  143.5593 LP  0  0  0  0  0  0  0  0  0  0  0  0  # atno 17320 bound_to 7965
  145.2382  139.2084  143.5007 LP  0  0  0  0  0  0  0  0  0  0  0  0  # atno 17321 bound_to 7965
  139.6208  144.0912  152.2389 LP  0  0  0  0  0  0  0  0  0  0  0  0  # atno 17342 bound_to 10162
  140.0355  144.6048  150.7453 LP  0  0  0  0  0  0  0  0  0  0  0  0  # atno 17343 bound_to 10162
  155.9740  130.4110  150.3959 LP  0  0  0  0  0  0  0  0  0  0  0  0  # atno 17370 bound_to 10713
  157.2038  131.0444  151.2636 LP  0  0  0  0  0  0  0  0  0  0  0  0  # atno 17371 bound_to 10713
  140.6156  134.5413  157.5540 LP  0  0  0  0  0  0  0  0  0  0  0  0  # atno 17394 bound_to 11000
  139.9308  134.7968  156.0938 LP  0  0  0  0  0  0  0  0  0  0  0  0  # atno 17395 bound_to 11000

$$$$
