AV-unprocessed.smi:102|AV-procd|sdf|971|dock2
  -GOLD-   2262017523D 1   1.00000     0.00000
 Structure written by MMmdl.
 43 44  0  0  0  0  0  0  0  0  2 V2000
  144.9183  133.1805  151.5541 C   0  0  0  0  0  0  0  0  0  0  0  0
  146.3969  133.2560  151.9121 C   0  0  0  0  0  0  0  0  0  0  0  0
  147.2615  133.4022  151.0479 O   0  0  0  0  0  0  0  0  0  0  0  0
  146.6109  133.1443  153.2315 O   0  0  0  0  0  0  0  0  0  0  0  0
  147.9181  133.3363  153.7467 C   0  0  0  0  0  0  0  0  0  0  0  0
  147.8596  134.2838  154.9526 C   0  0  2  0  0  0  0  0  0  0  0  0
  148.3210  135.5817  154.6134 O   0  0  0  0  0  0  0  0  0  0  0  0
  148.6238  136.2518  155.7948 C   0  0  2  0  0  0  0  0  0  0  0  0
  149.7499  137.2197  155.5029 N   0  0  0  0  0  0  0  0  0  0  0  0
  149.5833  138.5716  155.7550 C   0  0  0  0  0  0  0  0  0  0  0  0
  150.5905  139.4503  155.5793 C   0  0  0  0  0  0  0  0  0  0  0  0
  150.3921  140.7556  155.8315 F   0  0  0  0  0  0  0  0  0  0  0  0
  151.8968  138.9706  155.1349 C   0  0  0  0  0  0  0  0  0  0  0  0
  152.8042  139.7788  154.9440 O   0  0  0  0  0  0  0  0  0  0  0  0
  152.0538  137.6271  154.9578 N   0  5  0  0  0  0  0  0  0  0  0  0
  151.0406  136.7321  155.1519 C   0  0  0  0  0  0  0  0  0  0  0  0
  151.1959  135.5171  155.0315 O   0  0  0  0  0  0  0  0  0  0  0  0
  148.9890  135.2010  156.8632 C   0  0  1  0  0  0  0  0  0  0  0  0
  148.1204  135.2911  157.9849 O   0  0  0  0  0  0  0  0  0  0  0  0
  148.5831  135.7561  159.1586 C   0  0  0  0  0  0  0  0  0  0  0  0
  147.5075  135.7845  160.2361 C   0  0  0  0  0  0  0  0  0  0  0  0
  149.7329  136.1318  159.3874 O   0  0  0  0  0  0  0  0  0  0  0  0
  148.7503  133.8820  156.1344 C   0  0  2  0  0  0  0  0  0  0  0  0
  149.9853  133.3314  155.6872 O   0  0  0  0  0  0  0  0  0  0  0  0
  150.7203  132.5560  156.5029 C   0  0  0  0  0  0  0  0  0  0  0  0
  151.9426  131.9763  155.8040 C   0  0  0  0  0  0  0  0  0  0  0  0
  150.4803  132.3161  157.6863 O   0  0  0  0  0  0  0  0  0  0  0  0
  144.3374  133.8437  152.1955 H   0  0  0  0  0  0  0  0  0  0  0  0
  144.5500  132.1625  151.6822 H   0  0  0  0  0  0  0  0  0  0  0  0
  144.7597  133.4778  150.5172 H   0  0  0  0  0  0  0  0  0  0  0  0
  148.3173  132.3697  154.0567 H   0  0  0  0  0  0  0  0  0  0  0  0
  148.5811  133.7352  152.9774 H   0  0  0  0  0  0  0  0  0  0  0  0
  146.8314  134.3672  155.3097 H   0  0  0  0  0  0  0  0  0  0  0  0
  147.7573  136.8346  156.1083 H   0  0  0  0  0  0  0  0  0  0  0  0
  148.6350  138.9416  156.1130 H   0  0  0  0  0  0  0  0  0  0  0  0
  150.0258  135.2907  157.1878 H   0  0  0  0  0  0  0  0  0  0  0  0
  147.0964  134.7864  160.3876 H   0  0  0  0  0  0  0  0  0  0  0  0
  146.6980  136.4536  159.9443 H   0  0  0  0  0  0  0  0  0  0  0  0
  147.9221  136.1350  161.1815 H   0  0  0  0  0  0  0  0  0  0  0  0
  148.2347  133.1538  156.7630 H   0  0  0  0  0  0  0  0  0  0  0  0
  151.6375  131.3470  154.9679 H   0  0  0  0  0  0  0  0  0  0  0  0
  152.5302  131.3722  156.4958 H   0  0  0  0  0  0  0  0  0  0  0  0
  152.5750  132.7783  155.4224 H   0  0  0  0  0  0  0  0  0  0  0  0
  1  2  1  0  0  0  0
  1 28  1  0  0  0  0
  1 29  1  0  0  0  0
  1 30  1  0  0  0  0
  2  3  2  0  0  0  0
  2  4  1  0  0  0  0
  4  5  1  0  0  0  0
  5  6  1  0  0  0  0
  5 31  1  0  0  0  0
  5 32  1  0  0  0  0
  6 23  1  0  0  0  0
  6  7  1  0  0  0  0
  6 33  1  0  0  0  0
  7  8  1  0  0  0  0
  8  9  1  0  0  0  0
  8 18  1  0  0  0  0
  8 34  1  0  0  0  0
  9 16  1  0  0  0  0
  9 10  1  0  0  0  0
 10 11  2  0  0  0  0
 10 35  1  0  0  0  0
 11 12  1  0  0  0  0
 11 13  1  0  0  0  0
 13 14  2  0  0  0  0
 13 15  1  0  0  0  0
 15 16  1  0  0  0  0
 16 17  2  0  0  0  0
 18 19  1  0  0  0  0
 18 23  1  0  0  0  0
 18 36  1  0  0  0  0
 19 20  1  0  0  0  0
 20 21  1  0  0  0  0
 20 22  2  0  0  0  0
 21 37  1  0  0  0  0
 21 38  1  0  0  0  0
 21 39  1  0  0  0  0
 23 24  1  0  0  0  0
 23 40  1  0  0  0  0
 24 25  1  0  0  0  0
 25 26  1  0  0  0  0
 25 27  2  0  0  0  0
 26 41  1  0  0  0  0
 26 42  1  0  0  0  0
 26 43  1  0  0  0  0
M  CHG  1  15  -1
M  END
> <s_m_source_file>
AV-unprocessed.smi

> <i_m_source_file_index>
102

> <i_lp_mmshare_version>
43012

> <i_f3d_flags>
0

> <s_epik_input>
W0NIM11DKD1PKU9bQ0gyXVtDQEBIXTFPW0NASF0oW0NAQEhdKE9DKD1PKVtDSDNdKVtDQEhdMU9DKD1PKVtDSDNdKW4yW2NIXWMoRiljKD1PKVtuSF1jMj1P

> <s_epik_cmdline>
J2VwaWtfcHl0aG9uJywgJy1waCcsICc3LjAnLCAnLXRuJywgJzgnLCAnLW1hJywgJzIwMCcsICctbWV0YWxfYmluZGluZycsICctaW1hZScsICc8aW5maWxlLm1hZT4nLCAnLW9tYWUnLCAnPG91dGZpbGUubWFlPic=

> <r_epik_Ionization_Penalty>
1.40304

> <r_epik_Ionization_Penalty_Charging>
1.43915e-08

> <r_epik_Ionization_Penalty_Neutral>
1.40304

> <r_epik_State_Penalty>
1.48536

> <r_epik_Charging_Adjusted_Penalty>
1.48536

> <i_epik_Tot_Q>
-1

> <i_epik_Tot_abs_Q>
1

> <r_epik_Metal_State_Penalty>
0.00663881

> <b_epik_Metal_Only>
0

> <s_epik_Chemistry_Notes>
This compound has an ester and may undergo hydrolysis at high or low pH. This compound contains an acetal/aminal-like group ( X-CH(R)-Y where X, Y are N, S, or O) that may be acid/base labile, releasing an aldehyde.

> <s_lp_Force_Field>
OPLS_2005

> <r_lp_Energy>
22.9576

> <b_lp_Chiralities_Consistent>
1

> <s_lp_Variant>
AV-unprocessed.smi:102-27

> <Gold.Version>
5.8.1

> <Gold.Id.Protein>
6NUR|6NUR_protein|mol2

> <Gold.PLP.Fitness>
38.3266

> <Gold.PLP.PLP>
-29.6351

> <Gold.PLP.part.hbond>
-5.9205

> <Gold.PLP.part.metal>
0.0000

> <Gold.PLP.part.buried>
-4.8855

> <Gold.PLP.part.nonpolar>
-19.7528

> <Gold.PLP.part.repulsive>
1.5128

> <Gold.PLP.ligand.clash>
0.0000

> <Gold.PLP.ligand.torsion>
1.9587

> <Gold.PLP.Chemscore.Hbond>
4.0996

> <Gold.PLP.Chemscore.CHOScore>
0.0000

> <Gold.PLP.Chemscore.Metal>
0.0000

> <Gold.Chemscore.Hbonds>
donor molecule, donor type, donor heavy atom, donor atom, acceptor molecule, acceptor atom, score
      P1  H  6896  6907       L1    22  1.00
      P1  H  6896  6909       L1    27  1.00
      P1  H  7989  7998       L1    14  0.24
      P1  H  7997  8010       L1    14  1.00
      P1  H 10752 10764       L1    17  0.90

> <Gold.PLP.Chemscore.Internal.Correction>
0.3101

> <Gold.Rescore>
     Score         DG    S(hbond)    S(metal)    S(lipo)     H(rot)  DE(clash)    DE(int)     intcor
      4.20      -9.30       2.96        0.00      35.50       4.00       0.00       5.10       ----

> <Gold.Chemscore.Fitness>
4.1952

> <Gold.Chemscore.DG>
-9.3016

> <Gold.Chemscore.ZeroCoef>
-5.4800

> <Gold.Chemscore.Hbond>
2.9628

> <Gold.Chemscore.Metal>
0.0000

> <Gold.Chemscore.Lipo>
35.4967

> <Gold.Chemscore.Internal_Hbond>
0.0000

> <Gold.Chemscore.DEClash>
0.0019

> <Gold.Chemscore.DEInternal>
5.1044

> <Gold.Chemscore.Rot>
3.9951

> <Gold.Chemscore.Internal.Correction>
   9.000000E+99

> <Gold.Chemscore.Hbonds>
donor molecule, donor type, donor heavy atom, donor atom, acceptor molecule, acceptor atom, score
      P1  H  6896  6907       L1    22  0.98
      P1  H  6896  6909       L1    27  0.94
      P1  H  7989  7998       L1    14  0.02
      P1  H  7997  8010       L1    14  0.99
      P1  H 10752 10764       L1    17  0.18

> <Gold.Chemscore.Hbond.Weighted>
-9.8959

> <Gold.Chemscore.Metal.Weighted>
-0.0000

> <Gold.Chemscore.Lipo.Weighted>
-4.1531

> <Gold.Chemscore.Internal_Hbond.Weighted>
0.0000

> <Gold.Chemscore.DEClash.Weighted>
0.0019

> <Gold.Chemscore.DEInternal.Weighted>
5.1044

> <Gold.Chemscore.Rot.Weighted>
10.2274

> <Gold.Chemscore.Internal.Correction.Weighted>
   9.000000E+99

> <Gold.Protein.RotatedTorsions>
[ 6907 6896 6895 6894 ] final  -37.51 input  -60.11 | X-H torsion
[ 7974 7965 7964 7962 ] final -117.44 input  175.53 | X-H torsion
[ 8008 7997 7996 7995 ] final   99.95 input   59.86 | X-H torsion
[ 10167 10162 10161 10158 ] final   92.74 input  -65.29 | X-H torsion
[ 10718 10713 10712 10709 ] final   84.89 input   66.30 | X-H torsion
[ 10763 10752 10751 10750 ] final  -53.66 input  -60.55 | X-H torsion
[ 11005 11000 10999 10996 ] final  169.04 input  -57.11 | X-H torsion

> <Gold.Protein.ActiveResidues>
 VAL166  LYS551  ARG553  GLY616  TRP617  ASP618  TYR619  PRO620  LYS621  CYS622 
 ASP623  PHE694  ASN695  SER759  ASP760  ASP761  ALA762  ILE779  LEU786  VAL792 
 PHE793  MET794  SER795  GLU796  ALA797  LYS798  CYS799  TRP800  GLU811  SER814 

> <Gold.Protein.RotatedAtoms>
  151.0138  134.9417  159.8021 H   0  0  0  0  0  0  0  0  0  0  0  0  # atno 6907 bound_to 6896
  152.5309  134.2994  159.9082 H   0  0  0  0  0  0  0  0  0  0  0  0  # atno 6908 bound_to 6896
  151.3000  133.4085  159.2673 H   0  0  0  0  0  0  0  0  0  0  0  0  # atno 6909 bound_to 6896
  145.0852  140.8453  143.4015 H   0  0  0  0  0  0  0  0  0  0  0  0  # atno 7974 bound_to 7965
  156.1155  140.3221  155.8133 H   0  0  0  0  0  0  0  0  0  0  0  0  # atno 8008 bound_to 7997
  155.4597  140.0538  157.3009 H   0  0  0  0  0  0  0  0  0  0  0  0  # atno 8009 bound_to 7997
  154.4790  140.2045  155.9823 H   0  0  0  0  0  0  0  0  0  0  0  0  # atno 8010 bound_to 7997
  139.8248  144.6715  150.9474 H   0  0  0  0  0  0  0  0  0  0  0  0  # atno 10167 bound_to 10162
  157.6906  131.0152  150.2741 H   0  0  0  0  0  0  0  0  0  0  0  0  # atno 10718 bound_to 10713
  154.1624  135.6472  153.4989 H   0  0  0  0  0  0  0  0  0  0  0  0  # atno 10763 bound_to 10752
  153.0107  135.5364  154.6697 H   0  0  0  0  0  0  0  0  0  0  0  0  # atno 10764 bound_to 10752
  154.6014  135.2944  155.0503 H   0  0  0  0  0  0  0  0  0  0  0  0  # atno 10765 bound_to 10752
  140.2936  134.7653  157.3858 H   0  0  0  0  0  0  0  0  0  0  0  0  # atno 11005 bound_to 11000
  145.1131  139.2744  143.5627 LP  0  0  0  0  0  0  0  0  0  0  0  0  # atno 17320 bound_to 7965
  146.3531  140.0732  142.8622 LP  0  0  0  0  0  0  0  0  0  0  0  0  # atno 17321 bound_to 7965
  140.7811  143.4057  151.1075 LP  0  0  0  0  0  0  0  0  0  0  0  0  # atno 17342 bound_to 10162
  139.7715  143.8487  152.3121 LP  0  0  0  0  0  0  0  0  0  0  0  0  # atno 17343 bound_to 10162
  156.3298  130.3798  149.7500 LP  0  0  0  0  0  0  0  0  0  0  0  0  # atno 17370 bound_to 10713
  156.5044  130.8143  151.3145 LP  0  0  0  0  0  0  0  0  0  0  0  0  # atno 17371 bound_to 10713
  140.1173  134.5266  155.8214 LP  0  0  0  0  0  0  0  0  0  0  0  0  # atno 17394 bound_to 11000
  141.2141  133.6744  156.6801 LP  0  0  0  0  0  0  0  0  0  0  0  0  # atno 17395 bound_to 11000

$$$$
