AV-unprocessed.smi:1413|AV-procd|sdf|5749|dock3
  -GOLD-   22720 5383D 1   1.00000     0.00000
 Structure written by MMmdl.
 53 55  0  0  0  0  0  0  0  0  1 V2000
  153.4950  141.0143  160.5378 C   0  0  0  0  0  0  0  0  0  0  0  0
  153.0390  141.6368  159.2141 C   0  0  1  0  0  0  0  0  0  0  0  0
  151.9393  140.8010  158.5313 C   0  0  0  0  0  0  0  0  0  0  0  0
  151.4415  141.4861  157.3418 N   0  0  0  0  0  0  0  0  0  0  0  0
  150.6386  140.7078  156.4799 C   0  0  0  0  0  0  0  0  0  0  0  0
  149.3987  140.1953  156.9302 C   0  0  0  0  0  0  0  0  0  0  0  0
  148.6167  139.4141  156.0572 C   0  0  0  0  0  0  0  0  0  0  0  0
  149.0975  139.1577  154.7526 C   0  0  0  0  0  0  0  0  0  0  0  0
  148.3949  138.4007  153.7774 N   0  0  0  0  0  0  0  0  0  0  0  0
  147.0715  138.3657  153.5472 C   0  0  0  0  0  0  0  0  0  0  0  0
  146.2272  139.0225  154.1560 O   0  0  0  0  0  0  0  0  0  0  0  0
  146.7771  137.4974  152.5685 N   0  0  0  0  0  0  0  0  0  0  0  0
  145.4364  137.1573  152.0941 C   0  0  2  0  0  0  0  0  0  0  0  0
  144.5424  136.8758  153.3110 C   0  0  0  0  0  0  0  0  0  0  0  0
  145.4884  135.9529  151.1311 C   0  0  2  0  0  0  0  0  0  0  0  0
  144.1251  135.4168  150.6877 C   0  0  0  0  0  0  0  0  0  0  0  0
  144.4643  133.9937  150.3099 C   0  0  0  0  0  0  0  0  0  0  0  0
  145.4826  133.6220  151.3830 C   0  0  0  0  0  0  0  0  0  0  0  0
  146.1225  134.8394  151.7575 O   0  0  0  0  0  0  0  0  0  0  0  0
  150.3354  139.7231  154.3893 C   0  0  0  0  0  0  0  0  0  0  0  0
  151.0894  140.4678  155.2241 N   0  0  0  0  0  0  0  0  0  0  0  0
  151.0313  142.8647  157.5999 C   0  0  0  0  0  0  0  0  0  0  0  0
  152.1603  143.6405  158.3037 C   0  0  1  0  0  0  0  0  0  0  0  0
  151.7258  145.0560  158.6984 C   0  0  0  0  0  0  0  0  0  0  0  0
  152.5379  142.9426  159.4872 O   0  0  0  0  0  0  0  0  0  0  0  0
  153.8997  140.0140  160.3829 H   0  0  0  0  0  0  0  0  0  0  0  0
  152.6659  140.9355  161.2417 H   0  0  0  0  0  0  0  0  0  0  0  0
  154.2729  141.6189  161.0051 H   0  0  0  0  0  0  0  0  0  0  0  0
  153.9031  141.7163  158.5518 H   0  0  0  0  0  0  0  0  0  0  0  0
  152.3386  139.8170  158.2890 H   0  0  0  0  0  0  0  0  0  0  0  0
  151.1061  140.6444  159.2179 H   0  0  0  0  0  0  0  0  0  0  0  0
  149.0455  140.3797  157.9337 H   0  0  0  0  0  0  0  0  0  0  0  0
  147.6651  139.0378  156.3995 H   0  0  0  0  0  0  0  0  0  0  0  0
  148.9542  137.7441  153.2531 H   0  0  0  0  0  0  0  0  0  0  0  0
  147.5437  137.0105  152.1276 H   0  0  0  0  0  0  0  0  0  0  0  0
  145.0055  138.0067  151.5611 H   0  0  0  0  0  0  0  0  0  0  0  0
  143.5196  136.6518  153.0070 H   0  0  0  0  0  0  0  0  0  0  0  0
  144.5023  137.7390  153.9764 H   0  0  0  0  0  0  0  0  0  0  0  0
  144.9106  136.0267  153.8878 H   0  0  0  0  0  0  0  0  0  0  0  0
  146.0725  136.2071  150.2446 H   0  0  0  0  0  0  0  0  0  0  0  0
  143.4191  135.4218  151.5194 H   0  0  0  0  0  0  0  0  0  0  0  0
  143.6892  135.9844  149.8651 H   0  0  0  0  0  0  0  0  0  0  0  0
  143.5973  133.3328  150.2963 H   0  0  0  0  0  0  0  0  0  0  0  0
  144.9297  133.9695  149.3237 H   0  0  0  0  0  0  0  0  0  0  0  0
  144.9807  133.2129  152.2606 H   0  0  0  0  0  0  0  0  0  0  0  0
  146.2047  132.8848  151.0315 H   0  0  0  0  0  0  0  0  0  0  0  0
  150.7406  139.5676  153.3999 H   0  0  0  0  0  0  0  0  0  0  0  0
  150.7811  143.3626  156.6621 H   0  0  0  0  0  0  0  0  0  0  0  0
  150.1330  142.8626  158.2190 H   0  0  0  0  0  0  0  0  0  0  0  0
  153.0239  143.7149  157.6403 H   0  0  0  0  0  0  0  0  0  0  0  0
  151.4355  145.6366  157.8226 H   0  0  0  0  0  0  0  0  0  0  0  0
  152.5368  145.5881  159.1963 H   0  0  0  0  0  0  0  0  0  0  0  0
  150.8755  145.0319  159.3807 H   0  0  0  0  0  0  0  0  0  0  0  0
  1  2  1  0  0  0  0
  1 26  1  0  0  0  0
  1 27  1  0  0  0  0
  1 28  1  0  0  0  0
  2 25  1  0  0  0  0
  2  3  1  0  0  0  0
  2 29  1  0  0  0  0
  3  4  1  0  0  0  0
  3 30  1  0  0  0  0
  3 31  1  0  0  0  0
  4  5  1  0  0  0  0
  4 22  1  0  0  0  0
  5 21  1  0  0  0  0
  5  6  2  0  0  0  0
  6  7  1  0  0  0  0
  6 32  1  0  0  0  0
  7  8  2  0  0  0  0
  7 33  1  0  0  0  0
  8  9  1  0  0  0  0
  8 20  1  0  0  0  0
  9 10  1  0  0  0  0
  9 34  1  0  0  0  0
 10 11  2  0  0  0  0
 10 12  1  0  0  0  0
 12 13  1  0  0  0  0
 12 35  1  0  0  0  0
 13 14  1  0  0  0  0
 13 15  1  0  0  0  0
 13 36  1  0  0  0  0
 14 37  1  0  0  0  0
 14 38  1  0  0  0  0
 14 39  1  0  0  0  0
 15 19  1  0  0  0  0
 15 16  1  0  0  0  0
 15 40  1  0  0  0  0
 16 17  1  0  0  0  0
 16 41  1  0  0  0  0
 16 42  1  0  0  0  0
 17 18  1  0  0  0  0
 17 43  1  0  0  0  0
 17 44  1  0  0  0  0
 18 19  1  0  0  0  0
 18 45  1  0  0  0  0
 18 46  1  0  0  0  0
 20 21  2  0  0  0  0
 20 47  1  0  0  0  0
 22 23  1  0  0  0  0
 22 48  1  0  0  0  0
 22 49  1  0  0  0  0
 23 24  1  0  0  0  0
 23 25  1  0  0  0  0
 23 50  1  0  0  0  0
 24 51  1  0  0  0  0
 24 52  1  0  0  0  0
 24 53  1  0  0  0  0
M  END
> <s_m_source_file>
AV-unprocessed.smi

> <i_m_source_file_index>
1413

> <i_lp_mmshare_version>
43012

> <i_f3d_flags>
0

> <s_epik_input>
W0NIM11bQ0BASF0xW0NIMl1OKFtDSDJdW0NASF0oTzEpW0NIM10pYzJbY0hdW2NIXWMoW2NIXW4yKVtOSF1DKD1PKVtOSF1bQ0BIXShbQ0gzXSlbQ0BASF0zW0NIMl1bQ0gyXVtDSDJdTzM=

> <s_epik_cmdline>
J2VwaWtfcHl0aG9uJywgJy1waCcsICc3LjAnLCAnLXRuJywgJzgnLCAnLW1hJywgJzIwMCcsICctbWV0YWxfYmluZGluZycsICctaW1hZScsICc8aW5maWxlLm1hZT4nLCAnLW9tYWUnLCAnPG91dGZpbGUubWFlPic=

> <r_lp_tautomer_probability>
1

> <r_epik_Ionization_Penalty>
0.00271172

> <r_epik_Ionization_Penalty_Charging>
0

> <r_epik_Ionization_Penalty_Neutral>
0.00271172

> <r_epik_State_Penalty>
0.00186503

> <r_epik_Charging_Adjusted_Penalty>
0.00186503

> <i_epik_Tot_Q>
0

> <i_epik_Tot_abs_Q>
0

> <r_epik_Metal_State_Penalty>
-0

> <b_epik_Metal_Only>
0

> <s_lp_Force_Field>
OPLS_2005

> <r_lp_Energy>
33.7461

> <b_lp_Chiralities_Consistent>
1

> <s_lp_Variant>
AV-unprocessed.smi:1413-2

> <Gold.Version>
5.8.1

> <Gold.Id.Protein>
6NUR|6NUR_protein|mol2

> <Gold.PLP.Fitness>
51.4875

> <Gold.PLP.PLP>
-43.6210

> <Gold.PLP.part.hbond>
-3.0013

> <Gold.PLP.part.metal>
0.0000

> <Gold.PLP.part.buried>
-5.6903

> <Gold.PLP.part.nonpolar>
-36.1001

> <Gold.PLP.part.repulsive>
0.5107

> <Gold.PLP.ligand.clash>
0.0000

> <Gold.PLP.ligand.torsion>
0.6303

> <Gold.PLP.Chemscore.Hbond>
1.9357

> <Gold.PLP.Chemscore.CHOScore>
0.9890

> <Gold.PLP.Chemscore.Metal>
0.0000

> <Gold.Chemscore.Hbonds>
donor molecule, donor type, donor heavy atom, donor atom, acceptor molecule, acceptor atom, score
      L1  H     9    34       P1  7948  0.94
      L1  H    12    35       P1  7948  1.00
      L1  C    20    47       P1  7957  0.95

> <Gold.PLP.Chemscore.Internal.Correction>
0.3529

> <Gold.Rescore>
     Score         DG    S(hbond)    S(metal)    S(lipo)     H(rot)  DE(clash)    DE(int)     intcor
     19.53     -21.71       1.95        0.00     112.61       1.35       0.38       1.80       ----

> <Gold.Chemscore.Fitness>
19.5272

> <Gold.Chemscore.DG>
-21.7118

> <Gold.Chemscore.ZeroCoef>
-5.4800

> <Gold.Chemscore.Hbond>
1.9475

> <Gold.Chemscore.Metal>
0.0000

> <Gold.Chemscore.Lipo>
112.6124

> <Gold.Chemscore.Internal_Hbond>
0.0000

> <Gold.Chemscore.DEClash>
0.3843

> <Gold.Chemscore.DEInternal>
1.8004

> <Gold.Chemscore.Rot>
1.3471

> <Gold.Chemscore.Internal.Correction>
   9.000000E+99

> <Gold.Chemscore.Hbonds>
donor molecule, donor type, donor heavy atom, donor atom, acceptor molecule, acceptor atom, score
      L1  H     9    34       P1  7948  0.84
      L1  H    12    35       P1  7948  0.99

> <Gold.Chemscore.Hbond.Weighted>
-6.5047

> <Gold.Chemscore.Metal.Weighted>
-0.0000

> <Gold.Chemscore.Lipo.Weighted>
-13.1757

> <Gold.Chemscore.Internal_Hbond.Weighted>
0.0000

> <Gold.Chemscore.DEClash.Weighted>
0.3843

> <Gold.Chemscore.DEInternal.Weighted>
1.8004

> <Gold.Chemscore.Rot.Weighted>
3.4485

> <Gold.Chemscore.Internal.Correction.Weighted>
   9.000000E+99

> <Gold.Protein.RotatedTorsions>
[ 6907 6896 6895 6894 ] final  173.79 input  -60.11 | X-H torsion
[ 7974 7965 7964 7962 ] final  -73.70 input  175.53 | X-H torsion
[ 8008 7997 7996 7995 ] final   62.93 input   59.86 | X-H torsion
[ 10167 10162 10161 10158 ] final   65.00 input  -65.29 | X-H torsion
[ 10718 10713 10712 10709 ] final  -45.38 input   66.30 | X-H torsion
[ 10763 10752 10751 10750 ] final -114.56 input  -60.55 | X-H torsion
[ 11005 11000 10999 10996 ] final  143.65 input  -57.11 | X-H torsion

> <Gold.Protein.ActiveResidues>
 VAL166  LYS551  ARG553  GLY616  TRP617  ASP618  TYR619  PRO620  LYS621  CYS622 
 ASP623  PHE694  ASN695  SER759  ASP760  ASP761  ALA762  ILE779  LEU786  VAL792 
 PHE793  MET794  SER795  GLU796  ALA797  LYS798  CYS799  TRP800  GLU811  SER814 

> <Gold.Protein.RotatedAtoms>
  151.7627  133.3335  159.3422 H   0  0  0  0  0  0  0  0  0  0  0  0  # atno 6907 bound_to 6896
  150.7492  134.6091  159.6086 H   0  0  0  0  0  0  0  0  0  0  0  0  # atno 6908 bound_to 6896
  152.3394  134.7156  160.0319 H   0  0  0  0  0  0  0  0  0  0  0  0  # atno 6909 bound_to 6896
  145.6487  140.9289  143.0996 H   0  0  0  0  0  0  0  0  0  0  0  0  # atno 7974 bound_to 7965
  155.6222  140.3496  155.4656 H   0  0  0  0  0  0  0  0  0  0  0  0  # atno 8008 bound_to 7997
  156.0070  140.1225  157.0515 H   0  0  0  0  0  0  0  0  0  0  0  0  # atno 8009 bound_to 7997
  154.4268  140.1089  156.5762 H   0  0  0  0  0  0  0  0  0  0  0  0  # atno 8010 bound_to 7997
  140.1161  144.4774  150.6948 H   0  0  0  0  0  0  0  0  0  0  0  0  # atno 10167 bound_to 10162
  156.2289  130.4171  149.8899 H   0  0  0  0  0  0  0  0  0  0  0  0  # atno 10718 bound_to 10713
  154.8445  135.4413  154.1525 H   0  0  0  0  0  0  0  0  0  0  0  0  # atno 10763 bound_to 10752
  153.2682  135.6942  153.7513 H   0  0  0  0  0  0  0  0  0  0  0  0  # atno 10764 bound_to 10752
  153.6764  135.3410  155.3142 H   0  0  0  0  0  0  0  0  0  0  0  0  # atno 10765 bound_to 10752
  140.0570  134.9225  157.1118 H   0  0  0  0  0  0  0  0  0  0  0  0  # atno 11005 bound_to 11000
  144.7130  139.8299  143.7408 LP  0  0  0  0  0  0  0  0  0  0  0  0  # atno 17320 bound_to 7965
  146.1221  139.4241  143.0221 LP  0  0  0  0  0  0  0  0  0  0  0  0  # atno 17321 bound_to 7965
  140.6898  143.2370  151.5161 LP  0  0  0  0  0  0  0  0  0  0  0  0  # atno 17342 bound_to 10162
  139.5593  144.2196  152.1665 LP  0  0  0  0  0  0  0  0  0  0  0  0  # atno 17343 bound_to 10162
  156.6520  130.8747  151.3533 LP  0  0  0  0  0  0  0  0  0  0  0  0  # atno 17370 bound_to 10713
  157.7123  130.9455  150.1134 LP  0  0  0  0  0  0  0  0  0  0  0  0  # atno 17371 bound_to 10713
  140.3828  134.2268  155.7170 LP  0  0  0  0  0  0  0  0  0  0  0  0  # atno 17394 bound_to 11000
  141.1956  133.8101  157.0706 LP  0  0  0  0  0  0  0  0  0  0  0  0  # atno 17395 bound_to 11000

$$$$
