AV-unprocessed.smi:1413|AV-procd|sdf|5758|dock8
  -GOLD-   22720 5393D 1   1.00000     0.00000
 Structure written by MMmdl.
 53 55  0  0  0  0  0  0  0  0  1 V2000
  152.7171  144.6641  158.0103 C   0  0  0  0  0  0  0  0  0  0  0  0
  151.6323  144.0819  158.9340 C   0  0  1  0  0  0  0  0  0  0  0  0
  150.8913  142.8758  158.3240 C   0  0  0  0  0  0  0  0  0  0  0  0
  151.7232  141.6762  158.3605 N   0  0  0  0  0  0  0  0  0  0  0  0
  151.2763  140.5967  157.5683 C   0  0  0  0  0  0  0  0  0  0  0  0
  151.3130  140.6870  156.1571 C   0  0  0  0  0  0  0  0  0  0  0  0
  150.8563  139.6004  155.3878 C   0  0  0  0  0  0  0  0  0  0  0  0
  150.3689  138.4503  156.0381 C   0  0  0  0  0  0  0  0  0  0  0  0
  149.9267  137.3672  155.2300 N   0  0  0  0  0  0  0  0  0  0  0  0
  149.7263  136.0841  155.5766 C   0  0  0  0  0  0  0  0  0  0  0  0
  149.8826  135.6164  156.7041 O   0  0  0  0  0  0  0  0  0  0  0  0
  149.3109  135.3607  154.5274 N   0  0  0  0  0  0  0  0  0  0  0  0
  148.9720  133.9398  154.5604 C   0  0  2  0  0  0  0  0  0  0  0  0
  150.2493  133.1096  154.7766 C   0  0  0  0  0  0  0  0  0  0  0  0
  148.2426  133.5625  153.2566 C   0  0  1  0  0  0  0  0  0  0  0  0
  147.8488  132.0879  153.1508 C   0  0  0  0  0  0  0  0  0  0  0  0
  146.6962  132.1463  152.1755 C   0  0  0  0  0  0  0  0  0  0  0  0
  145.9949  133.4328  152.5989 C   0  0  0  0  0  0  0  0  0  0  0  0
  147.0073  134.2696  153.1530 O   0  0  0  0  0  0  0  0  0  0  0  0
  150.3883  138.4421  157.4533 C   0  0  0  0  0  0  0  0  0  0  0  0
  150.8266  139.4818  158.1943 N   0  0  0  0  0  0  0  0  0  0  0  0
  152.2506  141.3839  159.6908 C   0  0  0  0  0  0  0  0  0  0  0  0
  153.0011  142.6053  160.2508 C   0  0  2  0  0  0  0  0  0  0  0  0
  153.4537  142.3843  161.6979 C   0  0  0  0  0  0  0  0  0  0  0  0
  152.1448  143.7468  160.2255 O   0  0  0  0  0  0  0  0  0  0  0  0
  152.2761  145.0360  157.0853 H   0  0  0  0  0  0  0  0  0  0  0  0
  153.4667  143.9231  157.7337 H   0  0  0  0  0  0  0  0  0  0  0  0
  153.2302  145.4979  158.4897 H   0  0  0  0  0  0  0  0  0  0  0  0
  150.8996  144.8729  159.0950 H   0  0  0  0  0  0  0  0  0  0  0  0
  149.9851  142.6765  158.8975 H   0  0  0  0  0  0  0  0  0  0  0  0
  150.5699  143.1236  157.3135 H   0  0  0  0  0  0  0  0  0  0  0  0
  151.6967  141.5648  155.6592 H   0  0  0  0  0  0  0  0  0  0  0  0
  150.8814  139.6541  154.3092 H   0  0  0  0  0  0  0  0  0  0  0  0
  149.6868  137.6090  154.2798 H   0  0  0  0  0  0  0  0  0  0  0  0
  149.2012  135.8296  153.6405 H   0  0  0  0  0  0  0  0  0  0  0  0
  148.2917  133.7559  155.3941 H   0  0  0  0  0  0  0  0  0  0  0  0
  150.0236  132.0461  154.8558 H   0  0  0  0  0  0  0  0  0  0  0  0
  150.7581  133.3991  155.6967 H   0  0  0  0  0  0  0  0  0  0  0  0
  150.9519  133.2406  153.9528 H   0  0  0  0  0  0  0  0  0  0  0  0
  148.8503  133.8320  152.3908 H   0  0  0  0  0  0  0  0  0  0  0  0
  148.6645  131.4515  152.8067 H   0  0  0  0  0  0  0  0  0  0  0  0
  147.5021  131.7105  154.1140 H   0  0  0  0  0  0  0  0  0  0  0  0
  147.0731  132.2405  151.1564 H   0  0  0  0  0  0  0  0  0  0  0  0
  146.0480  131.2708  152.2218 H   0  0  0  0  0  0  0  0  0  0  0  0
  145.4870  133.9202  151.7666 H   0  0  0  0  0  0  0  0  0  0  0  0
  145.2551  133.2280  153.3734 H   0  0  0  0  0  0  0  0  0  0  0  0
  150.0680  137.5882  158.0290 H   0  0  0  0  0  0  0  0  0  0  0  0
  151.4260  141.1110  160.3509 H   0  0  0  0  0  0  0  0  0  0  0  0
  152.9309  140.5321  159.6491 H   0  0  0  0  0  0  0  0  0  0  0  0
  153.8878  142.7975  159.6466 H   0  0  0  0  0  0  0  0  0  0  0  0
  154.1238  141.5276  161.7732 H   0  0  0  0  0  0  0  0  0  0  0  0
  152.6024  142.2030  162.3545 H   0  0  0  0  0  0  0  0  0  0  0  0
  153.9865  143.2569  162.0768 H   0  0  0  0  0  0  0  0  0  0  0  0
  1  2  1  0  0  0  0
  1 26  1  0  0  0  0
  1 27  1  0  0  0  0
  1 28  1  0  0  0  0
  2 25  1  0  0  0  0
  2  3  1  0  0  0  0
  2 29  1  0  0  0  0
  3  4  1  0  0  0  0
  3 30  1  0  0  0  0
  3 31  1  0  0  0  0
  4  5  1  0  0  0  0
  4 22  1  0  0  0  0
  5 21  1  0  0  0  0
  5  6  2  0  0  0  0
  6  7  1  0  0  0  0
  6 32  1  0  0  0  0
  7  8  2  0  0  0  0
  7 33  1  0  0  0  0
  8  9  1  0  0  0  0
  8 20  1  0  0  0  0
  9 10  1  0  0  0  0
  9 34  1  0  0  0  0
 10 11  2  0  0  0  0
 10 12  1  0  0  0  0
 12 13  1  0  0  0  0
 12 35  1  0  0  0  0
 13 14  1  0  0  0  0
 13 15  1  0  0  0  0
 13 36  1  0  0  0  0
 14 37  1  0  0  0  0
 14 38  1  0  0  0  0
 14 39  1  0  0  0  0
 15 19  1  0  0  0  0
 15 16  1  0  0  0  0
 15 40  1  0  0  0  0
 16 17  1  0  0  0  0
 16 41  1  0  0  0  0
 16 42  1  0  0  0  0
 17 18  1  0  0  0  0
 17 43  1  0  0  0  0
 17 44  1  0  0  0  0
 18 19  1  0  0  0  0
 18 45  1  0  0  0  0
 18 46  1  0  0  0  0
 20 21  2  0  0  0  0
 20 47  1  0  0  0  0
 22 23  1  0  0  0  0
 22 48  1  0  0  0  0
 22 49  1  0  0  0  0
 23 24  1  0  0  0  0
 23 25  1  0  0  0  0
 23 50  1  0  0  0  0
 24 51  1  0  0  0  0
 24 52  1  0  0  0  0
 24 53  1  0  0  0  0
M  END
> <s_m_source_file>
AV-unprocessed.smi

> <i_m_source_file_index>
1413

> <i_lp_mmshare_version>
43012

> <i_f3d_flags>
0

> <s_epik_input>
W0NIM11bQ0BASF0xW0NIMl1OKFtDSDJdW0NASF0oTzEpW0NIM10pYzJbY0hdW2NIXWMoW2NIXW4yKVtOSF1DKD1PKVtOSF1bQ0BIXShbQ0gzXSlbQ0BASF0zW0NIMl1bQ0gyXVtDSDJdTzM=

> <s_epik_cmdline>
J2VwaWtfcHl0aG9uJywgJy1waCcsICc3LjAnLCAnLXRuJywgJzgnLCAnLW1hJywgJzIwMCcsICctbWV0YWxfYmluZGluZycsICctaW1hZScsICc8aW5maWxlLm1hZT4nLCAnLW9tYWUnLCAnPG91dGZpbGUubWFlPic=

> <r_lp_tautomer_probability>
1

> <r_epik_Ionization_Penalty>
0.00271172

> <r_epik_Ionization_Penalty_Charging>
0

> <r_epik_Ionization_Penalty_Neutral>
0.00271172

> <r_epik_State_Penalty>
0.00186503

> <r_epik_Charging_Adjusted_Penalty>
0.00186503

> <i_epik_Tot_Q>
0

> <i_epik_Tot_abs_Q>
0

> <r_epik_Metal_State_Penalty>
-0

> <b_epik_Metal_Only>
0

> <s_lp_Force_Field>
OPLS_2005

> <r_lp_Energy>
37.0266

> <b_lp_Chiralities_Consistent>
1

> <s_lp_Variant>
AV-unprocessed.smi:1413-11

> <Gold.Version>
5.8.1

> <Gold.Id.Protein>
6NUR|6NUR_protein|mol2

> <Gold.PLP.Fitness>
46.5530

> <Gold.PLP.PLP>
-44.4586

> <Gold.PLP.part.hbond>
-1.0000

> <Gold.PLP.part.metal>
0.0000

> <Gold.PLP.part.buried>
-6.0619

> <Gold.PLP.part.nonpolar>
-37.5575

> <Gold.PLP.part.repulsive>
0.8243

> <Gold.PLP.ligand.clash>
0.0000

> <Gold.PLP.ligand.torsion>
0.6276

> <Gold.PLP.Chemscore.Hbond>
1.0000

> <Gold.PLP.Chemscore.CHOScore>
0.0000

> <Gold.PLP.Chemscore.Metal>
0.0000

> <Gold.Chemscore.Hbonds>
donor molecule, donor type, donor heavy atom, donor atom, acceptor molecule, acceptor atom, score
      L1  H    12    35       P1  7948  1.00

> <Gold.PLP.Chemscore.Internal.Correction>
0.3495

> <Gold.Rescore>
     Score         DG    S(hbond)    S(metal)    S(lipo)     H(rot)  DE(clash)    DE(int)     intcor
     17.27     -19.30       0.97        0.00     119.84       1.35       0.27       1.75       ----

> <Gold.Chemscore.Fitness>
17.2744

> <Gold.Chemscore.DG>
-19.2954

> <Gold.Chemscore.ZeroCoef>
-5.4800

> <Gold.Chemscore.Hbond>
0.9710

> <Gold.Chemscore.Metal>
0.0000

> <Gold.Chemscore.Lipo>
119.8355

> <Gold.Chemscore.Internal_Hbond>
0.0000

> <Gold.Chemscore.DEClash>
0.2721

> <Gold.Chemscore.DEInternal>
1.7489

> <Gold.Chemscore.Rot>
1.3471

> <Gold.Chemscore.Internal.Correction>
   9.000000E+99

> <Gold.Chemscore.Hbonds>
donor molecule, donor type, donor heavy atom, donor atom, acceptor molecule, acceptor atom, score
      L1  H    12    35       P1  7948  0.74

> <Gold.Chemscore.Hbond.Weighted>
-3.2432

> <Gold.Chemscore.Metal.Weighted>
-0.0000

> <Gold.Chemscore.Lipo.Weighted>
-14.0208

> <Gold.Chemscore.Internal_Hbond.Weighted>
0.0000

> <Gold.Chemscore.DEClash.Weighted>
0.2721

> <Gold.Chemscore.DEInternal.Weighted>
1.7489

> <Gold.Chemscore.Rot.Weighted>
3.4485

> <Gold.Chemscore.Internal.Correction.Weighted>
   9.000000E+99

> <Gold.Protein.RotatedTorsions>
[ 6907 6896 6895 6894 ] final  130.85 input  -60.11 | X-H torsion
[ 7974 7965 7964 7962 ] final  130.15 input  175.53 | X-H torsion
[ 8008 7997 7996 7995 ] final  -99.26 input   59.86 | X-H torsion
[ 10167 10162 10161 10158 ] final  -27.68 input  -65.29 | X-H torsion
[ 10718 10713 10712 10709 ] final  -93.73 input   66.30 | X-H torsion
[ 10763 10752 10751 10750 ] final   32.64 input  -60.55 | X-H torsion
[ 11005 11000 10999 10996 ] final  -96.19 input  -57.11 | X-H torsion

> <Gold.Protein.ActiveResidues>
 VAL166  LYS551  ARG553  GLY616  TRP617  ASP618  TYR619  PRO620  LYS621  CYS622 
 ASP623  PHE694  ASN695  SER759  ASP760  ASP761  ALA762  ILE779  LEU786  VAL792 
 PHE793  MET794  SER795  GLU796  ALA797  LYS798  CYS799  TRP800  GLU811  SER814 

> <Gold.Protein.RotatedAtoms>
  152.3485  133.6151  159.5927 H   0  0  0  0  0  0  0  0  0  0  0  0  # atno 6907 bound_to 6896
  150.7522  133.9611  159.3525 H   0  0  0  0  0  0  0  0  0  0  0  0  # atno 6908 bound_to 6896
  151.7466  135.0843  160.0375 H   0  0  0  0  0  0  0  0  0  0  0  0  # atno 6909 bound_to 6896
  145.0210  139.4132  143.5197 H   0  0  0  0  0  0  0  0  0  0  0  0  # atno 7974 bound_to 7965
  154.8124  140.0449  157.1352 H   0  0  0  0  0  0  0  0  0  0  0  0  # atno 8008 bound_to 7997
  154.9353  140.3045  155.5127 H   0  0  0  0  0  0  0  0  0  0  0  0  # atno 8009 bound_to 7997
  156.2973  140.2315  156.4417 H   0  0  0  0  0  0  0  0  0  0  0  0  # atno 8010 bound_to 7997
  140.7275  143.4073  151.1163 H   0  0  0  0  0  0  0  0  0  0  0  0  # atno 10167 bound_to 10162
  156.0017  130.5039  150.5820 H   0  0  0  0  0  0  0  0  0  0  0  0  # atno 10718 bound_to 10713
  153.0252  135.6408  154.1386 H   0  0  0  0  0  0  0  0  0  0  0  0  # atno 10763 bound_to 10752
  154.1116  135.2852  155.3231 H   0  0  0  0  0  0  0  0  0  0  0  0  # atno 10764 bound_to 10752
  154.6328  135.5487  153.7762 H   0  0  0  0  0  0  0  0  0  0  0  0  # atno 10765 bound_to 10752
  141.1419  133.8080  157.0537 H   0  0  0  0  0  0  0  0  0  0  0  0  # atno 11005 bound_to 11000
  146.3485  139.9708  142.8706 LP  0  0  0  0  0  0  0  0  0  0  0  0  # atno 17320 bound_to 7965
  145.1895  140.9805  143.4219 LP  0  0  0  0  0  0  0  0  0  0  0  0  # atno 17321 bound_to 7965
  139.7702  143.8506  152.3119 LP  0  0  0  0  0  0  0  0  0  0  0  0  # atno 17342 bound_to 10162
  139.8422  144.7205  150.9317 LP  0  0  0  0  0  0  0  0  0  0  0  0  # atno 17343 bound_to 10162
  157.3698  131.0764  151.1567 LP  0  0  0  0  0  0  0  0  0  0  0  0  # atno 17370 bound_to 10713
  157.2324  130.6531  149.5855 LP  0  0  0  0  0  0  0  0  0  0  0  0  # atno 17371 bound_to 10713
  140.0615  134.9752  157.1313 LP  0  0  0  0  0  0  0  0  0  0  0  0  # atno 17394 bound_to 11000
  140.3841  134.2255  155.7169 LP  0  0  0  0  0  0  0  0  0  0  0  0  # atno 17395 bound_to 11000

$$$$
