AV-unprocessed.smi:36|AV-procd|sdf|291|dock5
  -GOLD-   2262016 83D 1   1.00000     0.00000
 Structure written by MMmdl.
 64 67  0  0  0  0  0  0  0  0  1 V2000
  145.7396  137.6659  159.2922 C   0  0  0  0  0  0  0  0  0  0  0  0
  144.7567  136.5371  158.9390 C   0  0  0  0  0  0  0  0  0  0  0  0
  144.7325  135.4989  160.0741 C   0  0  0  0  0  0  0  0  0  0  0  0
  143.3480  137.1165  158.7276 C   0  0  0  0  0  0  0  0  0  0  0  0
  145.3386  135.6818  157.3334 Si  0  0  0  0  0  0  0  0  0  0  0  0
  147.1188  135.0378  157.5153 C   0  0  0  0  0  0  0  0  0  0  0  0
  144.1881  134.2468  156.8592 C   0  0  0  0  0  0  0  0  0  0  0  0
  145.2802  136.8293  156.0893 O   0  0  0  0  0  0  0  0  0  0  0  0
  145.5810  136.5536  154.7362 C   0  0  0  0  0  0  0  0  0  0  0  0
  146.5556  137.6195  154.2112 C   0  0  2  0  0  0  0  0  0  0  0  0
  146.2742  138.8944  154.7748 O   0  0  0  0  0  0  0  0  0  0  0  0
  146.8098  139.8981  153.9653 C   0  0  1  0  0  0  0  0  0  0  0  0
  148.0575  140.4219  154.6055 N   0  0  0  0  0  0  0  0  0  0  0  0
  149.3373  140.2254  154.2293 C   0  0  0  0  0  0  0  0  0  0  0  0
  150.2525  140.8189  154.9919 N   0  0  0  0  0  0  0  0  0  0  0  0
  149.4788  141.4574  155.9555 C   0  0  0  0  0  0  0  0  0  0  0  0
  149.8796  142.2923  157.1092 C   0  0  0  0  0  0  0  0  0  0  0  0
  151.1484  142.5014  157.2917 N   0  0  0  0  0  0  0  0  0  0  0  0
  151.5821  143.2611  158.3711 C   0  0  0  0  0  0  0  0  0  0  0  0
  151.3736  144.4543  158.6079 O   0  0  0  0  0  0  0  0  0  0  0  0
  152.4793  142.5101  159.3021 C   0  0  0  0  0  0  0  0  0  0  0  0
  153.0275  141.2682  158.9150 C   0  0  0  0  0  0  0  0  0  0  0  0
  153.8743  140.5649  159.7938 C   0  0  0  0  0  0  0  0  0  0  0  0
  154.1749  141.0988  161.0618 C   0  0  0  0  0  0  0  0  0  0  0  0
  153.6293  142.3372  161.4516 C   0  0  0  0  0  0  0  0  0  0  0  0
  152.7840  143.0428  160.5730 C   0  0  0  0  0  0  0  0  0  0  0  0
  148.7413  142.7138  157.8088 N   0  0  0  0  0  0  0  0  0  0  0  0
  147.4116  142.4097  157.4784 C   0  0  0  0  0  0  0  0  0  0  0  0
  147.0434  141.6767  156.4617 N   0  0  0  0  0  0  0  0  0  0  0  0
  148.1378  141.2265  155.7370 C   0  0  0  0  0  0  0  0  0  0  0  0
  147.1425  139.2667  152.6043 C   0  0  0  0  0  0  0  0  0  0  0  0
  146.5149  137.8874  152.7037 C   0  0  2  0  0  0  0  0  0  0  0  0
  145.1913  137.8993  152.2028 O   0  0  0  0  0  0  0  0  0  0  0  0
  145.4533  138.1655  160.2181 H   0  0  0  0  0  0  0  0  0  0  0  0
  145.7752  138.4230  158.5086 H   0  0  0  0  0  0  0  0  0  0  0  0
  146.7518  137.2822  159.4247 H   0  0  0  0  0  0  0  0  0  0  0  0
  145.7183  135.0588  160.2294 H   0  0  0  0  0  0  0  0  0  0  0  0
  144.0409  134.6849  159.8561 H   0  0  0  0  0  0  0  0  0  0  0  0
  144.4211  135.9490  161.0173 H   0  0  0  0  0  0  0  0  0  0  0  0
  142.9851  137.6137  159.6278 H   0  0  0  0  0  0  0  0  0  0  0  0
  142.6310  136.3356  158.4729 H   0  0  0  0  0  0  0  0  0  0  0  0
  143.3371  137.8497  157.9206 H   0  0  0  0  0  0  0  0  0  0  0  0
  147.1864  134.2652  158.2809 H   0  0  0  0  0  0  0  0  0  0  0  0
  147.8089  135.8323  157.7980 H   0  0  0  0  0  0  0  0  0  0  0  0
  147.4864  134.6036  156.5859 H   0  0  0  0  0  0  0  0  0  0  0  0
  144.1646  133.4790  157.6323 H   0  0  0  0  0  0  0  0  0  0  0  0
  144.5092  133.7674  155.9348 H   0  0  0  0  0  0  0  0  0  0  0  0
  143.1644  134.5878  156.7074 H   0  0  0  0  0  0  0  0  0  0  0  0
  146.0254  135.5607  154.6597 H   0  0  0  0  0  0  0  0  0  0  0  0
  144.6593  136.5407  154.1542 H   0  0  0  0  0  0  0  0  0  0  0  0
  147.5773  137.3476  154.4775 H   0  0  0  0  0  0  0  0  0  0  0  0
  146.1359  140.7539  153.9111 H   0  0  0  0  0  0  0  0  0  0  0  0
  149.6122  139.6286  153.3722 H   0  0  0  0  0  0  0  0  0  0  0  0
  152.8036  140.8522  157.9433 H   0  0  0  0  0  0  0  0  0  0  0  0
  154.2937  139.6154  159.4947 H   0  0  0  0  0  0  0  0  0  0  0  0
  154.8239  140.5586  161.7353 H   0  0  0  0  0  0  0  0  0  0  0  0
  153.8594  142.7471  162.4239 H   0  0  0  0  0  0  0  0  0  0  0  0
  152.3705  143.9929  160.8794 H   0  0  0  0  0  0  0  0  0  0  0  0
  146.6760  142.8451  158.1561 H   0  0  0  0  0  0  0  0  0  0  0  0
  146.7538  139.8721  151.7846 H   0  0  0  0  0  0  0  0  0  0  0  0
  148.2243  139.1808  152.4881 H   0  0  0  0  0  0  0  0  0  0  0  0
  147.0853  137.1427  152.1481 H   0  0  0  0  0  0  0  0  0  0  0  0
  144.8215  138.7566  152.3484 H   0  0  0  0  0  0  0  0  0  0  0  0
  148.8924  143.2926  158.6225 H   0  0  0  0  0  0  0  0  0  0  0  0
  1  2  1  0  0  0  0
  1 34  1  0  0  0  0
  1 35  1  0  0  0  0
  1 36  1  0  0  0  0
  2  3  1  0  0  0  0
  2  4  1  0  0  0  0
  2  5  1  0  0  0  0
  3 37  1  0  0  0  0
  3 38  1  0  0  0  0
  3 39  1  0  0  0  0
  4 40  1  0  0  0  0
  4 41  1  0  0  0  0
  4 42  1  0  0  0  0
  5  6  1  0  0  0  0
  5  7  1  0  0  0  0
  5  8  1  0  0  0  0
  6 43  1  0  0  0  0
  6 44  1  0  0  0  0
  6 45  1  0  0  0  0
  7 46  1  0  0  0  0
  7 47  1  0  0  0  0
  7 48  1  0  0  0  0
  8  9  1  0  0  0  0
  9 10  1  0  0  0  0
  9 49  1  0  0  0  0
  9 50  1  0  0  0  0
 10 32  1  0  0  0  0
 10 11  1  0  0  0  0
 10 51  1  0  0  0  0
 11 12  1  0  0  0  0
 12 13  1  0  0  0  0
 12 31  1  0  0  0  0
 12 52  1  0  0  0  0
 13 30  1  0  0  0  0
 13 14  1  0  0  0  0
 14 15  2  0  0  0  0
 14 53  1  0  0  0  0
 15 16  1  0  0  0  0
 16 30  2  0  0  0  0
 16 17  1  0  0  0  0
 17 18  2  0  0  0  0
 17 27  1  0  0  0  0
 18 19  1  0  0  0  0
 19 20  2  0  0  0  0
 19 21  1  0  0  0  0
 21 26  1  0  0  0  0
 21 22  2  0  0  0  0
 22 23  1  0  0  0  0
 22 54  1  0  0  0  0
 23 24  2  0  0  0  0
 23 55  1  0  0  0  0
 24 25  1  0  0  0  0
 24 56  1  0  0  0  0
 25 26  2  0  0  0  0
 25 57  1  0  0  0  0
 26 58  1  0  0  0  0
 27 28  1  0  0  0  0
 27 64  1  0  0  0  0
 28 29  2  0  0  0  0
 28 59  1  0  0  0  0
 29 30  1  0  0  0  0
 31 32  1  0  0  0  0
 31 60  1  0  0  0  0
 31 61  1  0  0  0  0
 32 33  1  0  0  0  0
 32 62  1  0  0  0  0
 33 63  1  0  0  0  0
M  END
> <s_m_source_file>
AV-unprocessed.smi

> <i_m_source_file_index>
36

> <i_lp_mmshare_version>
43012

> <i_f3d_flags>
0

> <s_epik_input>
W0NIM11DKFtDSDNdKShbQ0gzXSlbU2ldKFtDSDNdKShbQ0gzXSlPW0NIMl1bQ0BASF0xT1tDQEhdKFtDSDJdW0NASF0xW09IXSluKFtjSF1uMiljKGMyMyluW2NIXW5jM1tOSF1DKD1PKWM0W2NIXVtjSF1bY0hdW2NIXVtjSF00

> <s_epik_cmdline>
J2VwaWtfcHl0aG9uJywgJy1waCcsICc3LjAnLCAnLXRuJywgJzgnLCAnLW1hJywgJzIwMCcsICctbWV0YWxfYmluZGluZycsICctaW1hZScsICc8aW5maWxlLm1hZT4nLCAnLW9tYWUnLCAnPG91dGZpbGUubWFlPic=

> <r_epik_Ionization_Penalty>
0.0850405

> <r_epik_Ionization_Penalty_Charging>
0.0850403

> <r_epik_Ionization_Penalty_Neutral>
1.47497e-07

> <r_epik_State_Penalty>
2.6133

> <r_epik_Charging_Adjusted_Penalty>
2.69834

> <i_epik_Tot_Q>
0

> <i_epik_Tot_abs_Q>
0

> <r_epik_Metal_State_Penalty>
2.92945

> <b_epik_Metal_Only>
0

> <s_epik_Chemistry_Notes>
This compound contains an acetal/aminal-like group ( X-CH(R)-Y where X, Y are N, S, or O) that may be acid/base labile, releasing an aldehyde.

> <s_lp_Force_Field>
OPLS_2005

> <r_lp_Energy>
50.6146

> <b_lp_Chiralities_Consistent>
1

> <s_lp_Variant>
AV-unprocessed.smi:36-13

> <Gold.Version>
5.8.1

> <Gold.Id.Protein>
6NUR|6NUR_protein|mol2

> <Gold.PLP.Fitness>
45.7070

> <Gold.PLP.PLP>
-40.9076

> <Gold.PLP.part.hbond>
-4.0424

> <Gold.PLP.part.metal>
0.0000

> <Gold.PLP.part.buried>
-0.2071

> <Gold.PLP.part.nonpolar>
-36.5639

> <Gold.PLP.part.repulsive>
0.5519

> <Gold.PLP.ligand.clash>
0.0000

> <Gold.PLP.ligand.torsion>
1.5738

> <Gold.PLP.Chemscore.Hbond>
1.5304

> <Gold.PLP.Chemscore.CHOScore>
1.0000

> <Gold.PLP.Chemscore.Metal>
0.0000

> <Gold.Chemscore.Hbonds>
donor molecule, donor type, donor heavy atom, donor atom, acceptor molecule, acceptor atom, score
      L1  H    33    63       P1 10175  0.96
      P1  H  7989  7998       L1    15  0.52
      L1  C    14    53       P1  7957  1.00

> <Gold.PLP.Chemscore.Internal.Correction>
0.3558

> <Gold.Rescore>
     Score         DG    S(hbond)    S(metal)    S(lipo)     H(rot)  DE(clash)    DE(int)     intcor
     10.88     -12.27       1.01        0.00      88.48       2.70       0.08       1.31       ----

> <Gold.Chemscore.Fitness>
10.8767

> <Gold.Chemscore.DG>
-12.2684

> <Gold.Chemscore.ZeroCoef>
-5.4800

> <Gold.Chemscore.Hbond>
1.0055

> <Gold.Chemscore.Metal>
0.0000

> <Gold.Chemscore.Lipo>
88.4827

> <Gold.Chemscore.Internal_Hbond>
0.0000

> <Gold.Chemscore.DEClash>
0.0776

> <Gold.Chemscore.DEInternal>
1.3141

> <Gold.Chemscore.Rot>
2.7041

> <Gold.Chemscore.Internal.Correction>
   9.000000E+99

> <Gold.Chemscore.Hbonds>
donor molecule, donor type, donor heavy atom, donor atom, acceptor molecule, acceptor atom, score
      L1  H    33    63       P1 10175  0.91
      P1  H  7989  7998       L1    15  0.04

> <Gold.Chemscore.Hbond.Weighted>
-3.3585

> <Gold.Chemscore.Metal.Weighted>
-0.0000

> <Gold.Chemscore.Lipo.Weighted>
-10.3525

> <Gold.Chemscore.Internal_Hbond.Weighted>
0.0000

> <Gold.Chemscore.DEClash.Weighted>
0.0776

> <Gold.Chemscore.DEInternal.Weighted>
1.3141

> <Gold.Chemscore.Rot.Weighted>
6.9225

> <Gold.Chemscore.Internal.Correction.Weighted>
   9.000000E+99

> <Gold.Protein.RotatedTorsions>
[ 6907 6896 6895 6894 ] final   69.83 input  -60.11 | X-H torsion
[ 7974 7965 7964 7962 ] final  -28.27 input  175.53 | X-H torsion
[ 8008 7997 7996 7995 ] final  128.41 input   59.86 | X-H torsion
[ 10167 10162 10161 10158 ] final  -40.02 input  -65.29 | X-H torsion
[ 10718 10713 10712 10709 ] final  117.89 input   66.30 | X-H torsion
[ 10763 10752 10751 10750 ] final -166.62 input  -60.55 | X-H torsion
[ 11005 11000 10999 10996 ] final   39.85 input  -57.11 | X-H torsion

> <Gold.Protein.ActiveResidues>
 VAL166  LYS551  ARG553  GLY616  TRP617  ASP618  TYR619  PRO620  LYS621  CYS622 
 ASP623  PHE694  ASN695  SER759  ASP760  ASP761  ALA762  ILE779  LEU786  VAL792 
 PHE793  MET794  SER795  GLU796  ALA797  LYS798  CYS799  TRP800  GLU811  SER814 

> <Gold.Protein.RotatedAtoms>
  152.4711  134.4957  159.9709 H   0  0  0  0  0  0  0  0  0  0  0  0  # atno 6907 bound_to 6896
  151.4984  133.3504  159.2872 H   0  0  0  0  0  0  0  0  0  0  0  0  # atno 6908 bound_to 6896
  150.8722  134.8125  159.7225 H   0  0  0  0  0  0  0  0  0  0  0  0  # atno 6909 bound_to 6896
  146.1300  140.5260  142.8697 H   0  0  0  0  0  0  0  0  0  0  0  0  # atno 7974 bound_to 7965
  156.2914  140.2645  156.2432 H   0  0  0  0  0  0  0  0  0  0  0  0  # atno 8008 bound_to 7997
  154.9957  140.0388  157.2357 H   0  0  0  0  0  0  0  0  0  0  0  0  # atno 8009 bound_to 7997
  154.7647  140.2767  155.6191 H   0  0  0  0  0  0  0  0  0  0  0  0  # atno 8010 bound_to 7997
  140.7047  143.3178  151.2865 H   0  0  0  0  0  0  0  0  0  0  0  0  # atno 10167 bound_to 10162
  157.6066  131.1042  150.7679 H   0  0  0  0  0  0  0  0  0  0  0  0  # atno 10718 bound_to 10713
  154.6815  135.2955  154.9607 H   0  0  0  0  0  0  0  0  0  0  0  0  # atno 10763 bound_to 10752
  154.0600  135.6632  153.4814 H   0  0  0  0  0  0  0  0  0  0  0  0  # atno 10764 bound_to 10752
  153.0550  135.5150  154.7860 H   0  0  0  0  0  0  0  0  0  0  0  0  # atno 10765 bound_to 10752
  140.1988  134.3896  155.8107 H   0  0  0  0  0  0  0  0  0  0  0  0  # atno 11005 bound_to 11000
  144.7681  140.5575  143.6689 LP  0  0  0  0  0  0  0  0  0  0  0  0  # atno 17320 bound_to 7965
  145.5282  139.1475  143.3514 LP  0  0  0  0  0  0  0  0  0  0  0  0  # atno 17321 bound_to 7965
  139.6623  144.0168  152.2700 LP  0  0  0  0  0  0  0  0  0  0  0  0  # atno 17342 bound_to 10162
  139.9739  144.6475  150.7963 LP  0  0  0  0  0  0  0  0  0  0  0  0  # atno 17343 bound_to 10162
  156.8066  130.4938  149.5362 LP  0  0  0  0  0  0  0  0  0  0  0  0  # atno 17370 bound_to 10713
  156.1155  130.6071  151.0113 LP  0  0  0  0  0  0  0  0  0  0  0  0  # atno 17371 bound_to 10713
  141.2227  133.7083  156.8222 LP  0  0  0  0  0  0  0  0  0  0  0  0  # atno 17394 bound_to 11000
  140.2077  134.8850  157.3240 LP  0  0  0  0  0  0  0  0  0  0  0  0  # atno 17395 bound_to 11000

$$$$
