AV-unprocessed.smi:1016|AV-procd|sdf|4437|dock10
  -GOLD-   22720 2393D 1   1.00000     0.00000
 Structure written by MMmdl.
 39 40  0  0  0  0  0  0  0  0  2 V2000
  151.1390  145.2930  158.9004 C   0  0  0  0  0  0  0  0  0  0  0  0
  151.5151  144.3766  160.0266 C   0  0  0  0  0  0  0  0  0  0  0  0
  151.3718  144.7425  161.4228 C   0  0  0  0  0  0  0  0  0  0  0  0
  151.7308  143.8588  162.3786 C   0  0  0  0  0  0  0  0  0  0  0  0
  152.2668  142.5411  162.0446 C   0  0  0  0  0  0  0  0  0  0  0  0
  152.6075  141.7166  162.8920 O   0  0  0  0  0  0  0  0  0  0  0  0
  152.3637  142.3121  160.7010 N   0  0  0  0  0  0  0  0  0  0  0  0
  152.9324  141.0581  160.1794 C   0  0  0  0  0  0  0  0  0  0  0  0
  151.9948  140.2598  159.2555 C   0  0  0  0  0  0  0  0  0  0  0  0
  151.5773  139.1719  159.6481 O   0  0  0  0  0  0  0  0  0  0  0  0
  151.6905  140.8116  158.0634 N   0  0  0  0  0  0  0  0  0  0  0  0
  150.8602  140.3612  156.9367 C   0  0  0  0  0  0  0  0  0  0  0  0
  151.7181  139.2881  156.2178 C   0  0  0  0  0  0  0  0  0  0  0  0
  152.7831  139.6540  155.6723 O   0  0  0  0  0  0  0  0  0  0  0  0
  151.2752  138.1176  156.1800 O   0  5  0  0  0  0  0  0  0  0  0  0
  149.4603  139.7960  157.3388 C   0  0  0  0  0  0  0  0  0  0  0  0
  148.5547  139.4957  156.1282 C   0  0  0  0  0  0  0  0  0  0  0  0
  148.3728  140.7414  155.2493 C   0  0  0  0  0  0  0  0  0  0  0  0
  149.7288  141.3111  154.8097 C   0  0  0  0  0  0  0  0  0  0  0  0
  150.6325  141.6007  156.0243 C   0  0  0  0  0  0  0  0  0  0  0  0
  151.9859  143.2131  159.7183 N   0  0  0  0  0  0  0  0  0  0  0  0
  150.7618  146.2448  159.2752 H   0  0  0  0  0  0  0  0  0  0  0  0
  150.3617  144.8466  158.2796 H   0  0  0  0  0  0  0  0  0  0  0  0
  152.0011  145.5021  158.2663 H   0  0  0  0  0  0  0  0  0  0  0  0
  150.9811  145.7140  161.6869 H   0  0  0  0  0  0  0  0  0  0  0  0
  151.6246  144.1327  163.4179 H   0  0  0  0  0  0  0  0  0  0  0  0
  153.8642  141.2546  159.6463 H   0  0  0  0  0  0  0  0  0  0  0  0
  153.2113  140.4093  161.0115 H   0  0  0  0  0  0  0  0  0  0  0  0
  152.1337  141.7030  157.8934 H   0  0  0  0  0  0  0  0  0  0  0  0
  149.5559  138.8982  157.9510 H   0  0  0  0  0  0  0  0  0  0  0  0
  148.9384  140.5272  157.9572 H   0  0  0  0  0  0  0  0  0  0  0  0
  148.9739  138.6834  155.5336 H   0  0  0  0  0  0  0  0  0  0  0  0
  147.5820  139.1465  156.4751 H   0  0  0  0  0  0  0  0  0  0  0  0
  147.7694  140.4968  154.3748 H   0  0  0  0  0  0  0  0  0  0  0  0
  147.8212  141.5013  155.8039 H   0  0  0  0  0  0  0  0  0  0  0  0
  150.2202  140.6107  154.1337 H   0  0  0  0  0  0  0  0  0  0  0  0
  149.5751  142.2271  154.2388 H   0  0  0  0  0  0  0  0  0  0  0  0
  150.1723  142.3947  156.6145 H   0  0  0  0  0  0  0  0  0  0  0  0
  151.5813  142.0153  155.6802 H   0  0  0  0  0  0  0  0  0  0  0  0
  1  2  1  0  0  0  0
  1 22  1  0  0  0  0
  1 23  1  0  0  0  0
  1 24  1  0  0  0  0
  2 21  2  0  0  0  0
  2  3  1  0  0  0  0
  3  4  2  0  0  0  0
  3 25  1  0  0  0  0
  4  5  1  0  0  0  0
  4 26  1  0  0  0  0
  5  6  2  0  0  0  0
  5  7  1  0  0  0  0
  7  8  1  0  0  0  0
  7 21  1  0  0  0  0
  8  9  1  0  0  0  0
  8 27  1  0  0  0  0
  8 28  1  0  0  0  0
  9 10  2  0  0  0  0
  9 11  1  0  0  0  0
 11 12  1  0  0  0  0
 11 29  1  0  0  0  0
 12 20  1  0  0  0  0
 12 13  1  0  0  0  0
 12 16  1  0  0  0  0
 13 14  2  0  0  0  0
 13 15  1  0  0  0  0
 16 17  1  0  0  0  0
 16 30  1  0  0  0  0
 16 31  1  0  0  0  0
 17 18  1  0  0  0  0
 17 32  1  0  0  0  0
 17 33  1  0  0  0  0
 18 19  1  0  0  0  0
 18 34  1  0  0  0  0
 18 35  1  0  0  0  0
 19 20  1  0  0  0  0
 19 36  1  0  0  0  0
 19 37  1  0  0  0  0
 20 38  1  0  0  0  0
 20 39  1  0  0  0  0
M  CHG  1  15  -1
M  END
> <s_m_source_file>
AV-unprocessed.smi

> <i_m_source_file_index>
1016

> <i_lp_mmshare_version>
43012

> <i_f3d_flags>
0

> <s_epik_input>
W0NIM11jMVtjSF1bY0hdYyg9TyluKG4xKVtDSDJdQyg9TylbTkhdQzIoQyg9TylbT0hdKVtDSDJdW0NIMl1bQ0gyXVtDSDJdW0NIMl0y

> <s_epik_cmdline>
J2VwaWtfcHl0aG9uJywgJy1waCcsICc3LjAnLCAnLXRuJywgJzgnLCAnLW1hJywgJzIwMCcsICctbWV0YWxfYmluZGluZycsICctaW1hZScsICc8aW5maWxlLm1hZT4nLCAnLW9tYWUnLCAnPG91dGZpbGUubWFlPic=

> <r_lp_tautomer_probability>
1

> <r_epik_Ionization_Penalty>
0.000398047

> <r_epik_Ionization_Penalty_Charging>
0.000398029

> <r_epik_Ionization_Penalty_Neutral>
1.87077e-08

> <r_epik_State_Penalty>
0.000243291

> <r_epik_Charging_Adjusted_Penalty>
0.00064132

> <i_epik_Tot_Q>
-1

> <i_epik_Tot_abs_Q>
1

> <r_epik_Metal_State_Penalty>
-0

> <b_epik_Metal_Only>
0

> <s_lp_Force_Field>
OPLS_2005

> <r_lp_Energy>
18.8649

> <b_lp_Chiralities_Consistent>
1

> <s_lp_Variant>
AV-unprocessed.smi:1016-1

> <Gold.Version>
5.8.1

> <Gold.Id.Protein>
6NUR|6NUR_protein|mol2

> <Gold.PLP.Fitness>
49.6928

> <Gold.PLP.PLP>
-43.1867

> <Gold.PLP.part.hbond>
-2.0000

> <Gold.PLP.part.metal>
0.0000

> <Gold.PLP.part.buried>
-5.5426

> <Gold.PLP.part.nonpolar>
-34.4499

> <Gold.PLP.part.repulsive>
0.1472

> <Gold.PLP.ligand.clash>
0.0000

> <Gold.PLP.ligand.torsion>
0.4967

> <Gold.PLP.Chemscore.Hbond>
2.4826

> <Gold.PLP.Chemscore.CHOScore>
0.0000

> <Gold.PLP.Chemscore.Metal>
0.0000

> <Gold.Chemscore.Hbonds>
donor molecule, donor type, donor heavy atom, donor atom, acceptor molecule, acceptor atom, score
      P1  H  7997  8010       L1    14  1.76

> <Gold.PLP.Chemscore.Internal.Correction>
0.0519

> <Gold.Rescore>
     Score         DG    S(hbond)    S(metal)    S(lipo)     H(rot)  DE(clash)    DE(int)     intcor
     11.71     -13.94       1.04        0.00      88.36       2.09       0.97       1.26       ----

> <Gold.Chemscore.Fitness>
11.7080

> <Gold.Chemscore.DG>
-13.9384

> <Gold.Chemscore.ZeroCoef>
-5.4800

> <Gold.Chemscore.Hbond>
1.0403

> <Gold.Chemscore.Metal>
0.0000

> <Gold.Chemscore.Lipo>
88.3646

> <Gold.Chemscore.Internal_Hbond>
0.0000

> <Gold.Chemscore.DEClash>
0.9740

> <Gold.Chemscore.DEInternal>
1.2563

> <Gold.Chemscore.Rot>
2.0918

> <Gold.Chemscore.Internal.Correction>
   9.000000E+99

> <Gold.Chemscore.Hbonds>
donor molecule, donor type, donor heavy atom, donor atom, acceptor molecule, acceptor atom, score
      P1  H  7997  8010       L1    14  0.86

> <Gold.Chemscore.Hbond.Weighted>
-3.4746

> <Gold.Chemscore.Metal.Weighted>
-0.0000

> <Gold.Chemscore.Lipo.Weighted>
-10.3387

> <Gold.Chemscore.Internal_Hbond.Weighted>
0.0000

> <Gold.Chemscore.DEClash.Weighted>
0.9740

> <Gold.Chemscore.DEInternal.Weighted>
1.2563

> <Gold.Chemscore.Rot.Weighted>
5.3549

> <Gold.Chemscore.Internal.Correction.Weighted>
   9.000000E+99

> <Gold.Protein.RotatedTorsions>
[ 6907 6896 6895 6894 ] final  157.87 input  -60.11 | X-H torsion
[ 7974 7965 7964 7962 ] final   76.64 input  175.53 | X-H torsion
[ 8008 7997 7996 7995 ] final  114.56 input   59.86 | X-H torsion
[ 10167 10162 10161 10158 ] final   36.68 input  -65.29 | X-H torsion
[ 10718 10713 10712 10709 ] final  -60.36 input   66.30 | X-H torsion
[ 10763 10752 10751 10750 ] final  -20.86 input  -60.55 | X-H torsion
[ 11005 11000 10999 10996 ] final  173.40 input  -57.11 | X-H torsion

> <Gold.Protein.ActiveResidues>
 VAL166  LYS551  ARG553  GLY616  TRP617  ASP618  TYR619  PRO620  LYS621  CYS622 
 ASP623  PHE694  ASN695  SER759  ASP760  ASP761  ALA762  ILE779  LEU786  VAL792 
 PHE793  MET794  SER795  GLU796  ALA797  LYS798  CYS799  TRP800  GLU811  SER814 

> <Gold.Protein.RotatedAtoms>
  152.0088  133.3853  159.4210 H   0  0  0  0  0  0  0  0  0  0  0  0  # atno 6907 bound_to 6896
  150.6902  134.3754  159.5019 H   0  0  0  0  0  0  0  0  0  0  0  0  # atno 6908 bound_to 6896
  152.1511  134.8987  160.0598 H   0  0  0  0  0  0  0  0  0  0  0  0  # atno 6909 bound_to 6896
  145.7003  139.2580  143.1709 H   0  0  0  0  0  0  0  0  0  0  0  0  # atno 7974 bound_to 7965
  156.2328  140.2956  156.0234 H   0  0  0  0  0  0  0  0  0  0  0  0  # atno 8008 bound_to 7997
  155.2176  140.0414  157.2960 H   0  0  0  0  0  0  0  0  0  0  0  0  # atno 8009 bound_to 7997
  154.6026  140.2431  155.7780 H   0  0  0  0  0  0  0  0  0  0  0  0  # atno 8010 bound_to 7997
  140.4105  144.1599  150.6139 H   0  0  0  0  0  0  0  0  0  0  0  0  # atno 10167 bound_to 10162
  156.0996  130.4188  150.0843 H   0  0  0  0  0  0  0  0  0  0  0  0  # atno 10718 bound_to 10713
  153.6271  135.6990  153.5289 H   0  0  0  0  0  0  0  0  0  0  0  0  # atno 10763 bound_to 10752
  153.2890  135.4163  155.1149 H   0  0  0  0  0  0  0  0  0  0  0  0  # atno 10764 bound_to 10752
  154.8530  135.3620  154.5813 H   0  0  0  0  0  0  0  0  0  0  0  0  # atno 10765 bound_to 10752
  140.3401  134.7283  157.4196 H   0  0  0  0  0  0  0  0  0  0  0  0  # atno 11005 bound_to 11000
  146.0804  140.7770  142.9644 LP  0  0  0  0  0  0  0  0  0  0  0  0  # atno 17320 bound_to 7965
  144.6970  140.3480  143.7187 LP  0  0  0  0  0  0  0  0  0  0  0  0  # atno 17321 bound_to 7965
  140.4643  143.2437  151.9177 LP  0  0  0  0  0  0  0  0  0  0  0  0  # atno 17342 bound_to 10162
  139.4782  144.5435  151.8492 LP  0  0  0  0  0  0  0  0  0  0  0  0  # atno 17343 bound_to 10162
  156.8833  130.9564  151.3597 LP  0  0  0  0  0  0  0  0  0  0  0  0  # atno 17370 bound_to 10713
  157.6164  130.8621  149.9035 LP  0  0  0  0  0  0  0  0  0  0  0  0  # atno 17371 bound_to 10713
  140.0788  134.5760  155.8562 LP  0  0  0  0  0  0  0  0  0  0  0  0  # atno 17394 bound_to 11000
  141.2041  133.6636  156.6099 LP  0  0  0  0  0  0  0  0  0  0  0  0  # atno 17395 bound_to 11000

$$$$
