AV-unprocessed.smi:1406|AV-procd|sdf|5716|dock8
  -GOLD-   22720 5353D 1   1.00000     0.00000
 Structure written by MMmdl.
 41 43  0  0  0  0  0  0  0  0  2 V2000
  149.2638  139.3480  157.2060 C   0  0  0  0  0  0  0  0  0  0  0  0
  149.2649  138.3950  155.9936 C   0  0  1  0  0  0  0  0  0  0  0  0
  148.2556  138.8073  154.9100 C   0  0  0  0  0  0  0  0  0  0  0  0
  148.2865  139.9341  154.4145 O   0  0  0  0  0  0  0  0  0  0  0  0
  147.3532  137.8781  154.5545 N   0  0  0  0  0  0  0  0  0  0  0  0
  146.3302  138.0461  153.5242 C   0  0  1  0  0  0  0  0  0  0  0  0
  146.8497  138.7841  152.2757 C   0  0  0  0  0  0  0  0  0  0  0  0
  146.1973  138.0540  151.0972 C   0  0  0  0  0  0  0  0  0  0  0  0
  146.1259  136.6671  151.5713 N   0  3  2  0  0  0  0  0  0  0  0  0
  145.3298  135.6936  150.7968 C   0  0  0  0  0  0  0  0  0  0  0  0
  145.5728  134.2879  151.3875 C   0  0  0  0  0  0  0  0  0  0  0  0
  145.3322  134.2435  152.9140 C   0  0  0  0  0  0  0  0  0  0  0  0
  146.0895  135.3707  153.6496 C   0  0  0  0  0  0  0  0  0  0  0  0
  145.7401  136.7179  152.9922 C   0  0  1  0  0  0  0  0  0  0  0  0
  150.5947  138.2449  155.4157 N   0  0  0  0  0  0  0  0  0  0  0  0
  151.0082  137.4838  154.4001 C   0  0  0  0  0  0  0  0  0  0  0  0
  152.2928  137.6274  154.1069 N   0  0  0  0  0  0  0  0  0  0  0  0
  152.6365  138.5637  155.0404 C   0  0  0  0  0  0  0  0  0  0  0  0
  151.6548  138.9760  155.8422 N   0  0  0  0  0  0  0  0  0  0  0  0
  148.2739  139.4051  157.6604 H   0  0  0  0  0  0  0  0  0  0  0  0
  149.5605  140.3616  156.9323 H   0  0  0  0  0  0  0  0  0  0  0  0
  149.9549  138.9990  157.9738 H   0  0  0  0  0  0  0  0  0  0  0  0
  148.9617  137.4122  156.3583 H   0  0  0  0  0  0  0  0  0  0  0  0
  147.3966  136.9797  155.0133 H   0  0  0  0  0  0  0  0  0  0  0  0
  145.5119  138.6387  153.9388 H   0  0  0  0  0  0  0  0  0  0  0  0
  146.6156  139.8491  152.2883 H   0  0  0  0  0  0  0  0  0  0  0  0
  147.9343  138.6869  152.2019 H   0  0  0  0  0  0  0  0  0  0  0  0
  145.1908  138.4353  150.9173 H   0  0  0  0  0  0  0  0  0  0  0  0
  146.7730  138.1421  150.1755 H   0  0  0  0  0  0  0  0  0  0  0  0
  144.2715  135.9561  150.8356 H   0  0  0  0  0  0  0  0  0  0  0  0
  145.6329  135.7194  149.7495 H   0  0  0  0  0  0  0  0  0  0  0  0
  144.9365  133.5571  150.8873 H   0  0  0  0  0  0  0  0  0  0  0  0
  146.6013  133.9878  151.1826 H   0  0  0  0  0  0  0  0  0  0  0  0
  144.2637  134.3421  153.1101 H   0  0  0  0  0  0  0  0  0  0  0  0
  145.6273  133.2721  153.3117 H   0  0  0  0  0  0  0  0  0  0  0  0
  145.8097  135.3730  154.7033 H   0  0  0  0  0  0  0  0  0  0  0  0
  147.1648  135.1923  153.6047 H   0  0  0  0  0  0  0  0  0  0  0  0
  144.6547  136.8333  153.0317 H   0  0  0  0  0  0  0  0  0  0  0  0
  150.3550  136.8137  153.8607 H   0  0  0  0  0  0  0  0  0  0  0  0
  153.6381  138.9584  155.1268 H   0  0  0  0  0  0  0  0  0  0  0  0
  147.0784  136.3315  151.5547 H   0  0  0  0  0  0  0  0  0  0  0  0
  1  2  1  0  0  0  0
  1 20  1  0  0  0  0
  1 21  1  0  0  0  0
  1 22  1  0  0  0  0
  2  3  1  0  0  0  0
  2 15  1  0  0  0  0
  2 23  1  0  0  0  0
  3  4  2  0  0  0  0
  3  5  1  0  0  0  0
  5  6  1  0  0  0  0
  5 24  1  0  0  0  0
  6 14  1  0  0  0  0
  6  7  1  0  0  0  0
  6 25  1  0  0  0  0
  7  8  1  0  0  0  0
  7 26  1  0  0  0  0
  7 27  1  0  0  0  0
  8  9  1  0  0  0  0
  8 28  1  0  0  0  0
  8 29  1  0  0  0  0
  9 14  1  0  0  0  0
  9 10  1  0  0  0  0
  9 41  1  0  0  0  0
 10 11  1  0  0  0  0
 10 30  1  0  0  0  0
 10 31  1  0  0  0  0
 11 12  1  0  0  0  0
 11 32  1  0  0  0  0
 11 33  1  0  0  0  0
 12 13  1  0  0  0  0
 12 34  1  0  0  0  0
 12 35  1  0  0  0  0
 13 14  1  0  0  0  0
 13 36  1  0  0  0  0
 13 37  1  0  0  0  0
 14 38  1  0  0  0  0
 15 19  1  0  0  0  0
 15 16  1  0  0  0  0
 16 17  2  0  0  0  0
 16 39  1  0  0  0  0
 17 18  1  0  0  0  0
 18 19  2  0  0  0  0
 18 40  1  0  0  0  0
M  CHG  1   9   1
M  END
> <s_m_source_file>
AV-unprocessed.smi

> <i_m_source_file_index>
1406

> <i_lp_mmshare_version>
43012

> <i_f3d_flags>
0

> <s_epik_input>
bjFbY0hdbltjSF1uMVtDQEhdKFtDSDNdKUMoPU8pW05IXVtDQEhdKFtDSDJdW0NIMl0yKVtDQEBIXShOMjMpW0NIMl1bQ0gyXVtDSDJdW0NIMl0z

> <s_epik_cmdline>
J2VwaWtfcHl0aG9uJywgJy1waCcsICc3LjAnLCAnLXRuJywgJzgnLCAnLW1hJywgJzIwMCcsICctbWV0YWxfYmluZGluZycsICctaW1hZScsICc8aW5maWxlLm1hZT4nLCAnLW9tYWUnLCAnPG91dGZpbGUubWFlPic=

> <r_lp_tautomer_probability>
1

> <r_epik_Ionization_Penalty>
0.00197066

> <r_epik_Ionization_Penalty_Charging>
0.00196223

> <r_epik_Ionization_Penalty_Neutral>
8.43107e-06

> <r_epik_State_Penalty>
0.00133866

> <r_epik_Charging_Adjusted_Penalty>
0.00330089

> <i_epik_Tot_Q>
1

> <i_epik_Tot_abs_Q>
1

> <r_epik_Metal_State_Penalty>
-0

> <b_epik_Metal_Only>
0

> <s_lp_Force_Field>
OPLS_2005

> <r_lp_Energy>
47.4686

> <b_lp_Chiralities_Consistent>
1

> <s_lp_Variant>
AV-unprocessed.smi:1406-8

> <Gold.Version>
5.8.1

> <Gold.Id.Protein>
6NUR|6NUR_protein|mol2

> <Gold.PLP.Fitness>
35.7412

> <Gold.PLP.PLP>
-25.2886

> <Gold.PLP.part.hbond>
-2.0000

> <Gold.PLP.part.metal>
0.0000

> <Gold.PLP.part.buried>
-1.0475

> <Gold.PLP.part.nonpolar>
-23.5727

> <Gold.PLP.part.repulsive>
0.3210

> <Gold.PLP.ligand.clash>
0.0000

> <Gold.PLP.ligand.torsion>
0.4132

> <Gold.PLP.Chemscore.Hbond>
2.7644

> <Gold.PLP.Chemscore.CHOScore>
0.9632

> <Gold.PLP.Chemscore.Metal>
0.0000

> <Gold.Chemscore.Hbonds>
donor molecule, donor type, donor heavy atom, donor atom, acceptor molecule, acceptor atom, score
      L1  H     9    41       P1  7948  2.00
      P1  H 10752 10765       L1    17  0.76
      L1  C    16    39       P1  7948  0.76
      L1  C    16    39       P1  7949  0.20

> <Gold.PLP.Chemscore.Internal.Correction>
0.0961

> <Gold.Rescore>
     Score         DG    S(hbond)    S(metal)    S(lipo)     H(rot)  DE(clash)    DE(int)     intcor
      9.01     -11.10       1.64        0.00      42.52       1.89       0.23       1.86       ----

> <Gold.Chemscore.Fitness>
9.0072

> <Gold.Chemscore.DG>
-11.1007

> <Gold.Chemscore.ZeroCoef>
-5.4800

> <Gold.Chemscore.Hbond>
1.6395

> <Gold.Chemscore.Metal>
0.0000

> <Gold.Chemscore.Lipo>
42.5172

> <Gold.Chemscore.Internal_Hbond>
0.0000

> <Gold.Chemscore.DEClash>
0.2350

> <Gold.Chemscore.DEInternal>
1.8586

> <Gold.Chemscore.Rot>
1.8865

> <Gold.Chemscore.Internal.Correction>
   9.000000E+99

> <Gold.Chemscore.Hbonds>
donor molecule, donor type, donor heavy atom, donor atom, acceptor molecule, acceptor atom, score
      L1  H     9    41       P1  7948  1.00
      P1  H 10752 10765       L1    17  0.32

> <Gold.Chemscore.Hbond.Weighted>
-5.4758

> <Gold.Chemscore.Metal.Weighted>
-0.0000

> <Gold.Chemscore.Lipo.Weighted>
-4.9745

> <Gold.Chemscore.Internal_Hbond.Weighted>
0.0000

> <Gold.Chemscore.DEClash.Weighted>
0.2350

> <Gold.Chemscore.DEInternal.Weighted>
1.8586

> <Gold.Chemscore.Rot.Weighted>
4.8295

> <Gold.Chemscore.Internal.Correction.Weighted>
   9.000000E+99

> <Gold.Protein.RotatedTorsions>
[ 6907 6896 6895 6894 ] final  124.71 input  -60.11 | X-H torsion
[ 7974 7965 7964 7962 ] final -112.99 input  175.53 | X-H torsion
[ 8008 7997 7996 7995 ] final  -25.95 input   59.86 | X-H torsion
[ 10167 10162 10161 10158 ] final  -50.71 input  -65.29 | X-H torsion
[ 10718 10713 10712 10709 ] final -178.47 input   66.30 | X-H torsion
[ 10763 10752 10751 10750 ] final  150.46 input  -60.55 | X-H torsion
[ 11005 11000 10999 10996 ] final -110.40 input  -57.11 | X-H torsion

> <Gold.Protein.ActiveResidues>
 VAL166  LYS551  ARG553  GLY616  TRP617  ASP618  TYR619  PRO620  LYS621  CYS622 
 ASP623  PHE694  ASN695  SER759  ASP760  ASP761  ALA762  ILE779  LEU786  VAL792 
 PHE793  MET794  SER795  GLU796  ALA797  LYS798  CYS799  TRP800  GLU811  SER814 

> <Gold.Protein.RotatedAtoms>
  152.4055  133.6882  159.6352 H   0  0  0  0  0  0  0  0  0  0  0  0  # atno 6907 bound_to 6896
  150.7940  133.8717  159.3269 H   0  0  0  0  0  0  0  0  0  0  0  0  # atno 6908 bound_to 6896
  151.6473  135.1007  160.0205 H   0  0  0  0  0  0  0  0  0  0  0  0  # atno 6909 bound_to 6896
  145.1373  140.8758  143.3722 H   0  0  0  0  0  0  0  0  0  0  0  0  # atno 7974 bound_to 7965
  154.4449  140.1912  156.0699 H   0  0  0  0  0  0  0  0  0  0  0  0  # atno 8008 bound_to 7997
  156.0519  140.3307  155.7334 H   0  0  0  0  0  0  0  0  0  0  0  0  # atno 8009 bound_to 7997
  155.5544  140.0598  157.2833 H   0  0  0  0  0  0  0  0  0  0  0  0  # atno 8010 bound_to 7997
  140.6624  143.2647  151.4398 H   0  0  0  0  0  0  0  0  0  0  0  0  # atno 10167 bound_to 10162
  156.8447  130.9698  151.3097 H   0  0  0  0  0  0  0  0  0  0  0  0  # atno 10718 bound_to 10713
  154.0878  135.2854  155.3277 H   0  0  0  0  0  0  0  0  0  0  0  0  # atno 10763 bound_to 10752
  154.6641  135.5324  153.8057 H   0  0  0  0  0  0  0  0  0  0  0  0  # atno 10764 bound_to 10752
  153.0425  135.6541  154.1049 H   0  0  0  0  0  0  0  0  0  0  0  0  # atno 10765 bound_to 10752
  141.0794  133.9246  157.2322 H   0  0  0  0  0  0  0  0  0  0  0  0  # atno 11005 bound_to 11000
  145.0570  139.3136  143.5900 LP  0  0  0  0  0  0  0  0  0  0  0  0  # atno 17320 bound_to 7965
  146.3508  139.9998  142.8677 LP  0  0  0  0  0  0  0  0  0  0  0  0  # atno 17321 bound_to 7965
  139.5862  144.1599  152.2032 LP  0  0  0  0  0  0  0  0  0  0  0  0  # atno 17342 bound_to 10162
  140.0939  144.5597  150.7035 LP  0  0  0  0  0  0  0  0  0  0  0  0  # atno 17343 bound_to 10162
  157.6336  130.8749  149.9319 LP  0  0  0  0  0  0  0  0  0  0  0  0  # atno 17370 bound_to 10713
  156.0861  130.3668  150.0485 LP  0  0  0  0  0  0  0  0  0  0  0  0  # atno 17371 bound_to 10713
  139.9607  135.0155  156.9252 LP  0  0  0  0  0  0  0  0  0  0  0  0  # atno 17394 bound_to 11000
  140.5503  134.0634  155.7367 LP  0  0  0  0  0  0  0  0  0  0  0  0  # atno 17395 bound_to 11000

$$$$
