AV-unprocessed.smi:3122|AV-procd|sdf|11896|dock2
  -GOLD-   2272017283D 1   1.00000     0.00000
 Structure written by MMmdl.
 30 31  0  0  0  0  0  0  0  0  2 V2000
  152.2868  143.7587  161.6049 C   0  0  0  0  0  0  0  0  0  0  0  0
  152.7552  143.6999  160.1442 C   0  0  0  0  0  0  0  0  0  0  0  0
  151.9992  144.6937  159.2501 C   0  0  0  0  0  0  0  0  0  0  0  0
  152.6961  142.3055  159.6041 C   0  0  0  0  0  0  0  0  0  0  0  0
  153.2952  141.2169  160.0951 N   0  0  0  0  0  0  0  0  0  0  0  0
  153.0035  140.1977  159.2176 N   0  0  0  0  0  0  0  0  0  0  0  0
  152.2889  140.7558  158.2366 C   0  0  0  0  0  0  0  0  0  0  0  0
  151.6714  140.0773  157.0567 C   0  0  2  0  0  0  0  0  0  0  0  0
  150.7056  138.9503  157.4691 C   0  0  0  0  0  0  0  0  0  0  0  0
  150.2005  138.2543  156.2694 N   0  3  0  0  0  0  0  0  0  0  0  0
  151.3066  137.7647  155.4225 C   0  0  0  0  0  0  0  0  0  0  0  0
  152.2622  138.9208  155.0778 C   0  0  0  0  0  0  0  0  0  0  0  0
  152.7315  139.5300  156.2761 O   0  0  0  0  0  0  0  0  0  0  0  0
  152.0566  142.0806  158.4263 O   0  0  0  0  0  0  0  0  0  0  0  0
  152.8841  143.0999  162.2359 H   0  0  0  0  0  0  0  0  0  0  0  0
  151.2438  143.4541  161.6990 H   0  0  0  0  0  0  0  0  0  0  0  0
  152.3756  144.7689  162.0053 H   0  0  0  0  0  0  0  0  0  0  0  0
  153.8041  143.9995  160.1331 H   0  0  0  0  0  0  0  0  0  0  0  0
  152.3912  144.6817  158.2326 H   0  0  0  0  0  0  0  0  0  0  0  0
  152.0942  145.7121  159.6279 H   0  0  0  0  0  0  0  0  0  0  0  0
  150.9359  144.4560  159.2006 H   0  0  0  0  0  0  0  0  0  0  0  0
  151.1430  140.8311  156.4698 H   0  0  0  0  0  0  0  0  0  0  0  0
  151.2138  138.2294  158.1115 H   0  0  0  0  0  0  0  0  0  0  0  0
  149.8643  139.3500  158.0361 H   0  0  0  0  0  0  0  0  0  0  0  0
  149.6219  137.4753  156.5507 H   0  0  0  0  0  0  0  0  0  0  0  0
  151.8438  136.9778  155.9535 H   0  0  0  0  0  0  0  0  0  0  0  0
  150.8984  137.3202  154.5147 H   0  0  0  0  0  0  0  0  0  0  0  0
  153.1166  138.5469  154.5134 H   0  0  0  0  0  0  0  0  0  0  0  0
  151.7657  139.6626  154.4503 H   0  0  0  0  0  0  0  0  0  0  0  0
  149.6424  138.9008  155.7299 H   0  0  0  0  0  0  0  0  0  0  0  0
  1  2  1  0  0  0  0
  1 15  1  0  0  0  0
  1 16  1  0  0  0  0
  1 17  1  0  0  0  0
  2  3  1  0  0  0  0
  2  4  1  0  0  0  0
  2 18  1  0  0  0  0
  3 19  1  0  0  0  0
  3 20  1  0  0  0  0
  3 21  1  0  0  0  0
  4 14  1  0  0  0  0
  4  5  2  0  0  0  0
  5  6  1  0  0  0  0
  6  7  2  0  0  0  0
  7  8  1  0  0  0  0
  7 14  1  0  0  0  0
  8 13  1  0  0  0  0
  8  9  1  0  0  0  0
  8 22  1  0  0  0  0
  9 10  1  0  0  0  0
  9 23  1  0  0  0  0
  9 24  1  0  0  0  0
 10 11  1  0  0  0  0
 10 25  1  0  0  0  0
 10 30  1  0  0  0  0
 11 12  1  0  0  0  0
 11 26  1  0  0  0  0
 11 27  1  0  0  0  0
 12 13  1  0  0  0  0
 12 28  1  0  0  0  0
 12 29  1  0  0  0  0
M  CHG  1  10   1
M  END
> <s_m_source_file>
AV-unprocessed.smi

> <i_m_source_file_index>
3122

> <i_lp_mmshare_version>
43012

> <i_f3d_flags>
0

> <s_epik_input>
W0NIM11bQ0hdKFtDSDNdKWMxbm5jKG8xKVtDQEBIXTJbQ0gyXVtOSF1bQ0gyXVtDSDJdTzI=

> <s_epik_cmdline>
J2VwaWtfcHl0aG9uJywgJy1waCcsICc3LjAnLCAnLXRuJywgJzgnLCAnLW1hJywgJzIwMCcsICctbWV0YWxfYmluZGluZycsICctaW1hZScsICc8aW5maWxlLm1hZT4nLCAnLW9tYWUnLCAnPG91dGZpbGUubWFlPic=

> <r_lp_tautomer_probability>
1

> <r_epik_Ionization_Penalty>
0.0380945

> <r_epik_Ionization_Penalty_Charging>
0.0380945

> <r_epik_Ionization_Penalty_Neutral>
3.26791e-13

> <r_epik_State_Penalty>
0.0319257

> <r_epik_Charging_Adjusted_Penalty>
0.0700202

> <i_epik_Tot_Q>
1

> <i_epik_Tot_abs_Q>
1

> <r_epik_Metal_State_Penalty>
0.0319257

> <b_epik_Metal_Only>
0

> <s_lp_Force_Field>
OPLS_2005

> <r_lp_Energy>
10.6056

> <b_lp_Chiralities_Consistent>
1

> <s_lp_Variant>
AV-unprocessed.smi:3122-1

> <Gold.Version>
5.8.1

> <Gold.Id.Protein>
6NUR|6NUR_protein|mol2

> <Gold.PLP.Fitness>
31.9631

> <Gold.PLP.PLP>
-28.9929

> <Gold.PLP.part.hbond>
-1.0000

> <Gold.PLP.part.metal>
0.0000

> <Gold.PLP.part.buried>
-4.7895

> <Gold.PLP.part.nonpolar>
-23.5454

> <Gold.PLP.part.repulsive>
0.0066

> <Gold.PLP.ligand.clash>
0.0000

> <Gold.PLP.ligand.torsion>
0.0632

> <Gold.PLP.Chemscore.Hbond>
1.0000

> <Gold.PLP.Chemscore.CHOScore>
0.0000

> <Gold.PLP.Chemscore.Metal>
0.0000

> <Gold.Chemscore.Hbonds>
donor molecule, donor type, donor heavy atom, donor atom, acceptor molecule, acceptor atom, score
      P1  H  7997  8009       L1    13  1.00

> <Gold.PLP.Chemscore.Internal.Correction>
0.0966

> <Gold.Rescore>
     Score         DG    S(hbond)    S(metal)    S(lipo)     H(rot)  DE(clash)    DE(int)     intcor
     12.90     -12.97       0.97        0.00      63.82       1.26       0.01       0.05       ----

> <Gold.Chemscore.Fitness>
12.9038

> <Gold.Chemscore.DG>
-12.9657

> <Gold.Chemscore.ZeroCoef>
-5.4800

> <Gold.Chemscore.Hbond>
0.9734

> <Gold.Chemscore.Metal>
0.0000

> <Gold.Chemscore.Lipo>
63.8162

> <Gold.Chemscore.Internal_Hbond>
0.0000

> <Gold.Chemscore.DEClash>
0.0126

> <Gold.Chemscore.DEInternal>
0.0493

> <Gold.Chemscore.Rot>
1.2625

> <Gold.Chemscore.Internal.Correction>
   9.000000E+99

> <Gold.Chemscore.Hbonds>
donor molecule, donor type, donor heavy atom, donor atom, acceptor molecule, acceptor atom, score
      P1  H  7997  8009       L1    13  0.90

> <Gold.Chemscore.Hbond.Weighted>
-3.2512

> <Gold.Chemscore.Metal.Weighted>
-0.0000

> <Gold.Chemscore.Lipo.Weighted>
-7.4665

> <Gold.Chemscore.Internal_Hbond.Weighted>
0.0000

> <Gold.Chemscore.DEClash.Weighted>
0.0126

> <Gold.Chemscore.DEInternal.Weighted>
0.0493

> <Gold.Chemscore.Rot.Weighted>
3.2320

> <Gold.Chemscore.Internal.Correction.Weighted>
   9.000000E+99

> <Gold.Protein.RotatedTorsions>
[ 6907 6896 6895 6894 ] final   37.47 input  -60.11 | X-H torsion
[ 7974 7965 7964 7962 ] final   99.46 input  175.53 | X-H torsion
[ 8008 7997 7996 7995 ] final -153.88 input   59.86 | X-H torsion
[ 10167 10162 10161 10158 ] final  -57.64 input  -65.29 | X-H torsion
[ 10718 10713 10712 10709 ] final   10.91 input   66.30 | X-H torsion
[ 10763 10752 10751 10750 ] final -168.90 input  -60.55 | X-H torsion
[ 11005 11000 10999 10996 ] final  -13.16 input  -57.11 | X-H torsion

> <Gold.Protein.ActiveResidues>
 VAL166  LYS551  ARG553  GLY616  TRP617  ASP618  TYR619  PRO620  LYS621  CYS622 
 ASP623  PHE694  ASN695  SER759  ASP760  ASP761  ALA762  ILE779  LEU786  VAL792 
 PHE793  MET794  SER795  GLU796  ALA797  LYS798  CYS799  TRP800  GLU811  SER814 

> <Gold.Protein.RotatedAtoms>
  152.1436  134.9043  160.0552 H   0  0  0  0  0  0  0  0  0  0  0  0  # atno 6907 bound_to 6896
  152.0101  133.3853  159.4224 H   0  0  0  0  0  0  0  0  0  0  0  0  # atno 6908 bound_to 6896
  150.6868  134.3661  159.5015 H   0  0  0  0  0  0  0  0  0  0  0  0  # atno 6909 bound_to 6896
  145.3986  139.2351  143.3312 H   0  0  0  0  0  0  0  0  0  0  0  0  # atno 7974 bound_to 7965
  155.6777  140.0740  157.2496 H   0  0  0  0  0  0  0  0  0  0  0  0  # atno 8008 bound_to 7997
  154.4111  140.1687  156.2000 H   0  0  0  0  0  0  0  0  0  0  0  0  # atno 8009 bound_to 7997
  155.9562  140.3373  155.6453 H   0  0  0  0  0  0  0  0  0  0  0  0  # atno 8010 bound_to 7997
  140.6246  143.2433  151.5397 H   0  0  0  0  0  0  0  0  0  0  0  0  # atno 10167 bound_to 10162
  156.9879  130.6031  149.5683 H   0  0  0  0  0  0  0  0  0  0  0  0  # atno 10718 bound_to 10713
  154.6580  135.2921  154.9903 H   0  0  0  0  0  0  0  0  0  0  0  0  # atno 10763 bound_to 10752
  154.0973  135.6582  153.4866 H   0  0  0  0  0  0  0  0  0  0  0  0  # atno 10764 bound_to 10752
  153.0413  135.5234  154.7518 H   0  0  0  0  0  0  0  0  0  0  0  0  # atno 10765 bound_to 10752
  140.7733  133.8421  155.9226 H   0  0  0  0  0  0  0  0  0  0  0  0  # atno 11005 bound_to 11000
  146.2763  140.4680  142.8794 LP  0  0  0  0  0  0  0  0  0  0  0  0  # atno 17320 bound_to 7965
  144.8390  140.6827  143.6242 LP  0  0  0  0  0  0  0  0  0  0  0  0  # atno 17321 bound_to 7965
  139.5468  144.2500  152.1457 LP  0  0  0  0  0  0  0  0  0  0  0  0  # atno 17342 bound_to 10162
  140.1728  144.4919  150.6570 LP  0  0  0  0  0  0  0  0  0  0  0  0  # atno 17343 bound_to 10162
  156.0218  130.5313  150.8298 LP  0  0  0  0  0  0  0  0  0  0  0  0  # atno 17370 bound_to 10713
  157.5480  131.0943  150.9736 LP  0  0  0  0  0  0  0  0  0  0  0  0  # atno 17371 bound_to 10713
  140.9553  134.1726  157.4696 LP  0  0  0  0  0  0  0  0  0  0  0  0  # atno 17394 bound_to 11000
  139.8752  134.9924  156.5597 LP  0  0  0  0  0  0  0  0  0  0  0  0  # atno 17395 bound_to 11000

$$$$
