AV-unprocessed.smi:1677|AV-procd|sdf|6727|dock10
  -GOLD-   22720 7473D 1   1.00000     0.00000
 Structure written by MMmdl.
 36 37  0  0  0  0  0  0  0  0  1 V2000
  149.5249  138.4557  156.6245 C   0  0  0  0  0  0  0  0  0  0  0  0
  150.6625  139.3543  156.1124 C   0  0  1  0  0  0  0  0  0  0  0  0
  150.5072  139.7489  154.6278 C   0  0  0  0  0  0  0  0  0  0  0  0
  149.1631  140.1857  154.3006 N   0  0  0  0  0  0  0  0  0  0  0  0
  148.1928  139.4638  153.6182 C   0  0  0  0  0  0  0  0  0  0  0  0
  147.0830  140.2745  153.5385 C   0  0  0  0  0  0  0  0  0  0  0  0
  147.3473  141.4934  154.1590 N   0  0  0  0  0  0  0  0  0  0  0  0
  148.5983  141.3680  154.5830 C   0  0  0  0  0  0  0  0  0  0  0  0
  150.7342  140.5518  156.9441 N   0  0  0  0  0  0  0  0  0  0  0  0
  151.7693  140.8969  157.7261 C   0  0  0  0  0  0  0  0  0  0  0  0
  152.7997  140.2289  157.8170 O   0  0  0  0  0  0  0  0  0  0  0  0
  151.6172  142.1988  158.5239 C   0  0  1  0  0  0  0  0  0  0  0  0
  152.7823  142.3786  159.5234 C   0  0  0  0  0  0  0  0  0  0  0  0
  152.7904  143.7627  160.1482 C   0  0  0  0  0  0  0  0  0  0  0  0
  152.1023  144.8033  159.6480 C   0  0  0  0  0  0  0  0  0  0  0  0
  151.2439  144.7148  158.3983 C   0  0  0  0  0  0  0  0  0  0  0  0
  151.5111  143.4263  157.5963 C   0  0  0  0  0  0  0  0  0  0  0  0
  149.4921  137.5069  156.0888 H   0  0  0  0  0  0  0  0  0  0  0  0
  148.5542  138.9387  156.5075 H   0  0  0  0  0  0  0  0  0  0  0  0
  149.6559  138.2235  157.6819 H   0  0  0  0  0  0  0  0  0  0  0  0
  151.5931  138.7947  156.2266 H   0  0  0  0  0  0  0  0  0  0  0  0
  151.2038  140.5491  154.3728 H   0  0  0  0  0  0  0  0  0  0  0  0
  150.7523  138.9050  153.9813 H   0  0  0  0  0  0  0  0  0  0  0  0
  148.3678  138.4608  153.2576 H   0  0  0  0  0  0  0  0  0  0  0  0
  146.1229  140.0760  153.0854 H   0  0  0  0  0  0  0  0  0  0  0  0
  149.1142  142.1527  155.1167 H   0  0  0  0  0  0  0  0  0  0  0  0
  149.9308  141.1632  156.9292 H   0  0  0  0  0  0  0  0  0  0  0  0
  150.6886  142.1399  159.0951 H   0  0  0  0  0  0  0  0  0  0  0  0
  152.7021  141.6383  160.3202 H   0  0  0  0  0  0  0  0  0  0  0  0
  153.7478  142.2220  159.0403 H   0  0  0  0  0  0  0  0  0  0  0  0
  153.3970  143.8949  161.0322 H   0  0  0  0  0  0  0  0  0  0  0  0
  152.1381  145.7603  160.1476 H   0  0  0  0  0  0  0  0  0  0  0  0
  150.1981  144.7589  158.7040 H   0  0  0  0  0  0  0  0  0  0  0  0
  151.4291  145.5874  157.7717 H   0  0  0  0  0  0  0  0  0  0  0  0
  152.4418  143.5426  157.0381 H   0  0  0  0  0  0  0  0  0  0  0  0
  150.7238  143.2857  156.8545 H   0  0  0  0  0  0  0  0  0  0  0  0
  1  2  1  0  0  0  0
  1 18  1  0  0  0  0
  1 19  1  0  0  0  0
  1 20  1  0  0  0  0
  2  3  1  0  0  0  0
  2  9  1  0  0  0  0
  2 21  1  0  0  0  0
  3  4  1  0  0  0  0
  3 22  1  0  0  0  0
  3 23  1  0  0  0  0
  4  8  1  0  0  0  0
  4  5  1  0  0  0  0
  5  6  2  0  0  0  0
  5 24  1  0  0  0  0
  6  7  1  0  0  0  0
  6 25  1  0  0  0  0
  7  8  2  0  0  0  0
  8 26  1  0  0  0  0
  9 10  1  0  0  0  0
  9 27  1  0  0  0  0
 10 11  2  0  0  0  0
 10 12  1  0  0  0  0
 12 17  1  0  0  0  0
 12 13  1  0  0  0  0
 12 28  1  0  0  0  0
 13 14  1  0  0  0  0
 13 29  1  0  0  0  0
 13 30  1  0  0  0  0
 14 15  2  0  0  0  0
 14 31  1  0  0  0  0
 15 16  1  0  0  0  0
 15 32  1  0  0  0  0
 16 17  1  0  0  0  0
 16 33  1  0  0  0  0
 16 34  1  0  0  0  0
 17 35  1  0  0  0  0
 17 36  1  0  0  0  0
M  END
> <s_m_source_file>
AV-unprocessed.smi

> <i_m_source_file_index>
1677

> <i_lp_mmshare_version>
43012

> <i_f3d_flags>
0

> <s_epik_input>
W2NIXTFuW2NIXVtjSF1uMVtDSDJdW0NAQEhdKFtDSDNdKVtOSF1DKD1PKVtDQEBIXTJbQ0gyXVtDSF09W0NIXVtDSDJdW0NIMl0y

> <s_epik_cmdline>
J2VwaWtfcHl0aG9uJywgJy1waCcsICc3LjAnLCAnLXRuJywgJzgnLCAnLW1hJywgJzIwMCcsICctbWV0YWxfYmluZGluZycsICctaW1hZScsICc8aW5maWxlLm1hZT4nLCAnLW9tYWUnLCAnPG91dGZpbGUubWFlPic=

> <r_lp_tautomer_probability>
1

> <r_epik_Ionization_Penalty>
0.640435

> <r_epik_Ionization_Penalty_Charging>
0.640435

> <r_epik_Ionization_Penalty_Neutral>
2.11108e-08

> <r_epik_State_Penalty>
0.658069

> <r_epik_Charging_Adjusted_Penalty>
1.2985

> <i_epik_Tot_Q>
0

> <i_epik_Tot_abs_Q>
0

> <r_epik_Metal_State_Penalty>
0.311689

> <b_epik_Metal_Only>
0

> <s_lp_Force_Field>
OPLS_2005

> <r_lp_Energy>
10.2331

> <b_lp_Chiralities_Consistent>
1

> <s_lp_Variant>
AV-unprocessed.smi:1677-8

> <Gold.Version>
5.8.1

> <Gold.Id.Protein>
6NUR|6NUR_protein|mol2

> <Gold.PLP.Fitness>
44.5310

> <Gold.PLP.PLP>
-35.3032

> <Gold.PLP.part.hbond>
-1.0000

> <Gold.PLP.part.metal>
0.0000

> <Gold.PLP.part.buried>
-0.3201

> <Gold.PLP.part.nonpolar>
-33.3172

> <Gold.PLP.part.repulsive>
0.2026

> <Gold.PLP.ligand.clash>
0.0000

> <Gold.PLP.ligand.torsion>
0.4124

> <Gold.PLP.Chemscore.Hbond>
1.0000

> <Gold.PLP.Chemscore.CHOScore>
2.3393

> <Gold.PLP.Chemscore.Metal>
0.0000

> <Gold.Chemscore.Hbonds>
donor molecule, donor type, donor heavy atom, donor atom, acceptor molecule, acceptor atom, score
      P1  H  7997  8009       L1    11  0.98
      L1  C     5    24       P1  7948  0.64
      L1  C     6    25       P1 10175  0.96
      L1  C     8    26       P1  8028  0.76

> <Gold.PLP.Chemscore.Internal.Correction>
0.0348

> <Gold.Rescore>
     Score         DG    S(hbond)    S(metal)    S(lipo)     H(rot)  DE(clash)    DE(int)     intcor
     15.06     -15.47       0.97        0.00      95.97       1.75       0.04       0.37       ----

> <Gold.Chemscore.Fitness>
15.0603

> <Gold.Chemscore.DG>
-15.4682

> <Gold.Chemscore.ZeroCoef>
-5.4800

> <Gold.Chemscore.Hbond>
0.9681

> <Gold.Chemscore.Metal>
0.0000

> <Gold.Chemscore.Lipo>
95.9678

> <Gold.Chemscore.Internal_Hbond>
0.0000

> <Gold.Chemscore.DEClash>
0.0421

> <Gold.Chemscore.DEInternal>
0.3659

> <Gold.Chemscore.Rot>
1.7475

> <Gold.Chemscore.Internal.Correction>
   9.000000E+99

> <Gold.Chemscore.Hbonds>
donor molecule, donor type, donor heavy atom, donor atom, acceptor molecule, acceptor atom, score
      P1  H  7997  8009       L1    11  0.93

> <Gold.Chemscore.Hbond.Weighted>
-3.2335

> <Gold.Chemscore.Metal.Weighted>
-0.0000

> <Gold.Chemscore.Lipo.Weighted>
-11.2282

> <Gold.Chemscore.Internal_Hbond.Weighted>
0.0000

> <Gold.Chemscore.DEClash.Weighted>
0.0421

> <Gold.Chemscore.DEInternal.Weighted>
0.3659

> <Gold.Chemscore.Rot.Weighted>
4.4735

> <Gold.Chemscore.Internal.Correction.Weighted>
   9.000000E+99

> <Gold.Protein.RotatedTorsions>
[ 6907 6896 6895 6894 ] final   63.07 input  -60.11 | X-H torsion
[ 7974 7965 7964 7962 ] final -109.12 input  175.53 | X-H torsion
[ 8008 7997 7996 7995 ] final  166.40 input   59.86 | X-H torsion
[ 10167 10162 10161 10158 ] final  117.15 input  -65.29 | X-H torsion
[ 10718 10713 10712 10709 ] final   82.07 input   66.30 | X-H torsion
[ 10763 10752 10751 10750 ] final -162.08 input  -60.55 | X-H torsion
[ 11005 11000 10999 10996 ] final  -20.32 input  -57.11 | X-H torsion

> <Gold.Protein.ActiveResidues>
 VAL166  LYS551  ARG553  GLY616  TRP617  ASP618  TYR619  PRO620  LYS621  CYS622 
 ASP623  PHE694  ASN695  SER759  ASP760  ASP761  ALA762  ILE779  LEU786  VAL792 
 PHE793  MET794  SER795  GLU796  ALA797  LYS798  CYS799  TRP800  GLU811  SER814 

> <Gold.Protein.RotatedAtoms>
  152.4223  134.5932  159.9979 H   0  0  0  0  0  0  0  0  0  0  0  0  # atno 6907 bound_to 6896
  151.6078  133.3344  159.3069 H   0  0  0  0  0  0  0  0  0  0  0  0  # atno 6908 bound_to 6896
  150.8112  134.7305  159.6755 H   0  0  0  0  0  0  0  0  0  0  0  0  # atno 6909 bound_to 6896
  145.1845  140.8986  143.3460 H   0  0  0  0  0  0  0  0  0  0  0  0  # atno 7974 bound_to 7965
  156.1721  140.1644  156.8428 H   0  0  0  0  0  0  0  0  0  0  0  0  # atno 8008 bound_to 7997
  154.5268  140.0765  156.8307 H   0  0  0  0  0  0  0  0  0  0  0  0  # atno 8009 bound_to 7997
  155.3489  140.3389  155.4241 H   0  0  0  0  0  0  0  0  0  0  0  0  # atno 8010 bound_to 7997
  139.6198  144.7099  151.2659 H   0  0  0  0  0  0  0  0  0  0  0  0  # atno 10167 bound_to 10162
  157.6848  131.0031  150.2320 H   0  0  0  0  0  0  0  0  0  0  0  0  # atno 10718 bound_to 10713
  154.7246  135.3033  154.8992 H   0  0  0  0  0  0  0  0  0  0  0  0  # atno 10763 bound_to 10752
  153.9853  135.6725  153.4756 H   0  0  0  0  0  0  0  0  0  0  0  0  # atno 10764 bound_to 10752
  153.0864  135.4982  154.8523 H   0  0  0  0  0  0  0  0  0  0  0  0  # atno 10765 bound_to 10752
  140.8453  133.7896  155.9905 H   0  0  0  0  0  0  0  0  0  0  0  0  # atno 11005 bound_to 11000
  145.0103  139.3516  143.6123 LP  0  0  0  0  0  0  0  0  0  0  0  0  # atno 17320 bound_to 7965
  146.3447  139.9362  142.8747 LP  0  0  0  0  0  0  0  0  0  0  0  0  # atno 17321 bound_to 7965
  140.7375  143.6677  150.8109 LP  0  0  0  0  0  0  0  0  0  0  0  0  # atno 17342 bound_to 10162
  140.0286  143.5467  152.2770 LP  0  0  0  0  0  0  0  0  0  0  0  0  # atno 17343 bound_to 10162
  156.2951  130.3751  149.7804 LP  0  0  0  0  0  0  0  0  0  0  0  0  # atno 17370 bound_to 10713
  156.5452  130.8317  151.3282 LP  0  0  0  0  0  0  0  0  0  0  0  0  # atno 17371 bound_to 10713
  140.8850  134.2565  157.5124 LP  0  0  0  0  0  0  0  0  0  0  0  0  # atno 17394 bound_to 11000
  139.8703  134.9634  156.4460 LP  0  0  0  0  0  0  0  0  0  0  0  0  # atno 17395 bound_to 11000

$$$$
