AV-unprocessed.smi:96|AV-procd|sdf|859|dock7
  -GOLD-   2262017303D 1   1.00000     0.00000
 Structure written by MMmdl.
 43 46  0  0  0  0  0  0  0  0  1 V2000
  151.4752  137.0495  159.4877 O   0  0  0  0  0  0  0  0  0  0  0  0
  150.9192  137.4581  158.4675 C   0  0  0  0  0  0  0  0  0  0  0  0
  151.6747  138.3513  157.4703 C   0  0  0  0  0  0  0  0  0  0  0  0
  151.2015  139.7533  157.4478 N   0  0  0  0  0  0  0  0  0  0  0  0
  149.9158  140.0280  156.9185 C   0  0  0  0  0  0  0  0  0  0  0  0
  149.2051  139.1285  156.4673 O   0  0  0  0  0  0  0  0  0  0  0  0
  149.5034  141.4260  156.9600 C   0  0  0  0  0  0  0  0  0  0  0  0
  148.2930  141.7777  156.4938 F   0  0  0  0  0  0  0  0  0  0  0  0
  150.3181  142.3753  157.4641 C   0  0  0  0  0  0  0  0  0  0  0  0
  151.5780  142.0982  157.9572 N   0  0  0  0  0  0  0  0  0  0  0  0
  152.4020  143.2190  158.5478 C   0  0  2  0  0  0  0  0  0  0  0  0
  152.6829  143.0511  160.0531 C   0  0  0  0  0  0  0  0  0  0  0  0
  152.0943  144.3181  160.6520 C   0  0  0  0  0  0  0  0  0  0  0  0
  152.0492  145.2682  159.4603 C   0  0  0  0  0  0  0  0  0  0  0  0
  151.7105  144.4174  158.3764 O   0  0  0  0  0  0  0  0  0  0  0  0
  152.0363  140.7607  157.9884 C   0  0  0  0  0  0  0  0  0  0  0  0
  153.1297  140.4754  158.4795 O   0  0  0  0  0  0  0  0  0  0  0  0
  149.6386  137.2024  158.1421 N   0  0  0  0  0  0  0  0  0  0  0  0
  148.6815  136.4182  158.8415 C   0  0  0  0  0  0  0  0  0  0  0  0
  147.7234  135.5868  158.1919 C   0  0  0  0  0  0  0  0  0  0  0  0
  146.7828  134.8441  158.9413 C   0  0  0  0  0  0  0  0  0  0  0  0
  146.8171  134.9614  160.3396 C   0  0  0  0  0  0  0  0  0  0  0  0
  147.7313  135.7759  160.9737 C   0  0  0  0  0  0  0  0  0  0  0  0
  148.6764  136.5241  160.2533 C   0  0  0  0  0  0  0  0  0  0  0  0
  147.5424  135.7121  162.3166 O   0  0  0  0  0  0  0  0  0  0  0  0
  146.4730  134.8231  162.5120 C   0  0  0  0  0  0  0  0  0  0  0  0
  146.0255  134.3600  161.2637 O   0  0  0  0  0  0  0  0  0  0  0  0
  152.7401  138.3055  157.7024 H   0  0  0  0  0  0  0  0  0  0  0  0
  151.6027  137.8987  156.4800 H   0  0  0  0  0  0  0  0  0  0  0  0
  149.9623  143.3953  157.4764 H   0  0  0  0  0  0  0  0  0  0  0  0
  153.3252  143.2525  157.9673 H   0  0  0  0  0  0  0  0  0  0  0  0
  152.2438  142.1415  160.4636 H   0  0  0  0  0  0  0  0  0  0  0  0
  153.7623  143.0105  160.2024 H   0  0  0  0  0  0  0  0  0  0  0  0
  151.0832  144.1291  161.0140 H   0  0  0  0  0  0  0  0  0  0  0  0
  152.6816  144.7090  161.4831 H   0  0  0  0  0  0  0  0  0  0  0  0
  151.3205  146.0693  159.5864 H   0  0  0  0  0  0  0  0  0  0  0  0
  153.0282  145.7158  159.2816 H   0  0  0  0  0  0  0  0  0  0  0  0
  149.2897  137.6810  157.3244 H   0  0  0  0  0  0  0  0  0  0  0  0
  147.6819  135.5149  157.1162 H   0  0  0  0  0  0  0  0  0  0  0  0
  146.0557  134.2120  158.4531 H   0  0  0  0  0  0  0  0  0  0  0  0
  149.3822  137.1581  160.7700 H   0  0  0  0  0  0  0  0  0  0  0  0
  146.8055  133.9792  163.1173 H   0  0  0  0  0  0  0  0  0  0  0  0
  145.6590  135.3375  163.0240 H   0  0  0  0  0  0  0  0  0  0  0  0
  1  2  2  0  0  0  0
  2  3  1  0  0  0  0
  2 18  1  0  0  0  0
  3  4  1  0  0  0  0
  3 28  1  0  0  0  0
  3 29  1  0  0  0  0
  4 16  1  0  0  0  0
  4  5  1  0  0  0  0
  5  6  2  0  0  0  0
  5  7  1  0  0  0  0
  7  8  1  0  0  0  0
  7  9  2  0  0  0  0
  9 10  1  0  0  0  0
  9 30  1  0  0  0  0
 10 11  1  0  0  0  0
 10 16  1  0  0  0  0
 11 15  1  0  0  0  0
 11 12  1  0  0  0  0
 11 31  1  0  0  0  0
 12 13  1  0  0  0  0
 12 32  1  0  0  0  0
 12 33  1  0  0  0  0
 13 14  1  0  0  0  0
 13 34  1  0  0  0  0
 13 35  1  0  0  0  0
 14 15  1  0  0  0  0
 14 36  1  0  0  0  0
 14 37  1  0  0  0  0
 16 17  2  0  0  0  0
 18 19  1  0  0  0  0
 18 38  1  0  0  0  0
 19 24  1  0  0  0  0
 19 20  2  0  0  0  0
 20 21  1  0  0  0  0
 20 39  1  0  0  0  0
 21 22  2  0  0  0  0
 21 40  1  0  0  0  0
 22 27  1  0  0  0  0
 22 23  1  0  0  0  0
 23 24  2  0  0  0  0
 23 25  1  0  0  0  0
 24 41  1  0  0  0  0
 25 26  1  0  0  0  0
 26 27  1  0  0  0  0
 26 42  1  0  0  0  0
 26 43  1  0  0  0  0
M  END
> <s_m_source_file>
AV-unprocessed.smi

> <i_m_source_file_index>
96

> <i_lp_mmshare_version>
43012

> <i_f3d_flags>
0

> <s_epik_input>
TzFbQ0gyXU9jKGMxMilbY0hdYyhbY0hdW2NIXTIpW05IXUMoPU8pW0NIMl1uM2MoPU8pYyhGKVtjSF1uKGMzPU8pW0NAQEhdNFtDSDJdW0NIMl1bQ0gyXU80

> <s_epik_cmdline>
J2VwaWtfcHl0aG9uJywgJy1waCcsICc3LjAnLCAnLXRuJywgJzgnLCAnLW1hJywgJzIwMCcsICctbWV0YWxfYmluZGluZycsICctaW1hZScsICc8aW5maWxlLm1hZT4nLCAnLW9tYWUnLCAnPG91dGZpbGUubWFlPic=

> <r_lp_tautomer_probability>
1

> <r_epik_Ionization_Penalty>
1.04778e-05

> <r_epik_Ionization_Penalty_Charging>
3.88729e-08

> <r_epik_Ionization_Penalty_Neutral>
1.04389e-05

> <r_epik_State_Penalty>
-0

> <r_epik_Charging_Adjusted_Penalty>
3.88729e-08

> <i_epik_Tot_Q>
0

> <i_epik_Tot_abs_Q>
0

> <r_epik_Metal_State_Penalty>
-0

> <b_epik_Metal_Only>
0

> <s_epik_Chemistry_Notes>
This compound contains an acetal/aminal-like group ( X-CH(R)-Y where X, Y are N, S, or O) that may be acid/base labile, releasing an aldehyde.

> <s_lp_Force_Field>
OPLS_2005

> <r_lp_Energy>
41.3846

> <b_lp_Chiralities_Consistent>
1

> <s_lp_Variant>
AV-unprocessed.smi:96-1

> <Gold.Version>
5.8.1

> <Gold.Id.Protein>
6NUR|6NUR_protein|mol2

> <Gold.PLP.Fitness>
50.7503

> <Gold.PLP.PLP>
-43.6404

> <Gold.PLP.part.hbond>
-2.0000

> <Gold.PLP.part.metal>
0.0000

> <Gold.PLP.part.buried>
-5.7272

> <Gold.PLP.part.nonpolar>
-35.6932

> <Gold.PLP.part.repulsive>
0.2170

> <Gold.PLP.ligand.clash>
0.0000

> <Gold.PLP.ligand.torsion>
0.4962

> <Gold.PLP.Chemscore.Hbond>
1.6890

> <Gold.PLP.Chemscore.CHOScore>
1.0000

> <Gold.PLP.Chemscore.Metal>
0.0000

> <Gold.Chemscore.Hbonds>
donor molecule, donor type, donor heavy atom, donor atom, acceptor molecule, acceptor atom, score
      P1  H  6896  6909       L1     1  1.00
      P1  H  7997  8009       L1    17  0.69
      L1  C     9    30       P1  8028  1.00

> <Gold.PLP.Chemscore.Internal.Correction>
0.0353

> <Gold.Rescore>
     Score         DG    S(hbond)    S(metal)    S(lipo)     H(rot)  DE(clash)    DE(int)     intcor
     14.65     -16.49       1.86        0.00      81.56       1.85       0.09       1.75       ----

> <Gold.Chemscore.Fitness>
14.6483

> <Gold.Chemscore.DG>
-16.4894

> <Gold.Chemscore.ZeroCoef>
-5.4800

> <Gold.Chemscore.Hbond>
1.8571

> <Gold.Chemscore.Metal>
0.0000

> <Gold.Chemscore.Lipo>
81.5553

> <Gold.Chemscore.Internal_Hbond>
0.0000

> <Gold.Chemscore.DEClash>
0.0875

> <Gold.Chemscore.DEInternal>
1.7536

> <Gold.Chemscore.Rot>
1.8497

> <Gold.Chemscore.Internal.Correction>
   9.000000E+99

> <Gold.Chemscore.Hbonds>
donor molecule, donor type, donor heavy atom, donor atom, acceptor molecule, acceptor atom, score
      P1  H  6896  6909       L1     1  0.98
      P1  H  7997  8009       L1    17  0.57

> <Gold.Chemscore.Hbond.Weighted>
-6.2028

> <Gold.Chemscore.Metal.Weighted>
-0.0000

> <Gold.Chemscore.Lipo.Weighted>
-9.5420

> <Gold.Chemscore.Internal_Hbond.Weighted>
0.0000

> <Gold.Chemscore.DEClash.Weighted>
0.0875

> <Gold.Chemscore.DEInternal.Weighted>
1.7536

> <Gold.Chemscore.Rot.Weighted>
4.7354

> <Gold.Chemscore.Internal.Correction.Weighted>
   9.000000E+99

> <Gold.Protein.RotatedTorsions>
[ 6907 6896 6895 6894 ] final  111.26 input  -60.11 | X-H torsion
[ 7974 7965 7964 7962 ] final   51.34 input  175.53 | X-H torsion
[ 8008 7997 7996 7995 ] final  153.98 input   59.86 | X-H torsion
[ 10167 10162 10161 10158 ] final    3.29 input  -65.29 | X-H torsion
[ 10718 10713 10712 10709 ] final  -52.50 input   66.30 | X-H torsion
[ 10763 10752 10751 10750 ] final  125.11 input  -60.55 | X-H torsion
[ 11005 11000 10999 10996 ] final   22.92 input  -57.11 | X-H torsion

> <Gold.Protein.ActiveResidues>
 VAL166  LYS551  ARG553  GLY616  TRP617  ASP618  TYR619  PRO620  LYS621  CYS622 
 ASP623  PHE694  ASN695  SER759  ASP760  ASP761  ALA762  ILE779  LEU786  VAL792 
 PHE793  MET794  SER795  GLU796  ALA797  LYS798  CYS799  TRP800  GLU811  SER814 

> <Gold.Protein.RotatedAtoms>
  152.4978  133.8683  159.7284 H   0  0  0  0  0  0  0  0  0  0  0  0  # atno 6907 bound_to 6896
  150.9176  133.6911  159.2846 H   0  0  0  0  0  0  0  0  0  0  0  0  # atno 6908 bound_to 6896
  151.4299  135.1012  159.9691 H   0  0  0  0  0  0  0  0  0  0  0  0  # atno 6909 bound_to 6896
  145.9923  139.4352  143.0066 H   0  0  0  0  0  0  0  0  0  0  0  0  # atno 7974 bound_to 7965
  156.2554  140.1979  156.6575 H   0  0  0  0  0  0  0  0  0  0  0  0  # atno 8008 bound_to 7997
  154.6490  140.0574  156.9959 H   0  0  0  0  0  0  0  0  0  0  0  0  # atno 8009 bound_to 7997
  155.1447  140.3246  155.4447 H   0  0  0  0  0  0  0  0  0  0  0  0  # atno 8010 bound_to 7997
  140.6593  143.7345  150.7710 H   0  0  0  0  0  0  0  0  0  0  0  0  # atno 10167 bound_to 10162
  156.1616  130.4149  149.9784 H   0  0  0  0  0  0  0  0  0  0  0  0  # atno 10718 bound_to 10713
  153.6721  135.3328  155.3156 H   0  0  0  0  0  0  0  0  0  0  0  0  # atno 10763 bound_to 10752
  154.8488  135.4389  154.1694 H   0  0  0  0  0  0  0  0  0  0  0  0  # atno 10764 bound_to 10752
  153.2688  135.6998  153.7578 H   0  0  0  0  0  0  0  0  0  0  0  0  # atno 10765 bound_to 10752
  140.3753  134.1978  155.7665 H   0  0  0  0  0  0  0  0  0  0  0  0  # atno 11005 bound_to 11000
  145.7611  140.9935  143.1199 LP  0  0  0  0  0  0  0  0  0  0  0  0  # atno 17320 bound_to 7965
  144.6893  139.9331  143.7472 LP  0  0  0  0  0  0  0  0  0  0  0  0  # atno 17321 bound_to 7965
  140.1011  143.4787  152.2425 LP  0  0  0  0  0  0  0  0  0  0  0  0  # atno 17342 bound_to 10162
  139.5823  144.7516  151.3608 LP  0  0  0  0  0  0  0  0  0  0  0  0  # atno 17343 bound_to 10162
  156.7612  130.9151  151.3641 LP  0  0  0  0  0  0  0  0  0  0  0  0  # atno 17370 bound_to 10713
  157.6737  130.9074  150.0099 LP  0  0  0  0  0  0  0  0  0  0  0  0  # atno 17371 bound_to 10713
  141.1941  133.8135  157.0770 LP  0  0  0  0  0  0  0  0  0  0  0  0  # atno 17394 bound_to 11000
  140.0520  134.9800  157.1153 LP  0  0  0  0  0  0  0  0  0  0  0  0  # atno 17395 bound_to 11000

$$$$
