AV-unprocessed.smi:752|AV-procd|sdf|3598|dock9
  -GOLD-   22720 0593D 1   1.00000     0.00000
 Structure written by MMmdl.
 41 42  0  0  0  0  0  0  0  0  1 V2000
  154.4744  135.7939  164.3745 C   0  0  0  0  0  0  0  0  0  0  0  0
  155.1708  137.1547  164.2687 C   0  0  0  0  0  0  0  0  0  0  0  0
  154.8667  137.8562  162.9876 C   0  0  0  0  0  0  0  0  0  0  0  0
  153.9868  137.4036  162.0909 N   0  0  0  0  0  0  0  0  0  0  0  0
  153.8834  138.2341  160.9695 C   0  0  0  0  0  0  0  0  0  0  0  0
  152.8900  137.9164  159.8883 C   0  0  0  0  0  0  0  0  0  0  0  0
  153.0048  138.9665  158.7836 C   0  0  0  0  0  0  0  0  0  0  0  0
  153.9474  138.9323  157.9930 O   0  0  0  0  0  0  0  0  0  0  0  0
  152.0644  139.9238  158.7770 N   0  0  0  0  0  0  0  0  0  0  0  0
  152.1346  141.1582  158.0047 C   0  0  0  0  0  0  0  0  0  0  0  0
  151.6592  142.3696  158.8361 C   0  0  1  0  0  0  0  0  0  0  0  0
  152.5907  142.6272  160.0353 C   0  0  0  0  0  0  0  0  0  0  0  0
  152.0953  143.8062  160.8876 C   0  0  0  0  0  0  0  0  0  0  0  0
  151.9486  145.0857  160.0467 C   0  0  0  0  0  0  0  0  0  0  0  0
  151.0594  144.8695  158.8081 C   0  0  2  0  0  0  0  0  0  0  0  0
  149.7094  144.7053  159.1968 O   0  0  0  0  0  0  0  0  0  0  0  0
  151.5201  143.6537  157.9828 C   0  0  0  0  0  0  0  0  0  0  0  0
  154.7329  139.3122  161.0171 C   0  0  0  0  0  0  0  0  0  0  0  0
  155.6744  139.3352  162.4819 S   0  0  0  0  0  0  0  0  0  0  0  0
  154.7146  135.3065  165.3194 H   0  0  0  0  0  0  0  0  0  0  0  0
  154.7862  135.1294  163.5683 H   0  0  0  0  0  0  0  0  0  0  0  0
  153.3908  135.9011  164.3206 H   0  0  0  0  0  0  0  0  0  0  0  0
  154.8697  137.7932  165.0999 H   0  0  0  0  0  0  0  0  0  0  0  0
  156.2506  137.0275  164.3481 H   0  0  0  0  0  0  0  0  0  0  0  0
  153.0768  136.9260  159.4714 H   0  0  0  0  0  0  0  0  0  0  0  0
  151.8709  137.9054  160.2773 H   0  0  0  0  0  0  0  0  0  0  0  0
  151.3209  139.8565  159.4574 H   0  0  0  0  0  0  0  0  0  0  0  0
  153.1526  141.3151  157.6443 H   0  0  0  0  0  0  0  0  0  0  0  0
  151.5081  141.0425  157.1199 H   0  0  0  0  0  0  0  0  0  0  0  0
  150.6745  142.1256  159.2385 H   0  0  0  0  0  0  0  0  0  0  0  0
  152.6544  141.7327  160.6562 H   0  0  0  0  0  0  0  0  0  0  0  0
  153.6026  142.8308  159.6822 H   0  0  0  0  0  0  0  0  0  0  0  0
  151.1360  143.5516  161.3403 H   0  0  0  0  0  0  0  0  0  0  0  0
  152.7862  143.9830  161.7123 H   0  0  0  0  0  0  0  0  0  0  0  0
  151.5535  145.8958  160.6607 H   0  0  0  0  0  0  0  0  0  0  0  0
  152.9384  145.4074  159.7202 H   0  0  0  0  0  0  0  0  0  0  0  0
  151.1005  145.7604  158.1805 H   0  0  0  0  0  0  0  0  0  0  0  0
  149.1565  144.9179  158.4604 H   0  0  0  0  0  0  0  0  0  0  0  0
  152.4835  143.8813  157.5248 H   0  0  0  0  0  0  0  0  0  0  0  0
  150.8246  143.4987  157.1580 H   0  0  0  0  0  0  0  0  0  0  0  0
  154.8490  140.1002  160.2876 H   0  0  0  0  0  0  0  0  0  0  0  0
  1  2  1  0  0  0  0
  1 20  1  0  0  0  0
  1 21  1  0  0  0  0
  1 22  1  0  0  0  0
  2  3  1  0  0  0  0
  2 23  1  0  0  0  0
  2 24  1  0  0  0  0
  3 19  1  0  0  0  0
  3  4  2  0  0  0  0
  4  5  1  0  0  0  0
  5  6  1  0  0  0  0
  5 18  2  0  0  0  0
  6  7  1  0  0  0  0
  6 25  1  0  0  0  0
  6 26  1  0  0  0  0
  7  8  2  0  0  0  0
  7  9  1  0  0  0  0
  9 10  1  0  0  0  0
  9 27  1  0  0  0  0
 10 11  1  0  0  0  0
 10 28  1  0  0  0  0
 10 29  1  0  0  0  0
 11 17  1  0  0  0  0
 11 12  1  0  0  0  0
 11 30  1  0  0  0  0
 12 13  1  0  0  0  0
 12 31  1  0  0  0  0
 12 32  1  0  0  0  0
 13 14  1  0  0  0  0
 13 33  1  0  0  0  0
 13 34  1  0  0  0  0
 14 15  1  0  0  0  0
 14 35  1  0  0  0  0
 14 36  1  0  0  0  0
 15 16  1  0  0  0  0
 15 17  1  0  0  0  0
 15 37  1  0  0  0  0
 16 38  1  0  0  0  0
 17 39  1  0  0  0  0
 17 40  1  0  0  0  0
 18 19  1  0  0  0  0
 18 41  1  0  0  0  0
M  END
> <s_m_source_file>
AV-unprocessed.smi

> <i_m_source_file_index>
752

> <i_lp_mmshare_version>
43012

> <i_f3d_flags>
0

> <s_epik_input>
W0NIM11bQ0gyXWMxbmMoW2NIXXMxKVtDSDJdQyg9TylbTkhdW0NIMl1bQ0BASF0yW0NIMl1bQ0gyXVtDSDJdW0NAQEhdKFtPSF0pW0NIMl0y

> <s_epik_cmdline>
J2VwaWtfcHl0aG9uJywgJy1waCcsICc3LjAnLCAnLXRuJywgJzgnLCAnLW1hJywgJzIwMCcsICctbWV0YWxfYmluZGluZycsICctaW1hZScsICc8aW5maWxlLm1hZT4nLCAnLW9tYWUnLCAnPG91dGZpbGUubWFlPic=

> <r_lp_tautomer_probability>
1

> <r_epik_Ionization_Penalty>
5.44903e-05

> <r_epik_Ionization_Penalty_Charging>
0

> <r_epik_Ionization_Penalty_Neutral>
5.44903e-05

> <r_epik_State_Penalty>
-0

> <r_epik_Charging_Adjusted_Penalty>
0

> <i_epik_Tot_Q>
0

> <i_epik_Tot_abs_Q>
0

> <r_epik_Metal_State_Penalty>
-0

> <b_epik_Metal_Only>
0

> <s_lp_Force_Field>
OPLS_2005

> <r_lp_Energy>
4.32924

> <b_lp_Chiralities_Consistent>
1

> <s_lp_Variant>
AV-unprocessed.smi:752-4

> <Gold.Version>
5.8.1

> <Gold.Id.Protein>
6NUR|6NUR_protein|mol2

> <Gold.PLP.Fitness>
48.4086

> <Gold.PLP.PLP>
-43.2195

> <Gold.PLP.part.hbond>
-2.0000

> <Gold.PLP.part.metal>
0.0000

> <Gold.PLP.part.buried>
-6.1855

> <Gold.PLP.part.nonpolar>
-35.0430

> <Gold.PLP.part.repulsive>
0.1177

> <Gold.PLP.ligand.clash>
0.0000

> <Gold.PLP.ligand.torsion>
0.4223

> <Gold.PLP.Chemscore.Hbond>
2.0000

> <Gold.PLP.Chemscore.CHOScore>
0.0000

> <Gold.PLP.Chemscore.Metal>
0.0000

> <Gold.Chemscore.Hbonds>
donor molecule, donor type, donor heavy atom, donor atom, acceptor molecule, acceptor atom, score
      L1  H    16    38       P1  8029  1.00
      P1  H  7997  8009       L1     8  0.99

> <Gold.PLP.Chemscore.Internal.Correction>
0.0338

> <Gold.Rescore>
     Score         DG    S(hbond)    S(metal)    S(lipo)     H(rot)  DE(clash)    DE(int)     intcor
     20.74     -21.40       1.84        0.00     129.03       2.08       0.07       0.59       ----

> <Gold.Chemscore.Fitness>
20.7365

> <Gold.Chemscore.DG>
-21.4016

> <Gold.Chemscore.ZeroCoef>
-5.4800

> <Gold.Chemscore.Hbond>
1.8442

> <Gold.Chemscore.Metal>
0.0000

> <Gold.Chemscore.Lipo>
129.0339

> <Gold.Chemscore.Internal_Hbond>
0.0000

> <Gold.Chemscore.DEClash>
0.0720

> <Gold.Chemscore.DEInternal>
0.5931

> <Gold.Chemscore.Rot>
2.0840

> <Gold.Chemscore.Internal.Correction>
   9.000000E+99

> <Gold.Chemscore.Hbonds>
donor molecule, donor type, donor heavy atom, donor atom, acceptor molecule, acceptor atom, score
      L1  H    16    38       P1  8029  0.71
      P1  H  7997  8009       L1     8  0.94

> <Gold.Chemscore.Hbond.Weighted>
-6.1596

> <Gold.Chemscore.Metal.Weighted>
-0.0000

> <Gold.Chemscore.Lipo.Weighted>
-15.0970

> <Gold.Chemscore.Internal_Hbond.Weighted>
0.0000

> <Gold.Chemscore.DEClash.Weighted>
0.0720

> <Gold.Chemscore.DEInternal.Weighted>
0.5931

> <Gold.Chemscore.Rot.Weighted>
5.3350

> <Gold.Chemscore.Internal.Correction.Weighted>
   9.000000E+99

> <Gold.Protein.RotatedTorsions>
[ 6907 6896 6895 6894 ] final   -1.95 input  -60.11 | X-H torsion
[ 7974 7965 7964 7962 ] final  106.46 input  175.53 | X-H torsion
[ 8008 7997 7996 7995 ] final  126.92 input   59.86 | X-H torsion
[ 10167 10162 10161 10158 ] final  -87.70 input  -65.29 | X-H torsion
[ 10718 10713 10712 10709 ] final -122.29 input   66.30 | X-H torsion
[ 10763 10752 10751 10750 ] final  -82.20 input  -60.55 | X-H torsion
[ 11005 11000 10999 10996 ] final -105.68 input  -57.11 | X-H torsion

> <Gold.Protein.ActiveResidues>
 VAL166  LYS551  ARG553  GLY616  TRP617  ASP618  TYR619  PRO620  LYS621  CYS622 
 ASP623  PHE694  ASN695  SER759  ASP760  ASP761  ALA762  ILE779  LEU786  VAL792 
 PHE793  MET794  SER795  GLU796  ALA797  LYS798  CYS799  TRP800  GLU811  SER814 

> <Gold.Protein.RotatedAtoms>
  151.5379  135.1068  159.9918 H   0  0  0  0  0  0  0  0  0  0  0  0  # atno 6907 bound_to 6896
  152.4549  133.7699  159.6803 H   0  0  0  0  0  0  0  0  0  0  0  0  # atno 6908 bound_to 6896
  150.8489  133.7752  159.3057 H   0  0  0  0  0  0  0  0  0  0  0  0  # atno 6909 bound_to 6896
  145.3063  139.2554  143.3787 H   0  0  0  0  0  0  0  0  0  0  0  0  # atno 7974 bound_to 7965
  156.2877  140.2681  156.2190 H   0  0  0  0  0  0  0  0  0  0  0  0  # atno 8008 bound_to 7997
  155.0187  140.0386  157.2447 H   0  0  0  0  0  0  0  0  0  0  0  0  # atno 8009 bound_to 7997
  154.7454  140.2733  155.6342 H   0  0  0  0  0  0  0  0  0  0  0  0  # atno 8010 bound_to 7997
  140.3819  143.2744  151.9373 H   0  0  0  0  0  0  0  0  0  0  0  0  # atno 10167 bound_to 10162
  156.1406  130.6463  150.9765 H   0  0  0  0  0  0  0  0  0  0  0  0  # atno 10718 bound_to 10713
  154.5728  135.5600  153.7111 H   0  0  0  0  0  0  0  0  0  0  0  0  # atno 10763 bound_to 10752
  153.0054  135.6301  154.2090 H   0  0  0  0  0  0  0  0  0  0  0  0  # atno 10764 bound_to 10752
  154.2030  135.2877  155.2964 H   0  0  0  0  0  0  0  0  0  0  0  0  # atno 10765 bound_to 10752
  141.1042  133.8828  157.1763 H   0  0  0  0  0  0  0  0  0  0  0  0  # atno 11005 bound_to 11000
  146.3134  140.3589  142.8663 LP  0  0  0  0  0  0  0  0  0  0  0  0  # atno 17320 bound_to 7965
  144.9052  140.7691  143.5842 LP  0  0  0  0  0  0  0  0  0  0  0  0  # atno 17321 bound_to 7965
  139.4795  144.5810  151.7932 LP  0  0  0  0  0  0  0  0  0  0  0  0  # atno 17342 bound_to 10162
  140.4928  144.1284  150.5954 LP  0  0  0  0  0  0  0  0  0  0  0  0  # atno 17343 bound_to 10162
  157.6572  131.0887  150.7920 LP  0  0  0  0  0  0  0  0  0  0  0  0  # atno 17370 bound_to 10713
  156.7996  130.4916  149.5372 LP  0  0  0  0  0  0  0  0  0  0  0  0  # atno 17371 bound_to 10713
  139.9905  135.0066  156.9963 LP  0  0  0  0  0  0  0  0  0  0  0  0  # atno 17394 bound_to 11000
  140.4945  134.1159  155.7239 LP  0  0  0  0  0  0  0  0  0  0  0  0  # atno 17395 bound_to 11000

$$$$
