AV-unprocessed.smi:72|AV-procd|sdf|680|dock3
  -GOLD-   2262016593D 1   1.00000     0.00000
 Structure written by MMmdl.
 29 30  0  0  0  0  0  0  0  0  1 V2000
  144.3613  133.1232  156.8534 N   0  0  0  0  0  0  0  0  0  0  0  0
  144.5375  134.2008  156.1767 C   0  0  0  0  0  0  0  0  0  0  0  0
  145.3114  135.2977  156.5841 N   0  0  0  0  0  0  0  0  0  0  0  0
  145.3990  136.3241  155.7950 C   0  0  0  0  0  0  0  0  0  0  0  0
  144.7197  136.3733  154.5077 N   0  0  0  0  0  0  0  0  0  0  0  0
  144.8246  137.5714  153.5825 C   0  0  1  0  0  0  0  0  0  0  0  0
  145.5097  138.6087  154.2287 O   0  0  0  0  0  0  0  0  0  0  0  0
  146.7546  138.8389  153.5794 C   0  0  2  0  0  0  0  0  0  0  0  0
  147.2703  140.2594  153.8735 C   0  0  0  0  0  0  0  0  0  0  0  0
  146.2741  141.2406  153.6722 O   0  0  0  0  0  0  0  0  0  0  0  0
  146.4761  138.4823  152.1189 C   0  0  1  0  0  0  0  0  0  0  0  0
  147.6521  138.2381  151.3699 O   0  0  0  0  0  0  0  0  0  0  0  0
  145.5731  137.2604  152.2608 C   0  0  1  0  0  0  0  0  0  0  0  0
  146.3101  136.0469  152.2988 O   0  0  0  0  0  0  0  0  0  0  0  0
  143.9447  135.2685  154.0785 C   0  0  0  0  0  0  0  0  0  0  0  0
  143.3704  135.2502  152.9901 O   0  0  0  0  0  0  0  0  0  0  0  0
  143.8824  134.2296  154.9390 N   0  0  0  0  0  0  0  0  0  0  0  0
  143.8006  137.9133  153.4227 H   0  0  0  0  0  0  0  0  0  0  0  0
  147.4665  138.1215  153.9913 H   0  0  0  0  0  0  0  0  0  0  0  0
  145.9083  139.2773  151.6345 H   0  0  0  0  0  0  0  0  0  0  0  0
  144.8566  137.1980  151.4412 H   0  0  0  0  0  0  0  0  0  0  0  0
  143.7651  132.4874  156.3429 H   0  0  0  0  0  0  0  0  0  0  0  0
  145.9868  137.2061  156.0489 H   0  0  0  0  0  0  0  0  0  0  0  0
  147.6494  140.3256  154.8936 H   0  0  0  0  0  0  0  0  0  0  0  0
  148.1028  140.4913  153.2091 H   0  0  0  0  0  0  0  0  0  0  0  0
  145.5079  140.8218  153.3105 H   0  0  0  0  0  0  0  0  0  0  0  0
  148.1692  137.5925  151.8266 H   0  0  0  0  0  0  0  0  0  0  0  0
  147.1452  136.1915  151.8812 H   0  0  0  0  0  0  0  0  0  0  0  0
  143.3349  133.4265  154.6662 H   0  0  0  0  0  0  0  0  0  0  0  0
  1  2  2  0  0  0  0
  1 22  1  0  0  0  0
  2 17  1  0  0  0  0
  2  3  1  0  0  0  0
  3  4  2  0  0  0  0
  4  5  1  0  0  0  0
  4 23  1  0  0  0  0
  5  6  1  0  0  0  0
  5 15  1  0  0  0  0
  6 18  1  0  0  0  0
  6 13  1  0  0  0  0
  6  7  1  0  0  0  0
  7  8  1  0  0  0  0
  8 19  1  0  0  0  0
  8  9  1  0  0  0  0
  8 11  1  0  0  0  0
  9 10  1  0  0  0  0
  9 24  1  0  0  0  0
  9 25  1  0  0  0  0
 10 26  1  0  0  0  0
 11 20  1  0  0  0  0
 11 12  1  0  0  0  0
 11 13  1  0  0  0  0
 12 27  1  0  0  0  0
 13 21  1  0  0  0  0
 13 14  1  0  0  0  0
 14 28  1  0  0  0  0
 15 16  2  0  0  0  0
 15 17  1  0  0  0  0
 17 29  1  0  0  0  0
M  END
> <s_m_source_file>
AV-unprocessed.smi

> <i_m_source_file_index>
72

> <i_lp_mmshare_version>
43012

> <i_f3d_flags>
0

> <s_epik_input>
W05IMl1jMW5bY0hdbihjKD1PKW4xKVtDQEBIXTJPW0NASF0oW0NIMl1bT0hdKVtDQEBIXShbT0hdKVtDQEhdMltPSF0=

> <s_epik_cmdline>
J2VwaWtfcHl0aG9uJywgJy1waCcsICc3LjAnLCAnLXRuJywgJzgnLCAnLW1hJywgJzIwMCcsICctbWV0YWxfYmluZGluZycsICctaW1hZScsICc8aW5maWxlLm1hZT4nLCAnLW9tYWUnLCAnPG91dGZpbGUubWFlPic=

> <r_lp_tautomer_probability>
7.17554e-07

> <r_epik_Ionization_Penalty>
0.0066451

> <r_epik_Ionization_Penalty_Charging>
0.00663793

> <r_epik_Ionization_Penalty_Neutral>
7.17052e-06

> <r_epik_State_Penalty>
0.419231

> <r_epik_Charging_Adjusted_Penalty>
0.425868

> <i_epik_Tot_Q>
0

> <i_epik_Tot_abs_Q>
0

> <r_epik_Metal_State_Penalty>
1.44144

> <b_epik_Metal_Only>
0

> <s_epik_Chemistry_Notes>
This compound contains an acetal/aminal-like group ( X-CH(R)-Y where X, Y are N, S, or O) that may be acid/base labile, releasing an aldehyde.

> <s_lp_Force_Field>
OPLS_2005

> <r_lp_Energy>
48.597

> <b_lp_Chiralities_Consistent>
1

> <s_lp_Variant>
AV-unprocessed.smi:72-18

> <Gold.Version>
5.8.1

> <Gold.Id.Protein>
6NUR|6NUR_protein|mol2

> <Gold.PLP.Fitness>
34.3270

> <Gold.PLP.PLP>
-16.9419

> <Gold.PLP.part.hbond>
-6.4592

> <Gold.PLP.part.metal>
0.0000

> <Gold.PLP.part.buried>
-1.7809

> <Gold.PLP.part.nonpolar>
-9.5872

> <Gold.PLP.part.repulsive>
0.3222

> <Gold.PLP.ligand.clash>
0.0000

> <Gold.PLP.ligand.torsion>
0.1364

> <Gold.PLP.Chemscore.Hbond>
5.8699

> <Gold.PLP.Chemscore.CHOScore>
0.0000

> <Gold.PLP.Chemscore.Metal>
0.0000

> <Gold.Chemscore.Hbonds>
donor molecule, donor type, donor heavy atom, donor atom, acceptor molecule, acceptor atom, score
      L1  H     1    22       P1 10957  1.00
      L1  H    10    26       P1 10175  1.00
      L1  H    12    27       P1  7948  0.99
      L1  H    14    28       P1  7948  1.00
      L1  H    17    29       P1 10957  1.00
      P1  H  7954  7966       L1    12  0.80

> <Gold.PLP.Chemscore.Internal.Correction>
0.0482

> <Gold.Rescore>
     Score         DG    S(hbond)    S(metal)    S(lipo)     H(rot)  DE(clash)    DE(int)     intcor
     14.29     -14.59       5.07        0.00      22.14       4.06       0.03       0.28       ----

> <Gold.Chemscore.Fitness>
14.2881

> <Gold.Chemscore.DG>
-14.5944

> <Gold.Chemscore.ZeroCoef>
-5.4800

> <Gold.Chemscore.Hbond>
5.0651

> <Gold.Chemscore.Metal>
0.0000

> <Gold.Chemscore.Lipo>
22.1416

> <Gold.Chemscore.Internal_Hbond>
0.0000

> <Gold.Chemscore.DEClash>
0.0259

> <Gold.Chemscore.DEInternal>
0.2804

> <Gold.Chemscore.Rot>
4.0600

> <Gold.Chemscore.Internal.Correction>
   9.000000E+99

> <Gold.Chemscore.Hbonds>
donor molecule, donor type, donor heavy atom, donor atom, acceptor molecule, acceptor atom, score
      L1  H     1    22       P1 10957  0.96
      L1  H    10    26       P1 10175  0.69
      L1  H    12    27       P1  7948  0.88
      L1  H    14    28       P1  7948  0.98
      L1  H    17    29       P1 10957  0.99
      P1  H  7954  7966       L1    12  0.11

> <Gold.Chemscore.Hbond.Weighted>
-16.9175

> <Gold.Chemscore.Metal.Weighted>
-0.0000

> <Gold.Chemscore.Lipo.Weighted>
-2.5906

> <Gold.Chemscore.Internal_Hbond.Weighted>
0.0000

> <Gold.Chemscore.DEClash.Weighted>
0.0259

> <Gold.Chemscore.DEInternal.Weighted>
0.2804

> <Gold.Chemscore.Rot.Weighted>
10.3936

> <Gold.Chemscore.Internal.Correction.Weighted>
   9.000000E+99

> <Gold.Protein.RotatedTorsions>
[ 6907 6896 6895 6894 ] final  171.78 input  -60.11 | X-H torsion
[ 7974 7965 7964 7962 ] final -114.84 input  175.53 | X-H torsion
[ 8008 7997 7996 7995 ] final  118.97 input   59.86 | X-H torsion
[ 10167 10162 10161 10158 ] final  -70.84 input  -65.29 | X-H torsion
[ 10718 10713 10712 10709 ] final   11.32 input   66.30 | X-H torsion
[ 10763 10752 10751 10750 ] final   15.25 input  -60.55 | X-H torsion
[ 11005 11000 10999 10996 ] final  -79.18 input  -57.11 | X-H torsion

> <Gold.Protein.ActiveResidues>
 VAL166  LYS551  ARG553  GLY616  TRP617  ASP618  TYR619  PRO620  LYS621  CYS622 
 ASP623  PHE694  ASN695  SER759  ASP760  ASP761  ALA762  ILE779  LEU786  VAL792 
 PHE793  MET794  SER795  GLU796  ALA797  LYS798  CYS799  TRP800  GLU811  SER814 

> <Gold.Protein.RotatedAtoms>
  151.7947  133.3363  159.3509 H   0  0  0  0  0  0  0  0  0  0  0  0  # atno 6907 bound_to 6896
  150.7379  134.5809  159.5948 H   0  0  0  0  0  0  0  0  0  0  0  0  # atno 6908 bound_to 6896
  152.3185  134.7411  160.0371 H   0  0  0  0  0  0  0  0  0  0  0  0  # atno 6909 bound_to 6896
  145.1154  140.8637  143.3845 H   0  0  0  0  0  0  0  0  0  0  0  0  # atno 7974 bound_to 7965
  156.2573  140.2863  156.0918 H   0  0  0  0  0  0  0  0  0  0  0  0  # atno 8008 bound_to 7997
  155.1454  140.0396  157.2826 H   0  0  0  0  0  0  0  0  0  0  0  0  # atno 8009 bound_to 7997
  154.6499  140.2542  155.7232 H   0  0  0  0  0  0  0  0  0  0  0  0  # atno 8010 bound_to 7997
  140.5320  143.2321  151.7244 H   0  0  0  0  0  0  0  0  0  0  0  0  # atno 10167 bound_to 10162
  156.9939  130.6053  149.5689 H   0  0  0  0  0  0  0  0  0  0  0  0  # atno 10718 bound_to 10713
  153.1543  135.6784  153.8835 H   0  0  0  0  0  0  0  0  0  0  0  0  # atno 10763 bound_to 10752
  153.8252  135.3125  155.3415 H   0  0  0  0  0  0  0  0  0  0  0  0  # atno 10764 bound_to 10752
  154.7886  135.4848  154.0088 H   0  0  0  0  0  0  0  0  0  0  0  0  # atno 10765 bound_to 10752
  141.1667  133.7095  156.8084 H   0  0  0  0  0  0  0  0  0  0  0  0  # atno 11005 bound_to 11000
  145.0800  139.2967  143.5788 LP  0  0  0  0  0  0  0  0  0  0  0  0  # atno 17320 bound_to 7965
  146.3524  140.0303  142.8651 LP  0  0  0  0  0  0  0  0  0  0  0  0  # atno 17321 bound_to 7965
  139.4957  144.4099  152.0091 LP  0  0  0  0  0  0  0  0  0  0  0  0  # atno 17342 bound_to 10162
  140.3202  144.3436  150.6011 LP  0  0  0  0  0  0  0  0  0  0  0  0  # atno 17343 bound_to 10162
  156.0196  130.5291  150.8238 LP  0  0  0  0  0  0  0  0  0  0  0  0  # atno 17370 bound_to 10713
  157.5439  131.0941  150.9790 LP  0  0  0  0  0  0  0  0  0  0  0  0  # atno 17371 bound_to 10713
  140.2205  134.8760  157.3372 LP  0  0  0  0  0  0  0  0  0  0  0  0  # atno 17394 bound_to 11000
  140.1992  134.4275  155.7672 LP  0  0  0  0  0  0  0  0  0  0  0  0  # atno 17395 bound_to 11000

$$$$
