AV-unprocessed.smi:1824|AV-procd|sdf|7410|dock3
  -GOLD-   22720 9 83D 1   1.00000     0.00000
 Structure written by MMmdl.
 45 47  0  0  0  0  0  0  0  0  2 V2000
  151.5261  137.8921  154.6931 C   0  0  0  0  0  0  0  0  0  0  0  0
  151.1257  139.3713  154.6976 C   0  0  2  0  0  0  0  0  0  0  0  0
  151.3991  140.0453  156.0556 C   0  0  0  0  0  0  0  0  0  0  0  0
  150.9469  141.4316  156.0790 N   0  0  0  0  0  0  0  0  0  0  0  0
  151.2330  142.0547  157.3720 C   0  0  0  0  0  0  0  0  0  0  0  0
  150.8723  143.5494  157.4756 C   0  0  1  0  0  0  0  0  0  0  0  0
  149.7366  143.6717  158.3071 O   0  0  0  0  0  0  0  0  0  0  0  0
  152.0199  144.3947  158.0646 C   0  0  0  0  0  0  0  0  0  0  0  0
  152.1321  144.2625  159.5223 N   0  0  0  0  0  0  0  0  0  0  0  0
  151.5275  144.9669  160.5174 C   0  0  0  0  0  0  0  0  0  0  0  0
  151.9626  144.4566  161.7031 N   0  3  0  0  0  0  0  0  0  0  0  0
  152.8545  143.4085  161.4612 C   0  0  0  0  0  0  0  0  0  0  0  0
  153.5549  142.5843  162.3360 C   0  0  0  0  0  0  0  0  0  0  0  0
  154.3871  141.6036  161.7564 C   0  0  0  0  0  0  0  0  0  0  0  0
  155.0910  140.7742  162.5626 F   0  0  0  0  0  0  0  0  0  0  0  0
  154.4995  141.4701  160.3559 C   0  0  0  0  0  0  0  0  0  0  0  0
  155.3089  140.5146  159.8406 F   0  0  0  0  0  0  0  0  0  0  0  0
  153.7849  142.3123  159.4789 C   0  0  0  0  0  0  0  0  0  0  0  0
  152.9657  143.2779  160.0615 C   0  0  0  0  0  0  0  0  0  0  0  0
  149.5279  141.4698  155.7332 C   0  0  0  0  0  0  0  0  0  0  0  0
  149.2493  140.7999  154.3742 C   0  0  2  0  0  0  0  0  0  0  0  0
  147.7544  140.7659  154.0403 C   0  0  0  0  0  0  0  0  0  0  0  0
  149.7335  139.4604  154.4066 O   0  0  0  0  0  0  0  0  0  0  0  0
  152.5901  137.7730  154.8997 H   0  0  0  0  0  0  0  0  0  0  0  0
  151.3230  137.4370  153.7235 H   0  0  0  0  0  0  0  0  0  0  0  0
  150.9734  137.3309  155.4471 H   0  0  0  0  0  0  0  0  0  0  0  0
  151.6839  139.8875  153.9147 H   0  0  0  0  0  0  0  0  0  0  0  0
  150.9015  139.4824  156.8471 H   0  0  0  0  0  0  0  0  0  0  0  0
  152.4680  140.0029  156.2685 H   0  0  0  0  0  0  0  0  0  0  0  0
  150.7167  141.5024  158.1591 H   0  0  0  0  0  0  0  0  0  0  0  0
  152.2977  141.9524  157.5875 H   0  0  0  0  0  0  0  0  0  0  0  0
  150.5859  143.9354  156.4981 H   0  0  0  0  0  0  0  0  0  0  0  0
  149.9512  143.3268  159.1601 H   0  0  0  0  0  0  0  0  0  0  0  0
  152.9754  144.0961  157.6307 H   0  0  0  0  0  0  0  0  0  0  0  0
  151.8922  145.4519  157.8287 H   0  0  0  0  0  0  0  0  0  0  0  0
  150.8312  145.7836  160.3892 H   0  0  0  0  0  0  0  0  0  0  0  0
  153.4716  142.6820  163.4082 H   0  0  0  0  0  0  0  0  0  0  0  0
  153.8772  142.2026  158.4085 H   0  0  0  0  0  0  0  0  0  0  0  0
  148.9455  140.9735  156.5113 H   0  0  0  0  0  0  0  0  0  0  0  0
  149.1757  142.4993  155.6879 H   0  0  0  0  0  0  0  0  0  0  0  0
  149.7712  141.3452  153.5857 H   0  0  0  0  0  0  0  0  0  0  0  0
  147.3401  141.7732  153.9927 H   0  0  0  0  0  0  0  0  0  0  0  0
  147.1947  140.2084  154.7918 H   0  0  0  0  0  0  0  0  0  0  0  0
  147.5815  140.2897  153.0750 H   0  0  0  0  0  0  0  0  0  0  0  0
  151.6689  144.7995  162.6090 H   0  0  0  0  0  0  0  0  0  0  0  0
  1  2  1  0  0  0  0
  1 24  1  0  0  0  0
  1 25  1  0  0  0  0
  1 26  1  0  0  0  0
  2 23  1  0  0  0  0
  2  3  1  0  0  0  0
  2 27  1  0  0  0  0
  3  4  1  0  0  0  0
  3 28  1  0  0  0  0
  3 29  1  0  0  0  0
  4  5  1  0  0  0  0
  4 20  1  0  0  0  0
  5  6  1  0  0  0  0
  5 30  1  0  0  0  0
  5 31  1  0  0  0  0
  6  7  1  0  0  0  0
  6  8  1  0  0  0  0
  6 32  1  0  0  0  0
  7 33  1  0  0  0  0
  8  9  1  0  0  0  0
  8 34  1  0  0  0  0
  8 35  1  0  0  0  0
  9 19  1  0  0  0  0
  9 10  1  0  0  0  0
 10 11  2  0  0  0  0
 10 36  1  0  0  0  0
 11 12  1  0  0  0  0
 11 45  1  0  0  0  0
 12 19  2  0  0  0  0
 12 13  1  0  0  0  0
 13 14  2  0  0  0  0
 13 37  1  0  0  0  0
 14 15  1  0  0  0  0
 14 16  1  0  0  0  0
 16 17  1  0  0  0  0
 16 18  2  0  0  0  0
 18 19  1  0  0  0  0
 18 38  1  0  0  0  0
 20 21  1  0  0  0  0
 20 39  1  0  0  0  0
 20 40  1  0  0  0  0
 21 22  1  0  0  0  0
 21 23  1  0  0  0  0
 21 41  1  0  0  0  0
 22 42  1  0  0  0  0
 22 43  1  0  0  0  0
 22 44  1  0  0  0  0
M  CHG  1  11   1
M  END
> <s_m_source_file>
AV-unprocessed.smi

> <i_m_source_file_index>
1824

> <i_lp_mmshare_version>
43012

> <i_f3d_flags>
0

> <s_epik_input>
W0NIM11bQ0BASF0xW0NIMl1OKFtDSDJdW0NASF0oTzEpW0NIM10pW0NIMl1bQ0BIXShbT0hdKVtDSDJdbihbY0hdbjIpYyhjMjMpW2NIXWMoRiljKEYpW2NIXTM=

> <s_epik_cmdline>
J2VwaWtfcHl0aG9uJywgJy1waCcsICc3LjAnLCAnLXRuJywgJzgnLCAnLW1hJywgJzIwMCcsICctbWV0YWxfYmluZGluZycsICctaW1hZScsICc8aW5maWxlLm1hZT4nLCAnLW9tYWUnLCAnPG91dGZpbGUubWFlPic=

> <r_epik_Ionization_Penalty>
2.58709

> <r_epik_Ionization_Penalty_Charging>
2.37273

> <r_epik_Ionization_Penalty_Neutral>
0.214359

> <r_epik_State_Penalty>
2.71799

> <r_epik_Charging_Adjusted_Penalty>
5.09071

> <i_epik_Tot_Q>
1

> <i_epik_Tot_abs_Q>
1

> <r_epik_Metal_State_Penalty>
6.80217

> <b_epik_Metal_Only>
0

> <s_lp_Force_Field>
OPLS_2005

> <r_lp_Energy>
28.8683

> <b_lp_Chiralities_Consistent>
1

> <s_lp_Variant>
AV-unprocessed.smi:1824-18

> <Gold.Version>
5.8.1

> <Gold.Id.Protein>
6NUR|6NUR_protein|mol2

> <Gold.PLP.Fitness>
58.9622

> <Gold.PLP.PLP>
-61.3567

> <Gold.PLP.part.hbond>
-3.0000

> <Gold.PLP.part.metal>
0.0000

> <Gold.PLP.part.buried>
-1.8173

> <Gold.PLP.part.nonpolar>
-57.4551

> <Gold.PLP.part.repulsive>
0.2533

> <Gold.PLP.ligand.clash>
0.0000

> <Gold.PLP.ligand.torsion>
1.2036

> <Gold.PLP.Chemscore.Hbond>
0.0000

> <Gold.PLP.Chemscore.CHOScore>
0.0000

> <Gold.PLP.Chemscore.Metal>
0.0000

> <Gold.PLP.Chemscore.Internal.Correction>
0.0127

> <Gold.Rescore>
     Score         DG    S(hbond)    S(metal)    S(lipo)     H(rot)  DE(clash)    DE(int)     intcor
     14.60     -15.96       0.00        0.00     140.39       2.32       0.10       1.27       ----

> <Gold.Chemscore.Fitness>
14.5960

> <Gold.Chemscore.DG>
-15.9639

> <Gold.Chemscore.ZeroCoef>
-5.4800

> <Gold.Chemscore.Hbond>
0.0000

> <Gold.Chemscore.Metal>
0.0000

> <Gold.Chemscore.Lipo>
140.3896

> <Gold.Chemscore.Internal_Hbond>
0.0000

> <Gold.Chemscore.DEClash>
0.0956

> <Gold.Chemscore.DEInternal>
1.2723

> <Gold.Chemscore.Rot>
2.3210

> <Gold.Chemscore.Internal.Correction>
   9.000000E+99

> <Gold.Chemscore.Hbond.Weighted>
-0.0000

> <Gold.Chemscore.Metal.Weighted>
-0.0000

> <Gold.Chemscore.Lipo.Weighted>
-16.4256

> <Gold.Chemscore.Internal_Hbond.Weighted>
0.0000

> <Gold.Chemscore.DEClash.Weighted>
0.0956

> <Gold.Chemscore.DEInternal.Weighted>
1.2723

> <Gold.Chemscore.Rot.Weighted>
5.9416

> <Gold.Chemscore.Internal.Correction.Weighted>
   9.000000E+99

> <Gold.Protein.RotatedTorsions>
[ 6907 6896 6895 6894 ] final  -53.17 input  -60.11 | X-H torsion
[ 7974 7965 7964 7962 ] final  -30.42 input  175.53 | X-H torsion
[ 8008 7997 7996 7995 ] final  -65.29 input   59.86 | X-H torsion
[ 10167 10162 10161 10158 ] final   65.60 input  -65.29 | X-H torsion
[ 10718 10713 10712 10709 ] final  140.55 input   66.30 | X-H torsion
[ 10763 10752 10751 10750 ] final  -44.56 input  -60.55 | X-H torsion
[ 11005 11000 10999 10996 ] final -155.34 input  -57.11 | X-H torsion

> <Gold.Protein.ActiveResidues>
 VAL166  LYS551  ARG553  GLY616  TRP617  ASP618  TYR619  PRO620  LYS621  CYS622 
 ASP623  PHE694  ASN695  SER759  ASP760  ASP761  ALA762  ILE779  LEU786  VAL792 
 PHE793  MET794  SER795  GLU796  ALA797  LYS798  CYS799  TRP800  GLU811  SER814 

> <Gold.Protein.RotatedAtoms>
  150.8451  134.7757  159.6963 H   0  0  0  0  0  0  0  0  0  0  0  0  # atno 6907 bound_to 6896
  152.4529  134.5351  159.9832 H   0  0  0  0  0  0  0  0  0  0  0  0  # atno 6908 bound_to 6896
  151.5483  133.3383  159.2984 H   0  0  0  0  0  0  0  0  0  0  0  0  # atno 6909 bound_to 6896
  146.1144  140.5539  142.8763 H   0  0  0  0  0  0  0  0  0  0  0  0  # atno 7974 bound_to 7965
  154.4663  140.0936  156.7028 H   0  0  0  0  0  0  0  0  0  0  0  0  # atno 8008 bound_to 7997
  155.4850  140.3469  155.4327 H   0  0  0  0  0  0  0  0  0  0  0  0  # atno 8009 bound_to 7997
  156.0961  140.1410  156.9517 H   0  0  0  0  0  0  0  0  0  0  0  0  # atno 8010 bound_to 7997
  140.1095  144.4831  150.6987 H   0  0  0  0  0  0  0  0  0  0  0  0  # atno 10167 bound_to 10162
  157.4020  131.1018  151.0541 H   0  0  0  0  0  0  0  0  0  0  0  0  # atno 10718 bound_to 10713
  154.0141  135.6678  153.4767 H   0  0  0  0  0  0  0  0  0  0  0  0  # atno 10763 bound_to 10752
  153.0608  135.5029  154.8085 H   0  0  0  0  0  0  0  0  0  0  0  0  # atno 10764 bound_to 10752
  154.6978  135.3073  154.9350 H   0  0  0  0  0  0  0  0  0  0  0  0  # atno 10765 bound_to 10752
  140.6875  134.4078  157.5222 H   0  0  0  0  0  0  0  0  0  0  0  0  # atno 11005 bound_to 11000
  144.7540  140.5260  143.6782 LP  0  0  0  0  0  0  0  0  0  0  0  0  # atno 17320 bound_to 7965
  145.5598  139.1479  143.3348 LP  0  0  0  0  0  0  0  0  0  0  0  0  # atno 17321 bound_to 7965
  140.6933  143.2389  151.5070 LP  0  0  0  0  0  0  0  0  0  0  0  0  # atno 17342 bound_to 10162
  139.5627  144.2118  152.1716 LP  0  0  0  0  0  0  0  0  0  0  0  0  # atno 17343 bound_to 10162
  157.1537  130.6195  149.5590 LP  0  0  0  0  0  0  0  0  0  0  0  0  # atno 17370 bound_to 10713
  155.9826  130.4840  150.6889 LP  0  0  0  0  0  0  0  0  0  0  0  0  # atno 17371 bound_to 10713
  139.8933  134.8733  156.2229 LP  0  0  0  0  0  0  0  0  0  0  0  0  # atno 17394 bound_to 11000
  141.0268  133.7010  156.1362 LP  0  0  0  0  0  0  0  0  0  0  0  0  # atno 17395 bound_to 11000

$$$$
