AV-unprocessed.smi:2008|AV-procd|sdf|8141|dock1
  -GOLD-   2272010373D 1   1.00000     0.00000
 Structure written by MMmdl.
 46 47  0  0  0  0  0  0  0  0  2 V2000
  150.5179  142.1181  157.7521 C   0  0  0  0  0  0  0  0  0  0  0  0
  150.8843  141.7117  156.4381 O   0  0  0  0  0  0  0  0  0  0  0  0
  150.4061  140.5058  155.9681 C   0  0  0  0  0  0  0  0  0  0  0  0
  149.8541  139.5941  156.8895 C   0  0  0  0  0  0  0  0  0  0  0  0
  149.3665  138.3598  156.4190 C   0  0  0  0  0  0  0  0  0  0  0  0
  149.4387  138.0782  155.0335 C   0  0  0  0  0  0  0  0  0  0  0  0
  149.0002  136.8671  154.4314 N   0  0  0  0  0  0  0  0  0  0  0  0
  148.6667  135.7049  155.0185 C   0  0  0  0  0  0  0  0  0  0  0  0
  148.6536  135.4926  156.2306 O   0  0  0  0  0  0  0  0  0  0  0  0
  148.3294  134.7798  154.1085 N   0  0  0  0  0  0  0  0  0  0  0  0
  147.9211  133.4159  154.4251 C   0  0  0  0  0  0  0  0  0  0  0  0
  148.5161  132.4048  153.4247 C   0  0  0  0  0  0  0  0  0  0  0  0
  147.5684  132.0774  152.3219 N   0  3  2  0  0  0  0  0  0  0  0  0
  147.1181  133.3196  151.6292 C   0  0  0  0  0  0  0  0  0  0  0  0
  146.2449  133.0174  150.4052 C   0  0  0  0  0  0  0  0  0  0  0  0
  145.0260  132.1926  150.8157 C   0  0  0  0  0  0  0  0  0  0  0  0
  145.4955  130.9168  151.5181 C   0  0  0  0  0  0  0  0  0  0  0  0
  146.4116  131.2126  152.7280 C   0  0  1  0  0  0  0  0  0  0  0  0
  146.8477  129.8634  153.3393 C   0  0  0  0  0  0  0  0  0  0  0  0
  150.0180  139.0550  154.1971 C   0  0  0  0  0  0  0  0  0  0  0  0
  150.4885  140.2392  154.6414 N   0  0  0  0  0  0  0  0  0  0  0  0
  150.9744  143.0832  157.9712 H   0  0  0  0  0  0  0  0  0  0  0  0
  150.8684  141.4086  158.5030 H   0  0  0  0  0  0  0  0  0  0  0  0
  149.4373  142.2346  157.8460 H   0  0  0  0  0  0  0  0  0  0  0  0
  149.8103  139.8352  157.9414 H   0  0  0  0  0  0  0  0  0  0  0  0
  148.9631  137.6579  157.1314 H   0  0  0  0  0  0  0  0  0  0  0  0
  148.8926  136.9026  153.4282 H   0  0  0  0  0  0  0  0  0  0  0  0
  148.3575  135.0365  153.1323 H   0  0  0  0  0  0  0  0  0  0  0  0
  148.2051  133.1896  155.4528 H   0  0  0  0  0  0  0  0  0  0  0  0
  146.8321  133.3722  154.3900 H   0  0  0  0  0  0  0  0  0  0  0  0
  149.4343  132.8477  153.0495 H   0  0  0  0  0  0  0  0  0  0  0  0
  148.8190  131.4849  153.9274 H   0  0  0  0  0  0  0  0  0  0  0  0
  146.5622  133.9444  152.3307 H   0  0  0  0  0  0  0  0  0  0  0  0
  147.9742  133.9085  151.3030 H   0  0  0  0  0  0  0  0  0  0  0  0
  145.9233  133.9483  149.9373 H   0  0  0  0  0  0  0  0  0  0  0  0
  146.8273  132.4779  149.6570 H   0  0  0  0  0  0  0  0  0  0  0  0
  144.3875  132.7735  151.4826 H   0  0  0  0  0  0  0  0  0  0  0  0
  144.4247  131.9438  149.9407 H   0  0  0  0  0  0  0  0  0  0  0  0
  144.6240  130.3447  151.8390 H   0  0  0  0  0  0  0  0  0  0  0  0
  146.0257  130.2879  150.8012 H   0  0  0  0  0  0  0  0  0  0  0  0
  145.8294  131.7561  153.4740 H   0  0  0  0  0  0  0  0  0  0  0  0
  145.9941  129.1936  153.4485 H   0  0  0  0  0  0  0  0  0  0  0  0
  147.2706  129.9663  154.3373 H   0  0  0  0  0  0  0  0  0  0  0  0
  147.5789  129.3577  152.7079 H   0  0  0  0  0  0  0  0  0  0  0  0
  150.1062  138.8832  153.1341 H   0  0  0  0  0  0  0  0  0  0  0  0
  148.0910  131.5375  151.6470 H   0  0  0  0  0  0  0  0  0  0  0  0
  1  2  1  0  0  0  0
  1 22  1  0  0  0  0
  1 23  1  0  0  0  0
  1 24  1  0  0  0  0
  2  3  1  0  0  0  0
  3 21  1  0  0  0  0
  3  4  2  0  0  0  0
  4  5  1  0  0  0  0
  4 25  1  0  0  0  0
  5  6  2  0  0  0  0
  5 26  1  0  0  0  0
  6  7  1  0  0  0  0
  6 20  1  0  0  0  0
  7  8  1  0  0  0  0
  7 27  1  0  0  0  0
  8  9  2  0  0  0  0
  8 10  1  0  0  0  0
 10 11  1  0  0  0  0
 10 28  1  0  0  0  0
 11 12  1  0  0  0  0
 11 29  1  0  0  0  0
 11 30  1  0  0  0  0
 12 13  1  0  0  0  0
 12 31  1  0  0  0  0
 12 32  1  0  0  0  0
 13 18  1  0  0  0  0
 13 14  1  0  0  0  0
 13 46  1  0  0  0  0
 14 15  1  0  0  0  0
 14 33  1  0  0  0  0
 14 34  1  0  0  0  0
 15 16  1  0  0  0  0
 15 35  1  0  0  0  0
 15 36  1  0  0  0  0
 16 17  1  0  0  0  0
 16 37  1  0  0  0  0
 16 38  1  0  0  0  0
 17 18  1  0  0  0  0
 17 39  1  0  0  0  0
 17 40  1  0  0  0  0
 18 19  1  0  0  0  0
 18 41  1  0  0  0  0
 19 42  1  0  0  0  0
 19 43  1  0  0  0  0
 19 44  1  0  0  0  0
 20 21  2  0  0  0  0
 20 45  1  0  0  0  0
M  CHG  1  13   1
M  END
> <s_m_source_file>
AV-unprocessed.smi

> <i_m_source_file_index>
2008

> <i_lp_mmshare_version>
43012

> <i_f3d_flags>
0

> <s_epik_input>
W0NIM11PYzFbY0hdW2NIXWMoW2NIXW4xKVtOSF1DKD1PKVtOSF1bQ0gyXVtDSDJdTjJbQ0gyXVtDSDJdW0NIMl1bQ0gyXVtDQEhdMltDSDNd

> <s_epik_cmdline>
J2VwaWtfcHl0aG9uJywgJy1waCcsICc3LjAnLCAnLXRuJywgJzgnLCAnLW1hJywgJzIwMCcsICctbWV0YWxfYmluZGluZycsICctaW1hZScsICc8aW5maWxlLm1hZT4nLCAnLW9tYWUnLCAnPG91dGZpbGUubWFlPic=

> <r_lp_tautomer_probability>
1

> <r_epik_Ionization_Penalty>
0.00219526

> <r_epik_Ionization_Penalty_Charging>
0.00211816

> <r_epik_Ionization_Penalty_Neutral>
7.71003e-05

> <r_epik_State_Penalty>
0.00145254

> <r_epik_Charging_Adjusted_Penalty>
0.0035707

> <i_epik_Tot_Q>
1

> <i_epik_Tot_abs_Q>
1

> <r_epik_Metal_State_Penalty>
-0

> <b_epik_Metal_Only>
0

> <s_lp_Force_Field>
OPLS_2005

> <r_lp_Energy>
23.4607

> <b_lp_Chiralities_Consistent>
1

> <s_lp_Variant>
AV-unprocessed.smi:2008-1

> <Gold.Version>
5.8.1

> <Gold.Id.Protein>
6NUR|6NUR_protein|mol2

> <Gold.PLP.Fitness>
46.9494

> <Gold.PLP.PLP>
-33.3962

> <Gold.PLP.part.hbond>
-4.0000

> <Gold.PLP.part.metal>
0.0000

> <Gold.PLP.part.buried>
-5.8724

> <Gold.PLP.part.nonpolar>
-24.3013

> <Gold.PLP.part.repulsive>
0.1697

> <Gold.PLP.ligand.clash>
0.0466

> <Gold.PLP.ligand.torsion>
0.6509

> <Gold.PLP.Chemscore.Hbond>
3.9440

> <Gold.PLP.Chemscore.CHOScore>
1.0000

> <Gold.PLP.Chemscore.Metal>
0.0000

> <Gold.Chemscore.Hbonds>
donor molecule, donor type, donor heavy atom, donor atom, acceptor molecule, acceptor atom, score
      L1  H     7    27       P1  7948  1.00
      L1  H    10    28       P1  7948  0.96
      L1  H    13    46       P1 10747  1.00
      P1  H  7989  7998       L1    21  1.00
      L1  C    20    45       P1  7957  1.00

> <Gold.PLP.Chemscore.Internal.Correction>
0.0698

> <Gold.Rescore>
     Score         DG    S(hbond)    S(metal)    S(lipo)     H(rot)  DE(clash)    DE(int)     intcor
     20.72     -22.40       3.65        0.00      77.80       1.71       0.04       1.64       ----

> <Gold.Chemscore.Fitness>
20.7224

> <Gold.Chemscore.DG>
-22.4015

> <Gold.Chemscore.ZeroCoef>
-5.4800

> <Gold.Chemscore.Hbond>
3.6523

> <Gold.Chemscore.Metal>
0.0000

> <Gold.Chemscore.Lipo>
77.7973

> <Gold.Chemscore.Internal_Hbond>
0.0000

> <Gold.Chemscore.DEClash>
0.0355

> <Gold.Chemscore.DEInternal>
1.6436

> <Gold.Chemscore.Rot>
1.7107

> <Gold.Chemscore.Internal.Correction>
   9.000000E+99

> <Gold.Chemscore.Hbonds>
donor molecule, donor type, donor heavy atom, donor atom, acceptor molecule, acceptor atom, score
      L1  H     7    27       P1  7948  0.97
      L1  H    10    28       P1  7948  0.79
      L1  H    13    46       P1 10747  1.00
      P1  H  7989  7998       L1    21  0.69

> <Gold.Chemscore.Hbond.Weighted>
-12.1986

> <Gold.Chemscore.Metal.Weighted>
-0.0000

> <Gold.Chemscore.Lipo.Weighted>
-9.1023

> <Gold.Chemscore.Internal_Hbond.Weighted>
0.0000

> <Gold.Chemscore.DEClash.Weighted>
0.0355

> <Gold.Chemscore.DEInternal.Weighted>
1.6436

> <Gold.Chemscore.Rot.Weighted>
4.3794

> <Gold.Chemscore.Internal.Correction.Weighted>
   9.000000E+99

> <Gold.Protein.RotatedTorsions>
[ 6907 6896 6895 6894 ] final -133.70 input  -60.11 | X-H torsion
[ 7974 7965 7964 7962 ] final  -23.11 input  175.53 | X-H torsion
[ 8008 7997 7996 7995 ] final  -56.11 input   59.86 | X-H torsion
[ 10167 10162 10161 10158 ] final   69.96 input  -65.29 | X-H torsion
[ 10718 10713 10712 10709 ] final  -38.23 input   66.30 | X-H torsion
[ 10763 10752 10751 10750 ] final   -0.06 input  -60.55 | X-H torsion
[ 11005 11000 10999 10996 ] final -141.36 input  -57.11 | X-H torsion

> <Gold.Protein.ActiveResidues>
 VAL166  LYS551  ARG553  GLY616  TRP617  ASP618  TYR619  PRO620  LYS621  CYS622 
 ASP623  PHE694  ASN695  SER759  ASP760  ASP761  ALA762  ILE779  LEU786  VAL792 
 PHE793  MET794  SER795  GLU796  ALA797  LYS798  CYS799  TRP800  GLU811  SER814 

> <Gold.Protein.RotatedAtoms>
  150.9771  133.6284  159.2728 H   0  0  0  0  0  0  0  0  0  0  0  0  # atno 6907 bound_to 6896
  151.3552  135.0891  159.9426 H   0  0  0  0  0  0  0  0  0  0  0  0  # atno 6908 bound_to 6896
  152.5203  133.9355  159.7656 H   0  0  0  0  0  0  0  0  0  0  0  0  # atno 6909 bound_to 6896
  146.1636  140.4571  142.8561 H   0  0  0  0  0  0  0  0  0  0  0  0  # atno 7974 bound_to 7965
  154.4218  140.1137  156.5584 H   0  0  0  0  0  0  0  0  0  0  0  0  # atno 8008 bound_to 7997
  155.6337  140.3496  155.4672 H   0  0  0  0  0  0  0  0  0  0  0  0  # atno 8009 bound_to 7997
  155.9927  140.1183  157.0612 H   0  0  0  0  0  0  0  0  0  0  0  0  # atno 8010 bound_to 7997
  140.0621  144.5224  150.7286 H   0  0  0  0  0  0  0  0  0  0  0  0  # atno 10167 bound_to 10162
  156.3061  130.4246  149.8095 H   0  0  0  0  0  0  0  0  0  0  0  0  # atno 10718 bound_to 10713
  153.3271  135.6973  153.6980 H   0  0  0  0  0  0  0  0  0  0  0  0  # atno 10763 bound_to 10752
  153.5797  135.3500  155.2871 H   0  0  0  0  0  0  0  0  0  0  0  0  # atno 10764 bound_to 10752
  154.8610  135.4292  154.2450 H   0  0  0  0  0  0  0  0  0  0  0  0  # atno 10765 bound_to 10752
  140.8332  134.2492  157.4847 H   0  0  0  0  0  0  0  0  0  0  0  0  # atno 11005 bound_to 11000
  144.8061  140.6301  143.6446 LP  0  0  0  0  0  0  0  0  0  0  0  0  # atno 17320 bound_to 7965
  145.4526  139.1522  143.3910 LP  0  0  0  0  0  0  0  0  0  0  0  0  # atno 17321 bound_to 7965
  140.7167  143.2550  151.4413 LP  0  0  0  0  0  0  0  0  0  0  0  0  # atno 17342 bound_to 10162
  139.5887  144.1547  152.2061 LP  0  0  0  0  0  0  0  0  0  0  0  0  # atno 17343 bound_to 10162
  156.5456  130.8319  151.3283 LP  0  0  0  0  0  0  0  0  0  0  0  0  # atno 17370 bound_to 10713
  157.7380  130.9805  150.2225 LP  0  0  0  0  0  0  0  0  0  0  0  0  # atno 17371 bound_to 10713
  139.8704  134.9597  156.4339 LP  0  0  0  0  0  0  0  0  0  0  0  0  # atno 17394 bound_to 11000
  140.8976  133.7803  155.9643 LP  0  0  0  0  0  0  0  0  0  0  0  0  # atno 17395 bound_to 11000

$$$$
