AV-unprocessed.smi:226|AV-procd|sdf|1725|dock8
  -GOLD-   2262020213D 1   1.00000     0.00000
 Structure written by MMmdl.
 54 58  0  0  0  0  0  0  0  0  1 V2000
  143.9866  135.8950  159.2952 O   0  0  0  0  0  0  0  0  0  0  0  0
  144.7989  136.8208  159.3233 C   0  0  0  0  0  0  0  0  0  0  0  0
  145.6329  137.0387  160.3503 N   0  0  0  0  0  0  0  0  0  0  0  0
  145.7204  136.2434  161.5314 C   0  0  0  0  0  0  0  0  0  0  0  0
  146.7207  136.6586  162.5883 C   0  0  0  0  0  0  0  0  0  0  0  0
  146.9876  135.4439  161.7429 C   0  0  0  0  0  0  0  0  0  0  0  0
  144.9040  137.8139  158.1513 C   0  0  2  0  0  0  0  0  0  0  0  0
  144.4628  139.2287  158.5653 C   0  0  0  0  0  0  0  0  0  0  0  0
  142.9678  139.2697  158.2536 C   0  0  0  0  0  0  0  0  0  0  0  0
  142.8513  138.3993  157.0028 C   0  0  0  0  0  0  0  0  0  0  0  0
  143.9866  137.4836  157.0605 N   0  0  0  0  0  0  0  0  0  0  0  0
  144.1791  136.4984  156.1393 C   0  0  0  0  0  0  0  0  0  0  0  0
  144.7620  135.3445  156.5607 N   0  0  0  0  0  0  0  0  0  0  0  0
  144.9819  134.3380  155.7120 C   0  0  0  0  0  0  0  0  0  0  0  0
  144.7044  134.2715  154.4105 N   0  0  0  0  0  0  0  0  0  0  0  0
  144.1201  135.4219  153.9714 C   0  0  0  0  0  0  0  0  0  0  0  0
  143.8153  136.5716  154.7589 C   0  0  0  0  0  0  0  0  0  0  0  0
  143.2027  137.5272  153.9539 N   0  0  0  0  0  0  0  0  0  0  0  0
  143.1495  136.9788  152.7720 C   0  0  0  0  0  0  0  0  0  0  0  0
  143.7056  135.7244  152.6859 N   0  0  0  0  0  0  0  0  0  0  0  0
  143.7474  134.8798  151.5275 C   0  0  0  0  0  0  0  0  0  0  0  0
  143.6455  133.3575  151.6583 C   0  0  0  0  0  0  0  0  0  0  0  0
  144.6485  133.1766  150.4976 C   0  0  0  0  0  0  0  0  0  0  0  0
  145.7661  132.1541  150.7552 C   0  0  0  0  0  0  0  0  0  0  0  0
  146.8246  132.3036  149.8308 O   0  0  0  0  0  0  0  0  0  0  0  0
  144.0634  132.8673  149.1013 C   0  0  0  0  0  0  0  0  0  0  0  0
  142.8788  132.0977  149.1488 O   0  0  0  0  0  0  0  0  0  0  0  0
  145.0530  134.6449  150.7605 C   0  0  0  0  0  0  0  0  0  0  0  0
  146.2644  137.8239  160.2844 H   0  0  0  0  0  0  0  0  0  0  0  0
  144.8017  135.7862  161.8964 H   0  0  0  0  0  0  0  0  0  0  0  0
  147.3235  137.5449  162.3995 H   0  0  0  0  0  0  0  0  0  0  0  0
  146.4465  136.4960  163.6288 H   0  0  0  0  0  0  0  0  0  0  0  0
  146.8911  134.4695  162.2174 H   0  0  0  0  0  0  0  0  0  0  0  0
  147.7684  135.5186  160.9882 H   0  0  0  0  0  0  0  0  0  0  0  0
  145.9323  137.8580  157.7910 H   0  0  0  0  0  0  0  0  0  0  0  0
  144.6774  139.4661  159.6084 H   0  0  0  0  0  0  0  0  0  0  0  0
  144.9821  139.9664  157.9519 H   0  0  0  0  0  0  0  0  0  0  0  0
  142.4080  138.8183  159.0739 H   0  0  0  0  0  0  0  0  0  0  0  0
  142.5893  140.2812  158.1039 H   0  0  0  0  0  0  0  0  0  0  0  0
  141.8978  137.8697  156.9806 H   0  0  0  0  0  0  0  0  0  0  0  0
  142.9282  139.0098  156.1020 H   0  0  0  0  0  0  0  0  0  0  0  0
  145.4485  133.4612  156.1365 H   0  0  0  0  0  0  0  0  0  0  0  0
  142.7050  137.4823  151.9258 H   0  0  0  0  0  0  0  0  0  0  0  0
  142.9723  135.2582  150.8602 H   0  0  0  0  0  0  0  0  0  0  0  0
  144.0335  132.9988  152.6132 H   0  0  0  0  0  0  0  0  0  0  0  0
  142.6489  132.9571  151.4690 H   0  0  0  0  0  0  0  0  0  0  0  0
  146.1633  132.2482  151.7664 H   0  0  0  0  0  0  0  0  0  0  0  0
  145.3901  131.1343  150.6660 H   0  0  0  0  0  0  0  0  0  0  0  0
  147.4275  131.5848  149.9474 H   0  0  0  0  0  0  0  0  0  0  0  0
  143.8357  133.7896  148.5659 H   0  0  0  0  0  0  0  0  0  0  0  0
  144.7812  132.3204  148.4890 H   0  0  0  0  0  0  0  0  0  0  0  0
  142.1390  132.6856  149.1661 H   0  0  0  0  0  0  0  0  0  0  0  0
  145.1629  135.2580  149.8656 H   0  0  0  0  0  0  0  0  0  0  0  0
  145.9323  134.7343  151.4006 H   0  0  0  0  0  0  0  0  0  0  0  0
  1  2  2  0  0  0  0
  2  3  1  0  0  0  0
  2  7  1  0  0  0  0
  3  4  1  0  0  0  0
  3 29  1  0  0  0  0
  4  6  1  0  0  0  0
  4  5  1  0  0  0  0
  4 30  1  0  0  0  0
  5  6  1  0  0  0  0
  5 31  1  0  0  0  0
  5 32  1  0  0  0  0
  6 33  1  0  0  0  0
  6 34  1  0  0  0  0
  7 11  1  0  0  0  0
  7  8  1  0  0  0  0
  7 35  1  0  0  0  0
  8  9  1  0  0  0  0
  8 36  1  0  0  0  0
  8 37  1  0  0  0  0
  9 10  1  0  0  0  0
  9 38  1  0  0  0  0
  9 39  1  0  0  0  0
 10 11  1  0  0  0  0
 10 40  1  0  0  0  0
 10 41  1  0  0  0  0
 11 12  1  0  0  0  0
 12 17  1  0  0  0  0
 12 13  2  0  0  0  0
 13 14  1  0  0  0  0
 14 15  2  0  0  0  0
 14 42  1  0  0  0  0
 15 16  1  0  0  0  0
 16 20  1  0  0  0  0
 16 17  2  0  0  0  0
 17 18  1  0  0  0  0
 18 19  2  0  0  0  0
 19 20  1  0  0  0  0
 19 43  1  0  0  0  0
 20 21  1  0  0  0  0
 21 28  1  0  0  0  0
 21 22  1  0  0  0  0
 21 44  1  0  0  0  0
 22 23  1  0  0  0  0
 22 45  1  0  0  0  0
 22 46  1  0  0  0  0
 23 24  1  0  0  0  0
 23 26  1  0  0  0  0
 23 28  1  0  0  0  0
 24 25  1  0  0  0  0
 24 47  1  0  0  0  0
 24 48  1  0  0  0  0
 25 49  1  0  0  0  0
 26 27  1  0  0  0  0
 26 50  1  0  0  0  0
 26 51  1  0  0  0  0
 27 52  1  0  0  0  0
 28 53  1  0  0  0  0
 28 54  1  0  0  0  0
M  END
> <s_m_source_file>
AV-unprocessed.smi

> <i_m_source_file_index>
226

> <i_lp_mmshare_version>
43012

> <i_f3d_flags>
0

> <s_epik_input>
W0NIMl0xW0NIMl1bQ0hdMVtOSF1DKD1PKVtDQEBIXTJbQ0gyXVtDSDJdW0NIMl1OMmMobltjSF1uMyljKGMzNCluW2NIXW40W0NIXShbQ0gyXTUpW0NIMl1DNShbQ0gyXVtPSF0pW0NIMl1bT0hd

> <s_epik_cmdline>
J2VwaWtfcHl0aG9uJywgJy1waCcsICc3LjAnLCAnLXRuJywgJzgnLCAnLW1hJywgJzIwMCcsICctbWV0YWxfYmluZGluZycsICctaW1hZScsICc8aW5maWxlLm1hZT4nLCAnLW9tYWUnLCAnPG91dGZpbGUubWFlPic=

> <r_lp_tautomer_probability>
1

> <r_epik_Ionization_Penalty>
0.000818715

> <r_epik_Ionization_Penalty_Charging>
0

> <r_epik_Ionization_Penalty_Neutral>
0.000818715

> <r_epik_State_Penalty>
0.000426447

> <r_epik_Charging_Adjusted_Penalty>
0.000426447

> <i_epik_Tot_Q>
0

> <i_epik_Tot_abs_Q>
0

> <r_epik_Metal_State_Penalty>
-0

> <b_epik_Metal_Only>
0

> <s_lp_Force_Field>
OPLS_2005

> <r_lp_Energy>
61.6174

> <b_lp_Chiralities_Consistent>
1

> <s_lp_Variant>
AV-unprocessed.smi:226-1

> <Gold.Version>
5.8.1

> <Gold.Id.Protein>
6NUR|6NUR_protein|mol2

> <Gold.PLP.Fitness>
43.9767

> <Gold.PLP.PLP>
-35.6305

> <Gold.PLP.part.hbond>
-3.9788

> <Gold.PLP.part.metal>
0.0000

> <Gold.PLP.part.buried>
-7.5754

> <Gold.PLP.part.nonpolar>
-24.4614

> <Gold.PLP.part.repulsive>
0.3632

> <Gold.PLP.ligand.clash>
0.0000

> <Gold.PLP.ligand.torsion>
1.9542

> <Gold.PLP.Chemscore.Hbond>
2.9175

> <Gold.PLP.Chemscore.CHOScore>
1.0000

> <Gold.PLP.Chemscore.Metal>
0.0000

> <Gold.Chemscore.Hbonds>
donor molecule, donor type, donor heavy atom, donor atom, acceptor molecule, acceptor atom, score
      L1  H    25    49       P1 10747  1.00
      L1  H    27    52       P1 10186  0.84
      P1  H 10785 10796       L1    27  1.00
      L1  C    19    43       P1 10171  0.76

> <Gold.PLP.Chemscore.Internal.Correction>
0.5022

> <Gold.Rescore>
     Score         DG    S(hbond)    S(metal)    S(lipo)     H(rot)  DE(clash)    DE(int)     intcor
      9.67     -13.38       2.64        0.00      69.13       3.52       0.00       3.70       ----

> <Gold.Chemscore.Fitness>
9.6733

> <Gold.Chemscore.DG>
-13.3782

> <Gold.Chemscore.ZeroCoef>
-5.4800

> <Gold.Chemscore.Hbond>
2.6446

> <Gold.Chemscore.Metal>
0.0000

> <Gold.Chemscore.Lipo>
69.1252

> <Gold.Chemscore.Internal_Hbond>
0.0000

> <Gold.Chemscore.DEClash>
0.0000

> <Gold.Chemscore.DEInternal>
3.7049

> <Gold.Chemscore.Rot>
3.5244

> <Gold.Chemscore.Internal.Correction>
   9.000000E+99

> <Gold.Chemscore.Hbonds>
donor molecule, donor type, donor heavy atom, donor atom, acceptor molecule, acceptor atom, score
      L1  H    25    49       P1 10747  0.98
      L1  H    27    52       P1 10186  0.82
      P1  H 10785 10796       L1    27  0.80

> <Gold.Chemscore.Hbond.Weighted>
-8.8331

> <Gold.Chemscore.Metal.Weighted>
-0.0000

> <Gold.Chemscore.Lipo.Weighted>
-8.0877

> <Gold.Chemscore.Internal_Hbond.Weighted>
0.0000

> <Gold.Chemscore.DEClash.Weighted>
0.0000

> <Gold.Chemscore.DEInternal.Weighted>
3.7049

> <Gold.Chemscore.Rot.Weighted>
9.0225

> <Gold.Chemscore.Internal.Correction.Weighted>
   9.000000E+99

> <Gold.Protein.RotatedTorsions>
[ 6907 6896 6895 6894 ] final -170.53 input  -60.11 | X-H torsion
[ 7974 7965 7964 7962 ] final -100.80 input  175.53 | X-H torsion
[ 8008 7997 7996 7995 ] final  160.98 input   59.86 | X-H torsion
[ 10167 10162 10161 10158 ] final   24.89 input  -65.29 | X-H torsion
[ 10718 10713 10712 10709 ] final  104.13 input   66.30 | X-H torsion
[ 10763 10752 10751 10750 ] final  -90.42 input  -60.55 | X-H torsion
[ 11005 11000 10999 10996 ] final -125.93 input  -57.11 | X-H torsion

> <Gold.Protein.ActiveResidues>
 VAL166  LYS551  ARG553  GLY616  TRP617  ASP618  TYR619  PRO620  LYS621  CYS622 
 ASP623  PHE694  ASN695  SER759  ASP760  ASP761  ALA762  ILE779  LEU786  VAL792 
 PHE793  MET794  SER795  GLU796  ALA797  LYS798  CYS799  TRP800  GLU811  SER814 

> <Gold.Protein.RotatedAtoms>
  151.5093  133.3488  159.2881 H   0  0  0  0  0  0  0  0  0  0  0  0  # atno 6907 bound_to 6896
  150.8723  134.8101  159.7175 H   0  0  0  0  0  0  0  0  0  0  0  0  # atno 6908 bound_to 6896
  152.4706  134.4978  159.9767 H   0  0  0  0  0  0  0  0  0  0  0  0  # atno 6909 bound_to 6896
  145.2899  140.9350  143.2884 H   0  0  0  0  0  0  0  0  0  0  0  0  # atno 7974 bound_to 7965
  156.2135  140.1790  156.7641 H   0  0  0  0  0  0  0  0  0  0  0  0  # atno 8008 bound_to 7997
  154.5757  140.0675  156.9060 H   0  0  0  0  0  0  0  0  0  0  0  0  # atno 8009 bound_to 7997
  155.2592  140.3334  155.4277 H   0  0  0  0  0  0  0  0  0  0  0  0  # atno 8010 bound_to 7997
  140.5151  144.0096  150.6390 H   0  0  0  0  0  0  0  0  0  0  0  0  # atno 10167 bound_to 10162
  157.6750  131.0796  150.5660 H   0  0  0  0  0  0  0  0  0  0  0  0  # atno 10718 bound_to 10713
  154.6656  135.5305  153.8072 H   0  0  0  0  0  0  0  0  0  0  0  0  # atno 10763 bound_to 10752
  153.0468  135.6516  154.0805 H   0  0  0  0  0  0  0  0  0  0  0  0  # atno 10764 bound_to 10752
  154.0709  135.2954  155.3288 H   0  0  0  0  0  0  0  0  0  0  0  0  # atno 10765 bound_to 10752
  140.9723  134.0789  157.3856 H   0  0  0  0  0  0  0  0  0  0  0  0  # atno 11005 bound_to 11000
  144.9182  139.4445  143.6554 LP  0  0  0  0  0  0  0  0  0  0  0  0  # atno 17320 bound_to 7965
  146.3188  139.8027  142.8962 LP  0  0  0  0  0  0  0  0  0  0  0  0  # atno 17321 bound_to 7965
  140.3429  143.3009  152.0569 LP  0  0  0  0  0  0  0  0  0  0  0  0  # atno 17342 bound_to 10162
  139.4907  144.6429  151.6839 LP  0  0  0  0  0  0  0  0  0  0  0  0  # atno 17343 bound_to 10162
  156.5962  130.4342  149.5916 LP  0  0  0  0  0  0  0  0  0  0  0  0  # atno 17370 bound_to 10713
  156.2543  130.6925  151.1673 LP  0  0  0  0  0  0  0  0  0  0  0  0  # atno 17371 bound_to 10713
  139.8917  135.0120  156.6804 LP  0  0  0  0  0  0  0  0  0  0  0  0  # atno 17394 bound_to 11000
  140.7311  133.9058  155.8212 LP  0  0  0  0  0  0  0  0  0  0  0  0  # atno 17395 bound_to 11000

$$$$
