AV-unprocessed.smi:1017|AV-procd|sdf|4439|dock8
  -GOLD-   22720 2403D 1   1.00000     0.00000
 Structure written by MMmdl.
 43 44  0  0  0  0  0  0  0  0  2 V2000
  152.9056  141.3635  159.7225 C   0  0  0  0  0  0  0  0  0  0  0  0
  153.4722  140.1268  159.3191 O   0  0  0  0  0  0  0  0  0  0  0  0
  152.5522  139.2473  158.6872 C   0  0  0  0  0  0  0  0  0  0  0  0
  151.8914  139.8959  157.4553 C   0  0  0  0  0  0  0  0  0  0  0  0
  150.5614  139.3330  157.2025 N   0  0  0  0  0  0  0  0  0  0  0  0
  150.1904  138.3380  158.0908 N   0  0  0  0  0  0  0  0  0  0  0  0
  149.0369  137.7609  157.9851 C   0  0  0  0  0  0  0  0  0  0  0  0
  148.6352  136.6832  158.9442 C   0  0  0  0  0  0  0  0  0  0  0  0
  149.3645  135.6844  158.9501 O   0  0  0  0  0  0  0  0  0  0  0  0
  147.5258  136.8686  159.7236 N   0  5  0  0  0  0  0  0  0  0  0  0
  146.5965  135.8612  160.2841 C   0  0  0  0  0  0  0  0  0  0  0  0
  145.1964  136.5511  160.3372 C   0  0  0  0  0  0  0  0  0  0  0  0
  144.2448  135.7503  160.8127 F   0  0  0  0  0  0  0  0  0  0  0  0
  145.2389  137.6326  161.1189 F   0  0  0  0  0  0  0  0  0  0  0  0
  144.8211  136.9407  159.1166 F   0  0  0  0  0  0  0  0  0  0  0  0
  146.5704  134.5920  159.3692 C   0  0  0  0  0  0  0  0  0  0  0  0
  145.8504  133.3587  159.9713 C   0  0  0  0  0  0  0  0  0  0  0  0
  146.3960  132.9733  161.3600 C   0  0  0  0  0  0  0  0  0  0  0  0
  146.3487  134.1920  162.3019 C   0  0  0  0  0  0  0  0  0  0  0  0
  147.0703  135.4304  161.7120 C   0  0  0  0  0  0  0  0  0  0  0  0
  148.1114  138.1521  156.9281 C   0  0  0  0  0  0  0  0  0  0  0  0
  148.4876  139.1250  156.0700 C   0  0  0  0  0  0  0  0  0  0  0  0
  149.7862  139.7900  156.1743 C   0  0  0  0  0  0  0  0  0  0  0  0
  150.1489  140.6829  155.4083 O   0  0  0  0  0  0  0  0  0  0  0  0
  153.6603  141.9543  160.2417 H   0  0  0  0  0  0  0  0  0  0  0  0
  152.0713  141.2119  160.4086 H   0  0  0  0  0  0  0  0  0  0  0  0
  152.5578  141.9486  158.8713 H   0  0  0  0  0  0  0  0  0  0  0  0
  153.1130  138.3687  158.3666 H   0  0  0  0  0  0  0  0  0  0  0  0
  151.8081  138.8928  159.4021 H   0  0  0  0  0  0  0  0  0  0  0  0
  151.8160  140.9773  157.5746 H   0  0  0  0  0  0  0  0  0  0  0  0
  152.5304  139.7445  156.5833 H   0  0  0  0  0  0  0  0  0  0  0  0
  146.1249  134.8358  158.4044 H   0  0  0  0  0  0  0  0  0  0  0  0
  147.5862  134.2701  159.1429 H   0  0  0  0  0  0  0  0  0  0  0  0
  144.7749  133.5269  160.0303 H   0  0  0  0  0  0  0  0  0  0  0  0
  145.9706  132.5124  159.2942 H   0  0  0  0  0  0  0  0  0  0  0  0
  145.8230  132.1456  161.7786 H   0  0  0  0  0  0  0  0  0  0  0  0
  147.4257  132.6267  161.2638 H   0  0  0  0  0  0  0  0  0  0  0  0
  145.3137  134.4269  162.5506 H   0  0  0  0  0  0  0  0  0  0  0  0
  146.8171  133.9267  163.2501 H   0  0  0  0  0  0  0  0  0  0  0  0
  148.1314  135.1851  161.6994 H   0  0  0  0  0  0  0  0  0  0  0  0
  146.9776  136.2671  162.4047 H   0  0  0  0  0  0  0  0  0  0  0  0
  147.1436  137.6856  156.8179 H   0  0  0  0  0  0  0  0  0  0  0  0
  147.8097  139.4221  155.2836 H   0  0  0  0  0  0  0  0  0  0  0  0
  1  2  1  0  0  0  0
  1 25  1  0  0  0  0
  1 26  1  0  0  0  0
  1 27  1  0  0  0  0
  2  3  1  0  0  0  0
  3  4  1  0  0  0  0
  3 28  1  0  0  0  0
  3 29  1  0  0  0  0
  4  5  1  0  0  0  0
  4 30  1  0  0  0  0
  4 31  1  0  0  0  0
  5 23  1  0  0  0  0
  5  6  1  0  0  0  0
  6  7  2  0  0  0  0
  7  8  1  0  0  0  0
  7 21  1  0  0  0  0
  8  9  2  0  0  0  0
  8 10  1  0  0  0  0
 10 11  1  0  0  0  0
 11 20  1  0  0  0  0
 11 12  1  0  0  0  0
 11 16  1  0  0  0  0
 12 13  1  0  0  0  0
 12 14  1  0  0  0  0
 12 15  1  0  0  0  0
 16 17  1  0  0  0  0
 16 32  1  0  0  0  0
 16 33  1  0  0  0  0
 17 18  1  0  0  0  0
 17 34  1  0  0  0  0
 17 35  1  0  0  0  0
 18 19  1  0  0  0  0
 18 36  1  0  0  0  0
 18 37  1  0  0  0  0
 19 20  1  0  0  0  0
 19 38  1  0  0  0  0
 19 39  1  0  0  0  0
 20 40  1  0  0  0  0
 20 41  1  0  0  0  0
 21 22  2  0  0  0  0
 21 42  1  0  0  0  0
 22 23  1  0  0  0  0
 22 43  1  0  0  0  0
 23 24  2  0  0  0  0
M  CHG  1  10  -1
M  END
> <s_m_source_file>
AV-unprocessed.smi

> <i_m_source_file_index>
1017

> <i_lp_mmshare_version>
43012

> <i_f3d_flags>
0

> <s_epik_input>
W0NIM11PW0NIMl1bQ0gyXW4xbmMoW2NIXVtjSF1jMT1PKUMoPU8pW05IXUMyKEMoRikoRilGKVtDSDJdW0NIMl1bQ0gyXVtDSDJdW0NIMl0y

> <s_epik_cmdline>
J2VwaWtfcHl0aG9uJywgJy1waCcsICc3LjAnLCAnLXRuJywgJzgnLCAnLW1hJywgJzIwMCcsICctbWV0YWxfYmluZGluZycsICctaW1hZScsICc8aW5maWxlLm1hZT4nLCAnLW9tYWUnLCAnPG91dGZpbGUubWFlPic=

> <r_lp_tautomer_probability>
1

> <r_epik_Ionization_Penalty>
6.5547

> <r_epik_Ionization_Penalty_Charging>
6.5547

> <r_epik_Ionization_Penalty_Neutral>
1.08437e-11

> <r_epik_State_Penalty>
6.55469

> <r_epik_Charging_Adjusted_Penalty>
13.1094

> <i_epik_Tot_Q>
-1

> <i_epik_Tot_abs_Q>
1

> <r_epik_Metal_State_Penalty>
2.48023

> <b_epik_Metal_Only>
1

> <s_lp_Force_Field>
OPLS_2005

> <r_lp_Energy>
56.1946

> <b_lp_Chiralities_Consistent>
1

> <s_lp_Variant>
AV-unprocessed.smi:1017-2

> <Gold.Version>
5.8.1

> <Gold.Id.Protein>
6NUR|6NUR_protein|mol2

> <Gold.PLP.Fitness>
44.4362

> <Gold.PLP.PLP>
-33.5569

> <Gold.PLP.part.hbond>
-4.0000

> <Gold.PLP.part.metal>
0.0000

> <Gold.PLP.part.buried>
-1.5207

> <Gold.PLP.part.nonpolar>
-29.0742

> <Gold.PLP.part.repulsive>
0.0772

> <Gold.PLP.ligand.clash>
0.0000

> <Gold.PLP.ligand.torsion>
2.0394

> <Gold.PLP.Chemscore.Hbond>
4.9478

> <Gold.PLP.Chemscore.CHOScore>
0.0000

> <Gold.PLP.Chemscore.Metal>
0.0000

> <Gold.Chemscore.Hbonds>
donor molecule, donor type, donor heavy atom, donor atom, acceptor molecule, acceptor atom, score
      P1  H  6896  6908       L1     9  1.00
      P1  H  7989  7998       L1    24  0.03

> <Gold.PLP.Chemscore.Internal.Correction>
0.1146

> <Gold.Rescore>
     Score         DG    S(hbond)    S(metal)    S(lipo)     H(rot)  DE(clash)    DE(int)     intcor
     10.73     -16.14       1.79        0.00      76.39       1.67       0.25       5.16       ----

> <Gold.Chemscore.Fitness>
10.7299

> <Gold.Chemscore.DG>
-16.1382

> <Gold.Chemscore.ZeroCoef>
-5.4800

> <Gold.Chemscore.Hbond>
1.7918

> <Gold.Chemscore.Metal>
0.0000

> <Gold.Chemscore.Lipo>
76.3911

> <Gold.Chemscore.Internal_Hbond>
0.0000

> <Gold.Chemscore.DEClash>
0.2522

> <Gold.Chemscore.DEInternal>
5.1561

> <Gold.Chemscore.Rot>
1.6657

> <Gold.Chemscore.Internal.Correction>
   9.000000E+99

> <Gold.Chemscore.Hbonds>
donor molecule, donor type, donor heavy atom, donor atom, acceptor molecule, acceptor atom, score
      P1  H  6896  6908       L1     9  1.00
      P1  H  6934  6947       L1    10  0.01
      P1  H  7989  7998       L1    24  0.07

> <Gold.Chemscore.Hbond.Weighted>
-5.9846

> <Gold.Chemscore.Metal.Weighted>
-0.0000

> <Gold.Chemscore.Lipo.Weighted>
-8.9378

> <Gold.Chemscore.Internal_Hbond.Weighted>
0.0000

> <Gold.Chemscore.DEClash.Weighted>
0.2522

> <Gold.Chemscore.DEInternal.Weighted>
5.1561

> <Gold.Chemscore.Rot.Weighted>
4.2641

> <Gold.Chemscore.Internal.Correction.Weighted>
   9.000000E+99

> <Gold.Protein.RotatedTorsions>
[ 6907 6896 6895 6894 ] final  175.49 input  -60.11 | X-H torsion
[ 7974 7965 7964 7962 ] final  168.11 input  175.53 | X-H torsion
[ 8008 7997 7996 7995 ] final  132.42 input   59.86 | X-H torsion
[ 10167 10162 10161 10158 ] final -103.59 input  -65.29 | X-H torsion
[ 10718 10713 10712 10709 ] final -158.37 input   66.30 | X-H torsion
[ 10763 10752 10751 10750 ] final   22.09 input  -60.55 | X-H torsion
[ 11005 11000 10999 10996 ] final  -88.42 input  -57.11 | X-H torsion

> <Gold.Protein.ActiveResidues>
 VAL166  LYS551  ARG553  GLY616  TRP617  ASP618  TYR619  PRO620  LYS621  CYS622 
 ASP623  PHE694  ASN695  SER759  ASP760  ASP761  ALA762  ILE779  LEU786  VAL792 
 PHE793  MET794  SER795  GLU796  ALA797  LYS798  CYS799  TRP800  GLU811  SER814 

> <Gold.Protein.RotatedAtoms>
  151.7353  133.3319  159.3350 H   0  0  0  0  0  0  0  0  0  0  0  0  # atno 6907 bound_to 6896
  150.7595  134.6326  159.6204 H   0  0  0  0  0  0  0  0  0  0  0  0  # atno 6908 bound_to 6896
  152.3565  134.6934  160.0272 H   0  0  0  0  0  0  0  0  0  0  0  0  # atno 6909 bound_to 6896
  144.7400  139.8859  143.6399 H   0  0  0  0  0  0  0  0  0  0  0  0  # atno 7974 bound_to 7965
  156.2982  140.2547  156.3087 H   0  0  0  0  0  0  0  0  0  0  0  0  # atno 8008 bound_to 7997
  154.9347  140.0397  157.2085 H   0  0  0  0  0  0  0  0  0  0  0  0  # atno 8009 bound_to 7997
  154.8184  140.2856  155.5808 H   0  0  0  0  0  0  0  0  0  0  0  0  # atno 8010 bound_to 7997
  140.2184  143.3694  152.0991 H   0  0  0  0  0  0  0  0  0  0  0  0  # atno 10167 bound_to 10162
  156.5532  130.8614  151.2786 H   0  0  0  0  0  0  0  0  0  0  0  0  # atno 10718 bound_to 10713
  153.0943  135.6655  153.9793 H   0  0  0  0  0  0  0  0  0  0  0  0  # atno 10763 bound_to 10752
  153.9381  135.2997  155.3445 H   0  0  0  0  0  0  0  0  0  0  0  0  # atno 10764 bound_to 10752
  154.7360  135.5101  153.9117 H   0  0  0  0  0  0  0  0  0  0  0  0  # atno 10765 bound_to 10752
  141.1602  133.7569  156.9449 H   0  0  0  0  0  0  0  0  0  0  0  0  # atno 11005 bound_to 11000
  146.1177  139.4190  143.0248 LP  0  0  0  0  0  0  0  0  0  0  0  0  # atno 17320 bound_to 7965
  145.7350  141.0028  143.1331 LP  0  0  0  0  0  0  0  0  0  0  0  0  # atno 17321 bound_to 7965
  139.5153  144.6961  151.5625 LP  0  0  0  0  0  0  0  0  0  0  0  0  # atno 17342 bound_to 10162
  140.6273  143.9144  150.6575 LP  0  0  0  0  0  0  0  0  0  0  0  0  # atno 17343 bound_to 10162
  157.7383  130.9812  150.2247 LP  0  0  0  0  0  0  0  0  0  0  0  0  # atno 17370 bound_to 10713
  156.2866  130.3740  149.7882 LP  0  0  0  0  0  0  0  0  0  0  0  0  # atno 17371 bound_to 10713
  140.1296  134.9364  157.2319 LP  0  0  0  0  0  0  0  0  0  0  0  0  # atno 17394 bound_to 11000
  140.2969  134.3176  155.7300 LP  0  0  0  0  0  0  0  0  0  0  0  0  # atno 17395 bound_to 11000

$$$$
