AV-unprocessed.smi:1334|AV-procd|sdf|5493|dock1
  -GOLD-   22720 5 73D 1   1.00000     0.00000
 Structure written by MMmdl.
 38 39  0  0  0  0  0  0  0  0  1 V2000
  153.5688  136.3460  157.3880 C   0  0  0  0  0  0  0  0  0  0  0  0
  152.7581  137.6581  157.4133 C   0  0  1  0  0  0  0  0  0  0  0  0
  153.3842  138.7230  158.3258 C   0  0  0  0  0  0  0  0  0  0  0  0
  154.5954  138.9418  158.2928 O   0  0  0  0  0  0  0  0  0  0  0  0
  152.5355  139.3863  159.1278 N   0  0  0  0  0  0  0  0  0  0  0  0
  152.8869  140.4899  160.0171 C   0  0  0  0  0  0  0  0  0  0  0  0
  153.4046  141.7070  159.2288 C   0  0  0  0  0  0  0  0  0  0  0  0
  152.7253  143.0171  159.6008 C   0  0  0  0  0  0  0  0  0  0  0  0
  152.2863  143.2630  160.8508 C   0  0  0  0  0  0  0  0  0  0  0  0
  151.5878  144.5435  161.2705 C   0  0  0  0  0  0  0  0  0  0  0  0
  151.0876  145.3523  160.0633 C   0  0  0  0  0  0  0  0  0  0  0  0
  152.1654  145.4331  158.9755 C   0  0  0  0  0  0  0  0  0  0  0  0
  152.5663  144.0335  158.4750 C   0  0  0  0  0  0  0  0  0  0  0  0
  152.5488  138.2056  156.0784 N   0  0  0  0  0  0  0  0  0  0  0  0
  152.5993  139.4699  155.6541 C   0  0  0  0  0  0  0  0  0  0  0  0
  152.3951  139.6106  154.3519 N   0  0  0  0  0  0  0  0  0  0  0  0
  152.2279  138.2999  154.0050 C   0  0  0  0  0  0  0  0  0  0  0  0
  152.3245  137.4163  154.9979 N   0  0  0  0  0  0  0  0  0  0  0  0
  153.6662  135.9265  158.3898 H   0  0  0  0  0  0  0  0  0  0  0  0
  154.5750  136.4908  156.9921 H   0  0  0  0  0  0  0  0  0  0  0  0
  153.0754  135.5975  156.7675 H   0  0  0  0  0  0  0  0  0  0  0  0
  151.7731  137.4186  157.8177 H   0  0  0  0  0  0  0  0  0  0  0  0
  151.5594  139.1316  159.0909 H   0  0  0  0  0  0  0  0  0  0  0  0
  151.9917  140.7722  160.5714 H   0  0  0  0  0  0  0  0  0  0  0  0
  153.6192  140.1858  160.7666 H   0  0  0  0  0  0  0  0  0  0  0  0
  154.4803  141.8023  159.3835 H   0  0  0  0  0  0  0  0  0  0  0  0
  153.2686  141.5375  158.1603 H   0  0  0  0  0  0  0  0  0  0  0  0
  152.4307  142.5263  161.6275 H   0  0  0  0  0  0  0  0  0  0  0  0
  150.7540  144.3029  161.9288 H   0  0  0  0  0  0  0  0  0  0  0  0
  152.2914  145.1351  161.8566 H   0  0  0  0  0  0  0  0  0  0  0  0
  150.1957  144.8790  159.6503 H   0  0  0  0  0  0  0  0  0  0  0  0
  150.7899  146.3521  160.3807 H   0  0  0  0  0  0  0  0  0  0  0  0
  151.8174  146.0407  158.1398 H   0  0  0  0  0  0  0  0  0  0  0  0
  153.0429  145.9390  159.3801 H   0  0  0  0  0  0  0  0  0  0  0  0
  153.4967  144.1018  157.9109 H   0  0  0  0  0  0  0  0  0  0  0  0
  151.8082  143.6638  157.7855 H   0  0  0  0  0  0  0  0  0  0  0  0
  152.7906  140.3053  156.3115 H   0  0  0  0  0  0  0  0  0  0  0  0
  152.0416  137.9869  152.9884 H   0  0  0  0  0  0  0  0  0  0  0  0
  1  2  1  0  0  0  0
  1 19  1  0  0  0  0
  1 20  1  0  0  0  0
  1 21  1  0  0  0  0
  2  3  1  0  0  0  0
  2 14  1  0  0  0  0
  2 22  1  0  0  0  0
  3  4  2  0  0  0  0
  3  5  1  0  0  0  0
  5  6  1  0  0  0  0
  5 23  1  0  0  0  0
  6  7  1  0  0  0  0
  6 24  1  0  0  0  0
  6 25  1  0  0  0  0
  7  8  1  0  0  0  0
  7 26  1  0  0  0  0
  7 27  1  0  0  0  0
  8 13  1  0  0  0  0
  8  9  2  0  0  0  0
  9 10  1  0  0  0  0
  9 28  1  0  0  0  0
 10 11  1  0  0  0  0
 10 29  1  0  0  0  0
 10 30  1  0  0  0  0
 11 12  1  0  0  0  0
 11 31  1  0  0  0  0
 11 32  1  0  0  0  0
 12 13  1  0  0  0  0
 12 33  1  0  0  0  0
 12 34  1  0  0  0  0
 13 35  1  0  0  0  0
 13 36  1  0  0  0  0
 14 18  1  0  0  0  0
 14 15  1  0  0  0  0
 15 16  2  0  0  0  0
 15 37  1  0  0  0  0
 16 17  1  0  0  0  0
 17 18  2  0  0  0  0
 17 38  1  0  0  0  0
M  END
> <s_m_source_file>
AV-unprocessed.smi

> <i_m_source_file_index>
1334

> <i_lp_mmshare_version>
43012

> <i_f3d_flags>
0

> <s_epik_input>
bjFbY0hdbltjSF1uMVtDQEhdKFtDSDNdKUMoPU8pW05IXVtDSDJdW0NIMl1DMj1bQ0hdW0NIMl1bQ0gyXVtDSDJdW0NIMl0y

> <s_epik_cmdline>
J2VwaWtfcHl0aG9uJywgJy1waCcsICc3LjAnLCAnLXRuJywgJzgnLCAnLW1hJywgJzIwMCcsICctbWV0YWxfYmluZGluZycsICctaW1hZScsICc8aW5maWxlLm1hZT4nLCAnLW9tYWUnLCAnPG91dGZpbGUubWFlPic=

> <r_lp_tautomer_probability>
1

> <r_epik_Ionization_Penalty>
1.26383e-05

> <r_epik_Ionization_Penalty_Charging>
0

> <r_epik_Ionization_Penalty_Neutral>
1.26383e-05

> <r_epik_State_Penalty>
-0

> <r_epik_Charging_Adjusted_Penalty>
0

> <i_epik_Tot_Q>
0

> <i_epik_Tot_abs_Q>
0

> <r_epik_Metal_State_Penalty>
-0

> <b_epik_Metal_Only>
0

> <s_lp_Force_Field>
OPLS_2005

> <r_lp_Energy>
11.5149

> <b_lp_Chiralities_Consistent>
1

> <s_lp_Variant>
AV-unprocessed.smi:1334-2

> <Gold.Version>
5.8.1

> <Gold.Id.Protein>
6NUR|6NUR_protein|mol2

> <Gold.PLP.Fitness>
49.0811

> <Gold.PLP.PLP>
-40.3351

> <Gold.PLP.part.hbond>
-2.9564

> <Gold.PLP.part.metal>
0.0000

> <Gold.PLP.part.buried>
-4.0235

> <Gold.PLP.part.nonpolar>
-33.4427

> <Gold.PLP.part.repulsive>
0.2313

> <Gold.PLP.ligand.clash>
0.0000

> <Gold.PLP.ligand.torsion>
1.6999

> <Gold.PLP.Chemscore.Hbond>
2.9920

> <Gold.PLP.Chemscore.CHOScore>
0.9991

> <Gold.PLP.Chemscore.Metal>
0.0000

> <Gold.Chemscore.Hbonds>
donor molecule, donor type, donor heavy atom, donor atom, acceptor molecule, acceptor atom, score
      P1  H  7989  7998       L1    16  0.61
      P1  H  7997  8010       L1     4  0.94
      P1  H 10752 10764       L1    18  0.66
      L1  C    17    38       P1  7949  0.74

> <Gold.PLP.Chemscore.Internal.Correction>
0.1726

> <Gold.Rescore>
     Score         DG    S(hbond)    S(metal)    S(lipo)     H(rot)  DE(clash)    DE(int)     intcor
     18.17     -20.20       2.74        0.00     100.27       2.40       0.14       1.90       ----

> <Gold.Chemscore.Fitness>
18.1666

> <Gold.Chemscore.DG>
-20.2045

> <Gold.Chemscore.ZeroCoef>
-5.4800

> <Gold.Chemscore.Hbond>
2.7363

> <Gold.Chemscore.Metal>
0.0000

> <Gold.Chemscore.Lipo>
100.2745

> <Gold.Chemscore.Internal_Hbond>
0.0000

> <Gold.Chemscore.DEClash>
0.1399

> <Gold.Chemscore.DEInternal>
1.8979

> <Gold.Chemscore.Rot>
2.4011

> <Gold.Chemscore.Internal.Correction>
   9.000000E+99

> <Gold.Chemscore.Hbonds>
donor molecule, donor type, donor heavy atom, donor atom, acceptor molecule, acceptor atom, score
      P1  H  7989  7998       L1    16  0.59
      P1  H  7997  8010       L1     4  0.70
      P1  H 10752 10764       L1    18  0.64

> <Gold.Chemscore.Hbond.Weighted>
-9.1392

> <Gold.Chemscore.Metal.Weighted>
-0.0000

> <Gold.Chemscore.Lipo.Weighted>
-11.7321

> <Gold.Chemscore.Internal_Hbond.Weighted>
0.0000

> <Gold.Chemscore.DEClash.Weighted>
0.1399

> <Gold.Chemscore.DEInternal.Weighted>
1.8979

> <Gold.Chemscore.Rot.Weighted>
6.1469

> <Gold.Chemscore.Internal.Correction.Weighted>
   9.000000E+99

> <Gold.Protein.RotatedTorsions>
[ 6907 6896 6895 6894 ] final   56.66 input  -60.11 | X-H torsion
[ 7974 7965 7964 7962 ] final  118.61 input  175.53 | X-H torsion
[ 8008 7997 7996 7995 ] final   11.58 input   59.86 | X-H torsion
[ 10167 10162 10161 10158 ] final   51.37 input  -65.29 | X-H torsion
[ 10718 10713 10712 10709 ] final  -64.86 input   66.30 | X-H torsion
[ 10763 10752 10751 10750 ] final  -52.03 input  -60.55 | X-H torsion
[ 11005 11000 10999 10996 ] final -134.14 input  -57.11 | X-H torsion

> <Gold.Protein.ActiveResidues>
 VAL166  LYS551  ARG553  GLY616  TRP617  ASP618  TYR619  PRO620  LYS621  CYS622 
 ASP623  PHE694  ASN695  SER759  ASP760  ASP761  ALA762  ILE779  LEU786  VAL792 
 PHE793  MET794  SER795  GLU796  ALA797  LYS798  CYS799  TRP800  GLU811  SER814 

> <Gold.Protein.RotatedAtoms>
  152.3658  134.6807  160.0192 H   0  0  0  0  0  0  0  0  0  0  0  0  # atno 6907 bound_to 6896
  151.7116  133.3307  159.3300 H   0  0  0  0  0  0  0  0  0  0  0  0  # atno 6908 bound_to 6896
  150.7637  134.6462  159.6308 H   0  0  0  0  0  0  0  0  0  0  0  0  # atno 6909 bound_to 6896
  145.1531  139.3199  143.4556 H   0  0  0  0  0  0  0  0  0  0  0  0  # atno 7974 bound_to 7965
  154.8089  140.2865  155.5867 H   0  0  0  0  0  0  0  0  0  0  0  0  # atno 8008 bound_to 7997
  156.2986  140.2572  156.2903 H   0  0  0  0  0  0  0  0  0  0  0  0  # atno 8009 bound_to 7997
  154.9470  140.0380  157.2115 H   0  0  0  0  0  0  0  0  0  0  0  0  # atno 8010 bound_to 7997
  140.2626  144.3356  150.6313 H   0  0  0  0  0  0  0  0  0  0  0  0  # atno 10167 bound_to 10162
  156.0704  130.4239  150.1481 H   0  0  0  0  0  0  0  0  0  0  0  0  # atno 10718 bound_to 10713
  154.1361  135.6512  153.4932 H   0  0  0  0  0  0  0  0  0  0  0  0  # atno 10763 bound_to 10752
  153.0180  135.5304  154.6952 H   0  0  0  0  0  0  0  0  0  0  0  0  # atno 10764 bound_to 10752
  154.6200  135.2963  155.0307 H   0  0  0  0  0  0  0  0  0  0  0  0  # atno 10765 bound_to 10752
  140.9017  134.1682  157.4456 H   0  0  0  0  0  0  0  0  0  0  0  0  # atno 11005 bound_to 11000
  146.3492  140.1613  142.8591 LP  0  0  0  0  0  0  0  0  0  0  0  0  # atno 17320 bound_to 7965
  145.0409  140.8945  143.5053 LP  0  0  0  0  0  0  0  0  0  0  0  0  # atno 17321 bound_to 7965
  140.5953  143.2167  151.7175 LP  0  0  0  0  0  0  0  0  0  0  0  0  # atno 17342 bound_to 10162
  139.5012  144.3876  152.0313 LP  0  0  0  0  0  0  0  0  0  0  0  0  # atno 17343 bound_to 10162
  156.9533  130.9781  151.3494 LP  0  0  0  0  0  0  0  0  0  0  0  0  # atno 17370 bound_to 10713
  157.5771  130.8350  149.8470 LP  0  0  0  0  0  0  0  0  0  0  0  0  # atno 17371 bound_to 10713
  139.8743  134.9900  156.5485 LP  0  0  0  0  0  0  0  0  0  0  0  0  # atno 17394 bound_to 11000
  140.8222  133.8345  155.8906 LP  0  0  0  0  0  0  0  0  0  0  0  0  # atno 17395 bound_to 11000

$$$$
