AV-unprocessed.smi:2089|AV-procd|sdf|8528|dock3
  -GOLD-   2272011243D 1   1.00000     0.00000
 Structure written by MMmdl.
 39 40  0  0  0  0  0  0  0  0  1 V2000
  148.3717  136.0840  158.9089 C   0  0  0  0  0  0  0  0  0  0  0  0
  147.5904  136.5766  160.4987 S   0  0  0  0  0  0  0  0  0  0  0  0
  148.6441  136.6676  161.5210 O   0  0  0  0  0  0  0  0  0  0  0  0
  146.6963  137.7207  160.2641 O   0  0  0  0  0  0  0  0  0  0  0  0
  146.6061  135.2060  160.8840 N   0  0  0  0  0  0  0  0  0  0  0  0
  145.8408  135.2176  162.1390 C   0  0  0  0  0  0  0  0  0  0  0  0
  145.6412  133.7517  162.5171 C   0  0  0  0  0  0  0  0  0  0  0  0
  146.8760  133.0775  161.9359 C   0  0  0  0  0  0  0  0  0  0  0  0
  147.1482  133.8592  160.6385 C   0  0  1  0  0  0  0  0  0  0  0  0
  146.5524  133.2029  159.3838 C   0  0  0  0  0  0  0  0  0  0  0  0
  146.7206  133.6974  158.2685 O   0  0  0  0  0  0  0  0  0  0  0  0
  145.8602  132.0724  159.5835 N   0  0  0  0  0  0  0  0  0  0  0  0
  145.2320  131.2915  158.5278 C   0  0  0  0  0  0  0  0  0  0  0  0
  144.5857  130.0242  159.1037 C   0  0  0  0  0  0  0  0  0  0  0  0
  143.1440  130.2529  159.5171 C   0  0  0  0  0  0  0  0  0  0  0  0
  142.7596  130.1575  160.8716 C   0  0  0  0  0  0  0  0  0  0  0  0
  141.4112  130.3910  161.2046 C   0  0  0  0  0  0  0  0  0  0  0  0
  140.5037  130.7097  160.1761 C   0  0  0  0  0  0  0  0  0  0  0  0
  140.9875  130.7817  158.8544 C   0  0  0  0  0  0  0  0  0  0  0  0
  142.2784  130.5602  158.5245 N   0  0  0  0  0  0  0  0  0  0  0  0
  149.0600  136.8652  158.5870 H   0  0  0  0  0  0  0  0  0  0  0  0
  147.6033  135.9459  158.1488 H   0  0  0  0  0  0  0  0  0  0  0  0
  148.9200  135.1522  159.0462 H   0  0  0  0  0  0  0  0  0  0  0  0
  146.4172  135.7267  162.9123 H   0  0  0  0  0  0  0  0  0  0  0  0
  144.8967  135.7477  162.0126 H   0  0  0  0  0  0  0  0  0  0  0  0
  145.5426  133.6019  163.5925 H   0  0  0  0  0  0  0  0  0  0  0  0
  144.7421  133.3618  162.0384 H   0  0  0  0  0  0  0  0  0  0  0  0
  147.7183  133.1987  162.6184 H   0  0  0  0  0  0  0  0  0  0  0  0
  146.7334  132.0061  161.7883 H   0  0  0  0  0  0  0  0  0  0  0  0
  148.2291  133.9231  160.5006 H   0  0  0  0  0  0  0  0  0  0  0  0
  145.7805  131.7220  160.5276 H   0  0  0  0  0  0  0  0  0  0  0  0
  144.4775  131.8995  158.0258 H   0  0  0  0  0  0  0  0  0  0  0  0
  145.9832  131.0261  157.7821 H   0  0  0  0  0  0  0  0  0  0  0  0
  144.6200  129.2190  158.3680 H   0  0  0  0  0  0  0  0  0  0  0  0
  145.1541  129.6745  159.9667 H   0  0  0  0  0  0  0  0  0  0  0  0
  143.4798  129.9148  161.6393 H   0  0  0  0  0  0  0  0  0  0  0  0
  141.0794  130.3284  162.2305 H   0  0  0  0  0  0  0  0  0  0  0  0
  139.4627  130.8954  160.3948 H   0  0  0  0  0  0  0  0  0  0  0  0
  140.3200  131.0244  158.0409 H   0  0  0  0  0  0  0  0  0  0  0  0
  1  2  1  0  0  0  0
  1 21  1  0  0  0  0
  1 22  1  0  0  0  0
  1 23  1  0  0  0  0
  2  3  2  0  0  0  0
  2  4  2  0  0  0  0
  2  5  1  0  0  0  0
  5  9  1  0  0  0  0
  5  6  1  0  0  0  0
  6  7  1  0  0  0  0
  6 24  1  0  0  0  0
  6 25  1  0  0  0  0
  7  8  1  0  0  0  0
  7 26  1  0  0  0  0
  7 27  1  0  0  0  0
  8  9  1  0  0  0  0
  8 28  1  0  0  0  0
  8 29  1  0  0  0  0
  9 10  1  0  0  0  0
  9 30  1  0  0  0  0
 10 11  2  0  0  0  0
 10 12  1  0  0  0  0
 12 13  1  0  0  0  0
 12 31  1  0  0  0  0
 13 14  1  0  0  0  0
 13 32  1  0  0  0  0
 13 33  1  0  0  0  0
 14 15  1  0  0  0  0
 14 34  1  0  0  0  0
 14 35  1  0  0  0  0
 15 20  1  0  0  0  0
 15 16  2  0  0  0  0
 16 17  1  0  0  0  0
 16 36  1  0  0  0  0
 17 18  2  0  0  0  0
 17 37  1  0  0  0  0
 18 19  1  0  0  0  0
 18 38  1  0  0  0  0
 19 20  2  0  0  0  0
 19 39  1  0  0  0  0
M  END
> <s_m_source_file>
AV-unprocessed.smi

> <i_m_source_file_index>
2089

> <i_lp_mmshare_version>
43012

> <i_f3d_flags>
0

> <s_epik_input>
W0NIM11TKD1PKSg9TylOMVtDSDJdW0NIMl1bQ0gyXVtDQEhdMUMoPU8pW05IXVtDSDJdW0NIMl1jMltjSF1bY0hdW2NIXVtjSF1uMg==

> <s_epik_cmdline>
J2VwaWtfcHl0aG9uJywgJy1waCcsICc3LjAnLCAnLXRuJywgJzgnLCAnLW1hJywgJzIwMCcsICctbWV0YWxfYmluZGluZycsICctaW1hZScsICc8aW5maWxlLm1hZT4nLCAnLW9tYWUnLCAnPG91dGZpbGUubWFlPic=

> <r_epik_Ionization_Penalty>
0.0244371

> <r_epik_Ionization_Penalty_Charging>
0

> <r_epik_Ionization_Penalty_Neutral>
0.0244371

> <r_epik_State_Penalty>
0.0198365

> <r_epik_Charging_Adjusted_Penalty>
0.0198365

> <i_epik_Tot_Q>
0

> <i_epik_Tot_abs_Q>
0

> <r_epik_Metal_State_Penalty>
0.0190441

> <b_epik_Metal_Only>
0

> <s_lp_Force_Field>
OPLS_2005

> <r_lp_Energy>
6.09758

> <b_lp_Chiralities_Consistent>
1

> <s_lp_Variant>
AV-unprocessed.smi:2089-1

> <Gold.Version>
5.8.1

> <Gold.Id.Protein>
6NUR|6NUR_protein|mol2

> <Gold.PLP.Fitness>
36.5364

> <Gold.PLP.PLP>
-28.2627

> <Gold.PLP.part.hbond>
-2.1268

> <Gold.PLP.part.metal>
0.0000

> <Gold.PLP.part.buried>
-4.7621

> <Gold.PLP.part.nonpolar>
-22.0259

> <Gold.PLP.part.repulsive>
0.1527

> <Gold.PLP.ligand.clash>
0.0000

> <Gold.PLP.ligand.torsion>
0.6361

> <Gold.PLP.Chemscore.Hbond>
2.0000

> <Gold.PLP.Chemscore.CHOScore>
1.0000

> <Gold.PLP.Chemscore.Metal>
0.0000

> <Gold.Chemscore.Hbonds>
donor molecule, donor type, donor heavy atom, donor atom, acceptor molecule, acceptor atom, score
      P1  H  6931  6943       L1     3  1.00
      P1  H  6934  6947       L1     4  1.00
      L1  C    19    39       P1 10998  0.78

> <Gold.PLP.Chemscore.Internal.Correction>
0.5458

> <Gold.Rescore>
     Score         DG    S(hbond)    S(metal)    S(lipo)     H(rot)  DE(clash)    DE(int)     intcor
     12.28     -13.93       1.78        0.00      62.93       1.90       0.00       1.65       ----

> <Gold.Chemscore.Fitness>
12.2831

> <Gold.Chemscore.DG>
-13.9350

> <Gold.Chemscore.ZeroCoef>
-5.4800

> <Gold.Chemscore.Hbond>
1.7826

> <Gold.Chemscore.Metal>
0.0000

> <Gold.Chemscore.Lipo>
62.9262

> <Gold.Chemscore.Internal_Hbond>
0.0000

> <Gold.Chemscore.DEClash>
0.0000

> <Gold.Chemscore.DEInternal>
1.6519

> <Gold.Chemscore.Rot>
1.8990

> <Gold.Chemscore.Internal.Correction>
   9.000000E+99

> <Gold.Chemscore.Hbonds>
donor molecule, donor type, donor heavy atom, donor atom, acceptor molecule, acceptor atom, score
      P1  H  6931  6943       L1     3  0.85
      P1  H  6934  6947       L1     4  0.85

> <Gold.Chemscore.Hbond.Weighted>
-5.9540

> <Gold.Chemscore.Metal.Weighted>
-0.0000

> <Gold.Chemscore.Lipo.Weighted>
-7.3624

> <Gold.Chemscore.Internal_Hbond.Weighted>
0.0000

> <Gold.Chemscore.DEClash.Weighted>
0.0000

> <Gold.Chemscore.DEInternal.Weighted>
1.6519

> <Gold.Chemscore.Rot.Weighted>
4.8613

> <Gold.Chemscore.Internal.Correction.Weighted>
   9.000000E+99

> <Gold.Protein.RotatedTorsions>
[ 6907 6896 6895 6894 ] final   13.36 input  -60.11 | X-H torsion
[ 7974 7965 7964 7962 ] final   78.49 input  175.53 | X-H torsion
[ 8008 7997 7996 7995 ] final -166.66 input   59.86 | X-H torsion
[ 10167 10162 10161 10158 ] final -105.57 input  -65.29 | X-H torsion
[ 10718 10713 10712 10709 ] final -128.04 input   66.30 | X-H torsion
[ 10763 10752 10751 10750 ] final  -23.35 input  -60.55 | X-H torsion
[ 11005 11000 10999 10996 ] final   69.04 input  -57.11 | X-H torsion

> <Gold.Protein.ActiveResidues>
 VAL166  LYS551  ARG553  GLY616  TRP617  ASP618  TYR619  PRO620  LYS621  CYS622 
 ASP623  PHE694  ASN695  SER759  ASP760  ASP761  ALA762  ILE779  LEU786  VAL792 
 PHE793  MET794  SER795  GLU796  ALA797  LYS798  CYS799  TRP800  GLU811  SER814 

> <Gold.Protein.RotatedAtoms>
  151.7851  135.0751  160.0379 H   0  0  0  0  0  0  0  0  0  0  0  0  # atno 6907 bound_to 6896
  152.3196  133.5835  159.5744 H   0  0  0  0  0  0  0  0  0  0  0  0  # atno 6908 bound_to 6896
  150.7362  133.9947  159.3660 H   0  0  0  0  0  0  0  0  0  0  0  0  # atno 6909 bound_to 6896
  145.6765  139.2511  143.1838 H   0  0  0  0  0  0  0  0  0  0  0  0  # atno 7974 bound_to 7965
  155.8669  140.0987  157.1576 H   0  0  0  0  0  0  0  0  0  0  0  0  # atno 8008 bound_to 7997
  154.3994  140.1354  156.4093 H   0  0  0  0  0  0  0  0  0  0  0  0  # atno 8009 bound_to 7997
  155.7794  140.3459  155.5291 H   0  0  0  0  0  0  0  0  0  0  0  0  # atno 8010 bound_to 7997
  140.1971  143.3847  152.1160 H   0  0  0  0  0  0  0  0  0  0  0  0  # atno 10167 bound_to 10162
  156.1913  130.6797  151.0428 H   0  0  0  0  0  0  0  0  0  0  0  0  # atno 10718 bound_to 10713
  153.6664  135.6974  153.5161 H   0  0  0  0  0  0  0  0  0  0  0  0  # atno 10763 bound_to 10752
  153.2592  135.4250  155.0875 H   0  0  0  0  0  0  0  0  0  0  0  0  # atno 10764 bound_to 10752
  154.8438  135.3550  154.6208 H   0  0  0  0  0  0  0  0  0  0  0  0  # atno 10765 bound_to 10752
  139.9677  134.6953  156.0512 H   0  0  0  0  0  0  0  0  0  0  0  0  # atno 11005 bound_to 11000
  146.1001  140.7554  142.9553 LP  0  0  0  0  0  0  0  0  0  0  0  0  # atno 17320 bound_to 7965
  144.7040  140.3773  143.7133 LP  0  0  0  0  0  0  0  0  0  0  0  0  # atno 17321 bound_to 7965
  139.5232  144.7069  151.5328 LP  0  0  0  0  0  0  0  0  0  0  0  0  # atno 17342 bound_to 10162
  140.6416  143.8877  150.6697 LP  0  0  0  0  0  0  0  0  0  0  0  0  # atno 17343 bound_to 10162
  157.6931  131.0803  150.7050 LP  0  0  0  0  0  0  0  0  0  0  0  0  # atno 17370 bound_to 10713
  156.7107  130.4651  149.5548 LP  0  0  0  0  0  0  0  0  0  0  0  0  # atno 17371 bound_to 10713
  141.1356  133.6576  156.3585 LP  0  0  0  0  0  0  0  0  0  0  0  0  # atno 17394 bound_to 11000
  140.5361  134.6165  157.5365 LP  0  0  0  0  0  0  0  0  0  0  0  0  # atno 17395 bound_to 11000

$$$$
