AV-unprocessed.smi:954|AV-procd|sdf|4258|dock1
  -GOLD-   22720 2163D 1   1.00000     0.00000
 Structure written by MMmdl.
 24 24  0  0  0  0  0  0  0  0  1 V2000
  151.9774  144.9662  158.5712 C   0  0  0  0  0  0  0  0  0  0  0  0
  151.9318  143.4819  158.1855 C   0  0  0  0  0  0  0  0  0  0  0  0
  151.0125  143.2420  157.0790 N   0  0  0  0  0  0  0  0  0  0  0  0
  150.8154  142.0566  156.4822 C   0  0  0  0  0  0  0  0  0  0  0  0
  151.4072  141.0290  156.8175 O   0  0  0  0  0  0  0  0  0  0  0  0
  149.7917  142.0499  155.3394 C   0  0  0  0  0  0  0  0  0  0  0  0
  149.5369  140.7182  154.8139 N   0  0  0  0  0  0  0  0  0  0  0  0
  148.3216  140.1399  154.4977 C   0  0  0  0  0  0  0  0  0  0  0  0
  148.5725  138.8755  154.0454 C   0  0  0  0  0  0  0  0  0  0  0  0
  149.9882  138.7853  154.1258 C   0  0  0  0  0  0  0  0  0  0  0  0
  150.7011  137.6470  153.7589 N   0  0  0  0  0  0  0  0  0  0  0  0
  150.5716  139.8791  154.5802 N   0  0  0  0  0  0  0  0  0  0  0  0
  152.6507  145.1259  159.4135 H   0  0  0  0  0  0  0  0  0  0  0  0
  150.9911  145.3295  158.8609 H   0  0  0  0  0  0  0  0  0  0  0  0
  152.3328  145.5815  157.7439 H   0  0  0  0  0  0  0  0  0  0  0  0
  152.9311  143.1240  157.9322 H   0  0  0  0  0  0  0  0  0  0  0  0
  151.5987  142.8911  159.0390 H   0  0  0  0  0  0  0  0  0  0  0  0
  150.4871  144.0360  156.7423 H   0  0  0  0  0  0  0  0  0  0  0  0
  148.8483  142.4651  155.6956 H   0  0  0  0  0  0  0  0  0  0  0  0
  150.1433  142.6945  154.5321 H   0  0  0  0  0  0  0  0  0  0  0  0
  147.3896  140.6708  154.6244 H   0  0  0  0  0  0  0  0  0  0  0  0
  147.8575  138.1372  153.7138 H   0  0  0  0  0  0  0  0  0  0  0  0
  150.2355  136.8204  153.4133 H   0  0  0  0  0  0  0  0  0  0  0  0
  151.7053  137.6027  153.8562 H   0  0  0  0  0  0  0  0  0  0  0  0
  1  2  1  0  0  0  0
  1 13  1  0  0  0  0
  1 14  1  0  0  0  0
  1 15  1  0  0  0  0
  2  3  1  0  0  0  0
  2 16  1  0  0  0  0
  2 17  1  0  0  0  0
  3  4  1  0  0  0  0
  3 18  1  0  0  0  0
  4  5  2  0  0  0  0
  4  6  1  0  0  0  0
  6  7  1  0  0  0  0
  6 19  1  0  0  0  0
  6 20  1  0  0  0  0
  7 12  1  0  0  0  0
  7  8  1  0  0  0  0
  8  9  2  0  0  0  0
  8 21  1  0  0  0  0
  9 10  1  0  0  0  0
  9 22  1  0  0  0  0
 10 11  1  0  0  0  0
 10 12  2  0  0  0  0
 11 23  1  0  0  0  0
 11 24  1  0  0  0  0
M  END
> <s_m_source_file>
AV-unprocessed.smi

> <i_m_source_file_index>
954

> <i_lp_mmshare_version>
43012

> <i_f3d_flags>
0

> <s_epik_input>
W0NIM11bQ0gyXVtOSF1DKD1PKVtDSDJdbjFbY0hdW2NIXWMobjEpW05IMl0=

> <s_epik_cmdline>
J2VwaWtfcHl0aG9uJywgJy1waCcsICc3LjAnLCAnLXRuJywgJzgnLCAnLW1hJywgJzIwMCcsICctbWV0YWxfYmluZGluZycsICctaW1hZScsICc8aW5maWxlLm1hZT4nLCAnLW9tYWUnLCAnPG91dGZpbGUubWFlPic=

> <r_lp_tautomer_probability>
1

> <r_epik_Ionization_Penalty>
0.000257536

> <r_epik_Ionization_Penalty_Charging>
0

> <r_epik_Ionization_Penalty_Neutral>
0.000257536

> <r_epik_State_Penalty>
-0

> <r_epik_Charging_Adjusted_Penalty>
0

> <i_epik_Tot_Q>
0

> <i_epik_Tot_abs_Q>
0

> <r_epik_Metal_State_Penalty>
-0

> <b_epik_Metal_Only>
0

> <s_lp_Force_Field>
OPLS_2005

> <r_lp_Energy>
1.8316

> <b_lp_Chiralities_Consistent>
1

> <s_lp_Variant>
AV-unprocessed.smi:954-1

> <Gold.Version>
5.8.1

> <Gold.Id.Protein>
6NUR|6NUR_protein|mol2

> <Gold.PLP.Fitness>
32.5560

> <Gold.PLP.PLP>
-25.5713

> <Gold.PLP.part.hbond>
-4.0000

> <Gold.PLP.part.metal>
0.0000

> <Gold.PLP.part.buried>
-1.4431

> <Gold.PLP.part.nonpolar>
-20.9064

> <Gold.PLP.part.repulsive>
0.2112

> <Gold.PLP.ligand.clash>
0.0000

> <Gold.PLP.ligand.torsion>
0.2326

> <Gold.PLP.Chemscore.Hbond>
2.4821

> <Gold.PLP.Chemscore.CHOScore>
0.0000

> <Gold.PLP.Chemscore.Metal>
0.0000

> <Gold.Chemscore.Hbonds>
donor molecule, donor type, donor heavy atom, donor atom, acceptor molecule, acceptor atom, score
      L1  H     3    18       P1  8028  0.98
      L1  H    11    23       P1  7948  0.50
      P1  H  7989  7998       L1    12  1.00

> <Gold.PLP.Chemscore.Internal.Correction>
0.0036

> <Gold.Rescore>
     Score         DG    S(hbond)    S(metal)    S(lipo)     H(rot)  DE(clash)    DE(int)     intcor
      9.40     -12.13       1.85        0.00      42.60       1.77       1.22       1.51       ----

> <Gold.Chemscore.Fitness>
9.3964

> <Gold.Chemscore.DG>
-12.1267

> <Gold.Chemscore.ZeroCoef>
-5.4800

> <Gold.Chemscore.Hbond>
1.8516

> <Gold.Chemscore.Metal>
0.0000

> <Gold.Chemscore.Lipo>
42.5992

> <Gold.Chemscore.Internal_Hbond>
0.0000

> <Gold.Chemscore.DEClash>
1.2236

> <Gold.Chemscore.DEInternal>
1.5067

> <Gold.Chemscore.Rot>
1.7664

> <Gold.Chemscore.Internal.Correction>
   9.000000E+99

> <Gold.Chemscore.Hbonds>
donor molecule, donor type, donor heavy atom, donor atom, acceptor molecule, acceptor atom, score
      L1  H     3    18       P1  8028  0.87
      L1  H    11    23       P1  7948  0.04
      P1  H  7989  7998       L1    12  0.34

> <Gold.Chemscore.Hbond.Weighted>
-6.1845

> <Gold.Chemscore.Metal.Weighted>
-0.0000

> <Gold.Chemscore.Lipo.Weighted>
-4.9841

> <Gold.Chemscore.Internal_Hbond.Weighted>
0.0000

> <Gold.Chemscore.DEClash.Weighted>
1.2236

> <Gold.Chemscore.DEInternal.Weighted>
1.5067

> <Gold.Chemscore.Rot.Weighted>
4.5219

> <Gold.Chemscore.Internal.Correction.Weighted>
   9.000000E+99

> <Gold.Protein.RotatedTorsions>
[ 6907 6896 6895 6894 ] final   20.33 input  -60.11 | X-H torsion
[ 7974 7965 7964 7962 ] final  -59.46 input  175.53 | X-H torsion
[ 8008 7997 7996 7995 ] final -106.65 input   59.86 | X-H torsion
[ 10167 10162 10161 10158 ] final -174.22 input  -65.29 | X-H torsion
[ 10718 10713 10712 10709 ] final   72.05 input   66.30 | X-H torsion
[ 10763 10752 10751 10750 ] final   55.89 input  -60.55 | X-H torsion
[ 11005 11000 10999 10996 ] final -164.31 input  -57.11 | X-H torsion

> <Gold.Protein.ActiveResidues>
 VAL166  LYS551  ARG553  GLY616  TRP617  ASP618  TYR619  PRO620  LYS621  CYS622 
 ASP623  PHE694  ASN695  SER759  ASP760  ASP761  ALA762  ILE779  LEU786  VAL792 
 PHE793  MET794  SER795  GLU796  ALA797  LYS798  CYS799  TRP800  GLU811  SER814 

> <Gold.Protein.RotatedAtoms>
  151.8947  135.0402  160.0500 H   0  0  0  0  0  0  0  0  0  0  0  0  # atno 6907 bound_to 6896
  152.2407  133.5128  159.5277 H   0  0  0  0  0  0  0  0  0  0  0  0  # atno 6908 bound_to 6896
  150.7052  134.1009  159.4008 H   0  0  0  0  0  0  0  0  0  0  0  0  # atno 6909 bound_to 6896
  145.8271  140.8503  143.0102 H   0  0  0  0  0  0  0  0  0  0  0  0  # atno 7974 bound_to 7965
  154.9177  140.0408  157.1981 H   0  0  0  0  0  0  0  0  0  0  0  0  # atno 8008 bound_to 7997
  154.8284  140.2895  155.5717 H   0  0  0  0  0  0  0  0  0  0  0  0  # atno 8009 bound_to 7997
  156.2985  140.2505  156.3205 H   0  0  0  0  0  0  0  0  0  0  0  0  # atno 8010 bound_to 7997
  139.5645  144.1788  152.1291 H   0  0  0  0  0  0  0  0  0  0  0  0  # atno 10167 bound_to 10162
  157.6482  130.9559  150.0874 H   0  0  0  0  0  0  0  0  0  0  0  0  # atno 10718 bound_to 10713
  152.9823  135.5695  154.5140 H   0  0  0  0  0  0  0  0  0  0  0  0  # atno 10763 bound_to 10752
  154.4639  135.2782  155.1694 H   0  0  0  0  0  0  0  0  0  0  0  0  # atno 10764 bound_to 10752
  154.3270  135.6257  153.5587 H   0  0  0  0  0  0  0  0  0  0  0  0  # atno 10765 bound_to 10752
  140.5883  134.5071  157.5189 H   0  0  0  0  0  0  0  0  0  0  0  0  # atno 11005 bound_to 11000
  144.6742  140.0618  143.7476 LP  0  0  0  0  0  0  0  0  0  0  0  0  # atno 17320 bound_to 7965
  145.9611  139.2801  143.1155 LP  0  0  0  0  0  0  0  0  0  0  0  0  # atno 17321 bound_to 7965
  140.1308  144.5290  150.6803 LP  0  0  0  0  0  0  0  0  0  0  0  0  # atno 17342 bound_to 10162
  140.6928  143.2386  151.5084 LP  0  0  0  0  0  0  0  0  0  0  0  0  # atno 17343 bound_to 10162
  156.1833  130.3651  149.9006 LP  0  0  0  0  0  0  0  0  0  0  0  0  # atno 17370 bound_to 10713
  156.6953  130.8912  151.3593 LP  0  0  0  0  0  0  0  0  0  0  0  0  # atno 17371 bound_to 10713
  139.9286  134.8008  156.0997 LP  0  0  0  0  0  0  0  0  0  0  0  0  # atno 17394 bound_to 11000
  141.0951  133.6698  156.2628 LP  0  0  0  0  0  0  0  0  0  0  0  0  # atno 17395 bound_to 11000

$$$$
