AV-unprocessed.smi:21|AV-procd|sdf|155|dock6
  -GOLD-   2262015383D 1   1.00000     0.00000
 Structure written by MMmdl.
 61 64  0  0  0  0  0  0  0  0  1 V2000
  149.7270  141.0036  154.7659 C   0  0  0  0  0  0  0  0  0  0  0  0
  150.3992  141.9606  155.5685 O   0  0  0  0  0  0  0  0  0  0  0  0
  150.2946  141.7019  156.9615 C   0  0  1  0  0  0  0  0  0  0  0  0
  150.9534  140.3578  157.3091 C   0  0  0  0  0  0  0  0  0  0  0  0
  152.0973  140.7199  158.2702 C   0  0  2  0  0  0  0  0  0  0  0  0
  152.4500  139.5935  159.2662 C   0  0  0  0  0  0  0  0  0  0  0  0
  152.5926  138.2893  158.6118 N   0  0  0  0  0  0  0  0  0  0  0  0
  153.9065  137.9403  158.0850 C   0  0  0  0  0  0  0  0  0  0  0  0
  151.4951  137.5558  158.2608 C   0  0  0  0  0  0  0  0  0  0  0  0
  150.4771  137.4514  159.1569 N   0  0  0  0  0  0  0  0  0  0  0  0
  149.3739  136.7573  158.8710 C   0  0  0  0  0  0  0  0  0  0  0  0
  149.0786  136.0878  157.7585 N   0  0  0  0  0  0  0  0  0  0  0  0
  150.0907  136.1696  156.8505 C   0  0  0  0  0  0  0  0  0  0  0  0
  151.3212  136.8741  157.0144 C   0  0  0  0  0  0  0  0  0  0  0  0
  152.0866  136.7279  155.8607 N   0  0  0  0  0  0  0  0  0  0  0  0
  151.3606  135.9844  155.0734 C   0  0  0  0  0  0  0  0  0  0  0  0
  150.1469  135.5987  155.5905 N   0  0  0  0  0  0  0  0  0  0  0  0
  149.1498  134.7756  154.9264 C   0  0  0  0  0  0  0  0  0  0  0  0
  149.7513  133.4579  154.3661 C   0  0  2  0  0  0  0  0  0  0  0  0
  148.7492  132.7517  153.4253 C   0  0  0  0  0  0  0  0  0  0  0  0
  149.2007  131.4567  153.0859 O   0  0  0  0  0  0  0  0  0  0  0  0
  150.2128  132.5067  155.5001 C   0  0  2  0  0  0  0  0  0  0  0  0
  149.1690  132.2284  156.5678 C   0  0  0  0  0  0  0  0  0  0  0  0
  150.0139  131.7158  157.7277 C   0  0  0  0  0  0  0  0  0  0  0  0
  151.2579  132.3975  157.6275 O   0  0  0  0  0  0  0  0  0  0  0  0
  151.3531  133.0538  156.3676 C   0  0  0  0  0  0  0  0  0  0  0  0
  151.6731  141.9655  158.8901 N   0  0  0  0  0  0  0  0  0  0  0  0
  152.7506  142.6970  159.5428 C   0  0  0  0  0  0  0  0  0  0  0  0
  151.0889  142.7156  157.7960 C   0  0  0  0  0  0  0  0  0  0  0  0
  149.2487  141.6769  157.2731 H   0  0  0  0  0  0  0  0  0  0  0  0
  152.9786  140.9297  157.6611 H   0  0  0  0  0  0  0  0  0  0  0  0
  149.8581  141.2547  153.7136 H   0  0  0  0  0  0  0  0  0  0  0  0
  148.6568  140.9846  154.9742 H   0  0  0  0  0  0  0  0  0  0  0  0
  150.1319  140.0033  154.9241 H   0  0  0  0  0  0  0  0  0  0  0  0
  150.2208  139.7180  157.8018 H   0  0  0  0  0  0  0  0  0  0  0  0
  151.3195  139.8249  156.4307 H   0  0  0  0  0  0  0  0  0  0  0  0
  153.4053  139.8141  159.7417 H   0  0  0  0  0  0  0  0  0  0  0  0
  151.7309  139.5744  160.0848 H   0  0  0  0  0  0  0  0  0  0  0  0
  154.1469  136.8985  158.2985 H   0  0  0  0  0  0  0  0  0  0  0  0
  154.6840  138.5556  158.5387 H   0  0  0  0  0  0  0  0  0  0  0  0
  153.9446  138.1011  157.0072 H   0  0  0  0  0  0  0  0  0  0  0  0
  148.6210  136.7360  159.6449 H   0  0  0  0  0  0  0  0  0  0  0  0
  151.6940  135.6947  154.0879 H   0  0  0  0  0  0  0  0  0  0  0  0
  148.3325  134.5810  155.6209 H   0  0  0  0  0  0  0  0  0  0  0  0
  148.7067  135.3772  154.1319 H   0  0  0  0  0  0  0  0  0  0  0  0
  150.6347  133.6974  153.7707 H   0  0  0  0  0  0  0  0  0  0  0  0
  147.7756  132.6375  153.9009 H   0  0  0  0  0  0  0  0  0  0  0  0
  148.5946  133.3322  152.5154 H   0  0  0  0  0  0  0  0  0  0  0  0
  149.2202  131.3825  152.1438 H   0  0  0  0  0  0  0  0  0  0  0  0
  150.5284  131.5539  155.0712 H   0  0  0  0  0  0  0  0  0  0  0  0
  148.6565  133.1485  156.8528 H   0  0  0  0  0  0  0  0  0  0  0  0
  148.4201  131.4997  156.2595 H   0  0  0  0  0  0  0  0  0  0  0  0
  149.5410  131.8853  158.6951 H   0  0  0  0  0  0  0  0  0  0  0  0
  150.1953  130.6457  157.6215 H   0  0  0  0  0  0  0  0  0  0  0  0
  152.3339  132.8905  155.9205 H   0  0  0  0  0  0  0  0  0  0  0  0
  151.2333  134.1252  156.5340 H   0  0  0  0  0  0  0  0  0  0  0  0
  152.3850  143.6462  159.9352 H   0  0  0  0  0  0  0  0  0  0  0  0
  153.5643  142.9088  158.8481 H   0  0  0  0  0  0  0  0  0  0  0  0
  153.1568  142.1312  160.3809 H   0  0  0  0  0  0  0  0  0  0  0  0
  151.8808  143.1475  157.1811 H   0  0  0  0  0  0  0  0  0  0  0  0
  150.4666  143.5350  158.1570 H   0  0  0  0  0  0  0  0  0  0  0  0
  1  2  1  0  0  0  0
  1 32  1  0  0  0  0
  1 33  1  0  0  0  0
  1 34  1  0  0  0  0
  2  3  1  0  0  0  0
  3 30  1  0  0  0  0
  3 29  1  0  0  0  0
  3  4  1  0  0  0  0
  4  5  1  0  0  0  0
  4 35  1  0  0  0  0
  4 36  1  0  0  0  0
  5 31  1  0  0  0  0
  5  6  1  0  0  0  0
  5 27  1  0  0  0  0
  6  7  1  0  0  0  0
  6 37  1  0  0  0  0
  6 38  1  0  0  0  0
  7  8  1  0  0  0  0
  7  9  1  0  0  0  0
  8 39  1  0  0  0  0
  8 40  1  0  0  0  0
  8 41  1  0  0  0  0
  9 14  1  0  0  0  0
  9 10  2  0  0  0  0
 10 11  1  0  0  0  0
 11 12  2  0  0  0  0
 11 42  1  0  0  0  0
 12 13  1  0  0  0  0
 13 17  1  0  0  0  0
 13 14  2  0  0  0  0
 14 15  1  0  0  0  0
 15 16  2  0  0  0  0
 16 17  1  0  0  0  0
 16 43  1  0  0  0  0
 17 18  1  0  0  0  0
 18 19  1  0  0  0  0
 18 44  1  0  0  0  0
 18 45  1  0  0  0  0
 19 20  1  0  0  0  0
 19 22  1  0  0  0  0
 19 46  1  0  0  0  0
 20 21  1  0  0  0  0
 20 47  1  0  0  0  0
 20 48  1  0  0  0  0
 21 49  1  0  0  0  0
 22 26  1  0  0  0  0
 22 23  1  0  0  0  0
 22 50  1  0  0  0  0
 23 24  1  0  0  0  0
 23 51  1  0  0  0  0
 23 52  1  0  0  0  0
 24 25  1  0  0  0  0
 24 53  1  0  0  0  0
 24 54  1  0  0  0  0
 25 26  1  0  0  0  0
 26 55  1  0  0  0  0
 26 56  1  0  0  0  0
 27 28  1  0  0  0  0
 27 29  1  0  0  0  0
 28 57  1  0  0  0  0
 28 58  1  0  0  0  0
 28 59  1  0  0  0  0
 29 60  1  0  0  0  0
 29 61  1  0  0  0  0
M  END
> <s_m_source_file>
AV-unprocessed.smi

> <i_m_source_file_index>
21

> <i_lp_mmshare_version>
43012

> <i_f3d_flags>
0

> <s_epik_input>
W0NIM11PW0NASF0xW0NIMl1bQ0BIXShOKFtDSDNdKVtDSDJdMSlbQ0gyXU4oW0NIM10pYyhuW2NIXW4yKWMoYzIzKW5bY0hdbjNbQ0gyXVtDQEhdKFtDSDJdW09IXSlbQ0BASF00W0NIMl1bQ0gyXU9bQ0gyXTQ=

> <s_epik_cmdline>
J2VwaWtfcHl0aG9uJywgJy1waCcsICc3LjAnLCAnLXRuJywgJzgnLCAnLW1hJywgJzIwMCcsICctbWV0YWxfYmluZGluZycsICctaW1hZScsICc8aW5maWxlLm1hZT4nLCAnLW9tYWUnLCAnPG91dGZpbGUubWFlPic=

> <r_lp_tautomer_probability>
1

> <r_epik_Ionization_Penalty>
2.17574

> <r_epik_Ionization_Penalty_Charging>
0

> <r_epik_Ionization_Penalty_Neutral>
2.17574

> <r_epik_State_Penalty>
2.31336

> <r_epik_Charging_Adjusted_Penalty>
2.31336

> <i_epik_Tot_Q>
0

> <i_epik_Tot_abs_Q>
0

> <r_epik_Metal_State_Penalty>
2.31025

> <b_epik_Metal_Only>
0

> <s_lp_Force_Field>
OPLS_2005

> <r_lp_Energy>
70.8096

> <b_lp_Chiralities_Consistent>
1

> <s_lp_Variant>
AV-unprocessed.smi:21-35

> <Gold.Version>
5.8.1

> <Gold.Id.Protein>
6NUR|6NUR_protein|mol2

> <Gold.PLP.Fitness>
46.2595

> <Gold.PLP.PLP>
-38.3128

> <Gold.PLP.part.hbond>
-3.4371

> <Gold.PLP.part.metal>
0.0000

> <Gold.PLP.part.buried>
-3.8788

> <Gold.PLP.part.nonpolar>
-31.9071

> <Gold.PLP.part.repulsive>
0.4261

> <Gold.PLP.ligand.clash>
0.0000

> <Gold.PLP.ligand.torsion>
1.2191

> <Gold.PLP.Chemscore.Hbond>
2.2500

> <Gold.PLP.Chemscore.CHOScore>
1.0000

> <Gold.PLP.Chemscore.Metal>
0.0000

> <Gold.Chemscore.Hbonds>
donor molecule, donor type, donor heavy atom, donor atom, acceptor molecule, acceptor atom, score
      L1  H    21    49       P1 10747  1.00
      P1  H  6896  6907       L1    25  1.00
      L1  C    16    43       P1  7949  0.70

> <Gold.PLP.Chemscore.Internal.Correction>
0.6349

> <Gold.Rescore>
     Score         DG    S(hbond)    S(metal)    S(lipo)     H(rot)  DE(clash)    DE(int)     intcor
     10.83     -14.49       1.79        0.00      91.76       3.00       1.34       2.31       ----

> <Gold.Chemscore.Fitness>
10.8343

> <Gold.Chemscore.DG>
-14.4924

> <Gold.Chemscore.ZeroCoef>
-5.4800

> <Gold.Chemscore.Hbond>
1.7858

> <Gold.Chemscore.Metal>
0.0000

> <Gold.Chemscore.Lipo>
91.7602

> <Gold.Chemscore.Internal_Hbond>
0.0000

> <Gold.Chemscore.DEClash>
1.3431

> <Gold.Chemscore.DEInternal>
2.3150

> <Gold.Chemscore.Rot>
3.0031

> <Gold.Chemscore.Internal.Correction>
   9.000000E+99

> <Gold.Chemscore.Hbonds>
donor molecule, donor type, donor heavy atom, donor atom, acceptor molecule, acceptor atom, score
      L1  H    21    49       P1 10747  0.35
      P1  H  6896  6907       L1    25  0.39

> <Gold.Chemscore.Hbond.Weighted>
-5.9645

> <Gold.Chemscore.Metal.Weighted>
-0.0000

> <Gold.Chemscore.Lipo.Weighted>
-10.7359

> <Gold.Chemscore.Internal_Hbond.Weighted>
0.0000

> <Gold.Chemscore.DEClash.Weighted>
1.3431

> <Gold.Chemscore.DEInternal.Weighted>
2.3150

> <Gold.Chemscore.Rot.Weighted>
7.6880

> <Gold.Chemscore.Internal.Correction.Weighted>
   9.000000E+99

> <Gold.Protein.RotatedTorsions>
[ 6907 6896 6895 6894 ] final -159.64 input  -60.11 | X-H torsion
[ 7974 7965 7964 7962 ] final  134.12 input  175.53 | X-H torsion
[ 8008 7997 7996 7995 ] final  117.25 input   59.86 | X-H torsion
[ 10167 10162 10161 10158 ] final  -41.21 input  -65.29 | X-H torsion
[ 10718 10713 10712 10709 ] final -171.07 input   66.30 | X-H torsion
[ 10763 10752 10751 10750 ] final -152.06 input  -60.55 | X-H torsion
[ 11005 11000 10999 10996 ] final  133.18 input  -57.11 | X-H torsion

> <Gold.Protein.ActiveResidues>
 VAL166  LYS551  ARG553  GLY616  TRP617  ASP618  TYR619  PRO620  LYS621  CYS622 
 ASP623  PHE694  ASN695  SER759  ASP760  ASP761  ALA762  ILE779  LEU786  VAL792 
 PHE793  MET794  SER795  GLU796  ALA797  LYS798  CYS799  TRP800  GLU811  SER814 

> <Gold.Protein.RotatedAtoms>
  151.3366  133.3979  159.2667 H   0  0  0  0  0  0  0  0  0  0  0  0  # atno 6907 bound_to 6896
  150.9912  134.9247  159.7911 H   0  0  0  0  0  0  0  0  0  0  0  0  # atno 6908 bound_to 6896
  152.5247  134.3331  159.9242 H   0  0  0  0  0  0  0  0  0  0  0  0  # atno 6909 bound_to 6896
  144.9795  139.4519  143.5393 H   0  0  0  0  0  0  0  0  0  0  0  0  # atno 7974 bound_to 7965
  156.2484  140.2900  156.0649 H   0  0  0  0  0  0  0  0  0  0  0  0  # atno 8008 bound_to 7997
  155.1735  140.0402  157.2885 H   0  0  0  0  0  0  0  0  0  0  0  0  # atno 8009 bound_to 7997
  154.6309  140.2499  155.7442 H   0  0  0  0  0  0  0  0  0  0  0  0  # atno 8010 bound_to 7997
  140.7010  143.3108  151.3034 H   0  0  0  0  0  0  0  0  0  0  0  0  # atno 10167 bound_to 10162
  156.7355  130.9322  151.3107 H   0  0  0  0  0  0  0  0  0  0  0  0  # atno 10718 bound_to 10713
  154.8019  135.3245  154.7530 H   0  0  0  0  0  0  0  0  0  0  0  0  # atno 10763 bound_to 10752
  153.8196  135.6889  153.4833 H   0  0  0  0  0  0  0  0  0  0  0  0  # atno 10764 bound_to 10752
  153.1740  135.4612  154.9884 H   0  0  0  0  0  0  0  0  0  0  0  0  # atno 10765 bound_to 10752
  139.9836  134.9540  156.9689 H   0  0  0  0  0  0  0  0  0  0  0  0  # atno 11005 bound_to 11000
  146.3404  139.9059  142.8787 LP  0  0  0  0  0  0  0  0  0  0  0  0  # atno 17320 bound_to 7965
  145.2441  141.0020  143.3919 LP  0  0  0  0  0  0  0  0  0  0  0  0  # atno 17321 bound_to 7965
  139.6529  144.0328  152.2639 LP  0  0  0  0  0  0  0  0  0  0  0  0  # atno 17342 bound_to 10162
  139.9871  144.6388  150.7848 LP  0  0  0  0  0  0  0  0  0  0  0  0  # atno 17343 bound_to 10162
  157.6841  130.9168  150.0341 LP  0  0  0  0  0  0  0  0  0  0  0  0  # atno 17370 bound_to 10713
  156.1500  130.3642  149.9452 LP  0  0  0  0  0  0  0  0  0  0  0  0  # atno 17371 bound_to 10713
  140.5047  134.1062  155.7257 LP  0  0  0  0  0  0  0  0  0  0  0  0  # atno 17394 bound_to 11000
  141.1504  133.8978  157.2111 LP  0  0  0  0  0  0  0  0  0  0  0  0  # atno 17395 bound_to 11000

$$$$
