AV-unprocessed.smi:3346|AV-procd|sdf|12910|dock5
  -GOLD-   2272019323D 1   1.00000     0.00000
 Structure written by MMmdl.
 47 48  0  0  0  0  0  0  0  0  1 V2000
  153.7326  141.5932  160.9874 C   0  0  0  0  0  0  0  0  0  0  0  0
  153.0734  142.7750  160.2558 C   0  0  0  0  0  0  0  0  0  0  0  0
  152.1641  143.5555  161.2170 C   0  0  0  0  0  0  0  0  0  0  0  0
  152.2840  142.3312  159.0037 C   0  0  0  0  0  0  0  0  0  0  0  0
  151.5072  143.4508  158.2779 C   0  0  1  0  0  0  0  0  0  0  0  0
  152.4128  144.6494  157.9609 C   0  0  0  0  0  0  0  0  0  0  0  0
  150.9924  142.9506  157.0093 N   0  0  0  0  0  0  0  0  0  0  0  0
  150.2580  141.7095  157.1952 C   0  0  0  0  0  0  0  0  0  0  0  0
  149.5653  141.2574  155.9213 C   0  0  0  0  0  0  0  0  0  0  0  0
  148.6116  142.0996  155.3130 C   0  0  0  0  0  0  0  0  0  0  0  0
  147.9807  141.6765  154.1288 C   0  0  0  0  0  0  0  0  0  0  0  0
  148.3310  140.4211  153.5984 C   0  0  0  0  0  0  0  0  0  0  0  0
  149.2382  139.6029  154.1713 N   0  0  0  0  0  0  0  0  0  0  0  0
  149.8475  140.0075  155.3125 C   0  0  0  0  0  0  0  0  0  0  0  0
  150.7694  139.1272  155.9031 N   0  0  0  0  0  0  0  0  0  0  0  0
  150.1478  137.9193  156.4301 C   0  0  0  0  0  0  0  0  0  0  0  0
  151.1820  137.0977  157.2189 C   0  0  0  0  0  0  0  0  0  0  0  0
  152.3087  136.8204  156.3912 O   0  0  0  0  0  0  0  0  0  0  0  0
  152.9500  138.0111  155.9418 C   0  0  0  0  0  0  0  0  0  0  0  0
  151.9599  138.8441  155.1106 C   0  0  0  0  0  0  0  0  0  0  0  0
  152.9905  140.8595  161.3033 H   0  0  0  0  0  0  0  0  0  0  0  0
  154.2625  141.9323  161.8780 H   0  0  0  0  0  0  0  0  0  0  0  0
  154.4611  141.0823  160.3587 H   0  0  0  0  0  0  0  0  0  0  0  0
  153.8626  143.4594  159.9434 H   0  0  0  0  0  0  0  0  0  0  0  0
  151.3428  142.9348  161.5770 H   0  0  0  0  0  0  0  0  0  0  0  0
  151.7317  144.4288  160.7281 H   0  0  0  0  0  0  0  0  0  0  0  0
  152.7203  143.9091  162.0856 H   0  0  0  0  0  0  0  0  0  0  0  0
  152.9828  141.8724  158.3028 H   0  0  0  0  0  0  0  0  0  0  0  0
  151.5847  141.5396  159.2782 H   0  0  0  0  0  0  0  0  0  0  0  0
  150.6984  143.8143  158.9124 H   0  0  0  0  0  0  0  0  0  0  0  0
  152.8249  145.0795  158.8741 H   0  0  0  0  0  0  0  0  0  0  0  0
  151.8579  145.4380  157.4516 H   0  0  0  0  0  0  0  0  0  0  0  0
  153.2494  144.3636  157.3220 H   0  0  0  0  0  0  0  0  0  0  0  0
  150.3634  143.6399  156.6235 H   0  0  0  0  0  0  0  0  0  0  0  0
  150.9415  140.9253  157.5221 H   0  0  0  0  0  0  0  0  0  0  0  0
  149.5195  141.8320  157.9884 H   0  0  0  0  0  0  0  0  0  0  0  0
  148.3665  143.0581  155.7470 H   0  0  0  0  0  0  0  0  0  0  0  0
  147.2466  142.2990  153.6393 H   0  0  0  0  0  0  0  0  0  0  0  0
  147.8685  140.0625  152.6907 H   0  0  0  0  0  0  0  0  0  0  0  0
  149.3058  138.1777  157.0732 H   0  0  0  0  0  0  0  0  0  0  0  0
  149.7511  137.3257  155.6053 H   0  0  0  0  0  0  0  0  0  0  0  0
  151.5014  137.6319  158.1147 H   0  0  0  0  0  0  0  0  0  0  0  0
  150.7417  136.1569  157.5487 H   0  0  0  0  0  0  0  0  0  0  0  0
  153.3188  138.5825  156.7955 H   0  0  0  0  0  0  0  0  0  0  0  0
  153.8173  137.7441  155.3380 H   0  0  0  0  0  0  0  0  0  0  0  0
  151.6856  138.2961  154.2080 H   0  0  0  0  0  0  0  0  0  0  0  0
  152.4253  139.7785  154.7952 H   0  0  0  0  0  0  0  0  0  0  0  0
  1  2  1  0  0  0  0
  1 21  1  0  0  0  0
  1 22  1  0  0  0  0
  1 23  1  0  0  0  0
  2  3  1  0  0  0  0
  2  4  1  0  0  0  0
  2 24  1  0  0  0  0
  3 25  1  0  0  0  0
  3 26  1  0  0  0  0
  3 27  1  0  0  0  0
  4  5  1  0  0  0  0
  4 28  1  0  0  0  0
  4 29  1  0  0  0  0
  5  6  1  0  0  0  0
  5  7  1  0  0  0  0
  5 30  1  0  0  0  0
  6 31  1  0  0  0  0
  6 32  1  0  0  0  0
  6 33  1  0  0  0  0
  7  8  1  0  0  0  0
  7 34  1  0  0  0  0
  8  9  1  0  0  0  0
  8 35  1  0  0  0  0
  8 36  1  0  0  0  0
  9 14  1  0  0  0  0
  9 10  2  0  0  0  0
 10 11  1  0  0  0  0
 10 37  1  0  0  0  0
 11 12  2  0  0  0  0
 11 38  1  0  0  0  0
 12 13  1  0  0  0  0
 12 39  1  0  0  0  0
 13 14  2  0  0  0  0
 14 15  1  0  0  0  0
 15 20  1  0  0  0  0
 15 16  1  0  0  0  0
 16 17  1  0  0  0  0
 16 40  1  0  0  0  0
 16 41  1  0  0  0  0
 17 18  1  0  0  0  0
 17 42  1  0  0  0  0
 17 43  1  0  0  0  0
 18 19  1  0  0  0  0
 19 20  1  0  0  0  0
 19 44  1  0  0  0  0
 19 45  1  0  0  0  0
 20 46  1  0  0  0  0
 20 47  1  0  0  0  0
M  END
> <s_m_source_file>
AV-unprocessed.smi

> <i_m_source_file_index>
3346

> <i_lp_mmshare_version>
43012

> <i_f3d_flags>
0

> <s_epik_input>
W0NIM11bQ0hdKFtDSDNdKVtDSDJdW0NASF0oW0NIM10pW05IXVtDSDJdYzFbY0hdW2NIXVtjSF1uYzFOMltDSDJdW0NIMl1PW0NIMl1bQ0gyXTI=

> <s_epik_cmdline>
J2VwaWtfcHl0aG9uJywgJy1waCcsICc3LjAnLCAnLXRuJywgJzgnLCAnLW1hJywgJzIwMCcsICctbWV0YWxfYmluZGluZycsICctaW1hZScsICc8aW5maWxlLm1hZT4nLCAnLW9tYWUnLCAnPG91dGZpbGUubWFlPic=

> <r_lp_tautomer_probability>
1

> <r_epik_Ionization_Penalty>
2.09752

> <r_epik_Ionization_Penalty_Charging>
0

> <r_epik_Ionization_Penalty_Neutral>
2.09752

> <r_epik_State_Penalty>
2.22589

> <r_epik_Charging_Adjusted_Penalty>
2.22589

> <i_epik_Tot_Q>
0

> <i_epik_Tot_abs_Q>
0

> <r_epik_Metal_State_Penalty>
2.21996

> <b_epik_Metal_Only>
0

> <s_lp_Force_Field>
OPLS_2005

> <r_lp_Energy>
27.6792

> <b_lp_Chiralities_Consistent>
1

> <s_lp_Variant>
AV-unprocessed.smi:3346-4

> <Gold.Version>
5.8.1

> <Gold.Id.Protein>
6NUR|6NUR_protein|mol2

> <Gold.PLP.Fitness>
47.4746

> <Gold.PLP.PLP>
-40.3500

> <Gold.PLP.part.hbond>
-2.0000

> <Gold.PLP.part.metal>
0.0000

> <Gold.PLP.part.buried>
0.5822

> <Gold.PLP.part.nonpolar>
-40.4673

> <Gold.PLP.part.repulsive>
1.0988

> <Gold.PLP.ligand.clash>
0.0000

> <Gold.PLP.ligand.torsion>
0.1772

> <Gold.PLP.Chemscore.Hbond>
1.9280

> <Gold.PLP.Chemscore.CHOScore>
0.4969

> <Gold.PLP.Chemscore.Metal>
0.0000

> <Gold.Chemscore.Hbonds>
donor molecule, donor type, donor heavy atom, donor atom, acceptor molecule, acceptor atom, score
      L1  H     7    34       P1  8028  0.93
      P1  H 10752 10763       L1    18  0.86
      L1  C    12    39       P1  7957  0.49

> <Gold.PLP.Chemscore.Internal.Correction>
0.2043

> <Gold.Rescore>
     Score         DG    S(hbond)    S(metal)    S(lipo)     H(rot)  DE(clash)    DE(int)     intcor
     21.20     -21.62       1.71        0.00     123.01       1.55       0.18       0.24       ----

> <Gold.Chemscore.Fitness>
21.1998

> <Gold.Chemscore.DG>
-21.6159

> <Gold.Chemscore.ZeroCoef>
-5.4800

> <Gold.Chemscore.Hbond>
1.7112

> <Gold.Chemscore.Metal>
0.0000

> <Gold.Chemscore.Lipo>
123.0097

> <Gold.Chemscore.Internal_Hbond>
0.0000

> <Gold.Chemscore.DEClash>
0.1777

> <Gold.Chemscore.DEInternal>
0.2384

> <Gold.Chemscore.Rot>
1.5514

> <Gold.Chemscore.Internal.Correction>
   9.000000E+99

> <Gold.Chemscore.Hbonds>
donor molecule, donor type, donor heavy atom, donor atom, acceptor molecule, acceptor atom, score
      L1  H     7    34       P1  8028  0.89
      P1  H 10752 10763       L1    18  0.18

> <Gold.Chemscore.Hbond.Weighted>
-5.7154

> <Gold.Chemscore.Metal.Weighted>
-0.0000

> <Gold.Chemscore.Lipo.Weighted>
-14.3921

> <Gold.Chemscore.Internal_Hbond.Weighted>
0.0000

> <Gold.Chemscore.DEClash.Weighted>
0.1777

> <Gold.Chemscore.DEInternal.Weighted>
0.2384

> <Gold.Chemscore.Rot.Weighted>
3.9715

> <Gold.Chemscore.Internal.Correction.Weighted>
   9.000000E+99

> <Gold.Protein.RotatedTorsions>
[ 6907 6896 6895 6894 ] final   11.76 input  -60.11 | X-H torsion
[ 7974 7965 7964 7962 ] final   57.43 input  175.53 | X-H torsion
[ 8008 7997 7996 7995 ] final -128.34 input   59.86 | X-H torsion
[ 10167 10162 10161 10158 ] final  -41.24 input  -65.29 | X-H torsion
[ 10718 10713 10712 10709 ] final  -97.13 input   66.30 | X-H torsion
[ 10763 10752 10751 10750 ] final   97.63 input  -60.55 | X-H torsion
[ 11005 11000 10999 10996 ] final -119.89 input  -57.11 | X-H torsion

> <Gold.Protein.ActiveResidues>
 VAL166  LYS551  ARG553  GLY616  TRP617  ASP618  TYR619  PRO620  LYS621  CYS622 
 ASP623  PHE694  ASN695  SER759  ASP760  ASP761  ALA762  ILE779  LEU786  VAL792 
 PHE793  MET794  SER795  GLU796  ALA797  LYS798  CYS799  TRP800  GLU811  SER814 

> <Gold.Protein.RotatedAtoms>
  151.7595  135.0813  160.0343 H   0  0  0  0  0  0  0  0  0  0  0  0  # atno 6907 bound_to 6896
  152.3363  133.6011  159.5853 H   0  0  0  0  0  0  0  0  0  0  0  0  # atno 6908 bound_to 6896
  150.7452  133.9707  159.3586 H   0  0  0  0  0  0  0  0  0  0  0  0  # atno 6909 bound_to 6896
  145.9292  139.3793  143.0431 H   0  0  0  0  0  0  0  0  0  0  0  0  # atno 7974 bound_to 7965
  155.2611  140.0436  157.2997 H   0  0  0  0  0  0  0  0  0  0  0  0  # atno 8008 bound_to 7997
  154.5710  140.2373  155.8161 H   0  0  0  0  0  0  0  0  0  0  0  0  # atno 8009 bound_to 7997
  156.2122  140.2995  155.9766 H   0  0  0  0  0  0  0  0  0  0  0  0  # atno 8010 bound_to 7997
  140.7009  143.3106  151.3039 H   0  0  0  0  0  0  0  0  0  0  0  0  # atno 10167 bound_to 10162
  156.0077  130.5181  150.6328 H   0  0  0  0  0  0  0  0  0  0  0  0  # atno 10718 bound_to 10713
  153.2792  135.4176  155.1063 H   0  0  0  0  0  0  0  0  0  0  0  0  # atno 10763 bound_to 10752
  154.8483  135.3491  154.6135 H   0  0  0  0  0  0  0  0  0  0  0  0  # atno 10764 bound_to 10752
  153.6556  135.7050  153.5252 H   0  0  0  0  0  0  0  0  0  0  0  0  # atno 10765 bound_to 10752
  141.0183  134.0163  157.3319 H   0  0  0  0  0  0  0  0  0  0  0  0  # atno 11005 bound_to 11000
  145.8449  140.9560  143.0780 LP  0  0  0  0  0  0  0  0  0  0  0  0  # atno 17320 bound_to 7965
  144.6762  140.0332  143.7482 LP  0  0  0  0  0  0  0  0  0  0  0  0  # atno 17321 bound_to 7965
  139.6527  144.0332  152.2638 LP  0  0  0  0  0  0  0  0  0  0  0  0  # atno 17342 bound_to 10162
  139.9874  144.6386  150.7845 LP  0  0  0  0  0  0  0  0  0  0  0  0  # atno 17343 bound_to 10162
  157.4123  131.0825  151.1209 LP  0  0  0  0  0  0  0  0  0  0  0  0  # atno 17370 bound_to 10713
  157.1837  130.6321  149.5680 LP  0  0  0  0  0  0  0  0  0  0  0  0  # atno 17371 bound_to 10713
  139.9130  135.0193  156.7769 LP  0  0  0  0  0  0  0  0  0  0  0  0  # atno 17394 bound_to 11000
  140.6617  133.9639  155.7808 LP  0  0  0  0  0  0  0  0  0  0  0  0  # atno 17395 bound_to 11000

$$$$
