AV-unprocessed.smi:2822|AV-procd|sdf|10877|dock2
  -GOLD-   2272015313D 1   1.00000     0.00000
 Structure written by MMmdl.
 40 42  0  0  0  0  0  0  0  0  2 V2000
  146.4495  142.2111  154.0787 Cl  0  0  0  0  0  0  0  0  0  0  0  0
  147.5875  140.9114  154.1543 C   0  0  0  0  0  0  0  0  0  0  0  0
  147.4737  139.8425  153.2414 C   0  0  0  0  0  0  0  0  0  0  0  0
  148.3532  138.8194  153.2854 N   0  3  0  0  0  0  0  0  0  0  0  0
  149.3612  138.7630  154.1811 C   0  0  0  0  0  0  0  0  0  0  0  0
  149.5265  139.8012  155.1200 C   0  0  0  0  0  0  0  0  0  0  0  0
  148.6306  140.8997  155.1131 C   0  0  0  0  0  0  0  0  0  0  0  0
  148.7427  141.9642  156.0203 N   0  0  0  0  0  0  0  0  0  0  0  0
  149.5436  141.8402  157.2285 C   0  0  0  0  0  0  0  0  0  0  0  0
  151.0126  142.2250  156.9712 C   0  0  1  0  0  0  0  0  0  0  0  0
  151.4621  143.4496  157.7904 C   0  0  0  0  0  0  0  0  0  0  0  0
  151.6099  143.1552  159.2106 N   0  0  0  0  0  0  0  0  0  0  0  0
  152.0576  144.3371  159.9470 C   0  0  0  0  0  0  0  0  0  0  0  0
  152.2015  144.0740  161.4541 C   0  0  0  0  0  0  0  0  0  0  0  0
  153.1584  142.8993  161.7003 C   0  0  0  0  0  0  0  0  0  0  0  0
  152.7086  141.6760  160.8875 C   0  0  0  0  0  0  0  0  0  0  0  0
  152.5373  142.0353  159.3967 C   0  0  1  0  0  0  0  0  0  0  0  0
  152.0812  140.8003  158.5949 C   0  0  0  0  0  0  0  0  0  0  0  0
  151.9019  141.1347  157.2207 O   0  0  0  0  0  0  0  0  0  0  0  0
  146.7092  139.7762  152.4812 H   0  0  0  0  0  0  0  0  0  0  0  0
  150.0011  137.8947  154.1216 H   0  0  0  0  0  0  0  0  0  0  0  0
  150.3367  139.7372  155.8310 H   0  0  0  0  0  0  0  0  0  0  0  0
  148.4511  142.8885  155.7341 H   0  0  0  0  0  0  0  0  0  0  0  0
  149.1258  142.5047  157.9857 H   0  0  0  0  0  0  0  0  0  0  0  0
  149.4712  140.8268  157.6232 H   0  0  0  0  0  0  0  0  0  0  0  0
  151.1097  142.4798  155.9152 H   0  0  0  0  0  0  0  0  0  0  0  0
  152.4146  143.8047  157.3938 H   0  0  0  0  0  0  0  0  0  0  0  0
  150.7503  144.2643  157.6517 H   0  0  0  0  0  0  0  0  0  0  0  0
  153.0129  144.6820  159.5480 H   0  0  0  0  0  0  0  0  0  0  0  0
  151.3489  145.1523  159.7958 H   0  0  0  0  0  0  0  0  0  0  0  0
  152.5668  144.9686  161.9589 H   0  0  0  0  0  0  0  0  0  0  0  0
  151.2238  143.8501  161.8826 H   0  0  0  0  0  0  0  0  0  0  0  0
  154.1698  143.1823  161.4059 H   0  0  0  0  0  0  0  0  0  0  0  0
  153.1969  142.6571  162.7626 H   0  0  0  0  0  0  0  0  0  0  0  0
  153.4351  140.8706  161.0015 H   0  0  0  0  0  0  0  0  0  0  0  0
  151.7654  141.3022  161.2882 H   0  0  0  0  0  0  0  0  0  0  0  0
  153.5151  142.3310  159.0125 H   0  0  0  0  0  0  0  0  0  0  0  0
  152.8310  140.0115  158.6599 H   0  0  0  0  0  0  0  0  0  0  0  0
  151.1601  140.3852  159.0046 H   0  0  0  0  0  0  0  0  0  0  0  0
  148.2510  138.0574  152.6143 H   0  0  0  0  0  0  0  0  0  0  0  0
  1  2  1  0  0  0  0
  2  7  1  0  0  0  0
  2  3  2  0  0  0  0
  3  4  1  0  0  0  0
  3 20  1  0  0  0  0
  4  5  2  0  0  0  0
  4 40  1  0  0  0  0
  5  6  1  0  0  0  0
  5 21  1  0  0  0  0
  6  7  2  0  0  0  0
  6 22  1  0  0  0  0
  7  8  1  0  0  0  0
  8  9  1  0  0  0  0
  8 23  1  0  0  0  0
  9 10  1  0  0  0  0
  9 24  1  0  0  0  0
  9 25  1  0  0  0  0
 10 19  1  0  0  0  0
 10 11  1  0  0  0  0
 10 26  1  0  0  0  0
 11 12  1  0  0  0  0
 11 27  1  0  0  0  0
 11 28  1  0  0  0  0
 12 17  1  0  0  0  0
 12 13  1  0  0  0  0
 13 14  1  0  0  0  0
 13 29  1  0  0  0  0
 13 30  1  0  0  0  0
 14 15  1  0  0  0  0
 14 31  1  0  0  0  0
 14 32  1  0  0  0  0
 15 16  1  0  0  0  0
 15 33  1  0  0  0  0
 15 34  1  0  0  0  0
 16 17  1  0  0  0  0
 16 35  1  0  0  0  0
 16 36  1  0  0  0  0
 17 18  1  0  0  0  0
 17 37  1  0  0  0  0
 18 19  1  0  0  0  0
 18 38  1  0  0  0  0
 18 39  1  0  0  0  0
M  CHG  1   4   1
M  END
> <s_m_source_file>
AV-unprocessed.smi

> <i_m_source_file_index>
2822

> <i_lp_mmshare_version>
43012

> <i_f3d_flags>
0

> <s_epik_input>
Q2xjMVtjSF1uW2NIXVtjSF1jMVtOSF1bQ0gyXVtDQEhdKFtDSDJdMilPW0NIMl1bQ0BASF0oTjIzKVtDSDJdW0NIMl1bQ0gyXVtDSDJdMw==

> <s_epik_cmdline>
J2VwaWtfcHl0aG9uJywgJy1waCcsICc3LjAnLCAnLXRuJywgJzgnLCAnLW1hJywgJzIwMCcsICctbWV0YWxfYmluZGluZycsICctaW1hZScsICc8aW5maWxlLm1hZT4nLCAnLW9tYWUnLCAnPG91dGZpbGUubWFlPic=

> <r_epik_Ionization_Penalty>
1.37653

> <r_epik_Ionization_Penalty_Charging>
0.152973

> <r_epik_Ionization_Penalty_Neutral>
1.22356

> <r_epik_State_Penalty>
1.42693

> <r_epik_Charging_Adjusted_Penalty>
1.5799

> <i_epik_Tot_Q>
1

> <i_epik_Tot_abs_Q>
1

> <r_epik_Metal_State_Penalty>
4.59822

> <b_epik_Metal_Only>
0

> <s_lp_Force_Field>
OPLS_2005

> <r_lp_Energy>
45.6855

> <b_lp_Chiralities_Consistent>
1

> <s_lp_Variant>
AV-unprocessed.smi:2822-18

> <Gold.Version>
5.8.1

> <Gold.Id.Protein>
6NUR|6NUR_protein|mol2

> <Gold.PLP.Fitness>
48.6656

> <Gold.PLP.PLP>
-41.7674

> <Gold.PLP.part.hbond>
-3.0000

> <Gold.PLP.part.metal>
0.0000

> <Gold.PLP.part.buried>
-2.5002

> <Gold.PLP.part.nonpolar>
-36.8046

> <Gold.PLP.part.repulsive>
0.1519

> <Gold.PLP.ligand.clash>
0.0000

> <Gold.PLP.ligand.torsion>
0.9940

> <Gold.PLP.Chemscore.Hbond>
2.9600

> <Gold.PLP.Chemscore.CHOScore>
0.0000

> <Gold.PLP.Chemscore.Metal>
0.0000

> <Gold.Chemscore.Hbonds>
donor molecule, donor type, donor heavy atom, donor atom, acceptor molecule, acceptor atom, score
      L1  H     4    40       P1  7948  1.74
      L1  H     8    23       P1  8028  0.96

> <Gold.PLP.Chemscore.Internal.Correction>
0.0061

> <Gold.Rescore>
     Score         DG    S(hbond)    S(metal)    S(lipo)     H(rot)  DE(clash)    DE(int)     intcor
     21.57     -23.56       1.93        0.00     125.17       1.18       1.01       0.98       ----

> <Gold.Chemscore.Fitness>
21.5728

> <Gold.Chemscore.DG>
-23.5574

> <Gold.Chemscore.ZeroCoef>
-5.4800

> <Gold.Chemscore.Hbond>
1.9313

> <Gold.Chemscore.Metal>
0.0000

> <Gold.Chemscore.Lipo>
125.1673

> <Gold.Chemscore.Internal_Hbond>
0.0000

> <Gold.Chemscore.DEClash>
1.0056

> <Gold.Chemscore.DEInternal>
0.9790

> <Gold.Chemscore.Rot>
1.1788

> <Gold.Chemscore.Internal.Correction>
   9.000000E+99

> <Gold.Chemscore.Hbonds>
donor molecule, donor type, donor heavy atom, donor atom, acceptor molecule, acceptor atom, score
      L1  H     4    40       P1  7948  0.80
      L1  H     8    23       P1  8028  0.91

> <Gold.Chemscore.Hbond.Weighted>
-6.4505

> <Gold.Chemscore.Metal.Weighted>
-0.0000

> <Gold.Chemscore.Lipo.Weighted>
-14.6446

> <Gold.Chemscore.Internal_Hbond.Weighted>
0.0000

> <Gold.Chemscore.DEClash.Weighted>
1.0056

> <Gold.Chemscore.DEInternal.Weighted>
0.9790

> <Gold.Chemscore.Rot.Weighted>
3.0177

> <Gold.Chemscore.Internal.Correction.Weighted>
   9.000000E+99

> <Gold.Protein.RotatedTorsions>
[ 6907 6896 6895 6894 ] final   10.62 input  -60.11 | X-H torsion
[ 7974 7965 7964 7962 ] final  -32.66 input  175.53 | X-H torsion
[ 8008 7997 7996 7995 ] final -131.77 input   59.86 | X-H torsion
[ 10167 10162 10161 10158 ] final   -6.57 input  -65.29 | X-H torsion
[ 10718 10713 10712 10709 ] final -156.97 input   66.30 | X-H torsion
[ 10763 10752 10751 10750 ] final   55.04 input  -60.55 | X-H torsion
[ 11005 11000 10999 10996 ] final -170.69 input  -57.11 | X-H torsion

> <Gold.Protein.ActiveResidues>
 VAL166  LYS551  ARG553  GLY616  TRP617  ASP618  TYR619  PRO620  LYS621  CYS622 
 ASP623  PHE694  ASN695  SER759  ASP760  ASP761  ALA762  ILE779  LEU786  VAL792 
 PHE793  MET794  SER795  GLU796  ALA797  LYS798  CYS799  TRP800  GLU811  SER814 

> <Gold.Protein.RotatedAtoms>
  151.7412  135.0854  160.0315 H   0  0  0  0  0  0  0  0  0  0  0  0  # atno 6907 bound_to 6896
  152.3478  133.6139  159.5931 H   0  0  0  0  0  0  0  0  0  0  0  0  # atno 6908 bound_to 6896
  150.7520  133.9537  159.3535 H   0  0  0  0  0  0  0  0  0  0  0  0  # atno 6909 bound_to 6896
  146.0972  140.5821  142.8837 H   0  0  0  0  0  0  0  0  0  0  0  0  # atno 7974 bound_to 7965
  155.3178  140.0460  157.3038 H   0  0  0  0  0  0  0  0  0  0  0  0  # atno 8008 bound_to 7997
  154.5397  140.2284  155.8629 H   0  0  0  0  0  0  0  0  0  0  0  0  # atno 8009 bound_to 7997
  156.1869  140.3060  155.9262 H   0  0  0  0  0  0  0  0  0  0  0  0  # atno 8010 bound_to 7997
  140.7001  143.6179  150.8641 H   0  0  0  0  0  0  0  0  0  0  0  0  # atno 10167 bound_to 10162
  156.5338  130.8533  151.2725 H   0  0  0  0  0  0  0  0  0  0  0  0  # atno 10718 bound_to 10713
  152.9812  135.5724  154.5003 H   0  0  0  0  0  0  0  0  0  0  0  0  # atno 10763 bound_to 10752
  154.4523  135.2779  155.1774 H   0  0  0  0  0  0  0  0  0  0  0  0  # atno 10764 bound_to 10752
  154.3397  135.6232  153.5644 H   0  0  0  0  0  0  0  0  0  0  0  0  # atno 10765 bound_to 10752
  140.5166  134.5749  157.5035 H   0  0  0  0  0  0  0  0  0  0  0  0  # atno 11005 bound_to 11000
  144.7404  140.4927  143.6873 LP  0  0  0  0  0  0  0  0  0  0  0  0  # atno 17320 bound_to 7965
  145.5925  139.1497  143.3174 LP  0  0  0  0  0  0  0  0  0  0  0  0  # atno 17321 bound_to 7965
  139.9900  143.5857  152.2913 LP  0  0  0  0  0  0  0  0  0  0  0  0  # atno 17342 bound_to 10162
  139.6509  144.7660  151.2150 LP  0  0  0  0  0  0  0  0  0  0  0  0  # atno 17343 bound_to 10162
  157.7417  130.9875  150.2465 LP  0  0  0  0  0  0  0  0  0  0  0  0  # atno 17370 bound_to 10713
  156.3035  130.3762  149.7728 LP  0  0  0  0  0  0  0  0  0  0  0  0  # atno 17371 bound_to 10713
  139.9629  134.7422  156.0199 LP  0  0  0  0  0  0  0  0  0  0  0  0  # atno 17394 bound_to 11000
  141.1357  133.6576  156.3586 LP  0  0  0  0  0  0  0  0  0  0  0  0  # atno 17395 bound_to 11000

$$$$
