AV-unprocessed.smi:781|AV-procd|sdf|3713|dock3
  -GOLD-   22720 1133D 1   1.00000     0.00000
 Structure written by MMmdl.
 38 40  0  0  0  0  0  0  0  0  1 V2000
  137.8730  137.2070  154.0669 C   0  0  0  0  0  0  0  0  0  0  0  0
  139.3343  137.3737  154.3077 C   0  0  0  0  0  0  0  0  0  0  0  0
  140.2479  138.2955  153.8793 C   0  0  0  0  0  0  0  0  0  0  0  0
  141.4544  137.8559  154.4860 C   0  0  0  0  0  0  0  0  0  0  0  0
  142.6690  138.5595  154.2838 N   0  0  0  0  0  0  0  0  0  0  0  0
  143.8277  138.4007  154.9453 C   0  0  0  0  0  0  0  0  0  0  0  0
  144.0183  137.6029  155.8635 O   0  0  0  0  0  0  0  0  0  0  0  0
  144.7693  139.2349  154.4831 N   0  0  0  0  0  0  0  0  0  0  0  0
  146.1351  139.3255  155.0005 C   0  0  2  0  0  0  0  0  0  0  0  0
  146.4718  140.7120  155.6091 C   0  0  2  0  0  0  0  0  0  0  0  0
  146.0853  141.8555  154.6469 C   0  0  0  0  0  0  0  0  0  0  0  0
  147.1180  141.7041  153.5156 C   0  0  0  0  0  0  0  0  0  0  0  0
  147.9836  140.5187  153.9927 C   0  0  1  0  0  0  0  0  0  0  0  0
  147.9927  140.7471  155.4998 C   0  0  0  0  0  0  0  0  0  0  0  0
  147.2277  139.1701  153.9053 C   0  0  2  0  0  0  0  0  0  0  0  0
  146.7601  138.7423  152.4957 C   0  0  0  0  0  0  0  0  0  0  0  0
  147.8693  138.3811  151.7001 O   0  0  0  0  0  0  0  0  0  0  0  0
  141.2926  136.7642  155.2178 N   0  0  0  0  0  0  0  0  0  0  0  0
  139.9332  136.4488  155.1061 O   0  0  0  0  0  0  0  0  0  0  0  0
  137.4155  138.1544  153.7821 H   0  0  0  0  0  0  0  0  0  0  0  0
  137.3694  136.8459  154.9637 H   0  0  0  0  0  0  0  0  0  0  0  0
  137.6938  136.4903  153.2656 H   0  0  0  0  0  0  0  0  0  0  0  0
  140.0770  139.1461  153.2364 H   0  0  0  0  0  0  0  0  0  0  0  0
  142.6532  139.2597  153.5574 H   0  0  0  0  0  0  0  0  0  0  0  0
  144.5267  139.8581  153.7272 H   0  0  0  0  0  0  0  0  0  0  0  0
  146.2808  138.5475  155.7526 H   0  0  0  0  0  0  0  0  0  0  0  0
  146.0845  140.8483  156.6194 H   0  0  0  0  0  0  0  0  0  0  0  0
  145.0574  141.8018  154.2893 H   0  0  0  0  0  0  0  0  0  0  0  0
  146.2041  142.8219  155.1388 H   0  0  0  0  0  0  0  0  0  0  0  0
  146.6564  141.5388  152.5433 H   0  0  0  0  0  0  0  0  0  0  0  0
  147.7218  142.6088  153.4353 H   0  0  0  0  0  0  0  0  0  0  0  0
  148.9730  140.4916  153.5354 H   0  0  0  0  0  0  0  0  0  0  0  0
  148.4275  141.7051  155.7915 H   0  0  0  0  0  0  0  0  0  0  0  0
  148.4853  139.9494  156.0590 H   0  0  0  0  0  0  0  0  0  0  0  0
  147.9145  138.3944  154.2501 H   0  0  0  0  0  0  0  0  0  0  0  0
  146.1007  137.8769  152.5683 H   0  0  0  0  0  0  0  0  0  0  0  0
  146.1970  139.5260  151.9907 H   0  0  0  0  0  0  0  0  0  0  0  0
  148.5394  139.0398  151.8010 H   0  0  0  0  0  0  0  0  0  0  0  0
  1  2  1  0  0  0  0
  1 20  1  0  0  0  0
  1 21  1  0  0  0  0
  1 22  1  0  0  0  0
  2 19  1  0  0  0  0
  2  3  2  0  0  0  0
  3  4  1  0  0  0  0
  3 23  1  0  0  0  0
  4  5  1  0  0  0  0
  4 18  2  0  0  0  0
  5  6  1  0  0  0  0
  5 24  1  0  0  0  0
  6  7  2  0  0  0  0
  6  8  1  0  0  0  0
  8  9  1  0  0  0  0
  8 25  1  0  0  0  0
  9 15  1  0  0  0  0
  9 10  1  0  0  0  0
  9 26  1  0  0  0  0
 10 14  1  0  0  0  0
 10 11  1  0  0  0  0
 10 27  1  0  0  0  0
 11 12  1  0  0  0  0
 11 28  1  0  0  0  0
 11 29  1  0  0  0  0
 12 13  1  0  0  0  0
 12 30  1  0  0  0  0
 12 31  1  0  0  0  0
 13 14  1  0  0  0  0
 13 15  1  0  0  0  0
 13 32  1  0  0  0  0
 14 33  1  0  0  0  0
 14 34  1  0  0  0  0
 15 16  1  0  0  0  0
 15 35  1  0  0  0  0
 16 17  1  0  0  0  0
 16 36  1  0  0  0  0
 16 37  1  0  0  0  0
 17 38  1  0  0  0  0
 18 19  1  0  0  0  0
M  END
> <s_m_source_file>
AV-unprocessed.smi

> <i_m_source_file_index>
781

> <i_lp_mmshare_version>
43012

> <i_f3d_flags>
0

> <s_epik_input>
W0NIM11jMVtjSF1jKG5vMSlbTkhdQyg9TylbTkhdW0NASF0oW0NAQEhdMjMpW0NASF0oW0NIMl1bT0hdKVtDQEBIXShbQ0gyXTMpW0NIMl1bQ0gyXTI=

> <s_epik_cmdline>
J2VwaWtfcHl0aG9uJywgJy1waCcsICc3LjAnLCAnLXRuJywgJzgnLCAnLW1hJywgJzIwMCcsICctbWV0YWxfYmluZGluZycsICctaW1hZScsICc8aW5maWxlLm1hZT4nLCAnLW9tYWUnLCAnPG91dGZpbGUubWFlPic=

> <r_lp_tautomer_probability>
1

> <r_epik_Ionization_Penalty>
2.32222e-05

> <r_epik_Ionization_Penalty_Charging>
0

> <r_epik_Ionization_Penalty_Neutral>
2.32222e-05

> <r_epik_State_Penalty>
-0

> <r_epik_Charging_Adjusted_Penalty>
0

> <i_epik_Tot_Q>
0

> <i_epik_Tot_abs_Q>
0

> <r_epik_Metal_State_Penalty>
-0

> <b_epik_Metal_Only>
0

> <s_lp_Force_Field>
OPLS_2005

> <r_lp_Energy>
48.8518

> <b_lp_Chiralities_Consistent>
1

> <s_lp_Variant>
AV-unprocessed.smi:781-7

> <Gold.Version>
5.8.1

> <Gold.Id.Protein>
6NUR|6NUR_protein|mol2

> <Gold.PLP.Fitness>
41.3294

> <Gold.PLP.PLP>
-26.8661

> <Gold.PLP.part.hbond>
-5.9012

> <Gold.PLP.part.metal>
0.0000

> <Gold.PLP.part.buried>
-3.5345

> <Gold.PLP.part.nonpolar>
-17.4666

> <Gold.PLP.part.repulsive>
0.0755

> <Gold.PLP.ligand.clash>
0.0000

> <Gold.PLP.ligand.torsion>
0.1165

> <Gold.PLP.Chemscore.Hbond>
4.8960

> <Gold.PLP.Chemscore.CHOScore>
0.0000

> <Gold.PLP.Chemscore.Metal>
0.0000

> <Gold.Chemscore.Hbonds>
donor molecule, donor type, donor heavy atom, donor atom, acceptor molecule, acceptor atom, score
      L1  H     5    24       P1 10175  0.98
      L1  H     8    25       P1 10175  1.00
      L1  H    17    38       P1  7957  0.96
      P1  H  7954  7966       L1    17  0.90
      P1  H 11000 11005       L1    19  0.95

> <Gold.PLP.Chemscore.Internal.Correction>
0.0083

> <Gold.Rescore>
     Score         DG    S(hbond)    S(metal)    S(lipo)     H(rot)  DE(clash)    DE(int)     intcor
     17.47     -18.98       3.48        0.00      56.63       1.86       0.19       1.32       ----

> <Gold.Chemscore.Fitness>
17.4673

> <Gold.Chemscore.DG>
-18.9779

> <Gold.Chemscore.ZeroCoef>
-5.4800

> <Gold.Chemscore.Hbond>
3.4822

> <Gold.Chemscore.Metal>
0.0000

> <Gold.Chemscore.Lipo>
56.6293

> <Gold.Chemscore.Internal_Hbond>
0.0000

> <Gold.Chemscore.DEClash>
0.1915

> <Gold.Chemscore.DEInternal>
1.3191

> <Gold.Chemscore.Rot>
1.8587

> <Gold.Chemscore.Internal.Correction>
   9.000000E+99

> <Gold.Chemscore.Hbonds>
donor molecule, donor type, donor heavy atom, donor atom, acceptor molecule, acceptor atom, score
      L1  H     5    24       P1 10175  0.93
      L1  H     8    25       P1 10175  0.99
      L1  H    17    38       P1  7957  0.81
      P1  H  7954  7966       L1    17  0.20
      P1  H 11000 11005       L1    19  0.21

> <Gold.Chemscore.Hbond.Weighted>
-11.6306

> <Gold.Chemscore.Metal.Weighted>
-0.0000

> <Gold.Chemscore.Lipo.Weighted>
-6.6256

> <Gold.Chemscore.Internal_Hbond.Weighted>
0.0000

> <Gold.Chemscore.DEClash.Weighted>
0.1915

> <Gold.Chemscore.DEInternal.Weighted>
1.3191

> <Gold.Chemscore.Rot.Weighted>
4.7583

> <Gold.Chemscore.Internal.Correction.Weighted>
   9.000000E+99

> <Gold.Protein.RotatedTorsions>
[ 6907 6896 6895 6894 ] final -163.98 input  -60.11 | X-H torsion
[ 7974 7965 7964 7962 ] final  165.49 input  175.53 | X-H torsion
[ 8008 7997 7996 7995 ] final -149.30 input   59.86 | X-H torsion
[ 10167 10162 10161 10158 ] final -107.60 input  -65.29 | X-H torsion
[ 10718 10713 10712 10709 ] final -166.85 input   66.30 | X-H torsion
[ 10763 10752 10751 10750 ] final -121.41 input  -60.55 | X-H torsion
[ 11005 11000 10999 10996 ] final   84.20 input  -57.11 | X-H torsion

> <Gold.Protein.ActiveResidues>
 VAL166  LYS551  ARG553  GLY616  TRP617  ASP618  TYR619  PRO620  LYS621  CYS622 
 ASP623  PHE694  ASN695  SER759  ASP760  ASP761  ALA762  ILE779  LEU786  VAL792 
 PHE793  MET794  SER795  GLU796  ALA797  LYS798  CYS799  TRP800  GLU811  SER814 

> <Gold.Protein.RotatedAtoms>
  151.4046  133.3747  159.2736 H   0  0  0  0  0  0  0  0  0  0  0  0  # atno 6907 bound_to 6896
  150.9408  134.8819  159.7622 H   0  0  0  0  0  0  0  0  0  0  0  0  # atno 6908 bound_to 6896
  152.5070  134.3996  159.9464 H   0  0  0  0  0  0  0  0  0  0  0  0  # atno 6909 bound_to 6896
  144.7500  139.8478  143.6369 H   0  0  0  0  0  0  0  0  0  0  0  0  # atno 7974 bound_to 7965
  155.6054  140.0666  157.2721 H   0  0  0  0  0  0  0  0  0  0  0  0  # atno 8008 bound_to 7997
  154.4267  140.1811  156.1264 H   0  0  0  0  0  0  0  0  0  0  0  0  # atno 8009 bound_to 7997
  156.0127  140.3325  155.6960 H   0  0  0  0  0  0  0  0  0  0  0  0  # atno 8010 bound_to 7997
  140.1752  143.4011  152.1324 H   0  0  0  0  0  0  0  0  0  0  0  0  # atno 10167 bound_to 10162
  156.6739  130.9095  151.3047 H   0  0  0  0  0  0  0  0  0  0  0  0  # atno 10718 bound_to 10713
  154.8667  135.4169  154.2616 H   0  0  0  0  0  0  0  0  0  0  0  0  # atno 10763 bound_to 10752
  153.3543  135.7000  153.6769 H   0  0  0  0  0  0  0  0  0  0  0  0  # atno 10764 bound_to 10752
  153.5696  135.3594  155.2805 H   0  0  0  0  0  0  0  0  0  0  0  0  # atno 10765 bound_to 10752
  139.9007  134.8199  156.2413 H   0  0  0  0  0  0  0  0  0  0  0  0  # atno 11005 bound_to 11000
  146.1437  139.4501  143.0092 LP  0  0  0  0  0  0  0  0  0  0  0  0  # atno 17320 bound_to 7965
  145.6978  141.0145  143.1521 LP  0  0  0  0  0  0  0  0  0  0  0  0  # atno 17321 bound_to 7965
  139.5320  144.7170  151.5022 LP  0  0  0  0  0  0  0  0  0  0  0  0  # atno 17342 bound_to 10162
  140.6556  143.8606  150.6832 LP  0  0  0  0  0  0  0  0  0  0  0  0  # atno 17343 bound_to 10162
  157.7068  130.9394  150.0956 LP  0  0  0  0  0  0  0  0  0  0  0  0  # atno 17370 bound_to 10713
  156.1918  130.3655  149.8900 LP  0  0  0  0  0  0  0  0  0  0  0  0  # atno 17371 bound_to 10713
  141.0283  133.7003  156.1386 LP  0  0  0  0  0  0  0  0  0  0  0  0  # atno 17394 bound_to 11000
  140.7134  134.4437  157.5580 LP  0  0  0  0  0  0  0  0  0  0  0  0  # atno 17395 bound_to 11000

$$$$
