AV-unprocessed.smi:300|AV-procd|sdf|2269|dock5
  -GOLD-   2262022163D 1   1.00000     0.00000
 Structure written by MMmdl.
 45 46  0  0  0  0  0  0  0  0  1 V2000
  152.8678  138.6025  157.4320 C   0  0  0  0  0  0  0  0  0  0  0  0
  152.0068  137.9252  156.4848 N   0  0  0  0  0  0  0  0  0  0  0  0
  151.3769  138.6819  155.4673 C   0  0  0  0  0  0  0  0  0  0  0  0
  151.5332  139.8975  155.3502 O   0  0  0  0  0  0  0  0  0  0  0  0
  150.5228  137.9034  154.5782 C   0  0  0  0  0  0  0  0  0  0  0  0
  150.3685  136.5727  154.7528 C   0  0  0  0  0  0  0  0  0  0  0  0
  150.9884  135.8589  155.7621 N   0  0  0  0  0  0  0  0  0  0  0  0
  150.7504  134.4149  155.8851 C   0  0  0  0  0  0  0  0  0  0  0  0
  149.4904  133.9449  155.1455 C   0  0  0  0  0  0  0  0  0  0  0  0
  148.4041  134.4936  155.3370 O   0  0  0  0  0  0  0  0  0  0  0  0
  149.6597  132.9338  154.2804 N   0  0  0  0  0  0  0  0  0  0  0  0
  148.6037  132.3413  153.4691 C   0  0  0  0  0  0  0  0  0  0  0  0
  148.0312  133.3547  152.4605 C   0  0  0  0  0  0  0  0  0  0  0  0
  146.5913  133.1446  152.2504 N   0  0  0  0  0  0  0  0  0  0  0  0
  146.2113  131.8356  151.6967 C   0  0  0  0  0  0  0  0  0  0  0  0
  145.5753  131.9438  150.2972 C   0  0  0  0  0  0  0  0  0  0  0  0
  144.0852  132.3151  150.3145 C   0  0  0  0  0  0  0  0  0  0  0  0
  143.7838  133.7007  150.9038 C   0  0  0  0  0  0  0  0  0  0  0  0
  144.1987  133.8368  152.3781 C   0  0  0  0  0  0  0  0  0  0  0  0
  145.6971  134.1179  152.5472 C   0  0  0  0  0  0  0  0  0  0  0  0
  146.0362  135.2250  152.9678 O   0  0  0  0  0  0  0  0  0  0  0  0
  151.8314  136.5359  156.6693 C   0  0  0  0  0  0  0  0  0  0  0  0
  152.3853  135.9270  157.5882 O   0  0  0  0  0  0  0  0  0  0  0  0
  153.1100  139.6089  157.0914 H   0  0  0  0  0  0  0  0  0  0  0  0
  153.7932  138.0293  157.5139 H   0  0  0  0  0  0  0  0  0  0  0  0
  152.3322  138.6339  158.3820 H   0  0  0  0  0  0  0  0  0  0  0  0
  150.0050  138.4000  153.7708 H   0  0  0  0  0  0  0  0  0  0  0  0
  149.7214  136.0423  154.0694 H   0  0  0  0  0  0  0  0  0  0  0  0
  151.6028  133.8630  155.4868 H   0  0  0  0  0  0  0  0  0  0  0  0
  150.6859  134.1355  156.9384 H   0  0  0  0  0  0  0  0  0  0  0  0
  150.5861  132.5447  154.1790 H   0  0  0  0  0  0  0  0  0  0  0  0
  149.0256  131.4828  152.9459 H   0  0  0  0  0  0  0  0  0  0  0  0
  147.8126  131.9524  154.1124 H   0  0  0  0  0  0  0  0  0  0  0  0
  148.2266  134.3726  152.7994 H   0  0  0  0  0  0  0  0  0  0  0  0
  148.5651  133.2739  151.5116 H   0  0  0  0  0  0  0  0  0  0  0  0
  147.0887  131.1943  151.6097 H   0  0  0  0  0  0  0  0  0  0  0  0
  145.5465  131.3138  152.3864 H   0  0  0  0  0  0  0  0  0  0  0  0
  146.1358  132.6477  149.6803 H   0  0  0  0  0  0  0  0  0  0  0  0
  145.6704  130.9764  149.8031 H   0  0  0  0  0  0  0  0  0  0  0  0
  143.7042  132.2800  149.2934 H   0  0  0  0  0  0  0  0  0  0  0  0
  143.5288  131.5562  150.8660 H   0  0  0  0  0  0  0  0  0  0  0  0
  144.2624  134.4737  150.3007 H   0  0  0  0  0  0  0  0  0  0  0  0
  142.7119  133.8844  150.8245 H   0  0  0  0  0  0  0  0  0  0  0  0
  143.6510  134.6712  152.8187 H   0  0  0  0  0  0  0  0  0  0  0  0
  143.9085  132.9574  152.9539 H   0  0  0  0  0  0  0  0  0  0  0  0
  1  2  1  0  0  0  0
  1 24  1  0  0  0  0
  1 25  1  0  0  0  0
  1 26  1  0  0  0  0
  2 22  1  0  0  0  0
  2  3  1  0  0  0  0
  3  4  2  0  0  0  0
  3  5  1  0  0  0  0
  5  6  2  0  0  0  0
  5 27  1  0  0  0  0
  6  7  1  0  0  0  0
  6 28  1  0  0  0  0
  7  8  1  0  0  0  0
  7 22  1  0  0  0  0
  8  9  1  0  0  0  0
  8 29  1  0  0  0  0
  8 30  1  0  0  0  0
  9 10  2  0  0  0  0
  9 11  1  0  0  0  0
 11 12  1  0  0  0  0
 11 31  1  0  0  0  0
 12 13  1  0  0  0  0
 12 32  1  0  0  0  0
 12 33  1  0  0  0  0
 13 14  1  0  0  0  0
 13 34  1  0  0  0  0
 13 35  1  0  0  0  0
 14 20  1  0  0  0  0
 14 15  1  0  0  0  0
 15 16  1  0  0  0  0
 15 36  1  0  0  0  0
 15 37  1  0  0  0  0
 16 17  1  0  0  0  0
 16 38  1  0  0  0  0
 16 39  1  0  0  0  0
 17 18  1  0  0  0  0
 17 40  1  0  0  0  0
 17 41  1  0  0  0  0
 18 19  1  0  0  0  0
 18 42  1  0  0  0  0
 18 43  1  0  0  0  0
 19 20  1  0  0  0  0
 19 44  1  0  0  0  0
 19 45  1  0  0  0  0
 20 21  2  0  0  0  0
 22 23  2  0  0  0  0
M  END
> <s_m_source_file>
AV-unprocessed.smi

> <i_m_source_file_index>
300

> <i_lp_mmshare_version>
43012

> <i_f3d_flags>
0

> <s_epik_input>
W0NIM11uMWMoPU8pW2NIXVtjSF1uKGMxPU8pW0NIMl1DKD1PKVtOSF1bQ0gyXVtDSDJdTjJbQ0gyXVtDSDJdW0NIMl1bQ0gyXVtDSDJdQzI9Tw==

> <s_epik_cmdline>
J2VwaWtfcHl0aG9uJywgJy1waCcsICc3LjAnLCAnLXRuJywgJzgnLCAnLW1hJywgJzIwMCcsICctbWV0YWxfYmluZGluZycsICctaW1hZScsICc8aW5maWxlLm1hZT4nLCAnLW9tYWUnLCAnPG91dGZpbGUubWFlPic=

> <r_lp_tautomer_probability>
1

> <r_epik_Ionization_Penalty>
6.11943e-08

> <r_epik_Ionization_Penalty_Charging>
1.13819e-08

> <r_epik_Ionization_Penalty_Neutral>
4.98124e-08

> <r_epik_State_Penalty>
-0

> <r_epik_Charging_Adjusted_Penalty>
1.13819e-08

> <i_epik_Tot_Q>
0

> <i_epik_Tot_abs_Q>
0

> <r_epik_Metal_State_Penalty>
-0

> <b_epik_Metal_Only>
0

> <s_lp_Force_Field>
OPLS_2005

> <r_lp_Energy>
25.2871

> <b_lp_Chiralities_Consistent>
1

> <s_lp_Variant>
AV-unprocessed.smi:300-1

> <Gold.Version>
5.8.1

> <Gold.Id.Protein>
6NUR|6NUR_protein|mol2

> <Gold.PLP.Fitness>
42.9482

> <Gold.PLP.PLP>
-37.9248

> <Gold.PLP.part.hbond>
-2.0000

> <Gold.PLP.part.metal>
0.0000

> <Gold.PLP.part.buried>
-5.2098

> <Gold.PLP.part.nonpolar>
-32.2550

> <Gold.PLP.part.repulsive>
0.8573

> <Gold.PLP.ligand.clash>
0.0000

> <Gold.PLP.ligand.torsion>
0.5539

> <Gold.PLP.Chemscore.Hbond>
1.0312

> <Gold.PLP.Chemscore.CHOScore>
0.9996

> <Gold.PLP.Chemscore.Metal>
0.0000

> <Gold.Chemscore.Hbonds>
donor molecule, donor type, donor heavy atom, donor atom, acceptor molecule, acceptor atom, score
      P1  H  7989  7998       L1     4  0.86
      L1  C     6    28       P1  7948  1.00

> <Gold.PLP.Chemscore.Internal.Correction>
0.0389

> <Gold.Rescore>
     Score         DG    S(hbond)    S(metal)    S(lipo)     H(rot)  DE(clash)    DE(int)     intcor
     11.65     -12.90       1.30        0.00      74.13       2.18       0.01       1.23       ----

> <Gold.Chemscore.Fitness>
11.6539

> <Gold.Chemscore.DG>
-12.8979

> <Gold.Chemscore.ZeroCoef>
-5.4800

> <Gold.Chemscore.Hbond>
1.2965

> <Gold.Chemscore.Metal>
0.0000

> <Gold.Chemscore.Lipo>
74.1327

> <Gold.Chemscore.Internal_Hbond>
0.0000

> <Gold.Chemscore.DEClash>
0.0137

> <Gold.Chemscore.DEInternal>
1.2303

> <Gold.Chemscore.Rot>
2.1820

> <Gold.Chemscore.Internal.Correction>
   9.000000E+99

> <Gold.Chemscore.Hbonds>
donor molecule, donor type, donor heavy atom, donor atom, acceptor molecule, acceptor atom, score
      P1  H  7989  7998       L1     4  0.81

> <Gold.Chemscore.Hbond.Weighted>
-4.3303

> <Gold.Chemscore.Metal.Weighted>
-0.0000

> <Gold.Chemscore.Lipo.Weighted>
-8.6735

> <Gold.Chemscore.Internal_Hbond.Weighted>
0.0000

> <Gold.Chemscore.DEClash.Weighted>
0.0137

> <Gold.Chemscore.DEInternal.Weighted>
1.2303

> <Gold.Chemscore.Rot.Weighted>
5.5860

> <Gold.Chemscore.Internal.Correction.Weighted>
   9.000000E+99

> <Gold.Protein.RotatedTorsions>
[ 6907 6896 6895 6894 ] final   -5.14 input  -60.11 | X-H torsion
[ 7974 7965 7964 7962 ] final  141.17 input  175.53 | X-H torsion
[ 8008 7997 7996 7995 ] final -154.37 input   59.86 | X-H torsion
[ 10167 10162 10161 10158 ] final  172.42 input  -65.29 | X-H torsion
[ 10718 10713 10712 10709 ] final  -69.69 input   66.30 | X-H torsion
[ 10763 10752 10751 10750 ] final  -71.07 input  -60.55 | X-H torsion
[ 11005 11000 10999 10996 ] final -105.11 input  -57.11 | X-H torsion

> <Gold.Protein.ActiveResidues>
 VAL166  LYS551  ARG553  GLY616  TRP617  ASP618  TYR619  PRO620  LYS621  CYS622 
 ASP623  PHE694  ASN695  SER759  ASP760  ASP761  ALA762  ILE779  LEU786  VAL792 
 PHE793  MET794  SER795  GLU796  ALA797  LYS798  CYS799  TRP800  GLU811  SER814 

> <Gold.Protein.RotatedAtoms>
  151.4863  135.1055  159.9791 H   0  0  0  0  0  0  0  0  0  0  0  0  # atno 6907 bound_to 6896
  152.4759  133.8133  159.7025 H   0  0  0  0  0  0  0  0  0  0  0  0  # atno 6908 bound_to 6896
  150.8796  133.7328  159.2962 H   0  0  0  0  0  0  0  0  0  0  0  0  # atno 6909 bound_to 6896
  144.9120  139.5280  143.5704 H   0  0  0  0  0  0  0  0  0  0  0  0  # atno 7974 bound_to 7965
  155.6854  140.0749  157.2469 H   0  0  0  0  0  0  0  0  0  0  0  0  # atno 8008 bound_to 7997
  154.4098  140.1674  156.2080 H   0  0  0  0  0  0  0  0  0  0  0  0  # atno 8009 bound_to 7997
  155.9498  140.3378  155.6401 H   0  0  0  0  0  0  0  0  0  0  0  0  # atno 8010 bound_to 7997
  139.5076  144.3376  152.0050 H   0  0  0  0  0  0  0  0  0  0  0  0  # atno 10167 bound_to 10162
  156.0443  130.4317  150.2186 H   0  0  0  0  0  0  0  0  0  0  0  0  # atno 10718 bound_to 10713
  154.4266  135.5974  153.6042 H   0  0  0  0  0  0  0  0  0  0  0  0  # atno 10763 bound_to 10752
  152.9796  135.5965  154.3891 H   0  0  0  0  0  0  0  0  0  0  0  0  # atno 10764 bound_to 10752
  154.3723  135.2841  155.2238 H   0  0  0  0  0  0  0  0  0  0  0  0  # atno 10765 bound_to 10752
  141.1069  133.8780  157.1694 H   0  0  0  0  0  0  0  0  0  0  0  0  # atno 11005 bound_to 11000
  146.3163  139.7934  142.8980 LP  0  0  0  0  0  0  0  0  0  0  0  0  # atno 17320 bound_to 7965
  145.3438  141.0293  143.3377 LP  0  0  0  0  0  0  0  0  0  0  0  0  # atno 17321 bound_to 7965
  140.2814  144.3855  150.6117 LP  0  0  0  0  0  0  0  0  0  0  0  0  # atno 17342 bound_to 10162
  140.6015  143.2167  151.7063 LP  0  0  0  0  0  0  0  0  0  0  0  0  # atno 17343 bound_to 10162
  157.0277  130.9998  151.3321 LP  0  0  0  0  0  0  0  0  0  0  0  0  # atno 17370 bound_to 10713
  157.5299  130.8052  149.7905 LP  0  0  0  0  0  0  0  0  0  0  0  0  # atno 17371 bound_to 10713
  139.9943  135.0053  157.0046 LP  0  0  0  0  0  0  0  0  0  0  0  0  # atno 17394 bound_to 11000
  140.4879  134.1223  155.7227 LP  0  0  0  0  0  0  0  0  0  0  0  0  # atno 17395 bound_to 11000

$$$$
