AV-unprocessed.smi:1825|AV-procd|sdf|7414|dock7
  -GOLD-   22720 9 93D 1   1.00000     0.00000
 Structure written by MMmdl.
 33 34  0  0  0  0  0  0  0  0  2 V2000
  149.4093  135.7087  158.4360 O   0  0  0  0  0  0  0  0  0  0  0  0
  148.7412  136.7440  158.3810 C   0  0  0  0  0  0  0  0  0  0  0  0
  148.6725  137.4398  157.2361 N   0  0  0  0  0  0  0  0  0  0  0  0
  149.3243  137.1037  155.9702 C   0  0  0  0  0  0  0  0  0  0  0  0
  149.1783  138.2065  154.8902 C   0  0  0  0  0  0  0  0  0  0  0  0
  150.0311  137.8441  153.8182 O   0  0  0  0  0  0  0  0  0  0  0  0
  147.7292  138.2057  154.3448 C   0  0  0  0  0  0  0  0  0  0  0  0
  147.4660  139.3210  153.3168 C   0  0  0  0  0  0  0  0  0  0  0  0
  147.8273  140.6993  153.8860 C   0  0  0  0  0  0  0  0  0  0  0  0
  149.2855  140.7285  154.3625 C   0  0  0  0  0  0  0  0  0  0  0  0
  149.5643  139.6212  155.3946 C   0  0  0  0  0  0  0  0  0  0  0  0
  148.0219  137.2860  159.3899 N   0  5  0  0  0  0  0  0  0  0  0  0
  147.7729  136.5692  160.4980 C   0  0  0  0  0  0  0  0  0  0  0  0
  147.5450  137.1275  161.6925 N   0  0  0  0  0  0  0  0  0  0  0  0
  147.3008  136.1957  162.7031 C   0  0  0  0  0  0  0  0  0  0  0  0
  147.3349  134.8980  162.2663 C   0  0  0  0  0  0  0  0  0  0  0  0
  147.6786  134.8068  160.5624 S   0  0  0  0  0  0  0  0  0  0  0  0
  148.1052  138.2747  157.2408 H   0  0  0  0  0  0  0  0  0  0  0  0
  150.3786  136.9101  156.1720 H   0  0  0  0  0  0  0  0  0  0  0  0
  148.9259  136.1614  155.5906 H   0  0  0  0  0  0  0  0  0  0  0  0
  149.5138  137.3997  153.1644 H   0  0  0  0  0  0  0  0  0  0  0  0
  147.4915  137.2369  153.9032 H   0  0  0  0  0  0  0  0  0  0  0  0
  147.0341  138.3346  155.1756 H   0  0  0  0  0  0  0  0  0  0  0  0
  148.0434  139.1351  152.4103 H   0  0  0  0  0  0  0  0  0  0  0  0
  146.4172  139.3083  153.0192 H   0  0  0  0  0  0  0  0  0  0  0  0
  147.6671  141.4686  153.1301 H   0  0  0  0  0  0  0  0  0  0  0  0
  147.1644  140.9384  154.7187 H   0  0  0  0  0  0  0  0  0  0  0  0
  149.9530  140.6125  153.5080 H   0  0  0  0  0  0  0  0  0  0  0  0
  149.5128  141.7019  154.7979 H   0  0  0  0  0  0  0  0  0  0  0  0
  149.0030  139.8407  156.3037 H   0  0  0  0  0  0  0  0  0  0  0  0
  150.6182  139.6575  155.6724 H   0  0  0  0  0  0  0  0  0  0  0  0
  147.1094  136.5460  163.7064 H   0  0  0  0  0  0  0  0  0  0  0  0
  147.1790  133.9955  162.8375 H   0  0  0  0  0  0  0  0  0  0  0  0
  1  2  2  0  0  0  0
  2  3  1  0  0  0  0
  2 12  1  0  0  0  0
  3  4  1  0  0  0  0
  3 18  1  0  0  0  0
  4  5  1  0  0  0  0
  4 19  1  0  0  0  0
  4 20  1  0  0  0  0
  5 11  1  0  0  0  0
  5  6  1  0  0  0  0
  5  7  1  0  0  0  0
  6 21  1  0  0  0  0
  7  8  1  0  0  0  0
  7 22  1  0  0  0  0
  7 23  1  0  0  0  0
  8  9  1  0  0  0  0
  8 24  1  0  0  0  0
  8 25  1  0  0  0  0
  9 10  1  0  0  0  0
  9 26  1  0  0  0  0
  9 27  1  0  0  0  0
 10 11  1  0  0  0  0
 10 28  1  0  0  0  0
 10 29  1  0  0  0  0
 11 30  1  0  0  0  0
 11 31  1  0  0  0  0
 12 13  1  0  0  0  0
 13 17  1  0  0  0  0
 13 14  2  0  0  0  0
 14 15  1  0  0  0  0
 15 16  2  0  0  0  0
 15 32  1  0  0  0  0
 16 17  1  0  0  0  0
 16 33  1  0  0  0  0
M  CHG  1  12  -1
M  END
> <s_m_source_file>
AV-unprocessed.smi

> <i_m_source_file_index>
1825

> <i_lp_mmshare_version>
43012

> <i_f3d_flags>
0

> <s_epik_input>
czFbY0hdW2NIXW5jMVtOSF1DKD1PKVtOSF1bQ0gyXUMyKFtPSF0pW0NIMl1bQ0gyXVtDSDJdW0NIMl1bQ0gyXTI=

> <s_epik_cmdline>
J2VwaWtfcHl0aG9uJywgJy1waCcsICc3LjAnLCAnLXRuJywgJzgnLCAnLW1hJywgJzIwMCcsICctbWV0YWxfYmluZGluZycsICctaW1hZScsICc8aW5maWxlLm1hZT4nLCAnLW9tYWUnLCAnPG91dGZpbGUubWFlPic=

> <r_lp_tautomer_probability>
0.999

> <r_epik_Ionization_Penalty>
8.3436

> <r_epik_Ionization_Penalty_Charging>
6.70408

> <r_epik_Ionization_Penalty_Neutral>
1.63952

> <r_epik_State_Penalty>
6.70425

> <r_epik_Charging_Adjusted_Penalty>
13.4083

> <i_epik_Tot_Q>
-1

> <i_epik_Tot_abs_Q>
1

> <r_epik_Metal_State_Penalty>
2.62591

> <b_epik_Metal_Only>
1

> <s_lp_Force_Field>
OPLS_2005

> <r_lp_Energy>
9.48325

> <b_lp_Chiralities_Consistent>
1

> <s_lp_Variant>
AV-unprocessed.smi:1825-2

> <Gold.Version>
5.8.1

> <Gold.Id.Protein>
6NUR|6NUR_protein|mol2

> <Gold.PLP.Fitness>
39.5151

> <Gold.PLP.PLP>
-29.4410

> <Gold.PLP.part.hbond>
-4.9114

> <Gold.PLP.part.metal>
0.0000

> <Gold.PLP.part.buried>
-3.3114

> <Gold.PLP.part.nonpolar>
-21.8606

> <Gold.PLP.part.repulsive>
0.0154

> <Gold.PLP.ligand.clash>
0.0000

> <Gold.PLP.ligand.torsion>
0.3082

> <Gold.PLP.Chemscore.Hbond>
3.5560

> <Gold.PLP.Chemscore.CHOScore>
0.0000

> <Gold.PLP.Chemscore.Metal>
0.0000

> <Gold.Chemscore.Hbonds>
donor molecule, donor type, donor heavy atom, donor atom, acceptor molecule, acceptor atom, score
      L1  H     6    21       P1  7948  1.00
      P1  H  6896  6907       L1     1  0.94
      P1  H  6931  6943       L1    14  0.99
      P1  H  6934  6947       L1    14  0.54

> <Gold.PLP.Chemscore.Internal.Correction>
0.0225

> <Gold.Rescore>
     Score         DG    S(hbond)    S(metal)    S(lipo)     H(rot)  DE(clash)    DE(int)     intcor
     16.78     -17.32       2.85        0.00      59.99       1.83       0.01       0.54       ----

> <Gold.Chemscore.Fitness>
16.7765

> <Gold.Chemscore.DG>
-17.3240

> <Gold.Chemscore.ZeroCoef>
-5.4800

> <Gold.Chemscore.Hbond>
2.8453

> <Gold.Chemscore.Metal>
0.0000

> <Gold.Chemscore.Lipo>
59.9888

> <Gold.Chemscore.Internal_Hbond>
0.0000

> <Gold.Chemscore.DEClash>
0.0089

> <Gold.Chemscore.DEInternal>
0.5386

> <Gold.Chemscore.Rot>
1.8274

> <Gold.Chemscore.Internal.Correction>
   9.000000E+99

> <Gold.Chemscore.Hbonds>
donor molecule, donor type, donor heavy atom, donor atom, acceptor molecule, acceptor atom, score
      L1  H     6    21       P1  7948  0.85
      P1  H  6896  6907       L1     1  0.89
      P1  H  6931  6943       L1    14  0.35
      P1  H  6934  6947       L1    14  0.06

> <Gold.Chemscore.Hbond.Weighted>
-9.5034

> <Gold.Chemscore.Metal.Weighted>
-0.0000

> <Gold.Chemscore.Lipo.Weighted>
-7.0187

> <Gold.Chemscore.Internal_Hbond.Weighted>
0.0000

> <Gold.Chemscore.DEClash.Weighted>
0.0089

> <Gold.Chemscore.DEInternal.Weighted>
0.5386

> <Gold.Chemscore.Rot.Weighted>
4.6781

> <Gold.Chemscore.Internal.Correction.Weighted>
   9.000000E+99

> <Gold.Protein.RotatedTorsions>
[ 6907 6896 6895 6894 ] final  -54.50 input  -60.11 | X-H torsion
[ 7974 7965 7964 7962 ] final -119.94 input  175.53 | X-H torsion
[ 8008 7997 7996 7995 ] final  -50.39 input   59.86 | X-H torsion
[ 10167 10162 10161 10158 ] final  -77.24 input  -65.29 | X-H torsion
[ 10718 10713 10712 10709 ] final   71.26 input   66.30 | X-H torsion
[ 10763 10752 10751 10750 ] final   88.58 input  -60.55 | X-H torsion
[ 11005 11000 10999 10996 ] final   51.15 input  -57.11 | X-H torsion

> <Gold.Protein.ActiveResidues>
 VAL166  LYS551  ARG553  GLY616  TRP617  ASP618  TYR619  PRO620  LYS621  CYS622 
 ASP623  PHE694  ASN695  SER759  ASP760  ASP761  ALA762  ILE779  LEU786  VAL792 
 PHE793  MET794  SER795  GLU796  ALA797  LYS798  CYS799  TRP800  GLU811  SER814 

> <Gold.Protein.RotatedAtoms>
  150.8332  134.7595  159.6871 H   0  0  0  0  0  0  0  0  0  0  0  0  # atno 6907 bound_to 6896
  152.4433  134.5542  159.9885 H   0  0  0  0  0  0  0  0  0  0  0  0  # atno 6908 bound_to 6896
  151.5698  133.3354  159.3023 H   0  0  0  0  0  0  0  0  0  0  0  0  # atno 6909 bound_to 6896
  145.0570  140.8261  143.4175 H   0  0  0  0  0  0  0  0  0  0  0  0  # atno 7974 bound_to 7965
  154.4061  140.1273  156.4659 H   0  0  0  0  0  0  0  0  0  0  0  0  # atno 8008 bound_to 7997
  155.7227  140.3492  155.5003 H   0  0  0  0  0  0  0  0  0  0  0  0  # atno 8009 bound_to 7997
  155.9199  140.1051  157.1205 H   0  0  0  0  0  0  0  0  0  0  0  0  # atno 8010 bound_to 7997
  140.4787  143.2407  151.8091 H   0  0  0  0  0  0  0  0  0  0  0  0  # atno 10167 bound_to 10162
  157.6443  130.9519  150.0765 H   0  0  0  0  0  0  0  0  0  0  0  0  # atno 10718 bound_to 10713
  153.1783  135.4502  154.9994 H   0  0  0  0  0  0  0  0  0  0  0  0  # atno 10763 bound_to 10752
  154.8013  135.3257  154.7546 H   0  0  0  0  0  0  0  0  0  0  0  0  # atno 10764 bound_to 10752
  153.8013  135.6962  153.4910 H   0  0  0  0  0  0  0  0  0  0  0  0  # atno 10765 bound_to 10752
  140.0957  134.5149  155.8809 H   0  0  0  0  0  0  0  0  0  0  0  0  # atno 11005 bound_to 11000
  145.1456  139.2545  143.5467 LP  0  0  0  0  0  0  0  0  0  0  0  0  # atno 17320 bound_to 7965
  146.3522  140.1145  142.8602 LP  0  0  0  0  0  0  0  0  0  0  0  0  # atno 17321 bound_to 7965
  139.4830  144.4800  151.9319 LP  0  0  0  0  0  0  0  0  0  0  0  0  # atno 17342 bound_to 10162
  140.3885  144.2646  150.5902 LP  0  0  0  0  0  0  0  0  0  0  0  0  # atno 17343 bound_to 10162
  156.1754  130.3648  149.9108 LP  0  0  0  0  0  0  0  0  0  0  0  0  # atno 17370 bound_to 10713
  156.7073  130.8956  151.3606 LP  0  0  0  0  0  0  0  0  0  0  0  0  # atno 17371 bound_to 10713
  141.2091  133.6680  156.6417 LP  0  0  0  0  0  0  0  0  0  0  0  0  # atno 17394 bound_to 11000
  140.3290  134.7945  157.4311 LP  0  0  0  0  0  0  0  0  0  0  0  0  # atno 17395 bound_to 11000

$$$$
