AV-unprocessed.smi:674|AV-procd|sdf|3301|dock9
  -GOLD-   22720 0263D 1   1.00000     0.00000
 Structure written by MMmdl.
 47 48  0  0  0  0  0  0  0  0  1 V2000
  145.7061  128.9757  152.2653 C   0  0  0  0  0  0  0  0  0  0  0  0
  146.9795  129.3392  153.0377 C   0  0  0  0  0  0  0  0  0  0  0  0
  147.3197  130.7969  152.9059 C   0  0  0  0  0  0  0  0  0  0  0  0
  148.4866  131.4685  153.3726 C   0  0  0  0  0  0  0  0  0  0  0  0
  148.2610  132.7644  152.9961 C   0  0  0  0  0  0  0  0  0  0  0  0
  149.0436  133.8578  153.1980 N   0  0  0  0  0  0  0  0  0  0  0  0
  150.0266  134.0334  154.0983 C   0  0  0  0  0  0  0  0  0  0  0  0
  150.4253  133.1856  154.8972 O   0  0  0  0  0  0  0  0  0  0  0  0
  150.5403  135.2680  154.0181 N   0  0  0  0  0  0  0  0  0  0  0  0
  151.6237  135.7640  154.8599 C   0  0  2  0  0  0  0  0  0  0  0  0
  151.1836  136.0180  156.2997 C   0  0  0  0  0  0  0  0  0  0  0  0
  152.1313  137.2314  156.2801 C   0  0  2  0  0  0  0  0  0  0  0  0
  153.5595  137.0375  156.8136 C   0  0  0  0  0  0  0  0  0  0  0  0
  151.5397  138.3860  156.8780 O   0  0  0  0  0  0  0  0  0  0  0  0
  152.2071  139.6220  156.6557 C   0  0  0  0  0  0  0  0  0  0  0  0
  151.9017  137.2833  154.7340 C   0  0  0  0  0  0  0  0  0  0  0  0
  153.1042  137.6716  153.8679 C   0  0  0  0  0  0  0  0  0  0  0  0
  150.7328  138.1646  154.2489 C   0  0  0  0  0  0  0  0  0  0  0  0
  147.0428  132.8351  152.3543 N   0  0  0  0  0  0  0  0  0  0  0  0
  146.3521  133.9716  151.7760 C   0  0  0  0  0  0  0  0  0  0  0  0
  146.4664  131.6155  152.3001 N   0  0  0  0  0  0  0  0  0  0  0  0
  145.4750  127.9160  152.3736 H   0  0  0  0  0  0  0  0  0  0  0  0
  145.8173  129.1844  151.2007 H   0  0  0  0  0  0  0  0  0  0  0  0
  144.8493  129.5432  152.6302 H   0  0  0  0  0  0  0  0  0  0  0  0
  146.8482  129.0835  154.0896 H   0  0  0  0  0  0  0  0  0  0  0  0
  147.8086  128.7277  152.6798 H   0  0  0  0  0  0  0  0  0  0  0  0
  149.3310  131.0508  153.8996 H   0  0  0  0  0  0  0  0  0  0  0  0
  148.8525  134.6408  152.5906 H   0  0  0  0  0  0  0  0  0  0  0  0
  150.1632  135.9048  153.3316 H   0  0  0  0  0  0  0  0  0  0  0  0
  152.5318  135.1579  154.8168 H   0  0  0  0  0  0  0  0  0  0  0  0
  150.1295  136.2851  156.3967 H   0  0  0  0  0  0  0  0  0  0  0  0
  151.4618  135.2318  157.0019 H   0  0  0  0  0  0  0  0  0  0  0  0
  154.0905  136.2512  156.2773 H   0  0  0  0  0  0  0  0  0  0  0  0
  153.5658  136.7477  157.8640 H   0  0  0  0  0  0  0  0  0  0  0  0
  154.1463  137.9512  156.7178 H   0  0  0  0  0  0  0  0  0  0  0  0
  151.7184  140.4006  157.2409 H   0  0  0  0  0  0  0  0  0  0  0  0
  152.1618  139.9272  155.6106 H   0  0  0  0  0  0  0  0  0  0  0  0
  153.2515  139.5844  156.9657 H   0  0  0  0  0  0  0  0  0  0  0  0
  153.4216  138.6963  154.0634 H   0  0  0  0  0  0  0  0  0  0  0  0
  152.8734  137.5948  152.8048 H   0  0  0  0  0  0  0  0  0  0  0  0
  153.9630  137.0250  154.0465 H   0  0  0  0  0  0  0  0  0  0  0  0
  150.9568  139.2249  154.3701 H   0  0  0  0  0  0  0  0  0  0  0  0
  149.8110  137.9699  154.7973 H   0  0  0  0  0  0  0  0  0  0  0  0
  150.5156  138.0001  153.1930 H   0  0  0  0  0  0  0  0  0  0  0  0
  146.9755  134.8647  151.8171 H   0  0  0  0  0  0  0  0  0  0  0  0
  145.4301  134.1585  152.3272 H   0  0  0  0  0  0  0  0  0  0  0  0
  146.1082  133.7622  150.7342 H   0  0  0  0  0  0  0  0  0  0  0  0
  1  2  1  0  0  0  0
  1 22  1  0  0  0  0
  1 23  1  0  0  0  0
  1 24  1  0  0  0  0
  2  3  1  0  0  0  0
  2 25  1  0  0  0  0
  2 26  1  0  0  0  0
  3 21  2  0  0  0  0
  3  4  1  0  0  0  0
  4  5  2  0  0  0  0
  4 27  1  0  0  0  0
  5  6  1  0  0  0  0
  5 19  1  0  0  0  0
  6  7  1  0  0  0  0
  6 28  1  0  0  0  0
  7  8  2  0  0  0  0
  7  9  1  0  0  0  0
  9 10  1  0  0  0  0
  9 29  1  0  0  0  0
 10 16  1  0  0  0  0
 10 11  1  0  0  0  0
 10 30  1  0  0  0  0
 11 12  1  0  0  0  0
 11 31  1  0  0  0  0
 11 32  1  0  0  0  0
 12 13  1  0  0  0  0
 12 14  1  0  0  0  0
 12 16  1  0  0  0  0
 13 33  1  0  0  0  0
 13 34  1  0  0  0  0
 13 35  1  0  0  0  0
 14 15  1  0  0  0  0
 15 36  1  0  0  0  0
 15 37  1  0  0  0  0
 15 38  1  0  0  0  0
 16 17  1  0  0  0  0
 16 18  1  0  0  0  0
 17 39  1  0  0  0  0
 17 40  1  0  0  0  0
 17 41  1  0  0  0  0
 18 42  1  0  0  0  0
 18 43  1  0  0  0  0
 18 44  1  0  0  0  0
 19 20  1  0  0  0  0
 19 21  1  0  0  0  0
 20 45  1  0  0  0  0
 20 46  1  0  0  0  0
 20 47  1  0  0  0  0
M  END
> <s_m_source_file>
AV-unprocessed.smi

> <i_m_source_file_index>
674

> <i_lp_mmshare_version>
43012

> <i_f3d_flags>
0

> <s_epik_input>
W0NIM11bQ0gyXWMxW2NIXWMobihuMSlbQ0gzXSlbTkhdQyg9TylbTkhdW0NAQEhdKEMyKFtDSDNdKVtDSDNdKVtDSDJdW0NAQF0yKFtDSDNdKU9bQ0gzXQ==

> <s_epik_cmdline>
J2VwaWtfcHl0aG9uJywgJy1waCcsICc3LjAnLCAnLXRuJywgJzgnLCAnLW1hJywgJzIwMCcsICctbWV0YWxfYmluZGluZycsICctaW1hZScsICc8aW5maWxlLm1hZT4nLCAnLW9tYWUnLCAnPG91dGZpbGUubWFlPic=

> <r_lp_tautomer_probability>
1

> <r_epik_Ionization_Penalty>
0.000101626

> <r_epik_Ionization_Penalty_Charging>
0

> <r_epik_Ionization_Penalty_Neutral>
0.000101626

> <r_epik_State_Penalty>
-0

> <r_epik_Charging_Adjusted_Penalty>
0

> <i_epik_Tot_Q>
0

> <i_epik_Tot_abs_Q>
0

> <r_epik_Metal_State_Penalty>
-0

> <b_epik_Metal_Only>
0

> <s_lp_Force_Field>
OPLS_2005

> <r_lp_Energy>
22.7641

> <b_lp_Chiralities_Consistent>
1

> <s_lp_Variant>
AV-unprocessed.smi:674-3

> <Gold.Version>
5.8.1

> <Gold.Id.Protein>
6NUR|6NUR_protein|mol2

> <Gold.PLP.Fitness>
36.4248

> <Gold.PLP.PLP>
-30.9179

> <Gold.PLP.part.hbond>
-2.0000

> <Gold.PLP.part.metal>
0.0000

> <Gold.PLP.part.buried>
-4.5733

> <Gold.PLP.part.nonpolar>
-25.3232

> <Gold.PLP.part.repulsive>
0.2008

> <Gold.PLP.ligand.clash>
0.0000

> <Gold.PLP.ligand.torsion>
0.3216

> <Gold.PLP.Chemscore.Hbond>
1.9260

> <Gold.PLP.Chemscore.CHOScore>
0.0000

> <Gold.PLP.Chemscore.Metal>
0.0000

> <Gold.Chemscore.Hbonds>
donor molecule, donor type, donor heavy atom, donor atom, acceptor molecule, acceptor atom, score
      L1  H     6    28       P1  7948  0.40
      L1  H     9    29       P1  7948  0.15

> <Gold.PLP.Chemscore.Internal.Correction>
0.3721

> <Gold.Rescore>
     Score         DG    S(hbond)    S(metal)    S(lipo)     H(rot)  DE(clash)    DE(int)     intcor
     14.64     -15.13       1.48        0.00      70.03       1.37       0.01       0.49       ----

> <Gold.Chemscore.Fitness>
14.6357

> <Gold.Chemscore.DG>
-15.1322

> <Gold.Chemscore.ZeroCoef>
-5.4800

> <Gold.Chemscore.Hbond>
1.4835

> <Gold.Chemscore.Metal>
0.0000

> <Gold.Chemscore.Lipo>
70.0321

> <Gold.Chemscore.Internal_Hbond>
0.0000

> <Gold.Chemscore.DEClash>
0.0088

> <Gold.Chemscore.DEInternal>
0.4877

> <Gold.Chemscore.Rot>
1.3658

> <Gold.Chemscore.Internal.Correction>
   9.000000E+99

> <Gold.Chemscore.Hbonds>
donor molecule, donor type, donor heavy atom, donor atom, acceptor molecule, acceptor atom, score
      L1  H     6    28       P1  7948  0.01

> <Gold.Chemscore.Hbond.Weighted>
-4.9548

> <Gold.Chemscore.Metal.Weighted>
-0.0000

> <Gold.Chemscore.Lipo.Weighted>
-8.1938

> <Gold.Chemscore.Internal_Hbond.Weighted>
0.0000

> <Gold.Chemscore.DEClash.Weighted>
0.0088

> <Gold.Chemscore.DEInternal.Weighted>
0.4877

> <Gold.Chemscore.Rot.Weighted>
3.4963

> <Gold.Chemscore.Internal.Correction.Weighted>
   9.000000E+99

> <Gold.Protein.RotatedTorsions>
[ 6907 6896 6895 6894 ] final  -34.69 input  -60.11 | X-H torsion
[ 7974 7965 7964 7962 ] final  -76.39 input  175.53 | X-H torsion
[ 8008 7997 7996 7995 ] final  -82.74 input   59.86 | X-H torsion
[ 10167 10162 10161 10158 ] final -103.56 input  -65.29 | X-H torsion
[ 10718 10713 10712 10709 ] final  -38.47 input   66.30 | X-H torsion
[ 10763 10752 10751 10750 ] final -133.53 input  -60.55 | X-H torsion
[ 11005 11000 10999 10996 ] final  -52.26 input  -57.11 | X-H torsion

> <Gold.Protein.ActiveResidues>
 VAL166  LYS551  ARG553  GLY616  TRP617  ASP618  TYR619  PRO620  LYS621  CYS622 
 ASP623  PHE694  ASN695  SER759  ASP760  ASP761  ALA762  ILE779  LEU786  VAL792 
 PHE793  MET794  SER795  GLU796  ALA797  LYS798  CYS799  TRP800  GLU811  SER814 

> <Gold.Protein.RotatedAtoms>
  151.0494  134.9662  159.8203 H   0  0  0  0  0  0  0  0  0  0  0  0  # atno 6907 bound_to 6896
  152.5378  134.2556  159.8926 H   0  0  0  0  0  0  0  0  0  0  0  0  # atno 6908 bound_to 6896
  151.2571  133.4277  159.2648 H   0  0  0  0  0  0  0  0  0  0  0  0  # atno 6909 bound_to 6896
  145.6135  140.9381  143.1177 H   0  0  0  0  0  0  0  0  0  0  0  0  # atno 7974 bound_to 7965
  154.6117  140.0629  156.9502 H   0  0  0  0  0  0  0  0  0  0  0  0  # atno 8008 bound_to 7997
  155.1962  140.3311  155.4332 H   0  0  0  0  0  0  0  0  0  0  0  0  # atno 8009 bound_to 7997
  156.2380  140.1872  156.7049 H   0  0  0  0  0  0  0  0  0  0  0  0  # atno 8010 bound_to 7997
  140.2187  143.3692  152.0989 H   0  0  0  0  0  0  0  0  0  0  0  0  # atno 10167 bound_to 10162
  156.3034  130.4243  149.8120 H   0  0  0  0  0  0  0  0  0  0  0  0  # atno 10718 bound_to 10713
  154.8731  135.3763  154.4588 H   0  0  0  0  0  0  0  0  0  0  0  0  # atno 10763 bound_to 10752
  153.5258  135.7028  153.5713 H   0  0  0  0  0  0  0  0  0  0  0  0  # atno 10764 bound_to 10752
  153.3940  135.3965  155.1908 H   0  0  0  0  0  0  0  0  0  0  0  0  # atno 10765 bound_to 10752
  141.0915  133.6632  156.3999 H   0  0  0  0  0  0  0  0  0  0  0  0  # atno 11005 bound_to 11000
  144.7260  139.7874  143.7365 LP  0  0  0  0  0  0  0  0  0  0  0  0  # atno 17320 bound_to 7965
  146.1486  139.4563  143.0063 LP  0  0  0  0  0  0  0  0  0  0  0  0  # atno 17321 bound_to 7965
  139.5152  144.6960  151.5629 LP  0  0  0  0  0  0  0  0  0  0  0  0  # atno 17342 bound_to 10162
  140.6271  143.9147  150.6574 LP  0  0  0  0  0  0  0  0  0  0  0  0  # atno 17343 bound_to 10162
  156.5490  130.8333  151.3293 LP  0  0  0  0  0  0  0  0  0  0  0  0  # atno 17370 bound_to 10713
  157.7373  130.9794  150.2188 LP  0  0  0  0  0  0  0  0  0  0  0  0  # atno 17371 bound_to 10713
  140.5241  134.6276  157.5328 LP  0  0  0  0  0  0  0  0  0  0  0  0  # atno 17394 bound_to 11000
  139.9742  134.7243  155.9982 LP  0  0  0  0  0  0  0  0  0  0  0  0  # atno 17395 bound_to 11000

$$$$
