AV-unprocessed.smi:2534|AV-procd|sdf|9974|dock2
  -GOLD-   2272014 23D 1   1.00000     0.00000
 Structure written by MMmdl.
 40 42  0  0  0  0  0  0  0  0  1 V2000
  149.5173  137.6367  157.1519 C   0  0  0  0  0  0  0  0  0  0  0  0
  150.3424  138.9293  157.2231 C   0  0  2  0  0  0  0  0  0  0  0  0
  149.6986  139.9560  158.1705 C   0  0  0  0  0  0  0  0  0  0  0  0
  150.5289  141.2489  158.2538 C   0  0  0  0  0  0  0  0  0  0  0  0
  150.7958  141.8925  156.8735 C   0  0  1  0  0  0  0  0  0  0  0  0
  149.5596  142.3460  156.3500 O   0  0  0  0  0  0  0  0  0  0  0  0
  151.7282  143.1211  157.0427 C   0  0  0  0  0  0  0  0  0  0  0  0
  151.7272  143.7032  158.3796 N   0  0  0  0  0  0  0  0  0  0  0  0
  151.0662  144.8690  158.6053 N   0  0  0  0  0  0  0  0  0  0  0  0
  151.2427  145.1439  159.8956 C   0  0  0  0  0  0  0  0  0  0  0  0
  152.0425  144.1636  160.5438 C   0  0  0  0  0  0  0  0  0  0  0  0
  152.5407  143.9695  161.9011 C   0  0  0  0  0  0  0  0  0  0  0  0
  153.2708  142.9264  162.1428 N   0  0  0  0  0  0  0  0  0  0  0  0
  153.5841  142.0049  161.1374 N   0  0  0  0  0  0  0  0  0  0  0  0
  154.4183  140.8972  161.6020 C   0  0  0  0  0  0  0  0  0  0  0  0
  153.1753  142.1004  159.8342 C   0  0  0  0  0  0  0  0  0  0  0  0
  153.4709  141.2936  158.9525 O   0  0  0  0  0  0  0  0  0  0  0  0
  152.3277  143.2846  159.5516 C   0  0  0  0  0  0  0  0  0  0  0  0
  151.3732  140.8431  155.8913 C   0  0  0  0  0  0  0  0  0  0  0  0
  150.5398  139.5501  155.8293 C   0  0  0  0  0  0  0  0  0  0  0  0
  148.5191  137.8248  156.7549 H   0  0  0  0  0  0  0  0  0  0  0  0
  149.4041  137.1888  158.1395 H   0  0  0  0  0  0  0  0  0  0  0  0
  149.9980  136.8987  156.5091 H   0  0  0  0  0  0  0  0  0  0  0  0
  151.3250  138.6711  157.6205 H   0  0  0  0  0  0  0  0  0  0  0  0
  148.6875  140.1884  157.8335 H   0  0  0  0  0  0  0  0  0  0  0  0
  149.5966  139.5273  159.1680 H   0  0  0  0  0  0  0  0  0  0  0  0
  150.0306  141.9609  158.9129 H   0  0  0  0  0  0  0  0  0  0  0  0
  151.4821  141.0161  158.7307 H   0  0  0  0  0  0  0  0  0  0  0  0
  149.5816  143.2897  156.3006 H   0  0  0  0  0  0  0  0  0  0  0  0
  152.7535  142.8629  156.7774 H   0  0  0  0  0  0  0  0  0  0  0  0
  151.4350  143.9007  156.3378 H   0  0  0  0  0  0  0  0  0  0  0  0
  150.7938  146.0346  160.3097 H   0  0  0  0  0  0  0  0  0  0  0  0
  152.3022  144.6863  162.6865 H   0  0  0  0  0  0  0  0  0  0  0  0
  154.6576  140.1687  160.8264 H   0  0  0  0  0  0  0  0  0  0  0  0
  153.9135  140.3611  162.4066 H   0  0  0  0  0  0  0  0  0  0  0  0
  155.3616  141.2789  161.9940 H   0  0  0  0  0  0  0  0  0  0  0  0
  151.4521  141.2601  154.8869 H   0  0  0  0  0  0  0  0  0  0  0  0
  152.3898  140.5898  156.1951 H   0  0  0  0  0  0  0  0  0  0  0  0
  151.0321  138.8344  155.1703 H   0  0  0  0  0  0  0  0  0  0  0  0
  149.5694  139.7613  155.3780 H   0  0  0  0  0  0  0  0  0  0  0  0
  1  2  1  0  0  0  0
  1 21  1  0  0  0  0
  1 22  1  0  0  0  0
  1 23  1  0  0  0  0
  2 20  1  0  0  0  0
  2  3  1  0  0  0  0
  2 24  1  0  0  0  0
  3  4  1  0  0  0  0
  3 25  1  0  0  0  0
  3 26  1  0  0  0  0
  4  5  1  0  0  0  0
  4 27  1  0  0  0  0
  4 28  1  0  0  0  0
  5  6  1  0  0  0  0
  5  7  1  0  0  0  0
  5 19  1  0  0  0  0
  6 29  1  0  0  0  0
  7  8  1  0  0  0  0
  7 30  1  0  0  0  0
  7 31  1  0  0  0  0
  8 18  1  0  0  0  0
  8  9  1  0  0  0  0
  9 10  2  0  0  0  0
 10 11  1  0  0  0  0
 10 32  1  0  0  0  0
 11 18  2  0  0  0  0
 11 12  1  0  0  0  0
 12 13  2  0  0  0  0
 12 33  1  0  0  0  0
 13 14  1  0  0  0  0
 14 15  1  0  0  0  0
 14 16  1  0  0  0  0
 15 34  1  0  0  0  0
 15 35  1  0  0  0  0
 15 36  1  0  0  0  0
 16 17  2  0  0  0  0
 16 18  1  0  0  0  0
 19 20  1  0  0  0  0
 19 37  1  0  0  0  0
 19 38  1  0  0  0  0
 20 39  1  0  0  0  0
 20 40  1  0  0  0  0
M  END
> <s_m_source_file>
AV-unprocessed.smi

> <i_m_source_file_index>
2534

> <i_lp_mmshare_version>
43012

> <i_f3d_flags>
0

> <s_epik_input>
W0NIMl0xW0NIMl1bQ0BIXShbQ0gzXSlbQ0gyXVtDSDJdW0NAQF0xKFtPSF0pW0NIMl1uKG5bY0hdMiljKGMyMyljKD1PKW4oW0NIM10pbltjSF0z

> <s_epik_cmdline>
J2VwaWtfcHl0aG9uJywgJy1waCcsICc3LjAnLCAnLXRuJywgJzgnLCAnLW1hJywgJzIwMCcsICctbWV0YWxfYmluZGluZycsICctaW1hZScsICc8aW5maWxlLm1hZT4nLCAnLW9tYWUnLCAnPG91dGZpbGUubWFlPic=

> <r_lp_tautomer_probability>
1

> <r_epik_Ionization_Penalty>
4.4666e-07

> <r_epik_Ionization_Penalty_Charging>
3.10141e-10

> <r_epik_Ionization_Penalty_Neutral>
4.46349e-07

> <r_epik_State_Penalty>
-0

> <r_epik_Charging_Adjusted_Penalty>
3.10141e-10

> <i_epik_Tot_Q>
0

> <i_epik_Tot_abs_Q>
0

> <r_epik_Metal_State_Penalty>
-0

> <b_epik_Metal_Only>
0

> <s_lp_Force_Field>
OPLS_2005

> <r_lp_Energy>
31.1347

> <b_lp_Chiralities_Consistent>
1

> <s_lp_Variant>
AV-unprocessed.smi:2534-1

> <Gold.Version>
5.8.1

> <Gold.Id.Protein>
6NUR|6NUR_protein|mol2

> <Gold.PLP.Fitness>
42.2861

> <Gold.PLP.PLP>
-41.4680

> <Gold.PLP.part.hbond>
-0.8827

> <Gold.PLP.part.metal>
0.0000

> <Gold.PLP.part.buried>
-5.1168

> <Gold.PLP.part.nonpolar>
-34.7024

> <Gold.PLP.part.repulsive>
0.2368

> <Gold.PLP.ligand.clash>
0.0000

> <Gold.PLP.ligand.torsion>
0.9369

> <Gold.PLP.Chemscore.Hbond>
0.8960

> <Gold.PLP.Chemscore.CHOScore>
0.0000

> <Gold.PLP.Chemscore.Metal>
0.0000

> <Gold.Chemscore.Hbonds>
donor molecule, donor type, donor heavy atom, donor atom, acceptor molecule, acceptor atom, score
      L1  H     6    29       P1  8028  0.96

> <Gold.PLP.Chemscore.Internal.Correction>
0.0038

> <Gold.Rescore>
     Score         DG    S(hbond)    S(metal)    S(lipo)     H(rot)  DE(clash)    DE(int)     intcor
     13.94     -17.29       1.72        0.00      88.41       1.68       1.46       1.90       ----

> <Gold.Chemscore.Fitness>
13.9367

> <Gold.Chemscore.DG>
-17.2882

> <Gold.Chemscore.ZeroCoef>
-5.4800

> <Gold.Chemscore.Hbond>
1.7228

> <Gold.Chemscore.Metal>
0.0000

> <Gold.Chemscore.Lipo>
88.4086

> <Gold.Chemscore.Internal_Hbond>
0.0000

> <Gold.Chemscore.DEClash>
1.4558

> <Gold.Chemscore.DEInternal>
1.8957

> <Gold.Chemscore.Rot>
1.6758

> <Gold.Chemscore.Internal.Correction>
   9.000000E+99

> <Gold.Chemscore.Hbonds>
donor molecule, donor type, donor heavy atom, donor atom, acceptor molecule, acceptor atom, score
      L1  H     6    29       P1  8028  0.92

> <Gold.Chemscore.Hbond.Weighted>
-5.7543

> <Gold.Chemscore.Metal.Weighted>
-0.0000

> <Gold.Chemscore.Lipo.Weighted>
-10.3438

> <Gold.Chemscore.Internal_Hbond.Weighted>
0.0000

> <Gold.Chemscore.DEClash.Weighted>
1.4558

> <Gold.Chemscore.DEInternal.Weighted>
1.8957

> <Gold.Chemscore.Rot.Weighted>
4.2899

> <Gold.Chemscore.Internal.Correction.Weighted>
   9.000000E+99

> <Gold.Protein.RotatedTorsions>
[ 6907 6896 6895 6894 ] final -158.83 input  -60.11 | X-H torsion
[ 7974 7965 7964 7962 ] final   47.02 input  175.53 | X-H torsion
[ 8008 7997 7996 7995 ] final -105.99 input   59.86 | X-H torsion
[ 10167 10162 10161 10158 ] final -170.97 input  -65.29 | X-H torsion
[ 10718 10713 10712 10709 ] final  176.36 input   66.30 | X-H torsion
[ 10763 10752 10751 10750 ] final   99.07 input  -60.55 | X-H torsion
[ 11005 11000 10999 10996 ] final   69.44 input  -57.11 | X-H torsion

> <Gold.Protein.ActiveResidues>
 VAL166  LYS551  ARG553  GLY616  TRP617  ASP618  TYR619  PRO620  LYS621  CYS622 
 ASP623  PHE694  ASN695  SER759  ASP760  ASP761  ALA762  ILE779  LEU786  VAL792 
 PHE793  MET794  SER795  GLU796  ALA797  LYS798  CYS799  TRP800  GLU811  SER814 

> <Gold.Protein.RotatedAtoms>
  151.3241  133.4027  159.2656 H   0  0  0  0  0  0  0  0  0  0  0  0  # atno 6907 bound_to 6896
  151.0009  134.9322  159.7964 H   0  0  0  0  0  0  0  0  0  0  0  0  # atno 6908 bound_to 6896
  152.5275  134.3206  159.9199 H   0  0  0  0  0  0  0  0  0  0  0  0  # atno 6909 bound_to 6896
  146.0336  139.4794  142.9822 H   0  0  0  0  0  0  0  0  0  0  0  0  # atno 7974 bound_to 7965
  154.9080  140.0411  157.1930 H   0  0  0  0  0  0  0  0  0  0  0  0  # atno 8008 bound_to 7997
  154.8377  140.2909  155.5659 H   0  0  0  0  0  0  0  0  0  0  0  0  # atno 8009 bound_to 7997
  156.2990  140.2488  156.3314 H   0  0  0  0  0  0  0  0  0  0  0  0  # atno 8010 bound_to 7997
  139.5830  144.1381  152.1539 H   0  0  0  0  0  0  0  0  0  0  0  0  # atno 10167 bound_to 10162
  156.9213  130.9941  151.3004 H   0  0  0  0  0  0  0  0  0  0  0  0  # atno 10718 bound_to 10713
  153.2968  135.4126  155.1217 H   0  0  0  0  0  0  0  0  0  0  0  0  # atno 10763 bound_to 10752
  154.8537  135.3532  154.5906 H   0  0  0  0  0  0  0  0  0  0  0  0  # atno 10764 bound_to 10752
  153.6330  135.7060  153.5327 H   0  0  0  0  0  0  0  0  0  0  0  0  # atno 10765 bound_to 10752
  139.9654  134.6990  156.0558 H   0  0  0  0  0  0  0  0  0  0  0  0  # atno 11005 bound_to 11000
  145.7000  141.0139  143.1509 LP  0  0  0  0  0  0  0  0  0  0  0  0  # atno 17320 bound_to 7965
  144.7041  139.8633  143.7435 LP  0  0  0  0  0  0  0  0  0  0  0  0  # atno 17321 bound_to 7965
  140.0938  144.5598  150.7036 LP  0  0  0  0  0  0  0  0  0  0  0  0  # atno 17342 bound_to 10162
  140.7106  143.2502  151.4593 LP  0  0  0  0  0  0  0  0  0  0  0  0  # atno 17343 bound_to 10162
  157.5906  130.8441  149.8653 LP  0  0  0  0  0  0  0  0  0  0  0  0  # atno 17370 bound_to 10713
  156.0490  130.3721  150.1248 LP  0  0  0  0  0  0  0  0  0  0  0  0  # atno 17371 bound_to 10713
  141.1333  133.6581  156.3524 LP  0  0  0  0  0  0  0  0  0  0  0  0  # atno 17394 bound_to 11000
  140.5409  134.6121  157.5379 LP  0  0  0  0  0  0  0  0  0  0  0  0  # atno 17395 bound_to 11000

$$$$
