AV-unprocessed.smi:3241|AV-procd|sdf|12389|dock5
  -GOLD-   2272018253D 1   1.00000     0.00000
 Structure written by MMmdl.
 43 44  0  0  0  0  0  0  0  0  1 V2000
  151.3989  145.2302  159.0458 C   0  0  0  0  0  0  0  0  0  0  0  0
  151.6506  144.0246  159.9674 C   0  0  2  0  0  0  0  0  0  0  0  0
  152.1311  144.4895  161.3566 C   0  0  0  0  0  0  0  0  0  0  0  0
  152.3916  143.3016  162.2953 C   0  0  0  0  0  0  0  0  0  0  0  0
  153.3981  142.3207  161.6774 C   0  0  0  0  0  0  0  0  0  0  0  0
  152.9268  141.8429  160.2956 C   0  0  0  0  0  0  0  0  0  0  0  0
  152.6572  143.0295  159.3465 C   0  0  1  0  0  0  0  0  0  0  0  0
  152.0939  142.5589  158.1293 O   0  0  0  0  0  0  0  0  0  0  0  0
  150.8340  141.9167  158.2585 C   0  0  0  0  0  0  0  0  0  0  0  0
  150.6310  141.0393  157.0199 C   0  0  0  0  0  0  0  0  0  0  0  0
  149.9240  141.7832  155.9841 N   0  0  0  0  0  0  0  0  0  0  0  0
  149.8184  141.0736  154.7135 C   0  0  0  0  0  0  0  0  0  0  0  0
  149.4441  139.5977  154.9269 C   0  0  0  0  0  0  0  0  0  0  0  0
  150.6023  138.7798  155.2449 N   0  0  0  0  0  0  0  0  0  0  0  0
  150.6373  137.4517  155.6152 C   0  0  0  0  0  0  0  0  0  0  0  0
  151.9481  137.1142  155.7957 C   0  0  0  0  0  0  0  0  0  0  0  0
  152.6498  138.3187  155.5105 C   0  0  0  0  0  0  0  0  0  0  0  0
  151.8420  139.3136  155.1813 N   0  0  0  0  0  0  0  0  0  0  0  0
  152.3183  145.7857  158.8580 H   0  0  0  0  0  0  0  0  0  0  0  0
  150.6781  145.9187  159.4872 H   0  0  0  0  0  0  0  0  0  0  0  0
  150.9990  144.9161  158.0815 H   0  0  0  0  0  0  0  0  0  0  0  0
  150.6997  143.5059  160.0996 H   0  0  0  0  0  0  0  0  0  0  0  0
  153.0447  145.0767  161.2532 H   0  0  0  0  0  0  0  0  0  0  0  0
  151.3896  145.1513  161.8056 H   0  0  0  0  0  0  0  0  0  0  0  0
  152.7636  143.6606  163.2552 H   0  0  0  0  0  0  0  0  0  0  0  0
  151.4536  142.7840  162.5001 H   0  0  0  0  0  0  0  0  0  0  0  0
  154.3718  142.8036  161.5854 H   0  0  0  0  0  0  0  0  0  0  0  0
  153.5377  141.4652  162.3391 H   0  0  0  0  0  0  0  0  0  0  0  0
  153.6782  141.1770  159.8717 H   0  0  0  0  0  0  0  0  0  0  0  0
  152.0172  141.2510  160.4073 H   0  0  0  0  0  0  0  0  0  0  0  0
  153.5899  143.5617  159.1491 H   0  0  0  0  0  0  0  0  0  0  0  0
  150.7840  141.3108  159.1650 H   0  0  0  0  0  0  0  0  0  0  0  0
  150.0421  142.6634  158.3166 H   0  0  0  0  0  0  0  0  0  0  0  0
  151.5977  140.7095  156.6383 H   0  0  0  0  0  0  0  0  0  0  0  0
  150.0773  140.1411  157.2963 H   0  0  0  0  0  0  0  0  0  0  0  0
  148.9946  142.0243  156.3154 H   0  0  0  0  0  0  0  0  0  0  0  0
  149.0692  141.5537  154.0833 H   0  0  0  0  0  0  0  0  0  0  0  0
  150.7635  141.1300  154.1722 H   0  0  0  0  0  0  0  0  0  0  0  0
  148.7013  139.4995  155.7204 H   0  0  0  0  0  0  0  0  0  0  0  0
  148.9872  139.1983  154.0209 H   0  0  0  0  0  0  0  0  0  0  0  0
  149.7368  136.8637  155.7139 H   0  0  0  0  0  0  0  0  0  0  0  0
  152.3456  136.1529  156.0859 H   0  0  0  0  0  0  0  0  0  0  0  0
  153.7146  138.4981  155.5297 H   0  0  0  0  0  0  0  0  0  0  0  0
  1  2  1  0  0  0  0
  1 19  1  0  0  0  0
  1 20  1  0  0  0  0
  1 21  1  0  0  0  0
  2  7  1  0  0  0  0
  2  3  1  0  0  0  0
  2 22  1  0  0  0  0
  3  4  1  0  0  0  0
  3 23  1  0  0  0  0
  3 24  1  0  0  0  0
  4  5  1  0  0  0  0
  4 25  1  0  0  0  0
  4 26  1  0  0  0  0
  5  6  1  0  0  0  0
  5 27  1  0  0  0  0
  5 28  1  0  0  0  0
  6  7  1  0  0  0  0
  6 29  1  0  0  0  0
  6 30  1  0  0  0  0
  7  8  1  0  0  0  0
  7 31  1  0  0  0  0
  8  9  1  0  0  0  0
  9 10  1  0  0  0  0
  9 32  1  0  0  0  0
  9 33  1  0  0  0  0
 10 11  1  0  0  0  0
 10 34  1  0  0  0  0
 10 35  1  0  0  0  0
 11 12  1  0  0  0  0
 11 36  1  0  0  0  0
 12 13  1  0  0  0  0
 12 37  1  0  0  0  0
 12 38  1  0  0  0  0
 13 14  1  0  0  0  0
 13 39  1  0  0  0  0
 13 40  1  0  0  0  0
 14 18  1  0  0  0  0
 14 15  1  0  0  0  0
 15 16  2  0  0  0  0
 15 41  1  0  0  0  0
 16 17  1  0  0  0  0
 16 42  1  0  0  0  0
 17 18  2  0  0  0  0
 17 43  1  0  0  0  0
M  END
> <s_m_source_file>
AV-unprocessed.smi

> <i_m_source_file_index>
3241

> <i_lp_mmshare_version>
43012

> <i_f3d_flags>
0

> <s_epik_input>
W0NIM11bQ0BASF0xW0NIMl1bQ0gyXVtDSDJdW0NIMl1bQ0BIXTFPW0NIMl1bQ0gyXVtOSF1bQ0gyXVtDSDJdbjJbY0hdW2NIXVtjSF1uMg==

> <s_epik_cmdline>
J2VwaWtfcHl0aG9uJywgJy1waCcsICc3LjAnLCAnLXRuJywgJzgnLCAnLW1hJywgJzIwMCcsICctbWV0YWxfYmluZGluZycsICctaW1hZScsICc8aW5maWxlLm1hZT4nLCAnLW9tYWUnLCAnPG91dGZpbGUubWFlPic=

> <r_lp_tautomer_probability>
1

> <r_epik_Ionization_Penalty>
2.47055

> <r_epik_Ionization_Penalty_Charging>
0

> <r_epik_Ionization_Penalty_Neutral>
2.47055

> <r_epik_State_Penalty>
2.6322

> <r_epik_Charging_Adjusted_Penalty>
2.6322

> <i_epik_Tot_Q>
0

> <i_epik_Tot_abs_Q>
0

> <r_epik_Metal_State_Penalty>
2.63108

> <b_epik_Metal_Only>
0

> <s_lp_Force_Field>
OPLS_2005

> <r_lp_Energy>
15.2111

> <b_lp_Chiralities_Consistent>
1

> <s_lp_Variant>
AV-unprocessed.smi:3241-5

> <Gold.Version>
5.8.1

> <Gold.Id.Protein>
6NUR|6NUR_protein|mol2

> <Gold.PLP.Fitness>
50.9854

> <Gold.PLP.PLP>
-49.0140

> <Gold.PLP.part.hbond>
-1.9876

> <Gold.PLP.part.metal>
0.0000

> <Gold.PLP.part.buried>
-3.5718

> <Gold.PLP.part.nonpolar>
-42.1539

> <Gold.PLP.part.repulsive>
0.0912

> <Gold.PLP.ligand.clash>
0.0000

> <Gold.PLP.ligand.torsion>
0.5506

> <Gold.PLP.Chemscore.Hbond>
1.0000

> <Gold.PLP.Chemscore.CHOScore>
0.0000

> <Gold.PLP.Chemscore.Metal>
0.0000

> <Gold.Chemscore.Hbonds>
donor molecule, donor type, donor heavy atom, donor atom, acceptor molecule, acceptor atom, score
      P1  H  7989  7998       L1    18  0.36

> <Gold.PLP.Chemscore.Internal.Correction>
0.0725

> <Gold.Rescore>
     Score         DG    S(hbond)    S(metal)    S(lipo)     H(rot)  DE(clash)    DE(int)     intcor
     15.94     -19.44       0.91        0.00     132.48       1.79       0.31       3.19       ----

> <Gold.Chemscore.Fitness>
15.9425

> <Gold.Chemscore.DG>
-19.4387

> <Gold.Chemscore.ZeroCoef>
-5.4800

> <Gold.Chemscore.Hbond>
0.9107

> <Gold.Chemscore.Metal>
0.0000

> <Gold.Chemscore.Lipo>
132.4762

> <Gold.Chemscore.Internal_Hbond>
0.0000

> <Gold.Chemscore.DEClash>
0.3100

> <Gold.Chemscore.DEInternal>
3.1862

> <Gold.Chemscore.Rot>
1.7901

> <Gold.Chemscore.Internal.Correction>
   9.000000E+99

> <Gold.Chemscore.Hbonds>
donor molecule, donor type, donor heavy atom, donor atom, acceptor molecule, acceptor atom, score
      P1  H  7989  7998       L1    18  0.13

> <Gold.Chemscore.Hbond.Weighted>
-3.0418

> <Gold.Chemscore.Metal.Weighted>
-0.0000

> <Gold.Chemscore.Lipo.Weighted>
-15.4997

> <Gold.Chemscore.Internal_Hbond.Weighted>
0.0000

> <Gold.Chemscore.DEClash.Weighted>
0.3100

> <Gold.Chemscore.DEInternal.Weighted>
3.1862

> <Gold.Chemscore.Rot.Weighted>
4.5827

> <Gold.Chemscore.Internal.Correction.Weighted>
   9.000000E+99

> <Gold.Protein.RotatedTorsions>
[ 6907 6896 6895 6894 ] final  -32.30 input  -60.11 | X-H torsion
[ 7974 7965 7964 7962 ] final -131.99 input  175.53 | X-H torsion
[ 8008 7997 7996 7995 ] final -130.12 input   59.86 | X-H torsion
[ 10167 10162 10161 10158 ] final -130.13 input  -65.29 | X-H torsion
[ 10718 10713 10712 10709 ] final  101.27 input   66.30 | X-H torsion
[ 10763 10752 10751 10750 ] final -127.63 input  -60.55 | X-H torsion
[ 11005 11000 10999 10996 ] final  102.58 input  -57.11 | X-H torsion

> <Gold.Protein.ActiveResidues>
 VAL166  LYS551  ARG553  GLY616  TRP617  ASP618  TYR619  PRO620  LYS621  CYS622 
 ASP623  PHE694  ASN695  SER759  ASP760  ASP761  ALA762  ILE779  LEU786  VAL792 
 PHE793  MET794  SER795  GLU796  ALA797  LYS798  CYS799  TRP800  GLU811  SER814 

> <Gold.Protein.RotatedAtoms>
  151.0806  134.9856  159.8353 H   0  0  0  0  0  0  0  0  0  0  0  0  # atno 6907 bound_to 6896
  152.5419  134.2186  159.8789 H   0  0  0  0  0  0  0  0  0  0  0  0  # atno 6908 bound_to 6896
  151.2216  133.4455  159.2634 H   0  0  0  0  0  0  0  0  0  0  0  0  # atno 6909 bound_to 6896
  144.9327  140.7147  143.4896 H   0  0  0  0  0  0  0  0  0  0  0  0  # atno 7974 bound_to 7965
  155.2905  140.0448  157.3022 H   0  0  0  0  0  0  0  0  0  0  0  0  # atno 8008 bound_to 7997
  154.5544  140.2327  155.8401 H   0  0  0  0  0  0  0  0  0  0  0  0  # atno 8009 bound_to 7997
  156.1995  140.3029  155.9503 H   0  0  0  0  0  0  0  0  0  0  0  0  # atno 8010 bound_to 7997
  139.9325  143.6255  152.2526 H   0  0  0  0  0  0  0  0  0  0  0  0  # atno 10167 bound_to 10162
  157.6833  131.0721  150.5226 H   0  0  0  0  0  0  0  0  0  0  0  0  # atno 10718 bound_to 10713
  154.8753  135.3955  154.3626 H   0  0  0  0  0  0  0  0  0  0  0  0  # atno 10763 bound_to 10752
  153.4396  135.7026  153.6183 H   0  0  0  0  0  0  0  0  0  0  0  0  # atno 10764 bound_to 10752
  153.4769  135.3778  155.2390 H   0  0  0  0  0  0  0  0  0  0  0  0  # atno 10765 bound_to 10752
  139.8778  134.9230  156.5080 H   0  0  0  0  0  0  0  0  0  0  0  0  # atno 11005 bound_to 11000
  145.3116  139.1817  143.4636 LP  0  0  0  0  0  0  0  0  0  0  0  0  # atno 17320 bound_to 7965
  146.3254  140.3121  142.8627 LP  0  0  0  0  0  0  0  0  0  0  0  0  # atno 17321 bound_to 7965
  139.6770  144.7658  151.1677 LP  0  0  0  0  0  0  0  0  0  0  0  0  # atno 17342 bound_to 10162
  140.7633  143.5780  150.8925 LP  0  0  0  0  0  0  0  0  0  0  0  0  # atno 17343 bound_to 10162
  156.5539  130.4238  149.6094 LP  0  0  0  0  0  0  0  0  0  0  0  0  # atno 17370 bound_to 10713
  156.2879  130.7107  151.1949 LP  0  0  0  0  0  0  0  0  0  0  0  0  # atno 17371 bound_to 10713
  140.8541  133.8109  155.9198 LP  0  0  0  0  0  0  0  0  0  0  0  0  # atno 17394 bound_to 11000
  140.9115  134.2255  157.4983 LP  0  0  0  0  0  0  0  0  0  0  0  0  # atno 17395 bound_to 11000

$$$$
