AV-unprocessed.smi:3|AV-procd|sdf|30|dock4
  -GOLD-   2262015143D 1   1.00000     0.00000
 Structure written by MMmdl.
 34 36  0  0  0  0  0  0  0  0  2 V2000
  152.6348  139.2408  157.8491 C   0  0  0  0  0  0  0  0  0  0  0  0
  151.6975  140.0662  157.1004 N   0  0  0  0  0  0  0  0  0  0  0  0
  151.6360  141.4926  157.4279 C   0  0  0  0  0  0  0  0  0  0  0  0
  151.6050  141.7431  158.9354 C   0  0  1  0  0  0  0  0  0  0  0  0
  152.8730  141.5485  159.7813 C   0  0  0  0  0  0  0  0  0  0  0  0
  152.4891  142.7825  160.6032 C   0  0  2  0  0  0  0  0  0  0  0  0
  151.8874  142.5557  161.8594 O   0  0  0  0  0  0  0  0  0  0  0  0
  151.5632  143.1881  159.4521 C   0  0  0  0  0  0  0  0  0  0  0  0
  151.0990  139.5619  155.9187 C   0  0  0  0  0  0  0  0  0  0  0  0
  151.5994  138.4021  155.4077 N   0  0  0  0  0  0  0  0  0  0  0  0
  151.1220  137.8219  154.2992 C   0  0  0  0  0  0  0  0  0  0  0  0
  150.1120  138.3376  153.5958 N   0  3  0  0  0  0  0  0  0  0  0  0
  149.5796  139.4967  154.0555 C   0  0  0  0  0  0  0  0  0  0  0  0
  148.5429  140.2279  153.5157 N   0  0  0  0  0  0  0  0  0  0  0  0
  148.3067  141.3512  154.2857 C   0  0  0  0  0  0  0  0  0  0  0  0
  149.1880  141.3640  155.3370 C   0  0  0  0  0  0  0  0  0  0  0  0
  150.0168  140.1856  155.2198 C   0  0  0  0  0  0  0  0  0  0  0  0
  150.7837  141.1996  159.4069 H   0  0  0  0  0  0  0  0  0  0  0  0
  153.3212  143.4768  160.7248 H   0  0  0  0  0  0  0  0  0  0  0  0
  148.0148  140.0054  152.6835 H   0  0  0  0  0  0  0  0  0  0  0  0
  152.1212  138.3911  158.2988 H   0  0  0  0  0  0  0  0  0  0  0  0
  153.0956  139.8087  158.6581 H   0  0  0  0  0  0  0  0  0  0  0  0
  153.4364  138.8805  157.2038 H   0  0  0  0  0  0  0  0  0  0  0  0
  152.4466  142.0493  156.9578 H   0  0  0  0  0  0  0  0  0  0  0  0
  150.7289  141.8954  156.9762 H   0  0  0  0  0  0  0  0  0  0  0  0
  152.8971  140.6115  160.3387 H   0  0  0  0  0  0  0  0  0  0  0  0
  153.7946  141.7009  159.2179 H   0  0  0  0  0  0  0  0  0  0  0  0
  152.5611  142.6649  162.5132 H   0  0  0  0  0  0  0  0  0  0  0  0
  152.0321  143.8992  158.7699 H   0  0  0  0  0  0  0  0  0  0  0  0
  150.5718  143.5250  159.7576 H   0  0  0  0  0  0  0  0  0  0  0  0
  151.5514  136.8999  153.9353 H   0  0  0  0  0  0  0  0  0  0  0  0
  147.5288  142.0537  154.0227 H   0  0  0  0  0  0  0  0  0  0  0  0
  149.2406  142.1211  156.1041 H   0  0  0  0  0  0  0  0  0  0  0  0
  149.7548  137.8896  152.7520 H   0  0  0  0  0  0  0  0  0  0  0  0
  1  2  1  0  0  0  0
  1 21  1  0  0  0  0
  1 22  1  0  0  0  0
  1 23  1  0  0  0  0
  2  3  1  0  0  0  0
  2  9  1  0  0  0  0
  3  4  1  0  0  0  0
  3 24  1  0  0  0  0
  3 25  1  0  0  0  0
  4 18  1  0  0  0  0
  4  8  1  0  0  0  0
  4  5  1  0  0  0  0
  5  6  1  0  0  0  0
  5 26  1  0  0  0  0
  5 27  1  0  0  0  0
  6 19  1  0  0  0  0
  6  7  1  0  0  0  0
  6  8  1  0  0  0  0
  7 28  1  0  0  0  0
  8 29  1  0  0  0  0
  8 30  1  0  0  0  0
  9 17  1  0  0  0  0
  9 10  2  0  0  0  0
 10 11  1  0  0  0  0
 11 12  2  0  0  0  0
 11 31  1  0  0  0  0
 12 13  1  0  0  0  0
 12 34  1  0  0  0  0
 13 17  2  0  0  0  0
 13 14  1  0  0  0  0
 14 20  1  0  0  0  0
 14 15  1  0  0  0  0
 15 16  2  0  0  0  0
 15 32  1  0  0  0  0
 16 17  1  0  0  0  0
 16 33  1  0  0  0  0
M  CHG  1  12   1
M  END
> <s_m_source_file>
AV-unprocessed.smi

> <i_m_source_file_index>
3

> <i_lp_mmshare_version>
43012

> <i_f3d_flags>
0

> <s_epik_input>
W25IXTFbY0hdW2NIXWMoYzEyKWMobltjSF1uMilOKFtDSDNdKVtDSDJdW0NASF0zW0NIMl1bQ0BASF0oW09IXSlbQ0gyXTM=

> <s_epik_cmdline>
J2VwaWtfcHl0aG9uJywgJy1waCcsICc3LjAnLCAnLXRuJywgJzgnLCAnLW1hJywgJzIwMCcsICctbWV0YWxfYmluZGluZycsICctaW1hZScsICc8aW5maWxlLm1hZT4nLCAnLW9tYWUnLCAnPG91dGZpbGUubWFlPic=

> <r_lp_tautomer_probability>
1.75997e-05

> <r_epik_Ionization_Penalty>
2.28439

> <r_epik_Ionization_Penalty_Charging>
2.28438

> <r_epik_Ionization_Penalty_Neutral>
1.03791e-05

> <r_epik_State_Penalty>
2.43392

> <r_epik_Charging_Adjusted_Penalty>
4.7183

> <i_epik_Tot_Q>
1

> <i_epik_Tot_abs_Q>
1

> <r_epik_Metal_State_Penalty>
2.4464

> <b_epik_Metal_Only>
0

> <s_lp_Force_Field>
OPLS_2005

> <r_lp_Energy>
18.3307

> <b_lp_Chiralities_Consistent>
1

> <s_lp_Variant>
AV-unprocessed.smi:3-4

> <Gold.Version>
5.8.1

> <Gold.Id.Protein>
6NUR|6NUR_protein|mol2

> <Gold.PLP.Fitness>
46.2406

> <Gold.PLP.PLP>
-36.7670

> <Gold.PLP.part.hbond>
-4.5288

> <Gold.PLP.part.metal>
0.0000

> <Gold.PLP.part.buried>
-4.5849

> <Gold.PLP.part.nonpolar>
-29.3689

> <Gold.PLP.part.repulsive>
0.2325

> <Gold.PLP.ligand.clash>
0.0000

> <Gold.PLP.ligand.torsion>
0.4783

> <Gold.PLP.Chemscore.Hbond>
2.8499

> <Gold.PLP.Chemscore.CHOScore>
0.5625

> <Gold.PLP.Chemscore.Metal>
0.0000

> <Gold.Chemscore.Hbonds>
donor molecule, donor type, donor heavy atom, donor atom, acceptor molecule, acceptor atom, score
      L1  H    12    34       P1  7948  1.98
      L1  H    14    20       P1  7957  0.02
      P1  H  6933  6945       L1     7  0.80
      L1  C    11    31       P1  7949  0.64

> <Gold.PLP.Chemscore.Internal.Correction>
0.1928

> <Gold.Rescore>
     Score         DG    S(hbond)    S(metal)    S(lipo)     H(rot)  DE(clash)    DE(int)     intcor
     14.39     -14.84       1.71        0.00      71.89       1.86       0.15       0.29       ----

> <Gold.Chemscore.Fitness>
14.3911

> <Gold.Chemscore.DG>
-14.8360

> <Gold.Chemscore.ZeroCoef>
-5.4800

> <Gold.Chemscore.Hbond>
1.7119

> <Gold.Chemscore.Metal>
0.0000

> <Gold.Chemscore.Lipo>
71.8916

> <Gold.Chemscore.Internal_Hbond>
0.0000

> <Gold.Chemscore.DEClash>
0.1516

> <Gold.Chemscore.DEInternal>
0.2934

> <Gold.Chemscore.Rot>
1.8645

> <Gold.Chemscore.Internal.Correction>
   9.000000E+99

> <Gold.Chemscore.Hbonds>
donor molecule, donor type, donor heavy atom, donor atom, acceptor molecule, acceptor atom, score
      L1  H    12    34       P1  7948  0.41
      L1  H    14    20       P1  7957  0.05
      P1  H  6933  6945       L1     7  0.75

> <Gold.Chemscore.Hbond.Weighted>
-5.7177

> <Gold.Chemscore.Metal.Weighted>
-0.0000

> <Gold.Chemscore.Lipo.Weighted>
-8.4113

> <Gold.Chemscore.Internal_Hbond.Weighted>
0.0000

> <Gold.Chemscore.DEClash.Weighted>
0.1516

> <Gold.Chemscore.DEInternal.Weighted>
0.2934

> <Gold.Chemscore.Rot.Weighted>
4.7730

> <Gold.Chemscore.Internal.Correction.Weighted>
   9.000000E+99

> <Gold.Protein.RotatedTorsions>
[ 6907 6896 6895 6894 ] final -166.37 input  -60.11 | X-H torsion
[ 7974 7965 7964 7962 ] final  -34.84 input  175.53 | X-H torsion
[ 8008 7997 7996 7995 ] final   19.39 input   59.86 | X-H torsion
[ 10167 10162 10161 10158 ] final -138.03 input  -65.29 | X-H torsion
[ 10718 10713 10712 10709 ] final  -93.70 input   66.30 | X-H torsion
[ 10763 10752 10751 10750 ] final   50.85 input  -60.55 | X-H torsion
[ 11005 11000 10999 10996 ] final   55.31 input  -57.11 | X-H torsion

> <Gold.Protein.ActiveResidues>
 VAL166  LYS551  ARG553  GLY616  TRP617  ASP618  TYR619  PRO620  LYS621  CYS622 
 ASP623  PHE694  ASN695  SER759  ASP760  ASP761  ALA762  ILE779  LEU786  VAL792 
 PHE793  MET794  SER795  GLU796  ALA797  LYS798  CYS799  TRP800  GLU811  SER814 

> <Gold.Protein.RotatedAtoms>
  151.4425  133.3639  159.2783 H   0  0  0  0  0  0  0  0  0  0  0  0  # atno 6907 bound_to 6896
  150.9147  134.8566  159.7460 H   0  0  0  0  0  0  0  0  0  0  0  0  # atno 6908 bound_to 6896
  152.4951  134.4358  159.9579 H   0  0  0  0  0  0  0  0  0  0  0  0  # atno 6909 bound_to 6896
  146.0796  140.6088  142.8914 H   0  0  0  0  0  0  0  0  0  0  0  0  # atno 7974 bound_to 7965
  154.9200  140.3026  155.5221 H   0  0  0  0  0  0  0  0  0  0  0  0  # atno 8008 bound_to 7997
  156.3010  140.2373  156.4185 H   0  0  0  0  0  0  0  0  0  0  0  0  # atno 8009 bound_to 7997
  154.8340  140.0417  157.1485 H   0  0  0  0  0  0  0  0  0  0  0  0  # atno 8010 bound_to 7997
  139.8519  143.7188  152.2657 H   0  0  0  0  0  0  0  0  0  0  0  0  # atno 10167 bound_to 10162
  156.0017  130.5038  150.5816 H   0  0  0  0  0  0  0  0  0  0  0  0  # atno 10718 bound_to 10713
  152.9784  135.5865  154.4319 H   0  0  0  0  0  0  0  0  0  0  0  0  # atno 10763 bound_to 10752
  154.3931  135.2768  155.2145 H   0  0  0  0  0  0  0  0  0  0  0  0  # atno 10764 bound_to 10752
  154.4008  135.6104  153.5950 H   0  0  0  0  0  0  0  0  0  0  0  0  # atno 10765 bound_to 10752
  140.0617  134.5593  155.9144 H   0  0  0  0  0  0  0  0  0  0  0  0  # atno 11005 bound_to 11000
  144.7284  140.4597  143.6956 LP  0  0  0  0  0  0  0  0  0  0  0  0  # atno 17320 bound_to 7965
  145.6243  139.1528  143.3005 LP  0  0  0  0  0  0  0  0  0  0  0  0  # atno 17321 bound_to 7965
  139.7457  144.7548  151.0583 LP  0  0  0  0  0  0  0  0  0  0  0  0  # atno 17342 bound_to 10162
  140.7786  143.4919  150.9882 LP  0  0  0  0  0  0  0  0  0  0  0  0  # atno 17343 bound_to 10162
  157.3695  131.0763  151.1569 LP  0  0  0  0  0  0  0  0  0  0  0  0  # atno 17370 bound_to 10713
  157.2327  130.6533  149.5856 LP  0  0  0  0  0  0  0  0  0  0  0  0  # atno 17371 bound_to 10713
  141.1976  133.6597  156.5749 LP  0  0  0  0  0  0  0  0  0  0  0  0  # atno 17394 bound_to 11000
  140.3760  134.7565  157.4630 LP  0  0  0  0  0  0  0  0  0  0  0  0  # atno 17395 bound_to 11000

$$$$
