AV-unprocessed.smi:1273|AV-procd|sdf|5339|dock2
  -GOLD-   22720 4473D 1   1.00000     0.00000
 Structure written by MMmdl.
 40 41  0  0  0  0  0  0  0  0  1 V2000
  155.0823  141.0252  167.4181 C   0  0  0  0  0  0  0  0  0  0  0  0
  156.1302  141.7696  166.5745 C   0  0  1  0  0  0  0  0  0  0  0  0
  155.7456  141.8010  165.0889 C   0  0  0  0  0  0  0  0  0  0  0  0
  156.4823  141.2782  164.2526 O   0  0  0  0  0  0  0  0  0  0  0  0
  154.5786  142.4061  164.7986 N   0  0  0  0  0  0  0  0  0  0  0  0
  153.9841  142.5993  163.5237 C   0  0  0  0  0  0  0  0  0  0  0  0
  154.2710  141.6697  162.5057 C   0  0  0  0  0  0  0  0  0  0  0  0
  153.6724  141.8275  161.2414 C   0  0  0  0  0  0  0  0  0  0  0  0
  152.7880  142.9112  161.0270 C   0  0  0  0  0  0  0  0  0  0  0  0
  152.1747  143.0905  159.7679 N   0  0  0  0  0  0  0  0  0  0  0  0
  151.6054  141.8878  159.1646 C   0  0  0  0  0  0  0  0  0  0  0  0
  150.7152  142.2585  157.9655 C   0  0  0  0  0  0  0  0  0  0  0  0
  151.4550  143.0465  157.0390 O   0  0  0  0  0  0  0  0  0  0  0  0
  151.9005  144.2671  157.6204 C   0  0  0  0  0  0  0  0  0  0  0  0
  152.8376  143.9650  158.8018 C   0  0  0  0  0  0  0  0  0  0  0  0
  152.4957  143.7922  162.0151 N   0  0  0  0  0  0  0  0  0  0  0  0
  153.0747  143.6404  163.2245 C   0  0  0  0  0  0  0  0  0  0  0  0
  156.3461  143.4960  167.2163 S   0  0  0  0  0  0  0  0  0  0  0  0
  155.1328  143.5837  168.6002 C   0  0  0  0  0  0  0  0  0  0  0  0
  157.6961  143.6309  167.7851 O   0  0  0  0  0  0  0  0  0  0  0  0
  155.9108  144.4290  166.1657 O   0  0  0  0  0  0  0  0  0  0  0  0
  154.9021  140.0210  167.0326 H   0  0  0  0  0  0  0  0  0  0  0  0
  154.1292  141.5554  167.4325 H   0  0  0  0  0  0  0  0  0  0  0  0
  155.4168  140.9241  168.4507 H   0  0  0  0  0  0  0  0  0  0  0  0
  157.0890  141.2622  166.6878 H   0  0  0  0  0  0  0  0  0  0  0  0
  154.0244  142.7083  165.5864 H   0  0  0  0  0  0  0  0  0  0  0  0
  154.9431  140.8436  162.6871 H   0  0  0  0  0  0  0  0  0  0  0  0
  153.8840  141.1108  160.4620 H   0  0  0  0  0  0  0  0  0  0  0  0
  152.4197  141.2401  158.8374 H   0  0  0  0  0  0  0  0  0  0  0  0
  151.0149  141.3175  159.8800 H   0  0  0  0  0  0  0  0  0  0  0  0
  150.3671  141.3555  157.4639 H   0  0  0  0  0  0  0  0  0  0  0  0
  149.8278  142.8021  158.2939 H   0  0  0  0  0  0  0  0  0  0  0  0
  152.4262  144.8502  156.8643 H   0  0  0  0  0  0  0  0  0  0  0  0
  151.0451  144.8624  157.9444 H   0  0  0  0  0  0  0  0  0  0  0  0
  153.1307  144.9016  159.2780 H   0  0  0  0  0  0  0  0  0  0  0  0
  153.7474  143.4824  158.4420 H   0  0  0  0  0  0  0  0  0  0  0  0
  152.7723  144.3640  163.9654 H   0  0  0  0  0  0  0  0  0  0  0  0
  155.1124  144.5996  168.9942 H   0  0  0  0  0  0  0  0  0  0  0  0
  155.4264  142.9008  169.3969 H   0  0  0  0  0  0  0  0  0  0  0  0
  154.1406  143.3191  168.2360 H   0  0  0  0  0  0  0  0  0  0  0  0
  1  2  1  0  0  0  0
  1 22  1  0  0  0  0
  1 23  1  0  0  0  0
  1 24  1  0  0  0  0
  2  3  1  0  0  0  0
  2 18  1  0  0  0  0
  2 25  1  0  0  0  0
  3  4  2  0  0  0  0
  3  5  1  0  0  0  0
  5  6  1  0  0  0  0
  5 26  1  0  0  0  0
  6 17  1  0  0  0  0
  6  7  2  0  0  0  0
  7  8  1  0  0  0  0
  7 27  1  0  0  0  0
  8  9  2  0  0  0  0
  8 28  1  0  0  0  0
  9 10  1  0  0  0  0
  9 16  1  0  0  0  0
 10 15  1  0  0  0  0
 10 11  1  0  0  0  0
 11 12  1  0  0  0  0
 11 29  1  0  0  0  0
 11 30  1  0  0  0  0
 12 13  1  0  0  0  0
 12 31  1  0  0  0  0
 12 32  1  0  0  0  0
 13 14  1  0  0  0  0
 14 15  1  0  0  0  0
 14 33  1  0  0  0  0
 14 34  1  0  0  0  0
 15 35  1  0  0  0  0
 15 36  1  0  0  0  0
 16 17  2  0  0  0  0
 17 37  1  0  0  0  0
 18 19  1  0  0  0  0
 18 20  2  0  0  0  0
 18 21  2  0  0  0  0
 19 38  1  0  0  0  0
 19 39  1  0  0  0  0
 19 40  1  0  0  0  0
M  END
> <s_m_source_file>
AV-unprocessed.smi

> <i_m_source_file_index>
1273

> <i_lp_mmshare_version>
43012

> <i_f3d_flags>
0

> <s_epik_input>
W0NIM11TKD1PKSg9TylbQ0BIXShbQ0gzXSlDKD1PKVtOSF1jMVtjSF1bY0hdYyhuW2NIXTEpTjJbQ0gyXVtDSDJdT1tDSDJdW0NIMl0y

> <s_epik_cmdline>
J2VwaWtfcHl0aG9uJywgJy1waCcsICc3LjAnLCAnLXRuJywgJzgnLCAnLW1hJywgJzIwMCcsICctbWV0YWxfYmluZGluZycsICctaW1hZScsICc8aW5maWxlLm1hZT4nLCAnLW9tYWUnLCAnPG91dGZpbGUubWFlPic=

> <r_lp_tautomer_probability>
1

> <r_epik_Ionization_Penalty>
0.000253983

> <r_epik_Ionization_Penalty_Charging>
0

> <r_epik_Ionization_Penalty_Neutral>
0.000253983

> <r_epik_State_Penalty>
-0

> <r_epik_Charging_Adjusted_Penalty>
0

> <i_epik_Tot_Q>
0

> <i_epik_Tot_abs_Q>
0

> <r_epik_Metal_State_Penalty>
-0

> <b_epik_Metal_Only>
0

> <s_lp_Force_Field>
OPLS_2005

> <r_lp_Energy>
19.0029

> <b_lp_Chiralities_Consistent>
1

> <s_lp_Variant>
AV-unprocessed.smi:1273-2

> <Gold.Version>
5.8.1

> <Gold.Id.Protein>
6NUR|6NUR_protein|mol2

> <Gold.PLP.Fitness>
41.8617

> <Gold.PLP.PLP>
-42.8440

> <Gold.PLP.part.hbond>
-2.0000

> <Gold.PLP.part.metal>
0.0000

> <Gold.PLP.part.buried>
-2.5440

> <Gold.PLP.part.nonpolar>
-35.8869

> <Gold.PLP.part.repulsive>
0.4218

> <Gold.PLP.ligand.clash>
0.0000

> <Gold.PLP.ligand.torsion>
0.7612

> <Gold.PLP.Chemscore.Hbond>
0.0000

> <Gold.PLP.Chemscore.CHOScore>
0.0000

> <Gold.PLP.Chemscore.Metal>
0.0000

> <Gold.PLP.Chemscore.Internal.Correction>
0.5401

> <Gold.Rescore>
     Score         DG    S(hbond)    S(metal)    S(lipo)     H(rot)  DE(clash)    DE(int)     intcor
      9.73     -13.77       0.00        0.00     105.00       1.56       1.70       2.34       ----

> <Gold.Chemscore.Fitness>
9.7316

> <Gold.Chemscore.DG>
-13.7652

> <Gold.Chemscore.ZeroCoef>
-5.4800

> <Gold.Chemscore.Hbond>
0.0000

> <Gold.Chemscore.Metal>
0.0000

> <Gold.Chemscore.Lipo>
104.9983

> <Gold.Chemscore.Internal_Hbond>
0.0000

> <Gold.Chemscore.DEClash>
1.6964

> <Gold.Chemscore.DEInternal>
2.3371

> <Gold.Chemscore.Rot>
1.5624

> <Gold.Chemscore.Internal.Correction>
   9.000000E+99

> <Gold.Chemscore.Hbond.Weighted>
-0.0000

> <Gold.Chemscore.Metal.Weighted>
-0.0000

> <Gold.Chemscore.Lipo.Weighted>
-12.2848

> <Gold.Chemscore.Internal_Hbond.Weighted>
0.0000

> <Gold.Chemscore.DEClash.Weighted>
1.6964

> <Gold.Chemscore.DEInternal.Weighted>
2.3371

> <Gold.Chemscore.Rot.Weighted>
3.9996

> <Gold.Chemscore.Internal.Correction.Weighted>
   9.000000E+99

> <Gold.Protein.RotatedTorsions>
[ 6907 6896 6895 6894 ] final   94.13 input  -60.11 | X-H torsion
[ 7974 7965 7964 7962 ] final  -65.22 input  175.53 | X-H torsion
[ 8008 7997 7996 7995 ] final -145.83 input   59.86 | X-H torsion
[ 10167 10162 10161 10158 ] final -108.68 input  -65.29 | X-H torsion
[ 10718 10713 10712 10709 ] final  -27.57 input   66.30 | X-H torsion
[ 10763 10752 10751 10750 ] final   -1.32 input  -60.55 | X-H torsion
[ 11005 11000 10999 10996 ] final -126.95 input  -57.11 | X-H torsion

> <Gold.Protein.ActiveResidues>
 VAL166  LYS551  ARG553  GLY616  TRP617  ASP618  TYR619  PRO620  LYS621  CYS622 
 ASP623  PHE694  ASN695  SER759  ASP760  ASP761  ALA762  ILE779  LEU786  VAL792 
 PHE793  MET794  SER795  GLU796  ALA797  LYS798  CYS799  TRP800  GLU811  SER814 

> <Gold.Protein.RotatedAtoms>
  152.5450  134.1240  159.8410 H   0  0  0  0  0  0  0  0  0  0  0  0  # atno 6907 bound_to 6896
  151.1293  133.5041  159.2607 H   0  0  0  0  0  0  0  0  0  0  0  0  # atno 6908 bound_to 6896
  151.1693  135.0320  159.8799 H   0  0  0  0  0  0  0  0  0  0  0  0  # atno 6909 bound_to 6896
  145.7570  140.8880  143.0450 H   0  0  0  0  0  0  0  0  0  0  0  0  # atno 7974 bound_to 7965
  155.5495  140.0615  157.2853 H   0  0  0  0  0  0  0  0  0  0  0  0  # atno 8008 bound_to 7997
  154.4425  140.1905  156.0717 H   0  0  0  0  0  0  0  0  0  0  0  0  # atno 8009 bound_to 7997
  156.0526  140.3282  155.7372 H   0  0  0  0  0  0  0  0  0  0  0  0  # atno 8010 bound_to 7997
  140.1635  143.4100  152.1408 H   0  0  0  0  0  0  0  0  0  0  0  0  # atno 10167 bound_to 10162
  156.4365  130.4455  149.7082 H   0  0  0  0  0  0  0  0  0  0  0  0  # atno 10718 bound_to 10713
  153.3434  135.6982  153.6848 H   0  0  0  0  0  0  0  0  0  0  0  0  # atno 10763 bound_to 10752
  153.5604  135.3536  155.2797 H   0  0  0  0  0  0  0  0  0  0  0  0  # atno 10764 bound_to 10752
  154.8640  135.4248  154.2652 H   0  0  0  0  0  0  0  0  0  0  0  0  # atno 10765 bound_to 10752
  140.9640  134.0898  157.3939 H   0  0  0  0  0  0  0  0  0  0  0  0  # atno 11005 bound_to 11000
  144.6838  139.9670  143.7481 LP  0  0  0  0  0  0  0  0  0  0  0  0  # atno 17320 bound_to 7965
  146.0301  139.3327  143.0760 LP  0  0  0  0  0  0  0  0  0  0  0  0  # atno 17321 bound_to 7965
  139.5370  144.7219  151.4860 LP  0  0  0  0  0  0  0  0  0  0  0  0  # atno 17342 bound_to 10162
  140.6628  143.8463  150.6907 LP  0  0  0  0  0  0  0  0  0  0  0  0  # atno 17343 bound_to 10162
  156.3963  130.7652  151.2657 LP  0  0  0  0  0  0  0  0  0  0  0  0  # atno 17370 bound_to 10713
  157.7507  131.0253  150.3912 LP  0  0  0  0  0  0  0  0  0  0  0  0  # atno 17371 bound_to 10713
  139.8888  135.0100  156.6641 LP  0  0  0  0  0  0  0  0  0  0  0  0  # atno 17394 bound_to 11000
  140.7427  133.8964  155.8289 LP  0  0  0  0  0  0  0  0  0  0  0  0  # atno 17395 bound_to 11000

$$$$
