AV-unprocessed.smi:1244|AV-procd|sdf|5224|dock5
  -GOLD-   22720 4323D 1   1.00000     0.00000
 Structure written by MMmdl.
 55 57  0  0  0  0  0  0  0  0  2 V2000
  155.4612  138.4583  165.2501 C   0  0  0  0  0  0  0  0  0  0  0  0
  156.1430  137.3806  164.3884 C   0  0  2  0  0  0  0  0  0  0  0  0
  156.0644  137.6614  162.8746 C   0  0  0  0  0  0  0  0  0  0  0  0
  154.6993  137.4139  162.3526 N   0  3  1  0  0  0  0  0  0  0  0  0
  154.5775  137.7452  160.9110 C   0  0  0  0  0  0  0  0  0  0  0  0
  155.1756  139.1242  160.5714 C   0  0  0  0  0  0  0  0  0  0  0  0
  154.2435  139.9382  159.8003 N   0  0  0  0  0  0  0  0  0  0  0  0
  153.7243  141.1025  160.2143 C   0  0  0  0  0  0  0  0  0  0  0  0
  154.0008  141.6210  161.2962 O   0  0  0  0  0  0  0  0  0  0  0  0
  152.8956  141.6228  159.2943 N   0  0  0  0  0  0  0  0  0  0  0  0
  152.1832  142.8539  159.3542 C   0  0  0  0  0  0  0  0  0  0  0  0
  152.6304  143.9288  160.1610 C   0  0  0  0  0  0  0  0  0  0  0  0
  151.8568  145.0991  160.2426 C   0  0  0  0  0  0  0  0  0  0  0  0
  150.6499  145.1487  159.5257 C   0  0  0  0  0  0  0  0  0  0  0  0
  150.2032  144.1298  158.7647 N   0  0  0  0  0  0  0  0  0  0  0  0
  150.9454  142.9995  158.6644 C   0  0  0  0  0  0  0  0  0  0  0  0
  150.4360  141.9711  157.8390 N   0  0  0  0  0  0  0  0  0  0  0  0
  149.0519  142.0101  157.3785 C   0  0  0  0  0  0  0  0  0  0  0  0
  148.9884  141.0010  156.2361 C   0  0  0  0  0  0  0  0  0  0  0  0
  150.3570  141.1646  155.5822 C   0  0  0  0  0  0  0  0  0  0  0  0
  151.2868  141.4799  156.7586 C   0  0  0  0  0  0  0  0  0  0  0  0
  154.2636  136.0373  162.6894 C   0  0  0  0  0  0  0  0  0  0  0  0
  154.3294  135.8126  164.2110 C   0  0  1  0  0  0  0  0  0  0  0  0
  153.9659  134.3743  164.5961 C   0  0  0  0  0  0  0  0  0  0  0  0
  155.6530  136.0701  164.6726 O   0  0  0  0  0  0  0  0  0  0  0  0
  155.9456  139.4254  165.1123 H   0  0  0  0  0  0  0  0  0  0  0  0
  155.5256  138.2071  166.3090 H   0  0  0  0  0  0  0  0  0  0  0  0
  154.4086  138.5860  164.9996 H   0  0  0  0  0  0  0  0  0  0  0  0
  157.1966  137.3755  164.6695 H   0  0  0  0  0  0  0  0  0  0  0  0
  156.3659  138.6902  162.6731 H   0  0  0  0  0  0  0  0  0  0  0  0
  156.7682  137.0172  162.3449 H   0  0  0  0  0  0  0  0  0  0  0  0
  155.1084  136.9864  160.3342 H   0  0  0  0  0  0  0  0  0  0  0  0
  153.5318  137.6897  160.6039 H   0  0  0  0  0  0  0  0  0  0  0  0
  155.4117  139.6791  161.4785 H   0  0  0  0  0  0  0  0  0  0  0  0
  156.1126  139.0110  160.0231 H   0  0  0  0  0  0  0  0  0  0  0  0
  153.9651  139.5855  158.8959 H   0  0  0  0  0  0  0  0  0  0  0  0
  152.8418  141.1358  158.4115 H   0  0  0  0  0  0  0  0  0  0  0  0
  153.5413  143.8658  160.7363 H   0  0  0  0  0  0  0  0  0  0  0  0
  152.1750  145.9327  160.8510 H   0  0  0  0  0  0  0  0  0  0  0  0
  150.0228  146.0268  159.5692 H   0  0  0  0  0  0  0  0  0  0  0  0
  148.3579  141.7584  158.1811 H   0  0  0  0  0  0  0  0  0  0  0  0
  148.7959  143.0008  157.0004 H   0  0  0  0  0  0  0  0  0  0  0  0
  148.8833  139.9909  156.6345 H   0  0  0  0  0  0  0  0  0  0  0  0
  148.1606  141.1855  155.5508 H   0  0  0  0  0  0  0  0  0  0  0  0
  150.6691  140.2843  155.0200 H   0  0  0  0  0  0  0  0  0  0  0  0
  150.3348  142.0115  154.8953 H   0  0  0  0  0  0  0  0  0  0  0  0
  152.0529  142.2038  156.4767 H   0  0  0  0  0  0  0  0  0  0  0  0
  151.7869  140.5695  157.0903 H   0  0  0  0  0  0  0  0  0  0  0  0
  153.2431  135.8664  162.3488 H   0  0  0  0  0  0  0  0  0  0  0  0
  154.8982  135.3162  162.1713 H   0  0  0  0  0  0  0  0  0  0  0  0
  153.6280  136.4815  164.7101 H   0  0  0  0  0  0  0  0  0  0  0  0
  152.9555  134.1244  164.2721 H   0  0  0  0  0  0  0  0  0  0  0  0
  154.0106  134.2373  165.6769 H   0  0  0  0  0  0  0  0  0  0  0  0
  154.6504  133.6577  164.1412 H   0  0  0  0  0  0  0  0  0  0  0  0
  154.0880  138.0487  162.8462 H   0  0  0  0  0  0  0  0  0  0  0  0
  1  2  1  0  0  0  0
  1 26  1  0  0  0  0
  1 27  1  0  0  0  0
  1 28  1  0  0  0  0
  2 25  1  0  0  0  0
  2  3  1  0  0  0  0
  2 29  1  0  0  0  0
  3  4  1  0  0  0  0
  3 30  1  0  0  0  0
  3 31  1  0  0  0  0
  4  5  1  0  0  0  0
  4 22  1  0  0  0  0
  4 55  1  0  0  0  0
  5  6  1  0  0  0  0
  5 32  1  0  0  0  0
  5 33  1  0  0  0  0
  6  7  1  0  0  0  0
  6 34  1  0  0  0  0
  6 35  1  0  0  0  0
  7  8  1  0  0  0  0
  7 36  1  0  0  0  0
  8  9  2  0  0  0  0
  8 10  1  0  0  0  0
 10 11  1  0  0  0  0
 10 37  1  0  0  0  0
 11 16  1  0  0  0  0
 11 12  2  0  0  0  0
 12 13  1  0  0  0  0
 12 38  1  0  0  0  0
 13 14  2  0  0  0  0
 13 39  1  0  0  0  0
 14 15  1  0  0  0  0
 14 40  1  0  0  0  0
 15 16  2  0  0  0  0
 16 17  1  0  0  0  0
 17 21  1  0  0  0  0
 17 18  1  0  0  0  0
 18 19  1  0  0  0  0
 18 41  1  0  0  0  0
 18 42  1  0  0  0  0
 19 20  1  0  0  0  0
 19 43  1  0  0  0  0
 19 44  1  0  0  0  0
 20 21  1  0  0  0  0
 20 45  1  0  0  0  0
 20 46  1  0  0  0  0
 21 47  1  0  0  0  0
 21 48  1  0  0  0  0
 22 23  1  0  0  0  0
 22 49  1  0  0  0  0
 22 50  1  0  0  0  0
 23 24  1  0  0  0  0
 23 25  1  0  0  0  0
 23 51  1  0  0  0  0
 24 52  1  0  0  0  0
 24 53  1  0  0  0  0
 24 54  1  0  0  0  0
M  CHG  1   4   1
M  END
> <s_m_source_file>
AV-unprocessed.smi

> <i_m_source_file_index>
1244

> <i_lp_mmshare_version>
43012

> <i_f3d_flags>
0

> <s_epik_input>
W0NIM11bQ0BASF0xW0NIMl1OKFtDSDJdW0NASF0oTzEpW0NIM10pW0NIMl1bQ0gyXVtOSF1DKD1PKVtOSF1jMltjSF1bY0hdW2NIXW5jMk4zW0NIMl1bQ0gyXVtDSDJdW0NIMl0z

> <s_epik_cmdline>
J2VwaWtfcHl0aG9uJywgJy1waCcsICc3LjAnLCAnLXRuJywgJzgnLCAnLW1hJywgJzIwMCcsICctbWV0YWxfYmluZGluZycsICctaW1hZScsICc8aW5maWxlLm1hZT4nLCAnLW9tYWUnLCAnPG91dGZpbGUubWFlPic=

> <r_lp_tautomer_probability>
1

> <r_epik_Ionization_Penalty>
0.684913

> <r_epik_Ionization_Penalty_Charging>
0.602531

> <r_epik_Ionization_Penalty_Neutral>
0.0823829

> <r_epik_State_Penalty>
0.678827

> <r_epik_Charging_Adjusted_Penalty>
1.28136

> <i_epik_Tot_Q>
1

> <i_epik_Tot_abs_Q>
1

> <r_epik_Metal_State_Penalty>
0.67806

> <b_epik_Metal_Only>
0

> <s_lp_Force_Field>
OPLS_2005

> <r_lp_Energy>
45.4431

> <b_lp_Chiralities_Consistent>
1

> <s_lp_Variant>
AV-unprocessed.smi:1244-4

> <Gold.Version>
5.8.1

> <Gold.Id.Protein>
6NUR|6NUR_protein|mol2

> <Gold.PLP.Fitness>
42.4633

> <Gold.PLP.PLP>
-43.5531

> <Gold.PLP.part.hbond>
-0.3569

> <Gold.PLP.part.metal>
0.0000

> <Gold.PLP.part.buried>
-7.5768

> <Gold.PLP.part.nonpolar>
-35.7340

> <Gold.PLP.part.repulsive>
0.5007

> <Gold.PLP.ligand.clash>
0.0000

> <Gold.PLP.ligand.torsion>
0.7294

> <Gold.PLP.Chemscore.Hbond>
0.0000

> <Gold.PLP.Chemscore.CHOScore>
0.0000

> <Gold.PLP.Chemscore.Metal>
0.0000

> <Gold.PLP.Chemscore.Internal.Correction>
0.3690

> <Gold.Rescore>
     Score         DG    S(hbond)    S(metal)    S(lipo)     H(rot)  DE(clash)    DE(int)     intcor
     12.90     -15.18       0.00        0.00     117.89       1.60       0.08       2.20       ----

> <Gold.Chemscore.Fitness>
12.8992

> <Gold.Chemscore.DG>
-15.1830

> <Gold.Chemscore.ZeroCoef>
-5.4800

> <Gold.Chemscore.Hbond>
0.0000

> <Gold.Chemscore.Metal>
0.0000

> <Gold.Chemscore.Lipo>
117.8931

> <Gold.Chemscore.Internal_Hbond>
0.0000

> <Gold.Chemscore.DEClash>
0.0820

> <Gold.Chemscore.DEInternal>
2.2018

> <Gold.Chemscore.Rot>
1.5978

> <Gold.Chemscore.Internal.Correction>
   9.000000E+99

> <Gold.Chemscore.Hbond.Weighted>
-0.0000

> <Gold.Chemscore.Metal.Weighted>
-0.0000

> <Gold.Chemscore.Lipo.Weighted>
-13.7935

> <Gold.Chemscore.Internal_Hbond.Weighted>
0.0000

> <Gold.Chemscore.DEClash.Weighted>
0.0820

> <Gold.Chemscore.DEInternal.Weighted>
2.2018

> <Gold.Chemscore.Rot.Weighted>
4.0905

> <Gold.Chemscore.Internal.Correction.Weighted>
   9.000000E+99

> <Gold.Protein.RotatedTorsions>
[ 6907 6896 6895 6894 ] final  -93.87 input  -60.11 | X-H torsion
[ 7974 7965 7964 7962 ] final  123.01 input  175.53 | X-H torsion
[ 8008 7997 7996 7995 ] final -143.99 input   59.86 | X-H torsion
[ 10167 10162 10161 10158 ] final  -55.20 input  -65.29 | X-H torsion
[ 10718 10713 10712 10709 ] final  -20.62 input   66.30 | X-H torsion
[ 10763 10752 10751 10750 ] final  109.62 input  -60.55 | X-H torsion
[ 11005 11000 10999 10996 ] final -155.78 input  -57.11 | X-H torsion

> <Gold.Protein.ActiveResidues>
 VAL166  LYS551  ARG553  GLY616  TRP617  ASP618  TYR619  PRO620  LYS621  CYS622 
 ASP623  PHE694  ASN695  SER759  ASP760  ASP761  ALA762  ILE779  LEU786  VAL792 
 PHE793  MET794  SER795  GLU796  ALA797  LYS798  CYS799  TRP800  GLU811  SER814 

> <Gold.Protein.RotatedAtoms>
  150.6930  134.1900  159.4281 H   0  0  0  0  0  0  0  0  0  0  0  0  # atno 6907 bound_to 6896
  151.9871  134.9996  160.0569 H   0  0  0  0  0  0  0  0  0  0  0  0  # atno 6908 bound_to 6896
  152.1702  133.4603  159.4942 H   0  0  0  0  0  0  0  0  0  0  0  0  # atno 6909 bound_to 6896
  145.1009  139.3519  143.4812 H   0  0  0  0  0  0  0  0  0  0  0  0  # atno 7974 bound_to 7965
  155.5196  140.0590  157.2909 H   0  0  0  0  0  0  0  0  0  0  0  0  # atno 8008 bound_to 7997
  154.4522  140.1955  156.0431 H   0  0  0  0  0  0  0  0  0  0  0  0  # atno 8009 bound_to 7997
  156.0728  140.3257  155.7601 H   0  0  0  0  0  0  0  0  0  0  0  0  # atno 8010 bound_to 7997
  140.6388  143.2496  151.5045 H   0  0  0  0  0  0  0  0  0  0  0  0  # atno 10167 bound_to 10162
  156.5293  130.4651  149.6555 H   0  0  0  0  0  0  0  0  0  0  0  0  # atno 10718 bound_to 10713
  153.4373  135.3774  155.2207 H   0  0  0  0  0  0  0  0  0  0  0  0  # atno 10763 bound_to 10752
  154.8752  135.3854  154.4195 H   0  0  0  0  0  0  0  0  0  0  0  0  # atno 10764 bound_to 10752
  153.4736  135.7087  153.6042 H   0  0  0  0  0  0  0  0  0  0  0  0  # atno 10765 bound_to 10752
  140.6827  134.4127  157.5225 H   0  0  0  0  0  0  0  0  0  0  0  0  # atno 11005 bound_to 11000
  146.3529  140.0886  142.8614 LP  0  0  0  0  0  0  0  0  0  0  0  0  # atno 17320 bound_to 7965
  145.0956  140.9313  143.4743 LP  0  0  0  0  0  0  0  0  0  0  0  0  # atno 17321 bound_to 7965
  139.5598  144.2186  152.1672 LP  0  0  0  0  0  0  0  0  0  0  0  0  # atno 17342 bound_to 10162
  140.1450  144.5167  150.6721 LP  0  0  0  0  0  0  0  0  0  0  0  0  # atno 17343 bound_to 10162
  156.3074  130.7210  151.2096 LP  0  0  0  0  0  0  0  0  0  0  0  0  # atno 17370 bound_to 10713
  157.7424  131.0490  150.5025 LP  0  0  0  0  0  0  0  0  0  0  0  0  # atno 17371 bound_to 10713
  139.8947  134.8701  156.2166 LP  0  0  0  0  0  0  0  0  0  0  0  0  # atno 17394 bound_to 11000
  141.0304  133.6991  156.1421 LP  0  0  0  0  0  0  0  0  0  0  0  0  # atno 17395 bound_to 11000

$$$$
