AV-unprocessed.smi:93|AV-procd|sdf|850|dock7
  -GOLD-   2262017293D 1   1.00000     0.00000
 Structure written by MMmdl.
 50 52  0  0  0  0  0  0  0  0  1 V2000
  144.9562  135.4579  150.5693 C   0  0  0  0  0  0  0  0  0  0  0  0
  145.1511  134.8889  151.8984 N   0  0  0  0  0  0  0  0  0  0  0  0
  144.9701  133.4460  152.1023 C   0  0  0  0  0  0  0  0  0  0  0  0
  145.9132  132.5327  151.2609 C   0  0  0  0  0  0  0  0  0  0  0  0
  147.2399  133.2564  150.9325 C   0  0  0  0  0  0  0  0  0  0  0  0
  146.2121  131.2546  152.0899 C   0  0  0  0  0  0  0  0  0  0  0  0
  147.1507  130.4034  151.4611 O   0  0  0  0  0  0  0  0  0  0  0  0
  145.2061  132.1203  149.9422 C   0  0  0  0  0  0  0  0  0  0  0  0
  143.9839  131.4442  150.1636 O   0  0  0  0  0  0  0  0  0  0  0  0
  145.4657  135.7137  152.9353 C   0  0  0  0  0  0  0  0  0  0  0  0
  145.2546  135.2755  154.2047 N   0  0  0  0  0  0  0  0  0  0  0  0
  145.5591  136.0447  155.2527 C   0  0  0  0  0  0  0  0  0  0  0  0
  146.0844  137.2698  155.2620 N   0  0  0  0  0  0  0  0  0  0  0  0
  146.3090  137.7197  153.9950 C   0  0  0  0  0  0  0  0  0  0  0  0
  146.0243  137.0196  152.7863 C   0  0  0  0  0  0  0  0  0  0  0  0
  146.3940  137.8051  151.6993 N   0  0  0  0  0  0  0  0  0  0  0  0
  146.8630  138.8992  152.2316 C   0  0  0  0  0  0  0  0  0  0  0  0
  146.8653  138.9268  153.6069 N   0  0  0  0  0  0  0  0  0  0  0  0
  147.3471  140.0053  154.4569 C   0  0  0  0  0  0  0  0  0  0  0  0
  148.8522  140.3143  154.2708 C   0  0  2  0  0  0  0  0  0  0  0  0
  149.0227  141.0995  153.1036 O   0  0  0  0  0  0  0  0  0  0  0  0
  149.7037  139.0591  154.1316 C   0  0  0  0  0  0  0  0  0  0  0  0
  151.0566  139.5128  154.6630 C   0  0  0  0  0  0  0  0  0  0  0  0
  150.7069  140.3315  155.7660 O   0  0  0  0  0  0  0  0  0  0  0  0
  149.5168  141.0501  155.4531 C   0  0  0  0  0  0  0  0  0  0  0  0
  144.3921  136.3896  150.6257 H   0  0  0  0  0  0  0  0  0  0  0  0
  144.3997  134.7753  149.9266 H   0  0  0  0  0  0  0  0  0  0  0  0
  145.9137  135.6604  150.0901 H   0  0  0  0  0  0  0  0  0  0  0  0
  145.0542  133.2033  153.1616 H   0  0  0  0  0  0  0  0  0  0  0  0
  143.9371  133.2034  151.8510 H   0  0  0  0  0  0  0  0  0  0  0  0
  147.9546  132.5845  150.4571 H   0  0  0  0  0  0  0  0  0  0  0  0
  147.7158  133.6507  151.8308 H   0  0  0  0  0  0  0  0  0  0  0  0
  147.0848  134.0918  150.2502 H   0  0  0  0  0  0  0  0  0  0  0  0
  146.5978  131.5206  153.0747 H   0  0  0  0  0  0  0  0  0  0  0  0
  145.3039  130.6747  152.2567 H   0  0  0  0  0  0  0  0  0  0  0  0
  147.7656  130.9371  150.9816 H   0  0  0  0  0  0  0  0  0  0  0  0
  145.0078  132.9962  149.3232 H   0  0  0  0  0  0  0  0  0  0  0  0
  145.8382  131.4536  149.3562 H   0  0  0  0  0  0  0  0  0  0  0  0
  143.3752  132.0473  150.5620 H   0  0  0  0  0  0  0  0  0  0  0  0
  145.3571  135.6145  156.2224 H   0  0  0  0  0  0  0  0  0  0  0  0
  147.2310  139.7170  151.6292 H   0  0  0  0  0  0  0  0  0  0  0  0
  146.7524  140.8945  154.2430 H   0  0  0  0  0  0  0  0  0  0  0  0
  147.1414  139.7438  155.4958 H   0  0  0  0  0  0  0  0  0  0  0  0
  148.9811  140.5306  152.3501 H   0  0  0  0  0  0  0  0  0  0  0  0
  149.3179  138.2662  154.7739 H   0  0  0  0  0  0  0  0  0  0  0  0
  149.7499  138.6692  153.1138 H   0  0  0  0  0  0  0  0  0  0  0  0
  151.6938  138.6814  154.9651 H   0  0  0  0  0  0  0  0  0  0  0  0
  151.5913  140.1069  153.9203 H   0  0  0  0  0  0  0  0  0  0  0  0
  149.7515  142.0892  155.2165 H   0  0  0  0  0  0  0  0  0  0  0  0
  148.8887  141.0520  156.3431 H   0  0  0  0  0  0  0  0  0  0  0  0
  1  2  1  0  0  0  0
  1 26  1  0  0  0  0
  1 27  1  0  0  0  0
  1 28  1  0  0  0  0
  2  3  1  0  0  0  0
  2 10  1  0  0  0  0
  3  4  1  0  0  0  0
  3 29  1  0  0  0  0
  3 30  1  0  0  0  0
  4  5  1  0  0  0  0
  4  6  1  0  0  0  0
  4  8  1  0  0  0  0
  5 31  1  0  0  0  0
  5 32  1  0  0  0  0
  5 33  1  0  0  0  0
  6  7  1  0  0  0  0
  6 34  1  0  0  0  0
  6 35  1  0  0  0  0
  7 36  1  0  0  0  0
  8  9  1  0  0  0  0
  8 37  1  0  0  0  0
  8 38  1  0  0  0  0
  9 39  1  0  0  0  0
 10 15  1  0  0  0  0
 10 11  2  0  0  0  0
 11 12  1  0  0  0  0
 12 13  2  0  0  0  0
 12 40  1  0  0  0  0
 13 14  1  0  0  0  0
 14 18  1  0  0  0  0
 14 15  2  0  0  0  0
 15 16  1  0  0  0  0
 16 17  2  0  0  0  0
 17 18  1  0  0  0  0
 17 41  1  0  0  0  0
 18 19  1  0  0  0  0
 19 20  1  0  0  0  0
 19 42  1  0  0  0  0
 19 43  1  0  0  0  0
 20 25  1  0  0  0  0
 20 21  1  0  0  0  0
 20 22  1  0  0  0  0
 21 44  1  0  0  0  0
 22 23  1  0  0  0  0
 22 45  1  0  0  0  0
 22 46  1  0  0  0  0
 23 24  1  0  0  0  0
 23 47  1  0  0  0  0
 23 48  1  0  0  0  0
 24 25  1  0  0  0  0
 25 49  1  0  0  0  0
 25 50  1  0  0  0  0
M  END
> <s_m_source_file>
AV-unprocessed.smi

> <i_m_source_file_index>
93

> <i_lp_mmshare_version>
43012

> <i_f3d_flags>
0

> <s_epik_input>
W09IXVtDSDJdQyhbQ0gzXSkoW0NIMl1bT0hdKVtDSDJdTihbQ0gzXSljKG5bY0hdbjEpYyhjMTIpbltjSF1uMltDSDJdW0NAQF0zKFtPSF0pW0NIMl1bQ0gyXU9bQ0gyXTM=

> <s_epik_cmdline>
J2VwaWtfcHl0aG9uJywgJy1waCcsICc3LjAnLCAnLXRuJywgJzgnLCAnLW1hJywgJzIwMCcsICctbWV0YWxfYmluZGluZycsICctaW1hZScsICc8aW5maWxlLm1hZT4nLCAnLW9tYWUnLCAnPG91dGZpbGUubWFlPic=

> <r_lp_tautomer_probability>
1

> <r_epik_Ionization_Penalty>
0.00325397

> <r_epik_Ionization_Penalty_Charging>
0

> <r_epik_Ionization_Penalty_Neutral>
0.00325397

> <r_epik_State_Penalty>
0.00225047

> <r_epik_Charging_Adjusted_Penalty>
0.00225047

> <i_epik_Tot_Q>
0

> <i_epik_Tot_abs_Q>
0

> <r_epik_Metal_State_Penalty>
-0

> <b_epik_Metal_Only>
0

> <s_lp_Force_Field>
OPLS_2005

> <r_lp_Energy>
41.2901

> <b_lp_Chiralities_Consistent>
1

> <s_lp_Variant>
AV-unprocessed.smi:93-2

> <Gold.Version>
5.8.1

> <Gold.Id.Protein>
6NUR|6NUR_protein|mol2

> <Gold.PLP.Fitness>
52.3946

> <Gold.PLP.PLP>
-41.1975

> <Gold.PLP.part.hbond>
-5.0898

> <Gold.PLP.part.metal>
0.0000

> <Gold.PLP.part.buried>
-6.9730

> <Gold.PLP.part.nonpolar>
-31.2161

> <Gold.PLP.part.repulsive>
0.7052

> <Gold.PLP.ligand.clash>
0.0000

> <Gold.PLP.ligand.torsion>
1.1071

> <Gold.PLP.Chemscore.Hbond>
3.4056

> <Gold.PLP.Chemscore.CHOScore>
0.9963

> <Gold.PLP.Chemscore.Metal>
0.0000

> <Gold.Chemscore.Hbonds>
donor molecule, donor type, donor heavy atom, donor atom, acceptor molecule, acceptor atom, score
      L1  H     7    36       P1 10747  0.56
      L1  H    21    44       P1  7957  0.70
      P1  H  8011  8017       L1    21  0.85
      P1  H 10785 10796       L1     9  0.61
      L1  C    17    41       P1  7957  0.87

> <Gold.PLP.Chemscore.Internal.Correction>
0.2054

> <Gold.Rescore>
     Score         DG    S(hbond)    S(metal)    S(lipo)     H(rot)  DE(clash)    DE(int)     intcor
      8.96     -12.34       2.74        0.00      81.13       4.60       0.85       2.53       ----

> <Gold.Chemscore.Fitness>
8.9593

> <Gold.Chemscore.DG>
-12.3354

> <Gold.Chemscore.ZeroCoef>
-5.4800

> <Gold.Chemscore.Hbond>
2.7371

> <Gold.Chemscore.Metal>
0.0000

> <Gold.Chemscore.Lipo>
81.1304

> <Gold.Chemscore.Internal_Hbond>
0.0000

> <Gold.Chemscore.DEClash>
0.8483

> <Gold.Chemscore.DEInternal>
2.5278

> <Gold.Chemscore.Rot>
4.6010

> <Gold.Chemscore.Internal.Correction>
   9.000000E+99

> <Gold.Chemscore.Hbonds>
donor molecule, donor type, donor heavy atom, donor atom, acceptor molecule, acceptor atom, score
      L1  H     7    36       P1 10747  0.54
      L1  H    21    44       P1  7957  0.67
      P1  H  8011  8017       L1    21  0.15
      P1  H 10785 10796       L1     9  0.55

> <Gold.Chemscore.Hbond.Weighted>
-9.1418

> <Gold.Chemscore.Metal.Weighted>
-0.0000

> <Gold.Chemscore.Lipo.Weighted>
-9.4923

> <Gold.Chemscore.Internal_Hbond.Weighted>
0.0000

> <Gold.Chemscore.DEClash.Weighted>
0.8483

> <Gold.Chemscore.DEInternal.Weighted>
2.5278

> <Gold.Chemscore.Rot.Weighted>
11.7787

> <Gold.Chemscore.Internal.Correction.Weighted>
   9.000000E+99

> <Gold.Protein.RotatedTorsions>
[ 6907 6896 6895 6894 ] final   79.90 input  -60.11 | X-H torsion
[ 7974 7965 7964 7962 ] final  154.42 input  175.53 | X-H torsion
[ 8008 7997 7996 7995 ] final  -29.01 input   59.86 | X-H torsion
[ 10167 10162 10161 10158 ] final  -38.90 input  -65.29 | X-H torsion
[ 10718 10713 10712 10709 ] final   51.34 input   66.30 | X-H torsion
[ 10763 10752 10751 10750 ] final  135.93 input  -60.55 | X-H torsion
[ 11005 11000 10999 10996 ] final  -93.70 input  -57.11 | X-H torsion

> <Gold.Protein.ActiveResidues>
 VAL166  LYS551  ARG553  GLY616  TRP617  ASP618  TYR619  PRO620  LYS621  CYS622 
 ASP623  PHE694  ASN695  SER759  ASP760  ASP761  ALA762  ILE779  LEU786  VAL792 
 PHE793  MET794  SER795  GLU796  ALA797  LYS798  CYS799  TRP800  GLU811  SER814 

> <Gold.Protein.RotatedAtoms>
  152.5215  134.3441  159.9227 H   0  0  0  0  0  0  0  0  0  0  0  0  # atno 6907 bound_to 6896
  151.3391  133.3963  159.2677 H   0  0  0  0  0  0  0  0  0  0  0  0  # atno 6908 bound_to 6896
  150.9818  134.9190  159.7906 H   0  0  0  0  0  0  0  0  0  0  0  0  # atno 6909 bound_to 6896
  144.8089  139.6932  143.6150 H   0  0  0  0  0  0  0  0  0  0  0  0  # atno 7974 bound_to 7965
  154.4307  140.1830  156.1181 H   0  0  0  0  0  0  0  0  0  0  0  0  # atno 8008 bound_to 7997
  156.0165  140.3345  155.6969 H   0  0  0  0  0  0  0  0  0  0  0  0  # atno 8009 bound_to 7997
  155.6037  140.0643  157.2716 H   0  0  0  0  0  0  0  0  0  0  0  0  # atno 8010 bound_to 7997
  140.7079  143.3248  151.2706 H   0  0  0  0  0  0  0  0  0  0  0  0  # atno 10167 bound_to 10162
  157.4972  130.8414  149.8272 H   0  0  0  0  0  0  0  0  0  0  0  0  # atno 10718 bound_to 10713
  153.8481  135.3083  155.3430 H   0  0  0  0  0  0  0  0  0  0  0  0  # atno 10763 bound_to 10752
  154.7903  135.4786  154.0041 H   0  0  0  0  0  0  0  0  0  0  0  0  # atno 10764 bound_to 10752
  153.1535  135.6847  153.8940 H   0  0  0  0  0  0  0  0  0  0  0  0  # atno 10765 bound_to 10752
  141.1490  133.7905  157.0195 H   0  0  0  0  0  0  0  0  0  0  0  0  # atno 11005 bound_to 11000
  146.2385  139.5954  142.9507 LP  0  0  0  0  0  0  0  0  0  0  0  0  # atno 17320 bound_to 7965
  145.5370  141.0423  143.2351 LP  0  0  0  0  0  0  0  0  0  0  0  0  # atno 17321 bound_to 7965
  139.6713  144.0016  152.2754 LP  0  0  0  0  0  0  0  0  0  0  0  0  # atno 17342 bound_to 10162
  139.9615  144.6554  150.8075 LP  0  0  0  0  0  0  0  0  0  0  0  0  # atno 17343 bound_to 10162
  156.0207  130.3796  150.1970 LP  0  0  0  0  0  0  0  0  0  0  0  0  # atno 17370 bound_to 10713
  157.0160  130.9965  151.3353 LP  0  0  0  0  0  0  0  0  0  0  0  0  # atno 17371 bound_to 10713
  140.0825  134.9640  157.1647 LP  0  0  0  0  0  0  0  0  0  0  0  0  # atno 17394 bound_to 11000
  140.3557  134.2549  155.7193 LP  0  0  0  0  0  0  0  0  0  0  0  0  # atno 17395 bound_to 11000

$$$$
