AV-unprocessed.smi:2062|AV-procd|sdf|8402|dock6
  -GOLD-   2272011 83D 1   1.00000     0.00000
 Structure written by MMmdl.
 42 43  0  0  0  0  0  0  0  0  3 V2000
  144.3246  132.7999  150.5790 C   0  0  0  0  0  0  0  0  0  0  0  0
  144.7515  133.7049  151.7441 C   0  0  0  0  0  0  0  0  0  0  0  0
  143.5356  134.4526  152.3169 C   0  0  0  0  0  0  0  0  0  0  0  0
  145.8664  134.6745  151.2954 C   0  0  0  0  0  0  0  0  0  0  0  0
  146.4248  135.4838  152.4089 N   0  3  1  0  0  0  0  0  0  0  0  0
  145.5752  136.6402  152.7875 C   0  0  0  0  0  0  0  0  0  0  0  0
  146.2284  137.4358  153.9286 C   0  0  0  0  0  0  0  0  0  0  0  0
  146.4646  136.5701  155.0291 O   0  0  0  0  0  0  0  0  0  0  0  0
  147.3722  135.5204  154.7101 C   0  0  1  0  0  0  0  0  0  0  0  0
  147.6574  134.6988  155.9796 C   0  0  0  0  0  0  0  0  0  0  0  0
  147.8830  135.5599  157.1355 N   0  0  0  0  0  0  0  0  0  0  0  0
  147.3673  135.3848  158.3602 C   0  0  0  0  0  0  0  0  0  0  0  0
  146.6524  134.4077  158.5943 O   0  0  0  0  0  0  0  0  0  0  0  0
  147.7081  136.3568  159.2354 N   0  5  0  0  0  0  0  0  0  0  0  0
  147.6239  136.1299  160.5565 C   0  0  0  0  0  0  0  0  0  0  0  0
  147.6675  137.1082  161.4682 N   0  0  0  0  0  0  0  0  0  0  0  0
  147.5669  136.6474  162.7822 C   0  0  0  0  0  0  0  0  0  0  0  0
  147.4517  135.2856  162.8735 C   0  0  0  0  0  0  0  0  0  0  0  0
  147.4678  134.5367  161.3023 S   0  0  0  0  0  0  0  0  0  0  0  0
  146.7381  134.6593  153.6006 C   0  0  0  0  0  0  0  0  0  0  0  0
  143.9128  133.3814  149.7534 H   0  0  0  0  0  0  0  0  0  0  0  0
  143.5640  132.0849  150.8942 H   0  0  0  0  0  0  0  0  0  0  0  0
  145.1701  132.2289  150.1940 H   0  0  0  0  0  0  0  0  0  0  0  0
  145.1381  133.0481  152.5224 H   0  0  0  0  0  0  0  0  0  0  0  0
  143.1017  135.1286  151.5794 H   0  0  0  0  0  0  0  0  0  0  0  0
  143.8052  135.0430  153.1929 H   0  0  0  0  0  0  0  0  0  0  0  0
  142.7566  133.7545  152.6246 H   0  0  0  0  0  0  0  0  0  0  0  0
  146.6775  134.1290  150.8106 H   0  0  0  0  0  0  0  0  0  0  0  0
  145.4538  135.3407  150.5359 H   0  0  0  0  0  0  0  0  0  0  0  0
  145.4217  137.3007  151.9352 H   0  0  0  0  0  0  0  0  0  0  0  0
  144.5916  136.2858  153.0999 H   0  0  0  0  0  0  0  0  0  0  0  0
  147.1620  137.8968  153.6024 H   0  0  0  0  0  0  0  0  0  0  0  0
  145.5691  138.2425  154.2493 H   0  0  0  0  0  0  0  0  0  0  0  0
  148.3103  135.9464  154.3482 H   0  0  0  0  0  0  0  0  0  0  0  0
  146.8528  133.9874  156.1726 H   0  0  0  0  0  0  0  0  0  0  0  0
  148.5622  134.1072  155.8380 H   0  0  0  0  0  0  0  0  0  0  0  0
  148.4679  136.3705  156.9944 H   0  0  0  0  0  0  0  0  0  0  0  0
  147.5871  137.3604  163.5928 H   0  0  0  0  0  0  0  0  0  0  0  0
  147.3605  134.6799  163.7624 H   0  0  0  0  0  0  0  0  0  0  0  0
  145.8255  134.1848  153.9658 H   0  0  0  0  0  0  0  0  0  0  0  0
  147.4258  133.8598  153.3213 H   0  0  0  0  0  0  0  0  0  0  0  0
  147.3059  135.8562  152.0841 H   0  0  0  0  0  0  0  0  0  0  0  0
  1  2  1  0  0  0  0
  1 21  1  0  0  0  0
  1 22  1  0  0  0  0
  1 23  1  0  0  0  0
  2  3  1  0  0  0  0
  2  4  1  0  0  0  0
  2 24  1  0  0  0  0
  3 25  1  0  0  0  0
  3 26  1  0  0  0  0
  3 27  1  0  0  0  0
  4  5  1  0  0  0  0
  4 28  1  0  0  0  0
  4 29  1  0  0  0  0
  5 20  1  0  0  0  0
  5  6  1  0  0  0  0
  5 42  1  0  0  0  0
  6  7  1  0  0  0  0
  6 30  1  0  0  0  0
  6 31  1  0  0  0  0
  7  8  1  0  0  0  0
  7 32  1  0  0  0  0
  7 33  1  0  0  0  0
  8  9  1  0  0  0  0
  9 10  1  0  0  0  0
  9 20  1  0  0  0  0
  9 34  1  0  0  0  0
 10 11  1  0  0  0  0
 10 35  1  0  0  0  0
 10 36  1  0  0  0  0
 11 12  1  0  0  0  0
 11 37  1  0  0  0  0
 12 13  2  0  0  0  0
 12 14  1  0  0  0  0
 14 15  1  0  0  0  0
 15 19  1  0  0  0  0
 15 16  2  0  0  0  0
 16 17  1  0  0  0  0
 17 18  2  0  0  0  0
 17 38  1  0  0  0  0
 18 19  1  0  0  0  0
 18 39  1  0  0  0  0
 20 40  1  0  0  0  0
 20 41  1  0  0  0  0
M  CHG  1   5   1
M  CHG  1  14  -1
M  END
> <s_m_source_file>
AV-unprocessed.smi

> <i_m_source_file_index>
2062

> <i_lp_mmshare_version>
43012

> <i_f3d_flags>
0

> <s_epik_input>
W0NIM11bQ0hdKFtDSDNdKVtDSDJdTjFbQ0gyXVtDSDJdT1tDQEhdKFtDSDJdMSlbQ0gyXVtOSF1DKD1PKVtOSF1jMm5bY0hdW2NIXXMy

> <s_epik_cmdline>
J2VwaWtfcHl0aG9uJywgJy1waCcsICc3LjAnLCAnLXRuJywgJzgnLCAnLW1hJywgJzIwMCcsICctbWV0YWxfYmluZGluZycsICctaW1hZScsICc8aW5maWxlLm1hZT4nLCAnLW9tYWUnLCAnPG91dGZpbGUubWFlPic=

> <r_lp_tautomer_probability>
0.999

> <r_epik_Ionization_Penalty>
6.35835

> <r_epik_Ionization_Penalty_Charging>
5.49938

> <r_epik_Ionization_Penalty_Neutral>
0.858963

> <r_epik_State_Penalty>
5.49328

> <r_epik_Charging_Adjusted_Penalty>
10.9927

> <i_epik_Tot_Q>
0

> <i_epik_Tot_abs_Q>
2

> <r_epik_Metal_State_Penalty>
1.51523

> <b_epik_Metal_Only>
1

> <s_lp_Force_Field>
OPLS_2005

> <r_lp_Energy>
7.56536

> <b_lp_Chiralities_Consistent>
1

> <s_lp_Variant>
AV-unprocessed.smi:2062-7

> <Gold.Version>
5.8.1

> <Gold.Id.Protein>
6NUR|6NUR_protein|mol2

> <Gold.PLP.Fitness>
38.8549

> <Gold.PLP.PLP>
-29.3346

> <Gold.PLP.part.hbond>
-3.0000

> <Gold.PLP.part.metal>
0.0000

> <Gold.PLP.part.buried>
-4.0191

> <Gold.PLP.part.nonpolar>
-21.8814

> <Gold.PLP.part.repulsive>
0.0658

> <Gold.PLP.ligand.clash>
0.0000

> <Gold.PLP.ligand.torsion>
0.5084

> <Gold.PLP.Chemscore.Hbond>
3.4612

> <Gold.PLP.Chemscore.CHOScore>
0.0000

> <Gold.PLP.Chemscore.Metal>
0.0000

> <Gold.Chemscore.Hbonds>
donor molecule, donor type, donor heavy atom, donor atom, acceptor molecule, acceptor atom, score
      L1  H     5    42       P1  7948  2.00
      P1  H  6931  6943       L1    16  0.60
      P1  H  6934  6947       L1    16  0.80

> <Gold.PLP.Chemscore.Internal.Correction>
0.1534

> <Gold.Rescore>
     Score         DG    S(hbond)    S(metal)    S(lipo)     H(rot)  DE(clash)    DE(int)     intcor
     13.14     -15.01       1.95        0.00      63.29       1.72       0.01       1.86       ----

> <Gold.Chemscore.Fitness>
13.1425

> <Gold.Chemscore.DG>
-15.0132

> <Gold.Chemscore.ZeroCoef>
-5.4800

> <Gold.Chemscore.Hbond>
1.9549

> <Gold.Chemscore.Metal>
0.0000

> <Gold.Chemscore.Lipo>
63.2949

> <Gold.Chemscore.Internal_Hbond>
0.0000

> <Gold.Chemscore.DEClash>
0.0121

> <Gold.Chemscore.DEInternal>
1.8585

> <Gold.Chemscore.Rot>
1.7194

> <Gold.Chemscore.Internal.Correction>
   9.000000E+99

> <Gold.Chemscore.Hbonds>
donor molecule, donor type, donor heavy atom, donor atom, acceptor molecule, acceptor atom, score
      L1  H     5    42       P1  7948  1.00
      P1  H  6931  6943       L1    16  0.04
      P1  H  6934  6947       L1    16  0.70

> <Gold.Chemscore.Hbond.Weighted>
-6.5294

> <Gold.Chemscore.Metal.Weighted>
-0.0000

> <Gold.Chemscore.Lipo.Weighted>
-7.4055

> <Gold.Chemscore.Internal_Hbond.Weighted>
0.0000

> <Gold.Chemscore.DEClash.Weighted>
0.0121

> <Gold.Chemscore.DEInternal.Weighted>
1.8585

> <Gold.Chemscore.Rot.Weighted>
4.4017

> <Gold.Chemscore.Internal.Correction.Weighted>
   9.000000E+99

> <Gold.Protein.RotatedTorsions>
[ 6907 6896 6895 6894 ] final -168.23 input  -60.11 | X-H torsion
[ 7974 7965 7964 7962 ] final   77.84 input  175.53 | X-H torsion
[ 8008 7997 7996 7995 ] final  144.40 input   59.86 | X-H torsion
[ 10167 10162 10161 10158 ] final  -20.12 input  -65.29 | X-H torsion
[ 10718 10713 10712 10709 ] final -133.79 input   66.30 | X-H torsion
[ 10763 10752 10751 10750 ] final -163.71 input  -60.55 | X-H torsion
[ 11005 11000 10999 10996 ] final -101.00 input  -57.11 | X-H torsion

> <Gold.Protein.ActiveResidues>
 VAL166  LYS551  ARG553  GLY616  TRP617  ASP618  TYR619  PRO620  LYS621  CYS622 
 ASP623  PHE694  ASN695  SER759  ASP760  ASP761  ALA762  ILE779  LEU786  VAL792 
 PHE793  MET794  SER795  GLU796  ALA797  LYS798  CYS799  TRP800  GLU811  SER814 

> <Gold.Protein.RotatedAtoms>
  151.4722  133.3566  159.2824 H   0  0  0  0  0  0  0  0  0  0  0  0  # atno 6907 bound_to 6896
  150.8953  134.8363  159.7333 H   0  0  0  0  0  0  0  0  0  0  0  0  # atno 6908 bound_to 6896
  152.4847  134.4636  159.9665 H   0  0  0  0  0  0  0  0  0  0  0  0  # atno 6909 bound_to 6896
  145.6848  139.2534  143.1793 H   0  0  0  0  0  0  0  0  0  0  0  0  # atno 7974 bound_to 7965
  156.2909  140.2236  156.5048 H   0  0  0  0  0  0  0  0  0  0  0  0  # atno 8008 bound_to 7997
  154.7659  140.0470  157.1033 H   0  0  0  0  0  0  0  0  0  0  0  0  # atno 8009 bound_to 7997
  154.9933  140.3093  155.4900 H   0  0  0  0  0  0  0  0  0  0  0  0  # atno 8010 bound_to 7997
  140.7274  143.4753  151.0191 H   0  0  0  0  0  0  0  0  0  0  0  0  # atno 10167 bound_to 10162
  156.2486  130.7139  151.1029 H   0  0  0  0  0  0  0  0  0  0  0  0  # atno 10718 bound_to 10713
  154.7096  135.3004  154.9217 H   0  0  0  0  0  0  0  0  0  0  0  0  # atno 10763 bound_to 10752
  154.0122  135.6693  153.4770 H   0  0  0  0  0  0  0  0  0  0  0  0  # atno 10764 bound_to 10752
  153.0745  135.5042  154.8287 H   0  0  0  0  0  0  0  0  0  0  0  0  # atno 10765 bound_to 10752
  141.1248  133.8444  157.1176 H   0  0  0  0  0  0  0  0  0  0  0  0  # atno 11005 bound_to 11000
  146.0933  140.7630  142.9585 LP  0  0  0  0  0  0  0  0  0  0  0  0  # atno 17320 bound_to 7965
  144.7015  140.3671  143.7152 LP  0  0  0  0  0  0  0  0  0  0  0  0  # atno 17321 bound_to 7965
  139.8448  143.7516  152.3179 LP  0  0  0  0  0  0  0  0  0  0  0  0  # atno 17342 bound_to 10162
  139.7677  144.7486  151.0270 LP  0  0  0  0  0  0  0  0  0  0  0  0  # atno 17343 bound_to 10162
  157.7205  131.0684  150.6154 LP  0  0  0  0  0  0  0  0  0  0  0  0  # atno 17370 bound_to 10713
  156.6233  130.4412  149.5814 LP  0  0  0  0  0  0  0  0  0  0  0  0  # atno 17371 bound_to 10713
  140.0237  134.9934  157.0642 LP  0  0  0  0  0  0  0  0  0  0  0  0  # atno 17394 bound_to 11000
  140.4398  134.1693  155.7173 LP  0  0  0  0  0  0  0  0  0  0  0  0  # atno 17395 bound_to 11000

$$$$
