AV-unprocessed.smi:741|AV-procd|sdf|3557|dock1
  -GOLD-   22720 0553D 1   1.00000     0.00000
 Structure written by MMmdl.
 43 44  0  0  0  0  0  0  0  0  3 V2000
  144.2644  134.1725  150.9511 C   0  0  0  0  0  0  0  0  0  0  0  0
  145.3295  135.2541  151.1848 C   0  0  0  0  0  0  0  0  0  0  0  0
  145.6614  135.4898  152.6709 C   0  0  1  0  0  0  0  0  0  0  0  0
  146.1228  134.1835  153.3536 C   0  0  0  0  0  0  0  0  0  0  0  0
  147.5606  133.8914  153.1333 N   0  3  0  0  0  0  0  0  0  0  0  0
  148.3924  133.8784  154.3549 C   0  0  0  0  0  0  0  0  0  0  0  0
  149.6230  133.0628  153.9757 C   0  0  0  0  0  0  0  0  0  0  0  0
  149.0448  131.9750  153.0758 C   0  0  0  0  0  0  0  0  0  0  0  0
  147.8286  132.6289  152.4050 C   0  0  0  0  0  0  0  0  0  0  0  0
  146.6891  136.5275  152.7900 N   0  0  0  0  0  0  0  0  0  0  0  0
  146.5436  137.7185  153.3895 C   0  0  0  0  0  0  0  0  0  0  0  0
  145.5161  138.0656  153.9704 O   0  0  0  0  0  0  0  0  0  0  0  0
  147.6644  138.4544  153.2942 N   0  0  0  0  0  0  0  0  0  0  0  0
  147.8968  139.7693  153.7819 C   0  0  0  0  0  0  0  0  0  0  0  0
  146.7940  140.6494  153.8498 C   0  0  0  0  0  0  0  0  0  0  0  0
  146.9778  141.9573  154.3431 C   0  0  0  0  0  0  0  0  0  0  0  0
  148.2002  142.3546  154.7568 N   0  3  0  0  0  0  0  0  0  0  0  0
  149.2801  141.5446  154.7266 C   0  0  0  0  0  0  0  0  0  0  0  0
  149.1581  140.2261  154.2419 C   0  0  0  0  0  0  0  0  0  0  0  0
  144.1031  134.0141  149.8846 H   0  0  0  0  0  0  0  0  0  0  0  0
  143.3055  134.4492  151.3899 H   0  0  0  0  0  0  0  0  0  0  0  0
  144.5696  133.2197  151.3846 H   0  0  0  0  0  0  0  0  0  0  0  0
  146.2381  134.9620  150.6569 H   0  0  0  0  0  0  0  0  0  0  0  0
  145.0010  136.1875  150.7253 H   0  0  0  0  0  0  0  0  0  0  0  0
  144.7414  135.8255  153.1529 H   0  0  0  0  0  0  0  0  0  0  0  0
  145.9184  134.2140  154.4251 H   0  0  0  0  0  0  0  0  0  0  0  0
  145.5335  133.3567  152.9533 H   0  0  0  0  0  0  0  0  0  0  0  0
  148.6481  134.8827  154.6917 H   0  0  0  0  0  0  0  0  0  0  0  0
  147.8581  133.3780  155.1641 H   0  0  0  0  0  0  0  0  0  0  0  0
  150.3195  133.6832  153.4100 H   0  0  0  0  0  0  0  0  0  0  0  0
  150.1524  132.6631  154.8411 H   0  0  0  0  0  0  0  0  0  0  0  0
  149.7710  131.5987  152.3548 H   0  0  0  0  0  0  0  0  0  0  0  0
  148.7171  131.1325  153.6864 H   0  0  0  0  0  0  0  0  0  0  0  0
  146.9731  131.9524  152.4343 H   0  0  0  0  0  0  0  0  0  0  0  0
  148.0305  132.8619  151.3592 H   0  0  0  0  0  0  0  0  0  0  0  0
  147.5738  136.3315  152.3441 H   0  0  0  0  0  0  0  0  0  0  0  0
  148.4605  138.0022  152.8685 H   0  0  0  0  0  0  0  0  0  0  0  0
  145.8146  140.3317  153.5220 H   0  0  0  0  0  0  0  0  0  0  0  0
  146.1888  142.6912  154.4211 H   0  0  0  0  0  0  0  0  0  0  0  0
  150.2025  141.9700  155.0946 H   0  0  0  0  0  0  0  0  0  0  0  0
  150.0289  139.5882  154.2457 H   0  0  0  0  0  0  0  0  0  0  0  0
  147.9281  134.6271  152.5474 H   0  0  0  0  0  0  0  0  0  0  0  0
  148.3113  143.3046  155.1128 H   0  0  0  0  0  0  0  0  0  0  0  0
  1  2  1  0  0  0  0
  1 20  1  0  0  0  0
  1 21  1  0  0  0  0
  1 22  1  0  0  0  0
  2  3  1  0  0  0  0
  2 23  1  0  0  0  0
  2 24  1  0  0  0  0
  3  4  1  0  0  0  0
  3 10  1  0  0  0  0
  3 25  1  0  0  0  0
  4  5  1  0  0  0  0
  4 26  1  0  0  0  0
  4 27  1  0  0  0  0
  5  9  1  0  0  0  0
  5  6  1  0  0  0  0
  5 42  1  0  0  0  0
  6  7  1  0  0  0  0
  6 28  1  0  0  0  0
  6 29  1  0  0  0  0
  7  8  1  0  0  0  0
  7 30  1  0  0  0  0
  7 31  1  0  0  0  0
  8  9  1  0  0  0  0
  8 32  1  0  0  0  0
  8 33  1  0  0  0  0
  9 34  1  0  0  0  0
  9 35  1  0  0  0  0
 10 11  1  0  0  0  0
 10 36  1  0  0  0  0
 11 12  2  0  0  0  0
 11 13  1  0  0  0  0
 13 14  1  0  0  0  0
 13 37  1  0  0  0  0
 14 19  1  0  0  0  0
 14 15  2  0  0  0  0
 15 16  1  0  0  0  0
 15 38  1  0  0  0  0
 16 17  2  0  0  0  0
 16 39  1  0  0  0  0
 17 18  1  0  0  0  0
 17 43  1  0  0  0  0
 18 19  2  0  0  0  0
 18 40  1  0  0  0  0
 19 41  1  0  0  0  0
M  CHG  1   5   1
M  CHG  1  17   1
M  END
> <s_m_source_file>
AV-unprocessed.smi

> <i_m_source_file_index>
741

> <i_lp_mmshare_version>
43012

> <i_f3d_flags>
0

> <s_epik_input>
W0NIMl0xW0NIMl1bQ0gyXVtDSDJdTjFbQ0gyXVtDQEBIXShbQ0gyXVtDSDNdKVtOSF1DKD1PKVtOSF1jMltjSF1bY0hdbltjSF1bY0hdMg==

> <s_epik_cmdline>
J2VwaWtfcHl0aG9uJywgJy1waCcsICc3LjAnLCAnLXRuJywgJzgnLCAnLW1hJywgJzIwMCcsICctbWV0YWxfYmluZGluZycsICctaW1hZScsICc8aW5maWxlLm1hZT4nLCAnLW9tYWUnLCAnPG91dGZpbGUubWFlPic=

> <r_epik_Ionization_Penalty>
1.10771

> <r_epik_Ionization_Penalty_Charging>
1.10769

> <r_epik_Ionization_Penalty_Neutral>
1.91663e-05

> <r_epik_State_Penalty>
1.16347

> <r_epik_Charging_Adjusted_Penalty>
2.27116

> <i_epik_Tot_Q>
2

> <i_epik_Tot_abs_Q>
2

> <r_epik_Metal_State_Penalty>
1.24871

> <b_epik_Metal_Only>
0

> <s_lp_Force_Field>
OPLS_2005

> <r_lp_Energy>
49.4137

> <b_lp_Chiralities_Consistent>
1

> <s_lp_Variant>
AV-unprocessed.smi:741-4

> <Gold.Version>
5.8.1

> <Gold.Id.Protein>
6NUR|6NUR_protein|mol2

> <Gold.PLP.Fitness>
47.3029

> <Gold.PLP.PLP>
-33.5432

> <Gold.PLP.part.hbond>
-4.0913

> <Gold.PLP.part.metal>
0.0000

> <Gold.PLP.part.buried>
-2.7184

> <Gold.PLP.part.nonpolar>
-29.3199

> <Gold.PLP.part.repulsive>
0.6233

> <Gold.PLP.ligand.clash>
0.0000

> <Gold.PLP.ligand.torsion>
1.1765

> <Gold.PLP.Chemscore.Hbond>
5.3242

> <Gold.PLP.Chemscore.CHOScore>
0.0000

> <Gold.PLP.Chemscore.Metal>
0.0000

> <Gold.Chemscore.Hbonds>
donor molecule, donor type, donor heavy atom, donor atom, acceptor molecule, acceptor atom, score
      L1  H     5    42       P1  7948  2.00
      L1  H    10    36       P1  7948  0.81
      L1  H    13    37       P1  7948  0.73
      L1  H    17    43       P1  8028  2.00

> <Gold.PLP.Chemscore.Internal.Correction>
0.1401

> <Gold.Rescore>
     Score         DG    S(hbond)    S(metal)    S(lipo)     H(rot)  DE(clash)    DE(int)     intcor
     18.42     -20.91       3.32        0.00      72.82       1.63       0.04       2.45       ----

> <Gold.Chemscore.Fitness>
18.4187

> <Gold.Chemscore.DG>
-20.9115

> <Gold.Chemscore.ZeroCoef>
-5.4800

> <Gold.Chemscore.Hbond>
3.3157

> <Gold.Chemscore.Metal>
0.0000

> <Gold.Chemscore.Lipo>
72.8187

> <Gold.Chemscore.Internal_Hbond>
0.0000

> <Gold.Chemscore.DEClash>
0.0382

> <Gold.Chemscore.DEInternal>
2.4546

> <Gold.Chemscore.Rot>
1.6260

> <Gold.Chemscore.Internal.Correction>
   9.000000E+99

> <Gold.Chemscore.Hbonds>
donor molecule, donor type, donor heavy atom, donor atom, acceptor molecule, acceptor atom, score
      L1  H     5    42       P1  7948  0.64
      L1  H    10    36       P1  7948  0.80
      L1  H    13    37       P1  7948  0.70
      L1  H    17    43       P1  8028  0.97

> <Gold.Chemscore.Hbond.Weighted>
-11.0743

> <Gold.Chemscore.Metal.Weighted>
-0.0000

> <Gold.Chemscore.Lipo.Weighted>
-8.5198

> <Gold.Chemscore.Internal_Hbond.Weighted>
0.0000

> <Gold.Chemscore.DEClash.Weighted>
0.0382

> <Gold.Chemscore.DEInternal.Weighted>
2.4546

> <Gold.Chemscore.Rot.Weighted>
4.1626

> <Gold.Chemscore.Internal.Correction.Weighted>
   9.000000E+99

> <Gold.Protein.RotatedTorsions>
[ 6907 6896 6895 6894 ] final   43.50 input  -60.11 | X-H torsion
[ 7974 7965 7964 7962 ] final    9.76 input  175.53 | X-H torsion
[ 8008 7997 7996 7995 ] final  -75.84 input   59.86 | X-H torsion
[ 10167 10162 10161 10158 ] final -125.91 input  -65.29 | X-H torsion
[ 10718 10713 10712 10709 ] final  -92.16 input   66.30 | X-H torsion
[ 10763 10752 10751 10750 ] final -147.62 input  -60.55 | X-H torsion
[ 11005 11000 10999 10996 ] final   12.80 input  -57.11 | X-H torsion

> <Gold.Protein.ActiveResidues>
 VAL166  LYS551  ARG553  GLY616  TRP617  ASP618  TYR619  PRO620  LYS621  CYS622 
 ASP623  PHE694  ASN695  SER759  ASP760  ASP761  ALA762  ILE779  LEU786  VAL792 
 PHE793  MET794  SER795  GLU796  ALA797  LYS798  CYS799  TRP800  GLU811  SER814 

> <Gold.Protein.RotatedAtoms>
  152.2210  134.8413  160.0485 H   0  0  0  0  0  0  0  0  0  0  0  0  # atno 6907 bound_to 6896
  151.9197  133.3577  159.3900 H   0  0  0  0  0  0  0  0  0  0  0  0  # atno 6908 bound_to 6896
  150.7000  134.4573  159.5408 H   0  0  0  0  0  0  0  0  0  0  0  0  # atno 6909 bound_to 6896
  146.2399  139.9736  142.8444 H   0  0  0  0  0  0  0  0  0  0  0  0  # atno 7974 bound_to 7965
  154.5452  140.0737  156.8577 H   0  0  0  0  0  0  0  0  0  0  0  0  # atno 8008 bound_to 7997
  155.3100  140.3389  155.4226 H   0  0  0  0  0  0  0  0  0  0  0  0  # atno 8009 bound_to 7997
  156.1912  140.1687  156.8075 H   0  0  0  0  0  0  0  0  0  0  0  0  # atno 8010 bound_to 7997
  139.9771  143.5782  152.2392 H   0  0  0  0  0  0  0  0  0  0  0  0  # atno 10167 bound_to 10162
  156.0000  130.4976  150.5584 H   0  0  0  0  0  0  0  0  0  0  0  0  # atno 10718 bound_to 10713
  154.8276  135.3355  154.6846 H   0  0  0  0  0  0  0  0  0  0  0  0  # atno 10763 bound_to 10752
  153.7470  135.6942  153.4958 H   0  0  0  0  0  0  0  0  0  0  0  0  # atno 10764 bound_to 10752
  153.2203  135.4451  155.0433 H   0  0  0  0  0  0  0  0  0  0  0  0  # atno 10765 bound_to 10752
  140.4879  134.0870  155.7765 H   0  0  0  0  0  0  0  0  0  0  0  0  # atno 11005 bound_to 11000
  145.1658  140.9696  143.4350 LP  0  0  0  0  0  0  0  0  0  0  0  0  # atno 17320 bound_to 7965
  145.0074  139.3542  143.6137 LP  0  0  0  0  0  0  0  0  0  0  0  0  # atno 17321 bound_to 7965
  139.6437  144.7656  151.2286 LP  0  0  0  0  0  0  0  0  0  0  0  0  # atno 17342 bound_to 10162
  140.7502  143.6274  150.8455 LP  0  0  0  0  0  0  0  0  0  0  0  0  # atno 17343 bound_to 10162
  157.3497  131.0731  151.1723 LP  0  0  0  0  0  0  0  0  0  0  0  0  # atno 17370 bound_to 10713
  157.2544  130.6629  149.5946 LP  0  0  0  0  0  0  0  0  0  0  0  0  # atno 17371 bound_to 10713
  141.1499  133.8988  157.2124 LP  0  0  0  0  0  0  0  0  0  0  0  0  # atno 17394 bound_to 11000
  139.9787  135.0105  156.9696 LP  0  0  0  0  0  0  0  0  0  0  0  0  # atno 17395 bound_to 11000

$$$$
