AV-unprocessed.smi:652|AV-procd|sdf|3195|dock2
  -GOLD-   22720 0123D 1   1.00000     0.00000
 Structure written by MMmdl.
 48 49  0  0  0  0  0  0  0  0  2 V2000
  152.4882  143.9627  160.0504 C   0  0  0  0  0  0  0  0  0  0  0  0
  152.4633  142.4352  160.2198 C   0  0  0  0  0  0  0  0  0  0  0  0
  153.7517  141.9185  160.8733 C   0  0  0  0  0  0  0  0  0  0  0  0
  152.2758  141.7788  158.9286 N   0  0  0  0  0  0  0  0  0  0  0  0
  151.1079  141.6647  158.2766 C   0  0  0  0  0  0  0  0  0  0  0  0
  150.0468  142.1166  158.7080 O   0  0  0  0  0  0  0  0  0  0  0  0
  151.1511  140.9207  156.9378 C   0  0  0  0  0  0  0  0  0  0  0  0
  150.3409  141.6261  155.8302 C   0  0  0  0  0  0  0  0  0  0  0  0
  148.9694  141.0764  155.6854 N   0  3  2  0  0  0  0  0  0  0  0  0
  148.2282  141.7100  154.5689 C   0  0  0  0  0  0  0  0  0  0  0  0
  146.8302  141.0876  154.4269 C   0  0  0  0  0  0  0  0  0  0  0  0
  146.1299  141.2133  155.6577 O   0  0  0  0  0  0  0  0  0  0  0  0
  146.7751  140.5166  156.7191 C   0  0  2  0  0  0  0  0  0  0  0  0
  145.9006  140.6381  157.9749 C   0  0  0  0  0  0  0  0  0  0  0  0
  145.3781  141.9866  158.1334 N   0  0  0  0  0  0  0  0  0  0  0  0
  145.5974  142.6980  159.3196 C   0  0  0  0  0  0  0  0  0  0  0  0
  144.6484  143.5924  159.8662 C   0  0  0  0  0  0  0  0  0  0  0  0
  144.9847  144.2433  161.0660 C   0  0  0  0  0  0  0  0  0  0  0  0
  146.2410  143.9533  161.6284 C   0  0  0  0  0  0  0  0  0  0  0  0
  147.1106  143.0887  161.0597 N   0  0  0  0  0  0  0  0  0  0  0  0
  146.7897  142.4697  159.9178 N   0  0  0  0  0  0  0  0  0  0  0  0
  148.1705  141.1351  156.9350 C   0  0  0  0  0  0  0  0  0  0  0  0
  152.6214  144.4595  161.0117 H   0  0  0  0  0  0  0  0  0  0  0  0
  151.5562  144.3304  159.6198 H   0  0  0  0  0  0  0  0  0  0  0  0
  153.3038  144.2772  159.3987 H   0  0  0  0  0  0  0  0  0  0  0  0
  151.6312  142.1720  160.8754 H   0  0  0  0  0  0  0  0  0  0  0  0
  153.8967  142.3642  161.8578 H   0  0  0  0  0  0  0  0  0  0  0  0
  154.6277  142.1561  160.2687 H   0  0  0  0  0  0  0  0  0  0  0  0
  153.7200  140.8363  161.0046 H   0  0  0  0  0  0  0  0  0  0  0  0
  153.0978  141.3745  158.5040 H   0  0  0  0  0  0  0  0  0  0  0  0
  152.1922  140.8277  156.6239 H   0  0  0  0  0  0  0  0  0  0  0  0
  150.7793  139.9099  157.1053 H   0  0  0  0  0  0  0  0  0  0  0  0
  150.2883  142.7010  156.0122 H   0  0  0  0  0  0  0  0  0  0  0  0
  150.8646  141.4973  154.8811 H   0  0  0  0  0  0  0  0  0  0  0  0
  148.1415  142.7826  154.7495 H   0  0  0  0  0  0  0  0  0  0  0  0
  148.7805  141.5850  153.6367 H   0  0  0  0  0  0  0  0  0  0  0  0
  146.2679  141.6007  153.6467 H   0  0  0  0  0  0  0  0  0  0  0  0
  146.8964  140.0382  154.1350 H   0  0  0  0  0  0  0  0  0  0  0  0
  146.8823  139.4618  156.4579 H   0  0  0  0  0  0  0  0  0  0  0  0
  145.0575  139.9507  157.8973 H   0  0  0  0  0  0  0  0  0  0  0  0
  146.4716  140.3539  158.8599 H   0  0  0  0  0  0  0  0  0  0  0  0
  145.1116  142.5013  157.3061 H   0  0  0  0  0  0  0  0  0  0  0  0
  143.6959  143.7846  159.3959 H   0  0  0  0  0  0  0  0  0  0  0  0
  144.3062  144.9383  161.5375 H   0  0  0  0  0  0  0  0  0  0  0  0
  146.5549  144.4220  162.5492 H   0  0  0  0  0  0  0  0  0  0  0  0
  148.6794  140.5950  157.7328 H   0  0  0  0  0  0  0  0  0  0  0  0
  148.0766  142.1728  157.2598 H   0  0  0  0  0  0  0  0  0  0  0  0
  149.0687  140.1009  155.4426 H   0  0  0  0  0  0  0  0  0  0  0  0
  1  2  1  0  0  0  0
  1 23  1  0  0  0  0
  1 24  1  0  0  0  0
  1 25  1  0  0  0  0
  2  3  1  0  0  0  0
  2  4  1  0  0  0  0
  2 26  1  0  0  0  0
  3 27  1  0  0  0  0
  3 28  1  0  0  0  0
  3 29  1  0  0  0  0
  4  5  1  0  0  0  0
  4 30  1  0  0  0  0
  5  6  2  0  0  0  0
  5  7  1  0  0  0  0
  7  8  1  0  0  0  0
  7 31  1  0  0  0  0
  7 32  1  0  0  0  0
  8  9  1  0  0  0  0
  8 33  1  0  0  0  0
  8 34  1  0  0  0  0
  9 22  1  0  0  0  0
  9 10  1  0  0  0  0
  9 48  1  0  0  0  0
 10 11  1  0  0  0  0
 10 35  1  0  0  0  0
 10 36  1  0  0  0  0
 11 12  1  0  0  0  0
 11 37  1  0  0  0  0
 11 38  1  0  0  0  0
 12 13  1  0  0  0  0
 13 14  1  0  0  0  0
 13 22  1  0  0  0  0
 13 39  1  0  0  0  0
 14 15  1  0  0  0  0
 14 40  1  0  0  0  0
 14 41  1  0  0  0  0
 15 16  1  0  0  0  0
 15 42  1  0  0  0  0
 16 21  1  0  0  0  0
 16 17  2  0  0  0  0
 17 18  1  0  0  0  0
 17 43  1  0  0  0  0
 18 19  2  0  0  0  0
 18 44  1  0  0  0  0
 19 20  1  0  0  0  0
 19 45  1  0  0  0  0
 20 21  2  0  0  0  0
 22 46  1  0  0  0  0
 22 47  1  0  0  0  0
M  CHG  1   9   1
M  END
> <s_m_source_file>
AV-unprocessed.smi

> <i_m_source_file_index>
652

> <i_lp_mmshare_version>
43012

> <i_f3d_flags>
0

> <s_epik_input>
W0NIM11bQ0hdKFtDSDNdKVtOSF1DKD1PKVtDSDJdW0NIMl1OMVtDSDJdW0NIMl1PW0NASF0oW0NIMl0xKVtDSDJdW05IXWMyW2NIXVtjSF1bY0hdbm4y

> <s_epik_cmdline>
J2VwaWtfcHl0aG9uJywgJy1waCcsICc3LjAnLCAnLXRuJywgJzgnLCAnLW1hJywgJzIwMCcsICctbWV0YWxfYmluZGluZycsICctaW1hZScsICc8aW5maWxlLm1hZT4nLCAnLW9tYWUnLCAnPG91dGZpbGUubWFlPic=

> <r_lp_tautomer_probability>
0.999978

> <r_epik_Ionization_Penalty>
0.433079

> <r_epik_Ionization_Penalty_Charging>
0.413784

> <r_epik_Ionization_Penalty_Neutral>
0.0192945

> <r_epik_State_Penalty>
0.425138

> <r_epik_Charging_Adjusted_Penalty>
0.838922

> <i_epik_Tot_Q>
1

> <i_epik_Tot_abs_Q>
1

> <r_epik_Metal_State_Penalty>
0.422073

> <b_epik_Metal_Only>
0

> <s_lp_Force_Field>
OPLS_2005

> <r_lp_Energy>
22.402

> <b_lp_Chiralities_Consistent>
1

> <s_lp_Variant>
AV-unprocessed.smi:652-4

> <Gold.Version>
5.8.1

> <Gold.Id.Protein>
6NUR|6NUR_protein|mol2

> <Gold.PLP.Fitness>
39.1794

> <Gold.PLP.PLP>
-36.1131

> <Gold.PLP.part.hbond>
-3.6812

> <Gold.PLP.part.metal>
0.0000

> <Gold.PLP.part.buried>
-6.5671

> <Gold.PLP.part.nonpolar>
-26.7248

> <Gold.PLP.part.repulsive>
0.4228

> <Gold.PLP.ligand.clash>
0.0000

> <Gold.PLP.ligand.torsion>
1.1195

> <Gold.PLP.Chemscore.Hbond>
1.6500

> <Gold.PLP.Chemscore.CHOScore>
0.0000

> <Gold.PLP.Chemscore.Metal>
0.0000

> <Gold.Chemscore.Hbonds>
donor molecule, donor type, donor heavy atom, donor atom, acceptor molecule, acceptor atom, score
      P1  H  6933  6944       L1    20  1.00
      P1  H  6934  6946       L1    21  0.55

> <Gold.PLP.Chemscore.Internal.Correction>
0.3552

> <Gold.Rescore>
     Score         DG    S(hbond)    S(metal)    S(lipo)     H(rot)  DE(clash)    DE(int)     intcor
      9.51     -11.91       0.87        0.00      79.42       2.26       0.02       2.38       ----

> <Gold.Chemscore.Fitness>
9.5118

> <Gold.Chemscore.DG>
-11.9062

> <Gold.Chemscore.ZeroCoef>
-5.4800

> <Gold.Chemscore.Hbond>
0.8738

> <Gold.Chemscore.Metal>
0.0000

> <Gold.Chemscore.Lipo>
79.4178

> <Gold.Chemscore.Internal_Hbond>
0.0000

> <Gold.Chemscore.DEClash>
0.0193

> <Gold.Chemscore.DEInternal>
2.3751

> <Gold.Chemscore.Rot>
2.2594

> <Gold.Chemscore.Internal.Correction>
   9.000000E+99

> <Gold.Chemscore.Hbonds>
donor molecule, donor type, donor heavy atom, donor atom, acceptor molecule, acceptor atom, score
      P1  H  6933  6944       L1    20  0.34
      P1  H  6934  6946       L1    21  0.03

> <Gold.Chemscore.Hbond.Weighted>
-2.9184

> <Gold.Chemscore.Metal.Weighted>
-0.0000

> <Gold.Chemscore.Lipo.Weighted>
-9.2919

> <Gold.Chemscore.Internal_Hbond.Weighted>
0.0000

> <Gold.Chemscore.DEClash.Weighted>
0.0193

> <Gold.Chemscore.DEInternal.Weighted>
2.3751

> <Gold.Chemscore.Rot.Weighted>
5.7841

> <Gold.Chemscore.Internal.Correction.Weighted>
   9.000000E+99

> <Gold.Protein.RotatedTorsions>
[ 6907 6896 6895 6894 ] final  176.19 input  -60.11 | X-H torsion
[ 7974 7965 7964 7962 ] final -147.32 input  175.53 | X-H torsion
[ 8008 7997 7996 7995 ] final   26.01 input   59.86 | X-H torsion
[ 10167 10162 10161 10158 ] final  138.52 input  -65.29 | X-H torsion
[ 10718 10713 10712 10709 ] final  -53.87 input   66.30 | X-H torsion
[ 10763 10752 10751 10750 ] final  112.83 input  -60.55 | X-H torsion
[ 11005 11000 10999 10996 ] final   96.18 input  -57.11 | X-H torsion

> <Gold.Protein.ActiveResidues>
 VAL166  LYS551  ARG553  GLY616  TRP617  ASP618  TYR619  PRO620  LYS621  CYS622 
 ASP623  PHE694  ASN695  SER759  ASP760  ASP761  ALA762  ILE779  LEU786  VAL792 
 PHE793  MET794  SER795  GLU796  ALA797  LYS798  CYS799  TRP800  GLU811  SER814 

> <Gold.Protein.RotatedAtoms>
  151.7241  133.3315  159.3322 H   0  0  0  0  0  0  0  0  0  0  0  0  # atno 6907 bound_to 6896
  150.7640  134.6422  159.6252 H   0  0  0  0  0  0  0  0  0  0  0  0  # atno 6908 bound_to 6896
  152.3633  134.6843  160.0252 H   0  0  0  0  0  0  0  0  0  0  0  0  # atno 6909 bound_to 6896
  144.8101  140.5342  143.5648 H   0  0  0  0  0  0  0  0  0  0  0  0  # atno 7974 bound_to 7965
  155.0206  140.3147  155.4795 H   0  0  0  0  0  0  0  0  0  0  0  0  # atno 8008 bound_to 7997
  156.2893  140.2198  156.5266 H   0  0  0  0  0  0  0  0  0  0  0  0  # atno 8009 bound_to 7997
  154.7455  140.0470  157.0836 H   0  0  0  0  0  0  0  0  0  0  0  0  # atno 8010 bound_to 7997
  139.5108  144.6348  151.5724 H   0  0  0  0  0  0  0  0  0  0  0  0  # atno 10167 bound_to 10162
  156.1498  130.4151  149.9963 H   0  0  0  0  0  0  0  0  0  0  0  0  # atno 10718 bound_to 10713
  153.4835  135.3674  155.2455 H   0  0  0  0  0  0  0  0  0  0  0  0  # atno 10763 bound_to 10752
  154.8754  135.3960  154.3672 H   0  0  0  0  0  0  0  0  0  0  0  0  # atno 10764 bound_to 10752
  153.4279  135.7082  153.6315 H   0  0  0  0  0  0  0  0  0  0  0  0  # atno 10765 bound_to 10752
  139.8783  134.8937  156.4121 H   0  0  0  0  0  0  0  0  0  0  0  0  # atno 11005 bound_to 11000
  145.5344  139.1475  143.3482 LP  0  0  0  0  0  0  0  0  0  0  0  0  # atno 17320 bound_to 7965
  146.2398  140.5484  142.8939 LP  0  0  0  0  0  0  0  0  0  0  0  0  # atno 17321 bound_to 7965
  140.6094  143.9465  150.6442 LP  0  0  0  0  0  0  0  0  0  0  0  0  # atno 17342 bound_to 10162
  140.2702  143.3461  152.1244 LP  0  0  0  0  0  0  0  0  0  0  0  0  # atno 17343 bound_to 10162
  156.7824  130.9226  151.3646 LP  0  0  0  0  0  0  0  0  0  0  0  0  # atno 17370 bound_to 10713
  157.6647  130.8997  149.9907 LP  0  0  0  0  0  0  0  0  0  0  0  0  # atno 17371 bound_to 10713
  140.9193  133.7656  155.9887 LP  0  0  0  0  0  0  0  0  0  0  0  0  # atno 17394 bound_to 11000
  140.8457  134.3013  157.5295 LP  0  0  0  0  0  0  0  0  0  0  0  0  # atno 17395 bound_to 11000

$$$$
