AV-unprocessed.smi:1333|AV-procd|sdf|5490|dock2
  -GOLD-   22720 5 63D 1   1.00000     0.00000
 Structure written by MMmdl.
 33 34  0  0  0  0  0  0  0  0  1 V2000
  144.3514  135.4273  152.4991 O   0  0  0  0  0  0  0  0  0  0  0  0
  145.4713  135.5763  152.0024 C   0  0  0  0  0  0  0  0  0  0  0  0
  145.9030  134.7246  150.8008 C   0  0  0  0  0  0  0  0  0  0  0  0
  145.3300  133.3891  150.8127 N   0  0  0  0  0  0  0  0  0  0  0  0
  143.9845  133.0524  150.7326 C   0  0  0  0  0  0  0  0  0  0  0  0
  143.9190  131.6785  150.7872 C   0  0  0  0  0  0  0  0  0  0  0  0
  145.2037  131.1518  150.8991 N   0  0  0  0  0  0  0  0  0  0  0  0
  145.9856  132.2237  150.9094 C   0  0  0  0  0  0  0  0  0  0  0  0
  146.4076  136.4561  152.4268 N   0  0  0  0  0  0  0  0  0  0  0  0
  146.3911  137.3561  153.4389 C   0  0  0  0  0  0  0  0  0  0  0  0
  145.3719  137.5285  154.1055 O   0  0  0  0  0  0  0  0  0  0  0  0
  147.5265  138.0419  153.6705 N   0  0  0  0  0  0  0  0  0  0  0  0
  147.6675  139.1622  154.5963 C   0  0  0  0  0  0  0  0  0  0  0  0
  146.6625  140.2881  154.2797 C   0  0  0  0  0  0  0  0  0  0  0  0
  147.4836  141.4262  153.6734 C   0  0  0  0  0  0  0  0  0  0  0  0
  148.8461  141.3016  154.3473 C   0  0  0  0  0  0  0  0  0  0  0  0
  149.0683  139.7934  154.4774 C   0  0  0  0  0  0  0  0  0  0  0  0
  145.6073  135.2223  149.8761 H   0  0  0  0  0  0  0  0  0  0  0  0
  146.9904  134.6388  150.7884 H   0  0  0  0  0  0  0  0  0  0  0  0
  143.2067  133.7974  150.6495 H   0  0  0  0  0  0  0  0  0  0  0  0
  143.0530  131.0341  150.7560 H   0  0  0  0  0  0  0  0  0  0  0  0
  147.0609  132.1597  150.9912 H   0  0  0  0  0  0  0  0  0  0  0  0
  147.2689  136.4407  151.9003 H   0  0  0  0  0  0  0  0  0  0  0  0
  148.3554  137.7634  153.1646 H   0  0  0  0  0  0  0  0  0  0  0  0
  147.5124  138.8107  155.6181 H   0  0  0  0  0  0  0  0  0  0  0  0
  145.8494  139.9772  153.6222 H   0  0  0  0  0  0  0  0  0  0  0  0
  146.2062  140.6306  155.2093 H   0  0  0  0  0  0  0  0  0  0  0  0
  147.5892  141.2720  152.5987 H   0  0  0  0  0  0  0  0  0  0  0  0
  147.0250  142.4034  153.8278 H   0  0  0  0  0  0  0  0  0  0  0  0
  149.6395  141.7965  153.7867 H   0  0  0  0  0  0  0  0  0  0  0  0
  148.8063  141.7546  155.3389 H   0  0  0  0  0  0  0  0  0  0  0  0
  149.7038  139.5487  155.3294 H   0  0  0  0  0  0  0  0  0  0  0  0
  149.5787  139.4326  153.5826 H   0  0  0  0  0  0  0  0  0  0  0  0
  1  2  2  0  0  0  0
  2  3  1  0  0  0  0
  2  9  1  0  0  0  0
  3  4  1  0  0  0  0
  3 18  1  0  0  0  0
  3 19  1  0  0  0  0
  4  8  1  0  0  0  0
  4  5  1  0  0  0  0
  5  6  2  0  0  0  0
  5 20  1  0  0  0  0
  6  7  1  0  0  0  0
  6 21  1  0  0  0  0
  7  8  2  0  0  0  0
  8 22  1  0  0  0  0
  9 10  1  0  0  0  0
  9 23  1  0  0  0  0
 10 11  2  0  0  0  0
 10 12  1  0  0  0  0
 12 13  1  0  0  0  0
 12 24  1  0  0  0  0
 13 17  1  0  0  0  0
 13 14  1  0  0  0  0
 13 25  1  0  0  0  0
 14 15  1  0  0  0  0
 14 26  1  0  0  0  0
 14 27  1  0  0  0  0
 15 16  1  0  0  0  0
 15 28  1  0  0  0  0
 15 29  1  0  0  0  0
 16 17  1  0  0  0  0
 16 30  1  0  0  0  0
 16 31  1  0  0  0  0
 17 32  1  0  0  0  0
 17 33  1  0  0  0  0
M  END
> <s_m_source_file>
AV-unprocessed.smi

> <i_m_source_file_index>
1333

> <i_lp_mmshare_version>
43012

> <i_f3d_flags>
0

> <s_epik_input>
W2NIXTFuW2NIXVtjSF1uMVtDSDJdQyg9TylbTkhdQyg9TylbTkhdW0NIXTJbQ0gyXVtDSDJdW0NIMl1bQ0gyXTI=

> <s_epik_cmdline>
J2VwaWtfcHl0aG9uJywgJy1waCcsICc3LjAnLCAnLXRuJywgJzgnLCAnLW1hJywgJzIwMCcsICctbWV0YWxfYmluZGluZycsICctaW1hZScsICc8aW5maWxlLm1hZT4nLCAnLW9tYWUnLCAnPG91dGZpbGUubWFlPic=

> <r_lp_tautomer_probability>
1

> <r_epik_Ionization_Penalty>
0.171964

> <r_epik_Ionization_Penalty_Charging>
0.171937

> <r_epik_Ionization_Penalty_Neutral>
2.73302e-05

> <r_epik_State_Penalty>
0.161333

> <r_epik_Charging_Adjusted_Penalty>
0.33327

> <i_epik_Tot_Q>
0

> <i_epik_Tot_abs_Q>
0

> <r_epik_Metal_State_Penalty>
0.124658

> <b_epik_Metal_Only>
0

> <s_lp_Force_Field>
OPLS_2005

> <r_lp_Energy>
24.334

> <b_lp_Chiralities_Consistent>
1

> <s_lp_Variant>
AV-unprocessed.smi:1333-1

> <Gold.Version>
5.8.1

> <Gold.Id.Protein>
6NUR|6NUR_protein|mol2

> <Gold.PLP.Fitness>
41.2969

> <Gold.PLP.PLP>
-27.7812

> <Gold.PLP.part.hbond>
-2.0000

> <Gold.PLP.part.metal>
0.0000

> <Gold.PLP.part.buried>
-4.4157

> <Gold.PLP.part.nonpolar>
-22.0647

> <Gold.PLP.part.repulsive>
0.3568

> <Gold.PLP.ligand.clash>
0.0000

> <Gold.PLP.ligand.torsion>
0.4262

> <Gold.PLP.Chemscore.Hbond>
1.7840

> <Gold.PLP.Chemscore.CHOScore>
2.9906

> <Gold.PLP.Chemscore.Metal>
0.0000

> <Gold.Chemscore.Hbonds>
donor molecule, donor type, donor heavy atom, donor atom, acceptor molecule, acceptor atom, score
      L1  H     9    23       P1  7948  1.00
      L1  H    12    24       P1  7948  0.68
      L1  C     5    20       P1 10186  0.99
      L1  C     6    21       P1 10952  0.78
      L1  C     8    22       P1 10747  1.00

> <Gold.PLP.Chemscore.Internal.Correction>
0.0444

> <Gold.Rescore>
     Score         DG    S(hbond)    S(metal)    S(lipo)     H(rot)  DE(clash)    DE(int)     intcor
     11.65     -13.65       1.82        0.00      55.55       1.73       0.09       1.92       ----

> <Gold.Chemscore.Fitness>
11.6491

> <Gold.Chemscore.DG>
-13.6544

> <Gold.Chemscore.ZeroCoef>
-5.4800

> <Gold.Chemscore.Hbond>
1.8248

> <Gold.Chemscore.Metal>
0.0000

> <Gold.Chemscore.Lipo>
55.5474

> <Gold.Chemscore.Internal_Hbond>
0.0000

> <Gold.Chemscore.DEClash>
0.0852

> <Gold.Chemscore.DEInternal>
1.9201

> <Gold.Chemscore.Rot>
1.7263

> <Gold.Chemscore.Internal.Correction>
   9.000000E+99

> <Gold.Chemscore.Hbonds>
donor molecule, donor type, donor heavy atom, donor atom, acceptor molecule, acceptor atom, score
      L1  H     9    23       P1  7948  0.95
      L1  H    12    24       P1  7948  0.65

> <Gold.Chemscore.Hbond.Weighted>
-6.0947

> <Gold.Chemscore.Metal.Weighted>
-0.0000

> <Gold.Chemscore.Lipo.Weighted>
-6.4990

> <Gold.Chemscore.Internal_Hbond.Weighted>
0.0000

> <Gold.Chemscore.DEClash.Weighted>
0.0852

> <Gold.Chemscore.DEInternal.Weighted>
1.9201

> <Gold.Chemscore.Rot.Weighted>
4.4193

> <Gold.Chemscore.Internal.Correction.Weighted>
   9.000000E+99

> <Gold.Protein.RotatedTorsions>
[ 6907 6896 6895 6894 ] final  106.45 input  -60.11 | X-H torsion
[ 7974 7965 7964 7962 ] final   68.88 input  175.53 | X-H torsion
[ 8008 7997 7996 7995 ] final -149.18 input   59.86 | X-H torsion
[ 10167 10162 10161 10158 ] final   42.18 input  -65.29 | X-H torsion
[ 10718 10713 10712 10709 ] final  -62.26 input   66.30 | X-H torsion
[ 10763 10752 10751 10750 ] final   67.04 input  -60.55 | X-H torsion
[ 11005 11000 10999 10996 ] final   32.68 input  -57.11 | X-H torsion

> <Gold.Protein.ActiveResidues>
 VAL166  LYS551  ARG553  GLY616  TRP617  ASP618  TYR619  PRO620  LYS621  CYS622 
 ASP623  PHE694  ASN695  SER759  ASP760  ASP761  ALA762  ILE779  LEU786  VAL792 
 PHE793  MET794  SER795  GLU796  ALA797  LYS798  CYS799  TRP800  GLU811  SER814 

> <Gold.Protein.RotatedAtoms>
  152.5193  133.9379  159.7611 H   0  0  0  0  0  0  0  0  0  0  0  0  # atno 6907 bound_to 6896
  150.9715  133.6330  159.2744 H   0  0  0  0  0  0  0  0  0  0  0  0  # atno 6908 bound_to 6896
  151.3540  135.0896  159.9465 H   0  0  0  0  0  0  0  0  0  0  0  0  # atno 6909 bound_to 6896
  145.7973  139.2964  143.1175 H   0  0  0  0  0  0  0  0  0  0  0  0  # atno 7974 bound_to 7965
  155.6034  140.0664  157.2726 H   0  0  0  0  0  0  0  0  0  0  0  0  # atno 8008 bound_to 7997
  154.4272  140.1814  156.1245 H   0  0  0  0  0  0  0  0  0  0  0  0  # atno 8009 bound_to 7997
  156.0141  140.3323  155.6974 H   0  0  0  0  0  0  0  0  0  0  0  0  # atno 8010 bound_to 7997
  140.3570  144.2278  150.6141 H   0  0  0  0  0  0  0  0  0  0  0  0  # atno 10167 bound_to 10162
  156.0867  130.4207  150.1110 H   0  0  0  0  0  0  0  0  0  0  0  0  # atno 10718 bound_to 10713
  153.0168  135.5298  154.6918 H   0  0  0  0  0  0  0  0  0  0  0  0  # atno 10763 bound_to 10752
  154.6050  135.2872  155.0496 H   0  0  0  0  0  0  0  0  0  0  0  0  # atno 10764 bound_to 10752
  154.1539  135.6558  153.5022 H   0  0  0  0  0  0  0  0  0  0  0  0  # atno 10765 bound_to 10752
  140.2709  134.3083  155.7828 H   0  0  0  0  0  0  0  0  0  0  0  0  # atno 11005 bound_to 11000
  145.9915  140.8598  143.0064 LP  0  0  0  0  0  0  0  0  0  0  0  0  # atno 17320 bound_to 7965
  144.6773  140.2222  143.7365 LP  0  0  0  0  0  0  0  0  0  0  0  0  # atno 17321 bound_to 7965
  140.5164  143.2277  151.8456 LP  0  0  0  0  0  0  0  0  0  0  0  0  # atno 17342 bound_to 10162
  139.4819  144.4889  151.9211 LP  0  0  0  0  0  0  0  0  0  0  0  0  # atno 17343 bound_to 10162
  156.9130  130.9658  151.3560 LP  0  0  0  0  0  0  0  0  0  0  0  0  # atno 17370 bound_to 10713
  157.6003  130.8508  149.8792 LP  0  0  0  0  0  0  0  0  0  0  0  0  # atno 17371 bound_to 10713
  141.2177  133.7466  156.9333 LP  0  0  0  0  0  0  0  0  0  0  0  0  # atno 17394 bound_to 11000
  140.1374  134.9316  157.2420 LP  0  0  0  0  0  0  0  0  0  0  0  0  # atno 17395 bound_to 11000

$$$$
