AV-unprocessed.smi:104|AV-procd|sdf|1003|dock2
  -GOLD-   2262017593D 1   1.00000     0.00000
 Structure written by MMmdl.
 47 49  0  0  0  0  0  0  0  0  1 V2000
  148.9786  140.2629  154.1720 C   0  0  0  0  0  0  0  0  0  0  0  0
  147.8189  139.5273  154.8304 C   0  0  0  0  0  0  0  0  0  0  0  0
  147.8218  139.2789  156.0355 O   0  0  0  0  0  0  0  0  0  0  0  0
  146.8505  139.2084  153.9539 O   0  0  0  0  0  0  0  0  0  0  0  0
  145.6492  138.5854  154.3892 C   0  0  0  0  0  0  0  0  0  0  0  0
  145.9415  137.2006  154.9943 C   0  0  2  0  0  0  0  0  0  0  0  0
  146.7335  136.4135  154.1220 O   0  0  0  0  0  0  0  0  0  0  0  0
  146.6913  135.1052  154.5912 C   0  0  2  0  0  0  0  0  0  0  0  0
  146.8604  134.1816  153.4314 N   0  0  0  0  0  0  0  0  0  0  0  0
  147.9197  133.3624  153.1133 C   0  0  0  0  0  0  0  0  0  0  0  0
  149.4849  133.2499  154.1928 Br  0  0  0  0  0  0  0  0  0  0  0  0
  147.8089  132.6408  152.0328 N   0  0  0  0  0  0  0  0  0  0  0  0
  146.5509  132.9916  151.5577 C   0  0  0  0  0  0  0  0  0  0  0  0
  145.7758  132.6009  150.4367 C   0  0  0  0  0  0  0  0  0  0  0  0
  146.1971  131.7066  149.5321 N   0  0  0  0  0  0  0  0  0  0  0  0
  144.5516  133.1547  150.2713 N   0  0  0  0  0  0  0  0  0  0  0  0
  144.1064  134.0488  151.1600 C   0  0  0  0  0  0  0  0  0  0  0  0
  144.7152  134.5131  152.2542 N   0  0  0  0  0  0  0  0  0  0  0  0
  145.9495  133.9536  152.4203 C   0  0  0  0  0  0  0  0  0  0  0  0
  145.3183  134.8941  155.2496 C   0  0  1  0  0  0  0  0  0  0  0  0
  145.4578  134.3731  156.5643 O   0  0  0  0  0  0  0  0  0  0  0  0
  144.3661  134.0828  157.2932 C   0  0  0  0  0  0  0  0  0  0  0  0
  144.7158  133.4957  158.6538 C   0  0  0  0  0  0  0  0  0  0  0  0
  143.1966  134.2443  156.9436 O   0  0  0  0  0  0  0  0  0  0  0  0
  144.7356  136.3050  155.3057 C   0  0  2  0  0  0  0  0  0  0  0  0
  143.7153  136.4462  154.3238 O   0  0  0  0  0  0  0  0  0  0  0  0
  142.4215  136.3038  154.6589 C   0  0  0  0  0  0  0  0  0  0  0  0
  141.5280  136.1079  153.4417 C   0  0  0  0  0  0  0  0  0  0  0  0
  141.9629  136.3176  155.8013 O   0  0  0  0  0  0  0  0  0  0  0  0
  149.7148  139.5494  153.8021 H   0  0  0  0  0  0  0  0  0  0  0  0
  149.4661  140.9228  154.8896 H   0  0  0  0  0  0  0  0  0  0  0  0
  148.6275  140.8656  153.3340 H   0  0  0  0  0  0  0  0  0  0  0  0
  145.0691  139.2145  155.0655 H   0  0  0  0  0  0  0  0  0  0  0  0
  145.0314  138.4521  153.5011 H   0  0  0  0  0  0  0  0  0  0  0  0
  146.5283  137.3314  155.9058 H   0  0  0  0  0  0  0  0  0  0  0  0
  147.5330  134.9181  155.2581 H   0  0  0  0  0  0  0  0  0  0  0  0
  147.1061  131.2784  149.6341 H   0  0  0  0  0  0  0  0  0  0  0  0
  145.6046  131.4601  148.7526 H   0  0  0  0  0  0  0  0  0  0  0  0
  143.1221  134.4497  150.9680 H   0  0  0  0  0  0  0  0  0  0  0  0
  144.6940  134.2436  154.6342 H   0  0  0  0  0  0  0  0  0  0  0  0
  145.1652  132.5099  158.5347 H   0  0  0  0  0  0  0  0  0  0  0  0
  143.8212  133.3954  159.2688 H   0  0  0  0  0  0  0  0  0  0  0  0
  145.4233  134.1401  159.1758 H   0  0  0  0  0  0  0  0  0  0  0  0
  144.3317  136.5474  156.2904 H   0  0  0  0  0  0  0  0  0  0  0  0
  141.5385  137.0022  152.8186 H   0  0  0  0  0  0  0  0  0  0  0  0
  140.5004  135.9110  153.7480 H   0  0  0  0  0  0  0  0  0  0  0  0
  141.8790  135.2651  152.8461 H   0  0  0  0  0  0  0  0  0  0  0  0
  1  2  1  0  0  0  0
  1 30  1  0  0  0  0
  1 31  1  0  0  0  0
  1 32  1  0  0  0  0
  2  3  2  0  0  0  0
  2  4  1  0  0  0  0
  4  5  1  0  0  0  0
  5  6  1  0  0  0  0
  5 33  1  0  0  0  0
  5 34  1  0  0  0  0
  6 25  1  0  0  0  0
  6  7  1  0  0  0  0
  6 35  1  0  0  0  0
  7  8  1  0  0  0  0
  8  9  1  0  0  0  0
  8 20  1  0  0  0  0
  8 36  1  0  0  0  0
  9 19  1  0  0  0  0
  9 10  1  0  0  0  0
 10 11  1  0  0  0  0
 10 12  2  0  0  0  0
 12 13  1  0  0  0  0
 13 19  2  0  0  0  0
 13 14  1  0  0  0  0
 14 15  1  0  0  0  0
 14 16  2  0  0  0  0
 15 37  1  0  0  0  0
 15 38  1  0  0  0  0
 16 17  1  0  0  0  0
 17 18  2  0  0  0  0
 17 39  1  0  0  0  0
 18 19  1  0  0  0  0
 20 21  1  0  0  0  0
 20 25  1  0  0  0  0
 20 40  1  0  0  0  0
 21 22  1  0  0  0  0
 22 23  1  0  0  0  0
 22 24  2  0  0  0  0
 23 41  1  0  0  0  0
 23 42  1  0  0  0  0
 23 43  1  0  0  0  0
 25 26  1  0  0  0  0
 25 44  1  0  0  0  0
 26 27  1  0  0  0  0
 27 28  1  0  0  0  0
 27 29  2  0  0  0  0
 28 45  1  0  0  0  0
 28 46  1  0  0  0  0
 28 47  1  0  0  0  0
M  END
> <s_m_source_file>
AV-unprocessed.smi

> <i_m_source_file_index>
104

> <i_lp_mmshare_version>
43012

> <i_f3d_flags>
0

> <s_epik_input>
W0NIM11DKD1PKU9bQ0gyXVtDQEBIXTFPW0NASF0oW0NAQEhdKE9DKD1PKVtDSDNdKVtDQEhdMU9DKD1PKVtDSDNdKW4oYyhCciluMiljKGMyMyluW2NIXW5jM1tOSDJd

> <s_epik_cmdline>
J2VwaWtfcHl0aG9uJywgJy1waCcsICc3LjAnLCAnLXRuJywgJzgnLCAnLW1hJywgJzIwMCcsICctbWV0YWxfYmluZGluZycsICctaW1hZScsICc8aW5maWxlLm1hZT4nLCAnLW9tYWUnLCAnPG91dGZpbGUubWFlPic=

> <r_lp_tautomer_probability>
1

> <r_epik_Ionization_Penalty>
7.36622e-05

> <r_epik_Ionization_Penalty_Charging>
0

> <r_epik_Ionization_Penalty_Neutral>
7.36622e-05

> <r_epik_State_Penalty>
-0

> <r_epik_Charging_Adjusted_Penalty>
0

> <i_epik_Tot_Q>
0

> <i_epik_Tot_abs_Q>
0

> <r_epik_Metal_State_Penalty>
-0

> <b_epik_Metal_Only>
0

> <s_epik_Chemistry_Notes>
This compound has an ester and may undergo hydrolysis at high or low pH. This compound contains an acetal/aminal-like group ( X-CH(R)-Y where X, Y are N, S, or O) that may be acid/base labile, releasing an aldehyde.

> <s_lp_Force_Field>
OPLS_2005

> <r_lp_Energy>
15.0278

> <b_lp_Chiralities_Consistent>
1

> <s_lp_Variant>
AV-unprocessed.smi:104-11

> <Gold.Version>
5.8.1

> <Gold.Id.Protein>
6NUR|6NUR_protein|mol2

> <Gold.PLP.Fitness>
33.2988

> <Gold.PLP.PLP>
-26.6016

> <Gold.PLP.part.hbond>
-3.0000

> <Gold.PLP.part.metal>
0.0000

> <Gold.PLP.part.buried>
-7.8637

> <Gold.PLP.part.nonpolar>
-19.3758

> <Gold.PLP.part.repulsive>
2.8858

> <Gold.PLP.ligand.clash>
0.0000

> <Gold.PLP.ligand.torsion>
0.9616

> <Gold.PLP.Chemscore.Hbond>
1.8320

> <Gold.PLP.Chemscore.CHOScore>
0.9985

> <Gold.PLP.Chemscore.Metal>
0.0000

> <Gold.Chemscore.Hbonds>
donor molecule, donor type, donor heavy atom, donor atom, acceptor molecule, acceptor atom, score
      L1  H    15    37       P1 10747  1.00
      P1  H 11000 11005       L1    24  0.83
      L1  C    17    39       P1 10186  0.99

> <Gold.PLP.Chemscore.Internal.Correction>
0.1288

> <Gold.Rescore>
     Score         DG    S(hbond)    S(metal)    S(lipo)     H(rot)  DE(clash)    DE(int)     intcor
      0.15      -4.10       1.92        0.00      27.69       4.31       0.12       3.83       ----

> <Gold.Chemscore.Fitness>
0.1503

> <Gold.Chemscore.DG>
-4.0955

> <Gold.Chemscore.ZeroCoef>
-5.4800

> <Gold.Chemscore.Hbond>
1.9167

> <Gold.Chemscore.Metal>
0.0000

> <Gold.Chemscore.Lipo>
27.6896

> <Gold.Chemscore.Internal_Hbond>
0.0000

> <Gold.Chemscore.DEClash>
0.1198

> <Gold.Chemscore.DEInternal>
3.8253

> <Gold.Chemscore.Rot>
4.3070

> <Gold.Chemscore.Internal.Correction>
   9.000000E+99

> <Gold.Chemscore.Hbonds>
donor molecule, donor type, donor heavy atom, donor atom, acceptor molecule, acceptor atom, score
      L1  H    15    37       P1 10747  0.96
      P1  H 11000 11005       L1    24  0.78

> <Gold.Chemscore.Hbond.Weighted>
-6.4017

> <Gold.Chemscore.Metal.Weighted>
-0.0000

> <Gold.Chemscore.Lipo.Weighted>
-3.2397

> <Gold.Chemscore.Internal_Hbond.Weighted>
0.0000

> <Gold.Chemscore.DEClash.Weighted>
0.1198

> <Gold.Chemscore.DEInternal.Weighted>
3.8253

> <Gold.Chemscore.Rot.Weighted>
11.0259

> <Gold.Chemscore.Internal.Correction.Weighted>
   9.000000E+99

> <Gold.Protein.RotatedTorsions>
[ 6907 6896 6895 6894 ] final   29.41 input  -60.11 | X-H torsion
[ 7974 7965 7964 7962 ] final  -57.60 input  175.53 | X-H torsion
[ 8008 7997 7996 7995 ] final  176.95 input   59.86 | X-H torsion
[ 10167 10162 10161 10158 ] final -152.91 input  -65.29 | X-H torsion
[ 10718 10713 10712 10709 ] final  -47.23 input   66.30 | X-H torsion
[ 10763 10752 10751 10750 ] final  -48.54 input  -60.55 | X-H torsion
[ 11005 11000 10999 10996 ] final  -91.05 input  -57.11 | X-H torsion

> <Gold.Protein.ActiveResidues>
 VAL166  LYS551  ARG553  GLY616  TRP617  ASP618  TYR619  PRO620  LYS621  CYS622 
 ASP623  PHE694  ASN695  SER759  ASP760  ASP761  ALA762  ILE779  LEU786  VAL792 
 PHE793  MET794  SER795  GLU796  ALA797  LYS798  CYS799  TRP800  GLU811  SER814 

> <Gold.Protein.RotatedAtoms>
  152.0311  134.9767  160.0572 H   0  0  0  0  0  0  0  0  0  0  0  0  # atno 6907 bound_to 6896
  152.1243  133.4366  159.4698 H   0  0  0  0  0  0  0  0  0  0  0  0  # atno 6908 bound_to 6896
  150.6851  134.2416  159.4518 H   0  0  0  0  0  0  0  0  0  0  0  0  # atno 6909 bound_to 6896
  145.8491  140.8365  142.9995 H   0  0  0  0  0  0  0  0  0  0  0  0  # atno 7974 bound_to 7965
  156.0710  140.1371  156.9829 H   0  0  0  0  0  0  0  0  0  0  0  0  # atno 8008 bound_to 7997
  154.4532  140.0972  156.6730 H   0  0  0  0  0  0  0  0  0  0  0  0  # atno 8009 bound_to 7997
  155.5228  140.3456  155.4412 H   0  0  0  0  0  0  0  0  0  0  0  0  # atno 8010 bound_to 7997
  139.7141  143.9061  152.2479 H   0  0  0  0  0  0  0  0  0  0  0  0  # atno 10167 bound_to 10162
  156.2105  130.4160  149.9122 H   0  0  0  0  0  0  0  0  0  0  0  0  # atno 10718 bound_to 10713
  154.0794  135.6593  153.4835 H   0  0  0  0  0  0  0  0  0  0  0  0  # atno 10763 bound_to 10752
  153.0361  135.5176  154.7488 H   0  0  0  0  0  0  0  0  0  0  0  0  # atno 10764 bound_to 10752
  154.6579  135.3010  154.9872 H   0  0  0  0  0  0  0  0  0  0  0  0  # atno 10765 bound_to 10752
  141.1553  133.7730  156.9824 H   0  0  0  0  0  0  0  0  0  0  0  0  # atno 11005 bound_to 11000
  144.6730  140.0926  143.7464 LP  0  0  0  0  0  0  0  0  0  0  0  0  # atno 17320 bound_to 7965
  145.9378  139.2648  143.1287 LP  0  0  0  0  0  0  0  0  0  0  0  0  # atno 17321 bound_to 7965
  139.8938  144.6950  150.8740 LP  0  0  0  0  0  0  0  0  0  0  0  0  # atno 17342 bound_to 10162
  140.7740  143.3565  151.1910 LP  0  0  0  0  0  0  0  0  0  0  0  0  # atno 17343 bound_to 10162
  156.6801  130.8855  151.3574 LP  0  0  0  0  0  0  0  0  0  0  0  0  # atno 17370 bound_to 10713
  157.7035  130.9359  150.0859 LP  0  0  0  0  0  0  0  0  0  0  0  0  # atno 17371 bound_to 10713
  140.1057  134.9508  157.1990 LP  0  0  0  0  0  0  0  0  0  0  0  0  # atno 17394 bound_to 11000
  140.3259  134.2864  155.7237 LP  0  0  0  0  0  0  0  0  0  0  0  0  # atno 17395 bound_to 11000

$$$$
