AV-unprocessed.smi:949|AV-procd|sdf|4244|dock6
  -GOLD-   22720 2153D 1   1.00000     0.00000
 Structure written by MMmdl.
 33 34  0  0  0  0  0  0  0  0  2 V2000
  150.5412  140.4066  158.0823 C   0  0  0  0  0  0  0  0  0  0  0  0
  150.5083  141.8397  157.5215 C   0  0  2  0  0  0  0  0  0  0  0  0
  150.6724  141.8248  156.0717 N   0  0  0  0  0  0  0  0  0  0  0  0
  150.2576  140.7537  155.2599 C   0  0  0  0  0  0  0  0  0  0  0  0
  150.9973  139.5489  155.1494 C   0  0  0  0  0  0  0  0  0  0  0  0
  150.5247  138.5128  154.3195 C   0  0  0  0  0  0  0  0  0  0  0  0
  149.3728  138.6706  153.6356 N   0  3  0  0  0  0  0  0  0  0  0  0
  148.6319  139.7960  153.7065 C   0  0  0  0  0  0  0  0  0  0  0  0
  149.0513  140.8697  154.5202 C   0  0  0  0  0  0  0  0  0  0  0  0
  148.2649  142.0232  154.5769 N   0  0  0  0  0  0  0  0  0  0  0  0
  151.5994  142.7135  158.1710 C   0  0  1  0  0  0  0  0  0  0  0  0
  151.6081  144.1701  157.6995 C   0  0  0  0  0  0  0  0  0  0  0  0
  152.2565  144.8701  158.8709 C   0  0  0  0  0  0  0  0  0  0  0  0
  151.6471  144.1193  160.0492 C   0  0  0  0  0  0  0  0  0  0  0  0
  151.3967  142.7966  159.5810 O   0  0  0  0  0  0  0  0  0  0  0  0
  150.3864  140.4017  159.1615 H   0  0  0  0  0  0  0  0  0  0  0  0
  151.5007  139.9272  157.8848 H   0  0  0  0  0  0  0  0  0  0  0  0
  149.7643  139.7809  157.6433 H   0  0  0  0  0  0  0  0  0  0  0  0
  149.5473  142.2936  157.7635 H   0  0  0  0  0  0  0  0  0  0  0  0
  151.0971  142.6309  155.6363 H   0  0  0  0  0  0  0  0  0  0  0  0
  151.9225  139.3982  155.6842 H   0  0  0  0  0  0  0  0  0  0  0  0
  151.0321  137.5689  154.1831 H   0  0  0  0  0  0  0  0  0  0  0  0
  147.7298  139.8017  153.1121 H   0  0  0  0  0  0  0  0  0  0  0  0
  148.5268  142.8155  155.1461 H   0  0  0  0  0  0  0  0  0  0  0  0
  147.3733  142.0776  154.1055 H   0  0  0  0  0  0  0  0  0  0  0  0
  152.5862  142.2781  158.0037 H   0  0  0  0  0  0  0  0  0  0  0  0
  152.1516  144.3121  156.7648 H   0  0  0  0  0  0  0  0  0  0  0  0
  150.5901  144.5385  157.5632 H   0  0  0  0  0  0  0  0  0  0  0  0
  153.3369  144.7207  158.8458 H   0  0  0  0  0  0  0  0  0  0  0  0
  152.0577  145.9417  158.8976 H   0  0  0  0  0  0  0  0  0  0  0  0
  152.2983  144.1173  160.9236 H   0  0  0  0  0  0  0  0  0  0  0  0
  150.6959  144.5694  160.3360 H   0  0  0  0  0  0  0  0  0  0  0  0
  149.0482  137.9081  153.0404 H   0  0  0  0  0  0  0  0  0  0  0  0
  1  2  1  0  0  0  0
  1 16  1  0  0  0  0
  1 17  1  0  0  0  0
  1 18  1  0  0  0  0
  2  3  1  0  0  0  0
  2 11  1  0  0  0  0
  2 19  1  0  0  0  0
  3  4  1  0  0  0  0
  3 20  1  0  0  0  0
  4  9  1  0  0  0  0
  4  5  2  0  0  0  0
  5  6  1  0  0  0  0
  5 21  1  0  0  0  0
  6  7  2  0  0  0  0
  6 22  1  0  0  0  0
  7  8  1  0  0  0  0
  7 33  1  0  0  0  0
  8  9  2  0  0  0  0
  8 23  1  0  0  0  0
  9 10  1  0  0  0  0
 10 24  1  0  0  0  0
 10 25  1  0  0  0  0
 11 15  1  0  0  0  0
 11 12  1  0  0  0  0
 11 26  1  0  0  0  0
 12 13  1  0  0  0  0
 12 27  1  0  0  0  0
 12 28  1  0  0  0  0
 13 14  1  0  0  0  0
 13 29  1  0  0  0  0
 13 30  1  0  0  0  0
 14 15  1  0  0  0  0
 14 31  1  0  0  0  0
 14 32  1  0  0  0  0
M  CHG  1   7   1
M  END
> <s_m_source_file>
AV-unprocessed.smi

> <i_m_source_file_index>
949

> <i_lp_mmshare_version>
43012

> <i_f3d_flags>
0

> <s_epik_input>
TzFbQ0gyXVtDSDJdW0NIMl1bQ0BIXTFbQ0BIXShbQ0gzXSlbTkhdYzJbY0hdW2NIXW5bY0hdYzJbTkgyXQ==

> <s_epik_cmdline>
J2VwaWtfcHl0aG9uJywgJy1waCcsICc3LjAnLCAnLXRuJywgJzgnLCAnLW1hJywgJzIwMCcsICctbWV0YWxfYmluZGluZycsICctaW1hZScsICc8aW5maWxlLm1hZT4nLCAnLW9tYWUnLCAnPG91dGZpbGUubWFlPic=

> <r_epik_Ionization_Penalty>
0.000849261

> <r_epik_Ionization_Penalty_Charging>
0.000847912

> <r_epik_Ionization_Penalty_Neutral>
1.34939e-06

> <r_epik_State_Penalty>
0.000546618

> <r_epik_Charging_Adjusted_Penalty>
0.00139453

> <i_epik_Tot_Q>
1

> <i_epik_Tot_abs_Q>
1

> <r_epik_Metal_State_Penalty>
0.526583

> <b_epik_Metal_Only>
0

> <s_lp_Force_Field>
OPLS_2005

> <r_lp_Energy>
29.4206

> <b_lp_Chiralities_Consistent>
1

> <s_lp_Variant>
AV-unprocessed.smi:949-3

> <Gold.Version>
5.8.1

> <Gold.Id.Protein>
6NUR|6NUR_protein|mol2

> <Gold.PLP.Fitness>
41.4449

> <Gold.PLP.PLP>
-34.6189

> <Gold.PLP.part.hbond>
-3.0000

> <Gold.PLP.part.metal>
0.0000

> <Gold.PLP.part.buried>
-1.2258

> <Gold.PLP.part.nonpolar>
-31.2972

> <Gold.PLP.part.repulsive>
0.3733

> <Gold.PLP.ligand.clash>
0.0000

> <Gold.PLP.ligand.torsion>
1.0935

> <Gold.PLP.Chemscore.Hbond>
3.0000

> <Gold.PLP.Chemscore.CHOScore>
0.0000

> <Gold.PLP.Chemscore.Metal>
0.0000

> <Gold.Chemscore.Hbonds>
donor molecule, donor type, donor heavy atom, donor atom, acceptor molecule, acceptor atom, score
      L1  H     7    33       P1  7948  2.00
      L1  H    10    24       P1  8028  1.00

> <Gold.PLP.Chemscore.Internal.Correction>
0.0130

> <Gold.Rescore>
     Score         DG    S(hbond)    S(metal)    S(lipo)     H(rot)  DE(clash)    DE(int)     intcor
     17.48     -19.43       1.78        0.00      95.51       1.23       0.85       1.10       ----

> <Gold.Chemscore.Fitness>
17.4829

> <Gold.Chemscore.DG>
-19.4279

> <Gold.Chemscore.ZeroCoef>
-5.4800

> <Gold.Chemscore.Hbond>
1.7766

> <Gold.Chemscore.Metal>
0.0000

> <Gold.Chemscore.Lipo>
95.5113

> <Gold.Chemscore.Internal_Hbond>
0.0000

> <Gold.Chemscore.DEClash>
0.8478

> <Gold.Chemscore.DEInternal>
1.0972

> <Gold.Chemscore.Rot>
1.2347

> <Gold.Chemscore.Internal.Correction>
   9.000000E+99

> <Gold.Chemscore.Hbonds>
donor molecule, donor type, donor heavy atom, donor atom, acceptor molecule, acceptor atom, score
      L1  H     7    33       P1  7948  0.93
      L1  H    10    24       P1  8028  0.97

> <Gold.Chemscore.Hbond.Weighted>
-5.9340

> <Gold.Chemscore.Metal.Weighted>
-0.0000

> <Gold.Chemscore.Lipo.Weighted>
-11.1748

> <Gold.Chemscore.Internal_Hbond.Weighted>
0.0000

> <Gold.Chemscore.DEClash.Weighted>
0.8478

> <Gold.Chemscore.DEInternal.Weighted>
1.0972

> <Gold.Chemscore.Rot.Weighted>
3.1609

> <Gold.Chemscore.Internal.Correction.Weighted>
   9.000000E+99

> <Gold.Protein.RotatedTorsions>
[ 6907 6896 6895 6894 ] final   77.61 input  -60.11 | X-H torsion
[ 7974 7965 7964 7962 ] final -139.37 input  175.53 | X-H torsion
[ 8008 7997 7996 7995 ] final -126.79 input   59.86 | X-H torsion
[ 10167 10162 10161 10158 ] final  123.89 input  -65.29 | X-H torsion
[ 10718 10713 10712 10709 ] final  -61.01 input   66.30 | X-H torsion
[ 10763 10752 10751 10750 ] final  -29.64 input  -60.55 | X-H torsion
[ 11005 11000 10999 10996 ] final  154.24 input  -57.11 | X-H torsion

> <Gold.Protein.ActiveResidues>
 VAL166  LYS551  ARG553  GLY616  TRP617  ASP618  TYR619  PRO620  LYS621  CYS622 
 ASP623  PHE694  ASN695  SER759  ASP760  ASP761  ALA762  ILE779  LEU786  VAL792 
 PHE793  MET794  SER795  GLU796  ALA797  LYS798  CYS799  TRP800  GLU811  SER814 

> <Gold.Protein.RotatedAtoms>
  152.5125  134.3791  159.9344 H   0  0  0  0  0  0  0  0  0  0  0  0  # atno 6907 bound_to 6896
  151.3747  133.3836  159.2711 H   0  0  0  0  0  0  0  0  0  0  0  0  # atno 6908 bound_to 6896
  150.9550  134.8965  159.7754 H   0  0  0  0  0  0  0  0  0  0  0  0  # atno 6909 bound_to 6896
  144.8683  140.6327  143.5284 H   0  0  0  0  0  0  0  0  0  0  0  0  # atno 7974 bound_to 7965
  155.2355  140.0427  157.2968 H   0  0  0  0  0  0  0  0  0  0  0  0  # atno 8008 bound_to 7997
  154.5861  140.2414  155.7955 H   0  0  0  0  0  0  0  0  0  0  0  0  # atno 8009 bound_to 7997
  156.2227  140.2964  156.0000 H   0  0  0  0  0  0  0  0  0  0  0  0  # atno 8010 bound_to 7997
  139.5773  144.6969  151.3620 H   0  0  0  0  0  0  0  0  0  0  0  0  # atno 10167 bound_to 10162
  156.0951  130.4194  150.0934 H   0  0  0  0  0  0  0  0  0  0  0  0  # atno 10718 bound_to 10713
  153.7680  135.6914  153.4912 H   0  0  0  0  0  0  0  0  0  0  0  0  # atno 10763 bound_to 10752
  153.1894  135.4477  155.0128 H   0  0  0  0  0  0  0  0  0  0  0  0  # atno 10764 bound_to 10752
  154.8128  135.3385  154.7191 H   0  0  0  0  0  0  0  0  0  0  0  0  # atno 10765 bound_to 10752
  140.1471  134.8700  157.2406 H   0  0  0  0  0  0  0  0  0  0  0  0  # atno 11005 bound_to 11000
  145.4180  139.1569  143.4090 LP  0  0  0  0  0  0  0  0  0  0  0  0  # atno 17320 bound_to 7965
  146.2911  140.4288  142.8739 LP  0  0  0  0  0  0  0  0  0  0  0  0  # atno 17321 bound_to 7965
  140.7054  143.7526  150.7474 LP  0  0  0  0  0  0  0  0  0  0  0  0  # atno 17342 bound_to 10162
  140.1049  143.4753  152.2404 LP  0  0  0  0  0  0  0  0  0  0  0  0  # atno 17343 bound_to 10162
  156.8935  130.9596  151.3585 LP  0  0  0  0  0  0  0  0  0  0  0  0  # atno 17370 bound_to 10713
  157.6110  130.8583  149.8951 LP  0  0  0  0  0  0  0  0  0  0  0  0  # atno 17371 bound_to 10713
  140.2651  134.3526  155.7393 LP  0  0  0  0  0  0  0  0  0  0  0  0  # atno 17394 bound_to 11000
  141.2194  133.7391  156.9138 LP  0  0  0  0  0  0  0  0  0  0  0  0  # atno 17395 bound_to 11000

$$$$
