AV-unprocessed.smi:3087|AV-procd|sdf|11767|dock3
  -GOLD-   2272017143D 1   1.00000     0.00000
 Structure written by MMmdl.
 31 32  0  0  0  0  0  0  0  0  2 V2000
  154.3328  140.5782  161.2880 C   0  0  0  0  0  0  0  0  0  0  0  0
  153.4107  141.5710  160.6443 C   0  0  0  0  0  0  0  0  0  0  0  0
  153.0951  142.8898  161.0727 C   0  0  0  0  0  0  0  0  0  0  0  0
  152.2216  143.3514  160.1286 C   0  0  0  0  0  0  0  0  0  0  0  0
  151.5519  144.6816  160.0136 C   0  0  0  0  0  0  0  0  0  0  0  0
  152.0315  142.3267  159.2165 N   0  0  0  0  0  0  0  0  0  0  0  0
  151.2296  142.3241  157.9971 C   0  0  1  0  0  0  0  0  0  0  0  0
  151.5012  141.0563  157.1651 C   0  0  0  0  0  0  0  0  0  0  0  0
  150.6502  141.0628  155.8860 C   0  0  0  0  0  0  0  0  0  0  0  0
  149.1591  141.2420  156.2176 C   0  0  0  0  0  0  0  0  0  0  0  0
  148.9440  142.4659  157.0203 N   0  3  0  0  0  0  0  0  0  0  0  0
  149.7169  142.4696  158.2816 C   0  0  0  0  0  0  0  0  0  0  0  0
  152.7811  141.2452  159.5285 N   0  0  0  0  0  0  0  0  0  0  0  0
  154.8294  141.0080  162.1580 H   0  0  0  0  0  0  0  0  0  0  0  0
  155.1066  140.2513  160.5928 H   0  0  0  0  0  0  0  0  0  0  0  0
  153.7870  139.6947  161.6197 H   0  0  0  0  0  0  0  0  0  0  0  0
  153.4629  143.4214  161.9380 H   0  0  0  0  0  0  0  0  0  0  0  0
  151.9487  145.3818  160.7489 H   0  0  0  0  0  0  0  0  0  0  0  0
  150.4786  144.5915  160.1817 H   0  0  0  0  0  0  0  0  0  0  0  0
  151.7080  145.1134  159.0247 H   0  0  0  0  0  0  0  0  0  0  0  0
  151.5317  143.1892  157.4057 H   0  0  0  0  0  0  0  0  0  0  0  0
  152.5590  140.9926  156.9071 H   0  0  0  0  0  0  0  0  0  0  0  0
  151.2701  140.1667  157.7527 H   0  0  0  0  0  0  0  0  0  0  0  0
  150.9798  141.8705  155.2310 H   0  0  0  0  0  0  0  0  0  0  0  0
  150.8017  140.1352  155.3329 H   0  0  0  0  0  0  0  0  0  0  0  0
  148.5728  141.3091  155.3010 H   0  0  0  0  0  0  0  0  0  0  0  0
  148.7874  140.3792  156.7720 H   0  0  0  0  0  0  0  0  0  0  0  0
  149.2227  143.2653  156.4695 H   0  0  0  0  0  0  0  0  0  0  0  0
  149.3525  141.6559  158.9103 H   0  0  0  0  0  0  0  0  0  0  0  0
  149.5182  143.3994  158.8152 H   0  0  0  0  0  0  0  0  0  0  0  0
  147.9611  142.5471  157.2387 H   0  0  0  0  0  0  0  0  0  0  0  0
  1  2  1  0  0  0  0
  1 14  1  0  0  0  0
  1 15  1  0  0  0  0
  1 16  1  0  0  0  0
  2 13  2  0  0  0  0
  2  3  1  0  0  0  0
  3  4  2  0  0  0  0
  3 17  1  0  0  0  0
  4  5  1  0  0  0  0
  4  6  1  0  0  0  0
  5 18  1  0  0  0  0
  5 19  1  0  0  0  0
  5 20  1  0  0  0  0
  6  7  1  0  0  0  0
  6 13  1  0  0  0  0
  7 12  1  0  0  0  0
  7  8  1  0  0  0  0
  7 21  1  0  0  0  0
  8  9  1  0  0  0  0
  8 22  1  0  0  0  0
  8 23  1  0  0  0  0
  9 10  1  0  0  0  0
  9 24  1  0  0  0  0
  9 25  1  0  0  0  0
 10 11  1  0  0  0  0
 10 26  1  0  0  0  0
 10 27  1  0  0  0  0
 11 12  1  0  0  0  0
 11 28  1  0  0  0  0
 11 31  1  0  0  0  0
 12 29  1  0  0  0  0
 12 30  1  0  0  0  0
M  CHG  1  11   1
M  END
> <s_m_source_file>
AV-unprocessed.smi

> <i_m_source_file_index>
3087

> <i_lp_mmshare_version>
43012

> <i_f3d_flags>
0

> <s_epik_input>
W0NIM11jMVtjSF1jKFtDSDNdKW4objEpW0NAQEhdMltDSDJdW0NIMl1bQ0gyXVtOSF1bQ0gyXTI=

> <s_epik_cmdline>
J2VwaWtfcHl0aG9uJywgJy1waCcsICc3LjAnLCAnLXRuJywgJzgnLCAnLW1hJywgJzIwMCcsICctbWV0YWxfYmluZGluZycsICctaW1hZScsICc8aW5maWxlLm1hZT4nLCAnLW9tYWUnLCAnPG91dGZpbGUubWFlPic=

> <r_lp_tautomer_probability>
1

> <r_epik_Ionization_Penalty>
0.000855662

> <r_epik_Ionization_Penalty_Charging>
0.000651447

> <r_epik_Ionization_Penalty_Neutral>
0.000204215

> <r_epik_State_Penalty>
-0

> <r_epik_Charging_Adjusted_Penalty>
0.000651447

> <i_epik_Tot_Q>
1

> <i_epik_Tot_abs_Q>
1

> <r_epik_Metal_State_Penalty>
-0

> <b_epik_Metal_Only>
0

> <s_lp_Force_Field>
OPLS_2005

> <r_lp_Energy>
14.514

> <b_lp_Chiralities_Consistent>
1

> <s_lp_Variant>
AV-unprocessed.smi:3087-2

> <Gold.Version>
5.8.1

> <Gold.Id.Protein>
6NUR|6NUR_protein|mol2

> <Gold.PLP.Fitness>
37.5198

> <Gold.PLP.PLP>
-31.6349

> <Gold.PLP.part.hbond>
-1.0000

> <Gold.PLP.part.metal>
0.0000

> <Gold.PLP.part.buried>
-4.7935

> <Gold.PLP.part.nonpolar>
-26.2997

> <Gold.PLP.part.repulsive>
0.0095

> <Gold.PLP.ligand.clash>
0.0000

> <Gold.PLP.ligand.torsion>
0.0760

> <Gold.PLP.Chemscore.Hbond>
2.0000

> <Gold.PLP.Chemscore.CHOScore>
0.0000

> <Gold.PLP.Chemscore.Metal>
0.0000

> <Gold.Chemscore.Hbonds>
donor molecule, donor type, donor heavy atom, donor atom, acceptor molecule, acceptor atom, score
      L1  H    11    28       P1  8028  2.00

> <Gold.PLP.Chemscore.Internal.Correction>
0.0371

> <Gold.Rescore>
     Score         DG    S(hbond)    S(metal)    S(lipo)     H(rot)  DE(clash)    DE(int)     intcor
     16.16     -16.19       0.97        0.00      85.63       1.00       0.00       0.02       ----

> <Gold.Chemscore.Fitness>
16.1647

> <Gold.Chemscore.DG>
-16.1900

> <Gold.Chemscore.ZeroCoef>
-5.4800

> <Gold.Chemscore.Hbond>
0.9734

> <Gold.Chemscore.Metal>
0.0000

> <Gold.Chemscore.Lipo>
85.6313

> <Gold.Chemscore.Internal_Hbond>
0.0000

> <Gold.Chemscore.DEClash>
0.0048

> <Gold.Chemscore.DEInternal>
0.0205

> <Gold.Chemscore.Rot>
1.0000

> <Gold.Chemscore.Internal.Correction>
   9.000000E+99

> <Gold.Chemscore.Hbonds>
donor molecule, donor type, donor heavy atom, donor atom, acceptor molecule, acceptor atom, score
      L1  H    11    28       P1  8028  0.96

> <Gold.Chemscore.Hbond.Weighted>
-3.2512

> <Gold.Chemscore.Metal.Weighted>
-0.0000

> <Gold.Chemscore.Lipo.Weighted>
-10.0189

> <Gold.Chemscore.Internal_Hbond.Weighted>
0.0000

> <Gold.Chemscore.DEClash.Weighted>
0.0048

> <Gold.Chemscore.DEInternal.Weighted>
0.0205

> <Gold.Chemscore.Rot.Weighted>
2.5600

> <Gold.Chemscore.Internal.Correction.Weighted>
   9.000000E+99

> <Gold.Protein.RotatedTorsions>
[ 6907 6896 6895 6894 ] final   -6.53 input  -60.11 | X-H torsion
[ 7974 7965 7964 7962 ] final  -57.78 input  175.53 | X-H torsion
[ 8008 7997 7996 7995 ] final  -85.08 input   59.86 | X-H torsion
[ 10167 10162 10161 10158 ] final   89.33 input  -65.29 | X-H torsion
[ 10718 10713 10712 10709 ] final   -5.92 input   66.30 | X-H torsion
[ 10763 10752 10751 10750 ] final  -97.30 input  -60.55 | X-H torsion
[ 11005 11000 10999 10996 ] final   -1.10 input  -57.11 | X-H torsion

> <Gold.Protein.ActiveResidues>
 VAL166  LYS551  ARG553  GLY616  TRP617  ASP618  TYR619  PRO620  LYS621  CYS622 
 ASP623  PHE694  ASN695  SER759  ASP760  ASP761  ALA762  ILE779  LEU786  VAL792 
 PHE793  MET794  SER795  GLU796  ALA797  LYS798  CYS799  TRP800  GLU811  SER814 

> <Gold.Protein.RotatedAtoms>
  151.4642  135.1041  159.9732 H   0  0  0  0  0  0  0  0  0  0  0  0  # atno 6907 bound_to 6896
  152.4841  133.8325  159.7121 H   0  0  0  0  0  0  0  0  0  0  0  0  # atno 6908 bound_to 6896
  150.8937  133.7149  159.2924 H   0  0  0  0  0  0  0  0  0  0  0  0  # atno 6909 bound_to 6896
  145.8471  140.8378  143.0005 H   0  0  0  0  0  0  0  0  0  0  0  0  # atno 7974 bound_to 7965
  154.6368  140.0596  156.9798 H   0  0  0  0  0  0  0  0  0  0  0  0  # atno 8008 bound_to 7997
  155.1579  140.3280  155.4399 H   0  0  0  0  0  0  0  0  0  0  0  0  # atno 8009 bound_to 7997
  156.2511  140.1936  156.6688 H   0  0  0  0  0  0  0  0  0  0  0  0  # atno 8010 bound_to 7997
  139.8583  144.6557  150.9088 H   0  0  0  0  0  0  0  0  0  0  0  0  # atno 10167 bound_to 10162
  156.7395  130.5205  149.5827 H   0  0  0  0  0  0  0  0  0  0  0  0  # atno 10718 bound_to 10713
  154.7316  135.5051  153.8973 H   0  0  0  0  0  0  0  0  0  0  0  0  # atno 10763 bound_to 10752
  153.0955  135.6671  153.9780 H   0  0  0  0  0  0  0  0  0  0  0  0  # atno 10764 bound_to 10752
  153.9580  135.3051  155.3414 H   0  0  0  0  0  0  0  0  0  0  0  0  # atno 10765 bound_to 10752
  140.6436  133.9467  155.8340 H   0  0  0  0  0  0  0  0  0  0  0  0  # atno 11005 bound_to 11000
  144.6730  140.0897  143.7465 LP  0  0  0  0  0  0  0  0  0  0  0  0  # atno 17320 bound_to 7965
  145.9400  139.2662  143.1274 LP  0  0  0  0  0  0  0  0  0  0  0  0  # atno 17321 bound_to 7965
  140.7778  143.3766  151.1551 LP  0  0  0  0  0  0  0  0  0  0  0  0  # atno 17342 bound_to 10162
  139.7398  143.8942  152.3046 LP  0  0  0  0  0  0  0  0  0  0  0  0  # atno 17343 bound_to 10162
  156.1474  130.6286  151.0550 LP  0  0  0  0  0  0  0  0  0  0  0  0  # atno 17370 bound_to 10713
  157.6824  131.0834  150.7333 LP  0  0  0  0  0  0  0  0  0  0  0  0  # atno 17371 bound_to 10713
  141.0589  134.0376  157.3686 LP  0  0  0  0  0  0  0  0  0  0  0  0  # atno 17394 bound_to 11000
  139.9071  135.0182  156.7533 LP  0  0  0  0  0  0  0  0  0  0  0  0  # atno 17395 bound_to 11000

$$$$
