AV-unprocessed.smi:613|AV-procd|sdf|3067|dock8
  -GOLD-   2262023593D 1   1.00000     0.00000
 Structure written by MMmdl.
 39 40  0  0  0  0  0  0  0  0  2 V2000
  150.9190  139.7283  157.3507 C   0  0  0  0  0  0  0  0  0  0  0  0
  151.1691  141.1069  156.9482 N   0  0  0  0  0  0  0  0  0  0  0  0
  150.6980  141.5507  155.6340 C   0  0  0  0  0  0  0  0  0  0  0  0
  149.2044  141.2553  155.3908 C   0  0  1  0  0  0  0  0  0  0  0  0
  148.2726  141.8927  156.4441 C   0  0  0  0  0  0  0  0  0  0  0  0
  146.8553  141.6977  156.1286 N   0  0  0  0  0  0  0  0  0  0  0  0
  145.9407  142.2983  157.1098 C   0  0  0  0  0  0  0  0  0  0  0  0
  146.4078  142.1804  158.5654 C   0  0  0  0  0  0  0  0  0  0  0  0
  146.9365  143.2726  159.1223 N   0  0  0  0  0  0  0  0  0  0  0  0
  146.2846  141.1216  159.1780 O   0  0  0  0  0  0  0  0  0  0  0  0
  146.5835  142.1827  154.7789 C   0  0  0  0  0  0  0  0  0  0  0  0
  147.5169  141.5401  153.7402 C   0  0  0  0  0  0  0  0  0  0  0  0
  148.8716  141.7780  154.1079 O   0  0  0  0  0  0  0  0  0  0  0  0
  151.5625  142.0455  157.9318 C   0  0  0  0  0  0  0  0  0  0  0  0
  152.3694  141.7022  159.0445 C   0  0  0  0  0  0  0  0  0  0  0  0
  152.6951  142.6988  159.9799 C   0  0  0  0  0  0  0  0  0  0  0  0
  152.1977  143.9924  159.7524 C   0  0  0  0  0  0  0  0  0  0  0  0
  151.4363  144.3125  158.6844 N   0  0  0  0  0  0  0  0  0  0  0  0
  151.1450  143.3356  157.8087 N   0  3  0  0  0  0  0  0  0  0  0  0
  151.8253  139.2735  157.7513 H   0  0  0  0  0  0  0  0  0  0  0  0
  150.5944  139.1265  156.5013 H   0  0  0  0  0  0  0  0  0  0  0  0
  150.1371  139.6829  158.1093 H   0  0  0  0  0  0  0  0  0  0  0  0
  150.9106  142.6055  155.4606 H   0  0  0  0  0  0  0  0  0  0  0  0
  151.2845  141.0182  154.8846 H   0  0  0  0  0  0  0  0  0  0  0  0
  149.0490  140.1751  155.3702 H   0  0  0  0  0  0  0  0  0  0  0  0
  148.5054  141.4523  157.4125 H   0  0  0  0  0  0  0  0  0  0  0  0
  148.4876  142.9598  156.5247 H   0  0  0  0  0  0  0  0  0  0  0  0
  145.7882  143.3542  156.8796 H   0  0  0  0  0  0  0  0  0  0  0  0
  144.9585  141.8287  157.0341 H   0  0  0  0  0  0  0  0  0  0  0  0
  147.2520  143.2464  160.0811 H   0  0  0  0  0  0  0  0  0  0  0  0
  147.0124  144.1237  158.5845 H   0  0  0  0  0  0  0  0  0  0  0  0
  145.5482  141.9710  154.5082 H   0  0  0  0  0  0  0  0  0  0  0  0
  146.6984  143.2675  154.7417 H   0  0  0  0  0  0  0  0  0  0  0  0
  147.3346  140.4670  153.6661 H   0  0  0  0  0  0  0  0  0  0  0  0
  147.3358  141.9653  152.7528 H   0  0  0  0  0  0  0  0  0  0  0  0
  152.7371  140.6989  159.1989 H   0  0  0  0  0  0  0  0  0  0  0  0
  153.3032  142.4790  160.8448 H   0  0  0  0  0  0  0  0  0  0  0  0
  152.4176  144.7937  160.4425 H   0  0  0  0  0  0  0  0  0  0  0  0
  150.5673  143.5732  157.0024 H   0  0  0  0  0  0  0  0  0  0  0  0
  1  2  1  0  0  0  0
  1 20  1  0  0  0  0
  1 21  1  0  0  0  0
  1 22  1  0  0  0  0
  2  3  1  0  0  0  0
  2 14  1  0  0  0  0
  3  4  1  0  0  0  0
  3 23  1  0  0  0  0
  3 24  1  0  0  0  0
  4 13  1  0  0  0  0
  4  5  1  0  0  0  0
  4 25  1  0  0  0  0
  5  6  1  0  0  0  0
  5 26  1  0  0  0  0
  5 27  1  0  0  0  0
  6  7  1  0  0  0  0
  6 11  1  0  0  0  0
  7  8  1  0  0  0  0
  7 28  1  0  0  0  0
  7 29  1  0  0  0  0
  8  9  1  0  0  0  0
  8 10  2  0  0  0  0
  9 30  1  0  0  0  0
  9 31  1  0  0  0  0
 11 12  1  0  0  0  0
 11 32  1  0  0  0  0
 11 33  1  0  0  0  0
 12 13  1  0  0  0  0
 12 34  1  0  0  0  0
 12 35  1  0  0  0  0
 14 19  1  0  0  0  0
 14 15  2  0  0  0  0
 15 16  1  0  0  0  0
 15 36  1  0  0  0  0
 16 17  2  0  0  0  0
 16 37  1  0  0  0  0
 17 18  1  0  0  0  0
 17 38  1  0  0  0  0
 18 19  2  0  0  0  0
 19 39  1  0  0  0  0
M  CHG  1  19   1
M  END
> <s_m_source_file>
AV-unprocessed.smi

> <i_m_source_file_index>
613

> <i_lp_mmshare_version>
43012

> <i_f3d_flags>
0

> <s_epik_input>
bjFuW2NIXVtjSF1bY0hdYzFOKFtDSDNdKVtDSDJdW0NAQEhdMltDSDJdTihbQ0gyXVtDSDJdTzIpW0NIMl1DKD1PKVtOSDJd

> <s_epik_cmdline>
J2VwaWtfcHl0aG9uJywgJy1waCcsICc3LjAnLCAnLXRuJywgJzgnLCAnLW1hJywgJzIwMCcsICctbWV0YWxfYmluZGluZycsICctaW1hZScsICc8aW5maWxlLm1hZT4nLCAnLW9tYWUnLCAnPG91dGZpbGUubWFlPic=

> <r_lp_tautomer_probability>
0.966961

> <r_epik_Ionization_Penalty>
1.86301

> <r_epik_Ionization_Penalty_Charging>
1.86058

> <r_epik_Ionization_Penalty_Neutral>
0.00243207

> <r_epik_State_Penalty>
1.48112

> <r_epik_Charging_Adjusted_Penalty>
3.3417

> <i_epik_Tot_Q>
1

> <i_epik_Tot_abs_Q>
1

> <r_epik_Metal_State_Penalty>
1.50193

> <b_epik_Metal_Only>
0

> <s_lp_Force_Field>
OPLS_2005

> <r_lp_Energy>
27.4635

> <b_lp_Chiralities_Consistent>
1

> <s_lp_Variant>
AV-unprocessed.smi:613-4

> <Gold.Version>
5.8.1

> <Gold.Id.Protein>
6NUR|6NUR_protein|mol2

> <Gold.PLP.Fitness>
45.3911

> <Gold.PLP.PLP>
-33.5248

> <Gold.PLP.part.hbond>
-4.0000

> <Gold.PLP.part.metal>
0.0000

> <Gold.PLP.part.buried>
-2.7729

> <Gold.PLP.part.nonpolar>
-26.3677

> <Gold.PLP.part.repulsive>
0.5121

> <Gold.PLP.ligand.clash>
0.0000

> <Gold.PLP.ligand.torsion>
0.7864

> <Gold.PLP.Chemscore.Hbond>
4.4120

> <Gold.PLP.Chemscore.CHOScore>
0.0000

> <Gold.PLP.Chemscore.Metal>
0.0000

> <Gold.Chemscore.Hbonds>
donor molecule, donor type, donor heavy atom, donor atom, acceptor molecule, acceptor atom, score
      L1  H     9    31       P1  8029  0.10
      L1  H    19    39       P1  8028  0.03
      P1  H  6934  6946       L1    10  0.61
      P1  H  8011  8017       L1    13  0.45

> <Gold.PLP.Chemscore.Internal.Correction>
0.2031

> <Gold.Rescore>
     Score         DG    S(hbond)    S(metal)    S(lipo)     H(rot)  DE(clash)    DE(int)     intcor
     14.63     -16.91       2.61        0.00      72.01       2.23       1.69       0.59       ----

> <Gold.Chemscore.Fitness>
14.6288

> <Gold.Chemscore.DG>
-16.9128

> <Gold.Chemscore.ZeroCoef>
-5.4800

> <Gold.Chemscore.Hbond>
2.6134

> <Gold.Chemscore.Metal>
0.0000

> <Gold.Chemscore.Lipo>
72.0089

> <Gold.Chemscore.Internal_Hbond>
0.0000

> <Gold.Chemscore.DEClash>
1.6939

> <Gold.Chemscore.DEInternal>
0.5901

> <Gold.Chemscore.Rot>
2.2348

> <Gold.Chemscore.Internal.Correction>
   9.000000E+99

> <Gold.Chemscore.Hbonds>
donor molecule, donor type, donor heavy atom, donor atom, acceptor molecule, acceptor atom, score
      L1  H     9    31       P1  8029  0.10
      L1  H    19    39       P1  8028  0.07
      P1  H  6934  6946       L1    10  0.60
      P1  H  8011  8017       L1    13  0.21

> <Gold.Chemscore.Hbond.Weighted>
-8.7289

> <Gold.Chemscore.Metal.Weighted>
-0.0000

> <Gold.Chemscore.Lipo.Weighted>
-8.4250

> <Gold.Chemscore.Internal_Hbond.Weighted>
0.0000

> <Gold.Chemscore.DEClash.Weighted>
1.6939

> <Gold.Chemscore.DEInternal.Weighted>
0.5901

> <Gold.Chemscore.Rot.Weighted>
5.7211

> <Gold.Chemscore.Internal.Correction.Weighted>
   9.000000E+99

> <Gold.Protein.RotatedTorsions>
[ 6907 6896 6895 6894 ] final  170.83 input  -60.11 | X-H torsion
[ 7974 7965 7964 7962 ] final -152.64 input  175.53 | X-H torsion
[ 8008 7997 7996 7995 ] final -110.01 input   59.86 | X-H torsion
[ 10167 10162 10161 10158 ] final  -39.07 input  -65.29 | X-H torsion
[ 10718 10713 10712 10709 ] final  156.11 input   66.30 | X-H torsion
[ 10763 10752 10751 10750 ] final   56.98 input  -60.55 | X-H torsion
[ 11005 11000 10999 10996 ] final    5.12 input  -57.11 | X-H torsion

> <Gold.Protein.ActiveResidues>
 VAL166  LYS551  ARG553  GLY616  TRP617  ASP618  TYR619  PRO620  LYS621  CYS622 
 ASP623  PHE694  ASN695  SER759  ASP760  ASP761  ALA762  ILE779  LEU786  VAL792 
 PHE793  MET794  SER795  GLU796  ALA797  LYS798  CYS799  TRP800  GLU811  SER814 

> <Gold.Protein.RotatedAtoms>
  151.8099  133.3380  159.3551 H   0  0  0  0  0  0  0  0  0  0  0  0  # atno 6907 bound_to 6896
  150.7330  134.5674  159.5882 H   0  0  0  0  0  0  0  0  0  0  0  0  # atno 6908 bound_to 6896
  152.3083  134.7530  160.0393 H   0  0  0  0  0  0  0  0  0  0  0  0  # atno 6909 bound_to 6896
  144.7783  140.4634  143.5857 H   0  0  0  0  0  0  0  0  0  0  0  0  # atno 7974 bound_to 7965
  154.9679  140.0398  157.2221 H   0  0  0  0  0  0  0  0  0  0  0  0  # atno 8008 bound_to 7997
  154.7828  140.2822  155.6028 H   0  0  0  0  0  0  0  0  0  0  0  0  # atno 8009 bound_to 7997
  156.2938  140.2588  156.2657 H   0  0  0  0  0  0  0  0  0  0  0  0  # atno 8010 bound_to 7997
  140.7074  143.3237  151.2730 H   0  0  0  0  0  0  0  0  0  0  0  0  # atno 10167 bound_to 10162
  157.2094  131.0694  151.1979 H   0  0  0  0  0  0  0  0  0  0  0  0  # atno 10718 bound_to 10713
  152.9841  135.5657  154.5316 H   0  0  0  0  0  0  0  0  0  0  0  0  # atno 10763 bound_to 10752
  154.4786  135.2787  155.1590 H   0  0  0  0  0  0  0  0  0  0  0  0  # atno 10764 bound_to 10752
  154.3108  135.6289  153.5518 H   0  0  0  0  0  0  0  0  0  0  0  0  # atno 10765 bound_to 10752
  140.5743  134.0073  155.8021 H   0  0  0  0  0  0  0  0  0  0  0  0  # atno 11005 bound_to 11000
  145.6123  139.1514  143.3069 LP  0  0  0  0  0  0  0  0  0  0  0  0  # atno 17320 bound_to 7965
  146.1976  140.6238  142.9117 LP  0  0  0  0  0  0  0  0  0  0  0  0  # atno 17321 bound_to 7965
  139.6699  144.0039  152.2746 LP  0  0  0  0  0  0  0  0  0  0  0  0  # atno 17342 bound_to 10162
  139.9634  144.6543  150.8058 LP  0  0  0  0  0  0  0  0  0  0  0  0  # atno 17343 bound_to 10162
  157.3688  130.7170  149.6551 LP  0  0  0  0  0  0  0  0  0  0  0  0  # atno 17370 bound_to 10713
  155.9692  130.4205  150.4424 LP  0  0  0  0  0  0  0  0  0  0  0  0  # atno 17371 bound_to 10713
  141.1036  133.9729  157.3035 LP  0  0  0  0  0  0  0  0  0  0  0  0  # atno 17394 bound_to 11000
  139.9347  135.0197  156.8516 LP  0  0  0  0  0  0  0  0  0  0  0  0  # atno 17395 bound_to 11000

$$$$
