AV-unprocessed.smi:1046|AV-procd|sdf|4556|dock6
  -GOLD-   22720 2593D 1   1.00000     0.00000
 Structure written by MMmdl.
 54 56  0  0  0  0  0  0  0  0  3 V2000
  153.3807  143.2193  159.9230 C   0  0  0  0  0  0  0  0  0  0  0  0
  152.5591  142.4831  158.8795 C   0  0  0  0  0  0  0  0  0  0  0  0
  152.5740  141.0702  158.8653 C   0  0  0  0  0  0  0  0  0  0  0  0
  151.8223  140.3475  157.9135 C   0  0  0  0  0  0  0  0  0  0  0  0
  151.6848  138.9832  157.7240 N   0  0  0  0  0  0  0  0  0  0  0  0
  150.8519  138.9379  156.6888 C   0  0  0  0  0  0  0  0  0  0  0  0
  150.4237  140.1136  156.1903 N   0  0  0  0  0  0  0  0  0  0  0  0
  149.5068  140.3080  155.0823 C   0  0  0  0  0  0  0  0  0  0  0  0
  148.8720  138.9875  154.6031 C   0  0  2  0  0  0  0  0  0  0  0  0
  149.8178  138.3244  153.7891 O   0  0  0  0  0  0  0  0  0  0  0  0
  147.5700  139.1844  153.7949 C   0  0  0  0  0  0  0  0  0  0  0  0
  146.9353  137.8984  153.4060 N   0  3  2  0  0  0  0  0  0  0  0  0
  145.9326  138.0722  152.3255 C   0  0  0  0  0  0  0  0  0  0  0  0
  145.3599  136.7155  151.8746 C   0  0  0  0  0  0  0  0  0  0  0  0
  144.7736  135.9608  153.0099 N   0  3  2  0  0  0  0  0  0  0  0  0
  143.4411  136.4675  153.4364 C   0  0  0  0  0  0  0  0  0  0  0  0
  142.6679  135.4444  154.2856 C   0  0  0  0  0  0  0  0  0  0  0  0
  142.4699  134.2574  153.5475 O   0  0  0  0  0  0  0  0  0  0  0  0
  145.7610  135.8007  154.1094 C   0  0  0  0  0  0  0  0  0  0  0  0
  146.3645  137.1488  154.5561 C   0  0  0  0  0  0  0  0  0  0  0  0
  151.0493  141.0829  156.9679 C   0  0  0  0  0  0  0  0  0  0  0  0
  151.0294  142.4890  156.9692 C   0  0  0  0  0  0  0  0  0  0  0  0
  151.7858  143.1952  157.9278 C   0  0  0  0  0  0  0  0  0  0  0  0
  151.7567  144.7133  157.9230 C   0  0  0  0  0  0  0  0  0  0  0  0
  153.8791  142.5253  160.6002 H   0  0  0  0  0  0  0  0  0  0  0  0
  152.7441  143.8705  160.5222 H   0  0  0  0  0  0  0  0  0  0  0  0
  154.1471  143.8290  159.4442 H   0  0  0  0  0  0  0  0  0  0  0  0
  153.1649  140.5281  159.5890 H   0  0  0  0  0  0  0  0  0  0  0  0
  150.5277  137.9949  156.2729 H   0  0  0  0  0  0  0  0  0  0  0  0
  148.7358  141.0158  155.3898 H   0  0  0  0  0  0  0  0  0  0  0  0
  150.0553  140.7818  154.2667 H   0  0  0  0  0  0  0  0  0  0  0  0
  148.6861  138.3622  155.4758 H   0  0  0  0  0  0  0  0  0  0  0  0
  149.7361  138.6462  152.9037 H   0  0  0  0  0  0  0  0  0  0  0  0
  146.8429  139.7728  154.3555 H   0  0  0  0  0  0  0  0  0  0  0  0
  147.8050  139.7658  152.9019 H   0  0  0  0  0  0  0  0  0  0  0  0
  145.1323  138.7287  152.6703 H   0  0  0  0  0  0  0  0  0  0  0  0
  146.3978  138.5642  151.4703 H   0  0  0  0  0  0  0  0  0  0  0  0
  144.6206  136.8525  151.0846 H   0  0  0  0  0  0  0  0  0  0  0  0
  146.1586  136.1135  151.4391 H   0  0  0  0  0  0  0  0  0  0  0  0
  143.5496  137.4031  153.9849 H   0  0  0  0  0  0  0  0  0  0  0  0
  142.8382  136.7043  152.5583 H   0  0  0  0  0  0  0  0  0  0  0  0
  143.1761  135.2155  155.2214 H   0  0  0  0  0  0  0  0  0  0  0  0
  141.6903  135.8490  154.5491 H   0  0  0  0  0  0  0  0  0  0  0  0
  142.2637  133.5572  154.1493 H   0  0  0  0  0  0  0  0  0  0  0  0
  145.3184  135.2826  154.9595 H   0  0  0  0  0  0  0  0  0  0  0  0
  146.5620  135.1533  153.7496 H   0  0  0  0  0  0  0  0  0  0  0  0
  147.1369  136.9555  155.2996 H   0  0  0  0  0  0  0  0  0  0  0  0
  145.6079  137.7594  155.0502 H   0  0  0  0  0  0  0  0  0  0  0  0
  150.4369  143.0206  156.2395 H   0  0  0  0  0  0  0  0  0  0  0  0
  151.1499  145.0977  157.1027 H   0  0  0  0  0  0  0  0  0  0  0  0
  152.7638  145.1155  157.8099 H   0  0  0  0  0  0  0  0  0  0  0  0
  151.3367  145.0890  158.8563 H   0  0  0  0  0  0  0  0  0  0  0  0
  147.6740  137.3286  153.0171 H   0  0  0  0  0  0  0  0  0  0  0  0
  144.5876  135.0332  152.6531 H   0  0  0  0  0  0  0  0  0  0  0  0
  1  2  1  0  0  0  0
  1 25  1  0  0  0  0
  1 26  1  0  0  0  0
  1 27  1  0  0  0  0
  2 23  1  0  0  0  0
  2  3  2  0  0  0  0
  3  4  1  0  0  0  0
  3 28  1  0  0  0  0
  4 21  2  0  0  0  0
  4  5  1  0  0  0  0
  5  6  2  0  0  0  0
  6  7  1  0  0  0  0
  6 29  1  0  0  0  0
  7  8  1  0  0  0  0
  7 21  1  0  0  0  0
  8  9  1  0  0  0  0
  8 30  1  0  0  0  0
  8 31  1  0  0  0  0
  9 10  1  0  0  0  0
  9 11  1  0  0  0  0
  9 32  1  0  0  0  0
 10 33  1  0  0  0  0
 11 12  1  0  0  0  0
 11 34  1  0  0  0  0
 11 35  1  0  0  0  0
 12 20  1  0  0  0  0
 12 13  1  0  0  0  0
 12 53  1  0  0  0  0
 13 14  1  0  0  0  0
 13 36  1  0  0  0  0
 13 37  1  0  0  0  0
 14 15  1  0  0  0  0
 14 38  1  0  0  0  0
 14 39  1  0  0  0  0
 15 16  1  0  0  0  0
 15 19  1  0  0  0  0
 15 54  1  0  0  0  0
 16 17  1  0  0  0  0
 16 40  1  0  0  0  0
 16 41  1  0  0  0  0
 17 18  1  0  0  0  0
 17 42  1  0  0  0  0
 17 43  1  0  0  0  0
 18 44  1  0  0  0  0
 19 20  1  0  0  0  0
 19 45  1  0  0  0  0
 19 46  1  0  0  0  0
 20 47  1  0  0  0  0
 20 48  1  0  0  0  0
 21 22  1  0  0  0  0
 22 23  2  0  0  0  0
 22 49  1  0  0  0  0
 23 24  1  0  0  0  0
 24 50  1  0  0  0  0
 24 51  1  0  0  0  0
 24 52  1  0  0  0  0
M  CHG  1  12   1
M  CHG  1  15   1
M  END
> <s_m_source_file>
AV-unprocessed.smi

> <i_m_source_file_index>
1046

> <i_lp_mmshare_version>
43012

> <i_f3d_flags>
0

> <s_epik_input>
W0NIM11jKFtjSF0xKWMoW0NIM10pW2NIXWMoYzEyKW4oW2NIXW4yKVtDSDJdW0NASF0oW09IXSlbQ0gyXU4zW0NIMl1bQ0gyXU4oW0NIMl1bQ0gyXTMpW0NIMl1bQ0gyXVtPSF0=

> <s_epik_cmdline>
J2VwaWtfcHl0aG9uJywgJy1waCcsICc3LjAnLCAnLXRuJywgJzgnLCAnLW1hJywgJzIwMCcsICctbWV0YWxfYmluZGluZycsICctaW1hZScsICc8aW5maWxlLm1hZT4nLCAnLW9tYWUnLCAnPG91dGZpbGUubWFlPic=

> <r_epik_Ionization_Penalty>
3.17398

> <r_epik_Ionization_Penalty_Charging>
3.09061

> <r_epik_Ionization_Penalty_Neutral>
0.0833726

> <r_epik_State_Penalty>
2.17606

> <r_epik_Charging_Adjusted_Penalty>
5.26667

> <i_epik_Tot_Q>
2

> <i_epik_Tot_abs_Q>
2

> <r_epik_Metal_State_Penalty>
2.08587

> <b_epik_Metal_Only>
0

> <s_lp_Force_Field>
OPLS_2005

> <r_lp_Energy>
31.2877

> <b_lp_Chiralities_Consistent>
1

> <s_lp_Variant>
AV-unprocessed.smi:1046-9

> <Gold.Version>
5.8.1

> <Gold.Id.Protein>
6NUR|6NUR_protein|mol2

> <Gold.PLP.Fitness>
55.3987

> <Gold.PLP.PLP>
-43.9836

> <Gold.PLP.part.hbond>
-4.0000

> <Gold.PLP.part.metal>
0.0000

> <Gold.PLP.part.buried>
-2.7704

> <Gold.PLP.part.nonpolar>
-37.8332

> <Gold.PLP.part.repulsive>
0.0378

> <Gold.PLP.ligand.clash>
0.0000

> <Gold.PLP.ligand.torsion>
0.4331

> <Gold.PLP.Chemscore.Hbond>
4.0000

> <Gold.PLP.Chemscore.CHOScore>
0.0000

> <Gold.PLP.Chemscore.Metal>
0.0000

> <Gold.Chemscore.Hbonds>
donor molecule, donor type, donor heavy atom, donor atom, acceptor molecule, acceptor atom, score
      L1  H    10    33       P1  7957  0.52
      L1  H    12    53       P1  7948  1.95
      L1  H    18    44       P1 10957  0.98

> <Gold.PLP.Chemscore.Internal.Correction>
0.2813

> <Gold.Rescore>
     Score         DG    S(hbond)    S(metal)    S(lipo)     H(rot)  DE(clash)    DE(int)     intcor
     20.20     -20.80       2.94        0.00     118.99       3.28       0.20       0.39       ----

> <Gold.Chemscore.Fitness>
20.2042

> <Gold.Chemscore.DG>
-20.8013

> <Gold.Chemscore.ZeroCoef>
-5.4800

> <Gold.Chemscore.Hbond>
2.9352

> <Gold.Chemscore.Metal>
0.0000

> <Gold.Chemscore.Lipo>
118.9895

> <Gold.Chemscore.Internal_Hbond>
0.0000

> <Gold.Chemscore.DEClash>
0.2049

> <Gold.Chemscore.DEInternal>
0.3921

> <Gold.Chemscore.Rot>
3.2828

> <Gold.Chemscore.Internal.Correction>
   9.000000E+99

> <Gold.Chemscore.Hbonds>
donor molecule, donor type, donor heavy atom, donor atom, acceptor molecule, acceptor atom, score
      L1  H    10    33       P1  7957  0.41
      L1  H    12    53       P1  7948  0.92
      L1  H    18    44       P1 10957  0.93

> <Gold.Chemscore.Hbond.Weighted>
-9.8034

> <Gold.Chemscore.Metal.Weighted>
-0.0000

> <Gold.Chemscore.Lipo.Weighted>
-13.9218

> <Gold.Chemscore.Internal_Hbond.Weighted>
0.0000

> <Gold.Chemscore.DEClash.Weighted>
0.2049

> <Gold.Chemscore.DEInternal.Weighted>
0.3921

> <Gold.Chemscore.Rot.Weighted>
8.4039

> <Gold.Chemscore.Internal.Correction.Weighted>
   9.000000E+99

> <Gold.Protein.RotatedTorsions>
[ 6907 6896 6895 6894 ] final -125.28 input  -60.11 | X-H torsion
[ 7974 7965 7964 7962 ] final   43.16 input  175.53 | X-H torsion
[ 8008 7997 7996 7995 ] final   61.96 input   59.86 | X-H torsion
[ 10167 10162 10161 10158 ] final   95.17 input  -65.29 | X-H torsion
[ 10718 10713 10712 10709 ] final  100.55 input   66.30 | X-H torsion
[ 10763 10752 10751 10750 ] final   78.19 input  -60.55 | X-H torsion
[ 11005 11000 10999 10996 ] final   41.23 input  -57.11 | X-H torsion

> <Gold.Protein.ActiveResidues>
 VAL166  LYS551  ARG553  GLY616  TRP617  ASP618  TYR619  PRO620  LYS621  CYS622 
 ASP623  PHE694  ASN695  SER759  ASP760  ASP761  ALA762  ILE779  LEU786  VAL792 
 PHE793  MET794  SER795  GLU796  ALA797  LYS798  CYS799  TRP800  GLU811  SER814 

> <Gold.Protein.RotatedAtoms>
  150.8851  133.7318  159.2920 H   0  0  0  0  0  0  0  0  0  0  0  0  # atno 6907 bound_to 6896
  151.4887  135.1055  159.9807 H   0  0  0  0  0  0  0  0  0  0  0  0  # atno 6908 bound_to 6896
  152.4785  133.8150  159.7079 H   0  0  0  0  0  0  0  0  0  0  0  0  # atno 6909 bound_to 6896
  146.0679  139.5218  142.9616 H   0  0  0  0  0  0  0  0  0  0  0  0  # atno 7974 bound_to 7965
  155.6068  140.3494  155.4610 H   0  0  0  0  0  0  0  0  0  0  0  0  # atno 8008 bound_to 7997
  156.0186  140.1248  157.0405 H   0  0  0  0  0  0  0  0  0  0  0  0  # atno 8009 bound_to 7997
  154.4306  140.1067  156.5917 H   0  0  0  0  0  0  0  0  0  0  0  0  # atno 8010 bound_to 7997
  139.8014  144.6812  150.9760 H   0  0  0  0  0  0  0  0  0  0  0  0  # atno 10167 bound_to 10162
  157.6851  131.0701  150.5117 H   0  0  0  0  0  0  0  0  0  0  0  0  # atno 10718 bound_to 10713
  153.0855  135.4886  154.8588 H   0  0  0  0  0  0  0  0  0  0  0  0  # atno 10763 bound_to 10752
  154.7205  135.3038  154.9057 H   0  0  0  0  0  0  0  0  0  0  0  0  # atno 10764 bound_to 10752
  153.9723  135.6799  153.4800 H   0  0  0  0  0  0  0  0  0  0  0  0  # atno 10765 bound_to 10752
  140.1854  134.4052  155.8176 H   0  0  0  0  0  0  0  0  0  0  0  0  # atno 11005 bound_to 11000
  145.6444  141.0277  143.1794 LP  0  0  0  0  0  0  0  0  0  0  0  0  # atno 17320 bound_to 7965
  144.7213  139.8020  143.7381 LP  0  0  0  0  0  0  0  0  0  0  0  0  # atno 17321 bound_to 7965
  140.7820  143.4277  151.0742 LP  0  0  0  0  0  0  0  0  0  0  0  0  # atno 17342 bound_to 10162
  139.7949  143.8166  152.3156 LP  0  0  0  0  0  0  0  0  0  0  0  0  # atno 17343 bound_to 10162
  156.5434  130.4214  149.6143 LP  0  0  0  0  0  0  0  0  0  0  0  0  # atno 17370 bound_to 10713
  156.2965  130.7153  151.2015 LP  0  0  0  0  0  0  0  0  0  0  0  0  # atno 17371 bound_to 10713
  141.2224  133.7020  156.8004 LP  0  0  0  0  0  0  0  0  0  0  0  0  # atno 17394 bound_to 11000
  140.2219  134.8750  157.3386 LP  0  0  0  0  0  0  0  0  0  0  0  0  # atno 17395 bound_to 11000

$$$$
