AV-unprocessed.smi:1756|AV-procd|sdf|7074|dock5
  -GOLD-   22720 8293D 1   1.00000     0.00000
 Structure written by MMmdl.
 37 38  0  0  0  0  0  0  0  0  2 V2000
  151.5489  138.2170  158.5493 O   0  0  0  0  0  0  0  0  0  0  0  0
  150.4538  138.7735  158.4720 C   0  0  0  0  0  0  0  0  0  0  0  0
  150.3062  140.0589  158.1209 N   0  0  0  0  0  0  0  0  0  0  0  0
  151.3897  140.9766  157.7829 C   0  0  0  0  0  0  0  0  0  0  0  0
  151.2977  142.2976  158.5684 C   0  0  1  0  0  0  0  0  0  0  0  0
  152.5149  142.5579  159.4821 C   0  0  0  0  0  0  0  0  0  0  0  0
  152.4077  143.9331  160.1503 C   0  0  0  0  0  0  0  0  0  0  0  0
  152.1772  145.0104  159.0863 C   0  0  0  0  0  0  0  0  0  0  0  0
  150.9819  144.6335  158.1978 C   0  0  0  0  0  0  0  0  0  0  0  0
  151.1971  143.3522  157.6136 O   0  0  0  0  0  0  0  0  0  0  0  0
  149.2600  138.2144  158.7394 N   0  0  0  0  0  0  0  0  0  0  0  0
  148.9514  136.8996  159.1289 C   0  0  0  0  0  0  0  0  0  0  0  0
  148.2547  136.5594  160.2488 C   0  0  0  0  0  0  0  0  0  0  0  0
  147.9786  135.1734  160.6051 C   0  0  0  0  0  0  0  0  0  0  0  0
  147.1220  134.7643  161.7904 C   0  0  0  0  0  0  0  0  0  0  0  0
  147.7845  133.9380  162.6005 F   0  0  0  0  0  0  0  0  0  0  0  0
  146.7733  135.8422  162.4913 F   0  0  0  0  0  0  0  0  0  0  0  0
  146.0082  134.1536  161.3856 F   0  0  0  0  0  0  0  0  0  0  0  0
  148.4910  134.2825  159.6820 C   0  0  0  0  0  0  0  0  0  0  0  0
  149.2109  134.5335  158.5667 N   0  5  0  0  0  0  0  0  0  0  0  0
  149.4644  135.8331  158.2440 C   0  0  0  0  0  0  0  0  0  0  0  0
  150.1085  136.1321  157.2377 O   0  0  0  0  0  0  0  0  0  0  0  0
  149.3696  140.4342  158.0896 H   0  0  0  0  0  0  0  0  0  0  0  0
  152.3655  140.5106  157.9303 H   0  0  0  0  0  0  0  0  0  0  0  0
  151.3137  141.1859  156.7155 H   0  0  0  0  0  0  0  0  0  0  0  0
  150.3863  142.2837  159.1689 H   0  0  0  0  0  0  0  0  0  0  0  0
  152.5923  141.7882  160.2499 H   0  0  0  0  0  0  0  0  0  0  0  0
  153.4324  142.5061  158.8947 H   0  0  0  0  0  0  0  0  0  0  0  0
  151.5784  143.9322  160.8588 H   0  0  0  0  0  0  0  0  0  0  0  0
  153.3101  144.1487  160.7228 H   0  0  0  0  0  0  0  0  0  0  0  0
  152.0076  145.9782  159.5588 H   0  0  0  0  0  0  0  0  0  0  0  0
  153.0707  145.1140  158.4695 H   0  0  0  0  0  0  0  0  0  0  0  0
  150.0539  144.6330  158.7716 H   0  0  0  0  0  0  0  0  0  0  0  0
  150.8618  145.3673  157.4006 H   0  0  0  0  0  0  0  0  0  0  0  0
  148.4585  138.8260  158.6859 H   0  0  0  0  0  0  0  0  0  0  0  0
  147.8945  137.3127  160.9292 H   0  0  0  0  0  0  0  0  0  0  0  0
  148.2877  133.2056  159.8642 H   0  0  0  0  0  0  0  0  0  0  0  0
  1  2  2  0  0  0  0
  2  3  1  0  0  0  0
  2 11  1  0  0  0  0
  3  4  1  0  0  0  0
  3 23  1  0  0  0  0
  4  5  1  0  0  0  0
  4 24  1  0  0  0  0
  4 25  1  0  0  0  0
  5 10  1  0  0  0  0
  5  6  1  0  0  0  0
  5 26  1  0  0  0  0
  6  7  1  0  0  0  0
  6 27  1  0  0  0  0
  6 28  1  0  0  0  0
  7  8  1  0  0  0  0
  7 29  1  0  0  0  0
  7 30  1  0  0  0  0
  8  9  1  0  0  0  0
  8 31  1  0  0  0  0
  8 32  1  0  0  0  0
  9 10  1  0  0  0  0
  9 33  1  0  0  0  0
  9 34  1  0  0  0  0
 11 12  1  0  0  0  0
 11 35  1  0  0  0  0
 12 21  1  0  0  0  0
 12 13  2  0  0  0  0
 13 14  1  0  0  0  0
 13 36  1  0  0  0  0
 14 15  1  0  0  0  0
 14 19  2  0  0  0  0
 15 16  1  0  0  0  0
 15 17  1  0  0  0  0
 15 18  1  0  0  0  0
 19 20  1  0  0  0  0
 19 37  1  0  0  0  0
 20 21  1  0  0  0  0
 21 22  2  0  0  0  0
M  CHG  1  20  -1
M  END
> <s_m_source_file>
AV-unprocessed.smi

> <i_m_source_file_index>
1756

> <i_lp_mmshare_version>
43012

> <i_f3d_flags>
0

> <s_epik_input>
Tz1jMVtuSF1bY0hdYyhDKEYpKEYpRilbY0hdYzFbTkhdQyg9TylbTkhdW0NIMl1bQ0BASF0yW0NIMl1bQ0gyXVtDSDJdW0NIMl1PMg==

> <s_epik_cmdline>
J2VwaWtfcHl0aG9uJywgJy1waCcsICc3LjAnLCAnLXRuJywgJzgnLCAnLW1hJywgJzIwMCcsICctbWV0YWxfYmluZGluZycsICctaW1hZScsICc8aW5maWxlLm1hZT4nLCAnLW9tYWUnLCAnPG91dGZpbGUubWFlPic=

> <r_lp_tautomer_probability>
1

> <r_epik_Ionization_Penalty>
3.16985

> <r_epik_Ionization_Penalty_Charging>
0.174782

> <r_epik_Ionization_Penalty_Neutral>
2.99507

> <r_epik_State_Penalty>
2.99125

> <r_epik_Charging_Adjusted_Penalty>
3.16603

> <i_epik_Tot_Q>
-1

> <i_epik_Tot_abs_Q>
1

> <r_epik_Metal_State_Penalty>
0.453096

> <b_epik_Metal_Only>
1

> <s_lp_Force_Field>
OPLS_2005

> <r_lp_Energy>
20.8362

> <b_lp_Chiralities_Consistent>
1

> <s_lp_Variant>
AV-unprocessed.smi:1756-4

> <Gold.Version>
5.8.1

> <Gold.Id.Protein>
6NUR|6NUR_protein|mol2

> <Gold.PLP.Fitness>
41.8064

> <Gold.PLP.PLP>
-38.7165

> <Gold.PLP.part.hbond>
-1.0000

> <Gold.PLP.part.metal>
0.0000

> <Gold.PLP.part.buried>
-5.7582

> <Gold.PLP.part.nonpolar>
-33.7958

> <Gold.PLP.part.repulsive>
0.5025

> <Gold.PLP.ligand.clash>
0.0000

> <Gold.PLP.ligand.torsion>
1.3353

> <Gold.PLP.Chemscore.Hbond>
1.9000

> <Gold.PLP.Chemscore.CHOScore>
0.0000

> <Gold.PLP.Chemscore.Metal>
0.0000

> <Gold.Chemscore.Hbonds>
donor molecule, donor type, donor heavy atom, donor atom, acceptor molecule, acceptor atom, score
      P1  H  6896  6908       L1    20  1.20

> <Gold.PLP.Chemscore.Internal.Correction>
0.0604

> <Gold.Rescore>
     Score         DG    S(hbond)    S(metal)    S(lipo)     H(rot)  DE(clash)    DE(int)     intcor
      9.77     -13.97       0.34        0.00      91.80       1.32       0.15       4.04       ----

> <Gold.Chemscore.Fitness>
9.7715

> <Gold.Chemscore.DG>
-13.9661

> <Gold.Chemscore.ZeroCoef>
-5.4800

> <Gold.Chemscore.Hbond>
0.3404

> <Gold.Chemscore.Metal>
0.0000

> <Gold.Chemscore.Lipo>
91.8006

> <Gold.Chemscore.Internal_Hbond>
0.0000

> <Gold.Chemscore.DEClash>
0.1547

> <Gold.Chemscore.DEInternal>
4.0398

> <Gold.Chemscore.Rot>
1.3248

> <Gold.Chemscore.Internal.Correction>
   9.000000E+99

> <Gold.Chemscore.Hbonds>
donor molecule, donor type, donor heavy atom, donor atom, acceptor molecule, acceptor atom, score
      P1  H  6896  6908       L1    20  0.02

> <Gold.Chemscore.Hbond.Weighted>
-1.1369

> <Gold.Chemscore.Metal.Weighted>
-0.0000

> <Gold.Chemscore.Lipo.Weighted>
-10.7407

> <Gold.Chemscore.Internal_Hbond.Weighted>
0.0000

> <Gold.Chemscore.DEClash.Weighted>
0.1547

> <Gold.Chemscore.DEInternal.Weighted>
4.0398

> <Gold.Chemscore.Rot.Weighted>
3.3915

> <Gold.Chemscore.Internal.Correction.Weighted>
   9.000000E+99

> <Gold.Protein.RotatedTorsions>
[ 6907 6896 6895 6894 ] final  133.73 input  -60.11 | X-H torsion
[ 7974 7965 7964 7962 ] final   86.06 input  175.53 | X-H torsion
[ 8008 7997 7996 7995 ] final -130.56 input   59.86 | X-H torsion
[ 10167 10162 10161 10158 ] final   62.17 input  -65.29 | X-H torsion
[ 10718 10713 10712 10709 ] final -159.31 input   66.30 | X-H torsion
[ 10763 10752 10751 10750 ] final -144.15 input  -60.55 | X-H torsion
[ 11005 11000 10999 10996 ] final  112.10 input  -57.11 | X-H torsion

> <Gold.Protein.ActiveResidues>
 VAL166  LYS551  ARG553  GLY616  TRP617  ASP618  TYR619  PRO620  LYS621  CYS622 
 ASP623  PHE694  ASN695  SER759  ASP760  ASP761  ALA762  ILE779  LEU786  VAL792 
 PHE793  MET794  SER795  GLU796  ALA797  LYS798  CYS799  TRP800  GLU811  SER814 

> <Gold.Protein.RotatedAtoms>
  152.3188  133.5831  159.5730 H   0  0  0  0  0  0  0  0  0  0  0  0  # atno 6907 bound_to 6896
  150.7360  134.0042  159.3657 H   0  0  0  0  0  0  0  0  0  0  0  0  # atno 6908 bound_to 6896
  151.7928  135.0731  160.0440 H   0  0  0  0  0  0  0  0  0  0  0  0  # atno 6909 bound_to 6896
  145.5773  139.2321  143.2372 H   0  0  0  0  0  0  0  0  0  0  0  0  # atno 7974 bound_to 7965
  155.2977  140.0451  157.3027 H   0  0  0  0  0  0  0  0  0  0  0  0  # atno 8008 bound_to 7997
  154.5504  140.2315  155.8461 H   0  0  0  0  0  0  0  0  0  0  0  0  # atno 8009 bound_to 7997
  156.1962  140.3038  155.9438 H   0  0  0  0  0  0  0  0  0  0  0  0  # atno 8010 bound_to 7997
  140.1468  144.4501  150.6781 H   0  0  0  0  0  0  0  0  0  0  0  0  # atno 10167 bound_to 10162
  156.5663  130.8669  151.2824 H   0  0  0  0  0  0  0  0  0  0  0  0  # atno 10718 bound_to 10713
  154.8440  135.3448  154.6301 H   0  0  0  0  0  0  0  0  0  0  0  0  # atno 10763 bound_to 10752
  153.6911  135.6975  153.5094 H   0  0  0  0  0  0  0  0  0  0  0  0  # atno 10764 bound_to 10752
  153.2594  135.4327  155.0834 H   0  0  0  0  0  0  0  0  0  0  0  0  # atno 10765 bound_to 10752
  139.8919  134.9522  156.6534 H   0  0  0  0  0  0  0  0  0  0  0  0  # atno 11005 bound_to 11000
  146.1741  140.6600  142.9219 LP  0  0  0  0  0  0  0  0  0  0  0  0  # atno 17320 bound_to 7965
  144.7410  140.4941  143.6869 LP  0  0  0  0  0  0  0  0  0  0  0  0  # atno 17321 bound_to 7965
  140.6727  143.2292  151.5585 LP  0  0  0  0  0  0  0  0  0  0  0  0  # atno 17342 bound_to 10162
  139.5445  144.2558  152.1415 LP  0  0  0  0  0  0  0  0  0  0  0  0  # atno 17343 bound_to 10162
  157.7358  130.9768  150.2101 LP  0  0  0  0  0  0  0  0  0  0  0  0  # atno 17370 bound_to 10713
  156.2754  130.3727  149.7988 LP  0  0  0  0  0  0  0  0  0  0  0  0  # atno 17371 bound_to 10713
  140.7503  133.8903  155.8342 LP  0  0  0  0  0  0  0  0  0  0  0  0  # atno 17394 bound_to 11000
  141.0006  134.1155  157.4321 LP  0  0  0  0  0  0  0  0  0  0  0  0  # atno 17395 bound_to 11000

$$$$
