AV-unprocessed.smi:1230|AV-procd|sdf|5155|dock1
  -GOLD-   22720 4223D 1   1.00000     0.00000
 Structure written by MMmdl.
 38 39  0  0  0  0  0  0  0  0  2 V2000
  153.0069  141.3592  159.9387 C   0  0  0  0  0  0  0  0  0  0  0  0
  152.0736  142.5806  159.9714 C   0  0  1  0  0  0  0  0  0  0  0  0
  152.8509  143.8465  160.3852 C   0  0  0  0  0  0  0  0  0  0  0  0
  151.9452  145.0866  160.4192 C   0  0  0  0  0  0  0  0  0  0  0  0
  151.2520  145.2981  159.0664 C   0  0  0  0  0  0  0  0  0  0  0  0
  150.4629  144.0480  158.6510 C   0  0  0  0  0  0  0  0  0  0  0  0
  151.3610  142.7928  158.6161 C   0  0  2  0  0  0  0  0  0  0  0  0
  150.5616  141.6442  158.3611 O   0  0  0  0  0  0  0  0  0  0  0  0
  149.8955  141.6568  157.1077 C   0  0  0  0  0  0  0  0  0  0  0  0
  150.8996  141.2506  156.0198 C   0  0  0  0  0  0  0  0  0  0  0  0
  151.0819  139.7941  155.9734 N   0  0  0  0  0  0  0  0  0  0  0  0
  151.6672  139.1767  157.0918 C   0  0  0  0  0  0  0  0  0  0  0  0
  151.8727  137.8468  157.1373 C   0  0  0  0  0  0  0  0  0  0  0  0
  152.4647  137.1956  158.2593 C   0  0  0  0  0  0  0  0  0  0  0  0
  152.9709  136.6847  159.1668 N   0  0  0  0  0  0  0  0  0  0  0  0
  151.4750  137.0373  155.9881 C   0  0  0  0  0  0  0  0  0  0  0  0
  151.6438  135.8186  156.0057 O   0  0  0  0  0  0  0  0  0  0  0  0
  150.9220  137.6909  154.9240 N   0  5  0  0  0  0  0  0  0  0  0  0
  150.7204  139.0454  154.8885 C   0  0  0  0  0  0  0  0  0  0  0  0
  150.2264  139.6115  153.9132 O   0  0  0  0  0  0  0  0  0  0  0  0
  153.7894  141.4783  159.1888 H   0  0  0  0  0  0  0  0  0  0  0  0
  152.4588  140.4462  159.7053 H   0  0  0  0  0  0  0  0  0  0  0  0
  153.4913  141.2102  160.9041 H   0  0  0  0  0  0  0  0  0  0  0  0
  151.3110  142.3947  160.7293 H   0  0  0  0  0  0  0  0  0  0  0  0
  153.3038  143.7011  161.3664 H   0  0  0  0  0  0  0  0  0  0  0  0
  153.6733  144.0181  159.6894 H   0  0  0  0  0  0  0  0  0  0  0  0
  151.1947  144.9718  161.2024 H   0  0  0  0  0  0  0  0  0  0  0  0
  152.5314  145.9685  160.6788 H   0  0  0  0  0  0  0  0  0  0  0  0
  150.5841  146.1581  159.1210 H   0  0  0  0  0  0  0  0  0  0  0  0
  151.9967  145.5314  158.3044 H   0  0  0  0  0  0  0  0  0  0  0  0
  149.6419  143.8894  159.3516 H   0  0  0  0  0  0  0  0  0  0  0  0
  150.0061  144.2214  157.6771 H   0  0  0  0  0  0  0  0  0  0  0  0
  152.1207  142.9058  157.8400 H   0  0  0  0  0  0  0  0  0  0  0  0
  149.0491  140.9701  157.1132 H   0  0  0  0  0  0  0  0  0  0  0  0
  149.5081  142.6563  156.9041 H   0  0  0  0  0  0  0  0  0  0  0  0
  150.5537  141.6153  155.0517 H   0  0  0  0  0  0  0  0  0  0  0  0
  151.8547  141.7511  156.1874 H   0  0  0  0  0  0  0  0  0  0  0  0
  151.9377  139.8436  157.8974 H   0  0  0  0  0  0  0  0  0  0  0  0
  1  2  1  0  0  0  0
  1 21  1  0  0  0  0
  1 22  1  0  0  0  0
  1 23  1  0  0  0  0
  2  7  1  0  0  0  0
  2  3  1  0  0  0  0
  2 24  1  0  0  0  0
  3  4  1  0  0  0  0
  3 25  1  0  0  0  0
  3 26  1  0  0  0  0
  4  5  1  0  0  0  0
  4 27  1  0  0  0  0
  4 28  1  0  0  0  0
  5  6  1  0  0  0  0
  5 29  1  0  0  0  0
  5 30  1  0  0  0  0
  6  7  1  0  0  0  0
  6 31  1  0  0  0  0
  6 32  1  0  0  0  0
  7  8  1  0  0  0  0
  7 33  1  0  0  0  0
  8  9  1  0  0  0  0
  9 10  1  0  0  0  0
  9 34  1  0  0  0  0
  9 35  1  0  0  0  0
 10 11  1  0  0  0  0
 10 36  1  0  0  0  0
 10 37  1  0  0  0  0
 11 19  1  0  0  0  0
 11 12  1  0  0  0  0
 12 13  2  0  0  0  0
 12 38  1  0  0  0  0
 13 14  1  0  0  0  0
 13 16  1  0  0  0  0
 14 15  3  0  0  0  0
 16 17  2  0  0  0  0
 16 18  1  0  0  0  0
 18 19  1  0  0  0  0
 19 20  2  0  0  0  0
M  CHG  1  18  -1
M  END
> <s_m_source_file>
AV-unprocessed.smi

> <i_m_source_file_index>
1230

> <i_lp_mmshare_version>
43012

> <i_f3d_flags>
0

> <s_epik_input>
W0NIM11bQ0BASF0xW0NIMl1bQ0gyXVtDSDJdW0NIMl1bQ0BIXTFPW0NIMl1bQ0gyXW4yW2NIXWMoQyNOKWMoPU8pW25IXWMyPU8=

> <s_epik_cmdline>
J2VwaWtfcHl0aG9uJywgJy1waCcsICc3LjAnLCAnLXRuJywgJzgnLCAnLW1hJywgJzIwMCcsICctbWV0YWxfYmluZGluZycsICctaW1hZScsICc8aW5maWxlLm1hZT4nLCAnLW9tYWUnLCAnPG91dGZpbGUubWFlPic=

> <r_epik_Ionization_Penalty>
0.400014

> <r_epik_Ionization_Penalty_Charging>
4.81474e-10

> <r_epik_Ionization_Penalty_Neutral>
0.400014

> <r_epik_State_Penalty>
0.399305

> <r_epik_Charging_Adjusted_Penalty>
0.399305

> <i_epik_Tot_Q>
-1

> <i_epik_Tot_abs_Q>
1

> <r_epik_Metal_State_Penalty>
0.00056968

> <b_epik_Metal_Only>
0

> <s_lp_Force_Field>
OPLS_2005

> <r_lp_Energy>
22.5171

> <b_lp_Chiralities_Consistent>
1

> <s_lp_Variant>
AV-unprocessed.smi:1230-4

> <Gold.Version>
5.8.1

> <Gold.Id.Protein>
6NUR|6NUR_protein|mol2

> <Gold.PLP.Fitness>
45.1058

> <Gold.PLP.PLP>
-36.4959

> <Gold.PLP.part.hbond>
-3.0000

> <Gold.PLP.part.metal>
0.0000

> <Gold.PLP.part.buried>
-6.0690

> <Gold.PLP.part.nonpolar>
-28.1557

> <Gold.PLP.part.repulsive>
1.3345

> <Gold.PLP.ligand.clash>
0.0000

> <Gold.PLP.ligand.torsion>
0.2101

> <Gold.PLP.Chemscore.Hbond>
3.0000

> <Gold.PLP.Chemscore.CHOScore>
0.0000

> <Gold.PLP.Chemscore.Metal>
0.0000

> <Gold.Chemscore.Hbonds>
donor molecule, donor type, donor heavy atom, donor atom, acceptor molecule, acceptor atom, score
      P1  H  6896  6908       L1    15  0.87
      P1  H  7989  7998       L1    20  1.00
      P1  H 10752 10765       L1    17  1.00

> <Gold.PLP.Chemscore.Internal.Correction>
0.0300

> <Gold.Rescore>
     Score         DG    S(hbond)    S(metal)    S(lipo)     H(rot)  DE(clash)    DE(int)     intcor
     19.20     -20.63       2.74        0.00      92.73       1.90       0.13       1.30       ----

> <Gold.Chemscore.Fitness>
19.1976

> <Gold.Chemscore.DG>
-20.6264

> <Gold.Chemscore.ZeroCoef>
-5.4800

> <Gold.Chemscore.Hbond>
2.7414

> <Gold.Chemscore.Metal>
0.0000

> <Gold.Chemscore.Lipo>
92.7339

> <Gold.Chemscore.Internal_Hbond>
0.0000

> <Gold.Chemscore.DEClash>
0.1278

> <Gold.Chemscore.DEInternal>
1.3011

> <Gold.Chemscore.Rot>
1.8984

> <Gold.Chemscore.Internal.Correction>
   9.000000E+99

> <Gold.Chemscore.Hbonds>
donor molecule, donor type, donor heavy atom, donor atom, acceptor molecule, acceptor atom, score
      P1  H  6896  6908       L1    15  0.79
      P1  H  7989  7998       L1    20  0.29
      P1  H 10752 10765       L1    17  0.60

> <Gold.Chemscore.Hbond.Weighted>
-9.1563

> <Gold.Chemscore.Metal.Weighted>
-0.0000

> <Gold.Chemscore.Lipo.Weighted>
-10.8499

> <Gold.Chemscore.Internal_Hbond.Weighted>
0.0000

> <Gold.Chemscore.DEClash.Weighted>
0.1278

> <Gold.Chemscore.DEInternal.Weighted>
1.3011

> <Gold.Chemscore.Rot.Weighted>
4.8598

> <Gold.Chemscore.Internal.Correction.Weighted>
   9.000000E+99

> <Gold.Protein.RotatedTorsions>
[ 6907 6896 6895 6894 ] final  -87.15 input  -60.11 | X-H torsion
[ 7974 7965 7964 7962 ] final   26.17 input  175.53 | X-H torsion
[ 8008 7997 7996 7995 ] final  -33.61 input   59.86 | X-H torsion
[ 10167 10162 10161 10158 ] final -130.45 input  -65.29 | X-H torsion
[ 10718 10713 10712 10709 ] final   86.11 input   66.30 | X-H torsion
[ 10763 10752 10751 10750 ] final -152.29 input  -60.55 | X-H torsion
[ 11005 11000 10999 10996 ] final  172.09 input  -57.11 | X-H torsion

> <Gold.Protein.ActiveResidues>
 VAL166  LYS551  ARG553  GLY616  TRP617  ASP618  TYR619  PRO620  LYS621  CYS622 
 ASP623  PHE694  ASN695  SER759  ASP760  ASP761  ALA762  ILE779  LEU786  VAL792 
 PHE793  MET794  SER795  GLU796  ALA797  LYS798  CYS799  TRP800  GLU811  SER814 

> <Gold.Protein.RotatedAtoms>
  150.6866  134.2941  159.4678 H   0  0  0  0  0  0  0  0  0  0  0  0  # atno 6907 bound_to 6896
  152.0843  134.9447  160.0582 H   0  0  0  0  0  0  0  0  0  0  0  0  # atno 6908 bound_to 6896
  152.0788  133.4107  159.4529 H   0  0  0  0  0  0  0  0  0  0  0  0  # atno 6909 bound_to 6896
  146.1851  139.7365  142.8872 H   0  0  0  0  0  0  0  0  0  0  0  0  # atno 7974 bound_to 7965
  154.4144  140.1706  156.1916 H   0  0  0  0  0  0  0  0  0  0  0  0  # atno 8008 bound_to 7997
  155.9598  140.3394  155.6457 H   0  0  0  0  0  0  0  0  0  0  0  0  # atno 8009 bound_to 7997
  155.6762  140.0717  157.2492 H   0  0  0  0  0  0  0  0  0  0  0  0  # atno 8010 bound_to 7997
  139.9292  143.6292  152.2534 H   0  0  0  0  0  0  0  0  0  0  0  0  # atno 10167 bound_to 10162
  157.6924  131.0202  150.2924 H   0  0  0  0  0  0  0  0  0  0  0  0  # atno 10718 bound_to 10713
  154.8003  135.3239  154.7566 H   0  0  0  0  0  0  0  0  0  0  0  0  # atno 10763 bound_to 10752
  153.8235  135.6885  153.4828 H   0  0  0  0  0  0  0  0  0  0  0  0  # atno 10764 bound_to 10752
  153.1716  135.4621  154.9854 H   0  0  0  0  0  0  0  0  0  0  0  0  # atno 10765 bound_to 10752
  140.3260  134.7397  157.4099 H   0  0  0  0  0  0  0  0  0  0  0  0  # atno 11005 bound_to 11000
  145.3961  141.0379  143.3096 LP  0  0  0  0  0  0  0  0  0  0  0  0  # atno 17320 bound_to 7965
  144.8383  139.5513  143.6912 LP  0  0  0  0  0  0  0  0  0  0  0  0  # atno 17321 bound_to 7965
  139.6797  144.7656  151.1632 LP  0  0  0  0  0  0  0  0  0  0  0  0  # atno 17342 bound_to 10162
  140.7642  143.5743  150.8962 LP  0  0  0  0  0  0  0  0  0  0  0  0  # atno 17343 bound_to 10162
  156.3453  130.3822  149.7375 LP  0  0  0  0  0  0  0  0  0  0  0  0  # atno 17370 bound_to 10713
  156.4870  130.8067  151.3079 LP  0  0  0  0  0  0  0  0  0  0  0  0  # atno 17371 bound_to 10713
  140.0901  134.5612  155.8453 LP  0  0  0  0  0  0  0  0  0  0  0  0  # atno 17394 bound_to 11000
  141.2075  133.6665  156.6310 LP  0  0  0  0  0  0  0  0  0  0  0  0  # atno 17395 bound_to 11000

$$$$
