AV-unprocessed.smi:2021|AV-procd|sdf|8184|dock4
  -GOLD-   2272010433D 1   1.00000     0.00000
 Structure written by MMmdl.
 41 42  0  0  0  0  0  0  0  0  3 V2000
  145.9588  132.0898  149.5942 C   0  0  0  0  0  0  0  0  0  0  0  0
  144.9917  131.5701  150.6714 C   0  0  0  0  0  0  0  0  0  0  0  0
  143.8021  132.5287  150.8300 C   0  0  0  0  0  0  0  0  0  0  0  0
  145.6995  131.3573  152.0270 C   0  0  0  0  0  0  0  0  0  0  0  0
  146.7498  130.3080  151.9812 N   0  3  2  0  0  0  0  0  0  0  0  0
  146.2381  128.9659  151.6089 C   0  0  0  0  0  0  0  0  0  0  0  0
  147.3903  127.9494  151.5534 C   0  0  0  0  0  0  0  0  0  0  0  0
  148.0658  127.9265  152.8038 O   0  0  0  0  0  0  0  0  0  0  0  0
  148.6502  129.1849  153.1256 C   0  0  2  0  0  0  0  0  0  0  0  0
  149.4302  129.0404  154.4390 C   0  0  0  0  0  0  0  0  0  0  0  0
  150.0687  130.2982  154.8005 N   0  0  0  0  0  0  0  0  0  0  0  0
  149.7881  131.0137  155.8966 C   0  0  0  0  0  0  0  0  0  0  0  0
  148.9355  130.6096  156.6906 O   0  0  0  0  0  0  0  0  0  0  0  0
  150.5116  132.1506  156.0039 N   0  5  0  0  0  0  0  0  0  0  0  0
  151.6568  132.1520  156.7064 C   0  0  0  0  0  0  0  0  0  0  0  0
  152.0235  133.1862  157.4806 N   0  0  0  0  0  0  0  0  0  0  0  0
  153.2397  132.9858  158.1195 N   0  0  0  0  0  0  0  0  0  0  0  0
  153.7662  131.8031  157.8017 C   0  0  0  0  0  0  0  0  0  0  0  0
  152.8268  130.8290  156.6905 S   0  0  0  0  0  0  0  0  0  0  0  0
  147.5259  130.2320  153.2416 C   0  0  0  0  0  0  0  0  0  0  0  0
  146.4037  133.0416  149.8862 H   0  0  0  0  0  0  0  0  0  0  0  0
  145.4428  132.2430  148.6458 H   0  0  0  0  0  0  0  0  0  0  0  0
  146.7699  131.3847  149.4107 H   0  0  0  0  0  0  0  0  0  0  0  0
  144.5837  130.6202  150.3268 H   0  0  0  0  0  0  0  0  0  0  0  0
  144.1279  133.5153  151.1618 H   0  0  0  0  0  0  0  0  0  0  0  0
  143.0869  132.1512  151.5615 H   0  0  0  0  0  0  0  0  0  0  0  0
  143.2689  132.6548  149.8871 H   0  0  0  0  0  0  0  0  0  0  0  0
  146.1493  132.3049  152.3286 H   0  0  0  0  0  0  0  0  0  0  0  0
  144.9760  131.1053  152.8041 H   0  0  0  0  0  0  0  0  0  0  0  0
  145.4932  128.6422  152.3376 H   0  0  0  0  0  0  0  0  0  0  0  0
  145.7434  128.9985  150.6390 H   0  0  0  0  0  0  0  0  0  0  0  0
  147.0018  126.9526  151.3440 H   0  0  0  0  0  0  0  0  0  0  0  0
  148.0891  128.1938  150.7517 H   0  0  0  0  0  0  0  0  0  0  0  0
  149.3413  129.4803  152.3333 H   0  0  0  0  0  0  0  0  0  0  0  0
  148.7514  128.7462  155.2412 H   0  0  0  0  0  0  0  0  0  0  0  0
  150.1847  128.2572  154.3506 H   0  0  0  0  0  0  0  0  0  0  0  0
  150.7762  130.6564  154.1757 H   0  0  0  0  0  0  0  0  0  0  0  0
  154.7147  131.5039  158.2218 H   0  0  0  0  0  0  0  0  0  0  0  0
  147.9587  131.2083  153.4644 H   0  0  0  0  0  0  0  0  0  0  0  0
  146.8578  129.9809  154.0672 H   0  0  0  0  0  0  0  0  0  0  0  0
  147.4044  130.5864  151.2640 H   0  0  0  0  0  0  0  0  0  0  0  0
  1  2  1  0  0  0  0
  1 21  1  0  0  0  0
  1 22  1  0  0  0  0
  1 23  1  0  0  0  0
  2  3  1  0  0  0  0
  2  4  1  0  0  0  0
  2 24  1  0  0  0  0
  3 25  1  0  0  0  0
  3 26  1  0  0  0  0
  3 27  1  0  0  0  0
  4  5  1  0  0  0  0
  4 28  1  0  0  0  0
  4 29  1  0  0  0  0
  5 20  1  0  0  0  0
  5  6  1  0  0  0  0
  5 41  1  0  0  0  0
  6  7  1  0  0  0  0
  6 30  1  0  0  0  0
  6 31  1  0  0  0  0
  7  8  1  0  0  0  0
  7 32  1  0  0  0  0
  7 33  1  0  0  0  0
  8  9  1  0  0  0  0
  9 10  1  0  0  0  0
  9 20  1  0  0  0  0
  9 34  1  0  0  0  0
 10 11  1  0  0  0  0
 10 35  1  0  0  0  0
 10 36  1  0  0  0  0
 11 12  1  0  0  0  0
 11 37  1  0  0  0  0
 12 13  2  0  0  0  0
 12 14  1  0  0  0  0
 14 15  1  0  0  0  0
 15 19  1  0  0  0  0
 15 16  2  0  0  0  0
 16 17  1  0  0  0  0
 17 18  2  0  0  0  0
 18 19  1  0  0  0  0
 18 38  1  0  0  0  0
 20 39  1  0  0  0  0
 20 40  1  0  0  0  0
M  CHG  1   5   1
M  CHG  1  14  -1
M  END
> <s_m_source_file>
AV-unprocessed.smi

> <i_m_source_file_index>
2021

> <i_lp_mmshare_version>
43012

> <i_f3d_flags>
0

> <s_epik_input>
W0NIM11bQ0hdKFtDSDNdKVtDSDJdTjFbQ0gyXVtDSDJdT1tDQEhdKFtDSDJdMSlbQ0gyXVtOSF1DKD1PKVtOSF1jMm5uW2NIXXMy

> <s_epik_cmdline>
J2VwaWtfcHl0aG9uJywgJy1waCcsICc3LjAnLCAnLXRuJywgJzgnLCAnLW1hJywgJzIwMCcsICctbWV0YWxfYmluZGluZycsICctaW1hZScsICc8aW5maWxlLm1hZT4nLCAnLW9tYWUnLCAnPG91dGZpbGUubWFlPic=

> <r_lp_tautomer_probability>
1

> <r_epik_Ionization_Penalty>
3.15762

> <r_epik_Ionization_Penalty_Charging>
3.12229

> <r_epik_Ionization_Penalty_Neutral>
0.0353298

> <r_epik_State_Penalty>
3.11266

> <r_epik_Charging_Adjusted_Penalty>
6.23495

> <i_epik_Tot_Q>
0

> <i_epik_Tot_abs_Q>
2

> <r_epik_Metal_State_Penalty>
0.541462

> <b_epik_Metal_Only>
1

> <s_lp_Force_Field>
OPLS_2005

> <r_lp_Energy>
10.6965

> <b_lp_Chiralities_Consistent>
1

> <s_lp_Variant>
AV-unprocessed.smi:2021-10

> <Gold.Version>
5.8.1

> <Gold.Id.Protein>
6NUR|6NUR_protein|mol2

> <Gold.PLP.Fitness>
37.3204

> <Gold.PLP.PLP>
-35.1777

> <Gold.PLP.part.hbond>
-3.0000

> <Gold.PLP.part.metal>
0.0000

> <Gold.PLP.part.buried>
-6.2237

> <Gold.PLP.part.nonpolar>
-26.6375

> <Gold.PLP.part.repulsive>
0.1221

> <Gold.PLP.ligand.clash>
0.0000

> <Gold.PLP.ligand.torsion>
1.0800

> <Gold.PLP.Chemscore.Hbond>
1.3919

> <Gold.PLP.Chemscore.CHOScore>
0.0000

> <Gold.PLP.Chemscore.Metal>
0.0000

> <Gold.Chemscore.Hbonds>
donor molecule, donor type, donor heavy atom, donor atom, acceptor molecule, acceptor atom, score
      L1  H     5    41       P1 10747  1.00
      P1  H  6896  6907       L1    16  0.22
      P1  H  6896  6909       L1    17  0.21

> <Gold.PLP.Chemscore.Internal.Correction>
0.1270

> <Gold.Rescore>
     Score         DG    S(hbond)    S(metal)    S(lipo)     H(rot)  DE(clash)    DE(int)     intcor
     13.46     -14.89       1.13        0.00      88.56       1.85       0.36       1.07       ----

> <Gold.Chemscore.Fitness>
13.4551

> <Gold.Chemscore.DG>
-14.8852

> <Gold.Chemscore.ZeroCoef>
-5.4800

> <Gold.Chemscore.Hbond>
1.1292

> <Gold.Chemscore.Metal>
0.0000

> <Gold.Chemscore.Lipo>
88.5555

> <Gold.Chemscore.Internal_Hbond>
0.0000

> <Gold.Chemscore.DEClash>
0.3583

> <Gold.Chemscore.DEInternal>
1.0718

> <Gold.Chemscore.Rot>
1.8466

> <Gold.Chemscore.Internal.Correction>
   9.000000E+99

> <Gold.Chemscore.Hbonds>
donor molecule, donor type, donor heavy atom, donor atom, acceptor molecule, acceptor atom, score
      L1  H     5    41       P1 10747  1.00
      P1  H  6896  6907       L1    16  0.02
      P1  H  6896  6909       L1    17  0.01

> <Gold.Chemscore.Hbond.Weighted>
-3.7714

> <Gold.Chemscore.Metal.Weighted>
-0.0000

> <Gold.Chemscore.Lipo.Weighted>
-10.3610

> <Gold.Chemscore.Internal_Hbond.Weighted>
0.0000

> <Gold.Chemscore.DEClash.Weighted>
0.3583

> <Gold.Chemscore.DEInternal.Weighted>
1.0718

> <Gold.Chemscore.Rot.Weighted>
4.7272

> <Gold.Chemscore.Internal.Correction.Weighted>
   9.000000E+99

> <Gold.Protein.RotatedTorsions>
[ 6907 6896 6895 6894 ] final -138.31 input  -60.11 | X-H torsion
[ 7974 7965 7964 7962 ] final  -88.62 input  175.53 | X-H torsion
[ 8008 7997 7996 7995 ] final  -69.43 input   59.86 | X-H torsion
[ 10167 10162 10161 10158 ] final  -44.03 input  -65.29 | X-H torsion
[ 10718 10713 10712 10709 ] final -107.11 input   66.30 | X-H torsion
[ 10763 10752 10751 10750 ] final   -9.56 input  -60.55 | X-H torsion
[ 11005 11000 10999 10996 ] final -139.51 input  -57.11 | X-H torsion

> <Gold.Protein.ActiveResidues>
 VAL166  LYS551  ARG553  GLY616  TRP617  ASP618  TYR619  PRO620  LYS621  CYS622 
 ASP623  PHE694  ASN695  SER759  ASP760  ASP761  ALA762  ILE779  LEU786  VAL792 
 PHE793  MET794  SER795  GLU796  ALA797  LYS798  CYS799  TRP800  GLU811  SER814 

> <Gold.Protein.RotatedAtoms>
  151.0334  133.5770  159.2658 H   0  0  0  0  0  0  0  0  0  0  0  0  # atno 6907 bound_to 6896
  151.2843  135.0722  159.9190 H   0  0  0  0  0  0  0  0  0  0  0  0  # atno 6908 bound_to 6896
  152.5349  134.0044  159.7963 H   0  0  0  0  0  0  0  0  0  0  0  0  # atno 6909 bound_to 6896
  145.4507  140.9560  143.2024 H   0  0  0  0  0  0  0  0  0  0  0  0  # atno 7974 bound_to 7965
  154.4938  140.0853  156.7652 H   0  0  0  0  0  0  0  0  0  0  0  0  # atno 8008 bound_to 7997
  155.4166  140.3444  155.4249 H   0  0  0  0  0  0  0  0  0  0  0  0  # atno 8009 bound_to 7997
  156.1366  140.1517  156.8972 H   0  0  0  0  0  0  0  0  0  0  0  0  # atno 8010 bound_to 7997
  140.6912  143.2951  151.3437 H   0  0  0  0  0  0  0  0  0  0  0  0  # atno 10167 bound_to 10162
  156.0421  130.5646  150.7775 H   0  0  0  0  0  0  0  0  0  0  0  0  # atno 10718 bound_to 10713
  153.4565  135.7015  153.6076 H   0  0  0  0  0  0  0  0  0  0  0  0  # atno 10763 bound_to 10752
  153.4389  135.3785  155.2216 H   0  0  0  0  0  0  0  0  0  0  0  0  # atno 10764 bound_to 10752
  154.8728  135.3969  154.3985 H   0  0  0  0  0  0  0  0  0  0  0  0  # atno 10765 bound_to 10752
  140.8513  134.2283  157.4759 H   0  0  0  0  0  0  0  0  0  0  0  0  # atno 11005 bound_to 11000
  144.8063  139.6045  143.7049 LP  0  0  0  0  0  0  0  0  0  0  0  0  # atno 17320 bound_to 7965
  146.2506  139.6191  142.9430 LP  0  0  0  0  0  0  0  0  0  0  0  0  # atno 17321 bound_to 7965
  139.6317  144.0708  152.2481 LP  0  0  0  0  0  0  0  0  0  0  0  0  # atno 17342 bound_to 10162
  140.0185  144.6171  150.7586 LP  0  0  0  0  0  0  0  0  0  0  0  0  # atno 17343 bound_to 10162
  157.5252  131.0933  151.0027 LP  0  0  0  0  0  0  0  0  0  0  0  0  # atno 17370 bound_to 10713
  157.0347  130.5725  149.5348 LP  0  0  0  0  0  0  0  0  0  0  0  0  # atno 17371 bound_to 10713
  139.8704  134.9684  156.4631 LP  0  0  0  0  0  0  0  0  0  0  0  0  # atno 17394 bound_to 11000
  140.8787  133.7934  155.9443 LP  0  0  0  0  0  0  0  0  0  0  0  0  # atno 17395 bound_to 11000

$$$$
