AV-unprocessed.smi:2140|AV-procd|sdf|8715|dock7
  -GOLD-   2272011483D 1   1.00000     0.00000
 Structure written by MMmdl.
 39 40  0  0  0  0  0  0  0  0  1 V2000
  147.2238  133.4740  153.0879 C   0  0  0  0  0  0  0  0  0  0  0  0
  145.7508  133.7750  152.7094 C   0  0  1  0  0  0  0  0  0  0  0  0
  145.3992  135.2206  153.1681 C   0  0  0  0  0  0  0  0  0  0  0  0
  146.5236  136.1487  153.0824 N   0  0  0  0  0  0  0  0  0  0  0  0
  146.5634  137.3634  153.6473 C   0  0  0  0  0  0  0  0  0  0  0  0
  145.6362  137.8371  154.3039 O   0  0  0  0  0  0  0  0  0  0  0  0
  147.7427  137.9660  153.4190 N   0  0  0  0  0  0  0  0  0  0  0  0
  148.1761  139.2493  153.8481 C   0  0  0  0  0  0  0  0  0  0  0  0
  147.3567  140.4040  153.8587 C   0  0  0  0  0  0  0  0  0  0  0  0
  147.9095  141.6255  154.2894 C   0  0  0  0  0  0  0  0  0  0  0  0
  149.2606  141.6498  154.6863 C   0  0  0  0  0  0  0  0  0  0  0  0
  150.0569  140.5602  154.6677 N   0  0  0  0  0  0  0  0  0  0  0  0
  149.5203  139.3931  154.2524 C   0  0  0  0  0  0  0  0  0  0  0  0
  145.4663  133.5327  151.2757 N   0  0  0  0  0  0  0  0  0  0  0  0
  145.9095  132.2069  150.8286 C   0  0  0  0  0  0  0  0  0  0  0  0
  145.5960  131.9416  149.3462 C   0  0  0  0  0  0  0  0  0  0  0  0
  144.2007  132.0850  149.1206 O   0  0  0  0  0  0  0  0  0  0  0  0
  143.7359  133.3815  149.4686 C   0  0  0  0  0  0  0  0  0  0  0  0
  144.0411  133.6646  150.9502 C   0  0  0  0  0  0  0  0  0  0  0  0
  147.4419  133.7021  154.1305 H   0  0  0  0  0  0  0  0  0  0  0  0
  147.9148  134.0530  152.4744 H   0  0  0  0  0  0  0  0  0  0  0  0
  147.4722  132.4200  152.9729 H   0  0  0  0  0  0  0  0  0  0  0  0
  145.1292  133.0922  153.2909 H   0  0  0  0  0  0  0  0  0  0  0  0
  144.5878  135.6157  152.5561 H   0  0  0  0  0  0  0  0  0  0  0  0
  145.0484  135.2500  154.1988 H   0  0  0  0  0  0  0  0  0  0  0  0
  147.3313  135.8367  152.5637 H   0  0  0  0  0  0  0  0  0  0  0  0
  148.4358  137.4154  152.9336 H   0  0  0  0  0  0  0  0  0  0  0  0
  146.3280  140.3815  153.5339 H   0  0  0  0  0  0  0  0  0  0  0  0
  147.3120  142.5250  154.3108 H   0  0  0  0  0  0  0  0  0  0  0  0
  149.7152  142.5702  155.0220 H   0  0  0  0  0  0  0  0  0  0  0  0
  150.1874  138.5434  154.2483 H   0  0  0  0  0  0  0  0  0  0  0  0
  146.9860  132.1005  150.9491 H   0  0  0  0  0  0  0  0  0  0  0  0
  145.4432  131.4340  151.4417 H   0  0  0  0  0  0  0  0  0  0  0  0
  146.1503  132.6288  148.7046 H   0  0  0  0  0  0  0  0  0  0  0  0
  145.8990  130.9317  149.0700 H   0  0  0  0  0  0  0  0  0  0  0  0
  144.2054  134.1294  148.8275 H   0  0  0  0  0  0  0  0  0  0  0  0
  142.6623  133.4340  149.2870 H   0  0  0  0  0  0  0  0  0  0  0  0
  143.4548  132.9902  151.5762 H   0  0  0  0  0  0  0  0  0  0  0  0
  143.6892  134.6734  151.1549 H   0  0  0  0  0  0  0  0  0  0  0  0
  1  2  1  0  0  0  0
  1 20  1  0  0  0  0
  1 21  1  0  0  0  0
  1 22  1  0  0  0  0
  2  3  1  0  0  0  0
  2 14  1  0  0  0  0
  2 23  1  0  0  0  0
  3  4  1  0  0  0  0
  3 24  1  0  0  0  0
  3 25  1  0  0  0  0
  4  5  1  0  0  0  0
  4 26  1  0  0  0  0
  5  6  2  0  0  0  0
  5  7  1  0  0  0  0
  7  8  1  0  0  0  0
  7 27  1  0  0  0  0
  8 13  1  0  0  0  0
  8  9  2  0  0  0  0
  9 10  1  0  0  0  0
  9 28  1  0  0  0  0
 10 11  2  0  0  0  0
 10 29  1  0  0  0  0
 11 12  1  0  0  0  0
 11 30  1  0  0  0  0
 12 13  2  0  0  0  0
 13 31  1  0  0  0  0
 14 19  1  0  0  0  0
 14 15  1  0  0  0  0
 15 16  1  0  0  0  0
 15 32  1  0  0  0  0
 15 33  1  0  0  0  0
 16 17  1  0  0  0  0
 16 34  1  0  0  0  0
 16 35  1  0  0  0  0
 17 18  1  0  0  0  0
 18 19  1  0  0  0  0
 18 36  1  0  0  0  0
 18 37  1  0  0  0  0
 19 38  1  0  0  0  0
 19 39  1  0  0  0  0
M  END
> <s_m_source_file>
AV-unprocessed.smi

> <i_m_source_file_index>
2140

> <i_lp_mmshare_version>
43012

> <i_f3d_flags>
0

> <s_epik_input>
W0NIMl0xW0NIMl1PW0NIMl1bQ0gyXU4xW0NASF0oW0NIM10pW0NIMl1bTkhdQyg9TylbTkhdYzJbY0hdW2NIXVtjSF1uW2NIXTI=

> <s_epik_cmdline>
J2VwaWtfcHl0aG9uJywgJy1waCcsICc3LjAnLCAnLXRuJywgJzgnLCAnLW1hJywgJzIwMCcsICctbWV0YWxfYmluZGluZycsICctaW1hZScsICc8aW5maWxlLm1hZT4nLCAnLW9tYWUnLCAnPG91dGZpbGUubWFlPic=

> <r_epik_Ionization_Penalty>
0.270748

> <r_epik_Ionization_Penalty_Charging>
0

> <r_epik_Ionization_Penalty_Neutral>
0.270748

> <r_epik_State_Penalty>
0.268258

> <r_epik_Charging_Adjusted_Penalty>
0.268258

> <i_epik_Tot_Q>
0

> <i_epik_Tot_abs_Q>
0

> <r_epik_Metal_State_Penalty>
0.264828

> <b_epik_Metal_Only>
0

> <s_lp_Force_Field>
OPLS_2005

> <r_lp_Energy>
31.3995

> <b_lp_Chiralities_Consistent>
1

> <s_lp_Variant>
AV-unprocessed.smi:2140-2

> <Gold.Version>
5.8.1

> <Gold.Id.Protein>
6NUR|6NUR_protein|mol2

> <Gold.PLP.Fitness>
41.3063

> <Gold.PLP.PLP>
-30.3760

> <Gold.PLP.part.hbond>
-4.0000

> <Gold.PLP.part.metal>
0.0000

> <Gold.PLP.part.buried>
-0.8045

> <Gold.PLP.part.nonpolar>
-26.4227

> <Gold.PLP.part.repulsive>
0.5572

> <Gold.PLP.ligand.clash>
0.0000

> <Gold.PLP.ligand.torsion>
0.7905

> <Gold.PLP.Chemscore.Hbond>
3.1622

> <Gold.PLP.Chemscore.CHOScore>
1.0000

> <Gold.PLP.Chemscore.Metal>
0.0000

> <Gold.Chemscore.Hbonds>
donor molecule, donor type, donor heavy atom, donor atom, acceptor molecule, acceptor atom, score
      L1  H     4    26       P1  7948  0.98
      L1  H     7    27       P1  7948  1.00
      P1  H  7989  7998       L1    12  0.88
      P1  H 10785 10796       L1    17  0.34
      L1  C    11    30       P1  8028  1.00

> <Gold.PLP.Chemscore.Internal.Correction>
0.0248

> <Gold.Rescore>
     Score         DG    S(hbond)    S(metal)    S(lipo)     H(rot)  DE(clash)    DE(int)     intcor
     20.30     -21.34       2.99        0.00      82.32       1.47       0.24       0.80       ----

> <Gold.Chemscore.Fitness>
20.3041

> <Gold.Chemscore.DG>
-21.3395

> <Gold.Chemscore.ZeroCoef>
-5.4800

> <Gold.Chemscore.Hbond>
2.9929

> <Gold.Chemscore.Metal>
0.0000

> <Gold.Chemscore.Lipo>
82.3199

> <Gold.Chemscore.Internal_Hbond>
0.0000

> <Gold.Chemscore.DEClash>
0.2390

> <Gold.Chemscore.DEInternal>
0.7964

> <Gold.Chemscore.Rot>
1.4719

> <Gold.Chemscore.Internal.Correction>
   9.000000E+99

> <Gold.Chemscore.Hbonds>
donor molecule, donor type, donor heavy atom, donor atom, acceptor molecule, acceptor atom, score
      L1  H     4    26       P1  7948  0.93
      L1  H     7    27       P1  7948  0.98
      P1  H  7989  7998       L1    12  0.35
      P1  H 10785 10796       L1    17  0.28

> <Gold.Chemscore.Hbond.Weighted>
-9.9961

> <Gold.Chemscore.Metal.Weighted>
-0.0000

> <Gold.Chemscore.Lipo.Weighted>
-9.6314

> <Gold.Chemscore.Internal_Hbond.Weighted>
0.0000

> <Gold.Chemscore.DEClash.Weighted>
0.2390

> <Gold.Chemscore.DEInternal.Weighted>
0.7964

> <Gold.Chemscore.Rot.Weighted>
3.7681

> <Gold.Chemscore.Internal.Correction.Weighted>
   9.000000E+99

> <Gold.Protein.RotatedTorsions>
[ 6907 6896 6895 6894 ] final -160.62 input  -60.11 | X-H torsion
[ 7974 7965 7964 7962 ] final -178.20 input  175.53 | X-H torsion
[ 8008 7997 7996 7995 ] final    5.09 input   59.86 | X-H torsion
[ 10167 10162 10161 10158 ] final -153.63 input  -65.29 | X-H torsion
[ 10718 10713 10712 10709 ] final   83.32 input   66.30 | X-H torsion
[ 10763 10752 10751 10750 ] final  -21.50 input  -60.55 | X-H torsion
[ 11005 11000 10999 10996 ] final  -11.79 input  -57.11 | X-H torsion

> <Gold.Protein.ActiveResidues>
 VAL166  LYS551  ARG553  GLY616  TRP617  ASP618  TYR619  PRO620  LYS621  CYS622 
 ASP623  PHE694  ASN695  SER759  ASP760  ASP761  ALA762  ILE779  LEU786  VAL792 
 PHE793  MET794  SER795  GLU796  ALA797  LYS798  CYS799  TRP800  GLU811  SER814 

> <Gold.Protein.RotatedAtoms>
  151.3520  133.3922  159.2680 H   0  0  0  0  0  0  0  0  0  0  0  0  # atno 6907 bound_to 6896
  150.9794  134.9153  159.7845 H   0  0  0  0  0  0  0  0  0  0  0  0  # atno 6908 bound_to 6896
  152.5212  134.3483  159.9294 H   0  0  0  0  0  0  0  0  0  0  0  0  # atno 6909 bound_to 6896
  144.7130  140.0905  143.6421 H   0  0  0  0  0  0  0  0  0  0  0  0  # atno 7974 bound_to 7965
  154.7240  140.2717  155.6516 H   0  0  0  0  0  0  0  0  0  0  0  0  # atno 8008 bound_to 7997
  156.2831  140.2729  156.1845 H   0  0  0  0  0  0  0  0  0  0  0  0  # atno 8009 bound_to 7997
  155.0469  140.0371  157.2520 H   0  0  0  0  0  0  0  0  0  0  0  0  # atno 8010 bound_to 7997
  139.7080  143.9154  152.2457 H   0  0  0  0  0  0  0  0  0  0  0  0  # atno 10167 bound_to 10162
  157.6876  131.0086  150.2506 H   0  0  0  0  0  0  0  0  0  0  0  0  # atno 10718 bound_to 10713
  153.6371  135.6986  153.5255 H   0  0  0  0  0  0  0  0  0  0  0  0  # atno 10763 bound_to 10752
  153.2813  135.4185  155.1080 H   0  0  0  0  0  0  0  0  0  0  0  0  # atno 10764 bound_to 10752
  154.8508  135.3602  154.5914 H   0  0  0  0  0  0  0  0  0  0  0  0  # atno 10765 bound_to 10752
  140.7590  133.8530  155.9108 H   0  0  0  0  0  0  0  0  0  0  0  0  # atno 11005 bound_to 11000
  145.9624  139.2810  143.1147 LP  0  0  0  0  0  0  0  0  0  0  0  0  # atno 17320 bound_to 7965
  145.9206  140.9118  143.0407 LP  0  0  0  0  0  0  0  0  0  0  0  0  # atno 17321 bound_to 7965
  139.9015  144.6909  150.8660 LP  0  0  0  0  0  0  0  0  0  0  0  0  # atno 17342 bound_to 10162
  140.7726  143.3510  151.2014 LP  0  0  0  0  0  0  0  0  0  0  0  0  # atno 17343 bound_to 10162
  156.3104  130.3771  149.7667 LP  0  0  0  0  0  0  0  0  0  0  0  0  # atno 17370 bound_to 10713
  156.5269  130.8240  151.3223 LP  0  0  0  0  0  0  0  0  0  0  0  0  # atno 17371 bound_to 10713
  140.9681  134.1567  157.4599 LP  0  0  0  0  0  0  0  0  0  0  0  0  # atno 17394 bound_to 11000
  139.8774  134.9969  156.5817 LP  0  0  0  0  0  0  0  0  0  0  0  0  # atno 17395 bound_to 11000

$$$$
