AV-unprocessed.smi:2568|AV-procd|sdf|10090|dock4
  -GOLD-   2272014113D 1   1.00000     0.00000
 Structure written by MMmdl.
 24 25  0  0  0  0  0  0  0  0  1 V2000
  150.5305  141.0670  155.7325 C   0  0  0  0  0  0  0  0  0  0  0  0
  151.0128  141.9940  156.7962 C   0  0  0  0  0  0  0  0  0  0  0  0
  150.7293  143.2974  156.7837 N   0  0  0  0  0  0  0  0  0  0  0  0
  151.2977  143.8884  157.8559 N   0  0  0  0  0  0  0  0  0  0  0  0
  151.8852  142.8580  158.4640 C   0  0  0  0  0  0  0  0  0  0  0  0
  152.6899  143.0607  159.7107 C   0  0  2  0  0  0  0  0  0  0  0  0
  153.2878  141.7409  160.2367 C   0  0  0  0  0  0  0  0  0  0  0  0
  153.9795  141.9677  161.5050 N   0  0  0  0  0  0  0  0  0  0  0  0
  153.0956  142.6014  162.4826 C   0  0  0  0  0  0  0  0  0  0  0  0
  152.4954  143.8955  161.9034 C   0  0  0  0  0  0  0  0  0  0  0  0
  151.8085  143.6040  160.6911 O   0  0  0  0  0  0  0  0  0  0  0  0
  151.7584  141.6461  157.8388 N   0  0  0  0  0  0  0  0  0  0  0  0
  150.1870  143.8027  156.0976 H   0  0  0  0  0  0  0  0  0  0  0  0
  150.8095  140.0392  155.9667 H   0  0  0  0  0  0  0  0  0  0  0  0
  150.9708  141.3377  154.7727 H   0  0  0  0  0  0  0  0  0  0  0  0
  149.4448  141.1228  155.6501 H   0  0  0  0  0  0  0  0  0  0  0  0
  153.4853  143.7792  159.5016 H   0  0  0  0  0  0  0  0  0  0  0  0
  152.4933  141.0066  160.3763 H   0  0  0  0  0  0  0  0  0  0  0  0
  153.9778  141.3215  159.5041 H   0  0  0  0  0  0  0  0  0  0  0  0
  154.3147  141.0831  161.8728 H   0  0  0  0  0  0  0  0  0  0  0  0
  152.2924  141.9160  162.7559 H   0  0  0  0  0  0  0  0  0  0  0  0
  153.6459  142.8202  163.3979 H   0  0  0  0  0  0  0  0  0  0  0  0
  151.7900  144.3310  162.6113 H   0  0  0  0  0  0  0  0  0  0  0  0
  153.2713  144.6422  161.7268 H   0  0  0  0  0  0  0  0  0  0  0  0
  1 14  1  0  0  0  0
  1 15  1  0  0  0  0
  1 16  1  0  0  0  0
  1  2  1  0  0  0  0
  2 12  2  0  0  0  0
  2  3  1  0  0  0  0
  3  4  1  0  0  0  0
  3 13  1  0  0  0  0
  4  5  2  0  0  0  0
  5 12  1  0  0  0  0
  5  6  1  0  0  0  0
  6 11  1  0  0  0  0
  6  7  1  0  0  0  0
  6 17  1  0  0  0  0
  7  8  1  0  0  0  0
  7 18  1  0  0  0  0
  7 19  1  0  0  0  0
  8  9  1  0  0  0  0
  8 20  1  0  0  0  0
  9 10  1  0  0  0  0
  9 21  1  0  0  0  0
  9 22  1  0  0  0  0
 10 11  1  0  0  0  0
 10 23  1  0  0  0  0
 10 24  1  0  0  0  0
M  END
> <s_m_source_file>
AV-unprocessed.smi

> <i_m_source_file_index>
2568

> <i_lp_mmshare_version>
43012

> <i_f3d_flags>
0

> <s_epik_input>
W0NIM11jMW5bbkhdYyhuMSlbQ0BASF0yW0NIMl1bTkhdW0NIMl1bQ0gyXU8y

> <s_epik_cmdline>
J2VwaWtfcHl0aG9uJywgJy1waCcsICc3LjAnLCAnLXRuJywgJzgnLCAnLW1hJywgJzIwMCcsICctbWV0YWxfYmluZGluZycsICctaW1hZScsICc8aW5maWxlLm1hZT4nLCAnLW9tYWUnLCAnPG91dGZpbGUubWFlPic=

> <r_epik_Ionization_Penalty>
1.10101

> <r_epik_Ionization_Penalty_Charging>
0

> <r_epik_Ionization_Penalty_Neutral>
1.10101

> <r_epik_State_Penalty>
1.26524

> <r_epik_Charging_Adjusted_Penalty>
1.26524

> <i_epik_Tot_Q>
0

> <i_epik_Tot_abs_Q>
0

> <r_epik_Metal_State_Penalty>
1.56429

> <b_epik_Metal_Only>
0

> <s_lp_Force_Field>
OPLS_2005

> <r_lp_Energy>
12.1745

> <b_lp_Chiralities_Consistent>
1

> <s_lp_Variant>
AV-unprocessed.smi:2568-3

> <Gold.Version>
5.8.1

> <Gold.Id.Protein>
6NUR|6NUR_protein|mol2

> <Gold.PLP.Fitness>
32.1195

> <Gold.PLP.PLP>
-29.1242

> <Gold.PLP.part.hbond>
-1.8388

> <Gold.PLP.part.metal>
0.0000

> <Gold.PLP.part.buried>
-4.5427

> <Gold.PLP.part.nonpolar>
-21.6133

> <Gold.PLP.part.repulsive>
0.2848

> <Gold.PLP.ligand.clash>
0.0000

> <Gold.PLP.ligand.torsion>
0.0086

> <Gold.PLP.Chemscore.Hbond>
1.0000

> <Gold.PLP.Chemscore.CHOScore>
0.0000

> <Gold.PLP.Chemscore.Metal>
0.0000

> <Gold.Chemscore.Hbonds>
donor molecule, donor type, donor heavy atom, donor atom, acceptor molecule, acceptor atom, score
      L1  H     3    13       P1  8028  1.00

> <Gold.PLP.Chemscore.Internal.Correction>
0.0126

> <Gold.Rescore>
     Score         DG    S(hbond)    S(metal)    S(lipo)     H(rot)  DE(clash)    DE(int)     intcor
     12.49     -12.51       0.99        0.00      53.61       1.00       0.01       0.01       ----

> <Gold.Chemscore.Fitness>
12.4880

> <Gold.Chemscore.DG>
-12.5089

> <Gold.Chemscore.ZeroCoef>
-5.4800

> <Gold.Chemscore.Hbond>
0.9930

> <Gold.Chemscore.Metal>
0.0000

> <Gold.Chemscore.Lipo>
53.6085

> <Gold.Chemscore.Internal_Hbond>
0.0000

> <Gold.Chemscore.DEClash>
0.0147

> <Gold.Chemscore.DEInternal>
0.0063

> <Gold.Chemscore.Rot>
1.0000

> <Gold.Chemscore.Internal.Correction>
   9.000000E+99

> <Gold.Chemscore.Hbonds>
donor molecule, donor type, donor heavy atom, donor atom, acceptor molecule, acceptor atom, score
      L1  H     3    13       P1  8028  0.96

> <Gold.Chemscore.Hbond.Weighted>
-3.3167

> <Gold.Chemscore.Metal.Weighted>
-0.0000

> <Gold.Chemscore.Lipo.Weighted>
-6.2722

> <Gold.Chemscore.Internal_Hbond.Weighted>
0.0000

> <Gold.Chemscore.DEClash.Weighted>
0.0147

> <Gold.Chemscore.DEInternal.Weighted>
0.0063

> <Gold.Chemscore.Rot.Weighted>
2.5600

> <Gold.Chemscore.Internal.Correction.Weighted>
   9.000000E+99

> <Gold.Protein.RotatedTorsions>
[ 6907 6896 6895 6894 ] final   -6.10 input  -60.11 | X-H torsion
[ 7974 7965 7964 7962 ] final  -38.09 input  175.53 | X-H torsion
[ 8008 7997 7996 7995 ] final  175.89 input   59.86 | X-H torsion
[ 10167 10162 10161 10158 ] final   59.21 input  -65.29 | X-H torsion
[ 10718 10713 10712 10709 ] final  -13.16 input   66.30 | X-H torsion
[ 10763 10752 10751 10750 ] final    4.40 input  -60.55 | X-H torsion
[ 11005 11000 10999 10996 ] final -121.02 input  -57.11 | X-H torsion

> <Gold.Protein.ActiveResidues>
 VAL166  LYS551  ARG553  GLY616  TRP617  ASP618  TYR619  PRO620  LYS621  CYS622 
 ASP623  PHE694  ASN695  SER759  ASP760  ASP761  ALA762  ILE779  LEU786  VAL792 
 PHE793  MET794  SER795  GLU796  ALA797  LYS798  CYS799  TRP800  GLU811  SER814 

> <Gold.Protein.RotatedAtoms>
  151.4709  135.1045  159.9750 H   0  0  0  0  0  0  0  0  0  0  0  0  # atno 6907 bound_to 6896
  152.4817  133.8266  159.7092 H   0  0  0  0  0  0  0  0  0  0  0  0  # atno 6908 bound_to 6896
  150.8893  133.7203  159.2936 H   0  0  0  0  0  0  0  0  0  0  0  0  # atno 6909 bound_to 6896
  146.0517  140.6472  142.9039 H   0  0  0  0  0  0  0  0  0  0  0  0  # atno 7974 bound_to 7965
  156.0823  140.1397  156.9697 H   0  0  0  0  0  0  0  0  0  0  0  0  # atno 8008 bound_to 7997
  154.4592  140.0949  156.6894 H   0  0  0  0  0  0  0  0  0  0  0  0  # atno 8009 bound_to 7997
  155.5055  140.3452  155.4381 H   0  0  0  0  0  0  0  0  0  0  0  0  # atno 8010 bound_to 7997
  140.1789  144.4202  150.6625 H   0  0  0  0  0  0  0  0  0  0  0  0  # atno 10167 bound_to 10162
  156.6343  130.4910  149.6118 H   0  0  0  0  0  0  0  0  0  0  0  0  # atno 10718 bound_to 10713
  153.2717  135.6933  153.7473 H   0  0  0  0  0  0  0  0  0  0  0  0  # atno 10763 bound_to 10752
  153.6494  135.3379  155.3096 H   0  0  0  0  0  0  0  0  0  0  0  0  # atno 10764 bound_to 10752
  154.8466  135.4451  154.1742 H   0  0  0  0  0  0  0  0  0  0  0  0  # atno 10765 bound_to 10752
  141.0101  134.0277  157.3425 H   0  0  0  0  0  0  0  0  0  0  0  0  # atno 11005 bound_to 11000
  144.7126  140.4095  143.7069 LP  0  0  0  0  0  0  0  0  0  0  0  0  # atno 17320 bound_to 7965
  145.6713  139.1600  143.2753 LP  0  0  0  0  0  0  0  0  0  0  0  0  # atno 17321 bound_to 7965
  140.6533  143.2230  151.6027 LP  0  0  0  0  0  0  0  0  0  0  0  0  # atno 17342 bound_to 10162
  139.5305  144.2931  152.1136 LP  0  0  0  0  0  0  0  0  0  0  0  0  # atno 17343 bound_to 10162
  156.2210  130.6737  151.1368 LP  0  0  0  0  0  0  0  0  0  0  0  0  # atno 17370 bound_to 10713
  157.7190  131.0693  150.6211 LP  0  0  0  0  0  0  0  0  0  0  0  0  # atno 17371 bound_to 10713
  139.9085  135.0185  156.7591 LP  0  0  0  0  0  0  0  0  0  0  0  0  # atno 17394 bound_to 11000
  140.6747  133.9528  155.7876 LP  0  0  0  0  0  0  0  0  0  0  0  0  # atno 17395 bound_to 11000

$$$$
