AV-unprocessed.smi:2902|AV-procd|sdf|11158|dock3
  -GOLD-   2272016 43D 1   1.00000     0.00000
 Structure written by MMmdl.
 47 48  0  0  0  0  0  0  0  0  1 V2000
  151.1494  138.2656  158.9550 C   0  0  0  0  0  0  0  0  0  0  0  0
  151.7677  139.6679  158.8925 C   0  0  0  0  0  0  0  0  0  0  0  0
  151.1369  140.5516  157.8002 C   0  0  1  0  0  0  0  0  0  0  0  0
  151.7369  141.8450  157.8799 O   0  0  0  0  0  0  0  0  0  0  0  0
  151.2776  142.6939  158.9284 C   0  0  0  0  0  0  0  0  0  0  0  0
  150.2902  143.7569  158.4394 C   0  0  0  0  0  0  0  0  0  0  0  0
  150.3806  144.8777  159.4800 C   0  0  0  0  0  0  0  0  0  0  0  0
  151.7635  144.7410  160.1371 C   0  0  0  0  0  0  0  0  0  0  0  0
  152.4327  143.5307  159.4758 C   0  0  0  0  0  0  0  0  0  0  0  0
  151.3455  139.9467  156.4022 C   0  0  0  0  0  0  0  0  0  0  0  0
  152.4766  139.8642  155.9230 O   0  0  0  0  0  0  0  0  0  0  0  0
  150.2389  139.5509  155.7537 N   0  0  0  0  0  0  0  0  0  0  0  0
  150.1965  139.0063  154.3982 C   0  0  1  0  0  0  0  0  0  0  0  0
  150.9221  137.6470  154.3666 C   0  0  0  0  0  0  0  0  0  0  0  0
  148.7292  138.9310  153.9030 C   0  0  1  0  0  0  0  0  0  0  0  0
  147.8386  138.0332  154.7825 C   0  0  0  0  0  0  0  0  0  0  0  0
  148.1347  140.2552  153.7837 N   0  0  0  0  0  0  0  0  0  0  0  0
  146.9480  140.6386  153.3064 C   0  0  0  0  0  0  0  0  0  0  0  0
  146.7453  141.9474  153.3602 N   0  0  0  0  0  0  0  0  0  0  0  0
  147.9291  142.3384  153.9187 C   0  0  0  0  0  0  0  0  0  0  0  0
  148.7971  141.3639  154.1911 N   0  0  0  0  0  0  0  0  0  0  0  0
  151.6272  137.6660  159.7299 H   0  0  0  0  0  0  0  0  0  0  0  0
  151.2677  137.7400  158.0072 H   0  0  0  0  0  0  0  0  0  0  0  0
  150.0840  138.3124  159.1828 H   0  0  0  0  0  0  0  0  0  0  0  0
  151.6668  140.1481  159.8669 H   0  0  0  0  0  0  0  0  0  0  0  0
  152.8386  139.5665  158.7097 H   0  0  0  0  0  0  0  0  0  0  0  0
  150.0670  140.6379  158.0017 H   0  0  0  0  0  0  0  0  0  0  0  0
  150.8424  142.1257  159.7528 H   0  0  0  0  0  0  0  0  0  0  0  0
  150.6123  144.1354  157.4683 H   0  0  0  0  0  0  0  0  0  0  0  0
  149.2747  143.3798  158.3236 H   0  0  0  0  0  0  0  0  0  0  0  0
  150.2380  145.8575  159.0238 H   0  0  0  0  0  0  0  0  0  0  0  0
  149.6021  144.7515  160.2333 H   0  0  0  0  0  0  0  0  0  0  0  0
  152.3650  145.6425  160.0148 H   0  0  0  0  0  0  0  0  0  0  0  0
  151.6479  144.5689  161.2079 H   0  0  0  0  0  0  0  0  0  0  0  0
  153.0669  142.9713  160.1640 H   0  0  0  0  0  0  0  0  0  0  0  0
  153.0611  143.8718  158.6515 H   0  0  0  0  0  0  0  0  0  0  0  0
  149.3533  139.6574  156.2271 H   0  0  0  0  0  0  0  0  0  0  0  0
  150.7340  139.6857  153.7336 H   0  0  0  0  0  0  0  0  0  0  0  0
  150.9984  137.2534  153.3530 H   0  0  0  0  0  0  0  0  0  0  0  0
  150.3994  136.9063  154.9724 H   0  0  0  0  0  0  0  0  0  0  0  0
  151.9386  137.7327  154.7518 H   0  0  0  0  0  0  0  0  0  0  0  0
  148.7401  138.4910  152.9036 H   0  0  0  0  0  0  0  0  0  0  0  0
  148.1887  137.0011  154.7890 H   0  0  0  0  0  0  0  0  0  0  0  0
  146.8121  138.0218  154.4146 H   0  0  0  0  0  0  0  0  0  0  0  0
  147.8168  138.3835  155.8150 H   0  0  0  0  0  0  0  0  0  0  0  0
  146.2178  139.9460  152.9136 H   0  0  0  0  0  0  0  0  0  0  0  0
  148.1585  143.3725  154.1303 H   0  0  0  0  0  0  0  0  0  0  0  0
  1  2  1  0  0  0  0
  1 22  1  0  0  0  0
  1 23  1  0  0  0  0
  1 24  1  0  0  0  0
  2  3  1  0  0  0  0
  2 25  1  0  0  0  0
  2 26  1  0  0  0  0
  3  4  1  0  0  0  0
  3 10  1  0  0  0  0
  3 27  1  0  0  0  0
  4  5  1  0  0  0  0
  5  9  1  0  0  0  0
  5  6  1  0  0  0  0
  5 28  1  0  0  0  0
  6  7  1  0  0  0  0
  6 29  1  0  0  0  0
  6 30  1  0  0  0  0
  7  8  1  0  0  0  0
  7 31  1  0  0  0  0
  7 32  1  0  0  0  0
  8  9  1  0  0  0  0
  8 33  1  0  0  0  0
  8 34  1  0  0  0  0
  9 35  1  0  0  0  0
  9 36  1  0  0  0  0
 10 11  2  0  0  0  0
 10 12  1  0  0  0  0
 12 13  1  0  0  0  0
 12 37  1  0  0  0  0
 13 14  1  0  0  0  0
 13 15  1  0  0  0  0
 13 38  1  0  0  0  0
 14 39  1  0  0  0  0
 14 40  1  0  0  0  0
 14 41  1  0  0  0  0
 15 16  1  0  0  0  0
 15 17  1  0  0  0  0
 15 42  1  0  0  0  0
 16 43  1  0  0  0  0
 16 44  1  0  0  0  0
 16 45  1  0  0  0  0
 17 21  1  0  0  0  0
 17 18  1  0  0  0  0
 18 19  2  0  0  0  0
 18 46  1  0  0  0  0
 19 20  1  0  0  0  0
 20 21  2  0  0  0  0
 20 47  1  0  0  0  0
M  END
> <s_m_source_file>
AV-unprocessed.smi

> <i_m_source_file_index>
2902

> <i_lp_mmshare_version>
43012

> <i_f3d_flags>
0

> <s_epik_input>
W0NIMl0xW0NIMl1bQ0gyXVtDSDJdW0NIXTFPW0NAQEhdKFtDSDJdW0NIM10pQyg9TylbTkhdW0NASF0oW0NIM10pW0NASF0oW0NIM10pbjJbY0hdbltjSF1uMg==

> <s_epik_cmdline>
J2VwaWtfcHl0aG9uJywgJy1waCcsICc3LjAnLCAnLXRuJywgJzgnLCAnLW1hJywgJzIwMCcsICctbWV0YWxfYmluZGluZycsICctaW1hZScsICc8aW5maWxlLm1hZT4nLCAnLW9tYWUnLCAnPG91dGZpbGUubWFlPic=

> <r_lp_tautomer_probability>
1

> <r_epik_Ionization_Penalty>
6.95617e-05

> <r_epik_Ionization_Penalty_Charging>
0

> <r_epik_Ionization_Penalty_Neutral>
6.95617e-05

> <r_epik_State_Penalty>
-0

> <r_epik_Charging_Adjusted_Penalty>
0

> <i_epik_Tot_Q>
0

> <i_epik_Tot_abs_Q>
0

> <r_epik_Metal_State_Penalty>
-0

> <b_epik_Metal_Only>
0

> <s_lp_Force_Field>
OPLS_2005

> <r_lp_Energy>
30.3462

> <b_lp_Chiralities_Consistent>
1

> <s_lp_Variant>
AV-unprocessed.smi:2902-8

> <Gold.Version>
5.8.1

> <Gold.Id.Protein>
6NUR|6NUR_protein|mol2

> <Gold.PLP.Fitness>
44.2433

> <Gold.PLP.PLP>
-37.6361

> <Gold.PLP.part.hbond>
-1.0000

> <Gold.PLP.part.metal>
0.0000

> <Gold.PLP.part.buried>
-4.6625

> <Gold.PLP.part.nonpolar>
-32.9596

> <Gold.PLP.part.repulsive>
0.4090

> <Gold.PLP.ligand.clash>
0.0000

> <Gold.PLP.ligand.torsion>
0.9000

> <Gold.PLP.Chemscore.Hbond>
1.0000

> <Gold.PLP.Chemscore.CHOScore>
1.7283

> <Gold.PLP.Chemscore.Metal>
0.0000

> <Gold.Chemscore.Hbonds>
donor molecule, donor type, donor heavy atom, donor atom, acceptor molecule, acceptor atom, score
      P1  H  7997  8009       L1    11  1.00
      L1  C    18    46       P1 10175  0.70
      L1  C    20    47       P1  8028  1.00

> <Gold.PLP.Chemscore.Internal.Correction>
0.2223

> <Gold.Rescore>
     Score         DG    S(hbond)    S(metal)    S(lipo)     H(rot)  DE(clash)    DE(int)     intcor
      9.84     -12.53       1.03        0.00      89.75       2.69       0.13       2.56       ----

> <Gold.Chemscore.Fitness>
9.8429

> <Gold.Chemscore.DG>
-12.5313

> <Gold.Chemscore.ZeroCoef>
-5.4800

> <Gold.Chemscore.Hbond>
1.0316

> <Gold.Chemscore.Metal>
0.0000

> <Gold.Chemscore.Lipo>
89.7538

> <Gold.Chemscore.Internal_Hbond>
0.0000

> <Gold.Chemscore.DEClash>
0.1299

> <Gold.Chemscore.DEInternal>
2.5586

> <Gold.Chemscore.Rot>
2.6935

> <Gold.Chemscore.Internal.Correction>
   9.000000E+99

> <Gold.Chemscore.Hbonds>
donor molecule, donor type, donor heavy atom, donor atom, acceptor molecule, acceptor atom, score
      P1  H  7997  8009       L1    11  1.00

> <Gold.Chemscore.Hbond.Weighted>
-3.4454

> <Gold.Chemscore.Metal.Weighted>
-0.0000

> <Gold.Chemscore.Lipo.Weighted>
-10.5012

> <Gold.Chemscore.Internal_Hbond.Weighted>
0.0000

> <Gold.Chemscore.DEClash.Weighted>
0.1299

> <Gold.Chemscore.DEInternal.Weighted>
2.5586

> <Gold.Chemscore.Rot.Weighted>
6.8954

> <Gold.Chemscore.Internal.Correction.Weighted>
   9.000000E+99

> <Gold.Protein.RotatedTorsions>
[ 6907 6896 6895 6894 ] final  -50.70 input  -60.11 | X-H torsion
[ 7974 7965 7964 7962 ] final  -64.55 input  175.53 | X-H torsion
[ 8008 7997 7996 7995 ] final -151.25 input   59.86 | X-H torsion
[ 10167 10162 10161 10158 ] final -130.33 input  -65.29 | X-H torsion
[ 10718 10713 10712 10709 ] final   59.21 input   66.30 | X-H torsion
[ 10763 10752 10751 10750 ] final -155.51 input  -60.55 | X-H torsion
[ 11005 11000 10999 10996 ] final  130.21 input  -57.11 | X-H torsion

> <Gold.Protein.ActiveResidues>
 VAL166  LYS551  ARG553  GLY616  TRP617  ASP618  TYR619  PRO620  LYS621  CYS622 
 ASP623  PHE694  ASN695  SER759  ASP760  ASP761  ALA762  ILE779  LEU786  VAL792 
 PHE793  MET794  SER795  GLU796  ALA797  LYS798  CYS799  TRP800  GLU811  SER814 

> <Gold.Protein.RotatedAtoms>
  150.8682  134.8049  159.7134 H   0  0  0  0  0  0  0  0  0  0  0  0  # atno 6907 bound_to 6896
  152.4696  134.4990  159.9728 H   0  0  0  0  0  0  0  0  0  0  0  0  # atno 6908 bound_to 6896
  151.5083  133.3452  159.2916 H   0  0  0  0  0  0  0  0  0  0  0  0  # atno 6909 bound_to 6896
  145.7654  140.8840  143.0408 H   0  0  0  0  0  0  0  0  0  0  0  0  # atno 7974 bound_to 7965
  155.6365  140.0697  157.2632 H   0  0  0  0  0  0  0  0  0  0  0  0  # atno 8008 bound_to 7997
  154.4193  140.1758  156.1577 H   0  0  0  0  0  0  0  0  0  0  0  0  # atno 8009 bound_to 7997
  155.9890  140.3347  155.6738 H   0  0  0  0  0  0  0  0  0  0  0  0  # atno 8010 bound_to 7997
  139.9304  143.6278  152.2531 H   0  0  0  0  0  0  0  0  0  0  0  0  # atno 10167 bound_to 10162
  157.5658  130.8869  149.9184 H   0  0  0  0  0  0  0  0  0  0  0  0  # atno 10718 bound_to 10713
  154.7781  135.3166  154.8048 H   0  0  0  0  0  0  0  0  0  0  0  0  # atno 10763 bound_to 10752
  153.8766  135.6839  153.4774 H   0  0  0  0  0  0  0  0  0  0  0  0  # atno 10764 bound_to 10752
  153.1411  135.4739  154.9433 H   0  0  0  0  0  0  0  0  0  0  0  0  # atno 10765 bound_to 10752
  139.9659  134.9590  156.9261 H   0  0  0  0  0  0  0  0  0  0  0  0  # atno 11005 bound_to 11000
  144.6822  139.9780  143.7483 LP  0  0  0  0  0  0  0  0  0  0  0  0  # atno 17320 bound_to 7965
  146.0223  139.3262  143.0805 LP  0  0  0  0  0  0  0  0  0  0  0  0  # atno 17321 bound_to 7965
  139.6787  144.7657  151.1649 LP  0  0  0  0  0  0  0  0  0  0  0  0  # atno 17342 bound_to 10162
  140.7639  143.5757  150.8948 LP  0  0  0  0  0  0  0  0  0  0  0  0  # atno 17343 bound_to 10162
  156.0706  130.3686  150.0784 LP  0  0  0  0  0  0  0  0  0  0  0  0  # atno 17370 bound_to 10713
  156.8943  130.9599  151.3584 LP  0  0  0  0  0  0  0  0  0  0  0  0  # atno 17371 bound_to 10713
  140.5397  134.0732  155.7338 LP  0  0  0  0  0  0  0  0  0  0  0  0  # atno 17394 bound_to 11000
  141.1339  133.9255  157.2477 LP  0  0  0  0  0  0  0  0  0  0  0  0  # atno 17395 bound_to 11000

$$$$
