AV-unprocessed.smi:2829|AV-procd|sdf|10902|dock4
  -GOLD-   2272015353D 1   1.00000     0.00000
 Structure written by MMmdl.
 50 53  0  0  0  0  0  0  0  0  1 V2000
  136.5911  139.3536  156.2763 C   0  0  0  0  0  0  0  0  0  0  0  0
  136.5760  137.8615  155.8737 C   0  0  0  0  0  0  0  0  0  0  0  0
  136.4785  137.0329  157.1718 C   0  0  0  0  0  0  0  0  0  0  0  0
  135.3212  137.6276  155.0066 C   0  0  0  0  0  0  0  0  0  0  0  0
  137.8352  137.4518  155.0886 C   0  0  0  0  0  0  0  0  0  0  0  0
  138.1812  138.0082  153.8363 C   0  0  0  0  0  0  0  0  0  0  0  0
  139.3576  137.5508  153.2195 C   0  0  0  0  0  0  0  0  0  0  0  0
  140.1246  136.5699  153.8791 C   0  0  0  0  0  0  0  0  0  0  0  0
  141.2995  136.1582  153.1980 N   0  0  0  0  0  0  0  0  0  0  0  0
  142.3286  135.4296  153.6738 C   0  0  0  0  0  0  0  0  0  0  0  0
  142.4029  134.9833  154.8170 O   0  0  0  0  0  0  0  0  0  0  0  0
  143.2952  135.1938  152.7692 N   0  0  0  0  0  0  0  0  0  0  0  0
  144.5387  134.4402  152.9625 C   0  0  2  0  0  0  0  0  0  0  0  0
  145.8242  135.2905  152.7842 C   0  0  2  0  0  0  0  0  0  0  0  0
  145.8182  136.7977  152.6861 C   0  0  0  0  0  0  0  0  0  0  0  0
  145.9089  137.0423  151.1775 C   0  0  0  0  0  0  0  0  0  0  0  0
  145.4486  135.8311  150.5835 O   0  0  0  0  0  0  0  0  0  0  0  0
  145.9434  134.7479  151.3649 C   0  0  2  0  0  0  0  0  0  0  0  0
  144.9213  133.6528  151.6976 C   0  0  0  0  0  0  0  0  0  0  0  0
  143.9011  133.1686  150.6534 C   0  0  0  0  0  0  0  0  0  0  0  0
  144.7941  131.9466  150.4217 C   0  0  0  0  0  0  0  0  0  0  0  0
  145.4007  132.1971  151.8054 C   0  0  0  0  0  0  0  0  0  0  0  0
  139.7326  136.0784  155.0814 N   0  0  0  0  0  0  0  0  0  0  0  0
  138.6138  136.5081  155.6725 N   0  0  0  0  0  0  0  0  0  0  0  0
  135.6932  139.6213  156.8347 H   0  0  0  0  0  0  0  0  0  0  0  0
  136.6292  140.0065  155.4033 H   0  0  0  0  0  0  0  0  0  0  0  0
  137.4442  139.5909  156.9133 H   0  0  0  0  0  0  0  0  0  0  0  0
  137.3585  137.1773  157.7997 H   0  0  0  0  0  0  0  0  0  0  0  0
  136.3933  135.9653  156.9663 H   0  0  0  0  0  0  0  0  0  0  0  0
  135.6049  137.3163  157.7600 H   0  0  0  0  0  0  0  0  0  0  0  0
  134.4141  137.9311  155.5302 H   0  0  0  0  0  0  0  0  0  0  0  0
  135.2018  136.5767  154.7415 H   0  0  0  0  0  0  0  0  0  0  0  0
  135.3705  138.1968  154.0775 H   0  0  0  0  0  0  0  0  0  0  0  0
  137.5835  138.7599  153.3444 H   0  0  0  0  0  0  0  0  0  0  0  0
  139.6607  137.9468  152.2612 H   0  0  0  0  0  0  0  0  0  0  0  0
  141.3693  136.4516  152.2348 H   0  0  0  0  0  0  0  0  0  0  0  0
  143.1341  135.5398  151.8340 H   0  0  0  0  0  0  0  0  0  0  0  0
  144.5552  133.8146  153.8566 H   0  0  0  0  0  0  0  0  0  0  0  0
  146.6268  134.9004  153.4121 H   0  0  0  0  0  0  0  0  0  0  0  0
  144.9128  137.2382  153.1007 H   0  0  0  0  0  0  0  0  0  0  0  0
  146.6631  137.2481  153.2073 H   0  0  0  0  0  0  0  0  0  0  0  0
  145.3162  137.8979  150.8534 H   0  0  0  0  0  0  0  0  0  0  0  0
  146.9447  137.2114  150.8788 H   0  0  0  0  0  0  0  0  0  0  0  0
  146.9464  134.4171  151.0921 H   0  0  0  0  0  0  0  0  0  0  0  0
  142.9375  132.9027  151.0911 H   0  0  0  0  0  0  0  0  0  0  0  0
  143.7836  133.8186  149.7859 H   0  0  0  0  0  0  0  0  0  0  0  0
  144.2599  131.0015  150.3208 H   0  0  0  0  0  0  0  0  0  0  0  0
  145.5117  132.0960  149.6133 H   0  0  0  0  0  0  0  0  0  0  0  0
  146.4820  132.0691  151.8594 H   0  0  0  0  0  0  0  0  0  0  0  0
  144.8897  131.6406  152.5927 H   0  0  0  0  0  0  0  0  0  0  0  0
  1  2  1  0  0  0  0
  1 25  1  0  0  0  0
  1 26  1  0  0  0  0
  1 27  1  0  0  0  0
  2  3  1  0  0  0  0
  2  4  1  0  0  0  0
  2  5  1  0  0  0  0
  3 28  1  0  0  0  0
  3 29  1  0  0  0  0
  3 30  1  0  0  0  0
  4 31  1  0  0  0  0
  4 32  1  0  0  0  0
  4 33  1  0  0  0  0
  5 24  1  0  0  0  0
  5  6  2  0  0  0  0
  6  7  1  0  0  0  0
  6 34  1  0  0  0  0
  7  8  2  0  0  0  0
  7 35  1  0  0  0  0
  8  9  1  0  0  0  0
  8 23  1  0  0  0  0
  9 10  1  0  0  0  0
  9 36  1  0  0  0  0
 10 11  2  0  0  0  0
 10 12  1  0  0  0  0
 12 13  1  0  0  0  0
 12 37  1  0  0  0  0
 13 19  1  0  0  0  0
 13 14  1  0  0  0  0
 13 38  1  0  0  0  0
 14 18  1  0  0  0  0
 14 15  1  0  0  0  0
 14 39  1  0  0  0  0
 15 16  1  0  0  0  0
 15 40  1  0  0  0  0
 15 41  1  0  0  0  0
 16 17  1  0  0  0  0
 16 42  1  0  0  0  0
 16 43  1  0  0  0  0
 17 18  1  0  0  0  0
 18 19  1  0  0  0  0
 18 44  1  0  0  0  0
 19 22  1  0  0  0  0
 19 20  1  0  0  0  0
 20 21  1  0  0  0  0
 20 45  1  0  0  0  0
 20 46  1  0  0  0  0
 21 22  1  0  0  0  0
 21 47  1  0  0  0  0
 21 48  1  0  0  0  0
 22 49  1  0  0  0  0
 22 50  1  0  0  0  0
 23 24  2  0  0  0  0
M  END
> <s_m_source_file>
AV-unprocessed.smi

> <i_m_source_file_index>
2829

> <i_lp_mmshare_version>
43012

> <i_f3d_flags>
0

> <s_epik_input>
W0NIM11DKFtDSDNdKShbQ0gzXSljMVtjSF1bY0hdYyhubjEpW05IXUMoPU8pW05IXVtDQEBIXTJbQ0BIXShbQ0gyXVtDSDJdTzMpW0NAQEhdM0MyNFtDSDJdW0NIMl1bQ0gyXTQ=

> <s_epik_cmdline>
J2VwaWtfcHl0aG9uJywgJy1waCcsICc3LjAnLCAnLXRuJywgJzgnLCAnLW1hJywgJzIwMCcsICctbWV0YWxfYmluZGluZycsICctaW1hZScsICc8aW5maWxlLm1hZT4nLCAnLW9tYWUnLCAnPG91dGZpbGUubWFlPic=

> <r_lp_tautomer_probability>
1

> <r_epik_Ionization_Penalty>
0.011915

> <r_epik_Ionization_Penalty_Charging>
0

> <r_epik_Ionization_Penalty_Neutral>
0.011915

> <r_epik_State_Penalty>
0.00486223

> <r_epik_Charging_Adjusted_Penalty>
0.00486223

> <i_epik_Tot_Q>
0

> <i_epik_Tot_abs_Q>
0

> <r_epik_Metal_State_Penalty>
-0

> <b_epik_Metal_Only>
0

> <s_lp_Force_Field>
OPLS_2005

> <r_lp_Energy>
61.2514

> <b_lp_Chiralities_Consistent>
1

> <s_lp_Variant>
AV-unprocessed.smi:2829-5

> <Gold.Version>
5.8.1

> <Gold.Id.Protein>
6NUR|6NUR_protein|mol2

> <Gold.PLP.Fitness>
40.2550

> <Gold.PLP.PLP>
-37.4933

> <Gold.PLP.part.hbond>
-2.8666

> <Gold.PLP.part.metal>
0.0000

> <Gold.PLP.part.buried>
-4.3608

> <Gold.PLP.part.nonpolar>
-30.8863

> <Gold.PLP.part.repulsive>
0.8183

> <Gold.PLP.ligand.clash>
0.0000

> <Gold.PLP.ligand.torsion>
0.2260

> <Gold.PLP.Chemscore.Hbond>
1.0000

> <Gold.PLP.Chemscore.CHOScore>
0.0000

> <Gold.PLP.Chemscore.Metal>
0.0000

> <Gold.Chemscore.Hbonds>
donor molecule, donor type, donor heavy atom, donor atom, acceptor molecule, acceptor atom, score
      P1  H 11000 11005       L1    23  0.95

> <Gold.PLP.Chemscore.Internal.Correction>
0.2137

> <Gold.Rescore>
     Score         DG    S(hbond)    S(metal)    S(lipo)     H(rot)  DE(clash)    DE(int)     intcor
     14.05     -15.61       0.81        0.00      88.95       1.16       0.07       1.49       ----

> <Gold.Chemscore.Fitness>
14.0518

> <Gold.Chemscore.DG>
-15.6082

> <Gold.Chemscore.ZeroCoef>
-5.4800

> <Gold.Chemscore.Hbond>
0.8069

> <Gold.Chemscore.Metal>
0.0000

> <Gold.Chemscore.Lipo>
88.9515

> <Gold.Chemscore.Internal_Hbond>
0.0000

> <Gold.Chemscore.DEClash>
0.0677

> <Gold.Chemscore.DEInternal>
1.4887

> <Gold.Chemscore.Rot>
1.1618

> <Gold.Chemscore.Internal.Correction>
   9.000000E+99

> <Gold.Chemscore.Hbonds>
donor molecule, donor type, donor heavy atom, donor atom, acceptor molecule, acceptor atom, score
      P1  H 11000 11005       L1    23  0.21

> <Gold.Chemscore.Hbond.Weighted>
-2.6950

> <Gold.Chemscore.Metal.Weighted>
-0.0000

> <Gold.Chemscore.Lipo.Weighted>
-10.4073

> <Gold.Chemscore.Internal_Hbond.Weighted>
0.0000

> <Gold.Chemscore.DEClash.Weighted>
0.0677

> <Gold.Chemscore.DEInternal.Weighted>
1.4887

> <Gold.Chemscore.Rot.Weighted>
2.9741

> <Gold.Chemscore.Internal.Correction.Weighted>
   9.000000E+99

> <Gold.Protein.RotatedTorsions>
[ 6907 6896 6895 6894 ] final -159.60 input  -60.11 | X-H torsion
[ 7974 7965 7964 7962 ] final  -92.39 input  175.53 | X-H torsion
[ 8008 7997 7996 7995 ] final -101.37 input   59.86 | X-H torsion
[ 10167 10162 10161 10158 ] final  -87.12 input  -65.29 | X-H torsion
[ 10718 10713 10712 10709 ] final  -31.56 input   66.30 | X-H torsion
[ 10763 10752 10751 10750 ] final -131.32 input  -60.55 | X-H torsion
[ 11005 11000 10999 10996 ] final   65.08 input  -57.11 | X-H torsion

> <Gold.Protein.ActiveResidues>
 VAL166  LYS551  ARG553  GLY616  TRP617  ASP618  TYR619  PRO620  LYS621  CYS622 
 ASP623  PHE694  ASN695  SER759  ASP760  ASP761  ALA762  ILE779  LEU786  VAL792 
 PHE793  MET794  SER795  GLU796  ALA797  LYS798  CYS799  TRP800  GLU811  SER814 

> <Gold.Protein.RotatedAtoms>
  151.3362  133.3981  159.2666 H   0  0  0  0  0  0  0  0  0  0  0  0  # atno 6907 bound_to 6896
  150.9915  134.9250  159.7913 H   0  0  0  0  0  0  0  0  0  0  0  0  # atno 6908 bound_to 6896
  152.5248  134.3326  159.9241 H   0  0  0  0  0  0  0  0  0  0  0  0  # atno 6909 bound_to 6896
  145.4005  140.9537  143.2290 H   0  0  0  0  0  0  0  0  0  0  0  0  # atno 7974 bound_to 7965
  154.8416  140.0435  157.1545 H   0  0  0  0  0  0  0  0  0  0  0  0  # atno 8008 bound_to 7997
  154.9041  140.3004  155.5281 H   0  0  0  0  0  0  0  0  0  0  0  0  # atno 8009 bound_to 7997
  156.2992  140.2370  156.4072 H   0  0  0  0  0  0  0  0  0  0  0  0  # atno 8010 bound_to 7997
  140.3876  143.2720  151.9306 H   0  0  0  0  0  0  0  0  0  0  0  0  # atno 10167 bound_to 10162
  156.3858  130.4364  149.7433 H   0  0  0  0  0  0  0  0  0  0  0  0  # atno 10718 bound_to 10713
  154.8751  135.3834  154.4226 H   0  0  0  0  0  0  0  0  0  0  0  0  # atno 10763 bound_to 10752
  153.4928  135.7030  153.5879 H   0  0  0  0  0  0  0  0  0  0  0  0  # atno 10764 bound_to 10752
  153.4245  135.3893  155.2099 H   0  0  0  0  0  0  0  0  0  0  0  0  # atno 10765 bound_to 10752
  139.9917  134.6581  156.0079 H   0  0  0  0  0  0  0  0  0  0  0  0  # atno 11005 bound_to 11000
  144.8377  139.5523  143.6914 LP  0  0  0  0  0  0  0  0  0  0  0  0  # atno 17320 bound_to 7965
  146.2754  139.6740  142.9267 LP  0  0  0  0  0  0  0  0  0  0  0  0  # atno 17321 bound_to 7965
  139.4791  144.5759  151.8013 LP  0  0  0  0  0  0  0  0  0  0  0  0  # atno 17342 bound_to 10162
  140.4873  144.1361  150.5943 LP  0  0  0  0  0  0  0  0  0  0  0  0  # atno 17343 bound_to 10162
  156.4506  130.7905  151.2926 LP  0  0  0  0  0  0  0  0  0  0  0  0  # atno 17370 bound_to 10713
  157.7495  131.0096  150.3275 LP  0  0  0  0  0  0  0  0  0  0  0  0  # atno 17371 bound_to 10713
  141.1571  133.6542  156.4198 LP  0  0  0  0  0  0  0  0  0  0  0  0  # atno 17394 bound_to 11000
  140.4895  134.6588  157.5205 LP  0  0  0  0  0  0  0  0  0  0  0  0  # atno 17395 bound_to 11000

$$$$
