AV-unprocessed.smi:1546|AV-procd|sdf|6218|dock2
  -GOLD-   22720 6393D 1   1.00000     0.00000
 Structure written by MMmdl.
 30 31  0  0  0  0  0  0  0  0  1 V2000
  151.2041  140.3944  158.3966 O   0  0  0  0  0  0  0  0  0  0  0  0
  150.8899  141.2603  157.5801 C   0  0  0  0  0  0  0  0  0  0  0  0
  150.6643  142.7010  158.0432 C   0  0  0  0  0  0  0  0  0  0  0  0
  151.1789  142.8699  159.3552 O   0  0  0  0  0  0  0  0  0  0  0  0
  152.5565  142.5511  159.4444 C   0  0  0  0  0  0  0  0  0  0  0  0
  153.1320  143.1953  160.6873 C   0  0  0  0  0  0  0  0  0  0  0  0
  152.7285  142.7016  162.0583 C   0  0  0  0  0  0  0  0  0  0  0  0
  152.2693  144.0561  161.5822 C   0  0  0  0  0  0  0  0  0  0  0  0
  150.7175  141.0594  156.2590 N   0  0  0  0  0  0  0  0  0  0  0  0
  150.8388  139.8783  155.5077 C   0  0  0  0  0  0  0  0  0  0  0  0
  149.9584  139.4328  154.5745 C   0  0  0  0  0  0  0  0  0  0  0  0
  150.1236  138.2572  153.8553 N   0  0  0  0  0  0  0  0  0  0  0  0
  151.2443  137.4778  154.0919 C   0  0  0  0  0  0  0  0  0  0  0  0
  152.1947  137.8059  154.9889 C   0  0  0  0  0  0  0  0  0  0  0  0
  152.0536  139.0554  155.7697 C   0  0  0  0  0  0  0  0  0  0  0  0
  152.9065  139.3876  156.5930 O   0  0  0  0  0  0  0  0  0  0  0  0
  151.1616  143.3860  157.3542 H   0  0  0  0  0  0  0  0  0  0  0  0
  149.5954  142.9188  158.0235 H   0  0  0  0  0  0  0  0  0  0  0  0
  152.7006  141.4702  159.4865 H   0  0  0  0  0  0  0  0  0  0  0  0
  153.0901  142.9283  158.5709 H   0  0  0  0  0  0  0  0  0  0  0  0
  154.1722  143.4983  160.5836 H   0  0  0  0  0  0  0  0  0  0  0  0
  151.9828  141.9110  162.1147 H   0  0  0  0  0  0  0  0  0  0  0  0
  153.4972  142.6732  162.8279 H   0  0  0  0  0  0  0  0  0  0  0  0
  152.7318  144.9321  162.0325 H   0  0  0  0  0  0  0  0  0  0  0  0
  151.2184  144.1664  161.3215 H   0  0  0  0  0  0  0  0  0  0  0  0
  150.4712  141.8744  155.7156 H   0  0  0  0  0  0  0  0  0  0  0  0
  149.0524  139.9487  154.3015 H   0  0  0  0  0  0  0  0  0  0  0  0
  151.2926  136.5794  153.4943 H   0  0  0  0  0  0  0  0  0  0  0  0
  153.0577  137.1772  155.1524 H   0  0  0  0  0  0  0  0  0  0  0  0
  149.4368  137.9752  153.1701 H   0  0  0  0  0  0  0  0  0  0  0  0
  1  2  2  0  0  0  0
  2  3  1  0  0  0  0
  2  9  1  0  0  0  0
  3  4  1  0  0  0  0
  3 17  1  0  0  0  0
  3 18  1  0  0  0  0
  4  5  1  0  0  0  0
  5  6  1  0  0  0  0
  5 19  1  0  0  0  0
  5 20  1  0  0  0  0
  6  8  1  0  0  0  0
  6  7  1  0  0  0  0
  6 21  1  0  0  0  0
  7  8  1  0  0  0  0
  7 22  1  0  0  0  0
  7 23  1  0  0  0  0
  8 24  1  0  0  0  0
  8 25  1  0  0  0  0
  9 26  1  0  0  0  0
  9 10  1  0  0  0  0
 10 15  1  0  0  0  0
 10 11  2  0  0  0  0
 11 27  1  0  0  0  0
 11 12  1  0  0  0  0
 12 30  1  0  0  0  0
 12 13  1  0  0  0  0
 13 28  1  0  0  0  0
 13 14  2  0  0  0  0
 14 15  1  0  0  0  0
 14 29  1  0  0  0  0
 15 16  2  0  0  0  0
M  END
> <s_m_source_file>
AV-unprocessed.smi

> <i_m_source_file_index>
1546

> <i_lp_mmshare_version>
43012

> <i_f3d_flags>
0

> <s_epik_input>
W0NIMl0xW0NIMl1bQ0hdMVtDSDJdT1tDSDJdQyg9TylbTkhdYzJbY0hdbltjSF1bY0hdYzJbT0hd

> <s_epik_cmdline>
J2VwaWtfcHl0aG9uJywgJy1waCcsICc3LjAnLCAnLXRuJywgJzgnLCAnLW1hJywgJzIwMCcsICctbWV0YWxfYmluZGluZycsICctaW1hZScsICc8aW5maWxlLm1hZT4nLCAnLW9tYWUnLCAnPG91dGZpbGUubWFlPic=

> <r_lp_tautomer_probability>
1

> <r_epik_Ionization_Penalty>
0.000226134

> <r_epik_Ionization_Penalty_Charging>
0.000226086

> <r_epik_Ionization_Penalty_Neutral>
4.85517e-08

> <r_epik_State_Penalty>
-0

> <r_epik_Charging_Adjusted_Penalty>
0.000226086

> <i_epik_Tot_Q>
0

> <i_epik_Tot_abs_Q>
0

> <r_epik_Metal_State_Penalty>
0.0890487

> <b_epik_Metal_Only>
0

> <s_lp_Force_Field>
OPLS_2005

> <r_lp_Energy>
13.4663

> <b_lp_Chiralities_Consistent>
1

> <s_lp_Variant>
AV-unprocessed.smi:1546-1

> <Gold.Version>
5.8.1

> <Gold.Id.Protein>
6NUR|6NUR_protein|mol2

> <Gold.PLP.Fitness>
41.0057

> <Gold.PLP.PLP>
-35.1604

> <Gold.PLP.part.hbond>
-2.5120

> <Gold.PLP.part.metal>
0.0000

> <Gold.PLP.part.buried>
-2.8397

> <Gold.PLP.part.nonpolar>
-30.7862

> <Gold.PLP.part.repulsive>
0.1848

> <Gold.PLP.ligand.clash>
0.0000

> <Gold.PLP.ligand.torsion>
1.0494

> <Gold.PLP.Chemscore.Hbond>
1.4586

> <Gold.PLP.Chemscore.CHOScore>
1.0000

> <Gold.PLP.Chemscore.Metal>
0.0000

> <Gold.Chemscore.Hbonds>
donor molecule, donor type, donor heavy atom, donor atom, acceptor molecule, acceptor atom, score
      L1  H    12    30       P1  7948  0.46
      P1  H  7997  8009       L1    16  1.00
      L1  C    13    28       P1  7949  1.00

> <Gold.PLP.Chemscore.Internal.Correction>
0.5682

> <Gold.Rescore>
     Score         DG    S(hbond)    S(metal)    S(lipo)     H(rot)  DE(clash)    DE(int)     intcor
     11.96     -17.14       1.82        0.00      86.04       1.75       0.12       5.07       ----

> <Gold.Chemscore.Fitness>
11.9599

> <Gold.Chemscore.DG>
-17.1432

> <Gold.Chemscore.ZeroCoef>
-5.4800

> <Gold.Chemscore.Hbond>
1.8224

> <Gold.Chemscore.Metal>
0.0000

> <Gold.Chemscore.Lipo>
86.0376

> <Gold.Chemscore.Internal_Hbond>
0.0000

> <Gold.Chemscore.DEClash>
0.1151

> <Gold.Chemscore.DEInternal>
5.0682

> <Gold.Chemscore.Rot>
1.7540

> <Gold.Chemscore.Internal.Correction>
   9.000000E+99

> <Gold.Chemscore.Hbonds>
donor molecule, donor type, donor heavy atom, donor atom, acceptor molecule, acceptor atom, score
      L1  H    12    30       P1  7948  0.42
      P1  H  7997  8009       L1    16  0.99

> <Gold.Chemscore.Hbond.Weighted>
-6.0869

> <Gold.Chemscore.Metal.Weighted>
-0.0000

> <Gold.Chemscore.Lipo.Weighted>
-10.0664

> <Gold.Chemscore.Internal_Hbond.Weighted>
0.0000

> <Gold.Chemscore.DEClash.Weighted>
0.1151

> <Gold.Chemscore.DEInternal.Weighted>
5.0682

> <Gold.Chemscore.Rot.Weighted>
4.4901

> <Gold.Chemscore.Internal.Correction.Weighted>
   9.000000E+99

> <Gold.Protein.RotatedTorsions>
[ 6907 6896 6895 6894 ] final  -50.56 input  -60.11 | X-H torsion
[ 7974 7965 7964 7962 ] final   71.49 input  175.53 | X-H torsion
[ 8008 7997 7996 7995 ] final -175.67 input   59.86 | X-H torsion
[ 10167 10162 10161 10158 ] final  171.15 input  -65.29 | X-H torsion
[ 10718 10713 10712 10709 ] final  131.36 input   66.30 | X-H torsion
[ 10763 10752 10751 10750 ] final  -77.85 input  -60.55 | X-H torsion
[ 11005 11000 10999 10996 ] final  -85.71 input  -57.11 | X-H torsion

> <Gold.Protein.ActiveResidues>
 VAL166  LYS551  ARG553  GLY616  TRP617  ASP618  TYR619  PRO620  LYS621  CYS622 
 ASP623  PHE694  ASN695  SER759  ASP760  ASP761  ALA762  ILE779  LEU786  VAL792 
 PHE793  MET794  SER795  GLU796  ALA797  LYS798  CYS799  TRP800  GLU811  SER814 

> <Gold.Protein.RotatedAtoms>
  150.8696  134.8066  159.7144 H   0  0  0  0  0  0  0  0  0  0  0  0  # atno 6907 bound_to 6896
  152.4705  134.4969  159.9722 H   0  0  0  0  0  0  0  0  0  0  0  0  # atno 6908 bound_to 6896
  151.5059  133.3456  159.2912 H   0  0  0  0  0  0  0  0  0  0  0  0  # atno 6909 bound_to 6896
  145.7651  139.2818  143.1353 H   0  0  0  0  0  0  0  0  0  0  0  0  # atno 7974 bound_to 7965
  155.9855  140.1190  157.0687 H   0  0  0  0  0  0  0  0  0  0  0  0  # atno 8008 bound_to 7997
  154.4195  140.1136  156.5562 H   0  0  0  0  0  0  0  0  0  0  0  0  # atno 8009 bound_to 7997
  155.6413  140.3473  155.4718 H   0  0  0  0  0  0  0  0  0  0  0  0  # atno 8010 bound_to 7997
  139.5038  144.3518  151.9915 H   0  0  0  0  0  0  0  0  0  0  0  0  # atno 10167 bound_to 10162
  157.4975  131.1093  150.9473 H   0  0  0  0  0  0  0  0  0  0  0  0  # atno 10718 bound_to 10713
  154.5183  135.5750  153.6660 H   0  0  0  0  0  0  0  0  0  0  0  0  # atno 10763 bound_to 10752
  152.9911  135.6175  154.2788 H   0  0  0  0  0  0  0  0  0  0  0  0  # atno 10764 bound_to 10752
  154.2707  135.2853  155.2719 H   0  0  0  0  0  0  0  0  0  0  0  0  # atno 10765 bound_to 10752
  141.1638  133.7414  156.9055 H   0  0  0  0  0  0  0  0  0  0  0  0  # atno 11005 bound_to 11000
  146.0225  140.8334  142.9916 LP  0  0  0  0  0  0  0  0  0  0  0  0  # atno 17320 bound_to 7965
  144.6823  140.2650  143.7314 LP  0  0  0  0  0  0  0  0  0  0  0  0  # atno 17321 bound_to 7965
  140.2954  144.3706  150.6076 LP  0  0  0  0  0  0  0  0  0  0  0  0  # atno 17342 bound_to 10162
  140.5914  143.2168  151.7245 LP  0  0  0  0  0  0  0  0  0  0  0  0  # atno 17343 bound_to 10162
  157.0154  130.5653  149.5325 LP  0  0  0  0  0  0  0  0  0  0  0  0  # atno 17370 bound_to 10713
  156.0209  130.5304  150.8272 LP  0  0  0  0  0  0  0  0  0  0  0  0  # atno 17371 bound_to 10713
  140.1553  134.9203  157.2645 LP  0  0  0  0  0  0  0  0  0  0  0  0  # atno 17394 bound_to 11000
  140.2675  134.3499  155.7385 LP  0  0  0  0  0  0  0  0  0  0  0  0  # atno 17395 bound_to 11000

$$$$
