AV-unprocessed.smi:2569|AV-procd|sdf|10105|dock4
  -GOLD-   2272014123D 1   1.00000     0.00000
 Structure written by MMmdl.
 40 42  0  0  0  0  0  0  0  0  2 V2000
  152.2298  144.1985  161.3395 C   0  0  0  0  0  0  0  0  0  0  0  0
  152.0733  143.2237  160.1847 C   0  0  0  0  0  0  0  0  0  0  0  0
  151.2577  143.5967  159.0926 C   0  0  0  0  0  0  0  0  0  0  0  0
  151.1376  142.6853  158.0502 C   0  0  0  0  0  0  0  0  0  0  0  0
  150.4244  142.7558  156.8516 N   0  3  0  0  0  0  0  0  0  0  0  0
  150.6133  141.6089  156.1421 C   0  0  0  0  0  0  0  0  0  0  0  0
  151.4387  140.8077  156.8688 N   0  0  0  0  0  0  0  0  0  0  0  0
  151.9475  139.4632  156.5624 C   0  0  0  0  0  0  0  0  0  0  0  0
  152.1144  139.2104  155.0482 C   0  0  1  0  0  0  0  0  0  0  0  0
  153.4850  139.1659  154.7068 O   0  0  0  0  0  0  0  0  0  0  0  0
  151.4616  137.9004  154.5653 C   0  0  0  0  0  0  0  0  0  0  0  0
  151.3648  136.9009  155.6159 N   0  0  0  0  0  0  0  0  0  0  0  0
  152.4609  136.5068  156.3105 N   0  0  0  0  0  0  0  0  0  0  0  0
  152.0570  135.6232  157.1773 N   0  0  0  0  0  0  0  0  0  0  0  0
  150.6949  135.4077  157.0780 N   0  0  0  0  0  0  0  0  0  0  0  0
  150.3180  136.2180  156.0978 C   0  0  0  0  0  0  0  0  0  0  0  0
  148.9227  136.3705  155.5887 C   0  0  0  0  0  0  0  0  0  0  0  0
  151.7912  141.4377  158.0684 C   0  0  0  0  0  0  0  0  0  0  0  0
  152.5977  141.0545  159.1374 C   0  0  0  0  0  0  0  0  0  0  0  0
  152.7350  141.9687  160.2062 C   0  0  0  0  0  0  0  0  0  0  0  0
  153.6115  141.5787  161.3841 C   0  0  0  0  0  0  0  0  0  0  0  0
  151.6708  145.1180  161.1642 H   0  0  0  0  0  0  0  0  0  0  0  0
  153.2775  144.4676  161.4743 H   0  0  0  0  0  0  0  0  0  0  0  0
  151.8627  143.7566  162.2663 H   0  0  0  0  0  0  0  0  0  0  0  0
  150.7516  144.5509  159.0692 H   0  0  0  0  0  0  0  0  0  0  0  0
  150.1839  141.3760  155.1782 H   0  0  0  0  0  0  0  0  0  0  0  0
  152.8847  139.3029  157.0961 H   0  0  0  0  0  0  0  0  0  0  0  0
  151.2329  138.7564  156.9855 H   0  0  0  0  0  0  0  0  0  0  0  0
  151.6751  140.0462  154.5027 H   0  0  0  0  0  0  0  0  0  0  0  0
  153.5638  139.2585  153.7697 H   0  0  0  0  0  0  0  0  0  0  0  0
  150.4582  138.0946  154.1841 H   0  0  0  0  0  0  0  0  0  0  0  0
  152.0297  137.4796  153.7339 H   0  0  0  0  0  0  0  0  0  0  0  0
  148.2746  135.6086  156.0227 H   0  0  0  0  0  0  0  0  0  0  0  0
  148.9012  136.2639  154.5040 H   0  0  0  0  0  0  0  0  0  0  0  0
  148.5319  137.3522  155.8556 H   0  0  0  0  0  0  0  0  0  0  0  0
  153.1065  140.1020  159.1530 H   0  0  0  0  0  0  0  0  0  0  0  0
  154.0353  140.5827  161.2534 H   0  0  0  0  0  0  0  0  0  0  0  0
  153.0328  141.5754  162.3081 H   0  0  0  0  0  0  0  0  0  0  0  0
  154.4386  142.2802  161.4945 H   0  0  0  0  0  0  0  0  0  0  0  0
  149.8491  143.5275  156.5387 H   0  0  0  0  0  0  0  0  0  0  0  0
  1  2  1  0  0  0  0
  1 22  1  0  0  0  0
  1 23  1  0  0  0  0
  1 24  1  0  0  0  0
  2 20  1  0  0  0  0
  2  3  2  0  0  0  0
  3  4  1  0  0  0  0
  3 25  1  0  0  0  0
  4 18  2  0  0  0  0
  4  5  1  0  0  0  0
  5  6  2  0  0  0  0
  5 40  1  0  0  0  0
  6  7  1  0  0  0  0
  6 26  1  0  0  0  0
  7  8  1  0  0  0  0
  7 18  1  0  0  0  0
  8  9  1  0  0  0  0
  8 27  1  0  0  0  0
  8 28  1  0  0  0  0
  9 10  1  0  0  0  0
  9 11  1  0  0  0  0
  9 29  1  0  0  0  0
 10 30  1  0  0  0  0
 11 12  1  0  0  0  0
 11 31  1  0  0  0  0
 11 32  1  0  0  0  0
 12 16  1  0  0  0  0
 12 13  1  0  0  0  0
 13 14  2  0  0  0  0
 14 15  1  0  0  0  0
 15 16  2  0  0  0  0
 16 17  1  0  0  0  0
 17 33  1  0  0  0  0
 17 34  1  0  0  0  0
 17 35  1  0  0  0  0
 18 19  1  0  0  0  0
 19 20  2  0  0  0  0
 19 36  1  0  0  0  0
 20 21  1  0  0  0  0
 21 37  1  0  0  0  0
 21 38  1  0  0  0  0
 21 39  1  0  0  0  0
M  CHG  1   5   1
M  END
> <s_m_source_file>
AV-unprocessed.smi

> <i_m_source_file_index>
2569

> <i_lp_mmshare_version>
43012

> <i_f3d_flags>
0

> <s_epik_input>
W0NIM11jKFtjSF0xKWMoW0NIM10pW2NIXWMoYzEyKW4oW2NIXW4yKVtDSDJdW0NASF0oW09IXSlbQ0gyXW4zbm5uYzNbQ0gzXQ==

> <s_epik_cmdline>
J2VwaWtfcHl0aG9uJywgJy1waCcsICc3LjAnLCAnLXRuJywgJzgnLCAnLW1hJywgJzIwMCcsICctbWV0YWxfYmluZGluZycsICctaW1hZScsICc8aW5maWxlLm1hZT4nLCAnLW9tYWUnLCAnPG91dGZpbGUubWFlPic=

> <r_lp_tautomer_probability>
1

> <r_epik_Ionization_Penalty>
1.13338

> <r_epik_Ionization_Penalty_Charging>
1.13335

> <r_epik_Ionization_Penalty_Neutral>
3.02334e-05

> <r_epik_State_Penalty>
1.19324

> <r_epik_Charging_Adjusted_Penalty>
2.3266

> <i_epik_Tot_Q>
1

> <i_epik_Tot_abs_Q>
1

> <r_epik_Metal_State_Penalty>
1.27602

> <b_epik_Metal_Only>
0

> <s_lp_Force_Field>
OPLS_2005

> <r_lp_Energy>
16.0623

> <b_lp_Chiralities_Consistent>
1

> <s_lp_Variant>
AV-unprocessed.smi:2569-4

> <Gold.Version>
5.8.1

> <Gold.Id.Protein>
6NUR|6NUR_protein|mol2

> <Gold.PLP.Fitness>
54.3673

> <Gold.PLP.PLP>
-45.4869

> <Gold.PLP.part.hbond>
-4.1286

> <Gold.PLP.part.metal>
0.0000

> <Gold.PLP.part.buried>
-6.2224

> <Gold.PLP.part.nonpolar>
-35.6486

> <Gold.PLP.part.repulsive>
0.0341

> <Gold.PLP.ligand.clash>
0.0000

> <Gold.PLP.ligand.torsion>
1.5666

> <Gold.PLP.Chemscore.Hbond>
4.0000

> <Gold.PLP.Chemscore.CHOScore>
0.0000

> <Gold.PLP.Chemscore.Metal>
0.0000

> <Gold.Chemscore.Hbonds>
donor molecule, donor type, donor heavy atom, donor atom, acceptor molecule, acceptor atom, score
      L1  H     5    40       P1  8028  2.00
      P1  H  7997  8010       L1    10  1.00
      P1  H 10752 10764       L1    13  1.00

> <Gold.PLP.Chemscore.Internal.Correction>
0.0135

> <Gold.Rescore>
     Score         DG    S(hbond)    S(metal)    S(lipo)     H(rot)  DE(clash)    DE(int)     intcor
     17.67     -19.33       2.56        0.00     101.79       2.59       0.00       1.66       ----

> <Gold.Chemscore.Fitness>
17.6748

> <Gold.Chemscore.DG>
-19.3311

> <Gold.Chemscore.ZeroCoef>
-5.4800

> <Gold.Chemscore.Hbond>
2.5629

> <Gold.Chemscore.Metal>
0.0000

> <Gold.Chemscore.Lipo>
101.7914

> <Gold.Chemscore.Internal_Hbond>
0.0000

> <Gold.Chemscore.DEClash>
0.0000

> <Gold.Chemscore.DEInternal>
1.6564

> <Gold.Chemscore.Rot>
2.5854

> <Gold.Chemscore.Internal.Correction>
   9.000000E+99

> <Gold.Chemscore.Hbonds>
donor molecule, donor type, donor heavy atom, donor atom, acceptor molecule, acceptor atom, score
      L1  H     5    40       P1  8028  1.00
      P1  H  7997  8010       L1    10  0.72
      P1  H 10752 10764       L1    13  0.09

> <Gold.Chemscore.Hbond.Weighted>
-8.5602

> <Gold.Chemscore.Metal.Weighted>
-0.0000

> <Gold.Chemscore.Lipo.Weighted>
-11.9096

> <Gold.Chemscore.Internal_Hbond.Weighted>
0.0000

> <Gold.Chemscore.DEClash.Weighted>
0.0000

> <Gold.Chemscore.DEInternal.Weighted>
1.6564

> <Gold.Chemscore.Rot.Weighted>
6.6187

> <Gold.Chemscore.Internal.Correction.Weighted>
   9.000000E+99

> <Gold.Protein.RotatedTorsions>
[ 6907 6896 6895 6894 ] final  135.81 input  -60.11 | X-H torsion
[ 7974 7965 7964 7962 ] final -162.77 input  175.53 | X-H torsion
[ 8008 7997 7996 7995 ] final  102.14 input   59.86 | X-H torsion
[ 10167 10162 10161 10158 ] final  157.12 input  -65.29 | X-H torsion
[ 10718 10713 10712 10709 ] final -171.40 input   66.30 | X-H torsion
[ 10763 10752 10751 10750 ] final  -21.19 input  -60.55 | X-H torsion
[ 11005 11000 10999 10996 ] final  -54.85 input  -57.11 | X-H torsion

> <Gold.Protein.ActiveResidues>
 VAL166  LYS551  ARG553  GLY616  TRP617  ASP618  TYR619  PRO620  LYS621  CYS622 
 ASP623  PHE694  ASN695  SER759  ASP760  ASP761  ALA762  ILE779  LEU786  VAL792 
 PHE793  MET794  SER795  GLU796  ALA797  LYS798  CYS799  TRP800  GLU811  SER814 

> <Gold.Protein.RotatedAtoms>
  152.2963  133.5611  159.5589 H   0  0  0  0  0  0  0  0  0  0  0  0  # atno 6907 bound_to 6896
  150.7257  134.0356  159.3757 H   0  0  0  0  0  0  0  0  0  0  0  0  # atno 6908 bound_to 6896
  151.8258  135.0637  160.0481 H   0  0  0  0  0  0  0  0  0  0  0  0  # atno 6909 bound_to 6896
  144.7347  140.3204  143.6172 H   0  0  0  0  0  0  0  0  0  0  0  0  # atno 7974 bound_to 7965
  156.1365  140.3186  155.8429 H   0  0  0  0  0  0  0  0  0  0  0  0  # atno 8008 bound_to 7997
  155.4234  140.0514  157.3041 H   0  0  0  0  0  0  0  0  0  0  0  0  # atno 8009 bound_to 7997
  154.4941  140.2104  155.9497 H   0  0  0  0  0  0  0  0  0  0  0  0  # atno 8010 bound_to 7997
  139.4822  144.4947  151.8257 H   0  0  0  0  0  0  0  0  0  0  0  0  # atno 10167 bound_to 10162
  156.7403  130.9340  151.3110 H   0  0  0  0  0  0  0  0  0  0  0  0  # atno 10718 bound_to 10713
  153.6323  135.6988  153.5271 H   0  0  0  0  0  0  0  0  0  0  0  0  # atno 10763 bound_to 10752
  153.2849  135.4174  155.1113 H   0  0  0  0  0  0  0  0  0  0  0  0  # atno 10764 bound_to 10752
  154.8519  135.3611  154.5866 H   0  0  0  0  0  0  0  0  0  0  0  0  # atno 10765 bound_to 10752
  141.1045  133.6614  156.4381 H   0  0  0  0  0  0  0  0  0  0  0  0  # atno 11005 bound_to 11000
  145.7574  139.1813  143.2287 LP  0  0  0  0  0  0  0  0  0  0  0  0  # atno 17320 bound_to 7965
  146.1013  140.7540  142.9547 LP  0  0  0  0  0  0  0  0  0  0  0  0  # atno 17321 bound_to 7965
  140.4434  144.1955  150.5892 LP  0  0  0  0  0  0  0  0  0  0  0  0  # atno 17342 bound_to 10162
  140.4659  143.2431  151.9155 LP  0  0  0  0  0  0  0  0  0  0  0  0  # atno 17343 bound_to 10162
  157.6821  130.9150  150.0294 LP  0  0  0  0  0  0  0  0  0  0  0  0  # atno 17370 bound_to 10713
  156.1469  130.3642  149.9497 LP  0  0  0  0  0  0  0  0  0  0  0  0  # atno 17371 bound_to 10713
  140.4936  134.6552  157.5221 LP  0  0  0  0  0  0  0  0  0  0  0  0  # atno 17394 bound_to 11000
  139.9910  134.6985  155.9690 LP  0  0  0  0  0  0  0  0  0  0  0  0  # atno 17395 bound_to 11000

$$$$
