AV-unprocessed.smi:986|AV-procd|sdf|4320|dock3
  -GOLD-   22720 2223D 1   1.00000     0.00000
 Structure written by MMmdl.
 31 31  0  0  0  0  0  0  0  0  1 V2000
  146.6725  132.7622  151.3366 C   0  0  0  0  0  0  0  0  0  0  0  0
  146.4152  133.8061  152.4350 C   0  0  0  0  0  0  0  0  0  0  0  0
  145.7377  135.0617  151.8705 C   0  0  0  0  0  0  0  0  0  0  0  0
  147.6656  134.1871  153.0820 N   0  0  0  0  0  0  0  0  0  0  0  0
  148.0138  133.9166  154.3527 C   0  0  0  0  0  0  0  0  0  0  0  0
  147.2831  133.3004  155.1275 O   0  0  0  0  0  0  0  0  0  0  0  0
  149.3845  134.4071  154.8496 C   0  0  0  0  0  0  0  0  0  0  0  0
  149.7630  135.7315  154.3575 N   0  0  0  0  0  0  0  0  0  0  0  0
  150.7348  136.5032  154.8714 C   0  0  0  0  0  0  0  0  0  0  0  0
  151.3766  136.2069  155.8783 O   0  0  0  0  0  0  0  0  0  0  0  0
  151.0502  137.7920  154.1128 C   0  0  0  0  0  0  0  0  0  0  0  0
  151.4647  138.8372  155.0320 N   0  0  0  0  0  0  0  0  0  0  0  0
  152.3385  138.8108  156.0404 C   0  0  0  0  0  0  0  0  0  0  0  0
  152.4477  139.9637  156.6853 N   0  0  0  0  0  0  0  0  0  0  0  0
  151.5534  140.7100  155.9710 C   0  0  0  0  0  0  0  0  0  0  0  0
  150.9343  140.0815  154.9716 N   0  0  0  0  0  0  0  0  0  0  0  0
  145.7425  132.4733  150.8465 H   0  0  0  0  0  0  0  0  0  0  0  0
  147.1202  131.8561  151.7461 H   0  0  0  0  0  0  0  0  0  0  0  0
  147.3456  133.1496  150.5711 H   0  0  0  0  0  0  0  0  0  0  0  0
  145.7488  133.3720  153.1827 H   0  0  0  0  0  0  0  0  0  0  0  0
  144.7800  134.8173  151.4105 H   0  0  0  0  0  0  0  0  0  0  0  0
  146.3583  135.5396  151.1116 H   0  0  0  0  0  0  0  0  0  0  0  0
  145.5484  135.7947  152.6555 H   0  0  0  0  0  0  0  0  0  0  0  0
  148.3305  134.6917  152.5140 H   0  0  0  0  0  0  0  0  0  0  0  0
  149.3614  134.4457  155.9389 H   0  0  0  0  0  0  0  0  0  0  0  0
  150.1450  133.6712  154.5833 H   0  0  0  0  0  0  0  0  0  0  0  0
  149.2838  136.0603  153.5321 H   0  0  0  0  0  0  0  0  0  0  0  0
  151.8483  137.6179  153.3899 H   0  0  0  0  0  0  0  0  0  0  0  0
  150.1742  138.1265  153.5548 H   0  0  0  0  0  0  0  0  0  0  0  0
  152.8998  137.9290  156.3130 H   0  0  0  0  0  0  0  0  0  0  0  0
  151.3499  141.7466  156.1966 H   0  0  0  0  0  0  0  0  0  0  0  0
  1  2  1  0  0  0  0
  1 17  1  0  0  0  0
  1 18  1  0  0  0  0
  1 19  1  0  0  0  0
  2  3  1  0  0  0  0
  2  4  1  0  0  0  0
  2 20  1  0  0  0  0
  3 21  1  0  0  0  0
  3 22  1  0  0  0  0
  3 23  1  0  0  0  0
  4  5  1  0  0  0  0
  4 24  1  0  0  0  0
  5  6  2  0  0  0  0
  5  7  1  0  0  0  0
  7  8  1  0  0  0  0
  7 25  1  0  0  0  0
  7 26  1  0  0  0  0
  8  9  1  0  0  0  0
  8 27  1  0  0  0  0
  9 10  2  0  0  0  0
  9 11  1  0  0  0  0
 11 12  1  0  0  0  0
 11 28  1  0  0  0  0
 11 29  1  0  0  0  0
 12 16  1  0  0  0  0
 12 13  1  0  0  0  0
 13 14  2  0  0  0  0
 13 30  1  0  0  0  0
 14 15  1  0  0  0  0
 15 16  2  0  0  0  0
 15 31  1  0  0  0  0
M  END
> <s_m_source_file>
AV-unprocessed.smi

> <i_m_source_file_index>
986

> <i_lp_mmshare_version>
43012

> <i_f3d_flags>
0

> <s_epik_input>
W0NIM11bQ0hdKFtDSDNdKVtOSF1DKD1PKVtDSDJdW05IXUMoPU8pW0NIMl1uMVtjSF1uW2NIXW4x

> <s_epik_cmdline>
J2VwaWtfcHl0aG9uJywgJy1waCcsICc3LjAnLCAnLXRuJywgJzgnLCAnLW1hJywgJzIwMCcsICctbWV0YWxfYmluZGluZycsICctaW1hZScsICc8aW5maWxlLm1hZT4nLCAnLW9tYWUnLCAnPG91dGZpbGUubWFlPic=

> <r_lp_tautomer_probability>
1

> <r_epik_Ionization_Penalty>
7.25916e-06

> <r_epik_Ionization_Penalty_Charging>
0

> <r_epik_Ionization_Penalty_Neutral>
7.25916e-06

> <r_epik_State_Penalty>
-0

> <r_epik_Charging_Adjusted_Penalty>
0

> <i_epik_Tot_Q>
0

> <i_epik_Tot_abs_Q>
0

> <r_epik_Metal_State_Penalty>
-0

> <b_epik_Metal_Only>
0

> <s_lp_Force_Field>
OPLS_2005

> <r_lp_Energy>
0.116245

> <b_lp_Chiralities_Consistent>
1

> <s_lp_Variant>
AV-unprocessed.smi:986-1

> <Gold.Version>
5.8.1

> <Gold.Id.Protein>
6NUR|6NUR_protein|mol2

> <Gold.PLP.Fitness>
39.9931

> <Gold.PLP.PLP>
-26.8596

> <Gold.PLP.part.hbond>
-5.6708

> <Gold.PLP.part.metal>
0.0000

> <Gold.PLP.part.buried>
-1.9348

> <Gold.PLP.part.nonpolar>
-20.2683

> <Gold.PLP.part.repulsive>
0.1624

> <Gold.PLP.ligand.clash>
0.0000

> <Gold.PLP.ligand.torsion>
0.9463

> <Gold.PLP.Chemscore.Hbond>
5.0000

> <Gold.PLP.Chemscore.CHOScore>
0.0000

> <Gold.PLP.Chemscore.Metal>
0.0000

> <Gold.Chemscore.Hbonds>
donor molecule, donor type, donor heavy atom, donor atom, acceptor molecule, acceptor atom, score
      L1  H     4    24       P1  7948  1.00
      L1  H     8    27       P1  7948  1.00
      P1  H  7989  7998       L1    16  1.00
      P1  H  7997  8009       L1    14  0.90
      P1  H 10752 10763       L1    10  0.88

> <Gold.PLP.Chemscore.Internal.Correction>
0.0260

> <Gold.Rescore>
     Score         DG    S(hbond)    S(metal)    S(lipo)     H(rot)  DE(clash)    DE(int)     intcor
     11.45     -14.22       4.05        0.00      25.49       3.03       0.17       2.60       ----

> <Gold.Chemscore.Fitness>
11.4528

> <Gold.Chemscore.DG>
-14.2228

> <Gold.Chemscore.ZeroCoef>
-5.4800

> <Gold.Chemscore.Hbond>
4.0494

> <Gold.Chemscore.Metal>
0.0000

> <Gold.Chemscore.Lipo>
25.4898

> <Gold.Chemscore.Internal_Hbond>
0.0000

> <Gold.Chemscore.DEClash>
0.1685

> <Gold.Chemscore.DEInternal>
2.6015

> <Gold.Chemscore.Rot>
3.0329

> <Gold.Chemscore.Internal.Correction>
   9.000000E+99

> <Gold.Chemscore.Hbonds>
donor molecule, donor type, donor heavy atom, donor atom, acceptor molecule, acceptor atom, score
      L1  H     4    24       P1  7948  0.25
      L1  H     8    27       P1  7948  0.73
      P1  H  7989  7998       L1    16  0.24
      P1  H  7997  8009       L1    14  0.17
      P1  H 10752 10763       L1    10  0.19

> <Gold.Chemscore.Hbond.Weighted>
-13.5248

> <Gold.Chemscore.Metal.Weighted>
-0.0000

> <Gold.Chemscore.Lipo.Weighted>
-2.9823

> <Gold.Chemscore.Internal_Hbond.Weighted>
0.0000

> <Gold.Chemscore.DEClash.Weighted>
0.1685

> <Gold.Chemscore.DEInternal.Weighted>
2.6015

> <Gold.Chemscore.Rot.Weighted>
7.7643

> <Gold.Chemscore.Internal.Correction.Weighted>
   9.000000E+99

> <Gold.Protein.RotatedTorsions>
[ 6907 6896 6895 6894 ] final  -36.66 input  -60.11 | X-H torsion
[ 7974 7965 7964 7962 ] final   14.63 input  175.53 | X-H torsion
[ 8008 7997 7996 7995 ] final  175.58 input   59.86 | X-H torsion
[ 10167 10162 10161 10158 ] final   53.51 input  -65.29 | X-H torsion
[ 10718 10713 10712 10709 ] final -105.51 input   66.30 | X-H torsion
[ 10763 10752 10751 10750 ] final   85.15 input  -60.55 | X-H torsion
[ 11005 11000 10999 10996 ] final -132.71 input  -57.11 | X-H torsion

> <Gold.Protein.ActiveResidues>
 VAL166  LYS551  ARG553  GLY616  TRP617  ASP618  TYR619  PRO620  LYS621  CYS622 
 ASP623  PHE694  ASN695  SER759  ASP760  ASP761  ALA762  ILE779  LEU786  VAL792 
 PHE793  MET794  SER795  GLU796  ALA797  LYS798  CYS799  TRP800  GLU811  SER814 

> <Gold.Protein.RotatedAtoms>
  151.0244  134.9493  159.8076 H   0  0  0  0  0  0  0  0  0  0  0  0  # atno 6907 bound_to 6896
  152.5332  134.2861  159.9035 H   0  0  0  0  0  0  0  0  0  0  0  0  # atno 6908 bound_to 6896
  151.2869  133.4141  159.2664 H   0  0  0  0  0  0  0  0  0  0  0  0  # atno 6909 bound_to 6896
  146.2300  139.9012  142.8539 H   0  0  0  0  0  0  0  0  0  0  0  0  # atno 7974 bound_to 7965
  156.0856  140.1405  156.9658 H   0  0  0  0  0  0  0  0  0  0  0  0  # atno 8008 bound_to 7997
  154.4610  140.0943  156.6942 H   0  0  0  0  0  0  0  0  0  0  0  0  # atno 8009 bound_to 7997
  155.5005  140.3451  155.4372 H   0  0  0  0  0  0  0  0  0  0  0  0  # atno 8010 bound_to 7997
  140.2400  144.3594  150.6384 H   0  0  0  0  0  0  0  0  0  0  0  0  # atno 10167 bound_to 10162
  156.0349  130.5567  150.7549 H   0  0  0  0  0  0  0  0  0  0  0  0  # atno 10718 bound_to 10713
  153.1447  135.4628  154.9549 H   0  0  0  0  0  0  0  0  0  0  0  0  # atno 10763 bound_to 10752
  154.7776  135.3178  154.8060 H   0  0  0  0  0  0  0  0  0  0  0  0  # atno 10764 bound_to 10752
  153.8576  135.6915  153.4840 H   0  0  0  0  0  0  0  0  0  0  0  0  # atno 10765 bound_to 10752
  140.9146  134.1524  157.4363 H   0  0  0  0  0  0  0  0  0  0  0  0  # atno 11005 bound_to 11000
  145.2321  140.9977  143.3984 LP  0  0  0  0  0  0  0  0  0  0  0  0  # atno 17320 bound_to 7965
  144.9521  139.4071  143.6397 LP  0  0  0  0  0  0  0  0  0  0  0  0  # atno 17321 bound_to 7965
  140.6121  143.2170  151.6865 LP  0  0  0  0  0  0  0  0  0  0  0  0  # atno 17342 bound_to 10162
  139.5081  144.3624  152.0549 LP  0  0  0  0  0  0  0  0  0  0  0  0  # atno 17343 bound_to 10162
  157.5083  131.0923  151.0229 LP  0  0  0  0  0  0  0  0  0  0  0  0  # atno 17370 bound_to 10713
  157.0591  130.5818  149.5383 LP  0  0  0  0  0  0  0  0  0  0  0  0  # atno 17371 bound_to 10713
  139.8763  134.9948  156.5714 LP  0  0  0  0  0  0  0  0  0  0  0  0  # atno 17394 bound_to 11000
  140.8067  133.8462  155.8773 LP  0  0  0  0  0  0  0  0  0  0  0  0  # atno 17395 bound_to 11000

$$$$
