AV-unprocessed.smi:649|AV-procd|sdf|3178|dock5
  -GOLD-   22720 0103D 1   1.00000     0.00000
 Structure written by MMmdl.
 35 36  0  0  0  0  0  0  0  0  1 V2000
  144.9643  135.7020  150.7007 C   0  0  0  0  0  0  0  0  0  0  0  0
  145.1086  134.2167  150.9605 C   0  0  0  0  0  0  0  0  0  0  0  0
  144.3455  133.2866  150.2300 C   0  0  0  0  0  0  0  0  0  0  0  0
  144.4945  131.9095  150.4742 C   0  0  0  0  0  0  0  0  0  0  0  0
  145.4006  131.4458  151.4518 C   0  0  0  0  0  0  0  0  0  0  0  0
  145.5359  129.9474  151.6628 C   0  0  0  0  0  0  0  0  0  0  0  0
  146.1636  132.3786  152.2032 C   0  0  0  0  0  0  0  0  0  0  0  0
  147.1575  131.9254  153.2728 C   0  0  2  0  0  0  0  0  0  0  0  0
  146.6863  132.1949  154.5804 O   0  0  0  0  0  0  0  0  0  0  0  0
  148.5239  132.6214  153.0867 C   0  0  0  0  0  0  0  0  0  0  0  0
  149.3869  132.5184  154.2402 N   0  0  0  0  0  0  0  0  0  0  0  0
  149.9657  131.3194  154.6270 C   0  0  0  0  0  0  0  0  0  0  0  0
  150.8021  131.2060  155.6868 C   0  0  0  0  0  0  0  0  0  0  0  0
  151.4862  129.6758  156.1046 Cl  0  0  0  0  0  0  0  0  0  0  0  0
  151.1364  132.3852  156.4846 C   0  0  0  0  0  0  0  0  0  0  0  0
  151.8827  132.3961  157.4617 O   0  0  0  0  0  0  0  0  0  0  0  0
  150.5333  133.5717  156.0566 N   0  0  0  0  0  0  0  0  0  0  0  0
  149.6719  133.6976  154.9665 C   0  0  0  0  0  0  0  0  0  0  0  0
  149.2054  134.7994  154.6779 O   0  0  0  0  0  0  0  0  0  0  0  0
  146.0139  133.7601  151.9382 C   0  0  0  0  0  0  0  0  0  0  0  0
  150.7424  134.4099  156.5791 H   0  0  0  0  0  0  0  0  0  0  0  0
  144.2068  135.9027  149.9425 H   0  0  0  0  0  0  0  0  0  0  0  0
  145.9112  136.1173  150.3548 H   0  0  0  0  0  0  0  0  0  0  0  0
  144.6756  136.2201  151.6156 H   0  0  0  0  0  0  0  0  0  0  0  0
  143.6479  133.6235  149.4772 H   0  0  0  0  0  0  0  0  0  0  0  0
  143.9079  131.2069  149.9006 H   0  0  0  0  0  0  0  0  0  0  0  0
  146.5746  129.6378  151.5507 H   0  0  0  0  0  0  0  0  0  0  0  0
  144.9456  129.3884  150.9360 H   0  0  0  0  0  0  0  0  0  0  0  0
  145.1909  129.6663  152.6579 H   0  0  0  0  0  0  0  0  0  0  0  0
  147.2773  130.8447  153.2187 H   0  0  0  0  0  0  0  0  0  0  0  0
  147.4295  132.2306  155.1632 H   0  0  0  0  0  0  0  0  0  0  0  0
  149.0812  132.2100  152.2420 H   0  0  0  0  0  0  0  0  0  0  0  0
  148.4059  133.6856  152.8749 H   0  0  0  0  0  0  0  0  0  0  0  0
  149.7454  130.4292  154.0549 H   0  0  0  0  0  0  0  0  0  0  0  0
  146.6000  134.4830  152.4871 H   0  0  0  0  0  0  0  0  0  0  0  0
  1  2  1  0  0  0  0
  1 22  1  0  0  0  0
  1 23  1  0  0  0  0
  1 24  1  0  0  0  0
  2 20  1  0  0  0  0
  2  3  2  0  0  0  0
  3  4  1  0  0  0  0
  3 25  1  0  0  0  0
  4  5  2  0  0  0  0
  4 26  1  0  0  0  0
  5  6  1  0  0  0  0
  5  7  1  0  0  0  0
  6 27  1  0  0  0  0
  6 28  1  0  0  0  0
  6 29  1  0  0  0  0
  7  8  1  0  0  0  0
  7 20  2  0  0  0  0
  8  9  1  0  0  0  0
  8 10  1  0  0  0  0
  8 30  1  0  0  0  0
  9 31  1  0  0  0  0
 10 11  1  0  0  0  0
 10 32  1  0  0  0  0
 10 33  1  0  0  0  0
 11 18  1  0  0  0  0
 11 12  1  0  0  0  0
 12 13  2  0  0  0  0
 12 34  1  0  0  0  0
 13 14  1  0  0  0  0
 13 15  1  0  0  0  0
 15 16  2  0  0  0  0
 15 17  1  0  0  0  0
 17 21  1  0  0  0  0
 17 18  1  0  0  0  0
 18 19  2  0  0  0  0
 20 35  1  0  0  0  0
M  END
> <s_m_source_file>
AV-unprocessed.smi

> <i_m_source_file_index>
649

> <i_lp_mmshare_version>
43012

> <i_f3d_flags>
0

> <s_epik_input>
W0NIM11jMVtjSF1bY0hdYyhbQ0gzXSljKFtjSF0xKVtDQEhdKFtPSF0pW0NIMl1uMltjSF1jKENsKWMoPU8pW25IXWMyPU8=

> <s_epik_cmdline>
J2VwaWtfcHl0aG9uJywgJy1waCcsICc3LjAnLCAnLXRuJywgJzgnLCAnLW1hJywgJzIwMCcsICctbWV0YWxfYmluZGluZycsICctaW1hZScsICc8aW5maWxlLm1hZT4nLCAnLW9tYWUnLCAnPG91dGZpbGUubWFlPic=

> <r_lp_tautomer_probability>
0.999537

> <r_epik_Ionization_Penalty>
0.0292058

> <r_epik_Ionization_Penalty_Charging>
0.0292057

> <r_epik_Ionization_Penalty_Neutral>
4.85868e-08

> <r_epik_State_Penalty>
0.0240115

> <r_epik_Charging_Adjusted_Penalty>
0.0532172

> <i_epik_Tot_Q>
0

> <i_epik_Tot_abs_Q>
0

> <r_epik_Metal_State_Penalty>
2.21956

> <b_epik_Metal_Only>
0

> <s_lp_Force_Field>
OPLS_2005

> <r_lp_Energy>
13.7265

> <b_lp_Chiralities_Consistent>
1

> <s_lp_Variant>
AV-unprocessed.smi:649-1

> <Gold.Version>
5.8.1

> <Gold.Id.Protein>
6NUR|6NUR_protein|mol2

> <Gold.PLP.Fitness>
41.2653

> <Gold.PLP.PLP>
-39.2192

> <Gold.PLP.part.hbond>
-1.0000

> <Gold.PLP.part.metal>
0.0000

> <Gold.PLP.part.buried>
-6.3933

> <Gold.PLP.part.nonpolar>
-32.3202

> <Gold.PLP.part.repulsive>
0.2881

> <Gold.PLP.ligand.clash>
0.0000

> <Gold.PLP.ligand.torsion>
0.4816

> <Gold.PLP.Chemscore.Hbond>
1.0000

> <Gold.PLP.Chemscore.CHOScore>
0.0000

> <Gold.PLP.Chemscore.Metal>
0.0000

> <Gold.Chemscore.Hbonds>
donor molecule, donor type, donor heavy atom, donor atom, acceptor molecule, acceptor atom, score
      P1  H  6896  6908       L1    16  0.94

> <Gold.PLP.Chemscore.Internal.Correction>
0.0094

> <Gold.Rescore>
     Score         DG    S(hbond)    S(metal)    S(lipo)     H(rot)  DE(clash)    DE(int)     intcor
     13.86     -14.21       0.99        0.00      93.03       2.14       0.02       0.33       ----

> <Gold.Chemscore.Fitness>
13.8607

> <Gold.Chemscore.DG>
-14.2085

> <Gold.Chemscore.ZeroCoef>
-5.4800

> <Gold.Chemscore.Hbond>
0.9908

> <Gold.Chemscore.Metal>
0.0000

> <Gold.Chemscore.Lipo>
93.0345

> <Gold.Chemscore.Internal_Hbond>
0.0000

> <Gold.Chemscore.DEClash>
0.0183

> <Gold.Chemscore.DEInternal>
0.3295

> <Gold.Chemscore.Rot>
2.1351

> <Gold.Chemscore.Internal.Correction>
   9.000000E+99

> <Gold.Chemscore.Hbonds>
donor molecule, donor type, donor heavy atom, donor atom, acceptor molecule, acceptor atom, score
      P1  H  6896  6908       L1    16  0.86

> <Gold.Chemscore.Hbond.Weighted>
-3.3094

> <Gold.Chemscore.Metal.Weighted>
-0.0000

> <Gold.Chemscore.Lipo.Weighted>
-10.8850

> <Gold.Chemscore.Internal_Hbond.Weighted>
0.0000

> <Gold.Chemscore.DEClash.Weighted>
0.0183

> <Gold.Chemscore.DEInternal.Weighted>
0.3295

> <Gold.Chemscore.Rot.Weighted>
5.4660

> <Gold.Chemscore.Internal.Correction.Weighted>
   9.000000E+99

> <Gold.Protein.RotatedTorsions>
[ 6907 6896 6895 6894 ] final   49.51 input  -60.11 | X-H torsion
[ 7974 7965 7964 7962 ] final  -74.05 input  175.53 | X-H torsion
[ 8008 7997 7996 7995 ] final  -41.76 input   59.86 | X-H torsion
[ 10167 10162 10161 10158 ] final   52.40 input  -65.29 | X-H torsion
[ 10718 10713 10712 10709 ] final  162.83 input   66.30 | X-H torsion
[ 10763 10752 10751 10750 ] final  150.05 input  -60.55 | X-H torsion
[ 11005 11000 10999 10996 ] final  -46.73 input  -57.11 | X-H torsion

> <Gold.Protein.ActiveResidues>
 VAL166  LYS551  ARG553  GLY616  TRP617  ASP618  TYR619  PRO620  LYS621  CYS622 
 ASP623  PHE694  ASN695  SER759  ASP760  ASP761  ALA762  ILE779  LEU786  VAL792 
 PHE793  MET794  SER795  GLU796  ALA797  LYS798  CYS799  TRP800  GLU811  SER814 

> <Gold.Protein.RotatedAtoms>
  152.2915  134.7716  160.0376 H   0  0  0  0  0  0  0  0  0  0  0  0  # atno 6907 bound_to 6896
  151.8260  133.3396  159.3607 H   0  0  0  0  0  0  0  0  0  0  0  0  # atno 6908 bound_to 6896
  150.7232  134.5457  159.5814 H   0  0  0  0  0  0  0  0  0  0  0  0  # atno 6909 bound_to 6896
  145.6442  140.9302  143.1020 H   0  0  0  0  0  0  0  0  0  0  0  0  # atno 7974 bound_to 7965
  154.4002  140.1491  156.3243 H   0  0  0  0  0  0  0  0  0  0  0  0  # atno 8008 bound_to 7997
  155.8501  140.3458  155.5666 H   0  0  0  0  0  0  0  0  0  0  0  0  # atno 8009 bound_to 7997
  155.7994  140.0868  157.1956 H   0  0  0  0  0  0  0  0  0  0  0  0  # atno 8010 bound_to 7997
  140.2518  144.3470  150.6346 H   0  0  0  0  0  0  0  0  0  0  0  0  # atno 10167 bound_to 10162
  157.1170  131.0482  151.2432 H   0  0  0  0  0  0  0  0  0  0  0  0  # atno 10718 bound_to 10713
  154.0811  135.2859  155.3290 H   0  0  0  0  0  0  0  0  0  0  0  0  # atno 10763 bound_to 10752
  154.6683  135.5309  153.8109 H   0  0  0  0  0  0  0  0  0  0  0  0  # atno 10764 bound_to 10752
  153.0448  135.6551  154.0986 H   0  0  0  0  0  0  0  0  0  0  0  0  # atno 10765 bound_to 10752
  141.0597  133.6713  156.3197 H   0  0  0  0  0  0  0  0  0  0  0  0  # atno 11005 bound_to 11000
  144.7146  139.8243  143.7403 LP  0  0  0  0  0  0  0  0  0  0  0  0  # atno 17320 bound_to 7965
  146.1256  139.4282  143.0200 LP  0  0  0  0  0  0  0  0  0  0  0  0  # atno 17321 bound_to 7965
  140.6034  143.2167  151.7027 LP  0  0  0  0  0  0  0  0  0  0  0  0  # atno 17342 bound_to 10162
  139.5044  144.3756  152.0427 LP  0  0  0  0  0  0  0  0  0  0  0  0  # atno 17343 bound_to 10162
  157.4510  130.7598  149.7151 LP  0  0  0  0  0  0  0  0  0  0  0  0  # atno 17370 bound_to 10713
  155.9837  130.3998  150.3349 LP  0  0  0  0  0  0  0  0  0  0  0  0  # atno 17371 bound_to 10713
  140.5893  134.5667  157.5496 LP  0  0  0  0  0  0  0  0  0  0  0  0  # atno 17394 bound_to 11000
  139.9421  134.7767  156.0651 LP  0  0  0  0  0  0  0  0  0  0  0  0  # atno 17395 bound_to 11000

$$$$
