AV-unprocessed.smi:2844|AV-procd|sdf|10939|dock2
  -GOLD-   2272015383D 1   1.00000     0.00000
 Structure written by MMmdl.
 38 40  0  0  0  0  0  0  0  0  1 V2000
  153.0326  143.1907  161.1672 C   0  0  0  0  0  0  0  0  0  0  0  0
  152.3330  142.7428  159.8960 C   0  0  0  0  0  0  0  0  0  0  0  0
  152.1856  141.3602  159.6439 C   0  0  0  0  0  0  0  0  0  0  0  0
  151.5471  140.9021  158.4708 C   0  0  0  0  0  0  0  0  0  0  0  0
  151.2997  139.6145  158.0269 N   0  0  0  0  0  0  0  0  0  0  0  0
  150.6816  139.8438  156.8717 C   0  0  0  0  0  0  0  0  0  0  0  0
  150.4998  141.1297  156.5140 N   0  0  0  0  0  0  0  0  0  0  0  0
  149.8635  141.6226  155.3058 C   0  0  0  0  0  0  0  0  0  0  0  0
  149.1088  140.5190  154.5414 C   0  0  2  0  0  0  0  0  0  0  0  0
  150.0381  139.6799  153.8810 O   0  0  0  0  0  0  0  0  0  0  0  0
  148.1164  141.1076  153.5200 C   0  0  0  0  0  0  0  0  0  0  0  0
  146.9995  141.7871  154.1526 N   0  0  0  0  0  0  0  0  0  0  0  0
  146.4401  143.0037  153.8125 C   0  0  0  0  0  0  0  0  0  0  0  0
  145.4260  143.1972  154.7001 C   0  0  0  0  0  0  0  0  0  0  0  0
  144.3593  144.5503  154.7701 Cl  0  0  0  0  0  0  0  0  0  0  0  0
  145.4199  142.0657  155.5550 C   0  0  0  0  0  0  0  0  0  0  0  0
  146.3778  141.2153  155.2159 N   0  0  0  0  0  0  0  0  0  0  0  0
  151.0564  141.8728  157.5490 C   0  0  0  0  0  0  0  0  0  0  0  0
  151.1927  143.2511  157.7907 C   0  0  0  0  0  0  0  0  0  0  0  0
  151.8342  143.6918  158.9674 C   0  0  0  0  0  0  0  0  0  0  0  0
  151.9817  145.1823  159.2178 C   0  0  0  0  0  0  0  0  0  0  0  0
  153.3339  142.3389  161.7774 H   0  0  0  0  0  0  0  0  0  0  0  0
  152.3717  143.8150  161.7689 H   0  0  0  0  0  0  0  0  0  0  0  0
  153.9285  143.7637  160.9273 H   0  0  0  0  0  0  0  0  0  0  0  0
  152.5653  140.6372  160.3508 H   0  0  0  0  0  0  0  0  0  0  0  0
  150.3404  139.0302  156.2483 H   0  0  0  0  0  0  0  0  0  0  0  0
  149.1778  142.4231  155.5861 H   0  0  0  0  0  0  0  0  0  0  0  0
  150.6258  142.0753  154.6697 H   0  0  0  0  0  0  0  0  0  0  0  0
  148.5577  139.9063  155.2564 H   0  0  0  0  0  0  0  0  0  0  0  0
  149.5638  138.9806  153.4570 H   0  0  0  0  0  0  0  0  0  0  0  0
  148.6250  141.8270  152.8770 H   0  0  0  0  0  0  0  0  0  0  0  0
  147.7316  140.3248  152.8642 H   0  0  0  0  0  0  0  0  0  0  0  0
  146.8030  143.6060  152.9929 H   0  0  0  0  0  0  0  0  0  0  0  0
  144.7707  141.8376  156.3875 H   0  0  0  0  0  0  0  0  0  0  0  0
  150.8089  143.9625  157.0745 H   0  0  0  0  0  0  0  0  0  0  0  0
  151.5602  145.7667  158.3996 H   0  0  0  0  0  0  0  0  0  0  0  0
  153.0338  145.4515  159.3134 H   0  0  0  0  0  0  0  0  0  0  0  0
  151.4655  145.4689  160.1342 H   0  0  0  0  0  0  0  0  0  0  0  0
  1  2  1  0  0  0  0
  1 22  1  0  0  0  0
  1 23  1  0  0  0  0
  1 24  1  0  0  0  0
  2 20  1  0  0  0  0
  2  3  2  0  0  0  0
  3  4  1  0  0  0  0
  3 25  1  0  0  0  0
  4 18  2  0  0  0  0
  4  5  1  0  0  0  0
  5  6  2  0  0  0  0
  6  7  1  0  0  0  0
  6 26  1  0  0  0  0
  7  8  1  0  0  0  0
  7 18  1  0  0  0  0
  8  9  1  0  0  0  0
  8 27  1  0  0  0  0
  8 28  1  0  0  0  0
  9 10  1  0  0  0  0
  9 11  1  0  0  0  0
  9 29  1  0  0  0  0
 10 30  1  0  0  0  0
 11 12  1  0  0  0  0
 11 31  1  0  0  0  0
 11 32  1  0  0  0  0
 12 17  1  0  0  0  0
 12 13  1  0  0  0  0
 13 14  2  0  0  0  0
 13 33  1  0  0  0  0
 14 15  1  0  0  0  0
 14 16  1  0  0  0  0
 16 17  2  0  0  0  0
 16 34  1  0  0  0  0
 18 19  1  0  0  0  0
 19 20  2  0  0  0  0
 19 35  1  0  0  0  0
 20 21  1  0  0  0  0
 21 36  1  0  0  0  0
 21 37  1  0  0  0  0
 21 38  1  0  0  0  0
M  END
> <s_m_source_file>
AV-unprocessed.smi

> <i_m_source_file_index>
2844

> <i_lp_mmshare_version>
43012

> <i_f3d_flags>
0

> <s_epik_input>
W0NIM11jKFtjSF0xKWMoW0NIM10pW2NIXWMoYzEyKW4oW2NIXW4yKVtDSDJdW0NASF0oW09IXSlbQ0gyXW4zW2NIXWMoQ2wpW2NIXW4z

> <s_epik_cmdline>
J2VwaWtfcHl0aG9uJywgJy1waCcsICc3LjAnLCAnLXRuJywgJzgnLCAnLW1hJywgJzIwMCcsICctbWV0YWxfYmluZGluZycsICctaW1hZScsICc8aW5maWxlLm1hZT4nLCAnLW9tYWUnLCAnPG91dGZpbGUubWFlPic=

> <r_lp_tautomer_probability>
1

> <r_epik_Ionization_Penalty>
0.1021

> <r_epik_Ionization_Penalty_Charging>
0

> <r_epik_Ionization_Penalty_Neutral>
0.1021

> <r_epik_State_Penalty>
0.0920694

> <r_epik_Charging_Adjusted_Penalty>
0.0920694

> <i_epik_Tot_Q>
0

> <i_epik_Tot_abs_Q>
0

> <r_epik_Metal_State_Penalty>
0.0784292

> <b_epik_Metal_Only>
0

> <s_lp_Force_Field>
OPLS_2005

> <r_lp_Energy>
10.8301

> <b_lp_Chiralities_Consistent>
1

> <s_lp_Variant>
AV-unprocessed.smi:2844-1

> <Gold.Version>
5.8.1

> <Gold.Id.Protein>
6NUR|6NUR_protein|mol2

> <Gold.PLP.Fitness>
51.7185

> <Gold.PLP.PLP>
-49.9276

> <Gold.PLP.part.hbond>
-2.0000

> <Gold.PLP.part.metal>
0.0000

> <Gold.PLP.part.buried>
-4.5823

> <Gold.PLP.part.nonpolar>
-42.3518

> <Gold.PLP.part.repulsive>
0.0900

> <Gold.PLP.ligand.clash>
0.0000

> <Gold.PLP.ligand.torsion>
0.5021

> <Gold.PLP.Chemscore.Hbond>
0.9280

> <Gold.PLP.Chemscore.CHOScore>
0.0000

> <Gold.PLP.Chemscore.Metal>
0.0000

> <Gold.Chemscore.Hbonds>
donor molecule, donor type, donor heavy atom, donor atom, acceptor molecule, acceptor atom, score
      P1  H  7989  7998       L1    10  0.94

> <Gold.PLP.Chemscore.Internal.Correction>
0.0112

> <Gold.Rescore>
     Score         DG    S(hbond)    S(metal)    S(lipo)     H(rot)  DE(clash)    DE(int)     intcor
     16.75     -17.39       0.87        0.00     124.10       2.15       0.33       0.32       ----

> <Gold.Chemscore.Fitness>
16.7465

> <Gold.Chemscore.DG>
-17.3918

> <Gold.Chemscore.ZeroCoef>
-5.4800

> <Gold.Chemscore.Hbond>
0.8697

> <Gold.Chemscore.Metal>
0.0000

> <Gold.Chemscore.Lipo>
124.0995

> <Gold.Chemscore.Internal_Hbond>
0.0000

> <Gold.Chemscore.DEClash>
0.3269

> <Gold.Chemscore.DEInternal>
0.3184

> <Gold.Chemscore.Rot>
2.1534

> <Gold.Chemscore.Internal.Correction>
   9.000000E+99

> <Gold.Chemscore.Hbonds>
donor molecule, donor type, donor heavy atom, donor atom, acceptor molecule, acceptor atom, score
      P1  H  7989  7998       L1    10  0.43

> <Gold.Chemscore.Hbond.Weighted>
-2.9049

> <Gold.Chemscore.Metal.Weighted>
-0.0000

> <Gold.Chemscore.Lipo.Weighted>
-14.5196

> <Gold.Chemscore.Internal_Hbond.Weighted>
0.0000

> <Gold.Chemscore.DEClash.Weighted>
0.3269

> <Gold.Chemscore.DEInternal.Weighted>
0.3184

> <Gold.Chemscore.Rot.Weighted>
5.5127

> <Gold.Chemscore.Internal.Correction.Weighted>
   9.000000E+99

> <Gold.Protein.RotatedTorsions>
[ 6907 6896 6895 6894 ] final  -12.58 input  -60.11 | X-H torsion
[ 7974 7965 7964 7962 ] final  -29.91 input  175.53 | X-H torsion
[ 8008 7997 7996 7995 ] final -147.53 input   59.86 | X-H torsion
[ 10167 10162 10161 10158 ] final  171.21 input  -65.29 | X-H torsion
[ 10718 10713 10712 10709 ] final   -6.95 input   66.30 | X-H torsion
[ 10763 10752 10751 10750 ] final   40.62 input  -60.55 | X-H torsion
[ 11005 11000 10999 10996 ] final   55.17 input  -57.11 | X-H torsion

> <Gold.Protein.ActiveResidues>
 VAL166  LYS551  ARG553  GLY616  TRP617  ASP618  TYR619  PRO620  LYS621  CYS622 
 ASP623  PHE694  ASN695  SER759  ASP760  ASP761  ALA762  ILE779  LEU786  VAL792 
 PHE793  MET794  SER795  GLU796  ALA797  LYS798  CYS799  TRP800  GLU811  SER814 

> <Gold.Protein.RotatedAtoms>
  151.3683  135.0917  159.9456 H   0  0  0  0  0  0  0  0  0  0  0  0  # atno 6907 bound_to 6896
  152.5142  133.9189  159.7535 H   0  0  0  0  0  0  0  0  0  0  0  0  # atno 6908 bound_to 6896
  150.9598  133.6403  159.2785 H   0  0  0  0  0  0  0  0  0  0  0  0  # atno 6909 bound_to 6896
  146.1182  140.5472  142.8747 H   0  0  0  0  0  0  0  0  0  0  0  0  # atno 7974 bound_to 7965
  155.5771  140.0640  157.2792 H   0  0  0  0  0  0  0  0  0  0  0  0  # atno 8008 bound_to 7997
  154.4343  140.1858  156.0985 H   0  0  0  0  0  0  0  0  0  0  0  0  # atno 8009 bound_to 7997
  156.0333  140.3304  155.7167 H   0  0  0  0  0  0  0  0  0  0  0  0  # atno 8010 bound_to 7997
  139.5040  144.3511  151.9922 H   0  0  0  0  0  0  0  0  0  0  0  0  # atno 10167 bound_to 10162
  156.7243  130.5160  149.5860 H   0  0  0  0  0  0  0  0  0  0  0  0  # atno 10718 bound_to 10713
  152.9931  135.6186  154.2656 H   0  0  0  0  0  0  0  0  0  0  0  0  # atno 10763 bound_to 10752
  154.2390  135.2789  155.2863 H   0  0  0  0  0  0  0  0  0  0  0  0  # atno 10764 bound_to 10752
  154.5385  135.5768  153.6877 H   0  0  0  0  0  0  0  0  0  0  0  0  # atno 10765 bound_to 10752
  140.0628  134.5578  155.9133 H   0  0  0  0  0  0  0  0  0  0  0  0  # atno 11005 bound_to 11000
  144.7573  140.5337  143.6760 LP  0  0  0  0  0  0  0  0  0  0  0  0  # atno 17320 bound_to 7965
  145.5522  139.1477  143.3388 LP  0  0  0  0  0  0  0  0  0  0  0  0  # atno 17321 bound_to 7965
  140.2948  144.3714  150.6078 LP  0  0  0  0  0  0  0  0  0  0  0  0  # atno 17342 bound_to 10162
  140.5919  143.2168  151.7237 LP  0  0  0  0  0  0  0  0  0  0  0  0  # atno 17343 bound_to 10162
  156.1573  130.6350  151.0673 LP  0  0  0  0  0  0  0  0  0  0  0  0  # atno 17370 bound_to 10713
  157.6885  131.0817  150.7175 LP  0  0  0  0  0  0  0  0  0  0  0  0  # atno 17371 bound_to 10713
  141.1980  133.6599  156.5771 LP  0  0  0  0  0  0  0  0  0  0  0  0  # atno 17394 bound_to 11000
  140.3744  134.7578  157.4620 LP  0  0  0  0  0  0  0  0  0  0  0  0  # atno 17395 bound_to 11000

$$$$
