AV-unprocessed.smi:1225|AV-procd|sdf|5139|dock4
  -GOLD-   22720 4203D 1   1.00000     0.00000
 Structure written by MMmdl.
 49 51  0  0  0  0  0  0  0  0  2 V2000
  152.5885  141.8276  160.2893 C   0  0  0  0  0  0  0  0  0  0  0  0
  151.5145  141.5495  159.2941 C   0  0  0  0  0  0  0  0  0  0  0  0
  150.5562  142.4231  158.9772 N   0  0  0  0  0  0  0  0  0  0  0  0
  149.6722  141.9204  158.0197 C   0  0  0  0  0  0  0  0  0  0  0  0
  149.9701  140.6464  157.6031 C   0  0  0  0  0  0  0  0  0  0  0  0
  149.2303  139.8217  156.5980 C   0  0  0  0  0  0  0  0  0  0  0  0
  149.9251  138.5919  156.2135 N   0  0  0  0  0  0  0  0  0  0  0  0
  150.8772  138.8450  155.1325 C   0  0  0  0  0  0  0  0  0  0  0  0
  148.9567  137.5509  155.8521 C   0  0  0  0  0  0  0  0  0  0  0  0
  147.8211  137.9559  154.8853 C   0  0  1  0  0  0  0  0  0  0  0  0
  148.3300  138.2205  153.5926 O   0  0  0  0  0  0  0  0  0  0  0  0
  146.6429  136.9595  154.8350 C   0  0  0  0  0  0  0  0  0  0  0  0
  146.0211  136.8818  153.5067 N   0  0  0  0  0  0  0  0  0  0  0  0
  145.4548  137.8585  152.7471 C   0  0  0  0  0  0  0  0  0  0  0  0
  145.0168  137.2791  151.5950 N   0  3  0  0  0  0  0  0  0  0  0  0
  145.3114  135.9140  151.6184 C   0  0  0  0  0  0  0  0  0  0  0  0
  145.0659  134.9122  150.6868 C   0  0  0  0  0  0  0  0  0  0  0  0
  145.4966  133.6066  151.0150 C   0  0  0  0  0  0  0  0  0  0  0  0
  145.2394  132.4871  150.0206 C   0  0  0  0  0  0  0  0  0  0  0  0
  146.1524  133.3414  152.2454 C   0  0  0  0  0  0  0  0  0  0  0  0
  146.6122  131.9342  152.5874 C   0  0  0  0  0  0  0  0  0  0  0  0
  146.3928  134.3742  153.1796 C   0  0  0  0  0  0  0  0  0  0  0  0
  145.9596  135.6535  152.8411 C   0  0  0  0  0  0  0  0  0  0  0  0
  151.3832  140.0282  158.4207 S   0  0  0  0  0  0  0  0  0  0  0  0
  152.5704  142.8750  160.5921 H   0  0  0  0  0  0  0  0  0  0  0  0
  153.5642  141.6066  159.8563 H   0  0  0  0  0  0  0  0  0  0  0  0
  152.4471  141.2052  161.1727 H   0  0  0  0  0  0  0  0  0  0  0  0
  148.8543  142.5419  157.6861 H   0  0  0  0  0  0  0  0  0  0  0  0
  148.2584  139.5714  157.0252 H   0  0  0  0  0  0  0  0  0  0  0  0
  149.0215  140.4213  155.7109 H   0  0  0  0  0  0  0  0  0  0  0  0
  151.4593  137.9545  154.9005 H   0  0  0  0  0  0  0  0  0  0  0  0
  151.5930  139.6195  155.4083 H   0  0  0  0  0  0  0  0  0  0  0  0
  150.3658  139.1658  154.2241 H   0  0  0  0  0  0  0  0  0  0  0  0
  149.5009  136.7477  155.3536 H   0  0  0  0  0  0  0  0  0  0  0  0
  148.5374  137.0980  156.7519 H   0  0  0  0  0  0  0  0  0  0  0  0
  147.4398  138.9146  155.2377 H   0  0  0  0  0  0  0  0  0  0  0  0
  148.6862  137.4189  153.2419 H   0  0  0  0  0  0  0  0  0  0  0  0
  146.9770  135.9536  155.0917 H   0  0  0  0  0  0  0  0  0  0  0  0
  145.8748  137.2256  155.5622 H   0  0  0  0  0  0  0  0  0  0  0  0
  145.3653  138.9024  153.0124 H   0  0  0  0  0  0  0  0  0  0  0  0
  144.5662  135.1215  149.7523 H   0  0  0  0  0  0  0  0  0  0  0  0
  144.5944  131.7261  150.4608 H   0  0  0  0  0  0  0  0  0  0  0  0
  146.1761  132.0167  149.7203 H   0  0  0  0  0  0  0  0  0  0  0  0
  144.7499  132.8584  149.1195 H   0  0  0  0  0  0  0  0  0  0  0  0
  147.0812  131.8954  153.5711 H   0  0  0  0  0  0  0  0  0  0  0  0
  147.3411  131.5817  151.8572 H   0  0  0  0  0  0  0  0  0  0  0  0
  145.7670  131.2457  152.5947 H   0  0  0  0  0  0  0  0  0  0  0  0
  146.8910  134.1735  154.1166 H   0  0  0  0  0  0  0  0  0  0  0  0
  144.5522  137.7813  150.8492 H   0  0  0  0  0  0  0  0  0  0  0  0
  1  2  1  0  0  0  0
  1 25  1  0  0  0  0
  1 26  1  0  0  0  0
  1 27  1  0  0  0  0
  2 24  1  0  0  0  0
  2  3  2  0  0  0  0
  3  4  1  0  0  0  0
  4  5  2  0  0  0  0
  4 28  1  0  0  0  0
  5  6  1  0  0  0  0
  5 24  1  0  0  0  0
  6  7  1  0  0  0  0
  6 29  1  0  0  0  0
  6 30  1  0  0  0  0
  7  8  1  0  0  0  0
  7  9  1  0  0  0  0
  8 31  1  0  0  0  0
  8 32  1  0  0  0  0
  8 33  1  0  0  0  0
  9 10  1  0  0  0  0
  9 34  1  0  0  0  0
  9 35  1  0  0  0  0
 10 11  1  0  0  0  0
 10 12  1  0  0  0  0
 10 36  1  0  0  0  0
 11 37  1  0  0  0  0
 12 13  1  0  0  0  0
 12 38  1  0  0  0  0
 12 39  1  0  0  0  0
 13 23  1  0  0  0  0
 13 14  1  0  0  0  0
 14 15  2  0  0  0  0
 14 40  1  0  0  0  0
 15 16  1  0  0  0  0
 15 49  1  0  0  0  0
 16 23  2  0  0  0  0
 16 17  1  0  0  0  0
 17 18  2  0  0  0  0
 17 41  1  0  0  0  0
 18 19  1  0  0  0  0
 18 20  1  0  0  0  0
 19 42  1  0  0  0  0
 19 43  1  0  0  0  0
 19 44  1  0  0  0  0
 20 21  1  0  0  0  0
 20 22  2  0  0  0  0
 21 45  1  0  0  0  0
 21 46  1  0  0  0  0
 21 47  1  0  0  0  0
 22 23  1  0  0  0  0
 22 48  1  0  0  0  0
M  CHG  1  15   1
M  END
> <s_m_source_file>
AV-unprocessed.smi

> <i_m_source_file_index>
1225

> <i_lp_mmshare_version>
43012

> <i_f3d_flags>
0

> <s_epik_input>
W0NIM11jMW5bY0hdYyhzMSlbQ0gyXU4oW0NIM10pW0NIMl1bQ0BIXShbT0hdKVtDSDJdbihbY0hdbjIpYyhjMjMpW2NIXWMoW0NIM10pYyhbY0hdMylbQ0gzXQ==

> <s_epik_cmdline>
J2VwaWtfcHl0aG9uJywgJy1waCcsICc3LjAnLCAnLXRuJywgJzgnLCAnLW1hJywgJzIwMCcsICctbWV0YWxfYmluZGluZycsICctaW1hZScsICc8aW5maWxlLm1hZT4nLCAnLW9tYWUnLCAnPG91dGZpbGUubWFlPic=

> <r_epik_Ionization_Penalty>
1.25968

> <r_epik_Ionization_Penalty_Charging>
1.21782

> <r_epik_Ionization_Penalty_Neutral>
0.0418565

> <r_epik_State_Penalty>
1.29962

> <r_epik_Charging_Adjusted_Penalty>
2.51745

> <i_epik_Tot_Q>
1

> <i_epik_Tot_abs_Q>
1

> <r_epik_Metal_State_Penalty>
1.36802

> <b_epik_Metal_Only>
0

> <s_lp_Force_Field>
OPLS_2005

> <r_lp_Energy>
27.2567

> <b_lp_Chiralities_Consistent>
1

> <s_lp_Variant>
AV-unprocessed.smi:1225-4

> <Gold.Version>
5.8.1

> <Gold.Id.Protein>
6NUR|6NUR_protein|mol2

> <Gold.PLP.Fitness>
45.8345

> <Gold.PLP.PLP>
-35.7685

> <Gold.PLP.part.hbond>
-2.7281

> <Gold.PLP.part.metal>
0.0000

> <Gold.PLP.part.buried>
-5.1226

> <Gold.PLP.part.nonpolar>
-29.2300

> <Gold.PLP.part.repulsive>
0.1350

> <Gold.PLP.ligand.clash>
0.0000

> <Gold.PLP.ligand.torsion>
1.0968

> <Gold.PLP.Chemscore.Hbond>
2.0000

> <Gold.PLP.Chemscore.CHOScore>
2.0000

> <Gold.PLP.Chemscore.Metal>
0.0000

> <Gold.Chemscore.Hbonds>
donor molecule, donor type, donor heavy atom, donor atom, acceptor molecule, acceptor atom, score
      L1  H    11    37       P1  7948  1.00
      L1  H    15    49       P1 10171  0.88
      L1  C    14    40       P1 10175  0.99

> <Gold.PLP.Chemscore.Internal.Correction>
0.2595

> <Gold.Rescore>
     Score         DG    S(hbond)    S(metal)    S(lipo)     H(rot)  DE(clash)    DE(int)     intcor
     15.81     -17.11       1.92        0.00      96.25       2.36       0.03       1.27       ----

> <Gold.Chemscore.Fitness>
15.8062

> <Gold.Chemscore.DG>
-17.1063

> <Gold.Chemscore.ZeroCoef>
-5.4800

> <Gold.Chemscore.Hbond>
1.9219

> <Gold.Chemscore.Metal>
0.0000

> <Gold.Chemscore.Lipo>
96.2490

> <Gold.Chemscore.Internal_Hbond>
0.0000

> <Gold.Chemscore.DEClash>
0.0281

> <Gold.Chemscore.DEInternal>
1.2720

> <Gold.Chemscore.Rot>
2.3649

> <Gold.Chemscore.Internal.Correction>
   9.000000E+99

> <Gold.Chemscore.Hbonds>
donor molecule, donor type, donor heavy atom, donor atom, acceptor molecule, acceptor atom, score
      L1  H    11    37       P1  7948  0.96
      L1  H    15    49       P1 10171  0.86

> <Gold.Chemscore.Hbond.Weighted>
-6.4192

> <Gold.Chemscore.Metal.Weighted>
-0.0000

> <Gold.Chemscore.Lipo.Weighted>
-11.2611

> <Gold.Chemscore.Internal_Hbond.Weighted>
0.0000

> <Gold.Chemscore.DEClash.Weighted>
0.0281

> <Gold.Chemscore.DEInternal.Weighted>
1.2720

> <Gold.Chemscore.Rot.Weighted>
6.0540

> <Gold.Chemscore.Internal.Correction.Weighted>
   9.000000E+99

> <Gold.Protein.RotatedTorsions>
[ 6907 6896 6895 6894 ] final  151.02 input  -60.11 | X-H torsion
[ 7974 7965 7964 7962 ] final  -85.51 input  175.53 | X-H torsion
[ 8008 7997 7996 7995 ] final  173.59 input   59.86 | X-H torsion
[ 10167 10162 10161 10158 ] final   57.22 input  -65.29 | X-H torsion
[ 10718 10713 10712 10709 ] final  166.45 input   66.30 | X-H torsion
[ 10763 10752 10751 10750 ] final  112.91 input  -60.55 | X-H torsion
[ 11005 11000 10999 10996 ] final  -73.19 input  -57.11 | X-H torsion

> <Gold.Protein.ActiveResidues>
 VAL166  LYS551  ARG553  GLY616  TRP617  ASP618  TYR619  PRO620  LYS621  CYS622 
 ASP623  PHE694  ASN695  SER759  ASP760  ASP761  ALA762  ILE779  LEU786  VAL792 
 PHE793  MET794  SER795  GLU796  ALA797  LYS798  CYS799  TRP800  GLU811  SER814 

> <Gold.Protein.RotatedAtoms>
  152.1063  133.4277  159.4610 H   0  0  0  0  0  0  0  0  0  0  0  0  # atno 6907 bound_to 6896
  150.6865  134.2700  159.4593 H   0  0  0  0  0  0  0  0  0  0  0  0  # atno 6908 bound_to 6896
  152.0565  134.9620  160.0625 H   0  0  0  0  0  0  0  0  0  0  0  0  # atno 6909 bound_to 6896
  145.4923  140.9552  143.1805 H   0  0  0  0  0  0  0  0  0  0  0  0  # atno 7974 bound_to 7965
  156.1060  140.1456  156.9403 H   0  0  0  0  0  0  0  0  0  0  0  0  # atno 8008 bound_to 7997
  154.4734  140.0902  156.7246 H   0  0  0  0  0  0  0  0  0  0  0  0  # atno 8009 bound_to 7997
  155.4679  140.3440  155.4324 H   0  0  0  0  0  0  0  0  0  0  0  0  # atno 8010 bound_to 7997
  140.2004  144.3994  150.6532 H   0  0  0  0  0  0  0  0  0  0  0  0  # atno 10167 bound_to 10162
  157.0657  131.0352  151.2630 H   0  0  0  0  0  0  0  0  0  0  0  0  # atno 10718 bound_to 10713
  153.4848  135.3671  155.2461 H   0  0  0  0  0  0  0  0  0  0  0  0  # atno 10763 bound_to 10752
  154.8754  135.3963  154.3658 H   0  0  0  0  0  0  0  0  0  0  0  0  # atno 10764 bound_to 10752
  153.4268  135.7081  153.6323 H   0  0  0  0  0  0  0  0  0  0  0  0  # atno 10765 bound_to 10752
  141.1619  133.6870  156.7174 H   0  0  0  0  0  0  0  0  0  0  0  0  # atno 11005 bound_to 11000
  144.7827  139.6492  143.7147 LP  0  0  0  0  0  0  0  0  0  0  0  0  # atno 17320 bound_to 7965
  146.2277  139.5753  142.9576 LP  0  0  0  0  0  0  0  0  0  0  0  0  # atno 17321 bound_to 7965
  140.6394  143.2201  151.6322 LP  0  0  0  0  0  0  0  0  0  0  0  0  # atno 17342 bound_to 10162
  139.5220  144.3177  152.0938 LP  0  0  0  0  0  0  0  0  0  0  0  0  # atno 17343 bound_to 10162
  157.4919  130.7827  149.7516 LP  0  0  0  0  0  0  0  0  0  0  0  0  # atno 17370 bound_to 10713
  155.9965  130.3905  150.2776 LP  0  0  0  0  0  0  0  0  0  0  0  0  # atno 17371 bound_to 10713
  140.2841  134.8293  157.3959 LP  0  0  0  0  0  0  0  0  0  0  0  0  # atno 17394 bound_to 11000
  140.1406  134.4977  155.8034 LP  0  0  0  0  0  0  0  0  0  0  0  0  # atno 17395 bound_to 11000

$$$$
