AV-unprocessed.smi:1386|AV-procd|sdf|5636|dock1
  -GOLD-   22720 5253D 1   1.00000     0.00000
 Structure written by MMmdl.
 36 37  0  0  0  0  0  0  0  0  2 V2000
  151.9306  139.0977  156.4997 C   0  0  0  0  0  0  0  0  0  0  0  0
  151.0937  140.3262  156.8799 C   0  0  2  0  0  0  0  0  0  0  0  0
  150.6540  141.1132  155.6262 C   0  0  0  0  0  0  0  0  0  0  0  0
  149.6920  140.3816  154.7953 N   0  0  0  0  0  0  0  0  0  0  0  0
  148.4107  140.7553  154.4803 C   0  0  0  0  0  0  0  0  0  0  0  0
  147.8950  139.7575  153.6940 C   0  0  0  0  0  0  0  0  0  0  0  0
  148.8843  138.8211  153.5574 N   0  3  0  0  0  0  0  0  0  0  0  0
  149.9781  139.2047  154.2236 C   0  0  0  0  0  0  0  0  0  0  0  0
  151.8777  141.1685  157.7822 N   0  0  0  0  0  0  0  0  0  0  0  0
  151.5310  142.3889  158.2285 C   0  0  0  0  0  0  0  0  0  0  0  0
  150.4882  142.9432  157.8775 O   0  0  0  0  0  0  0  0  0  0  0  0
  152.4362  142.9677  159.0574 N   0  0  0  0  0  0  0  0  0  0  0  0
  153.5897  142.2968  159.6798 C   0  0  0  0  0  0  0  0  0  0  0  0
  153.2051  141.8520  161.1006 C   0  0  0  0  0  0  0  0  0  0  0  0
  152.8069  143.2878  162.1455 S   0  0  0  0  0  0  0  0  0  0  0  0
  151.6342  144.1481  161.0508 C   0  0  0  0  0  0  0  0  0  0  0  0
  152.2105  144.2993  159.6324 C   0  0  0  0  0  0  0  0  0  0  0  0
  151.3676  138.4243  155.8529 H   0  0  0  0  0  0  0  0  0  0  0  0
  152.2237  138.5323  157.3851 H   0  0  0  0  0  0  0  0  0  0  0  0
  152.8404  139.3835  155.9704 H   0  0  0  0  0  0  0  0  0  0  0  0
  150.2057  139.9598  157.3979 H   0  0  0  0  0  0  0  0  0  0  0  0
  150.2061  142.0683  155.9046 H   0  0  0  0  0  0  0  0  0  0  0  0
  151.5165  141.3411  154.9981 H   0  0  0  0  0  0  0  0  0  0  0  0
  147.9699  141.6753  154.8359 H   0  0  0  0  0  0  0  0  0  0  0  0
  146.9238  139.6465  153.2342 H   0  0  0  0  0  0  0  0  0  0  0  0
  150.9052  138.6646  154.2951 H   0  0  0  0  0  0  0  0  0  0  0  0
  152.7542  140.7866  158.1071 H   0  0  0  0  0  0  0  0  0  0  0  0
  153.9501  141.4420  159.1076 H   0  0  0  0  0  0  0  0  0  0  0  0
  154.4381  142.9815  159.7222 H   0  0  0  0  0  0  0  0  0  0  0  0
  152.3448  141.1823  161.0713 H   0  0  0  0  0  0  0  0  0  0  0  0
  154.0240  141.3007  161.5627 H   0  0  0  0  0  0  0  0  0  0  0  0
  150.6975  143.5901  161.0240 H   0  0  0  0  0  0  0  0  0  0  0  0
  151.4107  145.1261  161.4771 H   0  0  0  0  0  0  0  0  0  0  0  0
  153.1459  144.8597  159.6636 H   0  0  0  0  0  0  0  0  0  0  0  0
  151.5360  144.8985  159.0189 H   0  0  0  0  0  0  0  0  0  0  0  0
  148.8021  137.9605  153.0306 H   0  0  0  0  0  0  0  0  0  0  0  0
  1  2  1  0  0  0  0
  1 18  1  0  0  0  0
  1 19  1  0  0  0  0
  1 20  1  0  0  0  0
  2  3  1  0  0  0  0
  2  9  1  0  0  0  0
  2 21  1  0  0  0  0
  3  4  1  0  0  0  0
  3 22  1  0  0  0  0
  3 23  1  0  0  0  0
  4  8  1  0  0  0  0
  4  5  1  0  0  0  0
  5  6  2  0  0  0  0
  5 24  1  0  0  0  0
  6  7  1  0  0  0  0
  6 25  1  0  0  0  0
  7  8  2  0  0  0  0
  7 36  1  0  0  0  0
  8 26  1  0  0  0  0
  9 10  1  0  0  0  0
  9 27  1  0  0  0  0
 10 11  2  0  0  0  0
 10 12  1  0  0  0  0
 12 17  1  0  0  0  0
 12 13  1  0  0  0  0
 13 14  1  0  0  0  0
 13 28  1  0  0  0  0
 13 29  1  0  0  0  0
 14 15  1  0  0  0  0
 14 30  1  0  0  0  0
 14 31  1  0  0  0  0
 15 16  1  0  0  0  0
 16 17  1  0  0  0  0
 16 32  1  0  0  0  0
 16 33  1  0  0  0  0
 17 34  1  0  0  0  0
 17 35  1  0  0  0  0
M  CHG  1   7   1
M  END
> <s_m_source_file>
AV-unprocessed.smi

> <i_m_source_file_index>
1386

> <i_lp_mmshare_version>
43012

> <i_f3d_flags>
0

> <s_epik_input>
W2NIXTFuW2NIXVtjSF1uMVtDSDJdW0NAQEhdKFtDSDNdKVtOSF1DKD1PKU4yW0NIMl1bQ0gyXVNbQ0gyXVtDSDJdMg==

> <s_epik_cmdline>
J2VwaWtfcHl0aG9uJywgJy1waCcsICc3LjAnLCAnLXRuJywgJzgnLCAnLW1hJywgJzIwMCcsICctbWV0YWxfYmluZGluZycsICctaW1hZScsICc8aW5maWxlLm1hZT4nLCAnLW9tYWUnLCAnPG91dGZpbGUubWFlPic=

> <r_lp_tautomer_probability>
1

> <r_epik_Ionization_Penalty>
0.254941

> <r_epik_Ionization_Penalty_Charging>
0

> <r_epik_Ionization_Penalty_Neutral>
0.254941

> <r_epik_State_Penalty>
0.246388

> <r_epik_Charging_Adjusted_Penalty>
0.246388

> <i_epik_Tot_Q>
1

> <i_epik_Tot_abs_Q>
1

> <r_epik_Metal_State_Penalty>
0.536262

> <b_epik_Metal_Only>
0

> <s_lp_Force_Field>
OPLS_2005

> <r_lp_Energy>
26.1467

> <b_lp_Chiralities_Consistent>
1

> <s_lp_Variant>
AV-unprocessed.smi:1386-1

> <Gold.Version>
5.8.1

> <Gold.Id.Protein>
6NUR|6NUR_protein|mol2

> <Gold.PLP.Fitness>
47.7005

> <Gold.PLP.PLP>
-41.8958

> <Gold.PLP.part.hbond>
-2.0000

> <Gold.PLP.part.metal>
0.0000

> <Gold.PLP.part.buried>
-1.6857

> <Gold.PLP.part.nonpolar>
-37.6959

> <Gold.PLP.part.repulsive>
0.2827

> <Gold.PLP.ligand.clash>
0.0000

> <Gold.PLP.ligand.torsion>
0.1284

> <Gold.PLP.Chemscore.Hbond>
2.0000

> <Gold.PLP.Chemscore.CHOScore>
0.0000

> <Gold.PLP.Chemscore.Metal>
0.0000

> <Gold.Chemscore.Hbonds>
donor molecule, donor type, donor heavy atom, donor atom, acceptor molecule, acceptor atom, score
      L1  H     7    36       P1  7948  1.82

> <Gold.PLP.Chemscore.Internal.Correction>
0.0615

> <Gold.Rescore>
     Score         DG    S(hbond)    S(metal)    S(lipo)     H(rot)  DE(clash)    DE(int)     intcor
     13.73     -15.05       0.99        0.00      89.54       1.64       0.23       1.09       ----

> <Gold.Chemscore.Fitness>
13.7335

> <Gold.Chemscore.DG>
-15.0525

> <Gold.Chemscore.ZeroCoef>
-5.4800

> <Gold.Chemscore.Hbond>
0.9869

> <Gold.Chemscore.Metal>
0.0000

> <Gold.Chemscore.Lipo>
89.5370

> <Gold.Chemscore.Internal_Hbond>
0.0000

> <Gold.Chemscore.DEClash>
0.2290

> <Gold.Chemscore.DEInternal>
1.0901

> <Gold.Chemscore.Rot>
1.6404

> <Gold.Chemscore.Internal.Correction>
   9.000000E+99

> <Gold.Chemscore.Hbonds>
donor molecule, donor type, donor heavy atom, donor atom, acceptor molecule, acceptor atom, score
      L1  H     7    36       P1  7948  0.87

> <Gold.Chemscore.Hbond.Weighted>
-3.2962

> <Gold.Chemscore.Metal.Weighted>
-0.0000

> <Gold.Chemscore.Lipo.Weighted>
-10.4758

> <Gold.Chemscore.Internal_Hbond.Weighted>
0.0000

> <Gold.Chemscore.DEClash.Weighted>
0.2290

> <Gold.Chemscore.DEInternal.Weighted>
1.0901

> <Gold.Chemscore.Rot.Weighted>
4.1995

> <Gold.Chemscore.Internal.Correction.Weighted>
   9.000000E+99

> <Gold.Protein.RotatedTorsions>
[ 6907 6896 6895 6894 ] final   67.60 input  -60.11 | X-H torsion
[ 7974 7965 7964 7962 ] final  109.11 input  175.53 | X-H torsion
[ 8008 7997 7996 7995 ] final   12.12 input   59.86 | X-H torsion
[ 10167 10162 10161 10158 ] final  -50.66 input  -65.29 | X-H torsion
[ 10718 10713 10712 10709 ] final  -73.88 input   66.30 | X-H torsion
[ 10763 10752 10751 10750 ] final  -28.50 input  -60.55 | X-H torsion
[ 11005 11000 10999 10996 ] final  130.44 input  -57.11 | X-H torsion

> <Gold.Protein.ActiveResidues>
 VAL166  LYS551  ARG553  GLY616  TRP617  ASP618  TYR619  PRO620  LYS621  CYS622 
 ASP623  PHE694  ASN695  SER759  ASP760  ASP761  ALA762  ILE779  LEU786  VAL792 
 PHE793  MET794  SER795  GLU796  ALA797  LYS798  CYS799  TRP800  GLU811  SER814 

> <Gold.Protein.RotatedAtoms>
  152.4563  134.5284  159.9803 H   0  0  0  0  0  0  0  0  0  0  0  0  # atno 6907 bound_to 6896
  151.5344  133.3437  159.2932 H   0  0  0  0  0  0  0  0  0  0  0  0  # atno 6908 bound_to 6896
  150.8509  134.7863  159.7070 H   0  0  0  0  0  0  0  0  0  0  0  0  # atno 6909 bound_to 6896
  145.2721  139.2663  143.3961 H   0  0  0  0  0  0  0  0  0  0  0  0  # atno 7974 bound_to 7965
  154.8162  140.2876  155.5818 H   0  0  0  0  0  0  0  0  0  0  0  0  # atno 8008 bound_to 7997
  156.2993  140.2559  156.2990 H   0  0  0  0  0  0  0  0  0  0  0  0  # atno 8009 bound_to 7997
  154.9391  140.0381  157.2077 H   0  0  0  0  0  0  0  0  0  0  0  0  # atno 8010 bound_to 7997
  140.6626  143.2649  151.4392 H   0  0  0  0  0  0  0  0  0  0  0  0  # atno 10167 bound_to 10162
  156.0263  130.4404  150.2808 H   0  0  0  0  0  0  0  0  0  0  0  0  # atno 10718 bound_to 10713
  153.7493  135.6927  153.4949 H   0  0  0  0  0  0  0  0  0  0  0  0  # atno 10763 bound_to 10752
  153.2014  135.4435  155.0270 H   0  0  0  0  0  0  0  0  0  0  0  0  # atno 10764 bound_to 10752
  154.8193  135.3414  154.7015 H   0  0  0  0  0  0  0  0  0  0  0  0  # atno 10765 bound_to 10752
  139.9672  134.9587  156.9294 H   0  0  0  0  0  0  0  0  0  0  0  0  # atno 11005 bound_to 11000
  146.3243  140.3166  142.8630 LP  0  0  0  0  0  0  0  0  0  0  0  0  # atno 17320 bound_to 7965
  144.9326  140.7992  143.5680 LP  0  0  0  0  0  0  0  0  0  0  0  0  # atno 17321 bound_to 7965
  139.5865  144.1593  152.2035 LP  0  0  0  0  0  0  0  0  0  0  0  0  # atno 17342 bound_to 10162
  140.0934  144.5601  150.7038 LP  0  0  0  0  0  0  0  0  0  0  0  0  # atno 17343 bound_to 10162
  157.0912  131.0170  151.3121 LP  0  0  0  0  0  0  0  0  0  0  0  0  # atno 17370 bound_to 10713
  157.4853  130.7789  149.7454 LP  0  0  0  0  0  0  0  0  0  0  0  0  # atno 17371 bound_to 10713
  140.5370  134.0757  155.7331 LP  0  0  0  0  0  0  0  0  0  0  0  0  # atno 17394 bound_to 11000
  141.1352  133.9234  157.2449 LP  0  0  0  0  0  0  0  0  0  0  0  0  # atno 17395 bound_to 11000

$$$$
