AV-unprocessed.smi:907|AV-procd|sdf|4106|dock7
  -GOLD-   22720 2 03D 1   1.00000     0.00000
 Structure written by MMmdl.
 53 56  0  0  0  0  0  0  0  0  2 V2000
  152.4952  139.8883  156.0184 O   0  0  0  0  0  0  0  0  0  0  0  0
  151.3591  139.9205  155.5439 C   0  0  0  0  0  0  0  0  0  0  0  0
  150.4569  140.8469  155.9100 N   0  0  0  0  0  0  0  0  0  0  0  0
  150.7006  141.9195  156.8681 C   0  0  0  0  0  0  0  0  0  0  0  0
  151.4251  141.4041  158.1230 C   0  0  0  0  0  0  0  0  0  0  0  0
  151.6920  142.5098  159.1261 C   0  0  0  0  0  0  0  0  0  0  0  0
  151.5670  143.8646  158.7514 C   0  0  0  0  0  0  0  0  0  0  0  0
  151.8188  144.8548  159.7204 C   0  0  0  0  0  0  0  0  0  0  0  0
  152.1825  144.4540  161.0204 C   0  0  0  0  0  0  0  0  0  0  0  0
  152.2783  143.0750  161.2946 C   0  0  0  0  0  0  0  0  0  0  0  0
  152.0391  142.1172  160.3727 N   0  0  0  0  0  0  0  0  0  0  0  0
  150.8983  138.9954  154.6654 N   0  0  0  0  0  0  0  0  0  0  0  0
  151.6440  137.8357  154.1596 C   0  0  0  0  0  0  0  0  0  0  0  0
  151.1288  136.5669  154.8646 C   0  0  0  0  0  0  0  0  0  0  0  0
  149.6561  136.3968  154.6959 N   0  3  0  0  0  0  0  0  0  0  0  0
  149.1403  135.1734  155.3751 C   0  0  2  0  0  0  0  0  0  0  0  0
  149.8760  133.8681  154.9838 C   0  0  0  0  0  0  0  0  0  0  0  0
  148.7233  132.9053  154.6408 C   0  0  2  0  0  0  0  0  0  0  0  0
  148.1552  133.2838  153.2624 C   0  0  0  0  0  0  0  0  0  0  0  0
  147.4344  134.6122  153.5525 C   0  0  0  0  0  0  0  0  0  0  0  0
  147.6657  134.8102  155.0668 C   0  0  1  0  0  0  0  0  0  0  0  0
  147.6114  133.3724  155.5726 C   0  0  0  0  0  0  0  0  0  0  0  0
  148.9030  137.6327  155.0567 C   0  0  0  0  0  0  0  0  0  0  0  0
  149.4744  138.8725  154.3461 C   0  0  0  0  0  0  0  0  0  0  0  0
  149.5342  140.8008  155.5028 H   0  0  0  0  0  0  0  0  0  0  0  0
  151.2762  142.7175  156.3960 H   0  0  0  0  0  0  0  0  0  0  0  0
  149.7392  142.3534  157.1445 H   0  0  0  0  0  0  0  0  0  0  0  0
  150.8325  140.6246  158.6041 H   0  0  0  0  0  0  0  0  0  0  0  0
  152.3738  140.9408  157.8490 H   0  0  0  0  0  0  0  0  0  0  0  0
  151.2831  144.1406  157.7463 H   0  0  0  0  0  0  0  0  0  0  0  0
  151.7339  145.9020  159.4709 H   0  0  0  0  0  0  0  0  0  0  0  0
  152.3823  145.1855  161.7892 H   0  0  0  0  0  0  0  0  0  0  0  0
  152.5547  142.7323  162.2806 H   0  0  0  0  0  0  0  0  0  0  0  0
  151.4880  137.7530  153.0830 H   0  0  0  0  0  0  0  0  0  0  0  0
  152.7232  137.9138  154.2908 H   0  0  0  0  0  0  0  0  0  0  0  0
  151.6620  135.7035  154.4685 H   0  0  0  0  0  0  0  0  0  0  0  0
  151.3651  136.6189  155.9287 H   0  0  0  0  0  0  0  0  0  0  0  0
  149.2352  135.3246  156.4523 H   0  0  0  0  0  0  0  0  0  0  0  0
  150.5490  133.9846  154.1336 H   0  0  0  0  0  0  0  0  0  0  0  0
  150.4637  133.4952  155.8235 H   0  0  0  0  0  0  0  0  0  0  0  0
  148.9897  131.8516  154.7284 H   0  0  0  0  0  0  0  0  0  0  0  0
  148.9314  133.3859  152.5031 H   0  0  0  0  0  0  0  0  0  0  0  0
  147.4463  132.5308  152.9152 H   0  0  0  0  0  0  0  0  0  0  0  0
  147.8215  135.4344  152.9509 H   0  0  0  0  0  0  0  0  0  0  0  0
  146.3694  134.5199  153.3355 H   0  0  0  0  0  0  0  0  0  0  0  0
  146.9395  135.4720  155.5396 H   0  0  0  0  0  0  0  0  0  0  0  0
  146.6547  132.8814  155.3846 H   0  0  0  0  0  0  0  0  0  0  0  0
  147.8622  133.2721  156.6302 H   0  0  0  0  0  0  0  0  0  0  0  0
  147.8528  137.5334  154.7843 H   0  0  0  0  0  0  0  0  0  0  0  0
  148.9390  137.7757  156.1379 H   0  0  0  0  0  0  0  0  0  0  0  0
  148.9035  139.7602  154.6229 H   0  0  0  0  0  0  0  0  0  0  0  0
  149.3551  138.7731  153.2661 H   0  0  0  0  0  0  0  0  0  0  0  0
  149.5002  136.2587  153.7076 H   0  0  0  0  0  0  0  0  0  0  0  0
  1  2  2  0  0  0  0
  2  3  1  0  0  0  0
  2 12  1  0  0  0  0
  3  4  1  0  0  0  0
  3 25  1  0  0  0  0
  4  5  1  0  0  0  0
  4 26  1  0  0  0  0
  4 27  1  0  0  0  0
  5  6  1  0  0  0  0
  5 28  1  0  0  0  0
  5 29  1  0  0  0  0
  6 11  1  0  0  0  0
  6  7  2  0  0  0  0
  7  8  1  0  0  0  0
  7 30  1  0  0  0  0
  8  9  2  0  0  0  0
  8 31  1  0  0  0  0
  9 10  1  0  0  0  0
  9 32  1  0  0  0  0
 10 11  2  0  0  0  0
 10 33  1  0  0  0  0
 12 24  1  0  0  0  0
 12 13  1  0  0  0  0
 13 14  1  0  0  0  0
 13 34  1  0  0  0  0
 13 35  1  0  0  0  0
 14 15  1  0  0  0  0
 14 36  1  0  0  0  0
 14 37  1  0  0  0  0
 15 16  1  0  0  0  0
 15 23  1  0  0  0  0
 15 53  1  0  0  0  0
 16 21  1  0  0  0  0
 16 17  1  0  0  0  0
 16 38  1  0  0  0  0
 17 18  1  0  0  0  0
 17 39  1  0  0  0  0
 17 40  1  0  0  0  0
 18 22  1  0  0  0  0
 18 19  1  0  0  0  0
 18 41  1  0  0  0  0
 19 20  1  0  0  0  0
 19 42  1  0  0  0  0
 19 43  1  0  0  0  0
 20 21  1  0  0  0  0
 20 44  1  0  0  0  0
 20 45  1  0  0  0  0
 21 22  1  0  0  0  0
 21 46  1  0  0  0  0
 22 47  1  0  0  0  0
 22 48  1  0  0  0  0
 23 24  1  0  0  0  0
 23 49  1  0  0  0  0
 23 50  1  0  0  0  0
 24 51  1  0  0  0  0
 24 52  1  0  0  0  0
M  CHG  1  15   1
M  END
> <s_m_source_file>
AV-unprocessed.smi

> <i_m_source_file_index>
907

> <i_lp_mmshare_version>
43012

> <i_f3d_flags>
0

> <s_epik_input>
W0NIMl0xW0NIMl1bQ0BASF0oW0NIMl0yKVtDQEBIXShbQ0gyXVtDQEhdMTIpTihbQ0gyXVtDSDJdMylbQ0gyXVtDSDJdTjNDKD1PKVtOSF1bQ0gyXVtDSDJdYzRbY0hdW2NIXVtjSF1bY0hdbjQ=

> <s_epik_cmdline>
J2VwaWtfcHl0aG9uJywgJy1waCcsICc3LjAnLCAnLXRuJywgJzgnLCAnLW1hJywgJzIwMCcsICctbWV0YWxfYmluZGluZycsICctaW1hZScsICc8aW5maWxlLm1hZT4nLCAnLW9tYWUnLCAnPG91dGZpbGUubWFlPic=

> <r_epik_Ionization_Penalty>
0.0419258

> <r_epik_Ionization_Penalty_Charging>
0.00262064

> <r_epik_Ionization_Penalty_Neutral>
0.0393052

> <r_epik_State_Penalty>
0.0329887

> <r_epik_Charging_Adjusted_Penalty>
0.0356093

> <i_epik_Tot_Q>
1

> <i_epik_Tot_abs_Q>
1

> <r_epik_Metal_State_Penalty>
0.0309172

> <b_epik_Metal_Only>
0

> <s_lp_Force_Field>
OPLS_2005

> <r_lp_Energy>
94.5265

> <b_lp_Chiralities_Consistent>
1

> <s_lp_Variant>
AV-unprocessed.smi:907-1

> <Gold.Version>
5.8.1

> <Gold.Id.Protein>
6NUR|6NUR_protein|mol2

> <Gold.PLP.Fitness>
52.6901

> <Gold.PLP.PLP>
-45.9334

> <Gold.PLP.part.hbond>
-2.2179

> <Gold.PLP.part.metal>
0.0000

> <Gold.PLP.part.buried>
-1.2623

> <Gold.PLP.part.nonpolar>
-41.6959

> <Gold.PLP.part.repulsive>
0.1538

> <Gold.PLP.ligand.clash>
1.6743

> <Gold.PLP.ligand.torsion>
0.3381

> <Gold.PLP.Chemscore.Hbond>
3.0000

> <Gold.PLP.Chemscore.CHOScore>
0.0000

> <Gold.PLP.Chemscore.Metal>
0.0000

> <Gold.Chemscore.Hbonds>
donor molecule, donor type, donor heavy atom, donor atom, acceptor molecule, acceptor atom, score
      L1  H    15    53       P1  7948  2.00
      P1  H  7997  8008       L1     1  1.00

> <Gold.PLP.Chemscore.Internal.Correction>
0.1074

> <Gold.Rescore>
     Score         DG    S(hbond)    S(metal)    S(lipo)     H(rot)  DE(clash)    DE(int)     intcor
     20.52     -22.19       1.95        0.00     117.25       1.37       0.09       1.59       ----

> <Gold.Chemscore.Fitness>
20.5199

> <Gold.Chemscore.DG>
-22.1934

> <Gold.Chemscore.ZeroCoef>
-5.4800

> <Gold.Chemscore.Hbond>
1.9493

> <Gold.Chemscore.Metal>
0.0000

> <Gold.Chemscore.Lipo>
117.2465

> <Gold.Chemscore.Internal_Hbond>
0.0000

> <Gold.Chemscore.DEClash>
0.0874

> <Gold.Chemscore.DEInternal>
1.5861

> <Gold.Chemscore.Rot>
1.3731

> <Gold.Chemscore.Internal.Correction>
   9.000000E+99

> <Gold.Chemscore.Hbonds>
donor molecule, donor type, donor heavy atom, donor atom, acceptor molecule, acceptor atom, score
      L1  H    15    53       P1  7948  0.65
      P1  H  7997  8008       L1     1  1.00

> <Gold.Chemscore.Hbond.Weighted>
-6.5108

> <Gold.Chemscore.Metal.Weighted>
-0.0000

> <Gold.Chemscore.Lipo.Weighted>
-13.7178

> <Gold.Chemscore.Internal_Hbond.Weighted>
0.0000

> <Gold.Chemscore.DEClash.Weighted>
0.0874

> <Gold.Chemscore.DEInternal.Weighted>
1.5861

> <Gold.Chemscore.Rot.Weighted>
3.5152

> <Gold.Chemscore.Internal.Correction.Weighted>
   9.000000E+99

> <Gold.Protein.RotatedTorsions>
[ 6907 6896 6895 6894 ] final   76.08 input  -60.11 | X-H torsion
[ 7974 7965 7964 7962 ] final  135.94 input  175.53 | X-H torsion
[ 8008 7997 7996 7995 ] final  -31.86 input   59.86 | X-H torsion
[ 10167 10162 10161 10158 ] final  -76.59 input  -65.29 | X-H torsion
[ 10718 10713 10712 10709 ] final   -8.29 input   66.30 | X-H torsion
[ 10763 10752 10751 10750 ] final -137.08 input  -60.55 | X-H torsion
[ 11005 11000 10999 10996 ] final   30.65 input  -57.11 | X-H torsion

> <Gold.Protein.ActiveResidues>
 VAL166  LYS551  ARG553  GLY616  TRP617  ASP618  TYR619  PRO620  LYS621  CYS622 
 ASP623  PHE694  ASN695  SER759  ASP760  ASP761  ALA762  ILE779  LEU786  VAL792 
 PHE793  MET794  SER795  GLU796  ALA797  LYS798  CYS799  TRP800  GLU811  SER814 

> <Gold.Protein.RotatedAtoms>
  152.5056  134.4022  159.9420 H   0  0  0  0  0  0  0  0  0  0  0  0  # atno 6907 bound_to 6896
  151.3987  133.3758  159.2737 H   0  0  0  0  0  0  0  0  0  0  0  0  # atno 6908 bound_to 6896
  150.9378  134.8810  159.7652 H   0  0  0  0  0  0  0  0  0  0  0  0  # atno 6909 bound_to 6896
  144.9614  139.4706  143.5477 H   0  0  0  0  0  0  0  0  0  0  0  0  # atno 7974 bound_to 7965
  154.4199  140.1753  156.1635 H   0  0  0  0  0  0  0  0  0  0  0  0  # atno 8008 bound_to 7997
  155.9819  140.3377  155.6646 H   0  0  0  0  0  0  0  0  0  0  0  0  # atno 8009 bound_to 7997
  155.6489  140.0688  157.2584 H   0  0  0  0  0  0  0  0  0  0  0  0  # atno 8010 bound_to 7997
  140.4844  143.2394  151.8007 H   0  0  0  0  0  0  0  0  0  0  0  0  # atno 10167 bound_to 10162
  156.7048  130.5104  149.5907 H   0  0  0  0  0  0  0  0  0  0  0  0  # atno 10718 bound_to 10713
  154.8670  135.3653  154.5165 H   0  0  0  0  0  0  0  0  0  0  0  0  # atno 10763 bound_to 10752
  153.5798  135.7018  153.5473 H   0  0  0  0  0  0  0  0  0  0  0  0  # atno 10764 bound_to 10752
  153.3467  135.4083  155.1577 H   0  0  0  0  0  0  0  0  0  0  0  0  # atno 10765 bound_to 10752
  140.2922  134.2852  155.7773 H   0  0  0  0  0  0  0  0  0  0  0  0  # atno 11005 bound_to 11000
  146.3354  139.8766  142.8831 LP  0  0  0  0  0  0  0  0  0  0  0  0  # atno 17320 bound_to 7965
  145.2694  141.0103  143.3780 LP  0  0  0  0  0  0  0  0  0  0  0  0  # atno 17321 bound_to 7965
  139.4839  144.4731  151.9401 LP  0  0  0  0  0  0  0  0  0  0  0  0  # atno 17342 bound_to 10162
  140.3817  144.2728  150.5908 LP  0  0  0  0  0  0  0  0  0  0  0  0  # atno 17343 bound_to 10162
  156.1703  130.6432  151.0829 LP  0  0  0  0  0  0  0  0  0  0  0  0  # atno 17370 bound_to 10713
  157.6959  131.0794  150.6970 LP  0  0  0  0  0  0  0  0  0  0  0  0  # atno 17371 bound_to 10713
  141.2144  133.7592  156.9641 LP  0  0  0  0  0  0  0  0  0  0  0  0  # atno 17394 bound_to 11000
  140.1185  134.9432  157.2169 LP  0  0  0  0  0  0  0  0  0  0  0  0  # atno 17395 bound_to 11000

$$$$
