AV-unprocessed.smi:196|AV-procd|sdf|1536|dock10
  -GOLD-   2262019393D 1   1.00000     0.00000
 Structure written by MMmdl.
 47 50  0  0  0  0  0  0  0  0  1 V2000
  151.7112  137.3219  155.3064 C   0  0  0  0  0  0  0  0  0  0  0  0
  151.6649  138.8538  155.1913 C   0  0  2  0  0  0  0  0  0  0  0  0
  152.3729  139.3935  156.3047 O   0  0  0  0  0  0  0  0  0  0  0  0
  151.8080  140.6473  156.6440 C   0  0  0  0  0  0  0  0  0  0  0  0
  150.3187  140.3907  156.4751 C   0  0  0  0  0  0  0  0  0  0  0  0
  150.2592  139.5188  155.2236 C   0  0  1  0  0  0  0  0  0  0  0  0
  150.1671  140.3784  154.0995 O   0  0  0  0  0  0  0  0  0  0  0  0
  149.0399  138.5601  155.1928 C   0  0  0  0  0  0  0  0  0  0  0  0
  148.6746  138.0444  156.5039 N   0  0  0  0  0  0  0  0  0  0  0  0
  148.0394  138.7326  157.5105 C   0  0  0  0  0  0  0  0  0  0  0  0
  147.8204  138.0463  158.5973 N   0  0  0  0  0  0  0  0  0  0  0  0
  148.3298  136.7805  158.3239 C   0  0  0  0  0  0  0  0  0  0  0  0
  148.4208  135.5518  159.0486 C   0  0  0  0  0  0  0  0  0  0  0  0
  147.9621  135.3450  160.3148 N   0  0  0  0  0  0  0  0  0  0  0  0
  147.9290  134.0195  160.9271 C   0  0  0  0  0  0  0  0  0  0  0  0
  147.2837  134.2146  162.3003 C   0  0  2  0  0  0  0  0  0  0  0  0
  145.9730  133.9798  162.2210 F   0  0  0  0  0  0  0  0  0  0  0  0
  147.5332  135.6926  162.6021 C   0  0  0  0  0  0  0  0  0  0  0  0
  147.4991  136.3893  161.2296 C   0  0  2  0  0  0  0  0  0  0  0  0
  146.0893  136.9013  160.8788 C   0  0  0  0  0  0  0  0  0  0  0  0
  145.1121  135.9921  160.8526 N   0  0  0  0  0  0  0  0  0  0  0  0
  145.8800  138.0886  160.6344 O   0  0  0  0  0  0  0  0  0  0  0  0
  149.0180  134.5078  158.4142 N   0  0  0  0  0  0  0  0  0  0  0  0
  149.4832  134.6369  157.1697 C   0  0  0  0  0  0  0  0  0  0  0  0
  149.4607  135.7101  156.3800 N   0  0  0  0  0  0  0  0  0  0  0  0
  148.8719  136.7689  157.0045 C   0  0  0  0  0  0  0  0  0  0  0  0
  147.6864  133.5456  163.0613 H   0  0  0  0  0  0  0  0  0  0  0  0
  148.1990  137.2251  161.2458 H   0  0  0  0  0  0  0  0  0  0  0  0
  151.1953  136.8436  154.4739 H   0  0  0  0  0  0  0  0  0  0  0  0
  151.2575  136.9756  156.2355 H   0  0  0  0  0  0  0  0  0  0  0  0
  152.7421  136.9677  155.2965 H   0  0  0  0  0  0  0  0  0  0  0  0
  152.2029  139.1455  154.2872 H   0  0  0  0  0  0  0  0  0  0  0  0
  152.0731  140.9483  157.6577 H   0  0  0  0  0  0  0  0  0  0  0  0
  152.1591  141.4123  155.9498 H   0  0  0  0  0  0  0  0  0  0  0  0
  149.9629  139.8300  157.3402 H   0  0  0  0  0  0  0  0  0  0  0  0
  149.7278  141.3053  156.4066 H   0  0  0  0  0  0  0  0  0  0  0  0
  149.2531  140.5288  153.9121 H   0  0  0  0  0  0  0  0  0  0  0  0
  148.1692  139.0656  154.7733 H   0  0  0  0  0  0  0  0  0  0  0  0
  149.2413  137.7058  154.5463 H   0  0  0  0  0  0  0  0  0  0  0  0
  147.7472  139.7682  157.4143 H   0  0  0  0  0  0  0  0  0  0  0  0
  147.3741  133.2991  160.3243 H   0  0  0  0  0  0  0  0  0  0  0  0
  148.9517  133.6564  161.0377 H   0  0  0  0  0  0  0  0  0  0  0  0
  146.8214  136.1007  163.3213 H   0  0  0  0  0  0  0  0  0  0  0  0
  148.5278  135.8060  163.0357 H   0  0  0  0  0  0  0  0  0  0  0  0
  144.1692  136.2706  160.6239 H   0  0  0  0  0  0  0  0  0  0  0  0
  145.3226  135.0260  161.0577 H   0  0  0  0  0  0  0  0  0  0  0  0
  149.9372  133.7532  156.7459 H   0  0  0  0  0  0  0  0  0  0  0  0
  1  2  1  0  0  0  0
  1 29  1  0  0  0  0
  1 30  1  0  0  0  0
  1 31  1  0  0  0  0
  2  6  1  0  0  0  0
  2  3  1  0  0  0  0
  2 32  1  0  0  0  0
  3  4  1  0  0  0  0
  4  5  1  0  0  0  0
  4 33  1  0  0  0  0
  4 34  1  0  0  0  0
  5  6  1  0  0  0  0
  5 35  1  0  0  0  0
  5 36  1  0  0  0  0
  6  7  1  0  0  0  0
  6  8  1  0  0  0  0
  7 37  1  0  0  0  0
  8  9  1  0  0  0  0
  8 38  1  0  0  0  0
  8 39  1  0  0  0  0
  9 26  1  0  0  0  0
  9 10  1  0  0  0  0
 10 11  2  0  0  0  0
 10 40  1  0  0  0  0
 11 12  1  0  0  0  0
 12 26  2  0  0  0  0
 12 13  1  0  0  0  0
 13 14  1  0  0  0  0
 13 23  2  0  0  0  0
 14 19  1  0  0  0  0
 14 15  1  0  0  0  0
 15 16  1  0  0  0  0
 15 41  1  0  0  0  0
 15 42  1  0  0  0  0
 16 27  1  0  0  0  0
 16 17  1  0  0  0  0
 16 18  1  0  0  0  0
 18 19  1  0  0  0  0
 18 43  1  0  0  0  0
 18 44  1  0  0  0  0
 19 28  1  0  0  0  0
 19 20  1  0  0  0  0
 20 21  1  0  0  0  0
 20 22  2  0  0  0  0
 21 45  1  0  0  0  0
 21 46  1  0  0  0  0
 23 24  1  0  0  0  0
 24 25  2  0  0  0  0
 24 47  1  0  0  0  0
 25 26  1  0  0  0  0
M  END
> <s_m_source_file>
AV-unprocessed.smi

> <i_m_source_file_index>
196

> <i_lp_mmshare_version>
43012

> <i_f3d_flags>
0

> <s_epik_input>
W0NIMl0xW0NIMl1PW0NAQEhdKFtDSDNdKVtDQEBdMShbT0hdKVtDSDJdbihbY0hdbjIpYyhjMjMpbltjSF1uYzNONFtDSDJdW0NASF0oRilbQ0gyXVtDQEhdNEMoPU8pW05IMl0=

> <s_epik_cmdline>
J2VwaWtfcHl0aG9uJywgJy1waCcsICc3LjAnLCAnLXRuJywgJzgnLCAnLW1hJywgJzIwMCcsICctbWV0YWxfYmluZGluZycsICctaW1hZScsICc8aW5maWxlLm1hZT4nLCAnLW9tYWUnLCAnPG91dGZpbGUubWFlPic=

> <r_lp_tautomer_probability>
1

> <r_epik_Ionization_Penalty>
0.000857933

> <r_epik_Ionization_Penalty_Charging>
0

> <r_epik_Ionization_Penalty_Neutral>
0.000857933

> <r_epik_State_Penalty>
0.000462053

> <r_epik_Charging_Adjusted_Penalty>
0.000462053

> <i_epik_Tot_Q>
0

> <i_epik_Tot_abs_Q>
0

> <r_epik_Metal_State_Penalty>
-0

> <b_epik_Metal_Only>
0

> <s_lp_Force_Field>
OPLS_2005

> <r_lp_Energy>
42.9342

> <b_lp_Chiralities_Consistent>
1

> <s_lp_Variant>
AV-unprocessed.smi:196-9

> <Gold.Version>
5.8.1

> <Gold.Id.Protein>
6NUR|6NUR_protein|mol2

> <Gold.PLP.Fitness>
46.8658

> <Gold.PLP.PLP>
-37.8545

> <Gold.PLP.part.hbond>
-5.6341

> <Gold.PLP.part.metal>
0.0000

> <Gold.PLP.part.buried>
-5.5478

> <Gold.PLP.part.nonpolar>
-27.0563

> <Gold.PLP.part.repulsive>
0.0353

> <Gold.PLP.ligand.clash>
0.0000

> <Gold.PLP.ligand.torsion>
0.6267

> <Gold.PLP.Chemscore.Hbond>
3.4115

> <Gold.PLP.Chemscore.CHOScore>
0.0000

> <Gold.PLP.Chemscore.Metal>
0.0000

> <Gold.Chemscore.Hbonds>
donor molecule, donor type, donor heavy atom, donor atom, acceptor molecule, acceptor atom, score
      P1  H  6896  6908       L1    23  1.00
      P1  H  6934  6947       L1    22  0.94
      P1  H  7989  7998       L1     7  0.86
      P1  H  7997  8009       L1     3  0.43

> <Gold.PLP.Chemscore.Internal.Correction>
0.0302

> <Gold.Rescore>
     Score         DG    S(hbond)    S(metal)    S(lipo)     H(rot)  DE(clash)    DE(int)     intcor
      8.55     -14.21       2.22        0.00      68.10       2.60       0.02       5.64       ----

> <Gold.Chemscore.Fitness>
8.5527

> <Gold.Chemscore.DG>
-14.2106

> <Gold.Chemscore.ZeroCoef>
-5.4800

> <Gold.Chemscore.Hbond>
2.2186

> <Gold.Chemscore.Metal>
0.0000

> <Gold.Chemscore.Lipo>
68.1046

> <Gold.Chemscore.Internal_Hbond>
0.0000

> <Gold.Chemscore.DEClash>
0.0183

> <Gold.Chemscore.DEInternal>
5.6396

> <Gold.Chemscore.Rot>
2.5968

> <Gold.Chemscore.Internal.Correction>
   9.000000E+99

> <Gold.Chemscore.Hbonds>
donor molecule, donor type, donor heavy atom, donor atom, acceptor molecule, acceptor atom, score
      P1  H  6896  6908       L1    23  0.12
      P1  H  6934  6947       L1    22  0.79
      P1  H  7989  7998       L1     7  0.78
      P1  H  7997  8009       L1     3  0.04

> <Gold.Chemscore.Hbond.Weighted>
-7.4101

> <Gold.Chemscore.Metal.Weighted>
-0.0000

> <Gold.Chemscore.Lipo.Weighted>
-7.9682

> <Gold.Chemscore.Internal_Hbond.Weighted>
0.0000

> <Gold.Chemscore.DEClash.Weighted>
0.0183

> <Gold.Chemscore.DEInternal.Weighted>
5.6396

> <Gold.Chemscore.Rot.Weighted>
6.6477

> <Gold.Chemscore.Internal.Correction.Weighted>
   9.000000E+99

> <Gold.Protein.RotatedTorsions>
[ 6907 6896 6895 6894 ] final  151.71 input  -60.11 | X-H torsion
[ 7974 7965 7964 7962 ] final  -65.93 input  175.53 | X-H torsion
[ 8008 7997 7996 7995 ] final  176.40 input   59.86 | X-H torsion
[ 10167 10162 10161 10158 ] final   65.94 input  -65.29 | X-H torsion
[ 10718 10713 10712 10709 ] final -147.34 input   66.30 | X-H torsion
[ 10763 10752 10751 10750 ] final -170.27 input  -60.55 | X-H torsion
[ 11005 11000 10999 10996 ] final  -46.41 input  -57.11 | X-H torsion

> <Gold.Protein.ActiveResidues>
 VAL166  LYS551  ARG553  GLY616  TRP617  ASP618  TYR619  PRO620  LYS621  CYS622 
 ASP623  PHE694  ASN695  SER759  ASP760  ASP761  ALA762  ILE779  LEU786  VAL792 
 PHE793  MET794  SER795  GLU796  ALA797  LYS798  CYS799  TRP800  GLU811  SER814 

> <Gold.Protein.RotatedAtoms>
  152.0969  133.4229  159.4569 H   0  0  0  0  0  0  0  0  0  0  0  0  # atno 6907 bound_to 6896
  150.6863  134.2806  159.4635 H   0  0  0  0  0  0  0  0  0  0  0  0  # atno 6908 bound_to 6896
  152.0663  134.9562  160.0625 H   0  0  0  0  0  0  0  0  0  0  0  0  # atno 6909 bound_to 6896
  145.7481  140.8922  143.0494 H   0  0  0  0  0  0  0  0  0  0  0  0  # atno 7974 bound_to 7965
  156.0769  140.1384  156.9761 H   0  0  0  0  0  0  0  0  0  0  0  0  # atno 8008 bound_to 7997
  154.4562  140.0960  156.6815 H   0  0  0  0  0  0  0  0  0  0  0  0  # atno 8009 bound_to 7997
  155.5139  140.3454  155.4396 H   0  0  0  0  0  0  0  0  0  0  0  0  # atno 8010 bound_to 7997
  140.1059  144.4862  150.7008 H   0  0  0  0  0  0  0  0  0  0  0  0  # atno 10167 bound_to 10162
  156.4063  130.7959  151.2173 H   0  0  0  0  0  0  0  0  0  0  0  0  # atno 10718 bound_to 10713
  154.6433  135.2901  155.0077 H   0  0  0  0  0  0  0  0  0  0  0  0  # atno 10763 bound_to 10752
  154.1196  135.6550  153.4904 H   0  0  0  0  0  0  0  0  0  0  0  0  # atno 10764 bound_to 10752
  153.0337  135.5284  154.7309 H   0  0  0  0  0  0  0  0  0  0  0  0  # atno 10765 bound_to 10752
  141.0577  133.6720  156.3150 H   0  0  0  0  0  0  0  0  0  0  0  0  # atno 11005 bound_to 11000
  144.6856  139.9553  143.7479 LP  0  0  0  0  0  0  0  0  0  0  0  0  # atno 17320 bound_to 7965
  146.0383  139.3398  143.0713 LP  0  0  0  0  0  0  0  0  0  0  0  0  # atno 17321 bound_to 7965
  140.6953  143.2400  151.5019 LP  0  0  0  0  0  0  0  0  0  0  0  0  # atno 17342 bound_to 10162
  139.5646  144.2074  152.1744 LP  0  0  0  0  0  0  0  0  0  0  0  0  # atno 17343 bound_to 10162
  157.7505  131.0271  150.3991 LP  0  0  0  0  0  0  0  0  0  0  0  0  # atno 17370 bound_to 10713
  156.4281  130.3966  149.6779 LP  0  0  0  0  0  0  0  0  0  0  0  0  # atno 17371 bound_to 10713
  140.5931  134.5630  157.5503 LP  0  0  0  0  0  0  0  0  0  0  0  0  # atno 17394 bound_to 11000
  139.9404  134.7797  156.0692 LP  0  0  0  0  0  0  0  0  0  0  0  0  # atno 17395 bound_to 11000

$$$$
