AV-unprocessed.smi:604|AV-procd|sdf|3037|dock1
  -GOLD-   2262023553D 1   1.00000     0.00000
 Structure written by MMmdl.
 49 51  0  0  0  0  0  0  0  0  2 V2000
  151.6202  136.3865  155.8706 O   0  0  0  0  0  0  0  0  0  0  0  0
  150.5378  136.7569  155.4171 C   0  0  0  0  0  0  0  0  0  0  0  0
  149.5903  135.9513  154.9075 N   0  0  0  0  0  0  0  0  0  0  0  0
  149.6103  134.5360  154.7809 C   0  0  0  0  0  0  0  0  0  0  0  0
  150.3107  133.7948  155.7547 C   0  0  0  0  0  0  0  0  0  0  0  0
  150.3603  132.3923  155.6461 C   0  0  0  0  0  0  0  0  0  0  0  0
  149.7116  131.7823  154.5553 C   0  0  0  0  0  0  0  0  0  0  0  0
  149.0510  132.4764  153.6047 N   0  0  0  0  0  0  0  0  0  0  0  0
  149.0059  133.8218  153.7163 C   0  0  0  0  0  0  0  0  0  0  0  0
  150.1666  138.0439  155.3542 N   0  0  0  0  0  0  0  0  0  0  0  0
  150.9833  139.1749  155.7851 C   0  0  2  0  0  0  0  0  0  0  0  0
  151.2886  139.0965  157.2922 C   0  0  0  0  0  0  0  0  0  0  0  0
  152.0649  140.3366  157.7677 C   0  0  0  0  0  0  0  0  0  0  0  0
  151.3320  141.5880  157.4433 N   0  3  1  0  0  0  0  0  0  0  0  0
  151.9788  142.8009  158.0079 C   0  0  0  0  0  0  0  0  0  0  0  0
  151.7259  142.9354  159.5217 C   0  0  0  0  0  0  0  0  0  0  0  0
  151.9621  144.3335  160.1014 C   0  0  0  0  0  0  0  0  0  0  0  0
  152.1456  144.1154  161.6066 C   0  0  0  0  0  0  0  0  0  0  0  0
  152.6063  142.6602  161.7756 C   0  0  0  0  0  0  0  0  0  0  0  0
  152.6546  142.0590  160.3668 C   0  0  0  0  0  0  0  0  0  0  0  0
  151.0616  141.6996  155.9858 C   0  0  0  0  0  0  0  0  0  0  0  0
  150.2554  140.4931  155.4777 C   0  0  0  0  0  0  0  0  0  0  0  0
  148.7888  136.4096  154.4997 H   0  0  0  0  0  0  0  0  0  0  0  0
  150.8004  134.2920  156.5797 H   0  0  0  0  0  0  0  0  0  0  0  0
  150.8838  131.7983  156.3804 H   0  0  0  0  0  0  0  0  0  0  0  0
  149.7289  130.7085  154.4399 H   0  0  0  0  0  0  0  0  0  0  0  0
  148.4869  134.3223  152.9140 H   0  0  0  0  0  0  0  0  0  0  0  0
  149.2603  138.2574  154.9639 H   0  0  0  0  0  0  0  0  0  0  0  0
  151.9237  139.1662  155.2298 H   0  0  0  0  0  0  0  0  0  0  0  0
  150.3580  139.0136  157.8559 H   0  0  0  0  0  0  0  0  0  0  0  0
  151.8653  138.1981  157.5153 H   0  0  0  0  0  0  0  0  0  0  0  0
  152.2165  140.2688  158.8458 H   0  0  0  0  0  0  0  0  0  0  0  0
  153.0541  140.3626  157.3074 H   0  0  0  0  0  0  0  0  0  0  0  0
  153.0579  142.7417  157.8582 H   0  0  0  0  0  0  0  0  0  0  0  0
  151.6587  143.6970  157.4735 H   0  0  0  0  0  0  0  0  0  0  0  0
  150.6982  142.6391  159.7391 H   0  0  0  0  0  0  0  0  0  0  0  0
  152.8764  144.7597  159.6858 H   0  0  0  0  0  0  0  0  0  0  0  0
  151.1450  145.0222  159.8843 H   0  0  0  0  0  0  0  0  0  0  0  0
  152.8601  144.8230  162.0282 H   0  0  0  0  0  0  0  0  0  0  0  0
  151.1973  144.2621  162.1249 H   0  0  0  0  0  0  0  0  0  0  0  0
  153.5771  142.5947  162.2680 H   0  0  0  0  0  0  0  0  0  0  0  0
  151.8908  142.1162  162.3933 H   0  0  0  0  0  0  0  0  0  0  0  0
  152.3629  141.0083  160.3551 H   0  0  0  0  0  0  0  0  0  0  0  0
  153.6744  142.1205  159.9831 H   0  0  0  0  0  0  0  0  0  0  0  0
  150.5092  142.6144  155.7742 H   0  0  0  0  0  0  0  0  0  0  0  0
  152.0060  141.7719  155.4437 H   0  0  0  0  0  0  0  0  0  0  0  0
  150.0901  140.5876  154.4037 H   0  0  0  0  0  0  0  0  0  0  0  0
  149.2691  140.4934  155.9446 H   0  0  0  0  0  0  0  0  0  0  0  0
  150.4359  141.5104  157.9029 H   0  0  0  0  0  0  0  0  0  0  0  0
  1  2  2  0  0  0  0
  2  3  1  0  0  0  0
  2 10  1  0  0  0  0
  3  4  1  0  0  0  0
  3 23  1  0  0  0  0
  4  9  1  0  0  0  0
  4  5  2  0  0  0  0
  5  6  1  0  0  0  0
  5 24  1  0  0  0  0
  6  7  2  0  0  0  0
  6 25  1  0  0  0  0
  7  8  1  0  0  0  0
  7 26  1  0  0  0  0
  8  9  2  0  0  0  0
  9 27  1  0  0  0  0
 10 11  1  0  0  0  0
 10 28  1  0  0  0  0
 11 22  1  0  0  0  0
 11 12  1  0  0  0  0
 11 29  1  0  0  0  0
 12 13  1  0  0  0  0
 12 30  1  0  0  0  0
 12 31  1  0  0  0  0
 13 14  1  0  0  0  0
 13 32  1  0  0  0  0
 13 33  1  0  0  0  0
 14 15  1  0  0  0  0
 14 21  1  0  0  0  0
 14 49  1  0  0  0  0
 15 16  1  0  0  0  0
 15 34  1  0  0  0  0
 15 35  1  0  0  0  0
 16 20  1  0  0  0  0
 16 17  1  0  0  0  0
 16 36  1  0  0  0  0
 17 18  1  0  0  0  0
 17 37  1  0  0  0  0
 17 38  1  0  0  0  0
 18 19  1  0  0  0  0
 18 39  1  0  0  0  0
 18 40  1  0  0  0  0
 19 20  1  0  0  0  0
 19 41  1  0  0  0  0
 19 42  1  0  0  0  0
 20 43  1  0  0  0  0
 20 44  1  0  0  0  0
 21 22  1  0  0  0  0
 21 45  1  0  0  0  0
 21 46  1  0  0  0  0
 22 47  1  0  0  0  0
 22 48  1  0  0  0  0
M  CHG  1  14   1
M  END
> <s_m_source_file>
AV-unprocessed.smi

> <i_m_source_file_index>
604

> <i_lp_mmshare_version>
43012

> <i_f3d_flags>
0

> <s_epik_input>
W2NIXTFuW2NIXVtjSF1bY0hdYzFbTkhdQyg9TylbTkhdW0NIXTJbQ0gyXVtDSDJdTihbQ0gyXVtDSDJdMilbQ0gyXVtDSF0zW0NIMl1bQ0gyXVtDSDJdW0NIMl0z

> <s_epik_cmdline>
J2VwaWtfcHl0aG9uJywgJy1waCcsICc3LjAnLCAnLXRuJywgJzgnLCAnLW1hJywgJzIwMCcsICctbWV0YWxfYmluZGluZycsICctaW1hZScsICc8aW5maWxlLm1hZT4nLCAnLW9tYWUnLCAnPG91dGZpbGUubWFlPic=

> <r_lp_tautomer_probability>
1

> <r_epik_Ionization_Penalty>
0.00608112

> <r_epik_Ionization_Penalty_Charging>
0.00207989

> <r_epik_Ionization_Penalty_Neutral>
0.00400122

> <r_epik_State_Penalty>
-0

> <r_epik_Charging_Adjusted_Penalty>
0.00207989

> <i_epik_Tot_Q>
1

> <i_epik_Tot_abs_Q>
1

> <r_epik_Metal_State_Penalty>
-0

> <b_epik_Metal_Only>
0

> <s_lp_Force_Field>
OPLS_2005

> <r_lp_Energy>
41.6956

> <b_lp_Chiralities_Consistent>
1

> <s_lp_Variant>
AV-unprocessed.smi:604-1

> <Gold.Version>
5.8.1

> <Gold.Id.Protein>
6NUR|6NUR_protein|mol2

> <Gold.PLP.Fitness>
48.1161

> <Gold.PLP.PLP>
-43.5333

> <Gold.PLP.part.hbond>
-1.4167

> <Gold.PLP.part.metal>
0.0000

> <Gold.PLP.part.buried>
-5.9796

> <Gold.PLP.part.nonpolar>
-36.5009

> <Gold.PLP.part.repulsive>
0.2684

> <Gold.PLP.ligand.clash>
0.0000

> <Gold.PLP.ligand.torsion>
0.5968

> <Gold.PLP.Chemscore.Hbond>
1.0000

> <Gold.PLP.Chemscore.CHOScore>
0.9082

> <Gold.PLP.Chemscore.Metal>
0.0000

> <Gold.Chemscore.Hbonds>
donor molecule, donor type, donor heavy atom, donor atom, acceptor molecule, acceptor atom, score
      P1  H 10752 10763       L1     1  1.00
      L1  C     9    27       P1  7948  0.85

> <Gold.PLP.Chemscore.Internal.Correction>
0.0517

> <Gold.Rescore>
     Score         DG    S(hbond)    S(metal)    S(lipo)     H(rot)  DE(clash)    DE(int)     intcor
     18.20     -20.19       1.00        0.00     126.61       1.35       0.19       1.79       ----

> <Gold.Chemscore.Fitness>
18.2027

> <Gold.Chemscore.DG>
-20.1866

> <Gold.Chemscore.ZeroCoef>
-5.4800

> <Gold.Chemscore.Hbond>
0.9994

> <Gold.Chemscore.Metal>
0.0000

> <Gold.Chemscore.Lipo>
126.6077

> <Gold.Chemscore.Internal_Hbond>
0.0000

> <Gold.Chemscore.DEClash>
0.1921

> <Gold.Chemscore.DEInternal>
1.7918

> <Gold.Chemscore.Rot>
1.3455

> <Gold.Chemscore.Internal.Correction>
   9.000000E+99

> <Gold.Chemscore.Hbonds>
donor molecule, donor type, donor heavy atom, donor atom, acceptor molecule, acceptor atom, score
      P1  H 10752 10763       L1     1  0.93

> <Gold.Chemscore.Hbond.Weighted>
-3.3379

> <Gold.Chemscore.Metal.Weighted>
-0.0000

> <Gold.Chemscore.Lipo.Weighted>
-14.8131

> <Gold.Chemscore.Internal_Hbond.Weighted>
0.0000

> <Gold.Chemscore.DEClash.Weighted>
0.1921

> <Gold.Chemscore.DEInternal.Weighted>
1.7918

> <Gold.Chemscore.Rot.Weighted>
3.4445

> <Gold.Chemscore.Internal.Correction.Weighted>
   9.000000E+99

> <Gold.Protein.RotatedTorsions>
[ 6907 6896 6895 6894 ] final    9.21 input  -60.11 | X-H torsion
[ 7974 7965 7964 7962 ] final  110.08 input  175.53 | X-H torsion
[ 8008 7997 7996 7995 ] final -107.49 input   59.86 | X-H torsion
[ 10167 10162 10161 10158 ] final  172.23 input  -65.29 | X-H torsion
[ 10718 10713 10712 10709 ] final  157.70 input   66.30 | X-H torsion
[ 10763 10752 10751 10750 ] final   61.84 input  -60.55 | X-H torsion
[ 11005 11000 10999 10996 ] final  115.91 input  -57.11 | X-H torsion

> <Gold.Protein.ActiveResidues>
 VAL166  LYS551  ARG553  GLY616  TRP617  ASP618  TYR619  PRO620  LYS621  CYS622 
 ASP623  PHE694  ASN695  SER759  ASP760  ASP761  ALA762  ILE779  LEU786  VAL792 
 PHE793  MET794  SER795  GLU796  ALA797  LYS798  CYS799  TRP800  GLU811  SER814 

> <Gold.Protein.RotatedAtoms>
  151.7184  135.0899  160.0279 H   0  0  0  0  0  0  0  0  0  0  0  0  # atno 6907 bound_to 6896
  152.3617  133.6301  159.6028 H   0  0  0  0  0  0  0  0  0  0  0  0  # atno 6908 bound_to 6896
  150.7609  133.9329  159.3474 H   0  0  0  0  0  0  0  0  0  0  0  0  # atno 6909 bound_to 6896
  145.2596  139.2708  143.4024 H   0  0  0  0  0  0  0  0  0  0  0  0  # atno 7974 bound_to 7965
  154.9301  140.0405  157.2043 H   0  0  0  0  0  0  0  0  0  0  0  0  # atno 8008 bound_to 7997
  154.8169  140.2877  155.5792 H   0  0  0  0  0  0  0  0  0  0  0  0  # atno 8009 bound_to 7997
  156.2976  140.2526  156.3068 H   0  0  0  0  0  0  0  0  0  0  0  0  # atno 8010 bound_to 7997
  139.5070  144.3397  152.0031 H   0  0  0  0  0  0  0  0  0  0  0  0  # atno 10167 bound_to 10162
  157.1879  131.0648  151.2096 H   0  0  0  0  0  0  0  0  0  0  0  0  # atno 10718 bound_to 10713
  152.9963  135.5486  154.6097 H   0  0  0  0  0  0  0  0  0  0  0  0  # atno 10763 bound_to 10752
  154.5420  135.2820  155.1089 H   0  0  0  0  0  0  0  0  0  0  0  0  # atno 10764 bound_to 10752
  154.2362  135.6424  153.5244 H   0  0  0  0  0  0  0  0  0  0  0  0  # atno 10765 bound_to 10752
  139.9025  134.9591  156.7118 H   0  0  0  0  0  0  0  0  0  0  0  0  # atno 11005 bound_to 11000
  146.3279  140.3009  142.8620 LP  0  0  0  0  0  0  0  0  0  0  0  0  # atno 17320 bound_to 7965
  144.9430  140.8099  143.5618 LP  0  0  0  0  0  0  0  0  0  0  0  0  # atno 17321 bound_to 7965
  140.2835  144.3833  150.6111 LP  0  0  0  0  0  0  0  0  0  0  0  0  # atno 17342 bound_to 10162
  140.6000  143.2167  151.7090 LP  0  0  0  0  0  0  0  0  0  0  0  0  # atno 17343 bound_to 10162
  157.3889  130.7271  149.6683 LP  0  0  0  0  0  0  0  0  0  0  0  0  # atno 17370 bound_to 10713
  155.9715  130.4152  150.4169 LP  0  0  0  0  0  0  0  0  0  0  0  0  # atno 17371 bound_to 10713
  140.7070  133.9257  155.8060 LP  0  0  0  0  0  0  0  0  0  0  0  0  # atno 17394 bound_to 11000
  141.0329  134.0730  157.3993 LP  0  0  0  0  0  0  0  0  0  0  0  0  # atno 17395 bound_to 11000

$$$$
