AV-unprocessed.smi:1915|AV-procd|sdf|7760|dock5
  -GOLD-   22720 9503D 1   1.00000     0.00000
 Structure written by MMmdl.
 44 45  0  0  0  0  0  0  0  0  1 V2000
  146.6535  141.6819  153.7671 C   0  0  0  0  0  0  0  0  0  0  0  0
  147.7088  140.8492  154.5154 C   0  0  0  0  0  0  0  0  0  0  0  0
  149.0575  141.5838  154.5334 C   0  0  0  0  0  0  0  0  0  0  0  0
  147.8787  139.4224  153.9470 C   0  0  0  0  0  0  0  0  0  0  0  0
  149.0064  138.7037  154.5385 N   0  0  0  0  0  0  0  0  0  0  0  0
  150.3492  138.8858  154.0134 C   0  0  0  0  0  0  0  0  0  0  0  0
  151.2774  138.1122  154.9727 C   0  0  1  0  0  0  0  0  0  0  0  0
  152.1118  139.0532  155.8559 C   0  0  0  0  0  0  0  0  0  0  0  0
  153.3423  139.0055  155.8266 O   0  0  0  0  0  0  0  0  0  0  0  0
  151.4287  139.8988  156.6396 N   0  0  0  0  0  0  0  0  0  0  0  0
  152.0382  140.8535  157.5575 C   0  0  0  0  0  0  0  0  0  0  0  0
  150.9906  141.5381  158.4527 C   0  0  0  0  0  0  0  0  0  0  0  0
  151.4035  142.9248  158.9184 C   0  0  0  0  0  0  0  0  0  0  0  0
  151.7766  143.9116  157.9813 C   0  0  0  0  0  0  0  0  0  0  0  0
  152.1647  145.1785  158.4585 C   0  0  0  0  0  0  0  0  0  0  0  0
  152.1657  145.4088  159.8477 C   0  0  0  0  0  0  0  0  0  0  0  0
  151.7773  144.3574  160.7015 C   0  0  0  0  0  0  0  0  0  0  0  0
  151.4045  143.1387  160.2544 N   0  0  0  0  0  0  0  0  0  0  0  0
  150.3338  137.2298  155.8140 C   0  0  0  0  0  0  0  0  0  0  0  0
  148.9478  137.7589  155.4846 C   0  0  0  0  0  0  0  0  0  0  0  0
  147.9303  137.3533  156.0445 O   0  0  0  0  0  0  0  0  0  0  0  0
  146.8853  141.7516  152.7040 H   0  0  0  0  0  0  0  0  0  0  0  0
  146.6017  142.6964  154.1631 H   0  0  0  0  0  0  0  0  0  0  0  0
  145.6574  141.2505  153.8665 H   0  0  0  0  0  0  0  0  0  0  0  0
  147.3784  140.7589  155.5512 H   0  0  0  0  0  0  0  0  0  0  0  0
  149.4533  141.7091  153.5249 H   0  0  0  0  0  0  0  0  0  0  0  0
  149.7974  141.0340  155.1160 H   0  0  0  0  0  0  0  0  0  0  0  0
  148.9616  142.5744  154.9789 H   0  0  0  0  0  0  0  0  0  0  0  0
  146.9589  138.8523  154.0889 H   0  0  0  0  0  0  0  0  0  0  0  0
  148.0335  139.4725  152.8682 H   0  0  0  0  0  0  0  0  0  0  0  0
  150.4031  138.4706  153.0061 H   0  0  0  0  0  0  0  0  0  0  0  0
  150.5945  139.9470  153.9445 H   0  0  0  0  0  0  0  0  0  0  0  0
  151.9521  137.4793  154.3933 H   0  0  0  0  0  0  0  0  0  0  0  0
  150.4194  139.8687  156.6131 H   0  0  0  0  0  0  0  0  0  0  0  0
  152.7708  140.3416  158.1839 H   0  0  0  0  0  0  0  0  0  0  0  0
  152.5807  141.6038  156.9812 H   0  0  0  0  0  0  0  0  0  0  0  0
  150.0457  141.6137  157.9135 H   0  0  0  0  0  0  0  0  0  0  0  0
  150.7887  140.9154  159.3256 H   0  0  0  0  0  0  0  0  0  0  0  0
  151.7686  143.7034  156.9215 H   0  0  0  0  0  0  0  0  0  0  0  0
  152.4568  145.9587  157.7713 H   0  0  0  0  0  0  0  0  0  0  0  0
  152.4571  146.3681  160.2493 H   0  0  0  0  0  0  0  0  0  0  0  0
  151.7656  144.4987  161.7722 H   0  0  0  0  0  0  0  0  0  0  0  0
  150.4035  136.1836  155.5148 H   0  0  0  0  0  0  0  0  0  0  0  0
  150.5200  137.2851  156.8879 H   0  0  0  0  0  0  0  0  0  0  0  0
  1  2  1  0  0  0  0
  1 22  1  0  0  0  0
  1 23  1  0  0  0  0
  1 24  1  0  0  0  0
  2  3  1  0  0  0  0
  2  4  1  0  0  0  0
  2 25  1  0  0  0  0
  3 26  1  0  0  0  0
  3 27  1  0  0  0  0
  3 28  1  0  0  0  0
  4  5  1  0  0  0  0
  4 29  1  0  0  0  0
  4 30  1  0  0  0  0
  5 20  1  0  0  0  0
  5  6  1  0  0  0  0
  6  7  1  0  0  0  0
  6 31  1  0  0  0  0
  6 32  1  0  0  0  0
  7  8  1  0  0  0  0
  7 19  1  0  0  0  0
  7 33  1  0  0  0  0
  8  9  2  0  0  0  0
  8 10  1  0  0  0  0
 10 11  1  0  0  0  0
 10 34  1  0  0  0  0
 11 12  1  0  0  0  0
 11 35  1  0  0  0  0
 11 36  1  0  0  0  0
 12 13  1  0  0  0  0
 12 37  1  0  0  0  0
 12 38  1  0  0  0  0
 13 18  1  0  0  0  0
 13 14  2  0  0  0  0
 14 15  1  0  0  0  0
 14 39  1  0  0  0  0
 15 16  2  0  0  0  0
 15 40  1  0  0  0  0
 16 17  1  0  0  0  0
 16 41  1  0  0  0  0
 17 18  2  0  0  0  0
 17 42  1  0  0  0  0
 19 20  1  0  0  0  0
 19 43  1  0  0  0  0
 19 44  1  0  0  0  0
 20 21  2  0  0  0  0
M  END
> <s_m_source_file>
AV-unprocessed.smi

> <i_m_source_file_index>
1915

> <i_lp_mmshare_version>
43012

> <i_f3d_flags>
0

> <s_epik_input>
W0NIM11bQ0hdKFtDSDNdKVtDSDJdTjFbQ0gyXVtDQEhdKFtDSDJdQzE9TylDKD1PKVtOSF1bQ0gyXVtDSDJdYzJbY0hdW2NIXVtjSF1bY0hdbjI=

> <s_epik_cmdline>
J2VwaWtfcHl0aG9uJywgJy1waCcsICc3LjAnLCAnLXRuJywgJzgnLCAnLW1hJywgJzIwMCcsICctbWV0YWxfYmluZGluZycsICctaW1hZScsICc8aW5maWxlLm1hZT4nLCAnLW9tYWUnLCAnPG91dGZpbGUubWFlPic=

> <r_epik_Ionization_Penalty>
0.0252359

> <r_epik_Ionization_Penalty_Charging>
0

> <r_epik_Ionization_Penalty_Neutral>
0.0252359

> <r_epik_State_Penalty>
0.020532

> <r_epik_Charging_Adjusted_Penalty>
0.020532

> <i_epik_Tot_Q>
0

> <i_epik_Tot_abs_Q>
0

> <r_epik_Metal_State_Penalty>
0.0196901

> <b_epik_Metal_Only>
0

> <s_lp_Force_Field>
OPLS_2005

> <r_lp_Energy>
14.3845

> <b_lp_Chiralities_Consistent>
1

> <s_lp_Variant>
AV-unprocessed.smi:1915-1

> <Gold.Version>
5.8.1

> <Gold.Id.Protein>
6NUR|6NUR_protein|mol2

> <Gold.PLP.Fitness>
45.2367

> <Gold.PLP.PLP>
-43.2934

> <Gold.PLP.part.hbond>
-1.8995

> <Gold.PLP.part.metal>
0.0000

> <Gold.PLP.part.buried>
-3.9106

> <Gold.PLP.part.nonpolar>
-36.0020

> <Gold.PLP.part.repulsive>
0.1889

> <Gold.PLP.ligand.clash>
0.0000

> <Gold.PLP.ligand.torsion>
0.5693

> <Gold.PLP.Chemscore.Hbond>
1.0000

> <Gold.PLP.Chemscore.CHOScore>
0.0000

> <Gold.PLP.Chemscore.Metal>
0.0000

> <Gold.Chemscore.Hbonds>
donor molecule, donor type, donor heavy atom, donor atom, acceptor molecule, acceptor atom, score
      P1  H  7997  8008       L1     9  1.00

> <Gold.PLP.Chemscore.Internal.Correction>
0.0819

> <Gold.Rescore>
     Score         DG    S(hbond)    S(metal)    S(lipo)     H(rot)  DE(clash)    DE(int)     intcor
     17.19     -18.17       0.94        0.00     119.75       1.75       0.30       0.67       ----

> <Gold.Chemscore.Fitness>
17.1944

> <Gold.Chemscore.DG>
-18.1736

> <Gold.Chemscore.ZeroCoef>
-5.4800

> <Gold.Chemscore.Hbond>
0.9435

> <Gold.Chemscore.Metal>
0.0000

> <Gold.Chemscore.Lipo>
119.7538

> <Gold.Chemscore.Internal_Hbond>
0.0000

> <Gold.Chemscore.DEClash>
0.3045

> <Gold.Chemscore.DEInternal>
0.6746

> <Gold.Chemscore.Rot>
1.7456

> <Gold.Chemscore.Internal.Correction>
   9.000000E+99

> <Gold.Chemscore.Hbonds>
donor molecule, donor type, donor heavy atom, donor atom, acceptor molecule, acceptor atom, score
      P1  H  7997  8008       L1     9  0.93

> <Gold.Chemscore.Hbond.Weighted>
-3.1512

> <Gold.Chemscore.Metal.Weighted>
-0.0000

> <Gold.Chemscore.Lipo.Weighted>
-14.0112

> <Gold.Chemscore.Internal_Hbond.Weighted>
0.0000

> <Gold.Chemscore.DEClash.Weighted>
0.3045

> <Gold.Chemscore.DEInternal.Weighted>
0.6746

> <Gold.Chemscore.Rot.Weighted>
4.4688

> <Gold.Chemscore.Internal.Correction.Weighted>
   9.000000E+99

> <Gold.Protein.RotatedTorsions>
[ 6907 6896 6895 6894 ] final -175.90 input  -60.11 | X-H torsion
[ 7974 7965 7964 7962 ] final -149.40 input  175.53 | X-H torsion
[ 8008 7997 7996 7995 ] final  -44.61 input   59.86 | X-H torsion
[ 10167 10162 10161 10158 ] final  135.57 input  -65.29 | X-H torsion
[ 10718 10713 10712 10709 ] final  150.97 input   66.30 | X-H torsion
[ 10763 10752 10751 10750 ] final   81.16 input  -60.55 | X-H torsion
[ 11005 11000 10999 10996 ] final   32.38 input  -57.11 | X-H torsion

> <Gold.Protein.ActiveResidues>
 VAL166  LYS551  ARG553  GLY616  TRP617  ASP618  TYR619  PRO620  LYS621  CYS622 
 ASP623  PHE694  ASN695  SER759  ASP760  ASP761  ALA762  ILE779  LEU786  VAL792 
 PHE793  MET794  SER795  GLU796  ALA797  LYS798  CYS799  TRP800  GLU811  SER814 

> <Gold.Protein.RotatedAtoms>
  151.5961  133.3361  159.3037 H   0  0  0  0  0  0  0  0  0  0  0  0  # atno 6907 bound_to 6896
  150.8233  134.7455  159.6803 H   0  0  0  0  0  0  0  0  0  0  0  0  # atno 6908 bound_to 6896
  152.4325  134.5756  159.9985 H   0  0  0  0  0  0  0  0  0  0  0  0  # atno 6909 bound_to 6896
  144.7970  140.5069  143.5733 H   0  0  0  0  0  0  0  0  0  0  0  0  # atno 7974 bound_to 7965
  154.3998  140.1417  156.3712 H   0  0  0  0  0  0  0  0  0  0  0  0  # atno 8008 bound_to 7997
  155.8091  140.3473  155.5426 H   0  0  0  0  0  0  0  0  0  0  0  0  # atno 8009 bound_to 7997
  155.8405  140.0926  157.1728 H   0  0  0  0  0  0  0  0  0  0  0  0  # atno 8010 bound_to 7997
  139.5212  144.6510  151.5302 H   0  0  0  0  0  0  0  0  0  0  0  0  # atno 10167 bound_to 10162
  157.2767  131.0827  151.1561 H   0  0  0  0  0  0  0  0  0  0  0  0  # atno 10718 bound_to 10713
  153.1094  135.4775  154.9008 H   0  0  0  0  0  0  0  0  0  0  0  0  # atno 10763 bound_to 10752
  154.7464  135.3095  154.8639 H   0  0  0  0  0  0  0  0  0  0  0  0  # atno 10764 bound_to 10752
  153.9232  135.6852  153.4800 H   0  0  0  0  0  0  0  0  0  0  0  0  # atno 10765 bound_to 10752
  140.2741  134.3049  155.7819 H   0  0  0  0  0  0  0  0  0  0  0  0  # atno 11005 bound_to 11000
  145.5649  139.1481  143.3320 LP  0  0  0  0  0  0  0  0  0  0  0  0  # atno 17320 bound_to 7965
  146.2241  140.5784  142.9004 LP  0  0  0  0  0  0  0  0  0  0  0  0  # atno 17321 bound_to 7965
  140.6315  143.9067  150.6610 LP  0  0  0  0  0  0  0  0  0  0  0  0  # atno 17342 bound_to 10162
  140.2372  143.3691  152.1516 LP  0  0  0  0  0  0  0  0  0  0  0  0  # atno 17343 bound_to 10162
  157.3012  130.6843  149.6165 LP  0  0  0  0  0  0  0  0  0  0  0  0  # atno 17370 bound_to 10713
  155.9664  130.4391  150.5247 LP  0  0  0  0  0  0  0  0  0  0  0  0  # atno 17371 bound_to 10713
  141.2173  133.7484  156.9379 LP  0  0  0  0  0  0  0  0  0  0  0  0  # atno 17394 bound_to 11000
  140.1345  134.9334  157.2383 LP  0  0  0  0  0  0  0  0  0  0  0  0  # atno 17395 bound_to 11000

$$$$
