AV-unprocessed.smi:1005|AV-procd|sdf|4362|dock9
  -GOLD-   22720 2263D 1   1.00000     0.00000
 Structure written by MMmdl.
 56 58  0  0  0  0  0  0  0  0  2 V2000
  152.7240  143.0445  160.9127 C   0  0  0  0  0  0  0  0  0  0  0  0
  152.1469  142.5896  159.5837 C   0  0  0  0  0  0  0  0  0  0  0  0
  152.7089  141.4641  158.9396 C   0  0  0  0  0  0  0  0  0  0  0  0
  152.2028  141.0102  157.7018 C   0  0  0  0  0  0  0  0  0  0  0  0
  152.5937  139.9473  156.9054 N   0  0  0  0  0  0  0  0  0  0  0  0
  151.7429  140.0472  155.8882 C   0  0  0  0  0  0  0  0  0  0  0  0
  150.8415  141.0471  155.9347 N   0  0  0  0  0  0  0  0  0  0  0  0
  149.8186  141.3548  154.9509 C   0  0  0  0  0  0  0  0  0  0  0  0
  148.3928  141.1315  155.4921 C   0  0  2  0  0  0  0  0  0  0  0  0
  148.0553  139.7683  155.3160 O   0  0  0  0  0  0  0  0  0  0  0  0
  147.3575  142.0102  154.7586 C   0  0  0  0  0  0  0  0  0  0  0  0
  146.0584  142.1341  155.4215 N   0  0  0  0  0  0  0  0  0  0  0  0
  145.2784  143.2202  154.8390 C   0  0  0  0  0  0  0  0  0  0  0  0
  143.9059  143.3682  155.5157 C   0  0  0  0  0  0  0  0  0  0  0  0
  143.2020  142.1334  155.4323 O   0  0  0  0  0  0  0  0  0  0  0  0
  143.9012  141.0511  156.0423 C   0  0  1  0  0  0  0  0  0  0  0  0
  143.0479  139.7797  155.8871 C   0  0  0  0  0  0  0  0  0  0  0  0
  142.3587  139.7087  154.5735 N   0  3  0  0  0  0  0  0  0  0  0  0
  141.1447  140.5542  154.4979 C   0  0  0  0  0  0  0  0  0  0  0  0
  142.0742  138.3140  154.1696 C   0  0  0  0  0  0  0  0  0  0  0  0
  145.2756  140.9022  155.3592 C   0  0  0  0  0  0  0  0  0  0  0  0
  151.1100  141.7187  157.1221 C   0  0  0  0  0  0  0  0  0  0  0  0
  150.5417  142.8391  157.7533 C   0  0  0  0  0  0  0  0  0  0  0  0
  151.0592  143.2790  158.9896 C   0  0  0  0  0  0  0  0  0  0  0  0
  150.4390  144.4905  159.6630 C   0  0  0  0  0  0  0  0  0  0  0  0
  153.5751  142.4303  161.2087 H   0  0  0  0  0  0  0  0  0  0  0  0
  151.9716  142.9756  161.6990 H   0  0  0  0  0  0  0  0  0  0  0  0
  153.0648  144.0782  160.8483 H   0  0  0  0  0  0  0  0  0  0  0  0
  153.5368  140.9382  159.3919 H   0  0  0  0  0  0  0  0  0  0  0  0
  151.7730  139.3506  155.0629 H   0  0  0  0  0  0  0  0  0  0  0  0
  149.9482  142.3938  154.6453 H   0  0  0  0  0  0  0  0  0  0  0  0
  149.9906  140.7446  154.0627 H   0  0  0  0  0  0  0  0  0  0  0  0
  148.3817  141.3611  156.5586 H   0  0  0  0  0  0  0  0  0  0  0  0
  147.8846  139.6193  154.3982 H   0  0  0  0  0  0  0  0  0  0  0  0
  147.7807  143.0128  154.6839 H   0  0  0  0  0  0  0  0  0  0  0  0
  147.2325  141.6738  153.7278 H   0  0  0  0  0  0  0  0  0  0  0  0
  145.8259  144.1595  154.9280 H   0  0  0  0  0  0  0  0  0  0  0  0
  145.1358  143.0428  153.7717 H   0  0  0  0  0  0  0  0  0  0  0  0
  144.0184  143.6628  156.5603 H   0  0  0  0  0  0  0  0  0  0  0  0
  143.3220  144.1463  155.0235 H   0  0  0  0  0  0  0  0  0  0  0  0
  144.0601  141.2738  157.0980 H   0  0  0  0  0  0  0  0  0  0  0  0
  143.7031  138.9144  156.0003 H   0  0  0  0  0  0  0  0  0  0  0  0
  142.3100  139.7122  156.6879 H   0  0  0  0  0  0  0  0  0  0  0  0
  140.4031  140.2403  155.2337 H   0  0  0  0  0  0  0  0  0  0  0  0
  140.6905  140.4835  153.5090 H   0  0  0  0  0  0  0  0  0  0  0  0
  141.3748  141.6048  154.6706 H   0  0  0  0  0  0  0  0  0  0  0  0
  141.3878  137.8364  154.8702 H   0  0  0  0  0  0  0  0  0  0  0  0
  142.9916  137.7254  154.1330 H   0  0  0  0  0  0  0  0  0  0  0  0
  141.6256  138.2832  153.1761 H   0  0  0  0  0  0  0  0  0  0  0  0
  145.1371  140.6062  154.3179 H   0  0  0  0  0  0  0  0  0  0  0  0
  145.8168  140.0910  155.8456 H   0  0  0  0  0  0  0  0  0  0  0  0
  149.7144  143.3551  157.2886 H   0  0  0  0  0  0  0  0  0  0  0  0
  149.5834  144.8644  159.0997 H   0  0  0  0  0  0  0  0  0  0  0  0
  151.1680  145.2975  159.7404 H   0  0  0  0  0  0  0  0  0  0  0  0
  150.0936  144.2374  160.6655 H   0  0  0  0  0  0  0  0  0  0  0  0
  143.0107  140.0686  153.8904 H   0  0  0  0  0  0  0  0  0  0  0  0
  1  2  1  0  0  0  0
  1 26  1  0  0  0  0
  1 27  1  0  0  0  0
  1 28  1  0  0  0  0
  2 24  1  0  0  0  0
  2  3  2  0  0  0  0
  3  4  1  0  0  0  0
  3 29  1  0  0  0  0
  4 22  2  0  0  0  0
  4  5  1  0  0  0  0
  5  6  2  0  0  0  0
  6  7  1  0  0  0  0
  6 30  1  0  0  0  0
  7  8  1  0  0  0  0
  7 22  1  0  0  0  0
  8  9  1  0  0  0  0
  8 31  1  0  0  0  0
  8 32  1  0  0  0  0
  9 10  1  0  0  0  0
  9 11  1  0  0  0  0
  9 33  1  0  0  0  0
 10 34  1  0  0  0  0
 11 12  1  0  0  0  0
 11 35  1  0  0  0  0
 11 36  1  0  0  0  0
 12 21  1  0  0  0  0
 12 13  1  0  0  0  0
 13 14  1  0  0  0  0
 13 37  1  0  0  0  0
 13 38  1  0  0  0  0
 14 15  1  0  0  0  0
 14 39  1  0  0  0  0
 14 40  1  0  0  0  0
 15 16  1  0  0  0  0
 16 17  1  0  0  0  0
 16 21  1  0  0  0  0
 16 41  1  0  0  0  0
 17 18  1  0  0  0  0
 17 42  1  0  0  0  0
 17 43  1  0  0  0  0
 18 19  1  0  0  0  0
 18 20  1  0  0  0  0
 18 56  1  0  0  0  0
 19 44  1  0  0  0  0
 19 45  1  0  0  0  0
 19 46  1  0  0  0  0
 20 47  1  0  0  0  0
 20 48  1  0  0  0  0
 20 49  1  0  0  0  0
 21 50  1  0  0  0  0
 21 51  1  0  0  0  0
 22 23  1  0  0  0  0
 23 24  2  0  0  0  0
 23 52  1  0  0  0  0
 24 25  1  0  0  0  0
 25 53  1  0  0  0  0
 25 54  1  0  0  0  0
 25 55  1  0  0  0  0
M  CHG  1  18   1
M  END
> <s_m_source_file>
AV-unprocessed.smi

> <i_m_source_file_index>
1005

> <i_lp_mmshare_version>
43012

> <i_f3d_flags>
0

> <s_epik_input>
W0NIM11jKFtjSF0xKWMoW0NIM10pW2NIXWMoYzEyKW4oW2NIXW4yKVtDSDJdW0NASF0oW09IXSlbQ0gyXU4zW0NIMl1bQ0gyXU9bQ0BIXShbQ0gyXTMpW0NIMl1OKFtDSDNdKVtDSDNd

> <s_epik_cmdline>
J2VwaWtfcHl0aG9uJywgJy1waCcsICc3LjAnLCAnLXRuJywgJzgnLCAnLW1hJywgJzIwMCcsICctbWV0YWxfYmluZGluZycsICctaW1hZScsICc8aW5maWxlLm1hZT4nLCAnLW9tYWUnLCAnPG91dGZpbGUubWFlPic=

> <r_epik_Ionization_Penalty>
0.226781

> <r_epik_Ionization_Penalty_Charging>
0.00915946

> <r_epik_Ionization_Penalty_Neutral>
0.217622

> <r_epik_State_Penalty>
0.173018

> <r_epik_Charging_Adjusted_Penalty>
0.182178

> <i_epik_Tot_Q>
1

> <i_epik_Tot_abs_Q>
1

> <r_epik_Metal_State_Penalty>
0.0905268

> <b_epik_Metal_Only>
0

> <s_lp_Force_Field>
OPLS_2005

> <r_lp_Energy>
36.5786

> <b_lp_Chiralities_Consistent>
1

> <s_lp_Variant>
AV-unprocessed.smi:1005-1

> <Gold.Version>
5.8.1

> <Gold.Id.Protein>
6NUR|6NUR_protein|mol2

> <Gold.PLP.Fitness>
48.5626

> <Gold.PLP.PLP>
-41.4484

> <Gold.PLP.part.hbond>
-2.0000

> <Gold.PLP.part.metal>
0.0000

> <Gold.PLP.part.buried>
-3.6450

> <Gold.PLP.part.nonpolar>
-34.8743

> <Gold.PLP.part.repulsive>
0.3106

> <Gold.PLP.ligand.clash>
0.0000

> <Gold.PLP.ligand.torsion>
0.9776

> <Gold.PLP.Chemscore.Hbond>
3.0000

> <Gold.PLP.Chemscore.CHOScore>
0.0000

> <Gold.PLP.Chemscore.Metal>
0.0000

> <Gold.Chemscore.Hbonds>
donor molecule, donor type, donor heavy atom, donor atom, acceptor molecule, acceptor atom, score
      L1  H    18    56       P1 10175  2.00
      P1  H  7997  8009       L1     5  1.00

> <Gold.PLP.Chemscore.Internal.Correction>
0.0695

> <Gold.Rescore>
     Score         DG    S(hbond)    S(metal)    S(lipo)     H(rot)  DE(clash)    DE(int)     intcor
     14.61     -17.28       1.85        0.00     100.89       2.41       0.17       2.50       ----

> <Gold.Chemscore.Fitness>
14.6068

> <Gold.Chemscore.DG>
-17.2751

> <Gold.Chemscore.ZeroCoef>
-5.4800

> <Gold.Chemscore.Hbond>
1.8473

> <Gold.Chemscore.Metal>
0.0000

> <Gold.Chemscore.Lipo>
100.8893

> <Gold.Chemscore.Internal_Hbond>
0.0000

> <Gold.Chemscore.DEClash>
0.1689

> <Gold.Chemscore.DEInternal>
2.4994

> <Gold.Chemscore.Rot>
2.4136

> <Gold.Chemscore.Internal.Correction>
   9.000000E+99

> <Gold.Chemscore.Hbonds>
donor molecule, donor type, donor heavy atom, donor atom, acceptor molecule, acceptor atom, score
      L1  H    18    56       P1 10175  0.96
      P1  H  7997  8009       L1     5  0.59

> <Gold.Chemscore.Hbond.Weighted>
-6.1698

> <Gold.Chemscore.Metal.Weighted>
-0.0000

> <Gold.Chemscore.Lipo.Weighted>
-11.8040

> <Gold.Chemscore.Internal_Hbond.Weighted>
0.0000

> <Gold.Chemscore.DEClash.Weighted>
0.1689

> <Gold.Chemscore.DEInternal.Weighted>
2.4994

> <Gold.Chemscore.Rot.Weighted>
6.1788

> <Gold.Chemscore.Internal.Correction.Weighted>
   9.000000E+99

> <Gold.Protein.RotatedTorsions>
[ 6907 6896 6895 6894 ] final -165.52 input  -60.11 | X-H torsion
[ 7974 7965 7964 7962 ] final   35.81 input  175.53 | X-H torsion
[ 8008 7997 7996 7995 ] final -161.24 input   59.86 | X-H torsion
[ 10167 10162 10161 10158 ] final   43.55 input  -65.29 | X-H torsion
[ 10718 10713 10712 10709 ] final   59.22 input   66.30 | X-H torsion
[ 10763 10752 10751 10750 ] final  100.71 input  -60.55 | X-H torsion
[ 11005 11000 10999 10996 ] final  -37.50 input  -57.11 | X-H torsion

> <Gold.Protein.ActiveResidues>
 VAL166  LYS551  ARG553  GLY616  TRP617  ASP618  TYR619  PRO620  LYS621  CYS622 
 ASP623  PHE694  ASN695  SER759  ASP760  ASP761  ALA762  ILE779  LEU786  VAL792 
 PHE793  MET794  SER795  GLU796  ALA797  LYS798  CYS799  TRP800  GLU811  SER814 

> <Gold.Protein.RotatedAtoms>
  151.4289  133.3676  159.2765 H   0  0  0  0  0  0  0  0  0  0  0  0  # atno 6907 bound_to 6896
  150.9239  134.8658  159.7518 H   0  0  0  0  0  0  0  0  0  0  0  0  # atno 6908 bound_to 6896
  152.4995  134.4229  159.9538 H   0  0  0  0  0  0  0  0  0  0  0  0  # atno 6909 bound_to 6896
  146.1256  139.6095  142.9261 H   0  0  0  0  0  0  0  0  0  0  0  0  # atno 7974 bound_to 7965
  155.7893  140.0876  157.2017 H   0  0  0  0  0  0  0  0  0  0  0  0  # atno 8008 bound_to 7997
  154.3986  140.1493  156.3202 H   0  0  0  0  0  0  0  0  0  0  0  0  # atno 8009 bound_to 7997
  155.8575  140.3432  155.5736 H   0  0  0  0  0  0  0  0  0  0  0  0  # atno 8010 bound_to 7997
  140.3433  144.2443  150.6153 H   0  0  0  0  0  0  0  0  0  0  0  0  # atno 10167 bound_to 10162
  157.5658  130.8870  149.9186 H   0  0  0  0  0  0  0  0  0  0  0  0  # atno 10718 bound_to 10713
  153.3175  135.4069  155.1388 H   0  0  0  0  0  0  0  0  0  0  0  0  # atno 10763 bound_to 10752
  154.8592  135.3579  154.5641 H   0  0  0  0  0  0  0  0  0  0  0  0  # atno 10764 bound_to 10752
  153.6073  135.7069  153.5419 H   0  0  0  0  0  0  0  0  0  0  0  0  # atno 10765 bound_to 10752
  140.9957  133.6981  156.1930 H   0  0  0  0  0  0  0  0  0  0  0  0  # atno 11005 bound_to 11000
  145.5372  141.0423  143.2350 LP  0  0  0  0  0  0  0  0  0  0  0  0  # atno 17320 bound_to 7965
  144.7639  139.6891  143.7223 LP  0  0  0  0  0  0  0  0  0  0  0  0  # atno 17321 bound_to 7965
  140.5289  143.2248  151.8271 LP  0  0  0  0  0  0  0  0  0  0  0  0  # atno 17342 bound_to 10162
  139.4837  144.4745  151.9383 LP  0  0  0  0  0  0  0  0  0  0  0  0  # atno 17343 bound_to 10162
  156.0707  130.3685  150.0782 LP  0  0  0  0  0  0  0  0  0  0  0  0  # atno 17370 bound_to 10713
  156.8941  130.9598  151.3585 LP  0  0  0  0  0  0  0  0  0  0  0  0  # atno 17371 bound_to 10713
  140.6970  134.4605  157.5587 LP  0  0  0  0  0  0  0  0  0  0  0  0  # atno 17394 bound_to 11000
  139.9013  134.8549  156.1883 LP  0  0  0  0  0  0  0  0  0  0  0  0  # atno 17395 bound_to 11000

$$$$
