AV-unprocessed.smi:700|AV-procd|sdf|3407|dock3
  -GOLD-   22720 0383D 1   1.00000     0.00000
 Structure written by MMmdl.
 43 44  0  0  0  0  0  0  0  0  1 V2000
  151.0026  130.7862  156.8615 C   0  0  0  0  0  0  0  0  0  0  0  0
  150.6186  132.2011  156.5938 C   0  0  0  0  0  0  0  0  0  0  0  0
  150.2883  132.8755  155.4532 C   0  0  0  0  0  0  0  0  0  0  0  0
  150.0214  134.1968  155.9083 C   0  0  0  0  0  0  0  0  0  0  0  0
  149.6053  135.3980  155.0986 C   0  0  0  0  0  0  0  0  0  0  0  0
  150.6318  136.5352  155.1818 C   0  0  0  0  0  0  0  0  0  0  0  0
  151.7246  136.3703  155.7268 O   0  0  0  0  0  0  0  0  0  0  0  0
  150.2542  137.7036  154.6399 N   0  0  0  0  0  0  0  0  0  0  0  0
  151.0608  138.9186  154.6154 C   0  0  0  0  0  0  0  0  0  0  0  0
  150.3914  140.0605  155.3985 C   0  0  0  0  0  0  0  0  0  0  0  0
  151.3174  140.6700  156.4607 C   0  0  0  0  0  0  0  0  0  0  0  0
  150.7119  141.9211  157.1166 C   0  0  0  0  0  0  0  0  0  0  0  0
  151.7479  142.7851  157.8572 C   0  0  0  0  0  0  0  0  0  0  0  0
  152.1309  142.2293  159.2301 C   0  0  0  0  0  0  0  0  0  0  0  0
  152.7709  143.4117  159.9613 C   0  0  0  0  0  0  0  0  0  0  0  0
  152.1353  144.6740  159.3606 C   0  0  0  0  0  0  0  0  0  0  0  0
  151.2748  144.2077  158.1785 C   0  0  0  0  0  0  0  0  0  0  0  0
  150.1915  134.3074  157.2167 N   0  0  0  0  0  0  0  0  0  0  0  0
  150.5690  133.0361  157.6633 O   0  0  0  0  0  0  0  0  0  0  0  0
  151.3456  130.2975  155.9494 H   0  0  0  0  0  0  0  0  0  0  0  0
  150.1532  130.2229  157.2480 H   0  0  0  0  0  0  0  0  0  0  0  0
  151.8073  130.7334  157.5951 H   0  0  0  0  0  0  0  0  0  0  0  0
  150.2382  132.4840  154.4484 H   0  0  0  0  0  0  0  0  0  0  0  0
  149.4599  135.1192  154.0539 H   0  0  0  0  0  0  0  0  0  0  0  0
  148.6458  135.7737  155.4552 H   0  0  0  0  0  0  0  0  0  0  0  0
  149.3403  137.7554  154.2137 H   0  0  0  0  0  0  0  0  0  0  0  0
  152.0571  138.7139  155.0116 H   0  0  0  0  0  0  0  0  0  0  0  0
  151.1954  139.2113  153.5738 H   0  0  0  0  0  0  0  0  0  0  0  0
  150.0752  140.8405  154.7051 H   0  0  0  0  0  0  0  0  0  0  0  0
  149.4858  139.6918  155.8817 H   0  0  0  0  0  0  0  0  0  0  0  0
  151.5287  139.9255  157.2291 H   0  0  0  0  0  0  0  0  0  0  0  0
  152.2738  140.9201  156.0007 H   0  0  0  0  0  0  0  0  0  0  0  0
  150.2021  142.5228  156.3630 H   0  0  0  0  0  0  0  0  0  0  0  0
  149.9433  141.6082  157.8247 H   0  0  0  0  0  0  0  0  0  0  0  0
  152.6566  142.8490  157.2561 H   0  0  0  0  0  0  0  0  0  0  0  0
  151.2358  141.9108  159.7667 H   0  0  0  0  0  0  0  0  0  0  0  0
  152.7995  141.3705  159.1626 H   0  0  0  0  0  0  0  0  0  0  0  0
  152.6267  143.3484  161.0404 H   0  0  0  0  0  0  0  0  0  0  0  0
  153.8456  143.4209  159.7756 H   0  0  0  0  0  0  0  0  0  0  0  0
  151.5283  145.2041  160.0954 H   0  0  0  0  0  0  0  0  0  0  0  0
  152.9127  145.3612  159.0245 H   0  0  0  0  0  0  0  0  0  0  0  0
  151.3563  144.8762  157.3209 H   0  0  0  0  0  0  0  0  0  0  0  0
  150.2268  144.1916  158.4817 H   0  0  0  0  0  0  0  0  0  0  0  0
  1  2  1  0  0  0  0
  1 20  1  0  0  0  0
  1 21  1  0  0  0  0
  1 22  1  0  0  0  0
  2 19  1  0  0  0  0
  2  3  2  0  0  0  0
  3  4  1  0  0  0  0
  3 23  1  0  0  0  0
  4  5  1  0  0  0  0
  4 18  2  0  0  0  0
  5  6  1  0  0  0  0
  5 24  1  0  0  0  0
  5 25  1  0  0  0  0
  6  7  2  0  0  0  0
  6  8  1  0  0  0  0
  8  9  1  0  0  0  0
  8 26  1  0  0  0  0
  9 10  1  0  0  0  0
  9 27  1  0  0  0  0
  9 28  1  0  0  0  0
 10 11  1  0  0  0  0
 10 29  1  0  0  0  0
 10 30  1  0  0  0  0
 11 12  1  0  0  0  0
 11 31  1  0  0  0  0
 11 32  1  0  0  0  0
 12 13  1  0  0  0  0
 12 33  1  0  0  0  0
 12 34  1  0  0  0  0
 13 17  1  0  0  0  0
 13 14  1  0  0  0  0
 13 35  1  0  0  0  0
 14 15  1  0  0  0  0
 14 36  1  0  0  0  0
 14 37  1  0  0  0  0
 15 16  1  0  0  0  0
 15 38  1  0  0  0  0
 15 39  1  0  0  0  0
 16 17  1  0  0  0  0
 16 40  1  0  0  0  0
 16 41  1  0  0  0  0
 17 42  1  0  0  0  0
 17 43  1  0  0  0  0
 18 19  1  0  0  0  0
M  END
> <s_m_source_file>
AV-unprocessed.smi

> <i_m_source_file_index>
700

> <i_lp_mmshare_version>
43012

> <i_f3d_flags>
0

> <s_epik_input>
W0NIM11jMVtjSF1jKG5vMSlbQ0gyXUMoPU8pW05IXVtDSDJdW0NIMl1bQ0gyXVtDSDJdW0NIXTJbQ0gyXVtDSDJdW0NIMl1bQ0gyXTI=

> <s_epik_cmdline>
J2VwaWtfcHl0aG9uJywgJy1waCcsICc3LjAnLCAnLXRuJywgJzgnLCAnLW1hJywgJzIwMCcsICctbWV0YWxfYmluZGluZycsICctaW1hZScsICc8aW5maWxlLm1hZT4nLCAnLW9tYWUnLCAnPG91dGZpbGUubWFlPic=

> <r_lp_tautomer_probability>
1

> <r_epik_Ionization_Penalty>
7.08657e-08

> <r_epik_Ionization_Penalty_Charging>
0

> <r_epik_Ionization_Penalty_Neutral>
7.08657e-08

> <r_epik_State_Penalty>
-0

> <r_epik_Charging_Adjusted_Penalty>
0

> <i_epik_Tot_Q>
0

> <i_epik_Tot_abs_Q>
0

> <r_epik_Metal_State_Penalty>
-0

> <b_epik_Metal_Only>
0

> <s_lp_Force_Field>
OPLS_2005

> <r_lp_Energy>
19.5762

> <b_lp_Chiralities_Consistent>
1

> <s_lp_Variant>
AV-unprocessed.smi:700-1

> <Gold.Version>
5.8.1

> <Gold.Id.Protein>
6NUR|6NUR_protein|mol2

> <Gold.PLP.Fitness>
45.7161

> <Gold.PLP.PLP>
-41.0172

> <Gold.PLP.part.hbond>
-2.9701

> <Gold.PLP.part.metal>
0.0000

> <Gold.PLP.part.buried>
-3.7917

> <Gold.PLP.part.nonpolar>
-33.9544

> <Gold.PLP.part.repulsive>
0.1187

> <Gold.PLP.ligand.clash>
0.0000

> <Gold.PLP.ligand.torsion>
0.6679

> <Gold.PLP.Chemscore.Hbond>
1.9920

> <Gold.PLP.Chemscore.CHOScore>
0.0000

> <Gold.PLP.Chemscore.Metal>
0.0000

> <Gold.Chemscore.Hbonds>
donor molecule, donor type, donor heavy atom, donor atom, acceptor molecule, acceptor atom, score
      P1  H  6896  6909       L1    19  0.85
      P1  H 10752 10764       L1     7  1.00

> <Gold.PLP.Chemscore.Internal.Correction>
0.0588

> <Gold.Rescore>
     Score         DG    S(hbond)    S(metal)    S(lipo)     H(rot)  DE(clash)    DE(int)     intcor
     18.33     -19.84       1.79        0.00     112.01       1.84       0.13       1.37       ----

> <Gold.Chemscore.Fitness>
18.3342

> <Gold.Chemscore.DG>
-19.8398

> <Gold.Chemscore.ZeroCoef>
-5.4800

> <Gold.Chemscore.Hbond>
1.7857

> <Gold.Chemscore.Metal>
0.0000

> <Gold.Chemscore.Lipo>
112.0140

> <Gold.Chemscore.Internal_Hbond>
0.0000

> <Gold.Chemscore.DEClash>
0.1310

> <Gold.Chemscore.DEInternal>
1.3746

> <Gold.Chemscore.Rot>
1.8399

> <Gold.Chemscore.Internal.Correction>
   9.000000E+99

> <Gold.Chemscore.Hbonds>
donor molecule, donor type, donor heavy atom, donor atom, acceptor molecule, acceptor atom, score
      P1  H  6896  6909       L1    19  0.15
      P1  H 10752 10764       L1     7  0.90

> <Gold.Chemscore.Hbond.Weighted>
-5.9644

> <Gold.Chemscore.Metal.Weighted>
-0.0000

> <Gold.Chemscore.Lipo.Weighted>
-13.1056

> <Gold.Chemscore.Internal_Hbond.Weighted>
0.0000

> <Gold.Chemscore.DEClash.Weighted>
0.1310

> <Gold.Chemscore.DEInternal.Weighted>
1.3746

> <Gold.Chemscore.Rot.Weighted>
4.7103

> <Gold.Chemscore.Internal.Correction.Weighted>
   9.000000E+99

> <Gold.Protein.RotatedTorsions>
[ 6907 6896 6895 6894 ] final  -22.82 input  -60.11 | X-H torsion
[ 7974 7965 7964 7962 ] final  -65.84 input  175.53 | X-H torsion
[ 8008 7997 7996 7995 ] final -109.04 input   59.86 | X-H torsion
[ 10167 10162 10161 10158 ] final  175.38 input  -65.29 | X-H torsion
[ 10718 10713 10712 10709 ] final   94.18 input   66.30 | X-H torsion
[ 10763 10752 10751 10750 ] final  -53.69 input  -60.55 | X-H torsion
[ 11005 11000 10999 10996 ] final -102.46 input  -57.11 | X-H torsion

> <Gold.Protein.ActiveResidues>
 VAL166  LYS551  ARG553  GLY616  TRP617  ASP618  TYR619  PRO620  LYS621  CYS622 
 ASP623  PHE694  ASN695  SER759  ASP760  ASP761  ALA762  ILE779  LEU786  VAL792 
 PHE793  MET794  SER795  GLU796  ALA797  LYS798  CYS799  TRP800  GLU811  SER814 

> <Gold.Protein.RotatedAtoms>
  151.2130  135.0489  159.8918 H   0  0  0  0  0  0  0  0  0  0  0  0  # atno 6907 bound_to 6896
  152.5423  134.0724  159.8210 H   0  0  0  0  0  0  0  0  0  0  0  0  # atno 6908 bound_to 6896
  151.0880  133.5290  159.2648 H   0  0  0  0  0  0  0  0  0  0  0  0  # atno 6909 bound_to 6896
  145.7493  140.8916  143.0488 H   0  0  0  0  0  0  0  0  0  0  0  0  # atno 7974 bound_to 7965
  154.9534  140.0400  157.2155 H   0  0  0  0  0  0  0  0  0  0  0  0  # atno 8008 bound_to 7997
  154.7957  140.2843  155.5936 H   0  0  0  0  0  0  0  0  0  0  0  0  # atno 8009 bound_to 7997
  156.2955  140.2565  156.2814 H   0  0  0  0  0  0  0  0  0  0  0  0  # atno 8010 bound_to 7997
  139.5175  144.3038  152.0354 H   0  0  0  0  0  0  0  0  0  0  0  0  # atno 10167 bound_to 10162
  157.6950  131.0504  150.4148 H   0  0  0  0  0  0  0  0  0  0  0  0  # atno 10718 bound_to 10713
  154.1628  135.6472  153.4990 H   0  0  0  0  0  0  0  0  0  0  0  0  # atno 10763 bound_to 10752
  153.0106  135.5365  154.6693 H   0  0  0  0  0  0  0  0  0  0  0  0  # atno 10764 bound_to 10752
  154.6011  135.2944  155.0506 H   0  0  0  0  0  0  0  0  0  0  0  0  # atno 10765 bound_to 10752
  141.1188  133.8560  157.1362 H   0  0  0  0  0  0  0  0  0  0  0  0  # atno 11005 bound_to 11000
  144.6853  139.9569  143.7479 LP  0  0  0  0  0  0  0  0  0  0  0  0  # atno 17320 bound_to 7965
  146.0372  139.3389  143.0719 LP  0  0  0  0  0  0  0  0  0  0  0  0  # atno 17321 bound_to 7965
  140.2484  144.4195  150.6231 LP  0  0  0  0  0  0  0  0  0  0  0  0  # atno 17342 bound_to 10162
  140.6241  143.2179  151.6632 LP  0  0  0  0  0  0  0  0  0  0  0  0  # atno 17343 bound_to 10162
  156.4528  130.4015  149.6625 LP  0  0  0  0  0  0  0  0  0  0  0  0  # atno 17370 bound_to 10713
  156.3768  130.7559  151.2547 LP  0  0  0  0  0  0  0  0  0  0  0  0  # atno 17371 bound_to 10713
  140.0130  134.9980  157.0434 LP  0  0  0  0  0  0  0  0  0  0  0  0  # atno 17394 bound_to 11000
  140.4568  134.1525  155.7187 LP  0  0  0  0  0  0  0  0  0  0  0  0  # atno 17395 bound_to 11000

$$$$
