AV-unprocessed.smi:812|AV-procd|sdf|3816|dock8
  -GOLD-   22720 1253D 1   1.00000     0.00000
 Structure written by MMmdl.
 38 40  0  0  0  0  0  0  0  0  1 V2000
  154.0066  139.1101  160.6476 C   0  0  0  0  0  0  0  0  0  0  0  0
  153.2989  140.1968  159.9451 N   0  0  0  0  0  0  0  0  0  0  0  0
  152.6013  139.8883  158.8067 C   0  0  0  0  0  0  0  0  0  0  0  0
  152.5178  138.7609  158.3179 O   0  0  0  0  0  0  0  0  0  0  0  0
  151.9376  141.0404  158.1855 C   0  0  0  0  0  0  0  0  0  0  0  0
  152.0124  142.2963  158.6914 C   0  0  0  0  0  0  0  0  0  0  0  0
  151.3020  143.1988  157.9073 N   0  0  0  0  0  0  0  0  0  0  0  0
  150.8239  142.4144  156.9410 C   0  0  0  0  0  0  0  0  0  0  0  0
  151.1576  141.1113  157.0310 N   0  0  0  0  0  0  0  0  0  0  0  0
  150.7667  140.0623  156.1004 C   0  0  0  0  0  0  0  0  0  0  0  0
  150.0651  140.6127  154.8416 C   0  0  1  0  0  0  0  0  0  0  0  0
  150.0308  139.6305  153.8242 O   0  0  0  0  0  0  0  0  0  0  0  0
  148.6771  141.1394  155.1694 C   0  0  0  0  0  0  0  0  0  0  0  0
  148.1794  141.0699  156.4893 C   0  0  0  0  0  0  0  0  0  0  0  0
  146.8943  141.5611  156.7905 C   0  0  0  0  0  0  0  0  0  0  0  0
  146.1003  142.1266  155.7745 C   0  0  0  0  0  0  0  0  0  0  0  0
  144.8651  142.5993  156.0640 F   0  0  0  0  0  0  0  0  0  0  0  0
  146.5928  142.2015  154.4573 C   0  0  0  0  0  0  0  0  0  0  0  0
  147.8781  141.7104  154.1555 C   0  0  0  0  0  0  0  0  0  0  0  0
  152.7644  142.5043  159.8766 N   0  0  0  0  0  0  0  0  0  0  0  0
  152.8579  143.8562  160.4346 C   0  0  0  0  0  0  0  0  0  0  0  0
  153.4064  141.4618  160.4966 C   0  0  0  0  0  0  0  0  0  0  0  0
  154.0646  141.6576  161.5225 O   0  0  0  0  0  0  0  0  0  0  0  0
  153.8561  138.1160  160.2256 H   0  0  0  0  0  0  0  0  0  0  0  0
  153.6840  139.0513  161.6886 H   0  0  0  0  0  0  0  0  0  0  0  0
  155.0821  139.2941  160.6401 H   0  0  0  0  0  0  0  0  0  0  0  0
  150.2127  142.8010  156.1386 H   0  0  0  0  0  0  0  0  0  0  0  0
  151.6399  139.4672  155.8371 H   0  0  0  0  0  0  0  0  0  0  0  0
  150.0937  139.3828  156.6251 H   0  0  0  0  0  0  0  0  0  0  0  0
  150.6601  141.4388  154.4494 H   0  0  0  0  0  0  0  0  0  0  0  0
  149.7638  140.0436  153.0173 H   0  0  0  0  0  0  0  0  0  0  0  0
  148.7833  140.6399  157.2754 H   0  0  0  0  0  0  0  0  0  0  0  0
  146.5186  141.5045  157.8015 H   0  0  0  0  0  0  0  0  0  0  0  0
  145.9845  142.6363  153.6778 H   0  0  0  0  0  0  0  0  0  0  0  0
  148.2465  141.7744  153.1422 H   0  0  0  0  0  0  0  0  0  0  0  0
  152.4753  143.8775  161.4561 H   0  0  0  0  0  0  0  0  0  0  0  0
  152.2914  144.5902  159.8625 H   0  0  0  0  0  0  0  0  0  0  0  0
  153.8961  144.1902  160.4527 H   0  0  0  0  0  0  0  0  0  0  0  0
  1  2  1  0  0  0  0
  1 24  1  0  0  0  0
  1 25  1  0  0  0  0
  1 26  1  0  0  0  0
  2 22  1  0  0  0  0
  2  3  1  0  0  0  0
  3  4  2  0  0  0  0
  3  5  1  0  0  0  0
  5  9  1  0  0  0  0
  5  6  2  0  0  0  0
  6  7  1  0  0  0  0
  6 20  1  0  0  0  0
  7  8  2  0  0  0  0
  8  9  1  0  0  0  0
  8 27  1  0  0  0  0
  9 10  1  0  0  0  0
 10 11  1  0  0  0  0
 10 28  1  0  0  0  0
 10 29  1  0  0  0  0
 11 12  1  0  0  0  0
 11 13  1  0  0  0  0
 11 30  1  0  0  0  0
 12 31  1  0  0  0  0
 13 19  1  0  0  0  0
 13 14  2  0  0  0  0
 14 15  1  0  0  0  0
 14 32  1  0  0  0  0
 15 16  2  0  0  0  0
 15 33  1  0  0  0  0
 16 17  1  0  0  0  0
 16 18  1  0  0  0  0
 18 19  2  0  0  0  0
 18 34  1  0  0  0  0
 19 35  1  0  0  0  0
 20 21  1  0  0  0  0
 20 22  1  0  0  0  0
 21 36  1  0  0  0  0
 21 37  1  0  0  0  0
 21 38  1  0  0  0  0
 22 23  2  0  0  0  0
M  END
> <s_m_source_file>
AV-unprocessed.smi

> <i_m_source_file_index>
812

> <i_lp_mmshare_version>
43012

> <i_f3d_flags>
0

> <s_epik_input>
Tz1jMW4oW0NIM10pYyg9TyluKFtDSDNdKWMoYzEyKW5bY0hdbjJbQ0gyXVtDQEhdKFtPSF0pYzNbY0hdW2NIXWMoRilbY0hdW2NIXTM=

> <s_epik_cmdline>
J2VwaWtfcHl0aG9uJywgJy1waCcsICc3LjAnLCAnLXRuJywgJzgnLCAnLW1hJywgJzIwMCcsICctbWV0YWxfYmluZGluZycsICctaW1hZScsICc8aW5maWxlLm1hZT4nLCAnLW9tYWUnLCAnPG91dGZpbGUubWFlPic=

> <r_lp_tautomer_probability>
1

> <r_epik_Ionization_Penalty>
1.45649e-06

> <r_epik_Ionization_Penalty_Charging>
3.74189e-09

> <r_epik_Ionization_Penalty_Neutral>
1.45275e-06

> <r_epik_State_Penalty>
-0

> <r_epik_Charging_Adjusted_Penalty>
3.74189e-09

> <i_epik_Tot_Q>
0

> <i_epik_Tot_abs_Q>
0

> <r_epik_Metal_State_Penalty>
-0

> <b_epik_Metal_Only>
0

> <s_lp_Force_Field>
OPLS_2005

> <r_lp_Energy>
35.4349

> <b_lp_Chiralities_Consistent>
1

> <s_lp_Variant>
AV-unprocessed.smi:812-2

> <Gold.Version>
5.8.1

> <Gold.Id.Protein>
6NUR|6NUR_protein|mol2

> <Gold.PLP.Fitness>
50.2566

> <Gold.PLP.PLP>
-44.5610

> <Gold.PLP.part.hbond>
-2.4671

> <Gold.PLP.part.metal>
0.0000

> <Gold.PLP.part.buried>
-5.2648

> <Gold.PLP.part.nonpolar>
-36.9963

> <Gold.PLP.part.repulsive>
0.1012

> <Gold.PLP.ligand.clash>
0.0000

> <Gold.PLP.ligand.torsion>
0.1646

> <Gold.PLP.Chemscore.Hbond>
1.0000

> <Gold.PLP.Chemscore.CHOScore>
1.0000

> <Gold.PLP.Chemscore.Metal>
0.0000

> <Gold.Chemscore.Hbonds>
donor molecule, donor type, donor heavy atom, donor atom, acceptor molecule, acceptor atom, score
      L1  H    12    31       P1  7957  1.00
      L1  C     8    27       P1  8028  1.00

> <Gold.PLP.Chemscore.Internal.Correction>
0.0249

> <Gold.Rescore>
     Score         DG    S(hbond)    S(metal)    S(lipo)     H(rot)  DE(clash)    DE(int)     intcor
     10.16     -10.44       0.99        0.00      63.13       2.24       0.02       0.26       ----

> <Gold.Chemscore.Fitness>
10.1634

> <Gold.Chemscore.DG>
-10.4390

> <Gold.Chemscore.ZeroCoef>
-5.4800

> <Gold.Chemscore.Hbond>
0.9886

> <Gold.Chemscore.Metal>
0.0000

> <Gold.Chemscore.Lipo>
63.1263

> <Gold.Chemscore.Internal_Hbond>
0.0000

> <Gold.Chemscore.DEClash>
0.0174

> <Gold.Chemscore.DEInternal>
0.2582

> <Gold.Chemscore.Rot>
2.2377

> <Gold.Chemscore.Internal.Correction>
   9.000000E+99

> <Gold.Chemscore.Hbonds>
donor molecule, donor type, donor heavy atom, donor atom, acceptor molecule, acceptor atom, score
      L1  H    12    31       P1  7957  0.95

> <Gold.Chemscore.Hbond.Weighted>
-3.3019

> <Gold.Chemscore.Metal.Weighted>
-0.0000

> <Gold.Chemscore.Lipo.Weighted>
-7.3858

> <Gold.Chemscore.Internal_Hbond.Weighted>
0.0000

> <Gold.Chemscore.DEClash.Weighted>
0.0174

> <Gold.Chemscore.DEInternal.Weighted>
0.2582

> <Gold.Chemscore.Rot.Weighted>
5.7286

> <Gold.Chemscore.Internal.Correction.Weighted>
   9.000000E+99

> <Gold.Protein.RotatedTorsions>
[ 6907 6896 6895 6894 ] final  -38.64 input  -60.11 | X-H torsion
[ 7974 7965 7964 7962 ] final   46.91 input  175.53 | X-H torsion
[ 8008 7997 7996 7995 ] final   56.04 input   59.86 | X-H torsion
[ 10167 10162 10161 10158 ] final  -26.68 input  -65.29 | X-H torsion
[ 10718 10713 10712 10709 ] final  173.18 input   66.30 | X-H torsion
[ 10763 10752 10751 10750 ] final -110.97 input  -60.55 | X-H torsion
[ 11005 11000 10999 10996 ] final  106.53 input  -57.11 | X-H torsion

> <Gold.Protein.ActiveResidues>
 VAL166  LYS551  ARG553  GLY616  TRP617  ASP618  TYR619  PRO620  LYS621  CYS622 
 ASP623  PHE694  ASN695  SER759  ASP760  ASP761  ALA762  ILE779  LEU786  VAL792 
 PHE793  MET794  SER795  GLU796  ALA797  LYS798  CYS799  TRP800  GLU811  SER814 

> <Gold.Protein.RotatedAtoms>
  151.0000  134.9314  159.7947 H   0  0  0  0  0  0  0  0  0  0  0  0  # atno 6907 bound_to 6896
  152.5275  134.3167  159.9143 H   0  0  0  0  0  0  0  0  0  0  0  0  # atno 6908 bound_to 6896
  151.3173  133.4013  159.2686 H   0  0  0  0  0  0  0  0  0  0  0  0  # atno 6909 bound_to 6896
  146.0346  139.4805  142.9816 H   0  0  0  0  0  0  0  0  0  0  0  0  # atno 7974 bound_to 7965
  155.5110  140.3477  155.4388 H   0  0  0  0  0  0  0  0  0  0  0  0  # atno 8008 bound_to 7997
  156.0849  140.1396  156.9693 H   0  0  0  0  0  0  0  0  0  0  0  0  # atno 8009 bound_to 7997
  154.4601  140.0938  156.6845 H   0  0  0  0  0  0  0  0  0  0  0  0  # atno 8010 bound_to 7997
  140.7281  143.4158  151.1032 H   0  0  0  0  0  0  0  0  0  0  0  0  # atno 10167 bound_to 10162
  156.9681  131.0081  151.2912 H   0  0  0  0  0  0  0  0  0  0  0  0  # atno 10718 bound_to 10713
  154.8276  135.4545  154.0966 H   0  0  0  0  0  0  0  0  0  0  0  0  # atno 10763 bound_to 10752
  153.2267  135.6900  153.7943 H   0  0  0  0  0  0  0  0  0  0  0  0  # atno 10764 bound_to 10752
  153.7340  135.3322  155.3268 H   0  0  0  0  0  0  0  0  0  0  0  0  # atno 10765 bound_to 10752
  139.8815  134.9372  156.5681 H   0  0  0  0  0  0  0  0  0  0  0  0  # atno 11005 bound_to 11000
  145.6984  141.0143  143.1517 LP  0  0  0  0  0  0  0  0  0  0  0  0  # atno 17320 bound_to 7965
  144.7046  139.8616  143.7434 LP  0  0  0  0  0  0  0  0  0  0  0  0  # atno 17321 bound_to 7965
  139.7797  143.8373  152.3135 LP  0  0  0  0  0  0  0  0  0  0  0  0  # atno 17342 bound_to 10162
  139.8320  144.7249  150.9438 LP  0  0  0  0  0  0  0  0  0  0  0  0  # atno 17343 bound_to 10162
  157.5612  130.8247  149.8268 LP  0  0  0  0  0  0  0  0  0  0  0  0  # atno 17370 bound_to 10713
  156.0294  130.3769  150.1730 LP  0  0  0  0  0  0  0  0  0  0  0  0  # atno 17371 bound_to 10713
  140.8119  133.8422  155.8817 LP  0  0  0  0  0  0  0  0  0  0  0  0  # atno 17394 bound_to 11000
  140.9498  134.1793  157.4736 LP  0  0  0  0  0  0  0  0  0  0  0  0  # atno 17395 bound_to 11000

$$$$
