AV-unprocessed.smi:1033|AV-procd|sdf|4500|dock3
  -GOLD-   22720 2493D 1   1.00000     0.00000
 Structure written by MMmdl.
 57 59  0  0  0  0  0  0  0  0  3 V2000
  152.3948  142.2833  159.7661 C   0  0  0  0  0  0  0  0  0  0  0  0
  151.9768  141.5996  158.4754 C   0  0  0  0  0  0  0  0  0  0  0  0
  151.0670  142.2652  157.6234 C   0  0  0  0  0  0  0  0  0  0  0  0
  150.7025  141.6134  156.4513 C   0  0  0  0  0  0  0  0  0  0  0  0
  149.8397  141.9975  155.4228 N   0  3  0  0  0  0  0  0  0  0  0  0
  149.8000  141.0215  154.4743 C   0  0  0  0  0  0  0  0  0  0  0  0
  150.6232  140.0173  154.8824 N   0  0  0  0  0  0  0  0  0  0  0  0
  150.9452  138.7434  154.2225 C   0  0  0  0  0  0  0  0  0  0  0  0
  149.7255  137.8103  154.0874 C   0  0  2  0  0  0  0  0  0  0  0  0
  148.7126  138.4596  153.3440 O   0  0  0  0  0  0  0  0  0  0  0  0
  149.1540  137.4223  155.4661 C   0  0  0  0  0  0  0  0  0  0  0  0
  148.6707  136.0188  155.5187 N   0  3  0  0  0  0  0  0  0  0  0  0
  149.6909  135.0522  155.0360 C   0  0  0  0  0  0  0  0  0  0  0  0
  149.1722  133.6054  155.1703 C   0  0  0  0  0  0  0  0  0  0  0  0
  147.9091  133.3769  154.4690 N   0  0  0  0  0  0  0  0  0  0  0  0
  148.0667  133.3575  153.0073 C   0  0  0  0  0  0  0  0  0  0  0  0
  146.8631  132.8442  152.1848 C   0  0  1  0  0  0  0  0  0  0  0  0
  145.5625  133.6370  152.3879 C   0  0  0  0  0  0  0  0  0  0  0  0
  147.1894  132.7709  150.8119 O   0  0  0  0  0  0  0  0  0  0  0  0
  146.9242  134.3385  154.9702 C   0  0  0  0  0  0  0  0  0  0  0  0
  147.3738  135.8054  154.8219 C   0  0  0  0  0  0  0  0  0  0  0  0
  151.2103  140.3440  156.1115 C   0  0  0  0  0  0  0  0  0  0  0  0
  152.1079  139.6747  156.9405 C   0  0  0  0  0  0  0  0  0  0  0  0
  152.4906  140.3206  158.1380 C   0  0  0  0  0  0  0  0  0  0  0  0
  153.4670  139.6134  159.0626 C   0  0  0  0  0  0  0  0  0  0  0  0
  151.8950  143.2448  159.8884 H   0  0  0  0  0  0  0  0  0  0  0  0
  153.4700  142.4635  159.7732 H   0  0  0  0  0  0  0  0  0  0  0  0
  152.1412  141.6652  160.6276 H   0  0  0  0  0  0  0  0  0  0  0  0
  150.6720  143.2392  157.8735 H   0  0  0  0  0  0  0  0  0  0  0  0
  149.2215  141.0429  153.5615 H   0  0  0  0  0  0  0  0  0  0  0  0
  151.3328  138.9890  153.2328 H   0  0  0  0  0  0  0  0  0  0  0  0
  151.7630  138.2570  154.7552 H   0  0  0  0  0  0  0  0  0  0  0  0
  150.0334  136.9214  153.5380 H   0  0  0  0  0  0  0  0  0  0  0  0
  149.1143  139.1243  152.8048 H   0  0  0  0  0  0  0  0  0  0  0  0
  149.9015  137.5720  156.2465 H   0  0  0  0  0  0  0  0  0  0  0  0
  148.3310  138.0997  155.7006 H   0  0  0  0  0  0  0  0  0  0  0  0
  149.9573  135.2770  154.0025 H   0  0  0  0  0  0  0  0  0  0  0  0
  150.6023  135.1604  155.6250 H   0  0  0  0  0  0  0  0  0  0  0  0
  149.9279  132.9059  154.8114 H   0  0  0  0  0  0  0  0  0  0  0  0
  149.0368  133.3766  156.2283 H   0  0  0  0  0  0  0  0  0  0  0  0
  148.3754  134.3337  152.6337 H   0  0  0  0  0  0  0  0  0  0  0  0
  148.8988  132.6907  152.7774 H   0  0  0  0  0  0  0  0  0  0  0  0
  146.6740  131.8155  152.4932 H   0  0  0  0  0  0  0  0  0  0  0  0
  145.2943  133.6813  153.4438 H   0  0  0  0  0  0  0  0  0  0  0  0
  144.7334  133.1683  151.8569 H   0  0  0  0  0  0  0  0  0  0  0  0
  145.6491  134.6605  152.0223 H   0  0  0  0  0  0  0  0  0  0  0  0
  147.9287  132.1912  150.7086 H   0  0  0  0  0  0  0  0  0  0  0  0
  145.9618  134.1906  154.4831 H   0  0  0  0  0  0  0  0  0  0  0  0
  146.7424  134.1359  156.0267 H   0  0  0  0  0  0  0  0  0  0  0  0
  146.6060  136.4496  155.2481 H   0  0  0  0  0  0  0  0  0  0  0  0
  147.4622  136.0795  153.7700 H   0  0  0  0  0  0  0  0  0  0  0  0
  152.4980  138.6997  156.6886 H   0  0  0  0  0  0  0  0  0  0  0  0
  153.7845  138.6549  158.6508 H   0  0  0  0  0  0  0  0  0  0  0  0
  153.0061  139.4232  160.0321 H   0  0  0  0  0  0  0  0  0  0  0  0
  154.3593  140.2207  159.2155 H   0  0  0  0  0  0  0  0  0  0  0  0
  148.5205  135.8039  156.4945 H   0  0  0  0  0  0  0  0  0  0  0  0
  149.3183  142.8633  155.3680 H   0  0  0  0  0  0  0  0  0  0  0  0
  1  2  1  0  0  0  0
  1 26  1  0  0  0  0
  1 27  1  0  0  0  0
  1 28  1  0  0  0  0
  2 24  1  0  0  0  0
  2  3  2  0  0  0  0
  3  4  1  0  0  0  0
  3 29  1  0  0  0  0
  4 22  2  0  0  0  0
  4  5  1  0  0  0  0
  5  6  2  0  0  0  0
  5 57  1  0  0  0  0
  6  7  1  0  0  0  0
  6 30  1  0  0  0  0
  7  8  1  0  0  0  0
  7 22  1  0  0  0  0
  8  9  1  0  0  0  0
  8 31  1  0  0  0  0
  8 32  1  0  0  0  0
  9 10  1  0  0  0  0
  9 11  1  0  0  0  0
  9 33  1  0  0  0  0
 10 34  1  0  0  0  0
 11 12  1  0  0  0  0
 11 35  1  0  0  0  0
 11 36  1  0  0  0  0
 12 21  1  0  0  0  0
 12 13  1  0  0  0  0
 12 56  1  0  0  0  0
 13 14  1  0  0  0  0
 13 37  1  0  0  0  0
 13 38  1  0  0  0  0
 14 15  1  0  0  0  0
 14 39  1  0  0  0  0
 14 40  1  0  0  0  0
 15 16  1  0  0  0  0
 15 20  1  0  0  0  0
 16 17  1  0  0  0  0
 16 41  1  0  0  0  0
 16 42  1  0  0  0  0
 17 18  1  0  0  0  0
 17 19  1  0  0  0  0
 17 43  1  0  0  0  0
 18 44  1  0  0  0  0
 18 45  1  0  0  0  0
 18 46  1  0  0  0  0
 19 47  1  0  0  0  0
 20 21  1  0  0  0  0
 20 48  1  0  0  0  0
 20 49  1  0  0  0  0
 21 50  1  0  0  0  0
 21 51  1  0  0  0  0
 22 23  1  0  0  0  0
 23 24  2  0  0  0  0
 23 52  1  0  0  0  0
 24 25  1  0  0  0  0
 25 53  1  0  0  0  0
 25 54  1  0  0  0  0
 25 55  1  0  0  0  0
M  CHG  1   5   1
M  CHG  1  12   1
M  END
> <s_m_source_file>
AV-unprocessed.smi

> <i_m_source_file_index>
1033

> <i_lp_mmshare_version>
43012

> <i_f3d_flags>
0

> <s_epik_input>
W0NIM11jKFtjSF0xKWMoW0NIM10pW2NIXWMoYzEyKW4oW2NIXW4yKVtDSDJdW0NASF0oW09IXSlbQ0gyXU4zW0NIMl1bQ0gyXU4oW0NIMl1bQ0gyXTMpW0NIMl1bQ0BIXShbQ0gzXSlbT0hd

> <s_epik_cmdline>
J2VwaWtfcHl0aG9uJywgJy1waCcsICc3LjAnLCAnLXRuJywgJzgnLCAnLW1hJywgJzIwMCcsICctbWV0YWxfYmluZGluZycsICctaW1hZScsICc8aW5maWxlLm1hZT4nLCAnLW9tYWUnLCAnPG91dGZpbGUubWFlPic=

> <r_epik_Ionization_Penalty>
1.22049

> <r_epik_Ionization_Penalty_Charging>
1.17952

> <r_epik_Ionization_Penalty_Neutral>
0.0409743

> <r_epik_State_Penalty>
1.61468

> <r_epik_Charging_Adjusted_Penalty>
2.7942

> <i_epik_Tot_Q>
2

> <i_epik_Tot_abs_Q>
2

> <r_epik_Metal_State_Penalty>
5.63169

> <b_epik_Metal_Only>
0

> <s_lp_Force_Field>
OPLS_2005

> <r_lp_Energy>
46.6999

> <b_lp_Chiralities_Consistent>
1

> <s_lp_Variant>
AV-unprocessed.smi:1033-11

> <Gold.Version>
5.8.1

> <Gold.Id.Protein>
6NUR|6NUR_protein|mol2

> <Gold.PLP.Fitness>
53.3195

> <Gold.PLP.PLP>
-39.6872

> <Gold.PLP.part.hbond>
-3.7036

> <Gold.PLP.part.metal>
0.0000

> <Gold.PLP.part.buried>
2.2709

> <Gold.PLP.part.nonpolar>
-37.4368

> <Gold.PLP.part.repulsive>
0.2418

> <Gold.PLP.ligand.clash>
0.0000

> <Gold.PLP.ligand.torsion>
0.6508

> <Gold.PLP.Chemscore.Hbond>
4.0000

> <Gold.PLP.Chemscore.CHOScore>
0.9307

> <Gold.PLP.Chemscore.Metal>
0.0000

> <Gold.Chemscore.Hbonds>
donor molecule, donor type, donor heavy atom, donor atom, acceptor molecule, acceptor atom, score
      L1  H     5    57       P1  8028  2.00
      L1  H    10    34       P1  7957  1.00
      L1  H    19    47       P1 10747  1.00
      L1  C     6    30       P1  7957  0.76

> <Gold.PLP.Chemscore.Internal.Correction>
0.1418

> <Gold.Rescore>
     Score         DG    S(hbond)    S(metal)    S(lipo)     H(rot)  DE(clash)    DE(int)     intcor
     17.00     -18.58       2.86        0.00      99.09       3.15       0.78       0.79       ----

> <Gold.Chemscore.Fitness>
17.0036

> <Gold.Chemscore.DG>
-18.5791

> <Gold.Chemscore.ZeroCoef>
-5.4800

> <Gold.Chemscore.Hbond>
2.8638

> <Gold.Chemscore.Metal>
0.0000

> <Gold.Chemscore.Lipo>
99.0918

> <Gold.Chemscore.Internal_Hbond>
0.0000

> <Gold.Chemscore.DEClash>
0.7806

> <Gold.Chemscore.DEInternal>
0.7948

> <Gold.Chemscore.Rot>
3.1483

> <Gold.Chemscore.Internal.Correction>
   9.000000E+99

> <Gold.Chemscore.Hbonds>
donor molecule, donor type, donor heavy atom, donor atom, acceptor molecule, acceptor atom, score
      L1  H     5    57       P1  8028  0.99
      L1  H    10    34       P1  7957  0.98
      L1  H    19    47       P1 10747  1.00

> <Gold.Chemscore.Hbond.Weighted>
-9.5650

> <Gold.Chemscore.Metal.Weighted>
-0.0000

> <Gold.Chemscore.Lipo.Weighted>
-11.5937

> <Gold.Chemscore.Internal_Hbond.Weighted>
0.0000

> <Gold.Chemscore.DEClash.Weighted>
0.7806

> <Gold.Chemscore.DEInternal.Weighted>
0.7948

> <Gold.Chemscore.Rot.Weighted>
8.0597

> <Gold.Chemscore.Internal.Correction.Weighted>
   9.000000E+99

> <Gold.Protein.RotatedTorsions>
[ 6907 6896 6895 6894 ] final -159.51 input  -60.11 | X-H torsion
[ 7974 7965 7964 7962 ] final  -66.97 input  175.53 | X-H torsion
[ 8008 7997 7996 7995 ] final  150.15 input   59.86 | X-H torsion
[ 10167 10162 10161 10158 ] final  131.55 input  -65.29 | X-H torsion
[ 10718 10713 10712 10709 ] final -131.89 input   66.30 | X-H torsion
[ 10763 10752 10751 10750 ] final   72.01 input  -60.55 | X-H torsion
[ 11005 11000 10999 10996 ] final  -59.24 input  -57.11 | X-H torsion

> <Gold.Protein.ActiveResidues>
 VAL166  LYS551  ARG553  GLY616  TRP617  ASP618  TYR619  PRO620  LYS621  CYS622 
 ASP623  PHE694  ASN695  SER759  ASP760  ASP761  ALA762  ILE779  LEU786  VAL792 
 PHE793  MET794  SER795  GLU796  ALA797  LYS798  CYS799  TRP800  GLU811  SER814 

> <Gold.Protein.RotatedAtoms>
  151.3347  133.3986  159.2665 H   0  0  0  0  0  0  0  0  0  0  0  0  # atno 6907 bound_to 6896
  150.9927  134.9259  159.7919 H   0  0  0  0  0  0  0  0  0  0  0  0  # atno 6908 bound_to 6896
  152.5252  134.3311  159.9236 H   0  0  0  0  0  0  0  0  0  0  0  0  # atno 6909 bound_to 6896
  145.7351  140.8979  143.0559 H   0  0  0  0  0  0  0  0  0  0  0  0  # atno 7974 bound_to 7965
  156.2727  140.2082  156.5972 H   0  0  0  0  0  0  0  0  0  0  0  0  # atno 8008 bound_to 7997
  154.6936  140.0528  157.0411 H   0  0  0  0  0  0  0  0  0  0  0  0  # atno 8009 bound_to 7997
  155.0833  140.3189  155.4598 H   0  0  0  0  0  0  0  0  0  0  0  0  # atno 8010 bound_to 7997
  139.5379  144.6701  151.4723 H   0  0  0  0  0  0  0  0  0  0  0  0  # atno 10167 bound_to 10162
  156.2290  130.7026  151.0838 H   0  0  0  0  0  0  0  0  0  0  0  0  # atno 10718 bound_to 10713
  153.0433  135.5116  154.7679 H   0  0  0  0  0  0  0  0  0  0  0  0  # atno 10763 bound_to 10752
  154.6599  135.2937  154.9882 H   0  0  0  0  0  0  0  0  0  0  0  0  # atno 10764 bound_to 10752
  154.0736  135.6674  153.4880 H   0  0  0  0  0  0  0  0  0  0  0  0  # atno 10765 bound_to 10752
  141.1240  133.6615  156.5042 H   0  0  0  0  0  0  0  0  0  0  0  0  # atno 11005 bound_to 11000
  144.6883  139.9384  143.7474 LP  0  0  0  0  0  0  0  0  0  0  0  0  # atno 17320 bound_to 7965
  146.0501  139.3503  143.0645 LP  0  0  0  0  0  0  0  0  0  0  0  0  # atno 17321 bound_to 7965
  140.6595  143.8529  150.6872 LP  0  0  0  0  0  0  0  0  0  0  0  0  # atno 17342 bound_to 10162
  140.1919  143.4030  152.1857 LP  0  0  0  0  0  0  0  0  0  0  0  0  # atno 17343 bound_to 10162
  157.7124  131.0727  150.6452 LP  0  0  0  0  0  0  0  0  0  0  0  0  # atno 17370 bound_to 10713
  156.6519  130.4487  149.5716 LP  0  0  0  0  0  0  0  0  0  0  0  0  # atno 17371 bound_to 10713
  140.4421  134.7006  157.4997 LP  0  0  0  0  0  0  0  0  0  0  0  0  # atno 17394 bound_to 11000
  140.0222  134.6530  155.9224 LP  0  0  0  0  0  0  0  0  0  0  0  0  # atno 17395 bound_to 11000

$$$$
