AV-unprocessed.smi:199|AV-procd|sdf|1568|dock4
  -GOLD-   2262019443D 1   1.00000     0.00000
 Structure written by MMmdl.
 51 55  0  0  0  0  0  0  0  0  1 V2000
  152.1141  137.6346  157.7043 C   0  0  0  0  0  0  0  0  0  0  0  0
  152.1204  137.9156  156.1935 C   0  0  2  0  0  0  0  0  0  0  0  0
  151.6512  139.2466  155.9950 O   0  0  0  0  0  0  0  0  0  0  0  0
  151.0145  139.3206  154.7318 C   0  0  0  0  0  0  0  0  0  0  0  0
  150.2438  138.0104  154.6805 C   0  0  0  0  0  0  0  0  0  0  0  0
  151.2160  137.0130  155.3062 C   0  0  1  0  0  0  0  0  0  0  0  0
  152.0257  136.4868  154.2673 O   0  0  0  0  0  0  0  0  0  0  0  0
  150.5145  135.8248  156.0165 C   0  0  0  0  0  0  0  0  0  0  0  0
  149.4148  135.2594  155.2485 N   0  0  0  0  0  0  0  0  0  0  0  0
  149.3808  134.0222  154.6472 C   0  0  0  0  0  0  0  0  0  0  0  0
  148.2799  133.7475  154.0040 N   0  0  0  0  0  0  0  0  0  0  0  0
  147.4839  134.8730  154.1838 C   0  0  0  0  0  0  0  0  0  0  0  0
  146.1772  135.2520  153.7572 C   0  0  0  0  0  0  0  0  0  0  0  0
  145.3685  134.4685  152.9913 N   0  0  0  0  0  0  0  0  0  0  0  0
  144.0391  134.9216  152.6080 C   0  0  1  0  0  0  0  0  0  0  0  0
  144.3073  135.9802  151.5209 C   0  0  0  0  0  0  0  0  0  0  0  0
  145.5440  135.3892  150.8276 C   0  0  0  0  0  0  0  0  0  0  0  0
  145.7574  134.0897  151.6393 C   0  0  2  0  0  0  0  0  0  0  0  0
  144.6851  133.0301  151.3055 C   0  0  2  0  0  0  0  0  0  0  0  0
  144.5457  132.6390  149.8226 C   0  0  0  0  0  0  0  0  0  0  0  0
  143.3994  131.8348  149.6435 O   0  0  0  0  0  0  0  0  0  0  0  0
  143.4373  133.6699  151.9430 C   0  0  0  0  0  0  0  0  0  0  0  0
  145.7410  136.4885  154.1185 N   0  0  0  0  0  0  0  0  0  0  0  0
  146.5065  137.2885  154.8649 C   0  0  0  0  0  0  0  0  0  0  0  0
  147.7301  137.0617  155.3432 N   0  0  0  0  0  0  0  0  0  0  0  0
  148.1873  135.8336  154.9671 C   0  0  0  0  0  0  0  0  0  0  0  0
  152.4707  136.6282  157.9241 H   0  0  0  0  0  0  0  0  0  0  0  0
  151.1161  137.7458  158.1287 H   0  0  0  0  0  0  0  0  0  0  0  0
  152.7691  138.3328  158.2260 H   0  0  0  0  0  0  0  0  0  0  0  0
  153.1540  137.8787  155.8435 H   0  0  0  0  0  0  0  0  0  0  0  0
  150.3683  140.1952  154.6562 H   0  0  0  0  0  0  0  0  0  0  0  0
  151.7633  139.3701  153.9399 H   0  0  0  0  0  0  0  0  0  0  0  0
  149.3547  138.1096  155.3040 H   0  0  0  0  0  0  0  0  0  0  0  0
  149.9161  137.7405  153.6755 H   0  0  0  0  0  0  0  0  0  0  0  0
  151.4644  136.2210  153.5552 H   0  0  0  0  0  0  0  0  0  0  0  0
  151.2296  135.0268  156.2209 H   0  0  0  0  0  0  0  0  0  0  0  0
  150.1173  136.1377  156.9824 H   0  0  0  0  0  0  0  0  0  0  0  0
  150.2079  133.3289  154.6932 H   0  0  0  0  0  0  0  0  0  0  0  0
  143.4105  135.2895  153.4166 H   0  0  0  0  0  0  0  0  0  0  0  0
  143.4630  136.1128  150.8434 H   0  0  0  0  0  0  0  0  0  0  0  0
  144.5407  136.9485  151.9656 H   0  0  0  0  0  0  0  0  0  0  0  0
  145.4019  135.2250  149.7607 H   0  0  0  0  0  0  0  0  0  0  0  0
  146.3958  136.0611  150.9398 H   0  0  0  0  0  0  0  0  0  0  0  0
  146.7686  133.6901  151.5540 H   0  0  0  0  0  0  0  0  0  0  0  0
  144.9380  132.1298  151.8696 H   0  0  0  0  0  0  0  0  0  0  0  0
  144.4600  133.5145  149.1793 H   0  0  0  0  0  0  0  0  0  0  0  0
  145.4197  132.0746  149.4965 H   0  0  0  0  0  0  0  0  0  0  0  0
  142.7950  132.0109  150.3483 H   0  0  0  0  0  0  0  0  0  0  0  0
  143.0039  132.9999  152.6864 H   0  0  0  0  0  0  0  0  0  0  0  0
  142.6584  133.9173  151.2206 H   0  0  0  0  0  0  0  0  0  0  0  0
  146.0777  138.2482  155.1122 H   0  0  0  0  0  0  0  0  0  0  0  0
  1  2  1  0  0  0  0
  1 27  1  0  0  0  0
  1 28  1  0  0  0  0
  1 29  1  0  0  0  0
  2  6  1  0  0  0  0
  2  3  1  0  0  0  0
  2 30  1  0  0  0  0
  3  4  1  0  0  0  0
  4  5  1  0  0  0  0
  4 31  1  0  0  0  0
  4 32  1  0  0  0  0
  5  6  1  0  0  0  0
  5 33  1  0  0  0  0
  5 34  1  0  0  0  0
  6  7  1  0  0  0  0
  6  8  1  0  0  0  0
  7 35  1  0  0  0  0
  8  9  1  0  0  0  0
  8 36  1  0  0  0  0
  8 37  1  0  0  0  0
  9 26  1  0  0  0  0
  9 10  1  0  0  0  0
 10 11  2  0  0  0  0
 10 38  1  0  0  0  0
 11 12  1  0  0  0  0
 12 26  2  0  0  0  0
 12 13  1  0  0  0  0
 13 14  1  0  0  0  0
 13 23  2  0  0  0  0
 14 18  1  0  0  0  0
 14 15  1  0  0  0  0
 15 22  1  0  0  0  0
 15 16  1  0  0  0  0
 15 39  1  0  0  0  0
 16 17  1  0  0  0  0
 16 40  1  0  0  0  0
 16 41  1  0  0  0  0
 17 18  1  0  0  0  0
 17 42  1  0  0  0  0
 17 43  1  0  0  0  0
 18 19  1  0  0  0  0
 18 44  1  0  0  0  0
 19 20  1  0  0  0  0
 19 22  1  0  0  0  0
 19 45  1  0  0  0  0
 20 21  1  0  0  0  0
 20 46  1  0  0  0  0
 20 47  1  0  0  0  0
 21 48  1  0  0  0  0
 22 49  1  0  0  0  0
 22 50  1  0  0  0  0
 23 24  1  0  0  0  0
 24 25  2  0  0  0  0
 24 51  1  0  0  0  0
 25 26  1  0  0  0  0
M  END
> <s_m_source_file>
AV-unprocessed.smi

> <i_m_source_file_index>
199

> <i_lp_mmshare_version>
43012

> <i_f3d_flags>
0

> <s_epik_input>
W0NIMl0xW0NIMl1PW0NAQEhdKFtDSDNdKVtDQEBdMShbT0hdKVtDSDJdbihbY0hdbjIpYyhjMjMpbltjSF1uYzNOKFtDQEBIXTQ1KVtDQEhdKFtDSDJdW0NIMl00KVtDQEhdKFtDSDJdNSlbQ0gyXVtPSF0=

> <s_epik_cmdline>
J2VwaWtfcHl0aG9uJywgJy1waCcsICc3LjAnLCAnLXRuJywgJzgnLCAnLW1hJywgJzIwMCcsICctbWV0YWxfYmluZGluZycsICctaW1hZScsICc8aW5maWxlLm1hZT4nLCAnLW9tYWUnLCAnPG91dGZpbGUubWFlPic=

> <r_lp_tautomer_probability>
1

> <r_epik_Ionization_Penalty>
0.00583903

> <r_epik_Ionization_Penalty_Charging>
0

> <r_epik_Ionization_Penalty_Neutral>
0.00583903

> <r_epik_State_Penalty>
-0

> <r_epik_Charging_Adjusted_Penalty>
0

> <i_epik_Tot_Q>
0

> <i_epik_Tot_abs_Q>
0

> <r_epik_Metal_State_Penalty>
-0

> <b_epik_Metal_Only>
0

> <s_lp_Force_Field>
OPLS_2005

> <r_lp_Energy>
83.953

> <b_lp_Chiralities_Consistent>
1

> <s_lp_Variant>
AV-unprocessed.smi:199-9

> <Gold.Version>
5.8.1

> <Gold.Id.Protein>
6NUR|6NUR_protein|mol2

> <Gold.PLP.Fitness>
44.8181

> <Gold.PLP.PLP>
-36.6520

> <Gold.PLP.part.hbond>
-3.8667

> <Gold.PLP.part.metal>
0.0000

> <Gold.PLP.part.buried>
-4.6283

> <Gold.PLP.part.nonpolar>
-27.8746

> <Gold.PLP.part.repulsive>
0.4289

> <Gold.PLP.ligand.clash>
0.0000

> <Gold.PLP.ligand.torsion>
0.3149

> <Gold.PLP.Chemscore.Hbond>
2.9280

> <Gold.PLP.Chemscore.CHOScore>
0.0000

> <Gold.PLP.Chemscore.Metal>
0.0000

> <Gold.Chemscore.Hbonds>
donor molecule, donor type, donor heavy atom, donor atom, acceptor molecule, acceptor atom, score
      L1  H     7    35       P1  7949  0.82
      P1  H 10752 10764       L1     7  0.37
      P1  H 10785 10796       L1    21  1.00

> <Gold.PLP.Chemscore.Internal.Correction>
0.0118

> <Gold.Rescore>
     Score         DG    S(hbond)    S(metal)    S(lipo)     H(rot)  DE(clash)    DE(int)     intcor
     12.35     -14.31       2.21        0.00      79.65       3.07       0.36       1.59       ----

> <Gold.Chemscore.Fitness>
12.3514

> <Gold.Chemscore.DG>
-14.3052

> <Gold.Chemscore.ZeroCoef>
-5.4800

> <Gold.Chemscore.Hbond>
2.2076

> <Gold.Chemscore.Metal>
0.0000

> <Gold.Chemscore.Lipo>
79.6466

> <Gold.Chemscore.Internal_Hbond>
0.0000

> <Gold.Chemscore.DEClash>
0.3601

> <Gold.Chemscore.DEInternal>
1.5937

> <Gold.Chemscore.Rot>
3.0729

> <Gold.Chemscore.Internal.Correction>
   9.000000E+99

> <Gold.Chemscore.Hbonds>
donor molecule, donor type, donor heavy atom, donor atom, acceptor molecule, acceptor atom, score
      L1  H     7    35       P1  7949  0.60
      P1  H 10752 10764       L1     7  0.08
      P1  H 10785 10796       L1    21  0.92

> <Gold.Chemscore.Hbond.Weighted>
-7.3733

> <Gold.Chemscore.Metal.Weighted>
-0.0000

> <Gold.Chemscore.Lipo.Weighted>
-9.3186

> <Gold.Chemscore.Internal_Hbond.Weighted>
0.0000

> <Gold.Chemscore.DEClash.Weighted>
0.3601

> <Gold.Chemscore.DEInternal.Weighted>
1.5937

> <Gold.Chemscore.Rot.Weighted>
7.8667

> <Gold.Chemscore.Internal.Correction.Weighted>
   9.000000E+99

> <Gold.Protein.RotatedTorsions>
[ 6907 6896 6895 6894 ] final -140.68 input  -60.11 | X-H torsion
[ 7974 7965 7964 7962 ] final  102.37 input  175.53 | X-H torsion
[ 8008 7997 7996 7995 ] final -167.27 input   59.86 | X-H torsion
[ 10167 10162 10161 10158 ] final   16.40 input  -65.29 | X-H torsion
[ 10718 10713 10712 10709 ] final   31.33 input   66.30 | X-H torsion
[ 10763 10752 10751 10750 ] final  -94.58 input  -60.55 | X-H torsion
[ 11005 11000 10999 10996 ] final  -91.38 input  -57.11 | X-H torsion

> <Gold.Protein.ActiveResidues>
 VAL166  LYS551  ARG553  GLY616  TRP617  ASP618  TYR619  PRO620  LYS621  CYS622 
 ASP623  PHE694  ASN695  SER759  ASP760  ASP761  ALA762  ILE779  LEU786  VAL792 
 PHE793  MET794  SER795  GLU796  ALA797  LYS798  CYS799  TRP800  GLU811  SER814 

> <Gold.Protein.RotatedAtoms>
  151.0638  133.5522  159.2631 H   0  0  0  0  0  0  0  0  0  0  0  0  # atno 6907 bound_to 6896
  151.2487  135.0614  159.9063 H   0  0  0  0  0  0  0  0  0  0  0  0  # atno 6908 bound_to 6896
  152.5401  134.0402  159.8118 H   0  0  0  0  0  0  0  0  0  0  0  0  # atno 6909 bound_to 6896
  145.3600  139.2420  143.3512 H   0  0  0  0  0  0  0  0  0  0  0  0  # atno 7974 bound_to 7965
  155.8754  140.1000  157.1522 H   0  0  0  0  0  0  0  0  0  0  0  0  # atno 8008 bound_to 7997
  154.4000  140.1339  156.4193 H   0  0  0  0  0  0  0  0  0  0  0  0  # atno 8009 bound_to 7997
  155.7703  140.3461  155.5246 H   0  0  0  0  0  0  0  0  0  0  0  0  # atno 8010 bound_to 7997
  140.5800  143.8999  150.6782 H   0  0  0  0  0  0  0  0  0  0  0  0  # atno 10167 bound_to 10162
  157.2711  130.7208  149.6505 H   0  0  0  0  0  0  0  0  0  0  0  0  # atno 10718 bound_to 10713
  154.7068  135.5152  153.8607 H   0  0  0  0  0  0  0  0  0  0  0  0  # atno 10763 bound_to 10752
  153.0748  135.6613  154.0179 H   0  0  0  0  0  0  0  0  0  0  0  0  # atno 10764 bound_to 10752
  154.0028  135.3009  155.3380 H   0  0  0  0  0  0  0  0  0  0  0  0  # atno 10765 bound_to 10752
  141.1546  133.7752  156.9871 H   0  0  0  0  0  0  0  0  0  0  0  0  # atno 11005 bound_to 11000
  146.2931  140.4232  142.8732 LP  0  0  0  0  0  0  0  0  0  0  0  0  # atno 17320 bound_to 7965
  144.8653  140.7198  143.6081 LP  0  0  0  0  0  0  0  0  0  0  0  0  # atno 17321 bound_to 7965
  140.2496  143.3603  152.1417 LP  0  0  0  0  0  0  0  0  0  0  0  0  # atno 17342 bound_to 10162
  139.5164  144.6977  151.5582 LP  0  0  0  0  0  0  0  0  0  0  0  0  # atno 17343 bound_to 10162
  155.9663  130.4367  150.5146 LP  0  0  0  0  0  0  0  0  0  0  0  0  # atno 17370 bound_to 10713
  157.3070  131.0656  151.2028 LP  0  0  0  0  0  0  0  0  0  0  0  0  # atno 17371 bound_to 10713
  140.1027  134.9525  157.1948 LP  0  0  0  0  0  0  0  0  0  0  0  0  # atno 17394 bound_to 11000
  140.3297  134.2824  155.7230 LP  0  0  0  0  0  0  0  0  0  0  0  0  # atno 17395 bound_to 11000

$$$$
