AV-unprocessed.smi:3340|AV-procd|sdf|12882|dock4
  -GOLD-   2272019283D 1   1.00000     0.00000
 Structure written by MMmdl.
 41 42  0  0  0  0  0  0  0  0  1 V2000
  154.2341  143.5610  162.0060 C   0  0  0  0  0  0  0  0  0  0  0  0
  153.3088  143.7846  160.8078 C   0  0  0  0  0  0  0  0  0  0  0  0
  152.5949  144.7880  160.8101 O   0  0  0  0  0  0  0  0  0  0  0  0
  153.3034  142.8840  159.7954 N   0  0  0  0  0  0  0  0  0  0  0  0
  152.4105  142.9996  158.6321 C   0  0  0  0  0  0  0  0  0  0  0  0
  151.4510  141.7929  158.6125 C   0  0  0  0  0  0  0  0  0  0  0  0
  152.2471  140.5515  158.5586 N   0  0  0  0  0  0  0  0  0  0  0  0
  152.3117  139.6767  157.5228 C   0  0  0  0  0  0  0  0  0  0  0  0
  153.2198  138.8551  157.3938 O   0  0  0  0  0  0  0  0  0  0  0  0
  151.2874  139.7610  156.6536 N   0  0  0  0  0  0  0  0  0  0  0  0
  151.0527  138.9439  155.4595 C   0  0  1  0  0  0  0  0  0  0  0  0
  150.2110  137.6975  155.7838 C   0  0  0  0  0  0  0  0  0  0  0  0
  150.4679  139.7576  154.2829 C   0  0  0  0  0  0  0  0  0  0  0  0
  149.0838  140.1344  154.5037 N   0  0  0  0  0  0  0  0  0  0  0  0
  147.9641  139.6291  153.8559 C   0  0  0  0  0  0  0  0  0  0  0  0
  146.8742  140.2764  154.3925 C   0  0  0  0  0  0  0  0  0  0  0  0
  147.2974  141.1801  155.3645 N   0  0  0  0  0  0  0  0  0  0  0  0
  148.6170  141.0419  155.3720 C   0  0  0  0  0  0  0  0  0  0  0  0
  153.1250  140.4383  159.7335 C   0  0  0  0  0  0  0  0  0  0  0  0
  154.0900  141.6407  159.7549 C   0  0  0  0  0  0  0  0  0  0  0  0
  153.9955  142.6239  162.5096 H   0  0  0  0  0  0  0  0  0  0  0  0
  154.1228  144.3660  162.7332 H   0  0  0  0  0  0  0  0  0  0  0  0
  155.2776  143.5406  161.6903 H   0  0  0  0  0  0  0  0  0  0  0  0
  151.8309  143.9236  158.6336 H   0  0  0  0  0  0  0  0  0  0  0  0
  153.0087  143.0222  157.7200 H   0  0  0  0  0  0  0  0  0  0  0  0
  150.8422  141.7852  159.5179 H   0  0  0  0  0  0  0  0  0  0  0  0
  150.7452  141.9072  157.7903 H   0  0  0  0  0  0  0  0  0  0  0  0
  150.5875  140.4620  156.8483 H   0  0  0  0  0  0  0  0  0  0  0  0
  152.0375  138.5876  155.1550 H   0  0  0  0  0  0  0  0  0  0  0  0
  150.1566  137.0308  154.9229 H   0  0  0  0  0  0  0  0  0  0  0  0
  149.1890  137.9572  156.0598 H   0  0  0  0  0  0  0  0  0  0  0  0
  150.6465  137.1319  156.6082 H   0  0  0  0  0  0  0  0  0  0  0  0
  151.0450  140.6721  154.1410 H   0  0  0  0  0  0  0  0  0  0  0  0
  150.5365  139.2066  153.3444 H   0  0  0  0  0  0  0  0  0  0  0  0
  148.0342  138.8695  153.0911 H   0  0  0  0  0  0  0  0  0  0  0  0
  145.8265  140.1616  154.1561 H   0  0  0  0  0  0  0  0  0  0  0  0
  149.2592  141.6108  156.0280 H   0  0  0  0  0  0  0  0  0  0  0  0
  152.5162  140.4247  160.6387 H   0  0  0  0  0  0  0  0  0  0  0  0
  153.6976  139.5101  159.7472 H   0  0  0  0  0  0  0  0  0  0  0  0
  154.7094  141.6407  158.8566 H   0  0  0  0  0  0  0  0  0  0  0  0
  154.7819  141.5322  160.5885 H   0  0  0  0  0  0  0  0  0  0  0  0
  1  2  1  0  0  0  0
  1 21  1  0  0  0  0
  1 22  1  0  0  0  0
  1 23  1  0  0  0  0
  2  3  2  0  0  0  0
  2  4  1  0  0  0  0
  4 20  1  0  0  0  0
  4  5  1  0  0  0  0
  5  6  1  0  0  0  0
  5 24  1  0  0  0  0
  5 25  1  0  0  0  0
  6  7  1  0  0  0  0
  6 26  1  0  0  0  0
  6 27  1  0  0  0  0
  7  8  1  0  0  0  0
  7 19  1  0  0  0  0
  8  9  2  0  0  0  0
  8 10  1  0  0  0  0
 10 11  1  0  0  0  0
 10 28  1  0  0  0  0
 11 12  1  0  0  0  0
 11 13  1  0  0  0  0
 11 29  1  0  0  0  0
 12 30  1  0  0  0  0
 12 31  1  0  0  0  0
 12 32  1  0  0  0  0
 13 14  1  0  0  0  0
 13 33  1  0  0  0  0
 13 34  1  0  0  0  0
 14 18  1  0  0  0  0
 14 15  1  0  0  0  0
 15 16  2  0  0  0  0
 15 35  1  0  0  0  0
 16 17  1  0  0  0  0
 16 36  1  0  0  0  0
 17 18  2  0  0  0  0
 18 37  1  0  0  0  0
 19 20  1  0  0  0  0
 19 38  1  0  0  0  0
 19 39  1  0  0  0  0
 20 40  1  0  0  0  0
 20 41  1  0  0  0  0
M  END
> <s_m_source_file>
AV-unprocessed.smi

> <i_m_source_file_index>
3340

> <i_lp_mmshare_version>
43012

> <i_f3d_flags>
0

> <s_epik_input>
W0NIM11DKD1PKU4xW0NIMl1bQ0gyXU4oW0NIMl1bQ0gyXTEpQyg9TylbTkhdW0NASF0oW0NIM10pW0NIMl1uMltjSF1bY0hdbltjSF0y

> <s_epik_cmdline>
J2VwaWtfcHl0aG9uJywgJy1waCcsICc3LjAnLCAnLXRuJywgJzgnLCAnLW1hJywgJzIwMCcsICctbWV0YWxfYmluZGluZycsICctaW1hZScsICc8aW5maWxlLm1hZT4nLCAnLW9tYWUnLCAnPG91dGZpbGUubWFlPic=

> <r_lp_tautomer_probability>
1

> <r_epik_Ionization_Penalty>
0.622948

> <r_epik_Ionization_Penalty_Charging>
0.622904

> <r_epik_Ionization_Penalty_Neutral>
4.39259e-05

> <r_epik_State_Penalty>
0.639086

> <r_epik_Charging_Adjusted_Penalty>
1.26199

> <i_epik_Tot_Q>
0

> <i_epik_Tot_abs_Q>
0

> <r_epik_Metal_State_Penalty>
0.307185

> <b_epik_Metal_Only>
0

> <s_lp_Force_Field>
OPLS_2005

> <r_lp_Energy>
50.7734

> <b_lp_Chiralities_Consistent>
1

> <s_lp_Variant>
AV-unprocessed.smi:3340-4

> <Gold.Version>
5.8.1

> <Gold.Id.Protein>
6NUR|6NUR_protein|mol2

> <Gold.PLP.Fitness>
41.7051

> <Gold.PLP.PLP>
-33.3771

> <Gold.PLP.part.hbond>
-1.4346

> <Gold.PLP.part.metal>
0.0000

> <Gold.PLP.part.buried>
1.7441

> <Gold.PLP.part.nonpolar>
-32.6881

> <Gold.PLP.part.repulsive>
0.3030

> <Gold.PLP.ligand.clash>
0.0000

> <Gold.PLP.ligand.torsion>
0.6133

> <Gold.PLP.Chemscore.Hbond>
1.0000

> <Gold.PLP.Chemscore.CHOScore>
2.1603

> <Gold.PLP.Chemscore.Metal>
0.0000

> <Gold.Chemscore.Hbonds>
donor molecule, donor type, donor heavy atom, donor atom, acceptor molecule, acceptor atom, score
      P1  H  7997  8009       L1     9  0.75
      L1  C    15    35       P1  7957  0.23
      L1  C    16    36       P1 10175  0.47

> <Gold.PLP.Chemscore.Internal.Correction>
0.0736

> <Gold.Rescore>
     Score         DG    S(hbond)    S(metal)    S(lipo)     H(rot)  DE(clash)    DE(int)     intcor
     10.22     -13.07       0.96        0.00      73.61       1.65       2.27       0.57       ----

> <Gold.Chemscore.Fitness>
10.2229

> <Gold.Chemscore.DG>
-13.0669

> <Gold.Chemscore.ZeroCoef>
-5.4800

> <Gold.Chemscore.Hbond>
0.9554

> <Gold.Chemscore.Metal>
0.0000

> <Gold.Chemscore.Lipo>
73.6123

> <Gold.Chemscore.Internal_Hbond>
0.0000

> <Gold.Chemscore.DEClash>
2.2710

> <Gold.Chemscore.DEInternal>
0.5731

> <Gold.Chemscore.Rot>
1.6471

> <Gold.Chemscore.Internal.Correction>
   9.000000E+99

> <Gold.Chemscore.Hbonds>
donor molecule, donor type, donor heavy atom, donor atom, acceptor molecule, acceptor atom, score
      P1  H  7997  8009       L1     9  0.09

> <Gold.Chemscore.Hbond.Weighted>
-3.1909

> <Gold.Chemscore.Metal.Weighted>
-0.0000

> <Gold.Chemscore.Lipo.Weighted>
-8.6126

> <Gold.Chemscore.Internal_Hbond.Weighted>
0.0000

> <Gold.Chemscore.DEClash.Weighted>
2.2710

> <Gold.Chemscore.DEInternal.Weighted>
0.5731

> <Gold.Chemscore.Rot.Weighted>
4.2166

> <Gold.Chemscore.Internal.Correction.Weighted>
   9.000000E+99

> <Gold.Protein.RotatedTorsions>
[ 6907 6896 6895 6894 ] final  140.17 input  -60.11 | X-H torsion
[ 7974 7965 7964 7962 ] final    5.24 input  175.53 | X-H torsion
[ 8008 7997 7996 7995 ] final  174.25 input   59.86 | X-H torsion
[ 10167 10162 10161 10158 ] final   85.97 input  -65.29 | X-H torsion
[ 10718 10713 10712 10709 ] final -161.99 input   66.30 | X-H torsion
[ 10763 10752 10751 10750 ] final   52.51 input  -60.55 | X-H torsion
[ 11005 11000 10999 10996 ] final   95.30 input  -57.11 | X-H torsion

> <Gold.Protein.ActiveResidues>
 VAL166  LYS551  ARG553  GLY616  TRP617  ASP618  TYR619  PRO620  LYS621  CYS622 
 ASP623  PHE694  ASN695  SER759  ASP760  ASP761  ALA762  ILE779  LEU786  VAL792 
 PHE793  MET794  SER795  GLU796  ALA797  LYS798  CYS799  TRP800  GLU811  SER814 

> <Gold.Protein.RotatedAtoms>
  152.2463  133.5177  159.5298 H   0  0  0  0  0  0  0  0  0  0  0  0  # atno 6907 bound_to 6896
  150.7079  134.1021  159.3978 H   0  0  0  0  0  0  0  0  0  0  0  0  # atno 6908 bound_to 6896
  151.8941  135.0404  160.0551 H   0  0  0  0  0  0  0  0  0  0  0  0  # atno 6909 bound_to 6896
  146.2441  140.0413  142.8382 H   0  0  0  0  0  0  0  0  0  0  0  0  # atno 7974 bound_to 7965
  156.0993  140.1439  156.9489 H   0  0  0  0  0  0  0  0  0  0  0  0  # atno 8008 bound_to 7997
  154.4692  140.0916  156.7145 H   0  0  0  0  0  0  0  0  0  0  0  0  # atno 8009 bound_to 7997
  155.4787  140.3444  155.4339 H   0  0  0  0  0  0  0  0  0  0  0  0  # atno 8010 bound_to 7997
  139.8923  144.6378  150.8726 H   0  0  0  0  0  0  0  0  0  0  0  0  # atno 10167 bound_to 10162
  156.6041  130.8823  151.2921 H   0  0  0  0  0  0  0  0  0  0  0  0  # atno 10718 bound_to 10713
  152.9789  135.5810  154.4590 H   0  0  0  0  0  0  0  0  0  0  0  0  # atno 10763 bound_to 10752
  154.4168  135.2771  155.2003 H   0  0  0  0  0  0  0  0  0  0  0  0  # atno 10764 bound_to 10752
  154.3769  135.6155  153.5824 H   0  0  0  0  0  0  0  0  0  0  0  0  # atno 10765 bound_to 10752
  139.8790  134.8891  156.3991 H   0  0  0  0  0  0  0  0  0  0  0  0  # atno 11005 bound_to 11000
  145.1067  140.9379  143.4681 LP  0  0  0  0  0  0  0  0  0  0  0  0  # atno 17320 bound_to 7965
  145.0618  139.3100  143.5877 LP  0  0  0  0  0  0  0  0  0  0  0  0  # atno 17321 bound_to 7965
  140.7724  143.3501  151.2032 LP  0  0  0  0  0  0  0  0  0  0  0  0  # atno 17342 bound_to 10162
  139.7099  143.9394  152.2943 LP  0  0  0  0  0  0  0  0  0  0  0  0  # atno 17343 bound_to 10162
  157.7272  130.9639  150.1688 LP  0  0  0  0  0  0  0  0  0  0  0  0  # atno 17370 bound_to 10713
  156.2445  130.3694  149.8301 LP  0  0  0  0  0  0  0  0  0  0  0  0  # atno 17371 bound_to 10713
  140.9279  133.7599  155.9988 LP  0  0  0  0  0  0  0  0  0  0  0  0  # atno 17394 bound_to 11000
  140.8364  134.3118  157.5330 LP  0  0  0  0  0  0  0  0  0  0  0  0  # atno 17395 bound_to 11000

$$$$
