AV-unprocessed.smi:311|AV-procd|sdf|2299|dock7
  -GOLD-   2262022203D 1   1.00000     0.00000
 Structure written by MMmdl.
 44 46  0  0  0  0  0  0  0  0  2 V2000
  148.5298  135.6544  155.3210 C   0  0  0  0  0  0  0  0  0  0  0  0
  149.1108  134.4488  156.0019 C   0  0  0  0  0  0  0  0  0  0  0  0
  149.2903  134.4606  157.3120 N   0  0  0  0  0  0  0  0  0  0  0  0
  149.8447  133.2184  157.6345 O   0  0  0  0  0  0  0  0  0  0  0  0
  149.9763  132.4978  156.4923 C   0  0  0  0  0  0  0  0  0  0  0  0
  150.5691  131.1362  156.6282 C   0  0  0  0  0  0  0  0  0  0  0  0
  149.5286  133.2183  155.4186 C   0  0  0  0  0  0  0  0  0  0  0  0
  149.4942  132.8265  153.9636 C   0  0  0  0  0  0  0  0  0  0  0  0
  148.0630  132.9610  153.4470 C   0  0  0  0  0  0  0  0  0  0  0  0
  147.2560  132.0489  153.6238 O   0  0  0  0  0  0  0  0  0  0  0  0
  147.7524  134.1205  152.8477 N   0  0  0  0  0  0  0  0  0  0  0  0
  146.4139  134.5099  152.4186 C   0  0  2  0  0  0  0  0  0  0  0  0
  145.4254  134.6718  153.5863 C   0  0  0  0  0  0  0  0  0  0  0  0
  144.0800  134.1334  153.0586 C   0  0  0  0  0  0  0  0  0  0  0  0
  144.3270  133.7686  151.6499 N   0  3  2  0  0  0  0  0  0  0  0  0
  143.4513  132.7346  151.0566 C   0  0  0  0  0  0  0  0  0  0  0  0
  143.8143  132.5522  149.5689 C   0  0  0  0  0  0  0  0  0  0  0  0
  145.3186  132.2707  149.3764 C   0  0  0  0  0  0  0  0  0  0  0  0
  146.1792  133.3291  150.0928 C   0  0  0  0  0  0  0  0  0  0  0  0
  145.7537  133.4235  151.5675 C   0  0  1  0  0  0  0  0  0  0  0  0
  149.0798  135.8906  154.4100 H   0  0  0  0  0  0  0  0  0  0  0  0
  148.5620  136.5356  155.9624 H   0  0  0  0  0  0  0  0  0  0  0  0
  147.4896  135.4813  155.0456 H   0  0  0  0  0  0  0  0  0  0  0  0
  150.2144  130.4756  155.8372 H   0  0  0  0  0  0  0  0  0  0  0  0
  150.3027  130.6882  157.5857 H   0  0  0  0  0  0  0  0  0  0  0  0
  151.6562  131.1837  156.5670 H   0  0  0  0  0  0  0  0  0  0  0  0
  150.1644  133.4472  153.3673 H   0  0  0  0  0  0  0  0  0  0  0  0
  149.8250  131.7978  153.8170 H   0  0  0  0  0  0  0  0  0  0  0  0
  148.4855  134.8069  152.7407 H   0  0  0  0  0  0  0  0  0  0  0  0
  146.4413  135.4473  151.8584 H   0  0  0  0  0  0  0  0  0  0  0  0
  145.7380  134.0898  154.4545 H   0  0  0  0  0  0  0  0  0  0  0  0
  145.3527  135.7139  153.8999 H   0  0  0  0  0  0  0  0  0  0  0  0
  143.7809  133.2530  153.6297 H   0  0  0  0  0  0  0  0  0  0  0  0
  143.2801  134.8710  153.1300 H   0  0  0  0  0  0  0  0  0  0  0  0
  143.5681  131.7936  151.5965 H   0  0  0  0  0  0  0  0  0  0  0  0
  142.4082  133.0370  151.1556 H   0  0  0  0  0  0  0  0  0  0  0  0
  143.2245  131.7433  149.1366 H   0  0  0  0  0  0  0  0  0  0  0  0
  143.5458  133.4553  149.0191 H   0  0  0  0  0  0  0  0  0  0  0  0
  145.5555  131.2824  149.7728 H   0  0  0  0  0  0  0  0  0  0  0  0
  145.5635  132.2440  148.3142 H   0  0  0  0  0  0  0  0  0  0  0  0
  147.2340  133.0627  150.0168 H   0  0  0  0  0  0  0  0  0  0  0  0
  146.0634  134.2976  149.6045 H   0  0  0  0  0  0  0  0  0  0  0  0
  145.9031  132.4539  152.0486 H   0  0  0  0  0  0  0  0  0  0  0  0
  144.2069  134.6128  151.1083 H   0  0  0  0  0  0  0  0  0  0  0  0
  1  2  1  0  0  0  0
  1 21  1  0  0  0  0
  1 22  1  0  0  0  0
  1 23  1  0  0  0  0
  2  7  1  0  0  0  0
  2  3  2  0  0  0  0
  3  4  1  0  0  0  0
  4  5  1  0  0  0  0
  5  6  1  0  0  0  0
  5  7  2  0  0  0  0
  6 24  1  0  0  0  0
  6 25  1  0  0  0  0
  6 26  1  0  0  0  0
  7  8  1  0  0  0  0
  8  9  1  0  0  0  0
  8 27  1  0  0  0  0
  8 28  1  0  0  0  0
  9 10  2  0  0  0  0
  9 11  1  0  0  0  0
 11 12  1  0  0  0  0
 11 29  1  0  0  0  0
 12 20  1  0  0  0  0
 12 13  1  0  0  0  0
 12 30  1  0  0  0  0
 13 14  1  0  0  0  0
 13 31  1  0  0  0  0
 13 32  1  0  0  0  0
 14 15  1  0  0  0  0
 14 33  1  0  0  0  0
 14 34  1  0  0  0  0
 15 20  1  0  0  0  0
 15 16  1  0  0  0  0
 15 44  1  0  0  0  0
 16 17  1  0  0  0  0
 16 35  1  0  0  0  0
 16 36  1  0  0  0  0
 17 18  1  0  0  0  0
 17 37  1  0  0  0  0
 17 38  1  0  0  0  0
 18 19  1  0  0  0  0
 18 39  1  0  0  0  0
 18 40  1  0  0  0  0
 19 20  1  0  0  0  0
 19 41  1  0  0  0  0
 19 42  1  0  0  0  0
 20 43  1  0  0  0  0
M  CHG  1  15   1
M  END
> <s_m_source_file>
AV-unprocessed.smi

> <i_m_source_file_index>
311

> <i_lp_mmshare_version>
43012

> <i_f3d_flags>
0

> <s_epik_input>
W0NIM11jMW5vYyhbQ0gzXSljMVtDSDJdQyg9TylbTkhdW0NASF0oW0NIMl1bQ0gyXTIpW0NAQEhdKE4yMylbQ0gyXVtDSDJdW0NIMl1bQ0gyXTM=

> <s_epik_cmdline>
J2VwaWtfcHl0aG9uJywgJy1waCcsICc3LjAnLCAnLXRuJywgJzgnLCAnLW1hJywgJzIwMCcsICctbWV0YWxfYmluZGluZycsICctaW1hZScsICc8aW5maWxlLm1hZT4nLCAnLW9tYWUnLCAnPG91dGZpbGUubWFlPic=

> <r_epik_Ionization_Penalty>
0.00173669

> <r_epik_Ionization_Penalty_Charging>
0.0017366

> <r_epik_Ionization_Penalty_Neutral>
9.2145e-08

> <r_epik_State_Penalty>
0.00117499

> <r_epik_Charging_Adjusted_Penalty>
0.00291159

> <i_epik_Tot_Q>
1

> <i_epik_Tot_abs_Q>
1

> <r_epik_Metal_State_Penalty>
-0

> <b_epik_Metal_Only>
0

> <s_lp_Force_Field>
OPLS_2005

> <r_lp_Energy>
27.517

> <b_lp_Chiralities_Consistent>
1

> <s_lp_Variant>
AV-unprocessed.smi:311-3

> <Gold.Version>
5.8.1

> <Gold.Id.Protein>
6NUR|6NUR_protein|mol2

> <Gold.PLP.Fitness>
33.7713

> <Gold.PLP.PLP>
-28.7337

> <Gold.PLP.part.hbond>
-1.9949

> <Gold.PLP.part.metal>
0.0000

> <Gold.PLP.part.buried>
-1.2799

> <Gold.PLP.part.nonpolar>
-25.0916

> <Gold.PLP.part.repulsive>
0.0750

> <Gold.PLP.ligand.clash>
0.0000

> <Gold.PLP.ligand.torsion>
0.4047

> <Gold.PLP.Chemscore.Hbond>
1.9440

> <Gold.PLP.Chemscore.CHOScore>
0.0000

> <Gold.PLP.Chemscore.Metal>
0.0000

> <Gold.Chemscore.Hbonds>
donor molecule, donor type, donor heavy atom, donor atom, acceptor molecule, acceptor atom, score
      L1  H    11    29       P1  7948  0.88
      P1  H  6896  6908       L1     4  1.00

> <Gold.PLP.Chemscore.Internal.Correction>
0.0150

> <Gold.Rescore>
     Score         DG    S(hbond)    S(metal)    S(lipo)     H(rot)  DE(clash)    DE(int)     intcor
     15.44     -17.21       1.77        0.00      79.56       1.36       0.22       1.55       ----

> <Gold.Chemscore.Fitness>
15.4419

> <Gold.Chemscore.DG>
-17.2112

> <Gold.Chemscore.ZeroCoef>
-5.4800

> <Gold.Chemscore.Hbond>
1.7651

> <Gold.Chemscore.Metal>
0.0000

> <Gold.Chemscore.Lipo>
79.5620

> <Gold.Chemscore.Internal_Hbond>
0.0000

> <Gold.Chemscore.DEClash>
0.2162

> <Gold.Chemscore.DEInternal>
1.5531

> <Gold.Chemscore.Rot>
1.3567

> <Gold.Chemscore.Internal.Correction>
   9.000000E+99

> <Gold.Chemscore.Hbonds>
donor molecule, donor type, donor heavy atom, donor atom, acceptor molecule, acceptor atom, score
      L1  H    11    29       P1  7948  0.30
      P1  H  6896  6908       L1     4  0.25

> <Gold.Chemscore.Hbond.Weighted>
-5.8955

> <Gold.Chemscore.Metal.Weighted>
-0.0000

> <Gold.Chemscore.Lipo.Weighted>
-9.3088

> <Gold.Chemscore.Internal_Hbond.Weighted>
0.0000

> <Gold.Chemscore.DEClash.Weighted>
0.2162

> <Gold.Chemscore.DEInternal.Weighted>
1.5531

> <Gold.Chemscore.Rot.Weighted>
3.4731

> <Gold.Chemscore.Internal.Correction.Weighted>
   9.000000E+99

> <Gold.Protein.RotatedTorsions>
[ 6907 6896 6895 6894 ] final  112.97 input  -60.11 | X-H torsion
[ 7974 7965 7964 7962 ] final -150.50 input  175.53 | X-H torsion
[ 8008 7997 7996 7995 ] final  134.61 input   59.86 | X-H torsion
[ 10167 10162 10161 10158 ] final  163.91 input  -65.29 | X-H torsion
[ 10718 10713 10712 10709 ] final  149.16 input   66.30 | X-H torsion
[ 10763 10752 10751 10750 ] final  -67.09 input  -60.55 | X-H torsion
[ 11005 11000 10999 10996 ] final  -70.43 input  -57.11 | X-H torsion

> <Gold.Protein.ActiveResidues>
 VAL166  LYS551  ARG553  GLY616  TRP617  ASP618  TYR619  PRO620  LYS621  CYS622 
 ASP623  PHE694  ASN695  SER759  ASP760  ASP761  ALA762  ILE779  LEU786  VAL792 
 PHE793  MET794  SER795  GLU796  ALA797  LYS798  CYS799  TRP800  GLU811  SER814 

> <Gold.Protein.RotatedAtoms>
  152.4887  133.8441  159.7167 H   0  0  0  0  0  0  0  0  0  0  0  0  # atno 6907 bound_to 6896
  150.8996  133.7126  159.2889 H   0  0  0  0  0  0  0  0  0  0  0  0  # atno 6908 bound_to 6896
  151.4571  135.1039  159.9766 H   0  0  0  0  0  0  0  0  0  0  0  0  # atno 6909 bound_to 6896
  144.7904  140.4924  143.5777 H   0  0  0  0  0  0  0  0  0  0  0  0  # atno 7974 bound_to 7965
  156.3000  140.2492  156.3445 H   0  0  0  0  0  0  0  0  0  0  0  0  # atno 8008 bound_to 7997
  154.9024  140.0406  157.1920 H   0  0  0  0  0  0  0  0  0  0  0  0  # atno 8009 bound_to 7997
  154.8488  140.2902  155.5616 H   0  0  0  0  0  0  0  0  0  0  0  0  # atno 8010 bound_to 7997
  139.4881  144.4289  151.9095 H   0  0  0  0  0  0  0  0  0  0  0  0  # atno 10167 bound_to 10162
  157.2996  131.0868  151.1400 H   0  0  0  0  0  0  0  0  0  0  0  0  # atno 10718 bound_to 10713
  154.3694  135.6098  153.5732 H   0  0  0  0  0  0  0  0  0  0  0  0  # atno 10763 bound_to 10752
  152.9790  135.5834  154.4539 H   0  0  0  0  0  0  0  0  0  0  0  0  # atno 10764 bound_to 10752
  154.4291  135.2847  155.1902 H   0  0  0  0  0  0  0  0  0  0  0  0  # atno 10765 bound_to 10752
  141.1574  133.6790  156.6752 H   0  0  0  0  0  0  0  0  0  0  0  0  # atno 11005 bound_to 11000
  145.5809  139.1489  143.3235 LP  0  0  0  0  0  0  0  0  0  0  0  0  # atno 17320 bound_to 7965
  146.2154  140.5939  142.9041 LP  0  0  0  0  0  0  0  0  0  0  0  0  # atno 17321 bound_to 7965
  140.3736  144.2824  150.5917 LP  0  0  0  0  0  0  0  0  0  0  0  0  # atno 17342 bound_to 10162
  140.5297  143.2246  151.8259 LP  0  0  0  0  0  0  0  0  0  0  0  0  # atno 17343 bound_to 10162
  157.2764  130.6729  149.6044 LP  0  0  0  0  0  0  0  0  0  0  0  0  # atno 17370 bound_to 10713
  155.9671  130.4463  150.5536 LP  0  0  0  0  0  0  0  0  0  0  0  0  # atno 17371 bound_to 10713
  140.3145  134.8059  157.4203 LP  0  0  0  0  0  0  0  0  0  0  0  0  # atno 17394 bound_to 11000
  140.1150  134.5295  155.8232 LP  0  0  0  0  0  0  0  0  0  0  0  0  # atno 17395 bound_to 11000

$$$$
