AV-unprocessed.smi:2529|AV-procd|sdf|9961|dock2
  -GOLD-   2272014 03D 1   1.00000     0.00000
 Structure written by MMmdl.
 44 46  0  0  0  0  0  0  0  0  1 V2000
  146.6108  137.0098  154.6959 C   0  0  0  0  0  0  0  0  0  0  0  0
  146.6038  138.5450  154.7166 C   0  0  2  0  0  0  0  0  0  0  0  0
  147.1984  139.1266  153.4219 C   0  0  0  0  0  0  0  0  0  0  0  0
  147.1917  140.6656  153.4402 C   0  0  0  0  0  0  0  0  0  0  0  0
  147.9244  141.2608  154.6672 C   0  0  2  0  0  0  0  0  0  0  0  0
  147.5670  142.6305  154.6593 O   0  0  0  0  0  0  0  0  0  0  0  0
  149.4754  141.1961  154.4893 C   0  0  0  0  0  0  0  0  0  0  0  0
  150.2576  141.1489  155.7432 N   0  0  0  0  0  0  0  0  0  0  0  0
  149.9024  142.0908  156.7299 C   0  0  0  0  0  0  0  0  0  0  0  0
  150.5026  142.1443  157.8757 N   0  0  0  0  0  0  0  0  0  0  0  0
  151.5476  141.2575  158.1550 C   0  0  0  0  0  0  0  0  0  0  0  0
  152.1849  141.3305  159.5356 C   0  0  0  0  0  0  0  0  0  0  0  0
  152.9475  142.6269  159.8555 C   0  0  0  0  0  0  0  0  0  0  0  0
  153.9821  141.7616  160.5839 C   0  0  0  0  0  0  0  0  0  0  0  0
  153.5236  140.5920  159.7057 C   0  0  0  0  0  0  0  0  0  0  0  0
  151.9497  140.3558  157.2290 C   0  0  0  0  0  0  0  0  0  0  0  0
  151.3059  140.2887  155.9172 C   0  0  0  0  0  0  0  0  0  0  0  0
  151.6873  139.5131  155.0412 O   0  0  0  0  0  0  0  0  0  0  0  0
  147.3579  140.6341  155.9672 C   0  0  0  0  0  0  0  0  0  0  0  0
  147.3548  139.0953  155.9418 C   0  0  0  0  0  0  0  0  0  0  0  0
  147.6267  136.6190  154.6274 H   0  0  0  0  0  0  0  0  0  0  0  0
  146.0482  136.6263  153.8442 H   0  0  0  0  0  0  0  0  0  0  0  0
  146.1580  136.6021  155.6001 H   0  0  0  0  0  0  0  0  0  0  0  0
  145.5640  138.8680  154.7856 H   0  0  0  0  0  0  0  0  0  0  0  0
  148.2132  138.7548  153.2795 H   0  0  0  0  0  0  0  0  0  0  0  0
  146.6257  138.7746  152.5631 H   0  0  0  0  0  0  0  0  0  0  0  0
  147.6265  141.0481  152.5157 H   0  0  0  0  0  0  0  0  0  0  0  0
  146.1508  140.9944  153.4400 H   0  0  0  0  0  0  0  0  0  0  0  0
  148.3381  143.1433  154.8478 H   0  0  0  0  0  0  0  0  0  0  0  0
  149.7239  140.3302  153.8768 H   0  0  0  0  0  0  0  0  0  0  0  0
  149.8156  142.0370  153.8809 H   0  0  0  0  0  0  0  0  0  0  0  0
  149.0911  142.7684  156.4598 H   0  0  0  0  0  0  0  0  0  0  0  0
  151.4747  141.0718  160.3231 H   0  0  0  0  0  0  0  0  0  0  0  0
  153.3622  143.1171  158.9726 H   0  0  0  0  0  0  0  0  0  0  0  0
  152.4092  143.3292  160.4927 H   0  0  0  0  0  0  0  0  0  0  0  0
  155.0188  142.0652  160.4362 H   0  0  0  0  0  0  0  0  0  0  0  0
  153.7466  141.6166  161.6396 H   0  0  0  0  0  0  0  0  0  0  0  0
  153.4544  139.6331  160.2197 H   0  0  0  0  0  0  0  0  0  0  0  0
  154.1031  140.5157  158.7836 H   0  0  0  0  0  0  0  0  0  0  0  0
  152.7552  139.6719  157.4535 H   0  0  0  0  0  0  0  0  0  0  0  0
  147.8904  140.9950  156.8472 H   0  0  0  0  0  0  0  0  0  0  0  0
  146.3263  140.9644  156.1000 H   0  0  0  0  0  0  0  0  0  0  0  0
  146.8946  138.7211  156.8569 H   0  0  0  0  0  0  0  0  0  0  0  0
  148.3745  138.7171  155.9411 H   0  0  0  0  0  0  0  0  0  0  0  0
  1  2  1  0  0  0  0
  1 21  1  0  0  0  0
  1 22  1  0  0  0  0
  1 23  1  0  0  0  0
  2 20  1  0  0  0  0
  2  3  1  0  0  0  0
  2 24  1  0  0  0  0
  3  4  1  0  0  0  0
  3 25  1  0  0  0  0
  3 26  1  0  0  0  0
  4  5  1  0  0  0  0
  4 27  1  0  0  0  0
  4 28  1  0  0  0  0
  5  6  1  0  0  0  0
  5  7  1  0  0  0  0
  5 19  1  0  0  0  0
  6 29  1  0  0  0  0
  7  8  1  0  0  0  0
  7 30  1  0  0  0  0
  7 31  1  0  0  0  0
  8 17  1  0  0  0  0
  8  9  1  0  0  0  0
  9 10  2  0  0  0  0
  9 32  1  0  0  0  0
 10 11  1  0  0  0  0
 11 12  1  0  0  0  0
 11 16  2  0  0  0  0
 12 15  1  0  0  0  0
 12 13  1  0  0  0  0
 12 33  1  0  0  0  0
 13 14  1  0  0  0  0
 13 34  1  0  0  0  0
 13 35  1  0  0  0  0
 14 15  1  0  0  0  0
 14 36  1  0  0  0  0
 14 37  1  0  0  0  0
 15 38  1  0  0  0  0
 15 39  1  0  0  0  0
 16 17  1  0  0  0  0
 16 40  1  0  0  0  0
 17 18  2  0  0  0  0
 19 20  1  0  0  0  0
 19 41  1  0  0  0  0
 19 42  1  0  0  0  0
 20 43  1  0  0  0  0
 20 44  1  0  0  0  0
M  END
> <s_m_source_file>
AV-unprocessed.smi

> <i_m_source_file_index>
2529

> <i_lp_mmshare_version>
43012

> <i_f3d_flags>
0

> <s_epik_input>
W0NIMl0xW0NIMl1bQ0BIXShbQ0gzXSlbQ0gyXVtDSDJdW0NAQF0xKFtPSF0pW0NIMl1uMltjSF1uYyhbY0hdYzI9TylbQ0hdM1tDSDJdW0NIMl1bQ0gyXTM=

> <s_epik_cmdline>
J2VwaWtfcHl0aG9uJywgJy1waCcsICc3LjAnLCAnLXRuJywgJzgnLCAnLW1hJywgJzIwMCcsICctbWV0YWxfYmluZGluZycsICctaW1hZScsICc8aW5maWxlLm1hZT4nLCAnLW9tYWUnLCAnPG91dGZpbGUubWFlPic=

> <r_lp_tautomer_probability>
1

> <r_epik_Ionization_Penalty>
9.15498e-05

> <r_epik_Ionization_Penalty_Charging>
1.67865e-07

> <r_epik_Ionization_Penalty_Neutral>
9.13819e-05

> <r_epik_State_Penalty>
-0

> <r_epik_Charging_Adjusted_Penalty>
1.67865e-07

> <i_epik_Tot_Q>
0

> <i_epik_Tot_abs_Q>
0

> <r_epik_Metal_State_Penalty>
-0

> <b_epik_Metal_Only>
0

> <s_lp_Force_Field>
OPLS_2005

> <r_lp_Energy>
33.1946

> <b_lp_Chiralities_Consistent>
1

> <s_lp_Variant>
AV-unprocessed.smi:2529-2

> <Gold.Version>
5.8.1

> <Gold.Id.Protein>
6NUR|6NUR_protein|mol2

> <Gold.PLP.Fitness>
44.0846

> <Gold.PLP.PLP>
-36.5210

> <Gold.PLP.part.hbond>
-2.0000

> <Gold.PLP.part.metal>
0.0000

> <Gold.PLP.part.buried>
-2.7012

> <Gold.PLP.part.nonpolar>
-31.5991

> <Gold.PLP.part.repulsive>
0.1073

> <Gold.PLP.ligand.clash>
0.0000

> <Gold.PLP.ligand.torsion>
0.9526

> <Gold.PLP.Chemscore.Hbond>
2.0000

> <Gold.PLP.Chemscore.CHOScore>
1.0000

> <Gold.PLP.Chemscore.Metal>
0.0000

> <Gold.Chemscore.Hbonds>
donor molecule, donor type, donor heavy atom, donor atom, acceptor molecule, acceptor atom, score
      L1  H     6    29       P1  8028  0.82
      P1  H  7989  7998       L1    18  0.81
      L1  C     9    32       P1  8028  1.00

> <Gold.PLP.Chemscore.Internal.Correction>
0.4688

> <Gold.Rescore>
     Score         DG    S(hbond)    S(metal)    S(lipo)     H(rot)  DE(clash)    DE(int)     intcor
     15.28     -16.20       1.62        0.00      84.56       1.80       0.08       0.84       ----

> <Gold.Chemscore.Fitness>
15.2838

> <Gold.Chemscore.DG>
-16.1990

> <Gold.Chemscore.ZeroCoef>
-5.4800

> <Gold.Chemscore.Hbond>
1.6244

> <Gold.Chemscore.Metal>
0.0000

> <Gold.Chemscore.Lipo>
84.5582

> <Gold.Chemscore.Internal_Hbond>
0.0000

> <Gold.Chemscore.DEClash>
0.0765

> <Gold.Chemscore.DEInternal>
0.8387

> <Gold.Chemscore.Rot>
1.7968

> <Gold.Chemscore.Internal.Correction>
   9.000000E+99

> <Gold.Chemscore.Hbonds>
donor molecule, donor type, donor heavy atom, donor atom, acceptor molecule, acceptor atom, score
      L1  H     6    29       P1  8028  0.81
      P1  H  7989  7998       L1    18  0.13

> <Gold.Chemscore.Hbond.Weighted>
-5.4254

> <Gold.Chemscore.Metal.Weighted>
-0.0000

> <Gold.Chemscore.Lipo.Weighted>
-9.8933

> <Gold.Chemscore.Internal_Hbond.Weighted>
0.0000

> <Gold.Chemscore.DEClash.Weighted>
0.0765

> <Gold.Chemscore.DEInternal.Weighted>
0.8387

> <Gold.Chemscore.Rot.Weighted>
4.5997

> <Gold.Chemscore.Internal.Correction.Weighted>
   9.000000E+99

> <Gold.Protein.RotatedTorsions>
[ 6907 6896 6895 6894 ] final  -77.90 input  -60.11 | X-H torsion
[ 7974 7965 7964 7962 ] final -140.27 input  175.53 | X-H torsion
[ 8008 7997 7996 7995 ] final  156.30 input   59.86 | X-H torsion
[ 10167 10162 10161 10158 ] final -120.70 input  -65.29 | X-H torsion
[ 10718 10713 10712 10709 ] final   39.65 input   66.30 | X-H torsion
[ 10763 10752 10751 10750 ] final  152.49 input  -60.55 | X-H torsion
[ 11005 11000 10999 10996 ] final  111.17 input  -57.11 | X-H torsion

> <Gold.Protein.ActiveResidues>
 VAL166  LYS551  ARG553  GLY616  TRP617  ASP618  TYR619  PRO620  LYS621  CYS622 
 ASP623  PHE694  ASN695  SER759  ASP760  ASP761  ALA762  ILE779  LEU786  VAL792 
 PHE793  MET794  SER795  GLU796  ALA797  LYS798  CYS799  TRP800  GLU811  SER814 

> <Gold.Protein.RotatedAtoms>
  150.6986  134.4353  159.5266 H   0  0  0  0  0  0  0  0  0  0  0  0  # atno 6907 bound_to 6896
  152.2073  134.8531  160.0510 H   0  0  0  0  0  0  0  0  0  0  0  0  # atno 6908 bound_to 6896
  151.9429  133.3608  159.4009 H   0  0  0  0  0  0  0  0  0  0  0  0  # atno 6909 bound_to 6896
  144.8610  140.6220  143.5328 H   0  0  0  0  0  0  0  0  0  0  0  0  # atno 7974 bound_to 7965
  156.2430  140.1916  156.6934 H   0  0  0  0  0  0  0  0  0  0  0  0  # atno 8008 bound_to 7997
  154.6235  140.0605  156.9670 H   0  0  0  0  0  0  0  0  0  0  0  0  # atno 8009 bound_to 7997
  155.1824  140.3277  155.4375 H   0  0  0  0  0  0  0  0  0  0  0  0  # atno 8010 bound_to 7997
  140.0330  143.5229  152.2167 H   0  0  0  0  0  0  0  0  0  0  0  0  # atno 10167 bound_to 10162
  157.3730  130.7712  149.7134 H   0  0  0  0  0  0  0  0  0  0  0  0  # atno 10718 bound_to 10713
  154.1209  135.2833  155.3209 H   0  0  0  0  0  0  0  0  0  0  0  0  # atno 10763 bound_to 10752
  154.6424  135.5398  153.7808 H   0  0  0  0  0  0  0  0  0  0  0  0  # atno 10764 bound_to 10752
  153.0313  135.6489  154.1363 H   0  0  0  0  0  0  0  0  0  0  0  0  # atno 10765 bound_to 10752
  139.8898  134.9501  156.6392 H   0  0  0  0  0  0  0  0  0  0  0  0  # atno 11005 bound_to 11000
  145.4312  139.1549  143.4021 LP  0  0  0  0  0  0  0  0  0  0  0  0  # atno 17320 bound_to 7965
  146.2860  140.4428  142.8757 LP  0  0  0  0  0  0  0  0  0  0  0  0  # atno 17321 bound_to 7965
  139.6064  144.7597  151.3053 LP  0  0  0  0  0  0  0  0  0  0  0  0  # atno 17342 bound_to 10162
  140.7294  143.6909  150.7922 LP  0  0  0  0  0  0  0  0  0  0  0  0  # atno 17343 bound_to 10162
  155.9759  130.4082  150.3813 LP  0  0  0  0  0  0  0  0  0  0  0  0  # atno 17370 bound_to 10713
  157.1907  131.0414  151.2701 LP  0  0  0  0  0  0  0  0  0  0  0  0  # atno 17371 bound_to 10713
  140.7607  133.8820  155.8416 LP  0  0  0  0  0  0  0  0  0  0  0  0  # atno 17394 bound_to 11000
  140.9924  134.1260  157.4395 LP  0  0  0  0  0  0  0  0  0  0  0  0  # atno 17395 bound_to 11000

$$$$
