AV-unprocessed.smi:2855|AV-procd|sdf|10981|dock10
  -GOLD-   2272015433D 1   1.00000     0.00000
 Structure written by MMmdl.
 47 48  0  0  0  0  0  0  0  0  1 V2000
  154.5911  140.1980  162.1740 C   0  0  0  0  0  0  0  0  0  0  0  0
  154.1015  141.5127  161.5502 C   0  0  2  0  0  0  0  0  0  0  0  0
  153.2163  142.3049  162.5272 C   0  0  0  0  0  0  0  0  0  0  0  0
  152.7287  143.6227  161.9055 C   0  0  0  0  0  0  0  0  0  0  0  0
  151.9636  143.3885  160.5814 C   0  0  1  0  0  0  0  0  0  0  0  0
  151.3684  144.6945  159.9727 C   0  0  0  0  0  0  0  0  0  0  0  0
  149.9116  144.5585  159.4930 C   0  0  0  0  0  0  0  0  0  0  0  0
  152.2536  145.2819  158.8603 C   0  0  0  0  0  0  0  0  0  0  0  0
  152.8527  142.5789  159.5965 C   0  0  2  0  0  0  0  0  0  0  0  0
  152.1203  142.2636  158.3712 N   0  0  0  0  0  0  0  0  0  0  0  0
  151.1391  141.3558  158.2516 C   0  0  0  0  0  0  0  0  0  0  0  0
  150.6897  140.7104  159.1994 O   0  0  0  0  0  0  0  0  0  0  0  0
  150.5744  141.1538  156.8395 C   0  0  0  0  0  0  0  0  0  0  0  0
  150.6722  139.7571  156.3916 N   0  0  0  0  0  0  0  0  0  0  0  0
  151.0218  138.7551  157.2857 C   0  0  0  0  0  0  0  0  0  0  0  0
  151.1405  137.4523  156.9360 C   0  0  0  0  0  0  0  0  0  0  0  0
  150.8988  137.0316  155.5599 C   0  0  0  0  0  0  0  0  0  0  0  0
  150.9791  135.8769  155.1468 O   0  0  0  0  0  0  0  0  0  0  0  0
  150.5521  138.0688  154.6901 N   0  0  0  0  0  0  0  0  0  0  0  0
  150.4294  139.4135  155.0432 C   0  0  0  0  0  0  0  0  0  0  0  0
  150.1214  140.2501  154.1947 O   0  0  0  0  0  0  0  0  0  0  0  0
  153.3447  141.2648  160.2335 C   0  0  0  0  0  0  0  0  0  0  0  0
  150.3772  137.8258  153.7259 H   0  0  0  0  0  0  0  0  0  0  0  0
  153.7565  139.5434  162.4264 H   0  0  0  0  0  0  0  0  0  0  0  0
  155.1566  140.3840  163.0875 H   0  0  0  0  0  0  0  0  0  0  0  0
  155.2433  139.6571  161.4876 H   0  0  0  0  0  0  0  0  0  0  0  0
  154.9813  142.1175  161.3253 H   0  0  0  0  0  0  0  0  0  0  0  0
  152.3562  141.7014  162.8210 H   0  0  0  0  0  0  0  0  0  0  0  0
  153.7698  142.5179  163.4424 H   0  0  0  0  0  0  0  0  0  0  0  0
  152.0962  144.1337  162.6302 H   0  0  0  0  0  0  0  0  0  0  0  0
  153.5876  144.2717  161.7334 H   0  0  0  0  0  0  0  0  0  0  0  0
  151.1116  142.7502  160.8224 H   0  0  0  0  0  0  0  0  0  0  0  0
  151.3653  145.4506  160.7577 H   0  0  0  0  0  0  0  0  0  0  0  0
  149.8213  143.8552  158.6655 H   0  0  0  0  0  0  0  0  0  0  0  0
  149.5292  145.5187  159.1458 H   0  0  0  0  0  0  0  0  0  0  0  0
  149.2509  144.2246  160.2920 H   0  0  0  0  0  0  0  0  0  0  0  0
  152.2517  144.6593  157.9659 H   0  0  0  0  0  0  0  0  0  0  0  0
  153.2865  145.3909  159.1923 H   0  0  0  0  0  0  0  0  0  0  0  0
  151.9008  146.2707  158.5661 H   0  0  0  0  0  0  0  0  0  0  0  0
  153.7368  143.1740  159.3636 H   0  0  0  0  0  0  0  0  0  0  0  0
  152.4118  142.7496  157.5358 H   0  0  0  0  0  0  0  0  0  0  0  0
  149.5353  141.4853  156.8399 H   0  0  0  0  0  0  0  0  0  0  0  0
  151.0864  141.8068  156.1292 H   0  0  0  0  0  0  0  0  0  0  0  0
  151.2151  139.0204  158.3154 H   0  0  0  0  0  0  0  0  0  0  0  0
  151.4169  136.7175  157.6783 H   0  0  0  0  0  0  0  0  0  0  0  0
  153.9946  140.7397  159.5319 H   0  0  0  0  0  0  0  0  0  0  0  0
  152.4958  140.6046  160.4191 H   0  0  0  0  0  0  0  0  0  0  0  0
  1  2  1  0  0  0  0
  1 24  1  0  0  0  0
  1 25  1  0  0  0  0
  1 26  1  0  0  0  0
  2 22  1  0  0  0  0
  2  3  1  0  0  0  0
  2 27  1  0  0  0  0
  3  4  1  0  0  0  0
  3 28  1  0  0  0  0
  3 29  1  0  0  0  0
  4  5  1  0  0  0  0
  4 30  1  0  0  0  0
  4 31  1  0  0  0  0
  5  6  1  0  0  0  0
  5  9  1  0  0  0  0
  5 32  1  0  0  0  0
  6  7  1  0  0  0  0
  6  8  1  0  0  0  0
  6 33  1  0  0  0  0
  7 34  1  0  0  0  0
  7 35  1  0  0  0  0
  7 36  1  0  0  0  0
  8 37  1  0  0  0  0
  8 38  1  0  0  0  0
  8 39  1  0  0  0  0
  9 10  1  0  0  0  0
  9 22  1  0  0  0  0
  9 40  1  0  0  0  0
 10 11  1  0  0  0  0
 10 41  1  0  0  0  0
 11 12  2  0  0  0  0
 11 13  1  0  0  0  0
 13 14  1  0  0  0  0
 13 42  1  0  0  0  0
 13 43  1  0  0  0  0
 14 20  1  0  0  0  0
 14 15  1  0  0  0  0
 15 16  2  0  0  0  0
 15 44  1  0  0  0  0
 16 17  1  0  0  0  0
 16 45  1  0  0  0  0
 17 18  2  0  0  0  0
 17 19  1  0  0  0  0
 19 23  1  0  0  0  0
 19 20  1  0  0  0  0
 20 21  2  0  0  0  0
 22 46  1  0  0  0  0
 22 47  1  0  0  0  0
M  END
> <s_m_source_file>
AV-unprocessed.smi

> <i_m_source_file_index>
2855

> <i_lp_mmshare_version>
43012

> <i_f3d_flags>
0

> <s_epik_input>
W0NIM11bQ0BASF0xW0NIMl1bQ0gyXVtDQEBIXShbQ0hdKFtDSDNdKVtDSDNdKVtDQEhdKFtDSDJdMSlbTkhdQyg9TylbQ0gyXW4yW2NIXVtjSF1jKD1PKVtuSF1jMj1P

> <s_epik_cmdline>
J2VwaWtfcHl0aG9uJywgJy1waCcsICc3LjAnLCAnLXRuJywgJzgnLCAnLW1hJywgJzIwMCcsICctbWV0YWxfYmluZGluZycsICctaW1hZScsICc8aW5maWxlLm1hZT4nLCAnLW9tYWUnLCAnPG91dGZpbGUubWFlPic=

> <r_lp_tautomer_probability>
0.999537

> <r_epik_Ionization_Penalty>
0.00306256

> <r_epik_Ionization_Penalty_Charging>
0.00306254

> <r_epik_Ionization_Penalty_Neutral>
2.0223e-08

> <r_epik_State_Penalty>
0.0021533

> <r_epik_Charging_Adjusted_Penalty>
0.00521583

> <i_epik_Tot_Q>
0

> <i_epik_Tot_abs_Q>
0

> <r_epik_Metal_State_Penalty>
0.362116

> <b_epik_Metal_Only>
0

> <s_lp_Force_Field>
OPLS_2005

> <r_lp_Energy>
14.402

> <b_lp_Chiralities_Consistent>
1

> <s_lp_Variant>
AV-unprocessed.smi:2855-5

> <Gold.Version>
5.8.1

> <Gold.Id.Protein>
6NUR|6NUR_protein|mol2

> <Gold.PLP.Fitness>
50.0126

> <Gold.PLP.PLP>
-46.7002

> <Gold.PLP.part.hbond>
-2.3589

> <Gold.PLP.part.metal>
0.0000

> <Gold.PLP.part.buried>
-5.1781

> <Gold.PLP.part.nonpolar>
-40.0494

> <Gold.PLP.part.repulsive>
0.9640

> <Gold.PLP.ligand.clash>
0.0000

> <Gold.PLP.ligand.torsion>
1.3132

> <Gold.PLP.Chemscore.Hbond>
1.9600

> <Gold.PLP.Chemscore.CHOScore>
0.0000

> <Gold.PLP.Chemscore.Metal>
0.0000

> <Gold.Chemscore.Hbonds>
donor molecule, donor type, donor heavy atom, donor atom, acceptor molecule, acceptor atom, score
      P1  H  7989  7998       L1    21  0.93
      P1  H 10752 10763       L1    18  0.96

> <Gold.PLP.Chemscore.Internal.Correction>
0.0589

> <Gold.Rescore>
     Score         DG    S(hbond)    S(metal)    S(lipo)     H(rot)  DE(clash)    DE(int)     intcor
     17.01     -20.66       1.81        0.00     118.51       1.85       0.11       3.54       ----

> <Gold.Chemscore.Fitness>
17.0061

> <Gold.Chemscore.DG>
-20.6574

> <Gold.Chemscore.ZeroCoef>
-5.4800

> <Gold.Chemscore.Hbond>
1.8137

> <Gold.Chemscore.Metal>
0.0000

> <Gold.Chemscore.Lipo>
118.5100

> <Gold.Chemscore.Internal_Hbond>
0.0000

> <Gold.Chemscore.DEClash>
0.1110

> <Gold.Chemscore.DEInternal>
3.5403

> <Gold.Chemscore.Rot>
1.8539

> <Gold.Chemscore.Internal.Correction>
   9.000000E+99

> <Gold.Chemscore.Hbonds>
donor molecule, donor type, donor heavy atom, donor atom, acceptor molecule, acceptor atom, score
      P1  H  7989  7998       L1    21  0.59
      P1  H 10752 10763       L1    18  0.55

> <Gold.Chemscore.Hbond.Weighted>
-6.0578

> <Gold.Chemscore.Metal.Weighted>
-0.0000

> <Gold.Chemscore.Lipo.Weighted>
-13.8657

> <Gold.Chemscore.Internal_Hbond.Weighted>
0.0000

> <Gold.Chemscore.DEClash.Weighted>
0.1110

> <Gold.Chemscore.DEInternal.Weighted>
3.5403

> <Gold.Chemscore.Rot.Weighted>
4.7460

> <Gold.Chemscore.Internal.Correction.Weighted>
   9.000000E+99

> <Gold.Protein.RotatedTorsions>
[ 6907 6896 6895 6894 ] final  -45.72 input  -60.11 | X-H torsion
[ 7974 7965 7964 7962 ] final  -49.74 input  175.53 | X-H torsion
[ 8008 7997 7996 7995 ] final   38.62 input   59.86 | X-H torsion
[ 10167 10162 10161 10158 ] final -106.43 input  -65.29 | X-H torsion
[ 10718 10713 10712 10709 ] final  -85.64 input   66.30 | X-H torsion
[ 10763 10752 10751 10750 ] final   61.20 input  -60.55 | X-H torsion
[ 11005 11000 10999 10996 ] final  -93.01 input  -57.11 | X-H torsion

> <Gold.Protein.ActiveResidues>
 VAL166  LYS551  ARG553  GLY616  TRP617  ASP618  TYR619  PRO620  LYS621  CYS622 
 ASP623  PHE694  ASN695  SER759  ASP760  ASP761  ALA762  ILE779  LEU786  VAL792 
 PHE793  MET794  SER795  GLU796  ALA797  LYS798  CYS799  TRP800  GLU811  SER814 

> <Gold.Protein.RotatedAtoms>
  150.9189  134.8606  159.7475 H   0  0  0  0  0  0  0  0  0  0  0  0  # atno 6907 bound_to 6896
  152.4982  134.4248  159.9502 H   0  0  0  0  0  0  0  0  0  0  0  0  # atno 6908 bound_to 6896
  151.4284  133.3638  159.2800 H   0  0  0  0  0  0  0  0  0  0  0  0  # atno 6909 bound_to 6896
  145.9373  140.7694  142.9569 H   0  0  0  0  0  0  0  0  0  0  0  0  # atno 7974 bound_to 7965
  155.2232  140.3332  155.4313 H   0  0  0  0  0  0  0  0  0  0  0  0  # atno 8008 bound_to 7997
  156.2325  140.1857  156.7253 H   0  0  0  0  0  0  0  0  0  0  0  0  # atno 8009 bound_to 7997
  154.6002  140.0624  156.9343 H   0  0  0  0  0  0  0  0  0  0  0  0  # atno 8010 bound_to 7997
  140.1878  143.3916  152.1230 H   0  0  0  0  0  0  0  0  0  0  0  0  # atno 10167 bound_to 10162
  155.9995  130.4738  150.4594 H   0  0  0  0  0  0  0  0  0  0  0  0  # atno 10718 bound_to 10713
  152.9943  135.5509  154.5996 H   0  0  0  0  0  0  0  0  0  0  0  0  # atno 10763 bound_to 10752
  154.5340  135.2815  155.1157 H   0  0  0  0  0  0  0  0  0  0  0  0  # atno 10764 bound_to 10752
  154.2460  135.6407  153.5276 H   0  0  0  0  0  0  0  0  0  0  0  0  # atno 10765 bound_to 10752
  141.1508  133.7859  157.0100 H   0  0  0  0  0  0  0  0  0  0  0  0  # atno 11005 bound_to 11000
  144.6773  140.2224  143.7365 LP  0  0  0  0  0  0  0  0  0  0  0  0  # atno 17320 bound_to 7965
  145.8346  139.2101  143.1863 LP  0  0  0  0  0  0  0  0  0  0  0  0  # atno 17321 bound_to 7965
  139.5269  144.7112  151.5198 LP  0  0  0  0  0  0  0  0  0  0  0  0  # atno 17342 bound_to 10162
  140.6476  143.8762  150.6753 LP  0  0  0  0  0  0  0  0  0  0  0  0  # atno 17343 bound_to 10162
  157.2619  131.0569  151.2314 LP  0  0  0  0  0  0  0  0  0  0  0  0  # atno 17370 bound_to 10713
  157.3426  130.7041  149.6391 LP  0  0  0  0  0  0  0  0  0  0  0  0  # atno 17371 bound_to 10713
  140.0884  134.9607  157.1736 LP  0  0  0  0  0  0  0  0  0  0  0  0  # atno 17394 bound_to 11000
  140.3480  134.2630  155.7202 LP  0  0  0  0  0  0  0  0  0  0  0  0  # atno 17395 bound_to 11000

$$$$
