AV-unprocessed.smi:2171|AV-procd|sdf|8830|dock5
  -GOLD-   2272012 23D 1   1.00000     0.00000
 Structure written by MMmdl.
 39 41  0  0  0  0  0  0  0  0  2 V2000
  154.2537  139.2161  158.1043 O   0  0  0  0  0  0  0  0  0  0  0  0
  153.0502  139.2705  158.3539 C   0  0  0  0  0  0  0  0  0  0  0  0
  152.1028  138.2111  157.7834 C   0  0  0  0  0  0  0  0  0  0  0  0
  151.9490  138.3383  156.3437 N   0  0  0  0  0  0  0  0  0  0  0  0
  151.4588  139.4094  155.6253 C   0  0  0  0  0  0  0  0  0  0  0  0
  151.4995  139.0661  154.3044 C   0  0  0  0  0  0  0  0  0  0  0  0
  152.0400  137.7498  154.3134 C   0  0  0  0  0  0  0  0  0  0  0  0
  152.3085  137.3173  155.5347 N   0  0  0  0  0  0  0  0  0  0  0  0
  152.4972  140.2380  159.1036 N   0  0  0  0  0  0  0  0  0  0  0  0
  153.2283  141.3098  159.7762 C   0  0  2  0  0  0  0  0  0  0  0  0
  153.0190  141.3082  161.3028 C   0  0  0  0  0  0  0  0  0  0  0  0
  152.8792  142.7872  161.6772 C   0  0  0  0  0  0  0  0  0  0  0  0
  152.2226  143.3643  160.4984 N   0  3  1  0  0  0  0  0  0  0  0  0
  152.1413  144.8344  160.3849 C   0  0  0  0  0  0  0  0  0  0  0  0
  151.2538  145.1816  159.1704 C   0  0  0  0  0  0  0  0  0  0  0  0
  151.7177  144.4654  157.8814 C   0  0  0  0  0  0  0  0  0  0  0  0
  151.9104  142.9492  158.1025 C   0  0  0  0  0  0  0  0  0  0  0  0
  152.8334  142.7332  159.3155 C   0  0  2  0  0  0  0  0  0  0  0  0
  152.4884  137.2171  158.0131 H   0  0  0  0  0  0  0  0  0  0  0  0
  151.1209  138.2913  158.2529 H   0  0  0  0  0  0  0  0  0  0  0  0
  151.1244  140.3159  156.1082 H   0  0  0  0  0  0  0  0  0  0  0  0
  151.1921  139.6646  153.4596 H   0  0  0  0  0  0  0  0  0  0  0  0
  152.2439  137.1006  153.4747 H   0  0  0  0  0  0  0  0  0  0  0  0
  151.4986  140.2040  159.2506 H   0  0  0  0  0  0  0  0  0  0  0  0
  154.2958  141.1753  159.5895 H   0  0  0  0  0  0  0  0  0  0  0  0
  152.0962  140.7843  161.5582 H   0  0  0  0  0  0  0  0  0  0  0  0
  153.8329  140.8184  161.8386 H   0  0  0  0  0  0  0  0  0  0  0  0
  152.2961  142.9388  162.5861 H   0  0  0  0  0  0  0  0  0  0  0  0
  153.8610  143.2435  161.8139 H   0  0  0  0  0  0  0  0  0  0  0  0
  151.7118  145.2515  161.2964 H   0  0  0  0  0  0  0  0  0  0  0  0
  153.1401  145.2590  160.2732 H   0  0  0  0  0  0  0  0  0  0  0  0
  150.2246  144.8913  159.3866 H   0  0  0  0  0  0  0  0  0  0  0  0
  151.2404  146.2607  159.0141 H   0  0  0  0  0  0  0  0  0  0  0  0
  151.0012  144.6385  157.0781 H   0  0  0  0  0  0  0  0  0  0  0  0
  152.6606  144.9025  157.5498 H   0  0  0  0  0  0  0  0  0  0  0  0
  150.9448  142.4690  158.2673 H   0  0  0  0  0  0  0  0  0  0  0  0
  152.3419  142.5001  157.2074 H   0  0  0  0  0  0  0  0  0  0  0  0
  153.7709  143.2567  159.1147 H   0  0  0  0  0  0  0  0  0  0  0  0
  151.2708  143.0282  160.5315 H   0  0  0  0  0  0  0  0  0  0  0  0
  1  2  2  0  0  0  0
  2  3  1  0  0  0  0
  2  9  1  0  0  0  0
  3  4  1  0  0  0  0
  3 19  1  0  0  0  0
  3 20  1  0  0  0  0
  4  8  1  0  0  0  0
  4  5  1  0  0  0  0
  5  6  2  0  0  0  0
  5 21  1  0  0  0  0
  6  7  1  0  0  0  0
  6 22  1  0  0  0  0
  7  8  2  0  0  0  0
  7 23  1  0  0  0  0
  9 10  1  0  0  0  0
  9 24  1  0  0  0  0
 10 18  1  0  0  0  0
 10 11  1  0  0  0  0
 10 25  1  0  0  0  0
 11 12  1  0  0  0  0
 11 26  1  0  0  0  0
 11 27  1  0  0  0  0
 12 13  1  0  0  0  0
 12 28  1  0  0  0  0
 12 29  1  0  0  0  0
 13 18  1  0  0  0  0
 13 14  1  0  0  0  0
 13 39  1  0  0  0  0
 14 15  1  0  0  0  0
 14 30  1  0  0  0  0
 14 31  1  0  0  0  0
 15 16  1  0  0  0  0
 15 32  1  0  0  0  0
 15 33  1  0  0  0  0
 16 17  1  0  0  0  0
 16 34  1  0  0  0  0
 16 35  1  0  0  0  0
 17 18  1  0  0  0  0
 17 36  1  0  0  0  0
 17 37  1  0  0  0  0
 18 38  1  0  0  0  0
M  CHG  1  13   1
M  END
> <s_m_source_file>
AV-unprocessed.smi

> <i_m_source_file_index>
2171

> <i_lp_mmshare_version>
43012

> <i_f3d_flags>
0

> <s_epik_input>
bjFbY0hdW2NIXVtjSF1uMVtDSDJdQyg9TylbTkhdW0NASF0oW0NIMl1bQ0gyXTIpW0NAQEhdKE4yMylbQ0gyXVtDSDJdW0NIMl1bQ0gyXTM=

> <s_epik_cmdline>
J2VwaWtfcHl0aG9uJywgJy1waCcsICc3LjAnLCAnLXRuJywgJzgnLCAnLW1hJywgJzIwMCcsICctbWV0YWxfYmluZGluZycsICctaW1hZScsICc8aW5maWxlLm1hZT4nLCAnLW9tYWUnLCAnPG91dGZpbGUubWFlPic=

> <r_lp_tautomer_probability>
1

> <r_epik_Ionization_Penalty>
0.00204179

> <r_epik_Ionization_Penalty_Charging>
0.00203239

> <r_epik_Ionization_Penalty_Neutral>
9.40205e-06

> <r_epik_State_Penalty>
0.00138983

> <r_epik_Charging_Adjusted_Penalty>
0.00342221

> <i_epik_Tot_Q>
1

> <i_epik_Tot_abs_Q>
1

> <r_epik_Metal_State_Penalty>
-0

> <b_epik_Metal_Only>
0

> <s_lp_Force_Field>
OPLS_2005

> <r_lp_Energy>
41.8247

> <b_lp_Chiralities_Consistent>
1

> <s_lp_Variant>
AV-unprocessed.smi:2171-5

> <Gold.Version>
5.8.1

> <Gold.Id.Protein>
6NUR|6NUR_protein|mol2

> <Gold.PLP.Fitness>
46.7447

> <Gold.PLP.PLP>
-39.6906

> <Gold.PLP.part.hbond>
-1.5988

> <Gold.PLP.part.metal>
0.0000

> <Gold.PLP.part.buried>
-5.6785

> <Gold.PLP.part.nonpolar>
-33.4713

> <Gold.PLP.part.repulsive>
0.2294

> <Gold.PLP.ligand.clash>
0.0000

> <Gold.PLP.ligand.torsion>
0.0950

> <Gold.PLP.Chemscore.Hbond>
1.4142

> <Gold.PLP.Chemscore.CHOScore>
1.0000

> <Gold.PLP.Chemscore.Metal>
0.0000

> <Gold.Chemscore.Hbonds>
donor molecule, donor type, donor heavy atom, donor atom, acceptor molecule, acceptor atom, score
      P1  H  7997  8010       L1     1  0.55
      P1  H 10752 10765       L1     8  0.56
      L1  C     7    23       P1  7949  1.00

> <Gold.PLP.Chemscore.Internal.Correction>
0.0016

> <Gold.Rescore>
     Score         DG    S(hbond)    S(metal)    S(lipo)     H(rot)  DE(clash)    DE(int)     intcor
     18.63     -18.74       1.00        0.00     116.47       1.44       0.02       0.09       ----

> <Gold.Chemscore.Fitness>
18.6308

> <Gold.Chemscore.DG>
-18.7421

> <Gold.Chemscore.ZeroCoef>
-5.4800

> <Gold.Chemscore.Hbond>
0.9951

> <Gold.Chemscore.Metal>
0.0000

> <Gold.Chemscore.Lipo>
116.4728

> <Gold.Chemscore.Internal_Hbond>
0.0000

> <Gold.Chemscore.DEClash>
0.0234

> <Gold.Chemscore.DEInternal>
0.0879

> <Gold.Chemscore.Rot>
1.4410

> <Gold.Chemscore.Internal.Correction>
   9.000000E+99

> <Gold.Chemscore.Hbonds>
donor molecule, donor type, donor heavy atom, donor atom, acceptor molecule, acceptor atom, score
      P1  H  7997  8010       L1     1  0.56
      P1  H 10752 10765       L1     8  0.07

> <Gold.Chemscore.Hbond.Weighted>
-3.3238

> <Gold.Chemscore.Metal.Weighted>
-0.0000

> <Gold.Chemscore.Lipo.Weighted>
-13.6273

> <Gold.Chemscore.Internal_Hbond.Weighted>
0.0000

> <Gold.Chemscore.DEClash.Weighted>
0.0234

> <Gold.Chemscore.DEInternal.Weighted>
0.0879

> <Gold.Chemscore.Rot.Weighted>
3.6889

> <Gold.Chemscore.Internal.Correction.Weighted>
   9.000000E+99

> <Gold.Protein.RotatedTorsions>
[ 6907 6896 6895 6894 ] final   36.56 input  -60.11 | X-H torsion
[ 7974 7965 7964 7962 ] final  117.80 input  175.53 | X-H torsion
[ 8008 7997 7996 7995 ] final    5.74 input   59.86 | X-H torsion
[ 10167 10162 10161 10158 ] final -122.39 input  -65.29 | X-H torsion
[ 10718 10713 10712 10709 ] final -105.70 input   66.30 | X-H torsion
[ 10763 10752 10751 10750 ] final -158.11 input  -60.55 | X-H torsion
[ 11005 11000 10999 10996 ] final  -26.89 input  -57.11 | X-H torsion

> <Gold.Protein.ActiveResidues>
 VAL166  LYS551  ARG553  GLY616  TRP617  ASP618  TYR619  PRO620  LYS621  CYS622 
 ASP623  PHE694  ASN695  SER759  ASP760  ASP761  ALA762  ILE779  LEU786  VAL792 
 PHE793  MET794  SER795  GLU796  ALA797  LYS798  CYS799  TRP800  GLU811  SER814 

> <Gold.Protein.RotatedAtoms>
  152.1314  134.9132  160.0558 H   0  0  0  0  0  0  0  0  0  0  0  0  # atno 6907 bound_to 6896
  152.0235  133.3903  159.4276 H   0  0  0  0  0  0  0  0  0  0  0  0  # atno 6908 bound_to 6896
  150.6856  134.3521  159.4957 H   0  0  0  0  0  0  0  0  0  0  0  0  # atno 6909 bound_to 6896
  145.1629  139.3145  143.4508 H   0  0  0  0  0  0  0  0  0  0  0  0  # atno 7974 bound_to 7965
  154.7322  140.2733  155.6446 H   0  0  0  0  0  0  0  0  0  0  0  0  # atno 8008 bound_to 7997
  156.2852  140.2713  156.1951 H   0  0  0  0  0  0  0  0  0  0  0  0  # atno 8009 bound_to 7997
  155.0366  140.0371  157.2484 H   0  0  0  0  0  0  0  0  0  0  0  0  # atno 8010 bound_to 7997
  140.0148  143.5405  152.2247 H   0  0  0  0  0  0  0  0  0  0  0  0  # atno 10167 bound_to 10162
  156.0357  130.5576  150.7576 H   0  0  0  0  0  0  0  0  0  0  0  0  # atno 10718 bound_to 10713
  154.7582  135.3110  154.8428 H   0  0  0  0  0  0  0  0  0  0  0  0  # atno 10763 bound_to 10752
  153.9197  135.6797  153.4752 H   0  0  0  0  0  0  0  0  0  0  0  0  # atno 10764 bound_to 10752
  153.1181  135.4835  154.9080 H   0  0  0  0  0  0  0  0  0  0  0  0  # atno 10765 bound_to 10752
  140.9070  133.7486  156.0619 H   0  0  0  0  0  0  0  0  0  0  0  0  # atno 11005 bound_to 11000
  146.3480  140.1746  142.8589 LP  0  0  0  0  0  0  0  0  0  0  0  0  # atno 17320 bound_to 7965
  145.0312  140.8872  143.5108 LP  0  0  0  0  0  0  0  0  0  0  0  0  # atno 17321 bound_to 7965
  139.6180  144.7623  151.2803 LP  0  0  0  0  0  0  0  0  0  0  0  0  # atno 17342 bound_to 10162
  140.7367  143.6700  150.8089 LP  0  0  0  0  0  0  0  0  0  0  0  0  # atno 17343 bound_to 10162
  157.5104  131.0925  151.0205 LP  0  0  0  0  0  0  0  0  0  0  0  0  # atno 17370 bound_to 10713
  157.0562  130.5807  149.5378 LP  0  0  0  0  0  0  0  0  0  0  0  0  # atno 17371 bound_to 10713
  140.8158  134.3346  157.5397 LP  0  0  0  0  0  0  0  0  0  0  0  0  # atno 17394 bound_to 11000
  139.8751  134.9281  156.3441 LP  0  0  0  0  0  0  0  0  0  0  0  0  # atno 17395 bound_to 11000

$$$$
