AV-unprocessed.smi:2908|AV-procd|sdf|11170|dock2
  -GOLD-   2272016 63D 1   1.00000     0.00000
 Structure written by MMmdl.
 44 45  0  0  0  0  0  0  0  0  2 V2000
  149.5129  140.5324  154.1294 O   0  0  0  0  0  0  0  0  0  0  0  0
  148.5514  140.4011  154.8887 C   0  0  0  0  0  0  0  0  0  0  0  0
  148.6950  140.3843  156.2256 N   0  0  0  0  0  0  0  0  0  0  0  0
  149.9543  140.5234  156.9535 C   0  0  0  0  0  0  0  0  0  0  0  0
  150.7736  141.7433  156.4878 C   0  0  0  0  0  0  0  0  0  0  0  0
  151.3826  142.5414  157.6273 C   0  0  0  0  0  0  0  0  0  0  0  0
  152.3371  141.9876  158.5086 C   0  0  0  0  0  0  0  0  0  0  0  0
  152.8827  142.7949  159.5283 C   0  0  0  0  0  0  0  0  0  0  0  0
  152.4615  144.1355  159.6475 C   0  0  0  0  0  0  0  0  0  0  0  0
  151.5032  144.6357  158.7429 C   0  0  0  0  0  0  0  0  0  0  0  0
  151.0039  143.8312  157.7790 N   0  3  0  0  0  0  0  0  0  0  0  0
  147.2814  140.2083  154.4517 N   0  0  0  0  0  0  0  0  0  0  0  0
  146.8008  140.3689  153.0699 C   0  0  0  0  0  0  0  0  0  0  0  0
  146.5787  138.9737  152.4601 C   0  0  0  0  0  0  0  0  0  0  0  0
  145.5919  138.1327  153.3057 C   0  0  0  0  0  0  0  0  0  0  0  0
  145.3978  136.7148  152.7061 C   0  0  1  0  0  0  0  0  0  0  0  0
  146.5540  135.9278  152.9221 O   0  0  0  0  0  0  0  0  0  0  0  0
  144.1563  135.9441  153.2070 C   0  0  0  0  0  0  0  0  0  0  0  0
  144.0063  134.8286  152.4927 F   0  0  0  0  0  0  0  0  0  0  0  0
  144.2549  135.6223  154.4964 F   0  0  0  0  0  0  0  0  0  0  0  0
  143.0647  136.6891  153.0339 F   0  0  0  0  0  0  0  0  0  0  0  0
  145.9962  138.1520  154.8017 C   0  0  0  0  0  0  0  0  0  0  0  0
  146.2551  139.5870  155.2963 C   0  0  0  0  0  0  0  0  0  0  0  0
  147.8613  140.2635  156.7826 H   0  0  0  0  0  0  0  0  0  0  0  0
  149.7733  140.5776  158.0284 H   0  0  0  0  0  0  0  0  0  0  0  0
  150.5351  139.6151  156.7920 H   0  0  0  0  0  0  0  0  0  0  0  0
  151.5749  141.4136  155.8252 H   0  0  0  0  0  0  0  0  0  0  0  0
  150.1419  142.4026  155.8908 H   0  0  0  0  0  0  0  0  0  0  0  0
  152.6563  140.9613  158.3991 H   0  0  0  0  0  0  0  0  0  0  0  0
  153.6178  142.3912  160.2091 H   0  0  0  0  0  0  0  0  0  0  0  0
  152.8691  144.7712  160.4200 H   0  0  0  0  0  0  0  0  0  0  0  0
  151.1263  145.6479  158.7583 H   0  0  0  0  0  0  0  0  0  0  0  0
  145.8617  140.9245  153.0787 H   0  0  0  0  0  0  0  0  0  0  0  0
  147.4696  140.9461  152.4316 H   0  0  0  0  0  0  0  0  0  0  0  0
  146.2035  139.0756  151.4413 H   0  0  0  0  0  0  0  0  0  0  0  0
  147.5388  138.4613  152.3846 H   0  0  0  0  0  0  0  0  0  0  0  0
  144.6290  138.6406  153.2361 H   0  0  0  0  0  0  0  0  0  0  0  0
  145.2918  136.8263  151.6259 H   0  0  0  0  0  0  0  0  0  0  0  0
  147.2409  136.2443  152.3553 H   0  0  0  0  0  0  0  0  0  0  0  0
  145.2131  137.7100  155.4157 H   0  0  0  0  0  0  0  0  0  0  0  0
  146.8936  137.5523  154.9589 H   0  0  0  0  0  0  0  0  0  0  0  0
  146.5300  139.5738  156.3519 H   0  0  0  0  0  0  0  0  0  0  0  0
  145.3368  140.1734  155.2404 H   0  0  0  0  0  0  0  0  0  0  0  0
  150.3169  144.2166  157.1308 H   0  0  0  0  0  0  0  0  0  0  0  0
  1  2  2  0  0  0  0
  2  3  1  0  0  0  0
  2 12  1  0  0  0  0
  3  4  1  0  0  0  0
  3 24  1  0  0  0  0
  4  5  1  0  0  0  0
  4 25  1  0  0  0  0
  4 26  1  0  0  0  0
  5  6  1  0  0  0  0
  5 27  1  0  0  0  0
  5 28  1  0  0  0  0
  6 11  1  0  0  0  0
  6  7  2  0  0  0  0
  7  8  1  0  0  0  0
  7 29  1  0  0  0  0
  8  9  2  0  0  0  0
  8 30  1  0  0  0  0
  9 10  1  0  0  0  0
  9 31  1  0  0  0  0
 10 11  2  0  0  0  0
 10 32  1  0  0  0  0
 11 44  1  0  0  0  0
 12 23  1  0  0  0  0
 12 13  1  0  0  0  0
 13 14  1  0  0  0  0
 13 33  1  0  0  0  0
 13 34  1  0  0  0  0
 14 15  1  0  0  0  0
 14 35  1  0  0  0  0
 14 36  1  0  0  0  0
 15 16  1  0  0  0  0
 15 22  1  0  0  0  0
 15 37  1  0  0  0  0
 16 17  1  0  0  0  0
 16 18  1  0  0  0  0
 16 38  1  0  0  0  0
 17 39  1  0  0  0  0
 18 19  1  0  0  0  0
 18 20  1  0  0  0  0
 18 21  1  0  0  0  0
 22 23  1  0  0  0  0
 22 40  1  0  0  0  0
 22 41  1  0  0  0  0
 23 42  1  0  0  0  0
 23 43  1  0  0  0  0
M  CHG  1  11   1
M  END
> <s_m_source_file>
AV-unprocessed.smi

> <i_m_source_file_index>
2908

> <i_lp_mmshare_version>
43012

> <i_f3d_flags>
0

> <s_epik_input>
RkMoRikoRilbQ0BASF0oW09IXSlbQ0hdKFtDSDJdW0NIMl0xKVtDSDJdW0NIMl1OMUMoPU8pW05IXVtDSDJdW0NIMl1jMltjSF1bY0hdW2NIXVtjSF1uMg==

> <s_epik_cmdline>
J2VwaWtfcHl0aG9uJywgJy1waCcsICc3LjAnLCAnLXRuJywgJzgnLCAnLW1hJywgJzIwMCcsICctbWV0YWxfYmluZGluZycsICctaW1hZScsICc8aW5maWxlLm1hZT4nLCAnLW9tYWUnLCAnPG91dGZpbGUubWFlPic=

> <r_epik_Ionization_Penalty>
1.55054

> <r_epik_Ionization_Penalty_Charging>
1.55036

> <r_epik_Ionization_Penalty_Neutral>
0.00017404

> <r_epik_State_Penalty>
1.64453

> <r_epik_Charging_Adjusted_Penalty>
3.19489

> <i_epik_Tot_Q>
1

> <i_epik_Tot_abs_Q>
1

> <r_epik_Metal_State_Penalty>
1.68672

> <b_epik_Metal_Only>
0

> <s_lp_Force_Field>
OPLS_2005

> <r_lp_Energy>
43.524

> <b_lp_Chiralities_Consistent>
1

> <s_lp_Variant>
AV-unprocessed.smi:2908-4

> <Gold.Version>
5.8.1

> <Gold.Id.Protein>
6NUR|6NUR_protein|mol2

> <Gold.PLP.Fitness>
50.7868

> <Gold.PLP.PLP>
-41.5521

> <Gold.PLP.part.hbond>
-2.8693

> <Gold.PLP.part.metal>
0.0000

> <Gold.PLP.part.buried>
-3.7356

> <Gold.PLP.part.nonpolar>
-35.6657

> <Gold.PLP.part.repulsive>
1.0039

> <Gold.PLP.ligand.clash>
0.7299

> <Gold.PLP.ligand.torsion>
0.6687

> <Gold.PLP.Chemscore.Hbond>
3.6400

> <Gold.PLP.Chemscore.CHOScore>
0.0000

> <Gold.PLP.Chemscore.Metal>
0.0000

> <Gold.Chemscore.Hbonds>
donor molecule, donor type, donor heavy atom, donor atom, acceptor molecule, acceptor atom, score
      L1  H    11    44       P1  8028  1.72
      L1  H    17    39       P1  7948  1.00
      P1  H  7989  7998       L1     1  0.35

> <Gold.PLP.Chemscore.Internal.Correction>
0.3819

> <Gold.Rescore>
     Score         DG    S(hbond)    S(metal)    S(lipo)     H(rot)  DE(clash)    DE(int)     intcor
     17.35     -19.99       2.55        0.00     103.77       2.40       0.36       2.28       ----

> <Gold.Chemscore.Fitness>
17.3458

> <Gold.Chemscore.DG>
-19.9939

> <Gold.Chemscore.ZeroCoef>
-5.4800

> <Gold.Chemscore.Hbond>
2.5520

> <Gold.Chemscore.Metal>
0.0000

> <Gold.Chemscore.Lipo>
103.7685

> <Gold.Chemscore.Internal_Hbond>
0.0000

> <Gold.Chemscore.DEClash>
0.3643

> <Gold.Chemscore.DEInternal>
2.2839

> <Gold.Chemscore.Rot>
2.4026

> <Gold.Chemscore.Internal.Correction>
   9.000000E+99

> <Gold.Chemscore.Hbonds>
donor molecule, donor type, donor heavy atom, donor atom, acceptor molecule, acceptor atom, score
      L1  H    11    44       P1  8028  0.74
      L1  H    17    39       P1  7948  0.94
      P1  H  7989  7998       L1     1  0.36

> <Gold.Chemscore.Hbond.Weighted>
-8.5238

> <Gold.Chemscore.Metal.Weighted>
-0.0000

> <Gold.Chemscore.Lipo.Weighted>
-12.1409

> <Gold.Chemscore.Internal_Hbond.Weighted>
0.0000

> <Gold.Chemscore.DEClash.Weighted>
0.3643

> <Gold.Chemscore.DEInternal.Weighted>
2.2839

> <Gold.Chemscore.Rot.Weighted>
6.1508

> <Gold.Chemscore.Internal.Correction.Weighted>
   9.000000E+99

> <Gold.Protein.RotatedTorsions>
[ 6907 6896 6895 6894 ] final  137.20 input  -60.11 | X-H torsion
[ 7974 7965 7964 7962 ] final  -65.34 input  175.53 | X-H torsion
[ 8008 7997 7996 7995 ] final  100.43 input   59.86 | X-H torsion
[ 10167 10162 10161 10158 ] final   45.04 input  -65.29 | X-H torsion
[ 10718 10713 10712 10709 ] final  104.58 input   66.30 | X-H torsion
[ 10763 10752 10751 10750 ] final   11.53 input  -60.55 | X-H torsion
[ 11005 11000 10999 10996 ] final -120.14 input  -57.11 | X-H torsion

> <Gold.Protein.ActiveResidues>
 VAL166  LYS551  ARG553  GLY616  TRP617  ASP618  TYR619  PRO620  LYS621  CYS622 
 ASP623  PHE694  ASN695  SER759  ASP760  ASP761  ALA762  ILE779  LEU786  VAL792 
 PHE793  MET794  SER795  GLU796  ALA797  LYS798  CYS799  TRP800  GLU811  SER814 

> <Gold.Protein.RotatedAtoms>
  152.2808  133.5468  159.5496 H   0  0  0  0  0  0  0  0  0  0  0  0  # atno 6907 bound_to 6896
  150.7195  134.0567  159.3826 H   0  0  0  0  0  0  0  0  0  0  0  0  # atno 6908 bound_to 6896
  151.8478  135.0568  160.0506 H   0  0  0  0  0  0  0  0  0  0  0  0  # atno 6909 bound_to 6896
  145.7555  140.8887  143.0457 H   0  0  0  0  0  0  0  0  0  0  0  0  # atno 7974 bound_to 7965
  156.1203  140.3213  155.8198 H   0  0  0  0  0  0  0  0  0  0  0  0  # atno 8008 bound_to 7997
  155.4517  140.0533  157.3017 H   0  0  0  0  0  0  0  0  0  0  0  0  # atno 8009 bound_to 7997
  154.4822  140.2058  155.9750 H   0  0  0  0  0  0  0  0  0  0  0  0  # atno 8010 bound_to 7997
  140.3282  144.2621  150.6172 H   0  0  0  0  0  0  0  0  0  0  0  0  # atno 10167 bound_to 10162
  157.6735  131.0807  150.5727 H   0  0  0  0  0  0  0  0  0  0  0  0  # atno 10718 bound_to 10713
  153.1916  135.6843  153.8345 H   0  0  0  0  0  0  0  0  0  0  0  0  # atno 10763 bound_to 10752
  153.7642  135.3205  155.3343 H   0  0  0  0  0  0  0  0  0  0  0  0  # atno 10764 bound_to 10752
  154.8121  135.4710  154.0642 H   0  0  0  0  0  0  0  0  0  0  0  0  # atno 10765 bound_to 10752
  141.0165  134.0188  157.3342 H   0  0  0  0  0  0  0  0  0  0  0  0  # atno 11005 bound_to 11000
  144.6841  139.9650  143.7481 LP  0  0  0  0  0  0  0  0  0  0  0  0  # atno 17320 bound_to 7965
  146.0315  139.3339  143.0752 LP  0  0  0  0  0  0  0  0  0  0  0  0  # atno 17321 bound_to 7965
  140.5421  143.2221  151.8067 LP  0  0  0  0  0  0  0  0  0  0  0  0  # atno 17342 bound_to 10162
  139.4861  144.4586  151.9568 LP  0  0  0  0  0  0  0  0  0  0  0  0  # atno 17343 bound_to 10162
  156.6029  130.4359  149.5890 LP  0  0  0  0  0  0  0  0  0  0  0  0  # atno 17370 bound_to 10713
  156.2492  130.6897  151.1629 LP  0  0  0  0  0  0  0  0  0  0  0  0  # atno 17371 bound_to 10713
  139.9120  135.0191  156.7730 LP  0  0  0  0  0  0  0  0  0  0  0  0  # atno 17394 bound_to 11000
  140.6646  133.9614  155.7823 LP  0  0  0  0  0  0  0  0  0  0  0  0  # atno 17395 bound_to 11000

$$$$
