AV-unprocessed.smi:1434|AV-procd|sdf|5855|dock9
  -GOLD-   22720 5523D 1   1.00000     0.00000
 Structure written by MMmdl.
 44 45  0  0  0  0  0  0  0  0  3 V2000
  142.5868  147.0627  153.8292 C   0  0  0  0  0  0  0  0  0  0  0  0
  144.3707  146.6276  153.8615 S   0  0  0  0  0  0  0  0  0  0  0  0
  144.7613  146.4315  152.4561 O   0  0  0  0  0  0  0  0  0  0  0  0
  145.0326  147.7165  154.5981 O   0  0  0  0  0  0  0  0  0  0  0  0
  144.3225  145.2387  154.6981 N   0  5  0  0  0  0  0  0  0  0  0  0
  145.4999  144.3842  154.7566 C   0  0  2  0  0  0  0  0  0  0  0  0
  145.8919  143.8741  153.3439 C   0  0  0  0  0  0  0  0  0  0  0  0
  146.9735  142.7609  153.3659 C   0  0  0  0  0  0  0  0  0  0  0  0
  146.6229  141.6118  154.3380 C   0  0  0  0  0  0  0  0  0  0  0  0
  146.3646  142.2161  155.6646 N   0  0  0  0  0  0  0  0  0  0  0  0
  147.0735  141.9689  156.7983 C   0  0  0  0  0  0  0  0  0  0  0  0
  146.6594  142.2312  157.9284 O   0  0  0  0  0  0  0  0  0  0  0  0
  148.2984  141.4554  156.5976 N   0  0  0  0  0  0  0  0  0  0  0  0
  149.2503  141.1527  157.6575 C   0  0  0  0  0  0  0  0  0  0  0  0
  150.6880  141.4098  157.1872 C   0  0  0  0  0  0  0  0  0  0  0  0
  151.3517  142.5300  157.9648 C   0  0  0  0  0  0  0  0  0  0  0  0
  152.3941  142.2892  158.8862 C   0  0  0  0  0  0  0  0  0  0  0  0
  152.9751  143.3782  159.5691 C   0  0  0  0  0  0  0  0  0  0  0  0
  152.5034  144.6830  159.3159 C   0  0  0  0  0  0  0  0  0  0  0  0
  151.4612  144.8663  158.3844 C   0  0  0  0  0  0  0  0  0  0  0  0
  150.9301  143.7975  157.7504 N   0  3  0  0  0  0  0  0  0  0  0  0
  145.2122  143.1471  155.6520 C   0  0  0  0  0  0  0  0  0  0  0  0
  142.4539  147.9972  153.2854 H   0  0  0  0  0  0  0  0  0  0  0  0
  142.2239  147.1817  154.8499 H   0  0  0  0  0  0  0  0  0  0  0  0
  142.0278  146.2701  153.3330 H   0  0  0  0  0  0  0  0  0  0  0  0
  146.3550  144.9101  155.1838 H   0  0  0  0  0  0  0  0  0  0  0  0
  145.0047  143.4788  152.8467 H   0  0  0  0  0  0  0  0  0  0  0  0
  146.2409  144.7022  152.7269 H   0  0  0  0  0  0  0  0  0  0  0  0
  147.1038  142.3620  152.3596 H   0  0  0  0  0  0  0  0  0  0  0  0
  147.9391  143.1871  153.6454 H   0  0  0  0  0  0  0  0  0  0  0  0
  145.7200  141.1009  154.0006 H   0  0  0  0  0  0  0  0  0  0  0  0
  147.4097  140.8581  154.3239 H   0  0  0  0  0  0  0  0  0  0  0  0
  148.5891  141.2795  155.6468 H   0  0  0  0  0  0  0  0  0  0  0  0
  149.0323  141.7688  158.5315 H   0  0  0  0  0  0  0  0  0  0  0  0
  149.1293  140.1108  157.9577 H   0  0  0  0  0  0  0  0  0  0  0  0
  151.2855  140.5032  157.2923 H   0  0  0  0  0  0  0  0  0  0  0  0
  150.6936  141.6618  156.1256 H   0  0  0  0  0  0  0  0  0  0  0  0
  152.7477  141.2844  159.0667 H   0  0  0  0  0  0  0  0  0  0  0  0
  153.7741  143.2145  160.2774 H   0  0  0  0  0  0  0  0  0  0  0  0
  152.9356  145.5305  159.8277 H   0  0  0  0  0  0  0  0  0  0  0  0
  151.0401  145.8275  158.1282 H   0  0  0  0  0  0  0  0  0  0  0  0
  144.9395  143.4828  156.6537 H   0  0  0  0  0  0  0  0  0  0  0  0
  144.3393  142.6086  155.2789 H   0  0  0  0  0  0  0  0  0  0  0  0
  150.1783  143.9542  157.0788 H   0  0  0  0  0  0  0  0  0  0  0  0
  1  2  1  0  0  0  0
  1 23  1  0  0  0  0
  1 24  1  0  0  0  0
  1 25  1  0  0  0  0
  2  3  2  0  0  0  0
  2  4  2  0  0  0  0
  2  5  1  0  0  0  0
  5  6  1  0  0  0  0
  6 22  1  0  0  0  0
  6  7  1  0  0  0  0
  6 26  1  0  0  0  0
  7  8  1  0  0  0  0
  7 27  1  0  0  0  0
  7 28  1  0  0  0  0
  8  9  1  0  0  0  0
  8 29  1  0  0  0  0
  8 30  1  0  0  0  0
  9 10  1  0  0  0  0
  9 31  1  0  0  0  0
  9 32  1  0  0  0  0
 10 11  1  0  0  0  0
 10 22  1  0  0  0  0
 11 12  2  0  0  0  0
 11 13  1  0  0  0  0
 13 14  1  0  0  0  0
 13 33  1  0  0  0  0
 14 15  1  0  0  0  0
 14 34  1  0  0  0  0
 14 35  1  0  0  0  0
 15 16  1  0  0  0  0
 15 36  1  0  0  0  0
 15 37  1  0  0  0  0
 16 21  1  0  0  0  0
 16 17  2  0  0  0  0
 17 18  1  0  0  0  0
 17 38  1  0  0  0  0
 18 19  2  0  0  0  0
 18 39  1  0  0  0  0
 19 20  1  0  0  0  0
 19 40  1  0  0  0  0
 20 21  2  0  0  0  0
 20 41  1  0  0  0  0
 21 44  1  0  0  0  0
 22 42  1  0  0  0  0
 22 43  1  0  0  0  0
M  CHG  1   5  -1
M  CHG  1  21   1
M  END
> <s_m_source_file>
AV-unprocessed.smi

> <i_m_source_file_index>
1434

> <i_lp_mmshare_version>
43012

> <i_f3d_flags>
0

> <s_epik_input>
W0NIM11TKD1PKSg9TylbTkhdW0NAQEhdMVtDSDJdW0NIMl1bQ0gyXU4oW0NIMl0xKUMoPU8pW05IXVtDSDJdW0NIMl1jMltjSF1bY0hdW2NIXVtjSF1uMg==

> <s_epik_cmdline>
J2VwaWtfcHl0aG9uJywgJy1waCcsICc3LjAnLCAnLXRuJywgJzgnLCAnLW1hJywgJzIwMCcsICctbWV0YWxfYmluZGluZycsICctaW1hZScsICc8aW5maWxlLm1hZT4nLCAnLW9tYWUnLCAnPG91dGZpbGUubWFlPic=

> <r_epik_Ionization_Penalty>
8.07847

> <r_epik_Ionization_Penalty_Charging>
8.0784

> <r_epik_Ionization_Penalty_Neutral>
6.25603e-05

> <r_epik_State_Penalty>
8.17261

> <r_epik_Charging_Adjusted_Penalty>
16.251

> <i_epik_Tot_Q>
0

> <i_epik_Tot_abs_Q>
2

> <r_epik_Metal_State_Penalty>
4.14042

> <b_epik_Metal_Only>
1

> <s_lp_Force_Field>
OPLS_2005

> <r_lp_Energy>
29.5402

> <b_lp_Chiralities_Consistent>
1

> <s_lp_Variant>
AV-unprocessed.smi:1434-7

> <Gold.Version>
5.8.1

> <Gold.Id.Protein>
6NUR|6NUR_protein|mol2

> <Gold.PLP.Fitness>
49.2132

> <Gold.PLP.PLP>
-45.1111

> <Gold.PLP.part.hbond>
-4.0000

> <Gold.PLP.part.metal>
0.0000

> <Gold.PLP.part.buried>
-9.4201

> <Gold.PLP.part.nonpolar>
-31.4153

> <Gold.PLP.part.repulsive>
0.2913

> <Gold.PLP.ligand.clash>
0.0000

> <Gold.PLP.ligand.torsion>
1.4456

> <Gold.PLP.Chemscore.Hbond>
2.0000

> <Gold.PLP.Chemscore.CHOScore>
0.0000

> <Gold.PLP.Chemscore.Metal>
0.0000

> <Gold.Chemscore.Hbonds>
donor molecule, donor type, donor heavy atom, donor atom, acceptor molecule, acceptor atom, score
      L1  H    21    44       P1  8028  1.92

> <Gold.PLP.Chemscore.Internal.Correction>
0.9932

> <Gold.Rescore>
     Score         DG    S(hbond)    S(metal)    S(lipo)     H(rot)  DE(clash)    DE(int)     intcor
     13.25     -15.94       0.98        0.00     100.17       1.77       0.07       2.62       ----

> <Gold.Chemscore.Fitness>
13.2467

> <Gold.Chemscore.DG>
-15.9406

> <Gold.Chemscore.ZeroCoef>
-5.4800

> <Gold.Chemscore.Hbond>
0.9765

> <Gold.Chemscore.Metal>
0.0000

> <Gold.Chemscore.Lipo>
100.1714

> <Gold.Chemscore.Internal_Hbond>
0.0000

> <Gold.Chemscore.DEClash>
0.0710

> <Gold.Chemscore.DEInternal>
2.6228

> <Gold.Chemscore.Rot>
1.7661

> <Gold.Chemscore.Internal.Correction>
   9.000000E+99

> <Gold.Chemscore.Hbonds>
donor molecule, donor type, donor heavy atom, donor atom, acceptor molecule, acceptor atom, score
      L1  H    21    44       P1  8028  0.87

> <Gold.Chemscore.Hbond.Weighted>
-3.2616

> <Gold.Chemscore.Metal.Weighted>
-0.0000

> <Gold.Chemscore.Lipo.Weighted>
-11.7201

> <Gold.Chemscore.Internal_Hbond.Weighted>
0.0000

> <Gold.Chemscore.DEClash.Weighted>
0.0710

> <Gold.Chemscore.DEInternal.Weighted>
2.6228

> <Gold.Chemscore.Rot.Weighted>
4.5211

> <Gold.Chemscore.Internal.Correction.Weighted>
   9.000000E+99

> <Gold.Protein.RotatedTorsions>
[ 6907 6896 6895 6894 ] final -101.34 input  -60.11 | X-H torsion
[ 7974 7965 7964 7962 ] final  -28.30 input  175.53 | X-H torsion
[ 8008 7997 7996 7995 ] final  169.33 input   59.86 | X-H torsion
[ 10167 10162 10161 10158 ] final  137.87 input  -65.29 | X-H torsion
[ 10718 10713 10712 10709 ] final  -19.40 input   66.30 | X-H torsion
[ 10763 10752 10751 10750 ] final  165.76 input  -60.55 | X-H torsion
[ 11005 11000 10999 10996 ] final  -19.16 input  -57.11 | X-H torsion

> <Gold.Protein.ActiveResidues>
 VAL166  LYS551  ARG553  GLY616  TRP617  ASP618  TYR619  PRO620  LYS621  CYS622 
 ASP623  PHE694  ASN695  SER759  ASP760  ASP761  ALA762  ILE779  LEU786  VAL792 
 PHE793  MET794  SER795  GLU796  ALA797  LYS798  CYS799  TRP800  GLU811  SER814 

> <Gold.Protein.RotatedAtoms>
  150.7151  134.0749  159.3877 H   0  0  0  0  0  0  0  0  0  0  0  0  # atno 6907 bound_to 6896
  151.8732  135.0479  160.0491 H   0  0  0  0  0  0  0  0  0  0  0  0  # atno 6908 bound_to 6896
  152.2626  133.5275  159.5427 H   0  0  0  0  0  0  0  0  0  0  0  0  # atno 6909 bound_to 6896
  146.1298  140.5265  142.8698 H   0  0  0  0  0  0  0  0  0  0  0  0  # atno 7974 bound_to 7965
  156.1466  140.1567  156.8836 H   0  0  0  0  0  0  0  0  0  0  0  0  # atno 8008 bound_to 7997
  154.5034  140.0819  156.7882 H   0  0  0  0  0  0  0  0  0  0  0  0  # atno 8009 bound_to 7997
  155.3976  140.3413  155.4257 H   0  0  0  0  0  0  0  0  0  0  0  0  # atno 8010 bound_to 7997
  139.5130  144.6386  151.5631 H   0  0  0  0  0  0  0  0  0  0  0  0  # atno 10167 bound_to 10162
  156.5461  130.4690  149.6474 H   0  0  0  0  0  0  0  0  0  0  0  0  # atno 10718 bound_to 10713
  154.3289  135.2755  155.2482 H   0  0  0  0  0  0  0  0  0  0  0  0  # atno 10763 bound_to 10752
  154.4803  135.5860  153.6388 H   0  0  0  0  0  0  0  0  0  0  0  0  # atno 10764 bound_to 10752
  152.9868  135.6109  154.3479 H   0  0  0  0  0  0  0  0  0  0  0  0  # atno 10765 bound_to 10752
  140.8339  133.7976  155.9788 H   0  0  0  0  0  0  0  0  0  0  0  0  # atno 11005 bound_to 11000
  144.7678  140.5571  143.6691 LP  0  0  0  0  0  0  0  0  0  0  0  0  # atno 17320 bound_to 7965
  145.5286  139.1475  143.3512 LP  0  0  0  0  0  0  0  0  0  0  0  0  # atno 17321 bound_to 7965
  140.6144  143.9377  150.6477 LP  0  0  0  0  0  0  0  0  0  0  0  0  # atno 17342 bound_to 10162
  140.2630  143.3510  152.1306 LP  0  0  0  0  0  0  0  0  0  0  0  0  # atno 17343 bound_to 10162
  156.2927  130.7133  151.1985 LP  0  0  0  0  0  0  0  0  0  0  0  0  # atno 17370 bound_to 10713
  157.7396  131.0527  150.5219 LP  0  0  0  0  0  0  0  0  0  0  0  0  # atno 17371 bound_to 10713
  140.8968  134.2428  157.5064 LP  0  0  0  0  0  0  0  0  0  0  0  0  # atno 17394 bound_to 11000
  139.8704  134.9688  156.4642 LP  0  0  0  0  0  0  0  0  0  0  0  0  # atno 17395 bound_to 11000

$$$$
