AV-unprocessed.smi:574|AV-procd|sdf|2976|dock6
  -GOLD-   2262023483D 1   1.00000     0.00000
 Structure written by MMmdl.
 39 40  0  0  0  0  0  0  0  0  2 V2000
  157.5905  134.8573  156.4187 C   0  0  0  0  0  0  0  0  0  0  0  0
  156.6144  136.0220  156.5451 C   0  0  0  0  0  0  0  0  0  0  0  0
  155.8461  136.2900  155.6217 O   0  0  0  0  0  0  0  0  0  0  0  0
  156.6511  136.7012  157.6995 N   0  0  0  0  0  0  0  0  0  0  0  0
  155.7670  137.8085  158.0505 C   0  0  0  0  0  0  0  0  0  0  0  0
  155.7680  138.8925  156.9567 C   0  0  0  0  0  0  0  0  0  0  0  0
  154.5107  139.6356  156.9986 N   0  5  0  0  0  0  0  0  0  0  0  0
  153.3666  139.2578  156.3592 C   0  0  0  0  0  0  0  0  0  0  0  0
  153.1547  138.2571  155.6657 O   0  0  0  0  0  0  0  0  0  0  0  0
  152.2495  140.2579  156.5524 C   0  0  0  0  0  0  0  0  0  0  0  0
  152.4322  141.2251  157.4869 N   0  0  0  0  0  0  0  0  0  0  0  0
  151.4775  142.1404  157.6743 C   0  0  0  0  0  0  0  0  0  0  0  0
  151.7045  143.1157  158.6540 N   0  0  0  0  0  0  0  0  0  0  0  0
  151.1092  144.4513  158.5753 C   0  0  0  0  0  0  0  0  0  0  0  0
  150.8316  145.0078  159.9819 C   0  0  0  0  0  0  0  0  0  0  0  0
  152.0278  144.9916  160.7515 O   0  0  0  0  0  0  0  0  0  0  0  0
  152.5217  143.6686  160.9219 C   0  0  0  0  0  0  0  0  0  0  0  0
  152.8612  143.0575  159.5524 C   0  0  0  0  0  0  0  0  0  0  0  0
  150.3260  142.1910  156.9948 N   0  0  0  0  0  0  0  0  0  0  0  0
  150.1134  141.2430  156.0584 C   0  0  0  0  0  0  0  0  0  0  0  0
  151.0539  140.2304  155.7862 C   0  0  0  0  0  0  0  0  0  0  0  0
  150.6925  139.0303  154.5925 Cl  0  0  0  0  0  0  0  0  0  0  0  0
  157.2885  134.0387  157.0724 H   0  0  0  0  0  0  0  0  0  0  0  0
  158.5978  135.1687  156.6972 H   0  0  0  0  0  0  0  0  0  0  0  0
  157.6196  134.4847  155.3941 H   0  0  0  0  0  0  0  0  0  0  0  0
  157.3015  136.4063  158.4140 H   0  0  0  0  0  0  0  0  0  0  0  0
  154.7531  137.4312  158.1908 H   0  0  0  0  0  0  0  0  0  0  0  0
  156.0826  138.2349  159.0043 H   0  0  0  0  0  0  0  0  0  0  0  0
  156.6363  139.5364  157.1051 H   0  0  0  0  0  0  0  0  0  0  0  0
  155.9156  138.4163  155.9872 H   0  0  0  0  0  0  0  0  0  0  0  0
  151.7989  145.1073  158.0432 H   0  0  0  0  0  0  0  0  0  0  0  0
  150.1753  144.4543  158.0140 H   0  0  0  0  0  0  0  0  0  0  0  0
  150.4688  146.0334  159.9136 H   0  0  0  0  0  0  0  0  0  0  0  0
  150.0544  144.4284  160.4829 H   0  0  0  0  0  0  0  0  0  0  0  0
  153.4137  143.7007  161.5476 H   0  0  0  0  0  0  0  0  0  0  0  0
  151.7865  143.0576  161.4481 H   0  0  0  0  0  0  0  0  0  0  0  0
  153.2060  142.0362  159.7142 H   0  0  0  0  0  0  0  0  0  0  0  0
  153.6878  143.6007  159.0929 H   0  0  0  0  0  0  0  0  0  0  0  0
  149.1765  141.2907  155.5233 H   0  0  0  0  0  0  0  0  0  0  0  0
  1  2  1  0  0  0  0
  1 23  1  0  0  0  0
  1 24  1  0  0  0  0
  1 25  1  0  0  0  0
  2  3  2  0  0  0  0
  2  4  1  0  0  0  0
  4  5  1  0  0  0  0
  4 26  1  0  0  0  0
  5  6  1  0  0  0  0
  5 27  1  0  0  0  0
  5 28  1  0  0  0  0
  6  7  1  0  0  0  0
  6 29  1  0  0  0  0
  6 30  1  0  0  0  0
  7  8  1  0  0  0  0
  8  9  2  0  0  0  0
  8 10  1  0  0  0  0
 10 21  1  0  0  0  0
 10 11  2  0  0  0  0
 11 12  1  0  0  0  0
 12 13  1  0  0  0  0
 12 19  2  0  0  0  0
 13 18  1  0  0  0  0
 13 14  1  0  0  0  0
 14 15  1  0  0  0  0
 14 31  1  0  0  0  0
 14 32  1  0  0  0  0
 15 16  1  0  0  0  0
 15 33  1  0  0  0  0
 15 34  1  0  0  0  0
 16 17  1  0  0  0  0
 17 18  1  0  0  0  0
 17 35  1  0  0  0  0
 17 36  1  0  0  0  0
 18 37  1  0  0  0  0
 18 38  1  0  0  0  0
 19 20  1  0  0  0  0
 20 21  2  0  0  0  0
 20 39  1  0  0  0  0
 21 22  1  0  0  0  0
M  CHG  1   7  -1
M  END
> <s_m_source_file>
AV-unprocessed.smi

> <i_m_source_file_index>
574

> <i_lp_mmshare_version>
43012

> <i_f3d_flags>
0

> <s_epik_input>
W0NIM11DKD1PKVtOSF1bQ0gyXVtDSDJdW05IXUMoPU8pYzFuYyhuW2NIXWMxQ2wpTjJbQ0gyXVtDSDJdT1tDSDJdW0NIMl0y

> <s_epik_cmdline>
J2VwaWtfcHl0aG9uJywgJy1waCcsICc3LjAnLCAnLXRuJywgJzgnLCAnLW1hJywgJzIwMCcsICctbWV0YWxfYmluZGluZycsICctaW1hZScsICc8aW5maWxlLm1hZT4nLCAnLW9tYWUnLCAnPG91dGZpbGUubWFlPic=

> <r_lp_tautomer_probability>
1

> <r_epik_Ionization_Penalty>
5.61005

> <r_epik_Ionization_Penalty_Charging>
5.61003

> <r_epik_Ionization_Penalty_Neutral>
1.98059e-05

> <r_epik_State_Penalty>
5.60999

> <r_epik_Charging_Adjusted_Penalty>
11.22

> <i_epik_Tot_Q>
-1

> <i_epik_Tot_abs_Q>
1

> <r_epik_Metal_State_Penalty>
1.60231

> <b_epik_Metal_Only>
1

> <s_lp_Force_Field>
OPLS_2005

> <r_lp_Energy>
13.7471

> <b_lp_Chiralities_Consistent>
1

> <s_lp_Variant>
AV-unprocessed.smi:574-2

> <Gold.Version>
5.8.1

> <Gold.Id.Protein>
6NUR|6NUR_protein|mol2

> <Gold.PLP.Fitness>
45.5643

> <Gold.PLP.PLP>
-37.5198

> <Gold.PLP.part.hbond>
-2.0000

> <Gold.PLP.part.metal>
0.0000

> <Gold.PLP.part.buried>
-4.7116

> <Gold.PLP.part.nonpolar>
-31.4256

> <Gold.PLP.part.repulsive>
0.6325

> <Gold.PLP.ligand.clash>
0.0000

> <Gold.PLP.ligand.torsion>
0.5899

> <Gold.PLP.Chemscore.Hbond>
3.0000

> <Gold.PLP.Chemscore.CHOScore>
0.0000

> <Gold.PLP.Chemscore.Metal>
0.0000

> <Gold.Chemscore.Hbonds>
donor molecule, donor type, donor heavy atom, donor atom, acceptor molecule, acceptor atom, score
      P1  H 10752 10763       L1     3  0.02
      P1  H 10752 10764       L1     3  0.09

> <Gold.PLP.Chemscore.Internal.Correction>
0.2244

> <Gold.Rescore>
     Score         DG    S(hbond)    S(metal)    S(lipo)     H(rot)  DE(clash)    DE(int)     intcor
     12.86     -14.81       1.20        0.00      81.97       1.67       0.02       1.93       ----

> <Gold.Chemscore.Fitness>
12.8563

> <Gold.Chemscore.DG>
-14.8129

> <Gold.Chemscore.ZeroCoef>
-5.4800

> <Gold.Chemscore.Hbond>
1.2035

> <Gold.Chemscore.Metal>
0.0000

> <Gold.Chemscore.Lipo>
81.9739

> <Gold.Chemscore.Internal_Hbond>
0.0000

> <Gold.Chemscore.DEClash>
0.0234

> <Gold.Chemscore.DEInternal>
1.9332

> <Gold.Chemscore.Rot>
1.6710

> <Gold.Chemscore.Internal.Correction>
   9.000000E+99

> <Gold.Chemscore.Hbonds>
donor molecule, donor type, donor heavy atom, donor atom, acceptor molecule, acceptor atom, score
      P1  H 10752 10763       L1     3  0.05
      P1  H 10752 10764       L1     3  0.10

> <Gold.Chemscore.Hbond.Weighted>
-4.0199

> <Gold.Chemscore.Metal.Weighted>
-0.0000

> <Gold.Chemscore.Lipo.Weighted>
-9.5909

> <Gold.Chemscore.Internal_Hbond.Weighted>
0.0000

> <Gold.Chemscore.DEClash.Weighted>
0.0234

> <Gold.Chemscore.DEInternal.Weighted>
1.9332

> <Gold.Chemscore.Rot.Weighted>
4.2779

> <Gold.Chemscore.Internal.Correction.Weighted>
   9.000000E+99

> <Gold.Protein.RotatedTorsions>
[ 6907 6896 6895 6894 ] final  125.40 input  -60.11 | X-H torsion
[ 7974 7965 7964 7962 ] final  108.83 input  175.53 | X-H torsion
[ 8008 7997 7996 7995 ] final   13.52 input   59.86 | X-H torsion
[ 10167 10162 10161 10158 ] final   39.00 input  -65.29 | X-H torsion
[ 10718 10713 10712 10709 ] final  -19.41 input   66.30 | X-H torsion
[ 10763 10752 10751 10750 ] final  139.45 input  -60.55 | X-H torsion
[ 11005 11000 10999 10996 ] final   96.31 input  -57.11 | X-H torsion

> <Gold.Protein.ActiveResidues>
 VAL166  LYS551  ARG553  GLY616  TRP617  ASP618  TYR619  PRO620  LYS621  CYS622 
 ASP623  PHE694  ASN695  SER759  ASP760  ASP761  ALA762  ILE779  LEU786  VAL792 
 PHE793  MET794  SER795  GLU796  ALA797  LYS798  CYS799  TRP800  GLU811  SER814 

> <Gold.Protein.RotatedAtoms>
  152.3995  133.6797  159.6304 H   0  0  0  0  0  0  0  0  0  0  0  0  # atno 6907 bound_to 6896
  150.7889  133.8815  159.3296 H   0  0  0  0  0  0  0  0  0  0  0  0  # atno 6908 bound_to 6896
  151.6584  135.0994  160.0226 H   0  0  0  0  0  0  0  0  0  0  0  0  # atno 6909 bound_to 6896
  145.2756  139.2651  143.3943 H   0  0  0  0  0  0  0  0  0  0  0  0  # atno 7974 bound_to 7965
  154.8356  140.2906  155.5693 H   0  0  0  0  0  0  0  0  0  0  0  0  # atno 8008 bound_to 7997
  156.3008  140.2523  156.3221 H   0  0  0  0  0  0  0  0  0  0  0  0  # atno 8009 bound_to 7997
  154.9182  140.0386  157.1973 H   0  0  0  0  0  0  0  0  0  0  0  0  # atno 8010 bound_to 7997
  140.3882  144.1888  150.6130 H   0  0  0  0  0  0  0  0  0  0  0  0  # atno 10167 bound_to 10162
  156.5461  130.4690  149.6475 H   0  0  0  0  0  0  0  0  0  0  0  0  # atno 10718 bound_to 10713
  153.9064  135.3016  155.3448 H   0  0  0  0  0  0  0  0  0  0  0  0  # atno 10763 bound_to 10752
  154.7645  135.4917  153.9531 H   0  0  0  0  0  0  0  0  0  0  0  0  # atno 10764 bound_to 10752
  153.1217  135.6783  153.9426 H   0  0  0  0  0  0  0  0  0  0  0  0  # atno 10765 bound_to 10752
  139.8782  134.8944  156.4139 H   0  0  0  0  0  0  0  0  0  0  0  0  # atno 11005 bound_to 11000
  146.3232  140.3211  142.8633 LP  0  0  0  0  0  0  0  0  0  0  0  0  # atno 17320 bound_to 7965
  144.9297  140.7961  143.5697 LP  0  0  0  0  0  0  0  0  0  0  0  0  # atno 17321 bound_to 7965
  140.4867  143.2361  151.8877 LP  0  0  0  0  0  0  0  0  0  0  0  0  # atno 17342 bound_to 10162
  139.4790  144.5210  151.8801 LP  0  0  0  0  0  0  0  0  0  0  0  0  # atno 17343 bound_to 10162
  156.2927  130.7133  151.1986 LP  0  0  0  0  0  0  0  0  0  0  0  0  # atno 17370 bound_to 10713
  157.7396  131.0527  150.5219 LP  0  0  0  0  0  0  0  0  0  0  0  0  # atno 17371 bound_to 10713
  140.9181  133.7664  155.9873 LP  0  0  0  0  0  0  0  0  0  0  0  0  # atno 17394 bound_to 11000
  140.8471  134.2998  157.5290 LP  0  0  0  0  0  0  0  0  0  0  0  0  # atno 17395 bound_to 11000

$$$$
