AV-unprocessed.smi:103|AV-procd|sdf|992|dock2
  -GOLD-   2262017573D 1   1.00000     0.00000
 Structure written by MMmdl.
 53 55  0  0  0  0  0  0  0  0  1 V2000
  145.1071  136.7619  160.3946 C   0  0  0  0  0  0  0  0  0  0  0  0
  146.5874  136.4272  160.2645 C   0  0  0  0  0  0  0  0  0  0  0  0
  147.4362  136.9915  160.9547 O   0  0  0  0  0  0  0  0  0  0  0  0
  146.8215  135.4833  159.3416 O   0  0  0  0  0  0  0  0  0  0  0  0
  148.1560  135.1055  159.0455 C   0  0  0  0  0  0  0  0  0  0  0  0
  148.8349  136.2215  158.2449 C   0  0  1  0  0  0  0  0  0  0  0  0
  149.5930  137.0540  159.1187 O   0  0  0  0  0  0  0  0  0  0  0  0
  150.7404  137.5198  158.4714 C   0  0  2  0  0  0  0  0  0  0  0  0
  150.7589  139.0206  158.5062 N   0  0  0  0  0  0  0  0  0  0  0  0
  151.7735  139.8655  158.9081 C   0  0  0  0  0  0  0  0  0  0  0  0
  153.3561  139.3753  159.5815 S   0  0  0  0  0  0  0  0  0  0  0  0
  152.9122  137.8559  160.5161 C   0  0  0  0  0  0  0  0  0  0  0  0
  154.2190  139.0094  158.4479 O   0  0  0  0  0  0  0  0  0  0  0  0
  153.7657  140.4277  160.5246 O   0  0  0  0  0  0  0  0  0  0  0  0
  151.5174  141.1449  158.8847 N   0  0  0  0  0  0  0  0  0  0  0  0
  150.2404  141.1979  158.3451 C   0  0  0  0  0  0  0  0  0  0  0  0
  149.3605  142.2552  158.0028 C   0  0  0  0  0  0  0  0  0  0  0  0
  149.6698  143.5477  158.1747 N   0  0  0  0  0  0  0  0  0  0  0  0
  148.1533  141.9478  157.4741 N   0  0  0  0  0  0  0  0  0  0  0  0
  147.8221  140.6661  157.2911 C   0  0  0  0  0  0  0  0  0  0  0  0
  148.5365  139.5722  157.5665 N   0  0  0  0  0  0  0  0  0  0  0  0
  149.7554  139.8808  158.0998 C   0  0  0  0  0  0  0  0  0  0  0  0
  150.7367  136.9496  157.0397 C   0  0  2  0  0  0  0  0  0  0  0  0
  150.1532  137.8615  156.1077 O   0  0  0  0  0  0  0  0  0  0  0  0
  150.9242  138.6747  155.3645 C   0  0  0  0  0  0  0  0  0  0  0  0
  150.1176  139.4403  154.3253 C   0  0  0  0  0  0  0  0  0  0  0  0
  152.1385  138.8346  155.4827 O   0  0  0  0  0  0  0  0  0  0  0  0
  149.8562  135.7243  157.2235 C   0  0  2  0  0  0  0  0  0  0  0  0
  149.2420  135.2999  156.0119 O   0  0  0  0  0  0  0  0  0  0  0  0
  149.9909  135.0640  154.9224 C   0  0  0  0  0  0  0  0  0  0  0  0
  149.2617  134.2164  153.8889 C   0  0  0  0  0  0  0  0  0  0  0  0
  151.1371  135.4692  154.7301 O   0  0  0  0  0  0  0  0  0  0  0  0
  144.8782  137.6718  159.8401 H   0  0  0  0  0  0  0  0  0  0  0  0
  144.8446  136.9190  161.4407 H   0  0  0  0  0  0  0  0  0  0  0  0
  144.4906  135.9523  160.0030 H   0  0  0  0  0  0  0  0  0  0  0  0
  148.6935  134.9374  159.9796 H   0  0  0  0  0  0  0  0  0  0  0  0
  148.1759  134.1713  158.4822 H   0  0  0  0  0  0  0  0  0  0  0  0
  148.0861  136.8454  157.7545 H   0  0  0  0  0  0  0  0  0  0  0  0
  151.6032  137.2047  159.0563 H   0  0  0  0  0  0  0  0  0  0  0  0
  153.8040  137.4497  160.9925 H   0  0  0  0  0  0  0  0  0  0  0  0
  152.4949  137.1157  159.8341 H   0  0  0  0  0  0  0  0  0  0  0  0
  152.1739  138.1028  161.2788 H   0  0  0  0  0  0  0  0  0  0  0  0
  150.5657  143.8028  158.5644 H   0  0  0  0  0  0  0  0  0  0  0  0
  149.0088  144.2638  157.9104 H   0  0  0  0  0  0  0  0  0  0  0  0
  146.8455  140.4916  156.8642 H   0  0  0  0  0  0  0  0  0  0  0  0
  151.7478  136.6624  156.7485 H   0  0  0  0  0  0  0  0  0  0  0  0
  149.4014  140.0998  154.8162 H   0  0  0  0  0  0  0  0  0  0  0  0
  149.5707  138.7481  153.6848 H   0  0  0  0  0  0  0  0  0  0  0  0
  150.7738  140.0460  153.7003 H   0  0  0  0  0  0  0  0  0  0  0  0
  150.4392  134.9175  157.6713 H   0  0  0  0  0  0  0  0  0  0  0  0
  148.5434  134.8257  153.3403 H   0  0  0  0  0  0  0  0  0  0  0  0
  148.7264  133.3996  154.3736 H   0  0  0  0  0  0  0  0  0  0  0  0
  149.9691  133.7904  153.1773 H   0  0  0  0  0  0  0  0  0  0  0  0
  1  2  1  0  0  0  0
  1 33  1  0  0  0  0
  1 34  1  0  0  0  0
  1 35  1  0  0  0  0
  2  3  2  0  0  0  0
  2  4  1  0  0  0  0
  4  5  1  0  0  0  0
  5  6  1  0  0  0  0
  5 36  1  0  0  0  0
  5 37  1  0  0  0  0
  6 28  1  0  0  0  0
  6  7  1  0  0  0  0
  6 38  1  0  0  0  0
  7  8  1  0  0  0  0
  8  9  1  0  0  0  0
  8 23  1  0  0  0  0
  8 39  1  0  0  0  0
  9 22  1  0  0  0  0
  9 10  1  0  0  0  0
 10 11  1  0  0  0  0
 10 15  2  0  0  0  0
 11 12  1  0  0  0  0
 11 13  2  0  0  0  0
 11 14  2  0  0  0  0
 12 40  1  0  0  0  0
 12 41  1  0  0  0  0
 12 42  1  0  0  0  0
 15 16  1  0  0  0  0
 16 22  2  0  0  0  0
 16 17  1  0  0  0  0
 17 18  1  0  0  0  0
 17 19  2  0  0  0  0
 18 43  1  0  0  0  0
 18 44  1  0  0  0  0
 19 20  1  0  0  0  0
 20 21  2  0  0  0  0
 20 45  1  0  0  0  0
 21 22  1  0  0  0  0
 23 24  1  0  0  0  0
 23 28  1  0  0  0  0
 23 46  1  0  0  0  0
 24 25  1  0  0  0  0
 25 26  1  0  0  0  0
 25 27  2  0  0  0  0
 26 47  1  0  0  0  0
 26 48  1  0  0  0  0
 26 49  1  0  0  0  0
 28 29  1  0  0  0  0
 28 50  1  0  0  0  0
 29 30  1  0  0  0  0
 30 31  1  0  0  0  0
 30 32  2  0  0  0  0
 31 51  1  0  0  0  0
 31 52  1  0  0  0  0
 31 53  1  0  0  0  0
M  END
> <s_m_source_file>
AV-unprocessed.smi

> <i_m_source_file_index>
103

> <i_lp_mmshare_version>
43012

> <i_f3d_flags>
0

> <s_epik_input>
W0NIM11DKD1PKU9bQ0gyXVtDQEBIXTFPW0NASF0oW0NAQEhdKE9DKD1PKVtDSDNdKVtDQEhdMU9DKD1PKVtDSDNdKW4oYyhuMilTKD1PKSg9TylbQ0gzXSljKGMyMyluW2NIXW5jM1tOSDJd

> <s_epik_cmdline>
J2VwaWtfcHl0aG9uJywgJy1waCcsICc3LjAnLCAnLXRuJywgJzgnLCAnLW1hJywgJzIwMCcsICctbWV0YWxfYmluZGluZycsICctaW1hZScsICc8aW5maWxlLm1hZT4nLCAnLW9tYWUnLCAnPG91dGZpbGUubWFlPic=

> <r_lp_tautomer_probability>
1

> <r_epik_Ionization_Penalty>
1.51338e-05

> <r_epik_Ionization_Penalty_Charging>
0

> <r_epik_Ionization_Penalty_Neutral>
1.51338e-05

> <r_epik_State_Penalty>
-0

> <r_epik_Charging_Adjusted_Penalty>
0

> <i_epik_Tot_Q>
0

> <i_epik_Tot_abs_Q>
0

> <r_epik_Metal_State_Penalty>
-0

> <b_epik_Metal_Only>
0

> <s_epik_Chemistry_Notes>
This compound has an ester and may undergo hydrolysis at high or low pH. This compound contains an acetal/aminal-like group ( X-CH(R)-Y where X, Y are N, S, or O) that may be acid/base labile, releasing an aldehyde.

> <s_lp_Force_Field>
OPLS_2005

> <r_lp_Energy>
14.4013

> <b_lp_Chiralities_Consistent>
1

> <s_lp_Variant>
AV-unprocessed.smi:103-16

> <Gold.Version>
5.8.1

> <Gold.Id.Protein>
6NUR|6NUR_protein|mol2

> <Gold.PLP.Fitness>
43.8029

> <Gold.PLP.PLP>
-33.1312

> <Gold.PLP.part.hbond>
-5.9189

> <Gold.PLP.part.metal>
0.0000

> <Gold.PLP.part.buried>
-6.3467

> <Gold.PLP.part.nonpolar>
-21.6395

> <Gold.PLP.part.repulsive>
0.3480

> <Gold.PLP.ligand.clash>
0.0000

> <Gold.PLP.ligand.torsion>
2.5983

> <Gold.PLP.Chemscore.Hbond>
4.2748

> <Gold.PLP.Chemscore.CHOScore>
0.0000

> <Gold.PLP.Chemscore.Metal>
0.0000

> <Gold.Chemscore.Hbonds>
donor molecule, donor type, donor heavy atom, donor atom, acceptor molecule, acceptor atom, score
      L1  H    18    44       P1  8029  0.45
      P1  H  6931  6943       L1     3  0.43
      P1  H  6934  6947       L1     3  0.96
      P1  H  7997  8008       L1    13  1.00
      P1  H 10752 10765       L1    32  1.00

> <Gold.PLP.Chemscore.Internal.Correction>
3.0438

> <Gold.Rescore>
     Score         DG    S(hbond)    S(metal)    S(lipo)     H(rot)  DE(clash)    DE(int)     intcor
      4.52     -11.53       3.70        0.00      39.06       4.25       0.34       6.67       ----

> <Gold.Chemscore.Fitness>
4.5195

> <Gold.Chemscore.DG>
-11.5266

> <Gold.Chemscore.ZeroCoef>
-5.4800

> <Gold.Chemscore.Hbond>
3.6960

> <Gold.Chemscore.Metal>
0.0000

> <Gold.Chemscore.Lipo>
39.0641

> <Gold.Chemscore.Internal_Hbond>
0.0000

> <Gold.Chemscore.DEClash>
0.3370

> <Gold.Chemscore.DEInternal>
6.6700

> <Gold.Chemscore.Rot>
4.2456

> <Gold.Chemscore.Internal.Correction>
   9.000000E+99

> <Gold.Chemscore.Hbonds>
donor molecule, donor type, donor heavy atom, donor atom, acceptor molecule, acceptor atom, score
      L1  H    18    44       P1  8029  0.03
      P1  H  6931  6943       L1     3  0.43
      P1  H  6934  6947       L1     3  0.69
      P1  H  7997  8008       L1    13  1.00
      P1  H 10752 10765       L1    32  0.96

> <Gold.Chemscore.Hbond.Weighted>
-12.3447

> <Gold.Chemscore.Metal.Weighted>
-0.0000

> <Gold.Chemscore.Lipo.Weighted>
-4.5705

> <Gold.Chemscore.Internal_Hbond.Weighted>
0.0000

> <Gold.Chemscore.DEClash.Weighted>
0.3370

> <Gold.Chemscore.DEInternal.Weighted>
6.6700

> <Gold.Chemscore.Rot.Weighted>
10.8687

> <Gold.Chemscore.Internal.Correction.Weighted>
   9.000000E+99

> <Gold.Protein.RotatedTorsions>
[ 6907 6896 6895 6894 ] final   77.26 input  -60.11 | X-H torsion
[ 7974 7965 7964 7962 ] final -157.56 input  175.53 | X-H torsion
[ 8008 7997 7996 7995 ] final  -99.26 input   59.86 | X-H torsion
[ 10167 10162 10161 10158 ] final -146.14 input  -65.29 | X-H torsion
[ 10718 10713 10712 10709 ] final -111.43 input   66.30 | X-H torsion
[ 10763 10752 10751 10750 ] final  178.07 input  -60.55 | X-H torsion
[ 11005 11000 10999 10996 ] final -175.27 input  -57.11 | X-H torsion

> <Gold.Protein.ActiveResidues>
 VAL166  LYS551  ARG553  GLY616  TRP617  ASP618  TYR619  PRO620  LYS621  CYS622 
 ASP623  PHE694  ASN695  SER759  ASP760  ASP761  ALA762  ILE779  LEU786  VAL792 
 PHE793  MET794  SER795  GLU796  ALA797  LYS798  CYS799  TRP800  GLU811  SER814 

> <Gold.Protein.RotatedAtoms>
  152.5110  134.3844  159.9361 H   0  0  0  0  0  0  0  0  0  0  0  0  # atno 6907 bound_to 6896
  151.3802  133.3818  159.2717 H   0  0  0  0  0  0  0  0  0  0  0  0  # atno 6908 bound_to 6896
  150.9511  134.8931  159.7731 H   0  0  0  0  0  0  0  0  0  0  0  0  # atno 6909 bound_to 6896
  144.7543  140.3952  143.6024 H   0  0  0  0  0  0  0  0  0  0  0  0  # atno 7974 bound_to 7965
  154.8124  140.0449  157.1352 H   0  0  0  0  0  0  0  0  0  0  0  0  # atno 8008 bound_to 7997
  154.9353  140.3045  155.5127 H   0  0  0  0  0  0  0  0  0  0  0  0  # atno 8009 bound_to 7997
  156.2973  140.2315  156.4417 H   0  0  0  0  0  0  0  0  0  0  0  0  # atno 8010 bound_to 7997
  139.7740  143.8196  152.2629 H   0  0  0  0  0  0  0  0  0  0  0  0  # atno 10167 bound_to 10162
  156.0646  130.5867  150.8372 H   0  0  0  0  0  0  0  0  0  0  0  0  # atno 10718 bound_to 10713
  154.5028  135.2784  155.1407 H   0  0  0  0  0  0  0  0  0  0  0  0  # atno 10763 bound_to 10752
  154.3033  135.6243  153.5438 H   0  0  0  0  0  0  0  0  0  0  0  0  # atno 10764 bound_to 10752
  152.9905  135.5702  154.5475 H   0  0  0  0  0  0  0  0  0  0  0  0  # atno 10765 bound_to 10752
  140.4652  134.6217  157.4859 H   0  0  0  0  0  0  0  0  0  0  0  0  # atno 11005 bound_to 11000
  145.6834  139.1623  143.2688 LP  0  0  0  0  0  0  0  0  0  0  0  0  # atno 17320 bound_to 7965
  146.1533  140.6893  142.9311 LP  0  0  0  0  0  0  0  0  0  0  0  0  # atno 17321 bound_to 7965
  139.8239  144.7284  150.9537 LP  0  0  0  0  0  0  0  0  0  0  0  0  # atno 17342 bound_to 10162
  140.7815  143.4133  151.0957 LP  0  0  0  0  0  0  0  0  0  0  0  0  # atno 17343 bound_to 10162
  157.5679  131.0946  150.9461 LP  0  0  0  0  0  0  0  0  0  0  0  0  # atno 17370 bound_to 10713
  156.9684  130.5481  149.5289 LP  0  0  0  0  0  0  0  0  0  0  0  0  # atno 17371 bound_to 10713
  139.9920  134.6970  155.9673 LP  0  0  0  0  0  0  0  0  0  0  0  0  # atno 17394 bound_to 11000
  141.1603  133.6539  156.4296 LP  0  0  0  0  0  0  0  0  0  0  0  0  # atno 17395 bound_to 11000

$$$$
