AV-unprocessed.smi:1013|AV-procd|sdf|4426|dock4
  -GOLD-   22720 2383D 1   1.00000     0.00000
 Structure written by MMmdl.
 30 31  0  0  0  0  0  0  0  0  3 V2000
  152.8239  139.7908  156.5081 O   0  0  0  0  0  0  0  0  0  0  0  0
  151.6208  139.7086  156.1777 C   0  0  0  0  0  0  0  0  0  0  0  0
  151.1806  139.8542  155.0146 O   0  5  0  0  0  0  0  0  0  0  0  0
  150.6079  139.4182  157.3012 C   0  0  2  0  0  0  0  0  0  0  0  0
  151.2938  139.4371  158.6865 C   0  0  0  0  0  0  0  0  0  0  0  0
  151.8665  140.7328  159.0115 N   0  0  0  0  0  0  0  0  0  0  0  0
  153.1674  141.0344  159.3518 C   0  0  0  0  0  0  0  0  0  0  0  0
  153.2280  142.3807  159.5688 C   0  0  0  0  0  0  0  0  0  0  0  0
  151.8967  142.8306  159.3297 C   0  0  0  0  0  0  0  0  0  0  0  0
  151.3539  144.2326  159.4178 C   0  0  0  0  0  0  0  0  0  0  0  0
  151.5354  144.7218  160.6446 F   0  0  0  0  0  0  0  0  0  0  0  0
  151.9842  145.0193  158.5457 F   0  0  0  0  0  0  0  0  0  0  0  0
  150.0497  144.2356  159.1434 F   0  0  0  0  0  0  0  0  0  0  0  0
  151.0892  141.8357  158.9876 N   0  0  0  0  0  0  0  0  0  0  0  0
  149.9833  138.0974  157.0687 N   0  3  0  0  0  0  0  0  0  0  0  0
  149.1033  137.6309  158.1602 C   0  0  0  0  0  0  0  0  0  0  0  0
  149.8283  136.8778  159.2482 C   0  0  0  0  0  0  0  0  0  0  0  0
  148.9929  136.1281  158.2310 C   0  0  0  0  0  0  0  0  0  0  0  0
  149.8149  140.1691  157.2955 H   0  0  0  0  0  0  0  0  0  0  0  0
  150.5649  139.2001  159.4622 H   0  0  0  0  0  0  0  0  0  0  0  0
  152.0690  138.6711  158.7541 H   0  0  0  0  0  0  0  0  0  0  0  0
  153.9318  140.2744  159.4161 H   0  0  0  0  0  0  0  0  0  0  0  0
  154.0931  142.9588  159.8575 H   0  0  0  0  0  0  0  0  0  0  0  0
  149.4493  138.1533  156.2128 H   0  0  0  0  0  0  0  0  0  0  0  0
  148.2362  138.2490  158.3857 H   0  0  0  0  0  0  0  0  0  0  0  0
  150.9109  136.7885  159.1773 H   0  0  0  0  0  0  0  0  0  0  0  0
  149.4331  136.9550  160.2591 H   0  0  0  0  0  0  0  0  0  0  0  0
  148.0489  135.7094  158.5739 H   0  0  0  0  0  0  0  0  0  0  0  0
  149.5214  135.5348  157.4866 H   0  0  0  0  0  0  0  0  0  0  0  0
  150.7186  137.4161  156.9510 H   0  0  0  0  0  0  0  0  0  0  0  0
  1  2  2  0  0  0  0
  2  3  1  0  0  0  0
  2  4  1  0  0  0  0
  4  5  1  0  0  0  0
  4 15  1  0  0  0  0
  4 19  1  0  0  0  0
  5  6  1  0  0  0  0
  5 20  1  0  0  0  0
  5 21  1  0  0  0  0
  6 14  1  0  0  0  0
  6  7  1  0  0  0  0
  7  8  2  0  0  0  0
  7 22  1  0  0  0  0
  8  9  1  0  0  0  0
  8 23  1  0  0  0  0
  9 10  1  0  0  0  0
  9 14  2  0  0  0  0
 10 11  1  0  0  0  0
 10 12  1  0  0  0  0
 10 13  1  0  0  0  0
 15 16  1  0  0  0  0
 15 24  1  0  0  0  0
 15 30  1  0  0  0  0
 16 18  1  0  0  0  0
 16 17  1  0  0  0  0
 16 25  1  0  0  0  0
 17 18  1  0  0  0  0
 17 26  1  0  0  0  0
 17 27  1  0  0  0  0
 18 28  1  0  0  0  0
 18 29  1  0  0  0  0
M  CHG  1   3  -1
M  CHG  1  15   1
M  END
> <s_m_source_file>
AV-unprocessed.smi

> <i_m_source_file_index>
1013

> <i_lp_mmshare_version>
43012

> <i_f3d_flags>
0

> <s_epik_input>
W0NIMl0xW0NIMl1bQ0hdMVtOSF1bQ0BIXShDKD1PKVtPSF0pW0NIMl1uMltjSF1bY0hdYyhuMilDKEYpKEYpRg==

> <s_epik_cmdline>
J2VwaWtfcHl0aG9uJywgJy1waCcsICc3LjAnLCAnLXRuJywgJzgnLCAnLW1hJywgJzIwMCcsICctbWV0YWxfYmluZGluZycsICctaW1hZScsICc8aW5maWxlLm1hZT4nLCAnLW9tYWUnLCAnPG91dGZpbGUubWFlPic=

> <r_lp_tautomer_probability>
1

> <r_epik_Ionization_Penalty>
0.183175

> <r_epik_Ionization_Penalty_Charging>
0.183175

> <r_epik_Ionization_Penalty_Neutral>
3.57035e-11

> <r_epik_State_Penalty>
0.172705

> <r_epik_Charging_Adjusted_Penalty>
0.35588

> <i_epik_Tot_Q>
0

> <i_epik_Tot_abs_Q>
2

> <r_epik_Metal_State_Penalty>
0.172705

> <b_epik_Metal_Only>
0

> <s_lp_Force_Field>
OPLS_2005

> <r_lp_Energy>
11.6824

> <b_lp_Chiralities_Consistent>
1

> <s_lp_Variant>
AV-unprocessed.smi:1013-1

> <Gold.Version>
5.8.1

> <Gold.Id.Protein>
6NUR|6NUR_protein|mol2

> <Gold.PLP.Fitness>
46.6196

> <Gold.PLP.PLP>
-37.8298

> <Gold.PLP.part.hbond>
-2.0000

> <Gold.PLP.part.metal>
0.0000

> <Gold.PLP.part.buried>
-5.9649

> <Gold.PLP.part.nonpolar>
-29.8243

> <Gold.PLP.part.repulsive>
0.0475

> <Gold.PLP.ligand.clash>
0.0000

> <Gold.PLP.ligand.torsion>
0.4409

> <Gold.PLP.Chemscore.Hbond>
3.0000

> <Gold.PLP.Chemscore.CHOScore>
0.0000

> <Gold.PLP.Chemscore.Metal>
0.0000

> <Gold.Chemscore.Hbonds>
donor molecule, donor type, donor heavy atom, donor atom, acceptor molecule, acceptor atom, score
      P1  H  7989  7998       L1     3  1.00
      P1  H  7997  8010       L1     1  2.00

> <Gold.PLP.Chemscore.Internal.Correction>
0.6716

> <Gold.Rescore>
     Score         DG    S(hbond)    S(metal)    S(lipo)     H(rot)  DE(clash)    DE(int)     intcor
     10.90     -12.61       2.00        0.00      60.78       2.60       0.00       1.71       ----

> <Gold.Chemscore.Fitness>
10.8957

> <Gold.Chemscore.DG>
-12.6079

> <Gold.Chemscore.ZeroCoef>
-5.4800

> <Gold.Chemscore.Hbond>
1.9957

> <Gold.Chemscore.Metal>
0.0000

> <Gold.Chemscore.Lipo>
60.7756

> <Gold.Chemscore.Internal_Hbond>
0.0000

> <Gold.Chemscore.DEClash>
0.0011

> <Gold.Chemscore.DEInternal>
1.7111

> <Gold.Chemscore.Rot>
2.5970

> <Gold.Chemscore.Internal.Correction>
   9.000000E+99

> <Gold.Chemscore.Hbonds>
donor molecule, donor type, donor heavy atom, donor atom, acceptor molecule, acceptor atom, score
      P1  H  7989  7998       L1     3  1.00
      P1  H  7997  8010       L1     1  0.96

> <Gold.Chemscore.Hbond.Weighted>
-6.6655

> <Gold.Chemscore.Metal.Weighted>
-0.0000

> <Gold.Chemscore.Lipo.Weighted>
-7.1107

> <Gold.Chemscore.Internal_Hbond.Weighted>
0.0000

> <Gold.Chemscore.DEClash.Weighted>
0.0011

> <Gold.Chemscore.DEInternal.Weighted>
1.7111

> <Gold.Chemscore.Rot.Weighted>
6.6484

> <Gold.Chemscore.Internal.Correction.Weighted>
   9.000000E+99

> <Gold.Protein.RotatedTorsions>
[ 6907 6896 6895 6894 ] final   70.60 input  -60.11 | X-H torsion
[ 7974 7965 7964 7962 ] final   97.25 input  175.53 | X-H torsion
[ 8008 7997 7996 7995 ] final   79.49 input   59.86 | X-H torsion
[ 10167 10162 10161 10158 ] final  164.96 input  -65.29 | X-H torsion
[ 10718 10713 10712 10709 ] final   38.53 input   66.30 | X-H torsion
[ 10763 10752 10751 10750 ] final  142.18 input  -60.55 | X-H torsion
[ 11005 11000 10999 10996 ] final  -84.54 input  -57.11 | X-H torsion

> <Gold.Protein.ActiveResidues>
 VAL166  LYS551  ARG553  GLY616  TRP617  ASP618  TYR619  PRO620  LYS621  CYS622 
 ASP623  PHE694  ASN695  SER759  ASP760  ASP761  ALA762  ILE779  LEU786  VAL792 
 PHE793  MET794  SER795  GLU796  ALA797  LYS798  CYS799  TRP800  GLU811  SER814 

> <Gold.Protein.RotatedAtoms>
  152.4759  134.4844  159.9675 H   0  0  0  0  0  0  0  0  0  0  0  0  # atno 6907 bound_to 6896
  151.4860  133.3529  159.2853 H   0  0  0  0  0  0  0  0  0  0  0  0  # atno 6908 bound_to 6896
  150.8798  134.8214  159.7278 H   0  0  0  0  0  0  0  0  0  0  0  0  # atno 6909 bound_to 6896
  145.4280  139.2313  143.3159 H   0  0  0  0  0  0  0  0  0  0  0  0  # atno 7974 bound_to 7965
  155.8704  140.3449  155.5817 H   0  0  0  0  0  0  0  0  0  0  0  0  # atno 8008 bound_to 7997
  155.7833  140.0861  157.2067 H   0  0  0  0  0  0  0  0  0  0  0  0  # atno 8009 bound_to 7997
  154.4017  140.1496  156.3065 H   0  0  0  0  0  0  0  0  0  0  0  0  # atno 8010 bound_to 7997
  139.4897  144.4181  151.9219 H   0  0  0  0  0  0  0  0  0  0  0  0  # atno 10167 bound_to 10162
  157.3599  130.7644  149.7040 H   0  0  0  0  0  0  0  0  0  0  0  0  # atno 10718 bound_to 10713
  153.9515  135.2969  155.3438 H   0  0  0  0  0  0  0  0  0  0  0  0  # atno 10763 bound_to 10752
  154.7424  135.5018  153.9148 H   0  0  0  0  0  0  0  0  0  0  0  0  # atno 10764 bound_to 10752
  153.0992  135.6729  153.9814 H   0  0  0  0  0  0  0  0  0  0  0  0  # atno 10765 bound_to 10752
  141.1649  133.7351  156.8883 H   0  0  0  0  0  0  0  0  0  0  0  0  # atno 11005 bound_to 11000
  146.2622  140.5014  142.8849 LP  0  0  0  0  0  0  0  0  0  0  0  0  # atno 17320 bound_to 7965
  144.8201  140.6535  143.6358 LP  0  0  0  0  0  0  0  0  0  0  0  0  # atno 17321 bound_to 7965
  140.3624  144.2956  150.5931 LP  0  0  0  0  0  0  0  0  0  0  0  0  # atno 17342 bound_to 10162
  140.5391  143.2227  151.8114 LP  0  0  0  0  0  0  0  0  0  0  0  0  # atno 17343 bound_to 10162
  155.9735  130.4116  150.3992 LP  0  0  0  0  0  0  0  0  0  0  0  0  # atno 17370 bound_to 10713
  157.2068  131.0451  151.2621 LP  0  0  0  0  0  0  0  0  0  0  0  0  # atno 17371 bound_to 10713
  140.1666  134.9129  157.2781 LP  0  0  0  0  0  0  0  0  0  0  0  0  # atno 17394 bound_to 11000
  140.2550  134.3638  155.7428 LP  0  0  0  0  0  0  0  0  0  0  0  0  # atno 17395 bound_to 11000

$$$$
