AV-unprocessed.smi:680|AV-procd|sdf|3323|dock10
  -GOLD-   22720 0293D 1   1.00000     0.00000
 Structure written by MMmdl.
 32 33  0  0  0  0  0  0  0  0  1 V2000
  143.8241  143.7389  162.8084 C   0  0  0  0  0  0  0  0  0  0  0  0
  144.6987  144.2514  161.7025 C   0  0  0  0  0  0  0  0  0  0  0  0
  146.1197  144.2640  161.6348 C   0  0  0  0  0  0  0  0  0  0  0  0
  146.3600  144.8374  160.4146 C   0  0  0  0  0  0  0  0  0  0  0  0
  147.5554  145.0942  159.8223 N   0  0  0  0  0  0  0  0  0  0  0  0
  148.7935  144.7930  160.2527 C   0  0  0  0  0  0  0  0  0  0  0  0
  149.0620  144.2062  161.3011 O   0  0  0  0  0  0  0  0  0  0  0  0
  149.7220  145.2236  159.3861 N   0  0  0  0  0  0  0  0  0  0  0  0
  151.1673  145.0870  159.5494 C   0  0  0  0  0  0  0  0  0  0  0  0
  151.5804  143.6193  159.7717 C   0  0  2  0  0  0  0  0  0  0  0  0
  153.0931  143.5072  160.0352 C   0  0  0  0  0  0  0  0  0  0  0  0
  153.5651  141.8685  160.6570 S   0  0  0  0  0  0  0  0  0  0  0  0
  153.0703  140.8446  159.2447 C   0  0  0  0  0  0  0  0  0  0  0  0
  151.5661  140.9466  158.9650 C   0  0  0  0  0  0  0  0  0  0  0  0
  151.1023  142.5884  158.3483 S   0  0  0  0  0  0  0  0  0  0  0  0
  145.2028  145.1485  159.7818 O   0  0  0  0  0  0  0  0  0  0  0  0
  144.1446  144.7708  160.6168 N   0  0  0  0  0  0  0  0  0  0  0  0
  144.4211  143.3440  163.6307 H   0  0  0  0  0  0  0  0  0  0  0  0
  143.1748  142.9373  162.4559 H   0  0  0  0  0  0  0  0  0  0  0  0
  143.1909  144.5311  163.2086 H   0  0  0  0  0  0  0  0  0  0  0  0
  146.8253  143.9055  162.3687 H   0  0  0  0  0  0  0  0  0  0  0  0
  147.5001  145.5905  158.9452 H   0  0  0  0  0  0  0  0  0  0  0  0
  149.4060  145.6962  158.5518 H   0  0  0  0  0  0  0  0  0  0  0  0
  151.7137  145.5073  158.7031 H   0  0  0  0  0  0  0  0  0  0  0  0
  151.4487  145.6843  160.4170 H   0  0  0  0  0  0  0  0  0  0  0  0
  151.0478  143.2453  160.6473 H   0  0  0  0  0  0  0  0  0  0  0  0
  153.6615  143.7312  159.1318 H   0  0  0  0  0  0  0  0  0  0  0  0
  153.3971  144.2362  160.7868 H   0  0  0  0  0  0  0  0  0  0  0  0
  153.6461  141.1359  158.3657 H   0  0  0  0  0  0  0  0  0  0  0  0
  153.3337  139.8107  159.4685 H   0  0  0  0  0  0  0  0  0  0  0  0
  151.2826  140.2118  158.2113 H   0  0  0  0  0  0  0  0  0  0  0  0
  150.9898  140.7191  159.8622 H   0  0  0  0  0  0  0  0  0  0  0  0
  1  2  1  0  0  0  0
  1 18  1  0  0  0  0
  1 19  1  0  0  0  0
  1 20  1  0  0  0  0
  2 17  2  0  0  0  0
  2  3  1  0  0  0  0
  3  4  2  0  0  0  0
  3 21  1  0  0  0  0
  4  5  1  0  0  0  0
  4 16  1  0  0  0  0
  5  6  1  0  0  0  0
  5 22  1  0  0  0  0
  6  7  2  0  0  0  0
  6  8  1  0  0  0  0
  8  9  1  0  0  0  0
  8 23  1  0  0  0  0
  9 10  1  0  0  0  0
  9 24  1  0  0  0  0
  9 25  1  0  0  0  0
 10 15  1  0  0  0  0
 10 11  1  0  0  0  0
 10 26  1  0  0  0  0
 11 12  1  0  0  0  0
 11 27  1  0  0  0  0
 11 28  1  0  0  0  0
 12 13  1  0  0  0  0
 13 14  1  0  0  0  0
 13 29  1  0  0  0  0
 13 30  1  0  0  0  0
 14 15  1  0  0  0  0
 14 31  1  0  0  0  0
 14 32  1  0  0  0  0
 16 17  1  0  0  0  0
M  END
> <s_m_source_file>
AV-unprocessed.smi

> <i_m_source_file_index>
680

> <i_lp_mmshare_version>
43012

> <i_f3d_flags>
0

> <s_epik_input>
W0NIM11jMVtjSF1jKG9uMSlbTkhdQyg9TylbTkhdW0NIMl1bQ0BASF0yW0NIMl1TW0NIMl1bQ0gyXVMy

> <s_epik_cmdline>
J2VwaWtfcHl0aG9uJywgJy1waCcsICc3LjAnLCAnLXRuJywgJzgnLCAnLW1hJywgJzIwMCcsICctbWV0YWxfYmluZGluZycsICctaW1hZScsICc8aW5maWxlLm1hZT4nLCAnLW9tYWUnLCAnPG91dGZpbGUubWFlPic=

> <r_epik_Ionization_Penalty>
0.000554698

> <r_epik_Ionization_Penalty_Charging>
0

> <r_epik_Ionization_Penalty_Neutral>
0.000554698

> <r_epik_State_Penalty>
0.000333438

> <r_epik_Charging_Adjusted_Penalty>
0.000333438

> <i_epik_Tot_Q>
0

> <i_epik_Tot_abs_Q>
0

> <r_epik_Metal_State_Penalty>
-0

> <b_epik_Metal_Only>
0

> <s_lp_Force_Field>
OPLS_2005

> <r_lp_Energy>
4.32293

> <b_lp_Chiralities_Consistent>
1

> <s_lp_Variant>
AV-unprocessed.smi:680-1

> <Gold.Version>
5.8.1

> <Gold.Id.Protein>
6NUR|6NUR_protein|mol2

> <Gold.PLP.Fitness>
45.6765

> <Gold.PLP.PLP>
-38.2461

> <Gold.PLP.part.hbond>
-3.0000

> <Gold.PLP.part.metal>
0.0000

> <Gold.PLP.part.buried>
-6.4536

> <Gold.PLP.part.nonpolar>
-30.0055

> <Gold.PLP.part.repulsive>
0.7842

> <Gold.PLP.ligand.clash>
0.0000

> <Gold.PLP.ligand.torsion>
0.0184

> <Gold.PLP.Chemscore.Hbond>
2.4880

> <Gold.PLP.Chemscore.CHOScore>
0.0000

> <Gold.PLP.Chemscore.Metal>
0.0000

> <Gold.Chemscore.Hbonds>
donor molecule, donor type, donor heavy atom, donor atom, acceptor molecule, acceptor atom, score
      L1  H     5    22       P1  8029  1.00
      L1  H     8    23       P1  8029  0.93
      P1  H  6933  6944       L1     7  0.56

> <Gold.PLP.Chemscore.Internal.Correction>
0.0030

> <Gold.Rescore>
     Score         DG    S(hbond)    S(metal)    S(lipo)     H(rot)  DE(clash)    DE(int)     intcor
     20.25     -21.46       2.46        0.00      94.06       1.26       0.05       1.16       ----

> <Gold.Chemscore.Fitness>
20.2495

> <Gold.Chemscore.DG>
-21.4630

> <Gold.Chemscore.ZeroCoef>
-5.4800

> <Gold.Chemscore.Hbond>
2.4554

> <Gold.Chemscore.Metal>
0.0000

> <Gold.Chemscore.Lipo>
94.0608

> <Gold.Chemscore.Internal_Hbond>
0.0000

> <Gold.Chemscore.DEClash>
0.0494

> <Gold.Chemscore.DEInternal>
1.1640

> <Gold.Chemscore.Rot>
1.2590

> <Gold.Chemscore.Internal.Correction>
   9.000000E+99

> <Gold.Chemscore.Hbonds>
donor molecule, donor type, donor heavy atom, donor atom, acceptor molecule, acceptor atom, score
      L1  H     5    22       P1  8029  0.99
      L1  H     8    23       P1  8029  0.85
      P1  H  6933  6944       L1     7  0.54

> <Gold.Chemscore.Hbond.Weighted>
-8.2010

> <Gold.Chemscore.Metal.Weighted>
-0.0000

> <Gold.Chemscore.Lipo.Weighted>
-11.0051

> <Gold.Chemscore.Internal_Hbond.Weighted>
0.0000

> <Gold.Chemscore.DEClash.Weighted>
0.0494

> <Gold.Chemscore.DEInternal.Weighted>
1.1640

> <Gold.Chemscore.Rot.Weighted>
3.2232

> <Gold.Chemscore.Internal.Correction.Weighted>
   9.000000E+99

> <Gold.Protein.RotatedTorsions>
[ 6907 6896 6895 6894 ] final  -69.99 input  -60.11 | X-H torsion
[ 7974 7965 7964 7962 ] final -165.18 input  175.53 | X-H torsion
[ 8008 7997 7996 7995 ] final   40.85 input   59.86 | X-H torsion
[ 10167 10162 10161 10158 ] final  112.54 input  -65.29 | X-H torsion
[ 10718 10713 10712 10709 ] final   11.71 input   66.30 | X-H torsion
[ 10763 10752 10751 10750 ] final -121.66 input  -60.55 | X-H torsion
[ 11005 11000 10999 10996 ] final  121.87 input  -57.11 | X-H torsion

> <Gold.Protein.ActiveResidues>
 VAL166  LYS551  ARG553  GLY616  TRP617  ASP618  TYR619  PRO620  LYS621  CYS622 
 ASP623  PHE694  ASN695  SER759  ASP760  ASP761  ALA762  ILE779  LEU786  VAL792 
 PHE793  MET794  SER795  GLU796  ALA797  LYS798  CYS799  TRP800  GLU811  SER814 

> <Gold.Protein.RotatedAtoms>
  150.7279  134.5518  159.5798 H   0  0  0  0  0  0  0  0  0  0  0  0  # atno 6907 bound_to 6896
  152.3003  134.7615  160.0368 H   0  0  0  0  0  0  0  0  0  0  0  0  # atno 6908 bound_to 6896
  151.8198  133.3357  159.3617 H   0  0  0  0  0  0  0  0  0  0  0  0  # atno 6909 bound_to 6896
  144.7277  140.2851  143.6229 H   0  0  0  0  0  0  0  0  0  0  0  0  # atno 7974 bound_to 7965
  155.2600  140.3358  155.4274 H   0  0  0  0  0  0  0  0  0  0  0  0  # atno 8008 bound_to 7997
  156.2179  140.1796  156.7589 H   0  0  0  0  0  0  0  0  0  0  0  0  # atno 8009 bound_to 7997
  154.5780  140.0658  156.9048 H   0  0  0  0  0  0  0  0  0  0  0  0  # atno 8010 bound_to 7997
  139.6528  144.7128  151.2016 H   0  0  0  0  0  0  0  0  0  0  0  0  # atno 10167 bound_to 10162
  156.9995  130.6074  149.5695 H   0  0  0  0  0  0  0  0  0  0  0  0  # atno 10718 bound_to 10713
  154.8673  135.4160  154.2655 H   0  0  0  0  0  0  0  0  0  0  0  0  # atno 10763 bound_to 10752
  153.3575  135.7002  153.6744 H   0  0  0  0  0  0  0  0  0  0  0  0  # atno 10764 bound_to 10752
  153.5658  135.3601  155.2790 H   0  0  0  0  0  0  0  0  0  0  0  0  # atno 10765 bound_to 10752
  139.9244  134.9640  156.8023 H   0  0  0  0  0  0  0  0  0  0  0  0  # atno 11005 bound_to 11000
  145.7910  139.1927  143.2103 LP  0  0  0  0  0  0  0  0  0  0  0  0  # atno 17320 bound_to 7965
  146.0755  140.7821  142.9667 LP  0  0  0  0  0  0  0  0  0  0  0  0  # atno 17321 bound_to 7965
  140.7545  143.6122  150.8594 LP  0  0  0  0  0  0  0  0  0  0  0  0  # atno 17342 bound_to 10162
  139.9772  143.5991  152.2954 LP  0  0  0  0  0  0  0  0  0  0  0  0  # atno 17343 bound_to 10162
  156.0176  130.5271  150.8182 LP  0  0  0  0  0  0  0  0  0  0  0  0  # atno 17370 bound_to 10713
  157.5400  131.0940  150.9840 LP  0  0  0  0  0  0  0  0  0  0  0  0  # atno 17371 bound_to 10713
  140.6379  133.9845  155.7693 LP  0  0  0  0  0  0  0  0  0  0  0  0  # atno 17394 bound_to 11000
  141.0790  134.0091  157.3414 LP  0  0  0  0  0  0  0  0  0  0  0  0  # atno 17395 bound_to 11000

$$$$
