AV-unprocessed.smi:1978|AV-procd|sdf|8014|dock5
  -GOLD-   2272010203D 1   1.00000     0.00000
 Structure written by MMmdl.
 44 45  0  0  0  0  0  0  0  0  3 V2000
  147.6699  136.3429  162.8168 C   0  0  0  0  0  0  0  0  0  0  0  0
  147.5362  136.3421  161.3327 C   0  0  0  0  0  0  0  0  0  0  0  0
  148.2151  135.6969  160.3378 C   0  0  0  0  0  0  0  0  0  0  0  0
  147.5677  136.1529  159.1586 C   0  0  0  0  0  0  0  0  0  0  0  0
  147.9909  135.7013  157.8804 N   0  0  0  0  0  0  0  0  0  0  0  0
  149.2420  135.4870  157.4336 C   0  0  0  0  0  0  0  0  0  0  0  0
  150.2114  135.6690  158.1798 O   0  0  0  0  0  0  0  0  0  0  0  0
  149.2609  135.0721  156.1371 N   0  5  0  0  0  0  0  0  0  0  0  0
  148.2145  135.3669  155.1588 C   0  0  0  0  0  0  0  0  0  0  0  0
  147.9076  134.1078  154.2882 C   0  0  2  0  0  0  0  0  0  0  0  0
  149.2411  133.3589  153.9802 C   0  0  0  0  0  0  0  0  0  0  0  0
  147.1152  134.4907  153.0617 N   0  3  2  0  0  0  0  0  0  0  0  0
  145.9760  135.4325  153.3140 C   0  0  0  0  0  0  0  0  0  0  0  0
  145.5013  136.0759  152.0004 C   0  0  0  0  0  0  0  0  0  0  0  0
  145.0954  135.0153  150.9703 C   0  0  0  0  0  0  0  0  0  0  0  0
  146.2234  133.9872  150.7912 C   0  0  0  0  0  0  0  0  0  0  0  0
  146.6929  133.3887  152.1352 C   0  0  2  0  0  0  0  0  0  0  0  0
  145.6279  132.4410  152.7393 C   0  0  0  0  0  0  0  0  0  0  0  0
  146.5807  136.9995  159.4129 N   0  0  0  0  0  0  0  0  0  0  0  0
  146.5558  137.1252  160.8068 O   0  0  0  0  0  0  0  0  0  0  0  0
  148.4718  135.6772  163.1364 H   0  0  0  0  0  0  0  0  0  0  0  0
  146.7453  136.0092  163.2879 H   0  0  0  0  0  0  0  0  0  0  0  0
  147.8955  137.3445  163.1832 H   0  0  0  0  0  0  0  0  0  0  0  0
  149.0419  135.0098  160.4388 H   0  0  0  0  0  0  0  0  0  0  0  0
  147.2531  135.5227  157.2157 H   0  0  0  0  0  0  0  0  0  0  0  0
  147.3056  135.6933  155.6629 H   0  0  0  0  0  0  0  0  0  0  0  0
  148.4863  136.1947  154.5026 H   0  0  0  0  0  0  0  0  0  0  0  0
  147.2784  133.4239  154.8609 H   0  0  0  0  0  0  0  0  0  0  0  0
  149.7912  133.0923  154.8855 H   0  0  0  0  0  0  0  0  0  0  0  0
  149.9157  133.9512  153.3585 H   0  0  0  0  0  0  0  0  0  0  0  0
  149.0840  132.4118  153.4699 H   0  0  0  0  0  0  0  0  0  0  0  0
  145.1555  134.9125  153.8074 H   0  0  0  0  0  0  0  0  0  0  0  0
  146.2506  136.2385  153.9926 H   0  0  0  0  0  0  0  0  0  0  0  0
  144.6627  136.7454  152.1941 H   0  0  0  0  0  0  0  0  0  0  0  0
  146.3012  136.6944  151.5909 H   0  0  0  0  0  0  0  0  0  0  0  0
  144.1788  134.5202  151.2909 H   0  0  0  0  0  0  0  0  0  0  0  0
  144.8660  135.4896  150.0154 H   0  0  0  0  0  0  0  0  0  0  0  0
  145.9002  133.1941  150.1159 H   0  0  0  0  0  0  0  0  0  0  0  0
  147.0696  134.4729  150.3028 H   0  0  0  0  0  0  0  0  0  0  0  0
  147.5665  132.7894  151.8828 H   0  0  0  0  0  0  0  0  0  0  0  0
  145.4780  131.5758  152.0929 H   0  0  0  0  0  0  0  0  0  0  0  0
  144.6569  132.9202  152.8547 H   0  0  0  0  0  0  0  0  0  0  0  0
  145.9075  132.0645  153.7214 H   0  0  0  0  0  0  0  0  0  0  0  0
  147.7804  135.0235  152.5196 H   0  0  0  0  0  0  0  0  0  0  0  0
  1  2  1  0  0  0  0
  1 21  1  0  0  0  0
  1 22  1  0  0  0  0
  1 23  1  0  0  0  0
  2 20  1  0  0  0  0
  2  3  2  0  0  0  0
  3  4  1  0  0  0  0
  3 24  1  0  0  0  0
  4  5  1  0  0  0  0
  4 19  2  0  0  0  0
  5  6  1  0  0  0  0
  5 25  1  0  0  0  0
  6  7  2  0  0  0  0
  6  8  1  0  0  0  0
  8  9  1  0  0  0  0
  9 10  1  0  0  0  0
  9 26  1  0  0  0  0
  9 27  1  0  0  0  0
 10 11  1  0  0  0  0
 10 12  1  0  0  0  0
 10 28  1  0  0  0  0
 11 29  1  0  0  0  0
 11 30  1  0  0  0  0
 11 31  1  0  0  0  0
 12 17  1  0  0  0  0
 12 13  1  0  0  0  0
 12 44  1  0  0  0  0
 13 14  1  0  0  0  0
 13 32  1  0  0  0  0
 13 33  1  0  0  0  0
 14 15  1  0  0  0  0
 14 34  1  0  0  0  0
 14 35  1  0  0  0  0
 15 16  1  0  0  0  0
 15 36  1  0  0  0  0
 15 37  1  0  0  0  0
 16 17  1  0  0  0  0
 16 38  1  0  0  0  0
 16 39  1  0  0  0  0
 17 18  1  0  0  0  0
 17 40  1  0  0  0  0
 18 41  1  0  0  0  0
 18 42  1  0  0  0  0
 18 43  1  0  0  0  0
 19 20  1  0  0  0  0
M  CHG  1   8  -1
M  CHG  1  12   1
M  END
> <s_m_source_file>
AV-unprocessed.smi

> <i_m_source_file_index>
1978

> <i_lp_mmshare_version>
43012

> <i_f3d_flags>
0

> <s_epik_input>
W0NIM11jMVtjSF1jKG5vMSlbTkhdQyg9TylbTkhdW0NIMl1bQ0BIXShbQ0gzXSlOMltDSDJdW0NIMl1bQ0gyXVtDSDJdW0NASF0yW0NIM10=

> <s_epik_cmdline>
J2VwaWtfcHl0aG9uJywgJy1waCcsICc3LjAnLCAnLXRuJywgJzgnLCAnLW1hJywgJzIwMCcsICctbWV0YWxfYmluZGluZycsICctaW1hZScsICc8aW5maWxlLm1hZT4nLCAnLW9tYWUnLCAnPG91dGZpbGUubWFlPic=

> <r_epik_Ionization_Penalty>
6.7666

> <r_epik_Ionization_Penalty_Charging>
6.7666

> <r_epik_Ionization_Penalty_Neutral>
5.77131e-06

> <r_epik_State_Penalty>
6.79217

> <r_epik_Charging_Adjusted_Penalty>
13.5588

> <i_epik_Tot_Q>
0

> <i_epik_Tot_abs_Q>
2

> <r_epik_Metal_State_Penalty>
2.72569

> <b_epik_Metal_Only>
1

> <s_lp_Force_Field>
OPLS_2005

> <r_lp_Energy>
25.8045

> <b_lp_Chiralities_Consistent>
1

> <s_lp_Variant>
AV-unprocessed.smi:1978-23

> <Gold.Version>
5.8.1

> <Gold.Id.Protein>
6NUR|6NUR_protein|mol2

> <Gold.PLP.Fitness>
40.6976

> <Gold.PLP.PLP>
-30.6615

> <Gold.PLP.part.hbond>
-3.0000

> <Gold.PLP.part.metal>
0.0000

> <Gold.PLP.part.buried>
-4.5201

> <Gold.PLP.part.nonpolar>
-23.5175

> <Gold.PLP.part.repulsive>
0.0605

> <Gold.PLP.ligand.clash>
0.0000

> <Gold.PLP.ligand.torsion>
0.8135

> <Gold.PLP.Chemscore.Hbond>
3.8480

> <Gold.PLP.Chemscore.CHOScore>
0.0000

> <Gold.PLP.Chemscore.Metal>
0.0000

> <Gold.Chemscore.Hbonds>
donor molecule, donor type, donor heavy atom, donor atom, acceptor molecule, acceptor atom, score
      L1  H    12    44       P1  7948  2.00
      P1  H  6896  6907       L1     7  0.85
      P1  H  6934  6947       L1    20  0.90

> <Gold.PLP.Chemscore.Internal.Correction>
0.1191

> <Gold.Rescore>
     Score         DG    S(hbond)    S(metal)    S(lipo)     H(rot)  DE(clash)    DE(int)     intcor
     15.25     -17.08       2.38        0.00      64.55       1.52       0.00       1.83       ----

> <Gold.Chemscore.Fitness>
15.2509

> <Gold.Chemscore.DG>
-17.0825

> <Gold.Chemscore.ZeroCoef>
-5.4800

> <Gold.Chemscore.Hbond>
2.3768

> <Gold.Chemscore.Metal>
0.0000

> <Gold.Chemscore.Lipo>
64.5529

> <Gold.Chemscore.Internal_Hbond>
0.0000

> <Gold.Chemscore.DEClash>
0.0048

> <Gold.Chemscore.DEInternal>
1.8268

> <Gold.Chemscore.Rot>
1.5190

> <Gold.Chemscore.Internal.Correction>
   9.000000E+99

> <Gold.Chemscore.Hbonds>
donor molecule, donor type, donor heavy atom, donor atom, acceptor molecule, acceptor atom, score
      L1  H    12    44       P1  7948  0.96
      P1  H  6896  6907       L1     7  0.83
      P1  H  6934  6947       L1    20  0.11

> <Gold.Chemscore.Hbond.Weighted>
-7.9384

> <Gold.Chemscore.Metal.Weighted>
-0.0000

> <Gold.Chemscore.Lipo.Weighted>
-7.5527

> <Gold.Chemscore.Internal_Hbond.Weighted>
0.0000

> <Gold.Chemscore.DEClash.Weighted>
0.0048

> <Gold.Chemscore.DEInternal.Weighted>
1.8268

> <Gold.Chemscore.Rot.Weighted>
3.8886

> <Gold.Chemscore.Internal.Correction.Weighted>
   9.000000E+99

> <Gold.Protein.RotatedTorsions>
[ 6907 6896 6895 6894 ] final  -61.57 input  -60.11 | X-H torsion
[ 7974 7965 7964 7962 ] final   33.37 input  175.53 | X-H torsion
[ 8008 7997 7996 7995 ] final  148.09 input   59.86 | X-H torsion
[ 10167 10162 10161 10158 ] final  147.70 input  -65.29 | X-H torsion
[ 10718 10713 10712 10709 ] final  -24.60 input   66.30 | X-H torsion
[ 10763 10752 10751 10750 ] final  -48.29 input  -60.55 | X-H torsion
[ 11005 11000 10999 10996 ] final    9.99 input  -57.11 | X-H torsion

> <Gold.Protein.ActiveResidues>
 VAL166  LYS551  ARG553  GLY616  TRP617  ASP618  TYR619  PRO620  LYS621  CYS622 
 ASP623  PHE694  ASN695  SER759  ASP760  ASP761  ALA762  ILE779  LEU786  VAL792 
 PHE793  MET794  SER795  GLU796  ALA797  LYS798  CYS799  TRP800  GLU811  SER814 

> <Gold.Protein.RotatedAtoms>
  150.7775  134.6687  159.6379 H   0  0  0  0  0  0  0  0  0  0  0  0  # atno 6907 bound_to 6896
  152.3850  134.6528  160.0138 H   0  0  0  0  0  0  0  0  0  0  0  0  # atno 6908 bound_to 6896
  151.6846  133.3275  159.3264 H   0  0  0  0  0  0  0  0  0  0  0  0  # atno 6909 bound_to 6896
  146.1425  139.6406  142.9153 H   0  0  0  0  0  0  0  0  0  0  0  0  # atno 7974 bound_to 7965
  156.2803  140.2138  156.5643 H   0  0  0  0  0  0  0  0  0  0  0  0  # atno 8008 bound_to 7997
  154.7188  140.0505  157.0642 H   0  0  0  0  0  0  0  0  0  0  0  0  # atno 8009 bound_to 7997
  155.0507  140.3156  155.4696 H   0  0  0  0  0  0  0  0  0  0  0  0  # atno 8010 bound_to 7997
  139.4886  144.5736  151.7008 H   0  0  0  0  0  0  0  0  0  0  0  0  # atno 10167 bound_to 10162
  156.4754  130.4533  149.6843 H   0  0  0  0  0  0  0  0  0  0  0  0  # atno 10718 bound_to 10713
  154.0754  135.6599  153.4830 H   0  0  0  0  0  0  0  0  0  0  0  0  # atno 10763 bound_to 10752
  153.0375  135.5167  154.7526 H   0  0  0  0  0  0  0  0  0  0  0  0  # atno 10764 bound_to 10752
  154.6605  135.3014  154.9840 H   0  0  0  0  0  0  0  0  0  0  0  0  # atno 10765 bound_to 10752
  140.5195  134.0573  155.7841 H   0  0  0  0  0  0  0  0  0  0  0  0  # atno 11005 bound_to 11000
  145.5013  141.0437  143.2539 LP  0  0  0  0  0  0  0  0  0  0  0  0  # atno 17320 bound_to 7965
  144.7809  139.6529  143.7155 LP  0  0  0  0  0  0  0  0  0  0  0  0  # atno 17321 bound_to 7965
  140.5328  144.0704  150.6059 LP  0  0  0  0  0  0  0  0  0  0  0  0  # atno 17342 bound_to 10162
  140.3699  143.2860  152.0289 LP  0  0  0  0  0  0  0  0  0  0  0  0  # atno 17343 bound_to 10162
  156.3575  130.7464  151.2432 LP  0  0  0  0  0  0  0  0  0  0  0  0  # atno 17370 bound_to 10713
  157.7488  131.0359  150.4387 LP  0  0  0  0  0  0  0  0  0  0  0  0  # atno 17371 bound_to 10713
  141.1342  133.9250  157.2470 LP  0  0  0  0  0  0  0  0  0  0  0  0  # atno 17394 bound_to 11000
  139.9614  135.0153  156.9270 LP  0  0  0  0  0  0  0  0  0  0  0  0  # atno 17395 bound_to 11000

$$$$
