AV-unprocessed.smi:703|AV-procd|sdf|3441|dock4
  -GOLD-   22720 0423D 1   1.00000     0.00000
 Structure written by MMmdl.
 37 38  0  0  0  0  0  0  0  0  3 V2000
  145.5523  132.1022  149.3443 C   0  0  0  0  0  0  0  0  0  0  0  0
  144.1281  132.5919  149.0484 C   0  0  0  0  0  0  0  0  0  0  0  0
  143.6485  133.5687  150.0568 N   0  3  2  0  0  0  0  0  0  0  0  0
  144.3937  134.8502  150.0826 C   0  0  0  0  0  0  0  0  0  0  0  0
  144.4024  135.2895  151.5503 C   0  0  2  0  0  0  0  0  0  0  0  0
  145.4468  136.3733  151.8889 C   0  0  0  0  0  0  0  0  0  0  0  0
  144.4654  133.9556  152.3207 C   0  0  2  0  0  0  0  0  0  0  0  0
  145.8236  133.4255  152.3599 N   0  5  0  0  0  0  0  0  0  0  0  0
  146.5620  133.1909  153.7853 S   0  0  0  0  0  0  0  0  0  0  0  0
  146.3701  134.3114  154.7203 O   0  0  0  0  0  0  0  0  0  0  0  0
  146.3293  131.8343  154.3055 O   0  0  0  0  0  0  0  0  0  0  0  0
  148.3339  133.2404  153.2676 C   0  0  0  0  0  0  0  0  0  0  0  0
  149.0861  132.0745  153.8496 C   0  0  0  0  0  0  0  0  0  0  0  0
  148.8756  130.6861  153.6193 C   0  0  0  0  0  0  0  0  0  0  0  0
  149.8323  130.0865  154.3857 C   0  0  0  0  0  0  0  0  0  0  0  0
  150.5655  131.0182  155.0453 O   0  0  0  0  0  0  0  0  0  0  0  0
  150.0786  132.2842  154.7006 N   0  0  0  0  0  0  0  0  0  0  0  0
  143.5987  133.0373  151.4440 C   0  0  0  0  0  0  0  0  0  0  0  0
  145.8984  131.4302  148.5589 H   0  0  0  0  0  0  0  0  0  0  0  0
  145.6038  131.5565  150.2866 H   0  0  0  0  0  0  0  0  0  0  0  0
  146.2526  132.9362  149.3994 H   0  0  0  0  0  0  0  0  0  0  0  0
  144.1215  133.0701  148.0682 H   0  0  0  0  0  0  0  0  0  0  0  0
  143.4383  131.7483  148.9911 H   0  0  0  0  0  0  0  0  0  0  0  0
  145.4147  134.7085  149.7175 H   0  0  0  0  0  0  0  0  0  0  0  0
  143.9190  135.5896  149.4368 H   0  0  0  0  0  0  0  0  0  0  0  0
  143.4227  135.7225  151.7591 H   0  0  0  0  0  0  0  0  0  0  0  0
  146.4676  136.0521  151.6751 H   0  0  0  0  0  0  0  0  0  0  0  0
  145.4003  136.6649  152.9393 H   0  0  0  0  0  0  0  0  0  0  0  0
  145.2660  137.2722  151.2996 H   0  0  0  0  0  0  0  0  0  0  0  0
  144.0283  134.0549  153.3149 H   0  0  0  0  0  0  0  0  0  0  0  0
  148.3609  133.2146  152.1781 H   0  0  0  0  0  0  0  0  0  0  0  0
  148.7628  134.1909  153.5825 H   0  0  0  0  0  0  0  0  0  0  0  0
  148.1452  130.2097  152.9827 H   0  0  0  0  0  0  0  0  0  0  0  0
  150.1045  129.0562  154.5608 H   0  0  0  0  0  0  0  0  0  0  0  0
  142.5610  133.0926  151.7747 H   0  0  0  0  0  0  0  0  0  0  0  0
  143.8923  131.9878  151.5117 H   0  0  0  0  0  0  0  0  0  0  0  0
  142.6933  133.7919  149.8175 H   0  0  0  0  0  0  0  0  0  0  0  0
  1  2  1  0  0  0  0
  1 19  1  0  0  0  0
  1 20  1  0  0  0  0
  1 21  1  0  0  0  0
  2  3  1  0  0  0  0
  2 22  1  0  0  0  0
  2 23  1  0  0  0  0
  3 18  1  0  0  0  0
  3  4  1  0  0  0  0
  3 37  1  0  0  0  0
  4  5  1  0  0  0  0
  4 24  1  0  0  0  0
  4 25  1  0  0  0  0
  5  6  1  0  0  0  0
  5  7  1  0  0  0  0
  5 26  1  0  0  0  0
  6 27  1  0  0  0  0
  6 28  1  0  0  0  0
  6 29  1  0  0  0  0
  7  8  1  0  0  0  0
  7 18  1  0  0  0  0
  7 30  1  0  0  0  0
  8  9  1  0  0  0  0
  9 10  2  0  0  0  0
  9 11  2  0  0  0  0
  9 12  1  0  0  0  0
 12 13  1  0  0  0  0
 12 31  1  0  0  0  0
 12 32  1  0  0  0  0
 13 17  2  0  0  0  0
 13 14  1  0  0  0  0
 14 15  2  0  0  0  0
 14 33  1  0  0  0  0
 15 16  1  0  0  0  0
 15 34  1  0  0  0  0
 16 17  1  0  0  0  0
 18 35  1  0  0  0  0
 18 36  1  0  0  0  0
M  CHG  1   3   1
M  CHG  1   8  -1
M  END
> <s_m_source_file>
AV-unprocessed.smi

> <i_m_source_file_index>
703

> <i_lp_mmshare_version>
43012

> <i_f3d_flags>
0

> <s_epik_input>
W0NIM11bQ0gyXU4xW0NIMl1bQ0BASF0oW0NIM10pW0NASF0oW0NIMl0xKVtOSF1TKD1PKSg9TylbQ0gyXWMyW2NIXVtjSF1vbjI=

> <s_epik_cmdline>
J2VwaWtfcHl0aG9uJywgJy1waCcsICc3LjAnLCAnLXRuJywgJzgnLCAnLW1hJywgJzIwMCcsICctbWV0YWxfYmluZGluZycsICctaW1hZScsICc8aW5maWxlLm1hZT4nLCAnLW9tYWUnLCAnPG91dGZpbGUubWFlPic=

> <r_epik_Ionization_Penalty>
3.62494

> <r_epik_Ionization_Penalty_Charging>
3.62494

> <r_epik_Ionization_Penalty_Neutral>
2.0321e-10

> <r_epik_State_Penalty>
3.62558

> <r_epik_Charging_Adjusted_Penalty>
7.25052

> <i_epik_Tot_Q>
0

> <i_epik_Tot_abs_Q>
2

> <r_epik_Metal_State_Penalty>
0.530836

> <b_epik_Metal_Only>
1

> <s_lp_Force_Field>
OPLS_2005

> <r_lp_Energy>
19.3254

> <b_lp_Chiralities_Consistent>
1

> <s_lp_Variant>
AV-unprocessed.smi:703-16

> <Gold.Version>
5.8.1

> <Gold.Id.Protein>
6NUR|6NUR_protein|mol2

> <Gold.PLP.Fitness>
37.0711

> <Gold.PLP.PLP>
-31.7647

> <Gold.PLP.part.hbond>
-1.0000

> <Gold.PLP.part.metal>
0.0000

> <Gold.PLP.part.buried>
-3.0296

> <Gold.PLP.part.nonpolar>
-26.7977

> <Gold.PLP.part.repulsive>
0.3405

> <Gold.PLP.ligand.clash>
0.0000

> <Gold.PLP.ligand.torsion>
0.8684

> <Gold.PLP.Chemscore.Hbond>
2.0000

> <Gold.PLP.Chemscore.CHOScore>
0.0000

> <Gold.PLP.Chemscore.Metal>
0.0000

> <Gold.Chemscore.Hbonds>
donor molecule, donor type, donor heavy atom, donor atom, acceptor molecule, acceptor atom, score
      L1  H     3    37       P1 10186  2.00

> <Gold.PLP.Chemscore.Internal.Correction>
1.0432

> <Gold.Rescore>
     Score         DG    S(hbond)    S(metal)    S(lipo)     H(rot)  DE(clash)    DE(int)     intcor
     12.33     -13.73       0.99        0.00      77.92       1.63       0.45       0.94       ----

> <Gold.Chemscore.Fitness>
12.3315

> <Gold.Chemscore.DG>
-13.7251

> <Gold.Chemscore.ZeroCoef>
-5.4800

> <Gold.Chemscore.Hbond>
0.9914

> <Gold.Chemscore.Metal>
0.0000

> <Gold.Chemscore.Lipo>
77.9176

> <Gold.Chemscore.Internal_Hbond>
0.0000

> <Gold.Chemscore.DEClash>
0.4536

> <Gold.Chemscore.DEInternal>
0.9400

> <Gold.Chemscore.Rot>
1.6338

> <Gold.Chemscore.Internal.Correction>
   9.000000E+99

> <Gold.Chemscore.Hbonds>
donor molecule, donor type, donor heavy atom, donor atom, acceptor molecule, acceptor atom, score
      L1  H     3    37       P1 10186  1.00

> <Gold.Chemscore.Hbond.Weighted>
-3.3113

> <Gold.Chemscore.Metal.Weighted>
-0.0000

> <Gold.Chemscore.Lipo.Weighted>
-9.1164

> <Gold.Chemscore.Internal_Hbond.Weighted>
0.0000

> <Gold.Chemscore.DEClash.Weighted>
0.4536

> <Gold.Chemscore.DEInternal.Weighted>
0.9400

> <Gold.Chemscore.Rot.Weighted>
4.1825

> <Gold.Chemscore.Internal.Correction.Weighted>
   9.000000E+99

> <Gold.Protein.RotatedTorsions>
[ 6907 6896 6895 6894 ] final   40.27 input  -60.11 | X-H torsion
[ 7974 7965 7964 7962 ] final  -12.49 input  175.53 | X-H torsion
[ 8008 7997 7996 7995 ] final   37.84 input   59.86 | X-H torsion
[ 10167 10162 10161 10158 ] final  -32.38 input  -65.29 | X-H torsion
[ 10718 10713 10712 10709 ] final  -56.83 input   66.30 | X-H torsion
[ 10763 10752 10751 10750 ] final -127.40 input  -60.55 | X-H torsion
[ 11005 11000 10999 10996 ] final -109.88 input  -57.11 | X-H torsion

> <Gold.Protein.ActiveResidues>
 VAL166  LYS551  ARG553  GLY616  TRP617  ASP618  TYR619  PRO620  LYS621  CYS622 
 ASP623  PHE694  ASN695  SER759  ASP760  ASP761  ALA762  ILE779  LEU786  VAL792 
 PHE793  MET794  SER795  GLU796  ALA797  LYS798  CYS799  TRP800  GLU811  SER814 

> <Gold.Protein.RotatedAtoms>
  152.1803  134.8760  160.0526 H   0  0  0  0  0  0  0  0  0  0  0  0  # atno 6907 bound_to 6896
  151.9686  133.3713  159.4071 H   0  0  0  0  0  0  0  0  0  0  0  0  # atno 6908 bound_to 6896
  150.6916  134.4087  159.5196 H   0  0  0  0  0  0  0  0  0  0  0  0  # atno 6909 bound_to 6896
  146.2150  140.3065  142.8379 H   0  0  0  0  0  0  0  0  0  0  0  0  # atno 7974 bound_to 7965
  155.2103  140.3323  155.4330 H   0  0  0  0  0  0  0  0  0  0  0  0  # atno 8008 bound_to 7997
  156.2373  140.1878  156.7133 H   0  0  0  0  0  0  0  0  0  0  0  0  # atno 8009 bound_to 7997
  154.6082  140.0613  156.9445 H   0  0  0  0  0  0  0  0  0  0  0  0  # atno 8010 bound_to 7997
  140.7222  143.3699  151.1799 H   0  0  0  0  0  0  0  0  0  0  0  0  # atno 10167 bound_to 10162
  156.1258  130.4163  150.0358 H   0  0  0  0  0  0  0  0  0  0  0  0  # atno 10718 bound_to 10713
  154.8752  135.3963  154.3587 H   0  0  0  0  0  0  0  0  0  0  0  0  # atno 10763 bound_to 10752
  153.4363  135.7026  153.6203 H   0  0  0  0  0  0  0  0  0  0  0  0  # atno 10764 bound_to 10752
  153.4803  135.3770  155.2408 H   0  0  0  0  0  0  0  0  0  0  0  0  # atno 10765 bound_to 10752
  141.0823  133.9199  157.2262 H   0  0  0  0  0  0  0  0  0  0  0  0  # atno 11005 bound_to 11000
  144.9019  140.7653  143.5861 LP  0  0  0  0  0  0  0  0  0  0  0  0  # atno 17320 bound_to 7965
  145.2992  139.1856  143.4699 LP  0  0  0  0  0  0  0  0  0  0  0  0  # atno 17321 bound_to 7965
  139.7268  143.9136  152.3005 LP  0  0  0  0  0  0  0  0  0  0  0  0  # atno 17342 bound_to 10162
  139.8911  144.6965  150.8769 LP  0  0  0  0  0  0  0  0  0  0  0  0  # atno 17343 bound_to 10162
  156.8284  130.9383  151.3638 LP  0  0  0  0  0  0  0  0  0  0  0  0  # atno 17370 bound_to 10713
  157.6439  130.8828  149.9501 LP  0  0  0  0  0  0  0  0  0  0  0  0  # atno 17371 bound_to 10713
  139.9638  135.0147  156.9331 LP  0  0  0  0  0  0  0  0  0  0  0  0  # atno 17394 bound_to 11000
  140.5441  134.0691  155.7350 LP  0  0  0  0  0  0  0  0  0  0  0  0  # atno 17395 bound_to 11000

$$$$
