AV-unprocessed.smi:35|AV-procd|sdf|273|dock1
  -GOLD-   2262016 43D 1   1.00000     0.00000
 Structure written by MMmdl.
 28 29  0  0  0  0  0  0  0  0  2 V2000
  153.1625  139.8532  157.8173 O   0  0  0  0  0  0  0  0  0  0  0  0
  152.0678  140.1331  157.3319 C   0  0  0  0  0  0  0  0  0  0  0  0
  151.2985  139.2237  156.6657 N   0  5  0  0  0  0  0  0  0  0  0  0
  150.0850  139.5401  156.1248 C   0  0  0  0  0  0  0  0  0  0  0  0
  149.3698  138.7202  155.5488 O   0  0  0  0  0  0  0  0  0  0  0  0
  149.6094  140.8745  156.2405 N   0  0  0  0  0  0  0  0  0  0  0  0
  148.2673  141.2438  155.6469 C   0  0  2  0  0  0  0  0  0  0  0  0
  147.3344  140.2775  156.0140 O   0  0  0  0  0  0  0  0  0  0  0  0
  146.3331  140.2184  155.0111 C   0  0  2  0  0  0  0  0  0  0  0  0
  145.5694  138.8887  155.1093 C   0  0  0  0  0  0  0  0  0  0  0  0
  144.1816  139.1134  154.9794 O   0  0  0  0  0  0  0  0  0  0  0  0
  147.1445  140.3628  153.7186 C   0  0  1  0  0  0  0  0  0  0  0  0
  146.3398  140.9225  152.6992 O   0  0  0  0  0  0  0  0  0  0  0  0
  148.2731  141.3171  154.1031 C   0  0  2  0  0  0  0  0  0  0  0  0
  149.4904  140.9126  153.5021 O   0  0  0  0  0  0  0  0  0  0  0  0
  150.3573  141.8146  156.9286 C   0  0  0  0  0  0  0  0  0  0  0  0
  151.5502  141.4924  157.4680 C   0  0  0  0  0  0  0  0  0  0  0  0
  152.5116  142.9343  158.4290 Br  0  0  0  0  0  0  0  0  0  0  0  0
  147.9650  142.1830  156.1134 H   0  0  0  0  0  0  0  0  0  0  0  0
  145.6618  141.0723  155.1282 H   0  0  0  0  0  0  0  0  0  0  0  0
  145.8689  138.2240  154.2984 H   0  0  0  0  0  0  0  0  0  0  0  0
  145.7872  138.3747  156.0462 H   0  0  0  0  0  0  0  0  0  0  0  0
  144.0032  139.3854  154.0922 H   0  0  0  0  0  0  0  0  0  0  0  0
  147.5392  139.3929  153.4098 H   0  0  0  0  0  0  0  0  0  0  0  0
  145.4487  140.6373  152.8319 H   0  0  0  0  0  0  0  0  0  0  0  0
  148.0534  142.3477  153.8197 H   0  0  0  0  0  0  0  0  0  0  0  0
  149.2922  140.2809  152.8271 H   0  0  0  0  0  0  0  0  0  0  0  0
  149.9819  142.8202  157.0465 H   0  0  0  0  0  0  0  0  0  0  0  0
  1  2  2  0  0  0  0
  2 17  1  0  0  0  0
  2  3  1  0  0  0  0
  3  4  1  0  0  0  0
  4  5  2  0  0  0  0
  4  6  1  0  0  0  0
  6  7  1  0  0  0  0
  6 16  1  0  0  0  0
  7 14  1  0  0  0  0
  7  8  1  0  0  0  0
  7 19  1  0  0  0  0
  8  9  1  0  0  0  0
  9 10  1  0  0  0  0
  9 12  1  0  0  0  0
  9 20  1  0  0  0  0
 10 11  1  0  0  0  0
 10 21  1  0  0  0  0
 10 22  1  0  0  0  0
 11 23  1  0  0  0  0
 12 13  1  0  0  0  0
 12 14  1  0  0  0  0
 12 24  1  0  0  0  0
 13 25  1  0  0  0  0
 14 15  1  0  0  0  0
 14 26  1  0  0  0  0
 15 27  1  0  0  0  0
 16 17  2  0  0  0  0
 16 28  1  0  0  0  0
 17 18  1  0  0  0  0
M  CHG  1   3  -1
M  END
> <s_m_source_file>
AV-unprocessed.smi

> <i_m_source_file_index>
35

> <i_lp_mmshare_version>
43012

> <i_f3d_flags>
0

> <s_epik_input>
Tz1jMVtuSF1jKD1PKW4oW2NIXWMxQnIpW0NAQEhdMk9bQ0BASF0oW0NIMl1bT0hdKVtDQEBIXShbT0hdKVtDQEhdMltPSF0=

> <s_epik_cmdline>
J2VwaWtfcHl0aG9uJywgJy1waCcsICc3LjAnLCAnLXRuJywgJzgnLCAnLW1hJywgJzIwMCcsICctbWV0YWxfYmluZGluZycsICctaW1hZScsICc8aW5maWxlLm1hZT4nLCAnLW9tYWUnLCAnPG91dGZpbGUubWFlPic=

> <r_epik_Ionization_Penalty>
1.06112

> <r_epik_Ionization_Penalty_Charging>
2.1796e-09

> <r_epik_Ionization_Penalty_Neutral>
1.06112

> <r_epik_State_Penalty>
1.11484

> <r_epik_Charging_Adjusted_Penalty>
1.11484

> <i_epik_Tot_Q>
-1

> <i_epik_Tot_abs_Q>
1

> <r_epik_Metal_State_Penalty>
0.0032876

> <b_epik_Metal_Only>
0

> <s_epik_Chemistry_Notes>
This compound contains an acetal/aminal-like group ( X-CH(R)-Y where X, Y are N, S, or O) that may be acid/base labile, releasing an aldehyde.

> <s_lp_Force_Field>
OPLS_2005

> <r_lp_Energy>
42.5644

> <b_lp_Chiralities_Consistent>
1

> <s_lp_Variant>
AV-unprocessed.smi:35-27

> <Gold.Version>
5.8.1

> <Gold.Id.Protein>
6NUR|6NUR_protein|mol2

> <Gold.PLP.Fitness>
40.0202

> <Gold.PLP.PLP>
-24.2743

> <Gold.PLP.part.hbond>
-5.9447

> <Gold.PLP.part.metal>
0.0000

> <Gold.PLP.part.buried>
-2.3102

> <Gold.PLP.part.nonpolar>
-16.4941

> <Gold.PLP.part.repulsive>
0.0493

> <Gold.PLP.ligand.clash>
0.0000

> <Gold.PLP.ligand.torsion>
0.9228

> <Gold.PLP.Chemscore.Hbond>
4.7945

> <Gold.PLP.Chemscore.CHOScore>
1.0000

> <Gold.PLP.Chemscore.Metal>
0.0000

> <Gold.Chemscore.Hbonds>
donor molecule, donor type, donor heavy atom, donor atom, acceptor molecule, acceptor atom, score
      L1  H    11    23       P1 10175  1.00
      L1  H    13    25       P1 10175  1.00
      L1  H    15    27       P1  7957  0.77
      P1  H  7989  7998       L1    15  0.25
      P1  H  7997  8010       L1     1  1.00
      P1  H  8011  8017       L1    15  0.85
      L1  C    16    28       P1  8028  0.85

> <Gold.PLP.Chemscore.Internal.Correction>
0.2081

> <Gold.Rescore>
     Score         DG    S(hbond)    S(metal)    S(lipo)     H(rot)  DE(clash)    DE(int)     intcor
      9.37     -13.03       3.54        0.00      42.78       3.63       0.05       3.61       ----

> <Gold.Chemscore.Fitness>
9.3663

> <Gold.Chemscore.DG>
-13.0340

> <Gold.Chemscore.ZeroCoef>
-5.4800

> <Gold.Chemscore.Hbond>
3.5422

> <Gold.Chemscore.Metal>
0.0000

> <Gold.Chemscore.Lipo>
42.7831

> <Gold.Chemscore.Internal_Hbond>
0.0000

> <Gold.Chemscore.DEClash>
0.0536

> <Gold.Chemscore.DEInternal>
3.6141

> <Gold.Chemscore.Rot>
3.6261

> <Gold.Chemscore.Internal.Correction>
   9.000000E+99

> <Gold.Chemscore.Hbonds>
donor molecule, donor type, donor heavy atom, donor atom, acceptor molecule, acceptor atom, score
      L1  H    11    23       P1 10175  0.98
      L1  H    13    25       P1 10175  0.59
      L1  H    15    27       P1  7957  0.76
      P1  H  7989  7998       L1    15  0.07
      P1  H  7997  8010       L1     1  0.95
      P1  H  8011  8017       L1    15  0.04

> <Gold.Chemscore.Hbond.Weighted>
-11.8311

> <Gold.Chemscore.Metal.Weighted>
-0.0000

> <Gold.Chemscore.Lipo.Weighted>
-5.0056

> <Gold.Chemscore.Internal_Hbond.Weighted>
0.0000

> <Gold.Chemscore.DEClash.Weighted>
0.0536

> <Gold.Chemscore.DEInternal.Weighted>
3.6141

> <Gold.Chemscore.Rot.Weighted>
9.2828

> <Gold.Chemscore.Internal.Correction.Weighted>
   9.000000E+99

> <Gold.Protein.RotatedTorsions>
[ 6907 6896 6895 6894 ] final   17.19 input  -60.11 | X-H torsion
[ 7974 7965 7964 7962 ] final   -4.47 input  175.53 | X-H torsion
[ 8008 7997 7996 7995 ] final   43.87 input   59.86 | X-H torsion
[ 10167 10162 10161 10158 ] final  -62.15 input  -65.29 | X-H torsion
[ 10718 10713 10712 10709 ] final   94.19 input   66.30 | X-H torsion
[ 10763 10752 10751 10750 ] final   84.00 input  -60.55 | X-H torsion
[ 11005 11000 10999 10996 ] final -158.59 input  -57.11 | X-H torsion

> <Gold.Protein.ActiveResidues>
 VAL166  LYS551  ARG553  GLY616  TRP617  ASP618  TYR619  PRO620  LYS621  CYS622 
 ASP623  PHE694  ASN695  SER759  ASP760  ASP761  ALA762  ILE779  LEU786  VAL792 
 PHE793  MET794  SER795  GLU796  ALA797  LYS798  CYS799  TRP800  GLU811  SER814 

> <Gold.Protein.RotatedAtoms>
  151.8457  135.0575  160.0452 H   0  0  0  0  0  0  0  0  0  0  0  0  # atno 6907 bound_to 6896
  152.2775  133.5434  159.5485 H   0  0  0  0  0  0  0  0  0  0  0  0  # atno 6908 bound_to 6896
  150.7176  134.0527  159.3846 H   0  0  0  0  0  0  0  0  0  0  0  0  # atno 6909 bound_to 6896
  146.2371  140.1876  142.8332 H   0  0  0  0  0  0  0  0  0  0  0  0  # atno 7974 bound_to 7965
  155.3099  140.3390  155.4244 H   0  0  0  0  0  0  0  0  0  0  0  0  # atno 8008 bound_to 7997
  156.1961  140.1715  156.8034 H   0  0  0  0  0  0  0  0  0  0  0  0  # atno 8009 bound_to 7997
  154.5500  140.0707  156.8636 H   0  0  0  0  0  0  0  0  0  0  0  0  # atno 8010 bound_to 7997
  140.5959  143.2350  151.6038 H   0  0  0  0  0  0  0  0  0  0  0  0  # atno 10167 bound_to 10162
  157.6950  131.0504  150.4148 H   0  0  0  0  0  0  0  0  0  0  0  0  # atno 10718 bound_to 10713
  153.1342  135.4670  154.9396 H   0  0  0  0  0  0  0  0  0  0  0  0  # atno 10763 bound_to 10752
  154.7691  135.3153  154.8228 H   0  0  0  0  0  0  0  0  0  0  0  0  # atno 10764 bound_to 10752
  153.8764  135.6898  153.4824 H   0  0  0  0  0  0  0  0  0  0  0  0  # atno 10765 bound_to 10752
  140.6519  134.4441  157.5235 H   0  0  0  0  0  0  0  0  0  0  0  0  # atno 11005 bound_to 11000
  144.9884  140.8524  143.5355 LP  0  0  0  0  0  0  0  0  0  0  0  0  # atno 17320 bound_to 7965
  145.1879  139.2317  143.5258 LP  0  0  0  0  0  0  0  0  0  0  0  0  # atno 17321 bound_to 7965
  139.5257  144.3065  152.1029 LP  0  0  0  0  0  0  0  0  0  0  0  0  # atno 17342 bound_to 10162
  140.2237  144.4439  150.6330 LP  0  0  0  0  0  0  0  0  0  0  0  0  # atno 17343 bound_to 10162
  156.4529  130.4015  149.6625 LP  0  0  0  0  0  0  0  0  0  0  0  0  # atno 17370 bound_to 10713
  156.3768  130.7558  151.2547 LP  0  0  0  0  0  0  0  0  0  0  0  0  # atno 17371 bound_to 10713
  139.9043  134.8485  156.1769 LP  0  0  0  0  0  0  0  0  0  0  0  0  # atno 17394 bound_to 11000
  141.0530  133.6879  156.1808 LP  0  0  0  0  0  0  0  0  0  0  0  0  # atno 17395 bound_to 11000

$$$$
