AV-unprocessed.smi:2168|AV-procd|sdf|8818|dock7
  -GOLD-   2272012 13D 1   1.00000     0.00000
 Structure written by MMmdl.
 46 47  0  0  0  0  0  0  0  0  1 V2000
  148.5121  139.0202  153.7314 C   0  0  0  0  0  0  0  0  0  0  0  0
  149.2881  138.9662  155.0558 C   0  0  0  0  0  0  0  0  0  0  0  0
  150.5733  138.2574  154.9178 N   0  0  0  0  0  0  0  0  0  0  0  0
  151.7517  139.1245  154.7217 C   0  0  0  0  0  0  0  0  0  0  0  0
  151.9390  140.0797  155.9088 C   0  0  0  0  0  0  0  0  0  0  0  0
  150.7745  136.7840  155.8139 S   0  0  0  0  0  0  0  0  0  0  0  0
  152.2054  136.5932  156.0962 O   0  0  0  0  0  0  0  0  0  0  0  0
  149.7823  136.7406  156.8992 O   0  0  0  0  0  0  0  0  0  0  0  0
  150.3022  135.6433  154.6142 N   0  0  0  0  0  0  0  0  0  0  0  0
  149.5539  134.4428  154.9716 C   0  0  0  0  0  0  0  0  0  0  0  0
  148.4506  134.1475  153.9765 C   0  0  0  0  0  0  0  0  0  0  0  0
  147.2352  134.8570  154.0176 C   0  0  0  0  0  0  0  0  0  0  0  0
  146.2278  134.5367  153.0878 C   0  0  0  0  0  0  0  0  0  0  0  0
  146.4617  133.5105  152.1408 C   0  0  0  0  0  0  0  0  0  0  0  0
  145.4618  133.1653  151.2051 N   0  0  0  0  0  0  0  0  0  0  0  0
  144.1838  132.7388  151.7710 C   0  0  0  0  0  0  0  0  0  0  0  0
  143.1019  132.6911  150.6782 C   0  0  0  0  0  0  0  0  0  0  0  0
  143.5355  131.8615  149.6058 O   0  0  0  0  0  0  0  0  0  0  0  0
  144.7206  132.3620  148.9966 C   0  0  0  0  0  0  0  0  0  0  0  0
  145.8599  132.3932  150.0291 C   0  0  0  0  0  0  0  0  0  0  0  0
  147.6395  132.8382  152.1008 N   0  0  0  0  0  0  0  0  0  0  0  0
  148.6020  133.1482  152.9950 C   0  0  0  0  0  0  0  0  0  0  0  0
  147.5353  139.4813  153.8784 H   0  0  0  0  0  0  0  0  0  0  0  0
  148.3480  138.0190  153.3319 H   0  0  0  0  0  0  0  0  0  0  0  0
  149.0347  139.6043  152.9741 H   0  0  0  0  0  0  0  0  0  0  0  0
  149.4666  139.9704  155.4416 H   0  0  0  0  0  0  0  0  0  0  0  0
  148.6722  138.4567  155.7967 H   0  0  0  0  0  0  0  0  0  0  0  0
  152.6499  138.5225  154.5799 H   0  0  0  0  0  0  0  0  0  0  0  0
  151.6315  139.6996  153.8032 H   0  0  0  0  0  0  0  0  0  0  0  0
  152.8130  140.7133  155.7581 H   0  0  0  0  0  0  0  0  0  0  0  0
  152.0850  139.5330  156.8402 H   0  0  0  0  0  0  0  0  0  0  0  0
  151.0785  140.7350  156.0403 H   0  0  0  0  0  0  0  0  0  0  0  0
  150.1287  136.0262  153.6854 H   0  0  0  0  0  0  0  0  0  0  0  0
  150.2395  133.5969  155.0290 H   0  0  0  0  0  0  0  0  0  0  0  0
  149.1239  134.5721  155.9655 H   0  0  0  0  0  0  0  0  0  0  0  0
  147.0748  135.6339  154.7509 H   0  0  0  0  0  0  0  0  0  0  0  0
  145.2990  135.0867  153.1054 H   0  0  0  0  0  0  0  0  0  0  0  0
  144.3089  131.7503  152.2146 H   0  0  0  0  0  0  0  0  0  0  0  0
  143.8509  133.4028  152.5672 H   0  0  0  0  0  0  0  0  0  0  0  0
  142.1747  132.2880  151.0856 H   0  0  0  0  0  0  0  0  0  0  0  0
  142.8780  133.6934  150.3093 H   0  0  0  0  0  0  0  0  0  0  0  0
  144.9897  131.7170  148.1603 H   0  0  0  0  0  0  0  0  0  0  0  0
  144.5398  133.3570  148.5868 H   0  0  0  0  0  0  0  0  0  0  0  0
  146.7482  132.8310  149.5720 H   0  0  0  0  0  0  0  0  0  0  0  0
  146.1155  131.3770  150.3332 H   0  0  0  0  0  0  0  0  0  0  0  0
  149.5155  132.5760  152.9272 H   0  0  0  0  0  0  0  0  0  0  0  0
  1  2  1  0  0  0  0
  1 23  1  0  0  0  0
  1 24  1  0  0  0  0
  1 25  1  0  0  0  0
  2  3  1  0  0  0  0
  2 26  1  0  0  0  0
  2 27  1  0  0  0  0
  3  4  1  0  0  0  0
  3  6  1  0  0  0  0
  4  5  1  0  0  0  0
  4 28  1  0  0  0  0
  4 29  1  0  0  0  0
  5 30  1  0  0  0  0
  5 31  1  0  0  0  0
  5 32  1  0  0  0  0
  6  7  2  0  0  0  0
  6  8  2  0  0  0  0
  6  9  1  0  0  0  0
  9 10  1  0  0  0  0
  9 33  1  0  0  0  0
 10 11  1  0  0  0  0
 10 34  1  0  0  0  0
 10 35  1  0  0  0  0
 11 22  1  0  0  0  0
 11 12  2  0  0  0  0
 12 13  1  0  0  0  0
 12 36  1  0  0  0  0
 13 14  2  0  0  0  0
 13 37  1  0  0  0  0
 14 15  1  0  0  0  0
 14 21  1  0  0  0  0
 15 20  1  0  0  0  0
 15 16  1  0  0  0  0
 16 17  1  0  0  0  0
 16 38  1  0  0  0  0
 16 39  1  0  0  0  0
 17 18  1  0  0  0  0
 17 40  1  0  0  0  0
 17 41  1  0  0  0  0
 18 19  1  0  0  0  0
 19 20  1  0  0  0  0
 19 42  1  0  0  0  0
 19 43  1  0  0  0  0
 20 44  1  0  0  0  0
 20 45  1  0  0  0  0
 21 22  2  0  0  0  0
 22 46  1  0  0  0  0
M  END
> <s_m_source_file>
AV-unprocessed.smi

> <i_m_source_file_index>
2168

> <i_lp_mmshare_version>
43012

> <i_f3d_flags>
0

> <s_epik_input>
W0NIM11bQ0gyXU4oW0NIMl1bQ0gzXSlTKD1PKSg9TylbTkhdW0NIMl1jMVtjSF1bY0hdYyhuW2NIXTEpTjJbQ0gyXVtDSDJdT1tDSDJdW0NIMl0y

> <s_epik_cmdline>
J2VwaWtfcHl0aG9uJywgJy1waCcsICc3LjAnLCAnLXRuJywgJzgnLCAnLW1hJywgJzIwMCcsICctbWV0YWxfYmluZGluZycsICctaW1hZScsICc8aW5maWxlLm1hZT4nLCAnLW9tYWUnLCAnPG91dGZpbGUubWFlPic=

> <r_lp_tautomer_probability>
1

> <r_epik_Ionization_Penalty>
0.0173889

> <r_epik_Ionization_Penalty_Charging>
0

> <r_epik_Ionization_Penalty_Neutral>
0.0173889

> <r_epik_State_Penalty>
0.0135122

> <r_epik_Charging_Adjusted_Penalty>
0.0135122

> <i_epik_Tot_Q>
0

> <i_epik_Tot_abs_Q>
0

> <r_epik_Metal_State_Penalty>
0.283451

> <b_epik_Metal_Only>
0

> <s_lp_Force_Field>
OPLS_2005

> <r_lp_Energy>
21.8709

> <b_lp_Chiralities_Consistent>
1

> <s_lp_Variant>
AV-unprocessed.smi:2168-1

> <Gold.Version>
5.8.1

> <Gold.Id.Protein>
6NUR|6NUR_protein|mol2

> <Gold.PLP.Fitness>
38.9051

> <Gold.PLP.PLP>
-32.7836

> <Gold.PLP.part.hbond>
-3.1917

> <Gold.PLP.part.metal>
0.0000

> <Gold.PLP.part.buried>
2.1354

> <Gold.PLP.part.nonpolar>
-32.6187

> <Gold.PLP.part.repulsive>
1.8280

> <Gold.PLP.ligand.clash>
0.0000

> <Gold.PLP.ligand.torsion>
2.5563

> <Gold.PLP.Chemscore.Hbond>
2.4121

> <Gold.PLP.Chemscore.CHOScore>
0.0000

> <Gold.PLP.Chemscore.Metal>
0.0000

> <Gold.Chemscore.Hbonds>
donor molecule, donor type, donor heavy atom, donor atom, acceptor molecule, acceptor atom, score
      L1  H     9    33       P1  7948  0.41
      P1  H 10752 10764       L1     7  1.00
      P1  H 10785 10796       L1    18  0.99

> <Gold.PLP.Chemscore.Internal.Correction>
3.9979

> <Gold.Rescore>
     Score         DG    S(hbond)    S(metal)    S(lipo)     H(rot)  DE(clash)    DE(int)     intcor
     12.29     -15.12       1.35        0.00      81.39       1.72       0.33       2.50       ----

> <Gold.Chemscore.Fitness>
12.2948

> <Gold.Chemscore.DG>
-15.1209

> <Gold.Chemscore.ZeroCoef>
-5.4800

> <Gold.Chemscore.Hbond>
1.3520

> <Gold.Chemscore.Metal>
0.0000

> <Gold.Chemscore.Lipo>
81.3901

> <Gold.Chemscore.Internal_Hbond>
0.0000

> <Gold.Chemscore.DEClash>
0.3293

> <Gold.Chemscore.DEInternal>
2.4968

> <Gold.Chemscore.Rot>
1.7177

> <Gold.Chemscore.Internal.Correction>
   9.000000E+99

> <Gold.Chemscore.Hbonds>
donor molecule, donor type, donor heavy atom, donor atom, acceptor molecule, acceptor atom, score
      L1  H     9    33       P1  7948  0.02
      P1  H 10752 10764       L1     7  0.95
      P1  H 10785 10796       L1    18  0.47

> <Gold.Chemscore.Hbond.Weighted>
-4.5156

> <Gold.Chemscore.Metal.Weighted>
-0.0000

> <Gold.Chemscore.Lipo.Weighted>
-9.5226

> <Gold.Chemscore.Internal_Hbond.Weighted>
0.0000

> <Gold.Chemscore.DEClash.Weighted>
0.3293

> <Gold.Chemscore.DEInternal.Weighted>
2.4968

> <Gold.Chemscore.Rot.Weighted>
4.3974

> <Gold.Chemscore.Internal.Correction.Weighted>
   9.000000E+99

> <Gold.Protein.RotatedTorsions>
[ 6907 6896 6895 6894 ] final  171.72 input  -60.11 | X-H torsion
[ 7974 7965 7964 7962 ] final   64.40 input  175.53 | X-H torsion
[ 8008 7997 7996 7995 ] final -176.25 input   59.86 | X-H torsion
[ 10167 10162 10161 10158 ] final  -17.30 input  -65.29 | X-H torsion
[ 10718 10713 10712 10709 ] final   94.66 input   66.30 | X-H torsion
[ 10763 10752 10751 10750 ] final  -32.73 input  -60.55 | X-H torsion
[ 11005 11000 10999 10996 ] final   -8.72 input  -57.11 | X-H torsion

> <Gold.Protein.ActiveResidues>
 VAL166  LYS551  ARG553  GLY616  TRP617  ASP618  TYR619  PRO620  LYS621  CYS622 
 ASP623  PHE694  ASN695  SER759  ASP760  ASP761  ALA762  ILE779  LEU786  VAL792 
 PHE793  MET794  SER795  GLU796  ALA797  LYS798  CYS799  TRP800  GLU811  SER814 

> <Gold.Protein.RotatedAtoms>
  151.7957  133.3364  159.3511 H   0  0  0  0  0  0  0  0  0  0  0  0  # atno 6907 bound_to 6896
  150.7376  134.5801  159.5943 H   0  0  0  0  0  0  0  0  0  0  0  0  # atno 6908 bound_to 6896
  152.3178  134.7419  160.0372 H   0  0  0  0  0  0  0  0  0  0  0  0  # atno 6909 bound_to 6896
  145.8507  139.3252  143.0877 H   0  0  0  0  0  0  0  0  0  0  0  0  # atno 7974 bound_to 7965
  155.9925  140.1204  157.0624 H   0  0  0  0  0  0  0  0  0  0  0  0  # atno 8008 bound_to 7997
  154.4216  140.1123  156.5654 H   0  0  0  0  0  0  0  0  0  0  0  0  # atno 8009 bound_to 7997
  155.6323  140.3473  155.4689 H   0  0  0  0  0  0  0  0  0  0  0  0  # atno 8010 bound_to 7997
  140.7245  143.5029  150.9847 H   0  0  0  0  0  0  0  0  0  0  0  0  # atno 10167 bound_to 10162
  157.6946  131.0520  150.4221 H   0  0  0  0  0  0  0  0  0  0  0  0  # atno 10718 bound_to 10713
  153.8186  135.6876  153.4830 H   0  0  0  0  0  0  0  0  0  0  0  0  # atno 10763 bound_to 10752
  153.1583  135.4590  154.9735 H   0  0  0  0  0  0  0  0  0  0  0  0  # atno 10764 bound_to 10752
  154.7937  135.3311  154.7660 H   0  0  0  0  0  0  0  0  0  0  0  0  # atno 10765 bound_to 10752
  140.7265  133.8784  155.8860 H   0  0  0  0  0  0  0  0  0  0  0  0  # atno 11005 bound_to 11000
  145.9361  140.9013  143.0331 LP  0  0  0  0  0  0  0  0  0  0  0  0  # atno 17320 bound_to 7965
  144.6729  140.1485  143.7432 LP  0  0  0  0  0  0  0  0  0  0  0  0  # atno 17321 bound_to 7965
  139.8739  143.7157  152.3164 LP  0  0  0  0  0  0  0  0  0  0  0  0  # atno 17342 bound_to 10162
  139.7416  144.7558  151.0644 LP  0  0  0  0  0  0  0  0  0  0  0  0  # atno 17343 bound_to 10162
  156.4595  130.4029  149.6585 LP  0  0  0  0  0  0  0  0  0  0  0  0  # atno 17370 bound_to 10713
  156.3705  130.7528  151.2511 LP  0  0  0  0  0  0  0  0  0  0  0  0  # atno 17371 bound_to 10713
  140.9958  134.1217  157.4365 LP  0  0  0  0  0  0  0  0  0  0  0  0  # atno 17394 bound_to 11000
  139.8836  135.0054  156.6311 LP  0  0  0  0  0  0  0  0  0  0  0  0  # atno 17395 bound_to 11000

$$$$
