AV-unprocessed.smi:3162|AV-procd|sdf|12068|dock3
  -GOLD-   2272017493D 1   1.00000     0.00000
 Structure written by MMmdl.
 36 36  0  0  0  0  0  0  0  0  1 V2000
  146.2636  141.5437  154.7402 C   0  0  0  0  0  0  0  0  0  0  0  0
  147.6541  141.7113  154.1075 C   0  0  0  0  0  0  0  0  0  0  0  0
  148.7216  140.7356  154.6494 C   0  0  1  0  0  0  0  0  0  0  0  0
  148.8922  140.9624  156.0996 N   0  0  0  0  0  0  0  0  0  0  0  0
  150.1929  140.6308  156.6881 C   0  0  2  0  0  0  0  0  0  0  0  0
  149.9612  140.3878  158.1885 C   0  0  0  0  0  0  0  0  0  0  0  0
  151.2658  141.7160  156.4165 C   0  0  0  0  0  0  0  0  0  0  0  0
  151.5649  142.5500  157.5704 N   0  0  0  0  0  0  0  0  0  0  0  0
  151.3506  143.9031  157.7303 C   0  0  0  0  0  0  0  0  0  0  0  0
  151.7859  144.2452  158.9793 C   0  0  0  0  0  0  0  0  0  0  0  0
  151.7695  145.5901  159.6461 C   0  0  0  0  0  0  0  0  0  0  0  0
  152.2646  143.0141  159.5108 C   0  0  0  0  0  0  0  0  0  0  0  0
  152.1358  142.0043  158.6660 N   0  0  0  0  0  0  0  0  0  0  0  0
  148.3822  139.2743  154.3046 C   0  0  0  0  0  0  0  0  0  0  0  0
  149.1293  138.6787  153.3715 N   0  0  0  0  0  0  0  0  0  0  0  0
  147.4728  138.6874  154.8881 O   0  0  0  0  0  0  0  0  0  0  0  0
  145.5438  142.2145  154.2710 H   0  0  0  0  0  0  0  0  0  0  0  0
  146.2743  141.7703  155.8064 H   0  0  0  0  0  0  0  0  0  0  0  0
  145.8959  140.5250  154.6160 H   0  0  0  0  0  0  0  0  0  0  0  0
  147.5531  141.5624  153.0314 H   0  0  0  0  0  0  0  0  0  0  0  0
  147.9874  142.7423  154.2337 H   0  0  0  0  0  0  0  0  0  0  0  0
  149.6588  140.9922  154.1555 H   0  0  0  0  0  0  0  0  0  0  0  0
  148.1674  140.4925  156.6234 H   0  0  0  0  0  0  0  0  0  0  0  0
  150.5490  139.6877  156.2739 H   0  0  0  0  0  0  0  0  0  0  0  0
  150.8971  140.1462  158.6929 H   0  0  0  0  0  0  0  0  0  0  0  0
  149.2780  139.5533  158.3505 H   0  0  0  0  0  0  0  0  0  0  0  0
  149.5347  141.2623  158.6815 H   0  0  0  0  0  0  0  0  0  0  0  0
  152.1897  141.2301  156.0985 H   0  0  0  0  0  0  0  0  0  0  0  0
  150.9819  142.3616  155.5861 H   0  0  0  0  0  0  0  0  0  0  0  0
  150.9048  144.5043  156.9515 H   0  0  0  0  0  0  0  0  0  0  0  0
  151.3256  145.5401  160.6404 H   0  0  0  0  0  0  0  0  0  0  0  0
  151.1954  146.3203  159.0751 H   0  0  0  0  0  0  0  0  0  0  0  0
  152.7759  145.9923  159.7628 H   0  0  0  0  0  0  0  0  0  0  0  0
  152.6999  142.8261  160.4813 H   0  0  0  0  0  0  0  0  0  0  0  0
  148.9444  137.7204  153.1138 H   0  0  0  0  0  0  0  0  0  0  0  0
  149.8783  139.1903  152.9280 H   0  0  0  0  0  0  0  0  0  0  0  0
  1  2  1  0  0  0  0
  1 17  1  0  0  0  0
  1 18  1  0  0  0  0
  1 19  1  0  0  0  0
  2  3  1  0  0  0  0
  2 20  1  0  0  0  0
  2 21  1  0  0  0  0
  3  4  1  0  0  0  0
  3 14  1  0  0  0  0
  3 22  1  0  0  0  0
  4  5  1  0  0  0  0
  4 23  1  0  0  0  0
  5  6  1  0  0  0  0
  5  7  1  0  0  0  0
  5 24  1  0  0  0  0
  6 25  1  0  0  0  0
  6 26  1  0  0  0  0
  6 27  1  0  0  0  0
  7  8  1  0  0  0  0
  7 28  1  0  0  0  0
  7 29  1  0  0  0  0
  8 13  1  0  0  0  0
  8  9  1  0  0  0  0
  9 10  2  0  0  0  0
  9 30  1  0  0  0  0
 10 11  1  0  0  0  0
 10 12  1  0  0  0  0
 11 31  1  0  0  0  0
 11 32  1  0  0  0  0
 11 33  1  0  0  0  0
 12 13  2  0  0  0  0
 12 34  1  0  0  0  0
 14 15  1  0  0  0  0
 14 16  2  0  0  0  0
 15 35  1  0  0  0  0
 15 36  1  0  0  0  0
M  END
> <s_m_source_file>
AV-unprocessed.smi

> <i_m_source_file_index>
3162

> <i_lp_mmshare_version>
43012

> <i_f3d_flags>
0

> <s_epik_input>
W0NIM11bQ0gyXVtDQEBIXShDKD1PKVtOSDJdKVtOSF1bQ0BIXShbQ0gzXSlbQ0gyXW4xW2NIXWMoW0NIM10pW2NIXW4x

> <s_epik_cmdline>
J2VwaWtfcHl0aG9uJywgJy1waCcsICc3LjAnLCAnLXRuJywgJzgnLCAnLW1hJywgJzIwMCcsICctbWV0YWxfYmluZGluZycsICctaW1hZScsICc8aW5maWxlLm1hZT4nLCAnLW9tYWUnLCAnPG91dGZpbGUubWFlPic=

> <r_lp_tautomer_probability>
1

> <r_epik_Ionization_Penalty>
1.04167

> <r_epik_Ionization_Penalty_Charging>
0

> <r_epik_Ionization_Penalty_Neutral>
1.04167

> <r_epik_State_Penalty>
1.09367

> <r_epik_Charging_Adjusted_Penalty>
1.09367

> <i_epik_Tot_Q>
0

> <i_epik_Tot_abs_Q>
0

> <r_epik_Metal_State_Penalty>
1.09362

> <b_epik_Metal_Only>
0

> <s_lp_Force_Field>
OPLS_2005

> <r_lp_Energy>
2.92083

> <b_lp_Chiralities_Consistent>
1

> <s_lp_Variant>
AV-unprocessed.smi:3162-6

> <Gold.Version>
5.8.1

> <Gold.Id.Protein>
6NUR|6NUR_protein|mol2

> <Gold.PLP.Fitness>
39.2087

> <Gold.PLP.PLP>
-34.3954

> <Gold.PLP.part.hbond>
-1.7208

> <Gold.PLP.part.metal>
0.0000

> <Gold.PLP.part.buried>
-6.0535

> <Gold.PLP.part.nonpolar>
-27.6849

> <Gold.PLP.part.repulsive>
0.1845

> <Gold.PLP.ligand.clash>
0.0000

> <Gold.PLP.ligand.torsion>
1.3562

> <Gold.PLP.Chemscore.Hbond>
1.4393

> <Gold.PLP.Chemscore.CHOScore>
1.0000

> <Gold.PLP.Chemscore.Metal>
0.0000

> <Gold.Chemscore.Hbonds>
donor molecule, donor type, donor heavy atom, donor atom, acceptor molecule, acceptor atom, score
      L1  H    15    35       P1  7948  1.00
      L1  H    15    36       P1  7957  0.42
      L1  C     9    30       P1  8028  1.00

> <Gold.PLP.Chemscore.Internal.Correction>
0.2079

> <Gold.Rescore>
     Score         DG    S(hbond)    S(metal)    S(lipo)     H(rot)  DE(clash)    DE(int)     intcor
     11.44     -14.62       1.87        0.00      77.99       2.43       0.21       2.97       ----

> <Gold.Chemscore.Fitness>
11.4426

> <Gold.Chemscore.DG>
-14.6234

> <Gold.Chemscore.ZeroCoef>
-5.4800

> <Gold.Chemscore.Hbond>
1.8703

> <Gold.Chemscore.Metal>
0.0000

> <Gold.Chemscore.Lipo>
77.9879

> <Gold.Chemscore.Internal_Hbond>
0.0000

> <Gold.Chemscore.DEClash>
0.2145

> <Gold.Chemscore.DEInternal>
2.9664

> <Gold.Chemscore.Rot>
2.4328

> <Gold.Chemscore.Internal.Correction>
   9.000000E+99

> <Gold.Chemscore.Hbonds>
donor molecule, donor type, donor heavy atom, donor atom, acceptor molecule, acceptor atom, score
      L1  H    15    35       P1  7948  0.96
      L1  H    15    36       P1  7957  0.40

> <Gold.Chemscore.Hbond.Weighted>
-6.2468

> <Gold.Chemscore.Metal.Weighted>
-0.0000

> <Gold.Chemscore.Lipo.Weighted>
-9.1246

> <Gold.Chemscore.Internal_Hbond.Weighted>
0.0000

> <Gold.Chemscore.DEClash.Weighted>
0.2145

> <Gold.Chemscore.DEInternal.Weighted>
2.9664

> <Gold.Chemscore.Rot.Weighted>
6.2279

> <Gold.Chemscore.Internal.Correction.Weighted>
   9.000000E+99

> <Gold.Protein.RotatedTorsions>
[ 6907 6896 6895 6894 ] final  165.92 input  -60.11 | X-H torsion
[ 7974 7965 7964 7962 ] final -123.99 input  175.53 | X-H torsion
[ 8008 7997 7996 7995 ] final   14.88 input   59.86 | X-H torsion
[ 10167 10162 10161 10158 ] final   22.71 input  -65.29 | X-H torsion
[ 10718 10713 10712 10709 ] final  -40.01 input   66.30 | X-H torsion
[ 10763 10752 10751 10750 ] final   50.58 input  -60.55 | X-H torsion
[ 11005 11000 10999 10996 ] final -151.46 input  -57.11 | X-H torsion

> <Gold.Protein.ActiveResidues>
 VAL166  LYS551  ARG553  GLY616  TRP617  ASP618  TYR619  PRO620  LYS621  CYS622 
 ASP623  PHE694  ASN695  SER759  ASP760  ASP761  ALA762  ILE779  LEU786  VAL792 
 PHE793  MET794  SER795  GLU796  ALA797  LYS798  CYS799  TRP800  GLU811  SER814 

> <Gold.Protein.RotatedAtoms>
  151.8870  133.3507  159.3785 H   0  0  0  0  0  0  0  0  0  0  0  0  # atno 6907 bound_to 6896
  150.7113  134.4962  159.5548 H   0  0  0  0  0  0  0  0  0  0  0  0  # atno 6908 bound_to 6896
  152.2524  134.8119  160.0495 H   0  0  0  0  0  0  0  0  0  0  0  0  # atno 6909 bound_to 6896
  145.0128  140.7920  143.4428 H   0  0  0  0  0  0  0  0  0  0  0  0  # atno 7974 bound_to 7965
  154.8548  140.2935  155.5576 H   0  0  0  0  0  0  0  0  0  0  0  0  # atno 8008 bound_to 7997
  156.3018  140.2489  156.3445 H   0  0  0  0  0  0  0  0  0  0  0  0  # atno 8009 bound_to 7997
  154.8982  140.0392  157.1867 H   0  0  0  0  0  0  0  0  0  0  0  0  # atno 8010 bound_to 7997
  140.5327  143.9814  150.6474 H   0  0  0  0  0  0  0  0  0  0  0  0  # atno 10167 bound_to 10162
  156.2861  130.4222  149.8287 H   0  0  0  0  0  0  0  0  0  0  0  0  # atno 10718 bound_to 10713
  152.9784  135.5874  154.4276 H   0  0  0  0  0  0  0  0  0  0  0  0  # atno 10763 bound_to 10752
  154.3893  135.2767  155.2166 H   0  0  0  0  0  0  0  0  0  0  0  0  # atno 10764 bound_to 10752
  154.4046  135.6095  153.5971 H   0  0  0  0  0  0  0  0  0  0  0  0  # atno 10765 bound_to 10752
  140.7294  134.3638  157.5169 H   0  0  0  0  0  0  0  0  0  0  0  0  # atno 11005 bound_to 11000
  145.2000  139.2257  143.5198 LP  0  0  0  0  0  0  0  0  0  0  0  0  # atno 17320 bound_to 7965
  146.3473  140.1815  142.8589 LP  0  0  0  0  0  0  0  0  0  0  0  0  # atno 17321 bound_to 7965
  140.3193  143.3147  152.0800 LP  0  0  0  0  0  0  0  0  0  0  0  0  # atno 17342 bound_to 10162
  139.4960  144.6584  151.6520 LP  0  0  0  0  0  0  0  0  0  0  0  0  # atno 17343 bound_to 10162
  156.5717  130.8427  151.3358 LP  0  0  0  0  0  0  0  0  0  0  0  0  # atno 17370 bound_to 10713
  157.7329  130.9722  150.1950 LP  0  0  0  0  0  0  0  0  0  0  0  0  # atno 17371 bound_to 10713
  139.8830  134.9008  156.2796 LP  0  0  0  0  0  0  0  0  0  0  0  0  # atno 17394 bound_to 11000
  140.9934  133.7195  156.0849 LP  0  0  0  0  0  0  0  0  0  0  0  0  # atno 17395 bound_to 11000

$$$$
