AV-unprocessed.smi:2884|AV-procd|sdf|11085|dock5
  -GOLD-   2272015553D 1   1.00000     0.00000
 Structure written by MMmdl.
 41 42  0  0  0  0  0  0  0  0  2 V2000
  149.0414  141.3134  154.6375 C   0  0  0  0  0  0  0  0  0  0  0  0
  150.1801  141.0900  155.6412 C   0  0  0  0  0  0  0  0  0  0  0  0
  150.0517  141.9640  156.8949 C   0  0  0  0  0  0  0  0  0  0  0  0
  151.2569  141.8402  157.6408 O   0  0  0  0  0  0  0  0  0  0  0  0
  151.6426  142.8664  158.5623 C   0  0  0  0  0  0  0  0  0  0  0  0
  152.7673  142.1780  159.3785 C   0  0  0  0  0  0  0  0  0  0  0  0
  152.5913  140.7346  159.4769 N   0  0  0  0  0  0  0  0  0  0  0  0
  153.4036  139.7917  160.0973 C   0  0  0  0  0  0  0  0  0  0  0  0
  154.6524  140.1545  160.8140 C   0  0  0  0  0  0  0  0  0  0  0  0
  155.3879  139.2861  161.3875 N   0  0  0  0  0  0  0  0  0  0  0  0
  155.0368  137.8837  161.3716 N   0  5  0  0  0  0  0  0  0  0  0  0
  153.8988  137.4686  160.7370 C   0  0  0  0  0  0  0  0  0  0  0  0
  153.5619  136.2862  160.7046 O   0  0  0  0  0  0  0  0  0  0  0  0
  153.0619  138.4782  160.0779 C   0  0  0  0  0  0  0  0  0  0  0  0
  151.6144  137.9542  159.2799 Cl  0  0  0  0  0  0  0  0  0  0  0  0
  152.1482  144.1461  157.8391 C   0  0  0  0  0  0  0  0  0  0  0  0
  152.5155  145.2688  158.8259 C   0  0  0  0  0  0  0  0  0  0  0  0
  151.3308  145.6093  159.7447 C   0  0  0  0  0  0  0  0  0  0  0  0
  150.8074  144.3646  160.4799 C   0  0  0  0  0  0  0  0  0  0  0  0
  150.4577  143.2343  159.4932 C   0  0  0  0  0  0  0  0  0  0  0  0
  149.1562  140.6640  153.7694 H   0  0  0  0  0  0  0  0  0  0  0  0
  149.0242  142.3423  154.2781 H   0  0  0  0  0  0  0  0  0  0  0  0
  148.0713  141.1010  155.0874 H   0  0  0  0  0  0  0  0  0  0  0  0
  150.1899  140.0407  155.9366 H   0  0  0  0  0  0  0  0  0  0  0  0
  151.1378  141.2826  155.1566 H   0  0  0  0  0  0  0  0  0  0  0  0
  149.8566  142.9918  156.5935 H   0  0  0  0  0  0  0  0  0  0  0  0
  149.2005  141.6203  157.4812 H   0  0  0  0  0  0  0  0  0  0  0  0
  153.7379  142.3444  158.9144 H   0  0  0  0  0  0  0  0  0  0  0  0
  152.8439  142.6216  160.3702 H   0  0  0  0  0  0  0  0  0  0  0  0
  151.7109  140.3943  159.1182 H   0  0  0  0  0  0  0  0  0  0  0  0
  154.9154  141.2139  160.8330 H   0  0  0  0  0  0  0  0  0  0  0  0
  152.9979  143.9195  157.1947 H   0  0  0  0  0  0  0  0  0  0  0  0
  151.3748  144.5420  157.1829 H   0  0  0  0  0  0  0  0  0  0  0  0
  153.3790  144.9782  159.4244 H   0  0  0  0  0  0  0  0  0  0  0  0
  152.8182  146.1584  158.2732 H   0  0  0  0  0  0  0  0  0  0  0  0
  151.6268  146.3708  160.4667 H   0  0  0  0  0  0  0  0  0  0  0  0
  150.5255  146.0441  159.1509 H   0  0  0  0  0  0  0  0  0  0  0  0
  151.5503  144.0217  161.2001 H   0  0  0  0  0  0  0  0  0  0  0  0
  149.9243  144.6282  161.0625 H   0  0  0  0  0  0  0  0  0  0  0  0
  149.6057  143.5728  158.9048 H   0  0  0  0  0  0  0  0  0  0  0  0
  150.1195  142.3536  160.0401 H   0  0  0  0  0  0  0  0  0  0  0  0
  1  2  1  0  0  0  0
  1 21  1  0  0  0  0
  1 22  1  0  0  0  0
  1 23  1  0  0  0  0
  2  3  1  0  0  0  0
  2 24  1  0  0  0  0
  2 25  1  0  0  0  0
  3  4  1  0  0  0  0
  3 26  1  0  0  0  0
  3 27  1  0  0  0  0
  4  5  1  0  0  0  0
  5 20  1  0  0  0  0
  5  6  1  0  0  0  0
  5 16  1  0  0  0  0
  6  7  1  0  0  0  0
  6 28  1  0  0  0  0
  6 29  1  0  0  0  0
  7  8  1  0  0  0  0
  7 30  1  0  0  0  0
  8 14  2  0  0  0  0
  8  9  1  0  0  0  0
  9 10  2  0  0  0  0
  9 31  1  0  0  0  0
 10 11  1  0  0  0  0
 11 12  1  0  0  0  0
 12 13  2  0  0  0  0
 12 14  1  0  0  0  0
 14 15  1  0  0  0  0
 16 17  1  0  0  0  0
 16 32  1  0  0  0  0
 16 33  1  0  0  0  0
 17 18  1  0  0  0  0
 17 34  1  0  0  0  0
 17 35  1  0  0  0  0
 18 19  1  0  0  0  0
 18 36  1  0  0  0  0
 18 37  1  0  0  0  0
 19 20  1  0  0  0  0
 19 38  1  0  0  0  0
 19 39  1  0  0  0  0
 20 40  1  0  0  0  0
 20 41  1  0  0  0  0
M  CHG  1  11  -1
M  END
> <s_m_source_file>
AV-unprocessed.smi

> <i_m_source_file_index>
2884

> <i_lp_mmshare_version>
43012

> <i_f3d_flags>
0

> <s_epik_input>
W0NIMl0xW0NIMl1bQ0gyXVtDSDJdW0NIMl1DMShPW0NIMl1bQ0gyXVtDSDNdKVtDSDJdW05IXWMyW2NIXW5bbkhdYyg9TyljMkNs

> <s_epik_cmdline>
J2VwaWtfcHl0aG9uJywgJy1waCcsICc3LjAnLCAnLXRuJywgJzgnLCAnLW1hJywgJzIwMCcsICctbWV0YWxfYmluZGluZycsICctaW1hZScsICc8aW5maWxlLm1hZT4nLCAnLW9tYWUnLCAnPG91dGZpbGUubWFlPic=

> <r_lp_tautomer_probability>
0.986175

> <r_epik_Ionization_Penalty>
3.75229

> <r_epik_Ionization_Penalty_Charging>
0.0129106

> <r_epik_Ionization_Penalty_Neutral>
3.73938

> <r_epik_State_Penalty>
3.73863

> <r_epik_Charging_Adjusted_Penalty>
3.75154

> <i_epik_Tot_Q>
-1

> <i_epik_Tot_abs_Q>
1

> <r_epik_Metal_State_Penalty>
0.55642

> <b_epik_Metal_Only>
1

> <s_lp_Force_Field>
OPLS_2005

> <r_lp_Energy>
41.2708

> <b_lp_Chiralities_Consistent>
1

> <s_lp_Variant>
AV-unprocessed.smi:2884-3

> <Gold.Version>
5.8.1

> <Gold.Id.Protein>
6NUR|6NUR_protein|mol2

> <Gold.PLP.Fitness>
39.3141

> <Gold.PLP.PLP>
-37.9023

> <Gold.PLP.part.hbond>
-0.9914

> <Gold.PLP.part.metal>
0.0000

> <Gold.PLP.part.buried>
-3.1471

> <Gold.PLP.part.nonpolar>
-33.0360

> <Gold.PLP.part.repulsive>
0.1656

> <Gold.PLP.ligand.clash>
0.0000

> <Gold.PLP.ligand.torsion>
0.8042

> <Gold.PLP.Chemscore.Hbond>
1.0000

> <Gold.PLP.Chemscore.CHOScore>
0.0000

> <Gold.PLP.Chemscore.Metal>
0.0000

> <Gold.Chemscore.Hbonds>
donor molecule, donor type, donor heavy atom, donor atom, acceptor molecule, acceptor atom, score
      P1  H  6896  6908       L1    13  1.00

> <Gold.PLP.Chemscore.Internal.Correction>
0.0202

> <Gold.Rescore>
     Score         DG    S(hbond)    S(metal)    S(lipo)     H(rot)  DE(clash)    DE(int)     intcor
     18.11     -18.98       1.00        0.00     124.20       1.71       0.21       0.66       ----

> <Gold.Chemscore.Fitness>
18.1093

> <Gold.Chemscore.DG>
-18.9767

> <Gold.Chemscore.ZeroCoef>
-5.4800

> <Gold.Chemscore.Hbond>
0.9985

> <Gold.Chemscore.Metal>
0.0000

> <Gold.Chemscore.Lipo>
124.1970

> <Gold.Chemscore.Internal_Hbond>
0.0000

> <Gold.Chemscore.DEClash>
0.2056

> <Gold.Chemscore.DEInternal>
0.6618

> <Gold.Chemscore.Rot>
1.7068

> <Gold.Chemscore.Internal.Correction>
   9.000000E+99

> <Gold.Chemscore.Hbonds>
donor molecule, donor type, donor heavy atom, donor atom, acceptor molecule, acceptor atom, score
      P1  H  6896  6908       L1    13  0.95

> <Gold.Chemscore.Hbond.Weighted>
-3.3351

> <Gold.Chemscore.Metal.Weighted>
-0.0000

> <Gold.Chemscore.Lipo.Weighted>
-14.5311

> <Gold.Chemscore.Internal_Hbond.Weighted>
0.0000

> <Gold.Chemscore.DEClash.Weighted>
0.2056

> <Gold.Chemscore.DEInternal.Weighted>
0.6618

> <Gold.Chemscore.Rot.Weighted>
4.3694

> <Gold.Chemscore.Internal.Correction.Weighted>
   9.000000E+99

> <Gold.Protein.RotatedTorsions>
[ 6907 6896 6895 6894 ] final  -76.84 input  -60.11 | X-H torsion
[ 7974 7965 7964 7962 ] final  -82.86 input  175.53 | X-H torsion
[ 8008 7997 7996 7995 ] final    4.21 input   59.86 | X-H torsion
[ 10167 10162 10161 10158 ] final  -14.55 input  -65.29 | X-H torsion
[ 10718 10713 10712 10709 ] final   86.72 input   66.30 | X-H torsion
[ 10763 10752 10751 10750 ] final   87.61 input  -60.55 | X-H torsion
[ 11005 11000 10999 10996 ] final  -59.21 input  -57.11 | X-H torsion

> <Gold.Protein.ActiveResidues>
 VAL166  LYS551  ARG553  GLY616  TRP617  ASP618  TYR619  PRO620  LYS621  CYS622 
 ASP623  PHE694  ASN695  SER759  ASP760  ASP761  ALA762  ILE779  LEU786  VAL792 
 PHE793  MET794  SER795  GLU796  ALA797  LYS798  CYS799  TRP800  GLU811  SER814 

> <Gold.Protein.RotatedAtoms>
  150.7016  134.4512  159.5336 H   0  0  0  0  0  0  0  0  0  0  0  0  # atno 6907 bound_to 6896
  152.2204  134.8415  160.0496 H   0  0  0  0  0  0  0  0  0  0  0  0  # atno 6908 bound_to 6896
  151.9268  133.3565  159.3953 H   0  0  0  0  0  0  0  0  0  0  0  0  # atno 6909 bound_to 6896
  145.5277  140.9524  143.1620 H   0  0  0  0  0  0  0  0  0  0  0  0  # atno 7974 bound_to 7965
  154.7131  140.2696  155.6611 H   0  0  0  0  0  0  0  0  0  0  0  0  # atno 8008 bound_to 7997
  156.2801  140.2749  156.1703 H   0  0  0  0  0  0  0  0  0  0  0  0  # atno 8009 bound_to 7997
  155.0608  140.0371  157.2566 H   0  0  0  0  0  0  0  0  0  0  0  0  # atno 8010 bound_to 7997
  140.7203  143.5310  150.9520 H   0  0  0  0  0  0  0  0  0  0  0  0  # atno 10167 bound_to 10162
  157.6932  131.0227  150.3015 H   0  0  0  0  0  0  0  0  0  0  0  0  # atno 10718 bound_to 10713
  153.1685  135.4537  154.9871 H   0  0  0  0  0  0  0  0  0  0  0  0  # atno 10763 bound_to 10752
  154.7949  135.3234  154.7692 H   0  0  0  0  0  0  0  0  0  0  0  0  # atno 10764 bound_to 10752
  153.8171  135.6950  153.4887 H   0  0  0  0  0  0  0  0  0  0  0  0  # atno 10765 bound_to 10752
  141.1239  133.6615  156.5037 H   0  0  0  0  0  0  0  0  0  0  0  0  # atno 11005 bound_to 11000
  144.7642  139.6884  143.7222 LP  0  0  0  0  0  0  0  0  0  0  0  0  # atno 17320 bound_to 7965
  146.2064  139.5392  142.9709 LP  0  0  0  0  0  0  0  0  0  0  0  0  # atno 17321 bound_to 7965
  139.9030  143.6812  152.3128 LP  0  0  0  0  0  0  0  0  0  0  0  0  # atno 17342 bound_to 10162
  139.7168  144.7610  151.1020 LP  0  0  0  0  0  0  0  0  0  0  0  0  # atno 17343 bound_to 10162
  156.3530  130.3834  149.7313 LP  0  0  0  0  0  0  0  0  0  0  0  0  # atno 17370 bound_to 10713
  156.4784  130.8029  151.3045 LP  0  0  0  0  0  0  0  0  0  0  0  0  # atno 17371 bound_to 10713
  140.4425  134.7002  157.4999 LP  0  0  0  0  0  0  0  0  0  0  0  0  # atno 17394 bound_to 11000
  140.0219  134.6534  155.9227 LP  0  0  0  0  0  0  0  0  0  0  0  0  # atno 17395 bound_to 11000

$$$$
