AV-unprocessed.smi:2803|AV-procd|sdf|10807|dock1
  -GOLD-   2272015243D 1   1.00000     0.00000
 Structure written by MMmdl.
 42 43  0  0  0  0  0  0  0  0  1 V2000
  151.7713  140.0448  158.1376 C   0  0  0  0  0  0  0  0  0  0  0  0
  150.6617  140.4301  157.1397 C   0  0  1  0  0  0  0  0  0  0  0  0
  151.1286  140.1982  155.7599 C   0  0  0  0  0  0  0  0  0  0  0  0
  151.4936  140.0155  154.6770 N   0  0  0  0  0  0  0  0  0  0  0  0
  149.4638  139.6326  157.4106 N   0  0  0  0  0  0  0  0  0  0  0  0
  149.3394  138.2941  157.4488 C   0  0  0  0  0  0  0  0  0  0  0  0
  150.2836  137.5270  157.2703 O   0  0  0  0  0  0  0  0  0  0  0  0
  147.9403  137.7110  157.7147 C   0  0  0  0  0  0  0  0  0  0  0  0
  147.8692  136.7744  158.8423 N   0  0  0  0  0  0  0  0  0  0  0  0
  148.4199  135.5163  158.8077 C   0  0  0  0  0  0  0  0  0  0  0  0
  148.1821  134.8612  159.8899 N   0  0  0  0  0  0  0  0  0  0  0  0
  147.4537  135.7368  160.6446 N   0  0  0  0  0  0  0  0  0  0  0  0
  146.9596  135.3323  161.9858 C   0  0  0  0  0  0  0  0  0  0  0  0
  145.4220  135.4637  162.0337 C   0  0  0  0  0  0  0  0  0  0  0  0
  147.5470  136.2196  163.1114 C   0  0  0  0  0  0  0  0  0  0  0  0
  147.3703  133.8716  162.2727 C   0  0  0  0  0  0  0  0  0  0  0  0
  147.2589  136.9123  160.0162 C   0  0  0  0  0  0  0  0  0  0  0  0
  146.6345  137.8961  160.4117 O   0  0  0  0  0  0  0  0  0  0  0  0
  150.3916  141.9276  157.2612 C   0  0  0  0  0  0  0  0  0  0  0  0
  151.4960  142.9343  157.4972 C   0  0  0  0  0  0  0  0  0  0  0  0
  150.4812  142.6572  158.5843 C   0  0  0  0  0  0  0  0  0  0  0  0
  152.6670  140.6467  157.9803 H   0  0  0  0  0  0  0  0  0  0  0  0
  152.0675  139.0005  158.0368 H   0  0  0  0  0  0  0  0  0  0  0  0
  151.4479  140.1992  159.1676 H   0  0  0  0  0  0  0  0  0  0  0  0
  148.6222  140.1650  157.5759 H   0  0  0  0  0  0  0  0  0  0  0  0
  147.2430  138.5362  157.8696 H   0  0  0  0  0  0  0  0  0  0  0  0
  147.6060  137.2004  156.8106 H   0  0  0  0  0  0  0  0  0  0  0  0
  148.9720  135.1902  157.9247 H   0  0  0  0  0  0  0  0  0  0  0  0
  145.0361  135.2234  163.0250 H   0  0  0  0  0  0  0  0  0  0  0  0
  144.9275  134.7933  161.3309 H   0  0  0  0  0  0  0  0  0  0  0  0
  145.1059  136.4805  161.7975 H   0  0  0  0  0  0  0  0  0  0  0  0
  147.2768  137.2684  162.9820 H   0  0  0  0  0  0  0  0  0  0  0  0
  148.6352  136.1552  163.1513 H   0  0  0  0  0  0  0  0  0  0  0  0
  147.1744  135.9132  164.0894 H   0  0  0  0  0  0  0  0  0  0  0  0
  147.0565  133.5633  163.2707 H   0  0  0  0  0  0  0  0  0  0  0  0
  148.4526  133.7486  162.2183 H   0  0  0  0  0  0  0  0  0  0  0  0
  146.9223  133.1694  161.5698 H   0  0  0  0  0  0  0  0  0  0  0  0
  149.5906  142.2667  156.6062 H   0  0  0  0  0  0  0  0  0  0  0  0
  152.5079  142.5631  157.6462 H   0  0  0  0  0  0  0  0  0  0  0  0
  151.4250  143.8865  156.9758 H   0  0  0  0  0  0  0  0  0  0  0  0
  149.7371  143.4256  158.7831 H   0  0  0  0  0  0  0  0  0  0  0  0
  150.8229  142.1068  159.4587 H   0  0  0  0  0  0  0  0  0  0  0  0
  1  2  1  0  0  0  0
  1 22  1  0  0  0  0
  1 23  1  0  0  0  0
  1 24  1  0  0  0  0
  2  3  1  0  0  0  0
  2  5  1  0  0  0  0
  2 19  1  0  0  0  0
  3  4  3  0  0  0  0
  5  6  1  0  0  0  0
  5 25  1  0  0  0  0
  6  7  2  0  0  0  0
  6  8  1  0  0  0  0
  8  9  1  0  0  0  0
  8 26  1  0  0  0  0
  8 27  1  0  0  0  0
  9 17  1  0  0  0  0
  9 10  1  0  0  0  0
 10 11  2  0  0  0  0
 10 28  1  0  0  0  0
 11 12  1  0  0  0  0
 12 13  1  0  0  0  0
 12 17  1  0  0  0  0
 13 14  1  0  0  0  0
 13 15  1  0  0  0  0
 13 16  1  0  0  0  0
 14 29  1  0  0  0  0
 14 30  1  0  0  0  0
 14 31  1  0  0  0  0
 15 32  1  0  0  0  0
 15 33  1  0  0  0  0
 15 34  1  0  0  0  0
 16 35  1  0  0  0  0
 16 36  1  0  0  0  0
 16 37  1  0  0  0  0
 17 18  2  0  0  0  0
 19 21  1  0  0  0  0
 19 20  1  0  0  0  0
 19 38  1  0  0  0  0
 20 21  1  0  0  0  0
 20 39  1  0  0  0  0
 20 40  1  0  0  0  0
 21 41  1  0  0  0  0
 21 42  1  0  0  0  0
M  END
> <s_m_source_file>
AV-unprocessed.smi

> <i_m_source_file_index>
2803

> <i_lp_mmshare_version>
43012

> <i_f3d_flags>
0

> <s_epik_input>
W0NIMl0xW0NIMl1bQ0hdMVtDQF0oW0NIM10pKEMjTilbTkhdQyg9TylbQ0gyXW4yW2NIXW5uKGMyPU8pQyhbQ0gzXSkoW0NIM10pW0NIM10=

> <s_epik_cmdline>
J2VwaWtfcHl0aG9uJywgJy1waCcsICc3LjAnLCAnLXRuJywgJzgnLCAnLW1hJywgJzIwMCcsICctbWV0YWxfYmluZGluZycsICctaW1hZScsICc8aW5maWxlLm1hZT4nLCAnLW9tYWUnLCAnPG91dGZpbGUubWFlPic=

> <r_lp_tautomer_probability>
1

> <r_epik_Ionization_Penalty>
4.88615e-06

> <r_epik_Ionization_Penalty_Charging>
4.80261e-08

> <r_epik_Ionization_Penalty_Neutral>
4.83813e-06

> <r_epik_State_Penalty>
-0

> <r_epik_Charging_Adjusted_Penalty>
4.80261e-08

> <i_epik_Tot_Q>
0

> <i_epik_Tot_abs_Q>
0

> <r_epik_Metal_State_Penalty>
-0

> <b_epik_Metal_Only>
0

> <s_lp_Force_Field>
OPLS_2005

> <r_lp_Energy>
32.3619

> <b_lp_Chiralities_Consistent>
1

> <s_lp_Variant>
AV-unprocessed.smi:2803-1

> <Gold.Version>
5.8.1

> <Gold.Id.Protein>
6NUR|6NUR_protein|mol2

> <Gold.PLP.Fitness>
39.8171

> <Gold.PLP.PLP>
-34.0305

> <Gold.PLP.part.hbond>
-2.2058

> <Gold.PLP.part.metal>
0.0000

> <Gold.PLP.part.buried>
-5.9531

> <Gold.PLP.part.nonpolar>
-27.2686

> <Gold.PLP.part.repulsive>
0.1365

> <Gold.PLP.ligand.clash>
0.0000

> <Gold.PLP.ligand.torsion>
0.9174

> <Gold.PLP.Chemscore.Hbond>
1.9913

> <Gold.PLP.Chemscore.CHOScore>
0.0000

> <Gold.PLP.Chemscore.Metal>
0.0000

> <Gold.Chemscore.Hbonds>
donor molecule, donor type, donor heavy atom, donor atom, acceptor molecule, acceptor atom, score
      P1  H  6934  6947       L1    18  0.54
      P1  H  7989  7998       L1     4  0.81

> <Gold.PLP.Chemscore.Internal.Correction>
1.6478

> <Gold.Rescore>
     Score         DG    S(hbond)    S(metal)    S(lipo)     H(rot)  DE(clash)    DE(int)     intcor
     13.84     -14.70       1.98        0.00      67.18       2.05       0.00       0.86       ----

> <Gold.Chemscore.Fitness>
13.8401

> <Gold.Chemscore.DG>
-14.7012

> <Gold.Chemscore.ZeroCoef>
-5.4800

> <Gold.Chemscore.Hbond>
1.9756

> <Gold.Chemscore.Metal>
0.0000

> <Gold.Chemscore.Lipo>
67.1780

> <Gold.Chemscore.Internal_Hbond>
0.0000

> <Gold.Chemscore.DEClash>
0.0044

> <Gold.Chemscore.DEInternal>
0.8568

> <Gold.Chemscore.Rot>
2.0457

> <Gold.Chemscore.Internal.Correction>
   9.000000E+99

> <Gold.Chemscore.Hbonds>
donor molecule, donor type, donor heavy atom, donor atom, acceptor molecule, acceptor atom, score
      P1  H  6934  6947       L1    18  0.54
      P1  H  7989  7998       L1     4  0.80

> <Gold.Chemscore.Hbond.Weighted>
-6.5984

> <Gold.Chemscore.Metal.Weighted>
-0.0000

> <Gold.Chemscore.Lipo.Weighted>
-7.8598

> <Gold.Chemscore.Internal_Hbond.Weighted>
0.0000

> <Gold.Chemscore.DEClash.Weighted>
0.0044

> <Gold.Chemscore.DEInternal.Weighted>
0.8568

> <Gold.Chemscore.Rot.Weighted>
5.2370

> <Gold.Chemscore.Internal.Correction.Weighted>
   9.000000E+99

> <Gold.Protein.RotatedTorsions>
[ 6907 6896 6895 6894 ] final  148.77 input  -60.11 | X-H torsion
[ 7974 7965 7964 7962 ] final  -98.59 input  175.53 | X-H torsion
[ 8008 7997 7996 7995 ] final   27.55 input   59.86 | X-H torsion
[ 10167 10162 10161 10158 ] final  -21.55 input  -65.29 | X-H torsion
[ 10718 10713 10712 10709 ] final   99.15 input   66.30 | X-H torsion
[ 10763 10752 10751 10750 ] final   78.30 input  -60.55 | X-H torsion
[ 11005 11000 10999 10996 ] final  -55.27 input  -57.11 | X-H torsion

> <Gold.Protein.ActiveResidues>
 VAL166  LYS551  ARG553  GLY616  TRP617  ASP618  TYR619  PRO620  LYS621  CYS622 
 ASP623  PHE694  ASN695  SER759  ASP760  ASP761  ALA762  ILE779  LEU786  VAL792 
 PHE793  MET794  SER795  GLU796  ALA797  LYS798  CYS799  TRP800  GLU811  SER814 

> <Gold.Protein.RotatedAtoms>
  152.1370  133.4441  159.4748 H   0  0  0  0  0  0  0  0  0  0  0  0  # atno 6907 bound_to 6896
  150.6883  134.2351  159.4459 H   0  0  0  0  0  0  0  0  0  0  0  0  # atno 6908 bound_to 6896
  152.0239  134.9806  160.0622 H   0  0  0  0  0  0  0  0  0  0  0  0  # atno 6909 bound_to 6896
  145.3187  140.9417  143.2728 H   0  0  0  0  0  0  0  0  0  0  0  0  # atno 7974 bound_to 7965
  155.0447  140.3173  155.4712 H   0  0  0  0  0  0  0  0  0  0  0  0  # atno 8008 bound_to 7997
  156.2847  140.2157  156.5514 H   0  0  0  0  0  0  0  0  0  0  0  0  # atno 8009 bound_to 7997
  154.7261  140.0485  157.0671 H   0  0  0  0  0  0  0  0  0  0  0  0  # atno 8010 bound_to 7997
  140.7282  143.4617  151.0370 H   0  0  0  0  0  0  0  0  0  0  0  0  # atno 10167 bound_to 10162
  157.6882  131.0661  150.4904 H   0  0  0  0  0  0  0  0  0  0  0  0  # atno 10718 bound_to 10713
  153.0864  135.4882  154.8605 H   0  0  0  0  0  0  0  0  0  0  0  0  # atno 10763 bound_to 10752
  154.7216  135.3040  154.9041 H   0  0  0  0  0  0  0  0  0  0  0  0  # atno 10764 bound_to 10752
  153.9703  135.6802  153.4800 H   0  0  0  0  0  0  0  0  0  0  0  0  # atno 10765 bound_to 10752
  141.1066  133.6613  156.4445 H   0  0  0  0  0  0  0  0  0  0  0  0  # atno 11005 bound_to 11000
  144.8957  139.4715  143.6656 LP  0  0  0  0  0  0  0  0  0  0  0  0  # atno 17320 bound_to 7965
  146.3091  139.7681  142.9034 LP  0  0  0  0  0  0  0  0  0  0  0  0  # atno 17321 bound_to 7965
  139.8302  143.7701  152.3179 LP  0  0  0  0  0  0  0  0  0  0  0  0  # atno 17342 bound_to 10162
  139.7814  144.7443  151.0083 LP  0  0  0  0  0  0  0  0  0  0  0  0  # atno 17343 bound_to 10162
  156.5231  130.4167  149.6240 LP  0  0  0  0  0  0  0  0  0  0  0  0  # atno 17370 bound_to 10713
  156.3136  130.7242  151.2140 LP  0  0  0  0  0  0  0  0  0  0  0  0  # atno 17371 bound_to 10713
  140.4886  134.6597  157.5201 LP  0  0  0  0  0  0  0  0  0  0  0  0  # atno 17394 bound_to 11000
  139.9939  134.6942  155.9643 LP  0  0  0  0  0  0  0  0  0  0  0  0  # atno 17395 bound_to 11000

$$$$
