AV-unprocessed.smi:922|AV-procd|sdf|4176|dock10
  -GOLD-   22720 2 83D 1   1.00000     0.00000
 Structure written by MMmdl.
 33 34  0  0  0  0  0  0  0  0  1 V2000
  153.9286  141.3444  160.2905 C   0  0  0  0  0  0  0  0  0  0  0  0
  152.9721  142.0994  159.3622 C   0  0  1  0  0  0  0  0  0  0  0  0
  151.6296  141.3623  159.2004 C   0  0  0  0  0  0  0  0  0  0  0  0
  150.7033  142.1606  158.4081 N   0  0  0  0  0  0  0  0  0  0  0  0
  150.0273  141.7171  157.2703 C   0  0  0  0  0  0  0  0  0  0  0  0
  148.6589  142.1600  157.0232 C   0  0  0  0  0  0  0  0  0  0  0  0
  147.9708  141.7929  155.9975 N   0  0  0  0  0  0  0  0  0  0  0  0
  148.5538  140.9418  155.0941 N   0  0  0  0  0  0  0  0  0  0  0  0
  149.8068  140.4350  155.1567 C   0  0  0  0  0  0  0  0  0  0  0  0
  150.2340  139.6793  154.2857 O   0  0  0  0  0  0  0  0  0  0  0  0
  150.5670  140.8759  156.3360 C   0  0  0  0  0  0  0  0  0  0  0  0
  152.2018  140.3138  156.4429 Cl  0  0  0  0  0  0  0  0  0  0  0  0
  150.4853  143.4648  159.0242 C   0  0  0  0  0  0  0  0  0  0  0  0
  151.8197  144.2242  159.2057 C   0  0  0  0  0  0  0  0  0  0  0  0
  152.4168  144.6765  157.8559 C   0  0  0  0  0  0  0  0  0  0  0  0
  151.5989  145.4552  160.0981 C   0  0  0  0  0  0  0  0  0  0  0  0
  152.7382  143.3918  159.9238 O   0  0  0  0  0  0  0  0  0  0  0  0
  147.9590  140.6919  154.3171 H   0  0  0  0  0  0  0  0  0  0  0  0
  154.1522  140.3516  159.8991 H   0  0  0  0  0  0  0  0  0  0  0  0
  153.5002  141.2240  161.2859 H   0  0  0  0  0  0  0  0  0  0  0  0
  154.8722  141.8800  160.3961 H   0  0  0  0  0  0  0  0  0  0  0  0
  153.4612  142.2068  158.3949 H   0  0  0  0  0  0  0  0  0  0  0  0
  151.7773  140.3803  158.7515 H   0  0  0  0  0  0  0  0  0  0  0  0
  151.1821  141.1845  160.1790 H   0  0  0  0  0  0  0  0  0  0  0  0
  148.2379  142.8299  157.7732 H   0  0  0  0  0  0  0  0  0  0  0  0
  149.8008  144.0660  158.4249 H   0  0  0  0  0  0  0  0  0  0  0  0
  150.0022  143.3114  159.9901 H   0  0  0  0  0  0  0  0  0  0  0  0
  151.7636  145.3976  157.3640 H   0  0  0  0  0  0  0  0  0  0  0  0
  152.5527  143.8493  157.1600 H   0  0  0  0  0  0  0  0  0  0  0  0
  153.3875  145.1528  157.9961 H   0  0  0  0  0  0  0  0  0  0  0  0
  150.8935  146.1529  159.6453 H   0  0  0  0  0  0  0  0  0  0  0  0
  152.5329  145.9919  160.2688 H   0  0  0  0  0  0  0  0  0  0  0  0
  151.2028  145.1702  161.0733 H   0  0  0  0  0  0  0  0  0  0  0  0
  1  2  1  0  0  0  0
  1 19  1  0  0  0  0
  1 20  1  0  0  0  0
  1 21  1  0  0  0  0
  2 17  1  0  0  0  0
  2  3  1  0  0  0  0
  2 22  1  0  0  0  0
  3  4  1  0  0  0  0
  3 23  1  0  0  0  0
  3 24  1  0  0  0  0
  4  5  1  0  0  0  0
  4 13  1  0  0  0  0
  5 11  2  0  0  0  0
  5  6  1  0  0  0  0
  6  7  2  0  0  0  0
  6 25  1  0  0  0  0
  7  8  1  0  0  0  0
  8 18  1  0  0  0  0
  8  9  1  0  0  0  0
  9 10  2  0  0  0  0
  9 11  1  0  0  0  0
 11 12  1  0  0  0  0
 13 14  1  0  0  0  0
 13 26  1  0  0  0  0
 13 27  1  0  0  0  0
 14 15  1  0  0  0  0
 14 16  1  0  0  0  0
 14 17  1  0  0  0  0
 15 28  1  0  0  0  0
 15 29  1  0  0  0  0
 15 30  1  0  0  0  0
 16 31  1  0  0  0  0
 16 32  1  0  0  0  0
 16 33  1  0  0  0  0
M  END
> <s_m_source_file>
AV-unprocessed.smi

> <i_m_source_file_index>
922

> <i_lp_mmshare_version>
43012

> <i_f3d_flags>
0

> <s_epik_input>
W0NIM11bQ0BASF0oTzEpW0NIMl1OKFtDSDJdQzEoW0NIM10pW0NIM10pYzJbY0hdbltuSF1jKD1PKWMyQ2w=

> <s_epik_cmdline>
J2VwaWtfcHl0aG9uJywgJy1waCcsICc3LjAnLCAnLXRuJywgJzgnLCAnLW1hJywgJzIwMCcsICctbWV0YWxfYmluZGluZycsICctaW1hZScsICc8aW5maWxlLm1hZT4nLCAnLW9tYWUnLCAnPG91dGZpbGUubWFlPic=

> <r_lp_tautomer_probability>
0.986175

> <r_epik_Ionization_Penalty>
0.00909695

> <r_epik_Ionization_Penalty_Charging>
0.00909694

> <r_epik_Ionization_Penalty_Neutral>
4.87729e-09

> <r_epik_State_Penalty>
1.54226

> <r_epik_Charging_Adjusted_Penalty>
1.55136

> <i_epik_Tot_Q>
0

> <i_epik_Tot_abs_Q>
0

> <r_epik_Metal_State_Penalty>
3.93934

> <b_epik_Metal_Only>
0

> <s_lp_Force_Field>
OPLS_2005

> <r_lp_Energy>
35.5656

> <b_lp_Chiralities_Consistent>
1

> <s_lp_Variant>
AV-unprocessed.smi:922-4

> <Gold.Version>
5.8.1

> <Gold.Id.Protein>
6NUR|6NUR_protein|mol2

> <Gold.PLP.Fitness>
36.8663

> <Gold.PLP.PLP>
-33.8851

> <Gold.PLP.part.hbond>
-1.0000

> <Gold.PLP.part.metal>
0.0000

> <Gold.PLP.part.buried>
-3.0828

> <Gold.PLP.part.nonpolar>
-30.1407

> <Gold.PLP.part.repulsive>
0.7573

> <Gold.PLP.ligand.clash>
0.0000

> <Gold.PLP.ligand.torsion>
0.4769

> <Gold.PLP.Chemscore.Hbond>
1.0000

> <Gold.PLP.Chemscore.CHOScore>
0.0002

> <Gold.PLP.Chemscore.Metal>
0.0000

> <Gold.Chemscore.Hbonds>
donor molecule, donor type, donor heavy atom, donor atom, acceptor molecule, acceptor atom, score
      P1  H  7989  7998       L1    10  0.95

> <Gold.PLP.Chemscore.Internal.Correction>
0.9344

> <Gold.Rescore>
     Score         DG    S(hbond)    S(metal)    S(lipo)     H(rot)  DE(clash)    DE(int)     intcor
     17.35     -19.59       0.90        0.00      94.87       0.00       0.74       1.49       ----

> <Gold.Chemscore.Fitness>
17.3529

> <Gold.Chemscore.DG>
-19.5907

> <Gold.Chemscore.ZeroCoef>
-5.4800

> <Gold.Chemscore.Hbond>
0.9014

> <Gold.Chemscore.Metal>
0.0000

> <Gold.Chemscore.Lipo>
94.8717

> <Gold.Chemscore.Internal_Hbond>
0.0000

> <Gold.Chemscore.DEClash>
0.7445

> <Gold.Chemscore.DEInternal>
1.4933

> <Gold.Chemscore.Rot>
0.0000

> <Gold.Chemscore.Internal.Correction>
   9.000000E+99

> <Gold.Chemscore.Hbonds>
donor molecule, donor type, donor heavy atom, donor atom, acceptor molecule, acceptor atom, score
      P1  H  7989  7998       L1    10  0.21

> <Gold.Chemscore.Hbond.Weighted>
-3.0107

> <Gold.Chemscore.Metal.Weighted>
-0.0000

> <Gold.Chemscore.Lipo.Weighted>
-11.1000

> <Gold.Chemscore.Internal_Hbond.Weighted>
0.0000

> <Gold.Chemscore.DEClash.Weighted>
0.7445

> <Gold.Chemscore.DEInternal.Weighted>
1.4933

> <Gold.Chemscore.Rot.Weighted>
0.0000

> <Gold.Chemscore.Internal.Correction.Weighted>
   9.000000E+99

> <Gold.Protein.RotatedTorsions>
[ 6907 6896 6895 6894 ] final  -10.27 input  -60.11 | X-H torsion
[ 7974 7965 7964 7962 ] final  -23.56 input  175.53 | X-H torsion
[ 8008 7997 7996 7995 ] final  147.29 input   59.86 | X-H torsion
[ 10167 10162 10161 10158 ] final -144.70 input  -65.29 | X-H torsion
[ 10718 10713 10712 10709 ] final  102.51 input   66.30 | X-H torsion
[ 10763 10752 10751 10750 ] final -156.38 input  -60.55 | X-H torsion
[ 11005 11000 10999 10996 ] final -112.37 input  -57.11 | X-H torsion

> <Gold.Protein.ActiveResidues>
 VAL166  LYS551  ARG553  GLY616  TRP617  ASP618  TYR619  PRO620  LYS621  CYS622 
 ASP623  PHE694  ASN695  SER759  ASP760  ASP761  ALA762  ILE779  LEU786  VAL792 
 PHE793  MET794  SER795  GLU796  ALA797  LYS798  CYS799  TRP800  GLU811  SER814 

> <Gold.Protein.RotatedAtoms>
  151.4046  135.0976  159.9566 H   0  0  0  0  0  0  0  0  0  0  0  0  # atno 6907 bound_to 6896
  152.5039  133.8855  159.7378 H   0  0  0  0  0  0  0  0  0  0  0  0  # atno 6908 bound_to 6896
  150.9337  133.6680  159.2833 H   0  0  0  0  0  0  0  0  0  0  0  0  # atno 6909 bound_to 6896
  146.1608  140.4633  142.8572 H   0  0  0  0  0  0  0  0  0  0  0  0  # atno 7974 bound_to 7965
  156.2829  140.2159  156.5513 H   0  0  0  0  0  0  0  0  0  0  0  0  # atno 8008 bound_to 7997
  154.7288  140.0497  157.0730 H   0  0  0  0  0  0  0  0  0  0  0  0  # atno 8009 bound_to 7997
  155.0380  140.3142  155.4737 H   0  0  0  0  0  0  0  0  0  0  0  0  # atno 8010 bound_to 7997
  139.7874  143.8014  152.2646 H   0  0  0  0  0  0  0  0  0  0  0  0  # atno 10167 bound_to 10162
  157.6800  131.0755  150.5415 H   0  0  0  0  0  0  0  0  0  0  0  0  # atno 10718 bound_to 10713
  154.7717  135.3147  154.8176 H   0  0  0  0  0  0  0  0  0  0  0  0  # atno 10763 bound_to 10752
  153.8910  135.6825  153.4765 H   0  0  0  0  0  0  0  0  0  0  0  0  # atno 10764 bound_to 10752
  153.1332  135.4771  154.9316 H   0  0  0  0  0  0  0  0  0  0  0  0  # atno 10765 bound_to 10752
  141.0679  133.9428  157.2542 H   0  0  0  0  0  0  0  0  0  0  0  0  # atno 11005 bound_to 11000
  144.8025  140.6239  143.6469 LP  0  0  0  0  0  0  0  0  0  0  0  0  # atno 17320 bound_to 7965
  145.4592  139.1514  143.3875 LP  0  0  0  0  0  0  0  0  0  0  0  0  # atno 17321 bound_to 7965
  139.8095  144.7341  150.9716 LP  0  0  0  0  0  0  0  0  0  0  0  0  # atno 17342 bound_to 10162
  140.7820  143.4264  151.0761 LP  0  0  0  0  0  0  0  0  0  0  0  0  # atno 17343 bound_to 10162
  156.5722  130.4283  149.6014 LP  0  0  0  0  0  0  0  0  0  0  0  0  # atno 17370 bound_to 10713
  156.2731  130.7028  151.1831 LP  0  0  0  0  0  0  0  0  0  0  0  0  # atno 17371 bound_to 10713
  139.9494  135.0178  156.8950 LP  0  0  0  0  0  0  0  0  0  0  0  0  # atno 17394 bound_to 11000
  140.5734  134.0421  155.7438 LP  0  0  0  0  0  0  0  0  0  0  0  0  # atno 17395 bound_to 11000

$$$$
