AV-unprocessed.smi:702|AV-procd|sdf|3424|dock5
  -GOLD-   22720 0403D 1   1.00000     0.00000
 Structure written by MMmdl.
 50 52  0  0  0  0  0  0  0  0  4 V2000
  148.2337  133.2600  152.9912 C   0  0  0  0  0  0  0  0  0  0  0  0
  146.7139  133.1289  153.2128 C   0  0  2  0  0  0  0  0  0  0  0  0
  146.3104  131.7558  152.8744 N   0  5  0  0  0  0  0  0  0  0  0  0
  146.9789  130.6283  153.2368 C   0  0  0  0  0  0  0  0  0  0  0  0
  147.5266  130.3926  154.3196 O   0  0  0  0  0  0  0  0  0  0  0  0
  146.9793  129.7041  152.2600 N   0  0  0  0  0  0  0  0  0  0  0  0
  147.5799  128.4167  152.2515 C   0  0  0  0  0  0  0  0  0  0  0  0
  147.4912  127.6568  151.0645 C   0  0  0  0  0  0  0  0  0  0  0  0
  148.0911  126.3824  151.0099 C   0  0  0  0  0  0  0  0  0  0  0  0
  148.7554  125.9050  152.0845 N   0  3  0  0  0  0  0  0  0  0  0  0
  148.8830  126.6030  153.2335 C   0  0  0  0  0  0  0  0  0  0  0  0
  148.3040  127.8830  153.3473 C   0  0  0  0  0  0  0  0  0  0  0  0
  145.8675  134.2026  152.3959 C   0  0  0  0  0  0  0  0  0  0  0  0
  146.3105  135.6249  152.7410 N   0  3  0  0  0  0  0  0  0  0  0  0
  145.6424  136.7292  151.9858 C   0  0  0  0  0  0  0  0  0  0  0  0
  146.3991  138.0513  152.1844 C   0  0  0  0  0  0  0  0  0  0  0  0
  146.4033  138.3866  153.5639 O   0  0  0  0  0  0  0  0  0  0  0  0
  147.0544  137.3938  154.3423 C   0  0  0  0  0  0  0  0  0  0  0  0
  146.3348  136.0427  154.1854 C   0  0  0  0  0  0  0  0  0  0  0  0
  146.0267  133.9410  150.8485 C   0  0  0  0  0  0  0  0  0  0  0  0
  144.6246  133.8165  150.2336 C   0  0  0  0  0  0  0  0  0  0  0  0
  143.6371  134.3094  151.2850 C   0  0  0  0  0  0  0  0  0  0  0  0
  144.3252  134.0560  152.6292 C   0  0  0  0  0  0  0  0  0  0  0  0
  148.5967  134.2478  153.2738 H   0  0  0  0  0  0  0  0  0  0  0  0
  148.5107  133.0909  151.9504 H   0  0  0  0  0  0  0  0  0  0  0  0
  148.7801  132.5361  153.5969 H   0  0  0  0  0  0  0  0  0  0  0  0
  146.5325  133.3166  154.2703 H   0  0  0  0  0  0  0  0  0  0  0  0
  146.4179  129.9305  151.4518 H   0  0  0  0  0  0  0  0  0  0  0  0
  146.9612  128.0416  150.2052 H   0  0  0  0  0  0  0  0  0  0  0  0
  148.0609  125.7362  150.1450 H   0  0  0  0  0  0  0  0  0  0  0  0
  149.4464  126.1232  154.0203 H   0  0  0  0  0  0  0  0  0  0  0  0
  148.4326  128.4387  154.2640 H   0  0  0  0  0  0  0  0  0  0  0  0
  145.5683  136.5487  150.9171 H   0  0  0  0  0  0  0  0  0  0  0  0
  144.6225  136.8562  152.3488 H   0  0  0  0  0  0  0  0  0  0  0  0
  147.4195  137.9812  151.8044 H   0  0  0  0  0  0  0  0  0  0  0  0
  145.9062  138.8521  151.6330 H   0  0  0  0  0  0  0  0  0  0  0  0
  148.1017  137.3118  154.0467 H   0  0  0  0  0  0  0  0  0  0  0  0
  147.0430  137.7057  155.3868 H   0  0  0  0  0  0  0  0  0  0  0  0
  145.3201  136.1240  154.5751 H   0  0  0  0  0  0  0  0  0  0  0  0
  146.8590  135.3483  154.8379 H   0  0  0  0  0  0  0  0  0  0  0  0
  146.6140  134.7118  150.3525 H   0  0  0  0  0  0  0  0  0  0  0  0
  146.5653  133.0312  150.5721 H   0  0  0  0  0  0  0  0  0  0  0  0
  144.5334  134.3648  149.2958 H   0  0  0  0  0  0  0  0  0  0  0  0
  144.4210  132.7669  150.0169 H   0  0  0  0  0  0  0  0  0  0  0  0
  143.4395  135.3699  151.1411 H   0  0  0  0  0  0  0  0  0  0  0  0
  142.6765  133.7983  151.2140 H   0  0  0  0  0  0  0  0  0  0  0  0
  144.0283  133.0509  152.9355 H   0  0  0  0  0  0  0  0  0  0  0  0
  143.9336  134.7143  153.4033 H   0  0  0  0  0  0  0  0  0  0  0  0
  147.2759  135.6478  152.4460 H   0  0  0  0  0  0  0  0  0  0  0  0
  149.1835  124.9810  152.0237 H   0  0  0  0  0  0  0  0  0  0  0  0
  1  2  1  0  0  0  0
  1 24  1  0  0  0  0
  1 25  1  0  0  0  0
  1 26  1  0  0  0  0
  2  3  1  0  0  0  0
  2 13  1  0  0  0  0
  2 27  1  0  0  0  0
  3  4  1  0  0  0  0
  4  5  2  0  0  0  0
  4  6  1  0  0  0  0
  6  7  1  0  0  0  0
  6 28  1  0  0  0  0
  7 12  1  0  0  0  0
  7  8  2  0  0  0  0
  8  9  1  0  0  0  0
  8 29  1  0  0  0  0
  9 10  2  0  0  0  0
  9 30  1  0  0  0  0
 10 11  1  0  0  0  0
 10 50  1  0  0  0  0
 11 12  2  0  0  0  0
 11 31  1  0  0  0  0
 12 32  1  0  0  0  0
 13 23  1  0  0  0  0
 13 14  1  0  0  0  0
 13 20  1  0  0  0  0
 14 19  1  0  0  0  0
 14 15  1  0  0  0  0
 14 49  1  0  0  0  0
 15 16  1  0  0  0  0
 15 33  1  0  0  0  0
 15 34  1  0  0  0  0
 16 17  1  0  0  0  0
 16 35  1  0  0  0  0
 16 36  1  0  0  0  0
 17 18  1  0  0  0  0
 18 19  1  0  0  0  0
 18 37  1  0  0  0  0
 18 38  1  0  0  0  0
 19 39  1  0  0  0  0
 19 40  1  0  0  0  0
 20 21  1  0  0  0  0
 20 41  1  0  0  0  0
 20 42  1  0  0  0  0
 21 22  1  0  0  0  0
 21 43  1  0  0  0  0
 21 44  1  0  0  0  0
 22 23  1  0  0  0  0
 22 45  1  0  0  0  0
 22 46  1  0  0  0  0
 23 47  1  0  0  0  0
 23 48  1  0  0  0  0
M  CHG  1   3  -1
M  CHG  1  10   1
M  CHG  1  14   1
M  END
> <s_m_source_file>
AV-unprocessed.smi

> <i_m_source_file_index>
702

> <i_lp_mmshare_version>
43012

> <i_f3d_flags>
0

> <s_epik_input>
W0NIMl0xW0NIMl1PW0NIMl1bQ0gyXU4xQzIoW0NIMl1bQ0gyXVtDSDJdW0NIMl0yKVtDQEhdKFtDSDNdKVtOSF1DKD1PKVtOSF1jM1tjSF1bY0hdbltjSF1bY0hdMw==

> <s_epik_cmdline>
J2VwaWtfcHl0aG9uJywgJy1waCcsICc3LjAnLCAnLXRuJywgJzgnLCAnLW1hJywgJzIwMCcsICctbWV0YWxfYmluZGluZycsICctaW1hZScsICc8aW5maWxlLm1hZT4nLCAnLW9tYWUnLCAnPG91dGZpbGUubWFlPic=

> <r_epik_Ionization_Penalty>
8.33674

> <r_epik_Ionization_Penalty_Charging>
8.33674

> <r_epik_Ionization_Penalty_Neutral>
3.60854e-06

> <r_epik_State_Penalty>
8.24268

> <r_epik_Charging_Adjusted_Penalty>
16.5794

> <i_epik_Tot_Q>
1

> <i_epik_Tot_abs_Q>
3

> <r_epik_Metal_State_Penalty>
4.24853

> <b_epik_Metal_Only>
1

> <s_lp_Force_Field>
OPLS_2005

> <r_lp_Energy>
64.6776

> <b_lp_Chiralities_Consistent>
1

> <s_lp_Variant>
AV-unprocessed.smi:702-9

> <Gold.Version>
5.8.1

> <Gold.Id.Protein>
6NUR|6NUR_protein|mol2

> <Gold.PLP.Fitness>
41.6457

> <Gold.PLP.PLP>
-36.4724

> <Gold.PLP.part.hbond>
-2.0000

> <Gold.PLP.part.metal>
0.0000

> <Gold.PLP.part.buried>
-1.6511

> <Gold.PLP.part.nonpolar>
-31.9714

> <Gold.PLP.part.repulsive>
0.4527

> <Gold.PLP.ligand.clash>
0.0000

> <Gold.PLP.ligand.torsion>
0.5344

> <Gold.PLP.Chemscore.Hbond>
2.0000

> <Gold.PLP.Chemscore.CHOScore>
0.0000

> <Gold.PLP.Chemscore.Metal>
0.0000

> <Gold.Chemscore.Hbonds>
donor molecule, donor type, donor heavy atom, donor atom, acceptor molecule, acceptor atom, score
      L1  H    14    49       P1  7948  2.00

> <Gold.PLP.Chemscore.Internal.Correction>
0.2422

> <Gold.Rescore>
     Score         DG    S(hbond)    S(metal)    S(lipo)     H(rot)  DE(clash)    DE(int)     intcor
     14.14     -16.08       1.00        0.00      93.83       1.45       0.07       1.87       ----

> <Gold.Chemscore.Fitness>
14.1393

> <Gold.Chemscore.DG>
-16.0829

> <Gold.Chemscore.ZeroCoef>
-5.4800

> <Gold.Chemscore.Hbond>
0.9994

> <Gold.Chemscore.Metal>
0.0000

> <Gold.Chemscore.Lipo>
93.8263

> <Gold.Chemscore.Internal_Hbond>
0.0000

> <Gold.Chemscore.DEClash>
0.0739

> <Gold.Chemscore.DEInternal>
1.8698

> <Gold.Chemscore.Rot>
1.4504

> <Gold.Chemscore.Internal.Correction>
   9.000000E+99

> <Gold.Chemscore.Hbonds>
donor molecule, donor type, donor heavy atom, donor atom, acceptor molecule, acceptor atom, score
      L1  H    14    49       P1  7948  1.00

> <Gold.Chemscore.Hbond.Weighted>
-3.3381

> <Gold.Chemscore.Metal.Weighted>
-0.0000

> <Gold.Chemscore.Lipo.Weighted>
-10.9777

> <Gold.Chemscore.Internal_Hbond.Weighted>
0.0000

> <Gold.Chemscore.DEClash.Weighted>
0.0739

> <Gold.Chemscore.DEInternal.Weighted>
1.8698

> <Gold.Chemscore.Rot.Weighted>
3.7129

> <Gold.Chemscore.Internal.Correction.Weighted>
   9.000000E+99

> <Gold.Protein.RotatedTorsions>
[ 6907 6896 6895 6894 ] final  100.53 input  -60.11 | X-H torsion
[ 7974 7965 7964 7962 ] final  -56.99 input  175.53 | X-H torsion
[ 8008 7997 7996 7995 ] final  -66.05 input   59.86 | X-H torsion
[ 10167 10162 10161 10158 ] final -173.86 input  -65.29 | X-H torsion
[ 10718 10713 10712 10709 ] final   72.65 input   66.30 | X-H torsion
[ 10763 10752 10751 10750 ] final   32.67 input  -60.55 | X-H torsion
[ 11005 11000 10999 10996 ] final   88.22 input  -57.11 | X-H torsion

> <Gold.Protein.ActiveResidues>
 VAL166  LYS551  ARG553  GLY616  TRP617  ASP618  TYR619  PRO620  LYS621  CYS622 
 ASP623  PHE694  ASN695  SER759  ASP760  ASP761  ALA762  ILE779  LEU786  VAL792 
 PHE793  MET794  SER795  GLU796  ALA797  LYS798  CYS799  TRP800  GLU811  SER814 

> <Gold.Protein.RotatedAtoms>
  152.5370  134.0263  159.8004 H   0  0  0  0  0  0  0  0  0  0  0  0  # atno 6907 bound_to 6896
  151.0441  133.5672  159.2655 H   0  0  0  0  0  0  0  0  0  0  0  0  # atno 6908 bound_to 6896
  151.2631  135.0668  159.9159 H   0  0  0  0  0  0  0  0  0  0  0  0  # atno 6909 bound_to 6896
  145.8563  140.8317  142.9960 H   0  0  0  0  0  0  0  0  0  0  0  0  # atno 7974 bound_to 7965
  154.4710  140.0920  156.7144 H   0  0  0  0  0  0  0  0  0  0  0  0  # atno 8008 bound_to 7997
  155.4725  140.3465  155.4309 H   0  0  0  0  0  0  0  0  0  0  0  0  # atno 8009 bound_to 7997
  156.1038  140.1429  156.9420 H   0  0  0  0  0  0  0  0  0  0  0  0  # atno 8010 bound_to 7997
  139.5665  144.1743  152.1320 H   0  0  0  0  0  0  0  0  0  0  0  0  # atno 10167 bound_to 10162
  157.6511  130.9589  150.0959 H   0  0  0  0  0  0  0  0  0  0  0  0  # atno 10718 bound_to 10713
  153.0250  135.6407  154.1391 H   0  0  0  0  0  0  0  0  0  0  0  0  # atno 10763 bound_to 10752
  154.1121  135.2852  155.3230 H   0  0  0  0  0  0  0  0  0  0  0  0  # atno 10764 bound_to 10752
  154.6324  135.5488  153.7758 H   0  0  0  0  0  0  0  0  0  0  0  0  # atno 10765 bound_to 10752
  139.8901  134.8474  156.2970 H   0  0  0  0  0  0  0  0  0  0  0  0  # atno 11005 bound_to 11000
  144.6727  140.1028  143.7459 LP  0  0  0  0  0  0  0  0  0  0  0  0  # atno 17320 bound_to 7965
  145.9300  139.2600  143.1331 LP  0  0  0  0  0  0  0  0  0  0  0  0  # atno 17321 bound_to 7965
  140.1267  144.5325  150.6828 LP  0  0  0  0  0  0  0  0  0  0  0  0  # atno 17342 bound_to 10162
  140.6949  143.2397  151.5029 LP  0  0  0  0  0  0  0  0  0  0  0  0  # atno 17343 bound_to 10162
  156.1895  130.3654  149.8929 LP  0  0  0  0  0  0  0  0  0  0  0  0  # atno 17370 bound_to 10713
  156.6861  130.8877  151.3582 LP  0  0  0  0  0  0  0  0  0  0  0  0  # atno 17371 bound_to 10713
  140.9938  133.7192  156.0855 LP  0  0  0  0  0  0  0  0  0  0  0  0  # atno 17394 bound_to 11000
  140.7589  134.3961  157.5529 LP  0  0  0  0  0  0  0  0  0  0  0  0  # atno 17395 bound_to 11000

$$$$
