AV-unprocessed.smi:2201|AV-procd|sdf|8928|dock6
  -GOLD-   2272012143D 1   1.00000     0.00000
 Structure written by MMmdl.
 30 30  0  0  0  0  0  0  0  0  2 V2000
  148.1585  133.7066  161.4842 C   0  0  0  0  0  0  0  0  0  0  0  0
  147.2750  134.8992  161.0489 C   0  0  0  0  0  0  0  0  0  0  0  0
  146.3264  134.4090  159.9305 C   0  0  0  0  0  0  0  0  0  0  0  0
  146.4481  135.3568  162.2721 C   0  0  0  0  0  0  0  0  0  0  0  0
  148.1620  136.0673  160.5329 C   0  0  0  0  0  0  0  0  0  0  0  0
  148.0627  137.1853  161.0448 O   0  0  0  0  0  0  0  0  0  0  0  0
  148.9857  135.6956  159.5195 N   0  5  0  0  0  0  0  0  0  0  0  0
  149.2567  136.5614  158.5312 C   0  0  0  0  0  0  0  0  0  0  0  0
  150.0387  136.2576  157.4896 N   0  0  0  0  0  0  0  0  0  0  0  0
  150.1935  137.3080  156.5799 C   0  0  0  0  0  0  0  0  0  0  0  0
  151.0545  137.1313  155.3604 C   0  0  0  0  0  0  0  0  0  0  0  0
  150.9815  138.3519  154.4356 C   0  0  0  0  0  0  0  0  0  0  0  0
  150.2799  138.2347  153.3038 N   0  0  0  0  0  0  0  0  0  0  0  0
  151.5744  139.3880  154.7296 O   0  0  0  0  0  0  0  0  0  0  0  0
  149.4891  138.4303  156.9329 C   0  0  0  0  0  0  0  0  0  0  0  0
  148.6246  138.2052  158.4261 S   0  0  0  0  0  0  0  0  0  0  0  0
  147.5515  132.8778  161.8496 H   0  0  0  0  0  0  0  0  0  0  0  0
  148.8415  133.9829  162.2887 H   0  0  0  0  0  0  0  0  0  0  0  0
  148.7569  133.3253  160.6554 H   0  0  0  0  0  0  0  0  0  0  0  0
  146.8784  134.1428  159.0280 H   0  0  0  0  0  0  0  0  0  0  0  0
  145.5904  135.1655  159.6554 H   0  0  0  0  0  0  0  0  0  0  0  0
  145.7704  133.5255  160.2451 H   0  0  0  0  0  0  0  0  0  0  0  0
  145.8864  134.5262  162.7004 H   0  0  0  0  0  0  0  0  0  0  0  0
  145.7236  136.1295  162.0121 H   0  0  0  0  0  0  0  0  0  0  0  0
  147.0889  135.7569  163.0588 H   0  0  0  0  0  0  0  0  0  0  0  0
  152.0922  136.9625  155.6515 H   0  0  0  0  0  0  0  0  0  0  0  0
  150.7470  136.2500  154.7968 H   0  0  0  0  0  0  0  0  0  0  0  0
  150.2348  139.0091  152.6574 H   0  0  0  0  0  0  0  0  0  0  0  0
  149.8218  137.3617  153.0865 H   0  0  0  0  0  0  0  0  0  0  0  0
  149.4282  139.3725  156.4096 H   0  0  0  0  0  0  0  0  0  0  0  0
  1  2  1  0  0  0  0
  1 17  1  0  0  0  0
  1 18  1  0  0  0  0
  1 19  1  0  0  0  0
  2  3  1  0  0  0  0
  2  4  1  0  0  0  0
  2  5  1  0  0  0  0
  3 20  1  0  0  0  0
  3 21  1  0  0  0  0
  3 22  1  0  0  0  0
  4 23  1  0  0  0  0
  4 24  1  0  0  0  0
  4 25  1  0  0  0  0
  5  6  2  0  0  0  0
  5  7  1  0  0  0  0
  7  8  1  0  0  0  0
  8 16  1  0  0  0  0
  8  9  2  0  0  0  0
  9 10  1  0  0  0  0
 10 11  1  0  0  0  0
 10 15  2  0  0  0  0
 11 12  1  0  0  0  0
 11 26  1  0  0  0  0
 11 27  1  0  0  0  0
 12 13  1  0  0  0  0
 12 14  2  0  0  0  0
 13 28  1  0  0  0  0
 13 29  1  0  0  0  0
 15 16  1  0  0  0  0
 15 30  1  0  0  0  0
M  CHG  1   7  -1
M  END
> <s_m_source_file>
AV-unprocessed.smi

> <i_m_source_file_index>
2201

> <i_lp_mmshare_version>
43012

> <i_f3d_flags>
0

> <s_epik_input>
W0NIM11DKFtDSDNdKShbQ0gzXSlDKD1PKVtOSF1jMW5jKFtjSF1zMSlbQ0gyXUMoPU8pW05IMl0=

> <s_epik_cmdline>
J2VwaWtfcHl0aG9uJywgJy1waCcsICc3LjAnLCAnLXRuJywgJzgnLCAnLW1hJywgJzIwMCcsICctbWV0YWxfYmluZGluZycsICctaW1hZScsICc8aW5maWxlLm1hZT4nLCAnLW9tYWUnLCAnPG91dGZpbGUubWFlPic=

> <r_lp_tautomer_probability>
1

> <r_epik_Ionization_Penalty>
5.6718

> <r_epik_Ionization_Penalty_Charging>
5.12968

> <r_epik_Ionization_Penalty_Neutral>
0.54212

> <r_epik_State_Penalty>
5.12958

> <r_epik_Charging_Adjusted_Penalty>
10.2593

> <i_epik_Tot_Q>
-1

> <i_epik_Tot_abs_Q>
1

> <r_epik_Metal_State_Penalty>
1.2135

> <b_epik_Metal_Only>
1

> <s_lp_Force_Field>
OPLS_2005

> <r_lp_Energy>
3.19374

> <b_lp_Chiralities_Consistent>
1

> <s_lp_Variant>
AV-unprocessed.smi:2201-2

> <Gold.Version>
5.8.1

> <Gold.Id.Protein>
6NUR|6NUR_protein|mol2

> <Gold.PLP.Fitness>
41.0295

> <Gold.PLP.PLP>
-22.8739

> <Gold.PLP.part.hbond>
-6.5595

> <Gold.PLP.part.metal>
0.0000

> <Gold.PLP.part.buried>
-3.0110

> <Gold.PLP.part.nonpolar>
-13.1992

> <Gold.PLP.part.repulsive>
0.1663

> <Gold.PLP.ligand.clash>
0.0000

> <Gold.PLP.ligand.torsion>
0.5047

> <Gold.PLP.Chemscore.Hbond>
6.3731

> <Gold.PLP.Chemscore.CHOScore>
0.0000

> <Gold.PLP.Chemscore.Metal>
0.0000

> <Gold.Chemscore.Hbonds>
donor molecule, donor type, donor heavy atom, donor atom, acceptor molecule, acceptor atom, score
      L1  H    13    28       P1  7957  1.00
      L1  H    13    29       P1  7948  0.99
      P1  H  6896  6909       L1     7  2.00
      P1  H  6931  6943       L1     6  0.98
      P1  H  6934  6947       L1     6  0.70
      P1  H  7989  7998       L1    14  1.00

> <Gold.PLP.Chemscore.Internal.Correction>
0.0457

> <Gold.Rescore>
     Score         DG    S(hbond)    S(metal)    S(lipo)     H(rot)  DE(clash)    DE(int)     intcor
     18.67     -20.43       4.69        0.00      34.88       1.88       0.03       1.73       ----

> <Gold.Chemscore.Fitness>
18.6660

> <Gold.Chemscore.DG>
-20.4260

> <Gold.Chemscore.ZeroCoef>
-5.4800

> <Gold.Chemscore.Hbond>
4.6939

> <Gold.Chemscore.Metal>
0.0000

> <Gold.Chemscore.Lipo>
34.8849

> <Gold.Chemscore.Internal_Hbond>
0.0000

> <Gold.Chemscore.DEClash>
0.0310

> <Gold.Chemscore.DEInternal>
1.7290

> <Gold.Chemscore.Rot>
1.8802

> <Gold.Chemscore.Internal.Correction>
   9.000000E+99

> <Gold.Chemscore.Hbonds>
donor molecule, donor type, donor heavy atom, donor atom, acceptor molecule, acceptor atom, score
      L1  H    13    28       P1  7957  0.49
      L1  H    13    29       P1  7948  0.37
      P1  H  6896  6909       L1     7  0.33
      P1  H  6931  6943       L1     6  0.93
      P1  H  6934  6947       L1     6  0.65
      P1  H  7989  7998       L1    14  0.97

> <Gold.Chemscore.Hbond.Weighted>
-15.6777

> <Gold.Chemscore.Metal.Weighted>
-0.0000

> <Gold.Chemscore.Lipo.Weighted>
-4.0815

> <Gold.Chemscore.Internal_Hbond.Weighted>
0.0000

> <Gold.Chemscore.DEClash.Weighted>
0.0310

> <Gold.Chemscore.DEInternal.Weighted>
1.7290

> <Gold.Chemscore.Rot.Weighted>
4.8132

> <Gold.Chemscore.Internal.Correction.Weighted>
   9.000000E+99

> <Gold.Protein.RotatedTorsions>
[ 6907 6896 6895 6894 ] final   53.72 input  -60.11 | X-H torsion
[ 7974 7965 7964 7962 ] final   -0.66 input  175.53 | X-H torsion
[ 8008 7997 7996 7995 ] final   27.00 input   59.86 | X-H torsion
[ 10167 10162 10161 10158 ] final   84.91 input  -65.29 | X-H torsion
[ 10718 10713 10712 10709 ] final  133.78 input   66.30 | X-H torsion
[ 10763 10752 10751 10750 ] final -126.72 input  -60.55 | X-H torsion
[ 11005 11000 10999 10996 ] final  -98.02 input  -57.11 | X-H torsion

> <Gold.Protein.ActiveResidues>
 VAL166  LYS551  ARG553  GLY616  TRP617  ASP618  TYR619  PRO620  LYS621  CYS622 
 ASP623  PHE694  ASN695  SER759  ASP760  ASP761  ALA762  ILE779  LEU786  VAL792 
 PHE793  MET794  SER795  GLU796  ALA797  LYS798  CYS799  TRP800  GLU811  SER814 

> <Gold.Protein.RotatedAtoms>
  152.3366  134.7190  160.0275 H   0  0  0  0  0  0  0  0  0  0  0  0  # atno 6907 bound_to 6896
  151.7589  133.3327  159.3420 H   0  0  0  0  0  0  0  0  0  0  0  0  # atno 6908 bound_to 6896
  150.7454  134.6056  159.6104 H   0  0  0  0  0  0  0  0  0  0  0  0  # atno 6909 bound_to 6896
  146.2425  140.1304  142.8338 H   0  0  0  0  0  0  0  0  0  0  0  0  # atno 7974 bound_to 7965
  155.0360  140.3164  155.4741 H   0  0  0  0  0  0  0  0  0  0  0  0  # atno 8008 bound_to 7997
  156.2864  140.2171  156.5426 H   0  0  0  0  0  0  0  0  0  0  0  0  # atno 8009 bound_to 7997
  154.7330  140.0480  157.0731 H   0  0  0  0  0  0  0  0  0  0  0  0  # atno 8010 bound_to 7997
  139.9032  144.6317  150.8615 H   0  0  0  0  0  0  0  0  0  0  0  0  # atno 10167 bound_to 10162
  157.4738  131.1082  150.9769 H   0  0  0  0  0  0  0  0  0  0  0  0  # atno 10718 bound_to 10713
  154.8747  135.3986  154.3477 H   0  0  0  0  0  0  0  0  0  0  0  0  # atno 10763 bound_to 10752
  153.4267  135.7024  153.6263 H   0  0  0  0  0  0  0  0  0  0  0  0  # atno 10764 bound_to 10752
  153.4902  135.3750  155.2457 H   0  0  0  0  0  0  0  0  0  0  0  0  # atno 10765 bound_to 10752
  141.1359  133.8214  157.0784 H   0  0  0  0  0  0  0  0  0  0  0  0  # atno 11005 bound_to 11000
  145.0331  140.8886  143.5097 LP  0  0  0  0  0  0  0  0  0  0  0  0  # atno 17320 bound_to 7965
  145.1371  139.2595  143.5509 LP  0  0  0  0  0  0  0  0  0  0  0  0  # atno 17321 bound_to 7965
  140.7702  143.3421  151.2186 LP  0  0  0  0  0  0  0  0  0  0  0  0  # atno 17342 bound_to 10162
  139.7007  143.9538  152.2904 LP  0  0  0  0  0  0  0  0  0  0  0  0  # atno 17343 bound_to 10162
  157.0524  130.5792  149.5372 LP  0  0  0  0  0  0  0  0  0  0  0  0  # atno 17370 bound_to 10713
  156.0087  130.5176  150.7916 LP  0  0  0  0  0  0  0  0  0  0  0  0  # atno 17371 bound_to 10713
  140.0467  134.9827  157.1061 LP  0  0  0  0  0  0  0  0  0  0  0  0  # atno 17394 bound_to 11000
  140.4052  134.2040  155.7163 LP  0  0  0  0  0  0  0  0  0  0  0  0  # atno 17395 bound_to 11000

$$$$
