AV-unprocessed.smi:2855|AV-procd|sdf|10985|dock9
  -GOLD-   2272015443D 1   1.00000     0.00000
 Structure written by MMmdl.
 46 47  0  0  0  0  0  0  0  0  2 V2000
  145.5909  134.2896  152.3132 C   0  0  0  0  0  0  0  0  0  0  0  0
  147.0441  134.1542  152.7893 C   0  0  2  0  0  0  0  0  0  0  0  0
  147.6557  132.8106  152.3629 C   0  0  0  0  0  0  0  0  0  0  0  0
  149.1104  132.6717  152.8382 C   0  0  0  0  0  0  0  0  0  0  0  0
  149.2502  132.8303  154.3737 C   0  0  1  0  0  0  0  0  0  0  0  0
  150.7223  132.6500  154.8604 C   0  0  0  0  0  0  0  0  0  0  0  0
  151.2687  131.2376  154.5760 C   0  0  0  0  0  0  0  0  0  0  0  0
  150.8977  132.9567  156.3608 C   0  0  0  0  0  0  0  0  0  0  0  0
  148.6015  134.1696  154.8261 C   0  0  1  0  0  0  0  0  0  0  0  0
  149.4184  135.3118  154.4171 N   0  0  0  0  0  0  0  0  0  0  0  0
  150.0565  136.1521  155.2440 C   0  0  0  0  0  0  0  0  0  0  0  0
  149.9748  136.0889  156.4711 O   0  0  0  0  0  0  0  0  0  0  0  0
  150.9007  137.2433  154.5751 C   0  0  0  0  0  0  0  0  0  0  0  0
  151.4418  138.2041  155.5488 N   0  0  0  0  0  0  0  0  0  0  0  0
  150.5269  138.9403  156.3217 C   0  0  0  0  0  0  0  0  0  0  0  0
  150.9335  139.8340  157.2432 C   0  0  0  0  0  0  0  0  0  0  0  0
  152.3658  140.0300  157.4299 C   0  0  0  0  0  0  0  0  0  0  0  0
  152.7553  140.8456  158.2634 O   0  0  0  0  0  0  0  0  0  0  0  0
  153.2138  139.2884  156.6587 N   0  5  0  0  0  0  0  0  0  0  0  0
  152.7862  138.3812  155.7268 C   0  0  0  0  0  0  0  0  0  0  0  0
  153.5688  137.7195  155.0430 O   0  0  0  0  0  0  0  0  0  0  0  0
  147.1526  134.3163  154.3156 C   0  0  0  0  0  0  0  0  0  0  0  0
  144.9551  133.5222  152.7556 H   0  0  0  0  0  0  0  0  0  0  0  0
  145.5223  134.1955  151.2291 H   0  0  0  0  0  0  0  0  0  0  0  0
  145.1785  135.2615  152.5855 H   0  0  0  0  0  0  0  0  0  0  0  0
  147.6178  134.9529  152.3171 H   0  0  0  0  0  0  0  0  0  0  0  0
  147.0624  131.9888  152.7665 H   0  0  0  0  0  0  0  0  0  0  0  0
  147.6175  132.7127  151.2773 H   0  0  0  0  0  0  0  0  0  0  0  0
  149.4707  131.6958  152.5163 H   0  0  0  0  0  0  0  0  0  0  0  0
  149.7324  133.4099  152.3301 H   0  0  0  0  0  0  0  0  0  0  0  0
  148.6643  132.0305  154.8294 H   0  0  0  0  0  0  0  0  0  0  0  0
  151.3559  133.3508  154.3152 H   0  0  0  0  0  0  0  0  0  0  0  0
  150.6272  130.4692  155.0082 H   0  0  0  0  0  0  0  0  0  0  0  0
  152.2658  131.1094  154.9983 H   0  0  0  0  0  0  0  0  0  0  0  0
  151.3603  131.0413  153.5087 H   0  0  0  0  0  0  0  0  0  0  0  0
  150.2251  132.3534  156.9711 H   0  0  0  0  0  0  0  0  0  0  0  0
  150.7100  134.0061  156.5869 H   0  0  0  0  0  0  0  0  0  0  0  0
  151.9169  132.7504  156.6885 H   0  0  0  0  0  0  0  0  0  0  0  0
  148.5437  134.1641  155.9153 H   0  0  0  0  0  0  0  0  0  0  0  0
  149.5418  135.4477  153.4244 H   0  0  0  0  0  0  0  0  0  0  0  0
  151.7149  136.7933  154.0033 H   0  0  0  0  0  0  0  0  0  0  0  0
  150.2781  137.7506  153.8371 H   0  0  0  0  0  0  0  0  0  0  0  0
  149.4855  138.7307  156.1261 H   0  0  0  0  0  0  0  0  0  0  0  0
  150.2176  140.3888  157.8314 H   0  0  0  0  0  0  0  0  0  0  0  0
  146.7454  135.2814  154.6199 H   0  0  0  0  0  0  0  0  0  0  0  0
  146.5304  133.5635  154.8013 H   0  0  0  0  0  0  0  0  0  0  0  0
  1  2  1  0  0  0  0
  1 23  1  0  0  0  0
  1 24  1  0  0  0  0
  1 25  1  0  0  0  0
  2 22  1  0  0  0  0
  2  3  1  0  0  0  0
  2 26  1  0  0  0  0
  3  4  1  0  0  0  0
  3 27  1  0  0  0  0
  3 28  1  0  0  0  0
  4  5  1  0  0  0  0
  4 29  1  0  0  0  0
  4 30  1  0  0  0  0
  5  6  1  0  0  0  0
  5  9  1  0  0  0  0
  5 31  1  0  0  0  0
  6  7  1  0  0  0  0
  6  8  1  0  0  0  0
  6 32  1  0  0  0  0
  7 33  1  0  0  0  0
  7 34  1  0  0  0  0
  7 35  1  0  0  0  0
  8 36  1  0  0  0  0
  8 37  1  0  0  0  0
  8 38  1  0  0  0  0
  9 10  1  0  0  0  0
  9 22  1  0  0  0  0
  9 39  1  0  0  0  0
 10 11  1  0  0  0  0
 10 40  1  0  0  0  0
 11 12  2  0  0  0  0
 11 13  1  0  0  0  0
 13 14  1  0  0  0  0
 13 41  1  0  0  0  0
 13 42  1  0  0  0  0
 14 20  1  0  0  0  0
 14 15  1  0  0  0  0
 15 16  2  0  0  0  0
 15 43  1  0  0  0  0
 16 17  1  0  0  0  0
 16 44  1  0  0  0  0
 17 18  2  0  0  0  0
 17 19  1  0  0  0  0
 19 20  1  0  0  0  0
 20 21  2  0  0  0  0
 22 45  1  0  0  0  0
 22 46  1  0  0  0  0
M  CHG  1  19  -1
M  END
> <s_m_source_file>
AV-unprocessed.smi

> <i_m_source_file_index>
2855

> <i_lp_mmshare_version>
43012

> <i_f3d_flags>
0

> <s_epik_input>
W0NIM11bQ0BASF0xW0NIMl1bQ0gyXVtDQEBIXShbQ0hdKFtDSDNdKVtDSDNdKVtDQEhdKFtDSDJdMSlbTkhdQyg9TylbQ0gyXW4yW2NIXVtjSF1jKD1PKVtuSF1jMj1P

> <s_epik_cmdline>
J2VwaWtfcHl0aG9uJywgJy1waCcsICc3LjAnLCAnLXRuJywgJzgnLCAnLW1hJywgJzIwMCcsICctbWV0YWxfYmluZGluZycsICctaW1hZScsICc8aW5maWxlLm1hZT4nLCAnLW9tYWUnLCAnPG91dGZpbGUubWFlPic=

> <r_lp_tautomer_probability>
0.999537

> <r_epik_Ionization_Penalty>
3.12102

> <r_epik_Ionization_Penalty_Charging>
2.9581e-08

> <r_epik_Ionization_Penalty_Neutral>
3.12102

> <r_epik_State_Penalty>
3.12011

> <r_epik_Charging_Adjusted_Penalty>
3.12011

> <i_epik_Tot_Q>
-1

> <i_epik_Tot_abs_Q>
1

> <r_epik_Metal_State_Penalty>
0.463583

> <b_epik_Metal_Only>
1

> <s_lp_Force_Field>
OPLS_2005

> <r_lp_Energy>
22.0986

> <b_lp_Chiralities_Consistent>
1

> <s_lp_Variant>
AV-unprocessed.smi:2855-9

> <Gold.Version>
5.8.1

> <Gold.Id.Protein>
6NUR|6NUR_protein|mol2

> <Gold.PLP.Fitness>
39.1469

> <Gold.PLP.PLP>
-30.3638

> <Gold.PLP.part.hbond>
-2.8267

> <Gold.PLP.part.metal>
0.0000

> <Gold.PLP.part.buried>
-1.5086

> <Gold.PLP.part.nonpolar>
-25.2672

> <Gold.PLP.part.repulsive>
0.0597

> <Gold.PLP.ligand.clash>
0.0000

> <Gold.PLP.ligand.torsion>
0.1166

> <Gold.PLP.Chemscore.Hbond>
2.9920

> <Gold.PLP.Chemscore.CHOScore>
0.0000

> <Gold.PLP.Chemscore.Metal>
0.0000

> <Gold.Chemscore.Hbonds>
donor molecule, donor type, donor heavy atom, donor atom, acceptor molecule, acceptor atom, score
      L1  H    10    40       P1  7948  0.70
      P1  H  7997  8010       L1    19  1.33

> <Gold.PLP.Chemscore.Internal.Correction>
0.0403

> <Gold.Rescore>
     Score         DG    S(hbond)    S(metal)    S(lipo)     H(rot)  DE(clash)    DE(int)     intcor
     12.20     -13.96       1.86        0.00      59.01       1.81       0.04       1.72       ----

> <Gold.Chemscore.Fitness>
12.1992

> <Gold.Chemscore.DG>
-13.9587

> <Gold.Chemscore.ZeroCoef>
-5.4800

> <Gold.Chemscore.Hbond>
1.8585

> <Gold.Chemscore.Metal>
0.0000

> <Gold.Chemscore.Lipo>
59.0147

> <Gold.Chemscore.Internal_Hbond>
0.0000

> <Gold.Chemscore.DEClash>
0.0416

> <Gold.Chemscore.DEInternal>
1.7180

> <Gold.Chemscore.Rot>
1.8100

> <Gold.Chemscore.Internal.Correction>
   9.000000E+99

> <Gold.Chemscore.Hbonds>
donor molecule, donor type, donor heavy atom, donor atom, acceptor molecule, acceptor atom, score
      L1  H    10    40       P1  7948  0.07
      P1  H  7997  8010       L1    19  0.30
      P1  H 10752 10764       L1    21  0.03

> <Gold.Chemscore.Hbond.Weighted>
-6.2075

> <Gold.Chemscore.Metal.Weighted>
-0.0000

> <Gold.Chemscore.Lipo.Weighted>
-6.9047

> <Gold.Chemscore.Internal_Hbond.Weighted>
0.0000

> <Gold.Chemscore.DEClash.Weighted>
0.0416

> <Gold.Chemscore.DEInternal.Weighted>
1.7180

> <Gold.Chemscore.Rot.Weighted>
4.6335

> <Gold.Chemscore.Internal.Correction.Weighted>
   9.000000E+99

> <Gold.Protein.RotatedTorsions>
[ 6907 6896 6895 6894 ] final   18.40 input  -60.11 | X-H torsion
[ 7974 7965 7964 7962 ] final   85.21 input  175.53 | X-H torsion
[ 8008 7997 7996 7995 ] final   64.56 input   59.86 | X-H torsion
[ 10167 10162 10161 10158 ] final  -25.06 input  -65.29 | X-H torsion
[ 10718 10713 10712 10709 ] final   62.38 input   66.30 | X-H torsion
[ 10763 10752 10751 10750 ] final  -30.56 input  -60.55 | X-H torsion
[ 11005 11000 10999 10996 ] final  -44.35 input  -57.11 | X-H torsion

> <Gold.Protein.ActiveResidues>
 VAL166  LYS551  ARG553  GLY616  TRP617  ASP618  TYR619  PRO620  LYS621  CYS622 
 ASP623  PHE694  ASN695  SER759  ASP760  ASP761  ALA762  ILE779  LEU786  VAL792 
 PHE793  MET794  SER795  GLU796  ALA797  LYS798  CYS799  TRP800  GLU811  SER814 

> <Gold.Protein.RotatedAtoms>
  151.8647  135.0511  160.0472 H   0  0  0  0  0  0  0  0  0  0  0  0  # atno 6907 bound_to 6896
  152.2635  133.5314  159.5404 H   0  0  0  0  0  0  0  0  0  0  0  0  # atno 6908 bound_to 6896
  150.7125  134.0713  159.3908 H   0  0  0  0  0  0  0  0  0  0  0  0  # atno 6909 bound_to 6896
  145.5886  139.2335  143.2312 H   0  0  0  0  0  0  0  0  0  0  0  0  # atno 7974 bound_to 7965
  155.6480  140.3497  155.4738 H   0  0  0  0  0  0  0  0  0  0  0  0  # atno 8008 bound_to 7997
  155.9871  140.1186  157.0696 H   0  0  0  0  0  0  0  0  0  0  0  0  # atno 8009 bound_to 7997
  154.4208  140.1126  156.5501 H   0  0  0  0  0  0  0  0  0  0  0  0  # atno 8010 bound_to 7997
  140.7287  143.4298  151.0819 H   0  0  0  0  0  0  0  0  0  0  0  0  # atno 10167 bound_to 10162
  157.5896  130.9047  149.9580 H   0  0  0  0  0  0  0  0  0  0  0  0  # atno 10718 bound_to 10713
  153.7829  135.6904  153.4885 H   0  0  0  0  0  0  0  0  0  0  0  0  # atno 10763 bound_to 10752
  153.1799  135.4510  155.0013 H   0  0  0  0  0  0  0  0  0  0  0  0  # atno 10764 bound_to 10752
  154.8074  135.3363  154.7331 H   0  0  0  0  0  0  0  0  0  0  0  0  # atno 10765 bound_to 10752
  141.0444  133.6767  156.2860 H   0  0  0  0  0  0  0  0  0  0  0  0  # atno 11005 bound_to 11000
  146.1664  140.6712  142.9254 LP  0  0  0  0  0  0  0  0  0  0  0  0  # atno 17320 bound_to 7965
  144.7361  140.4813  143.6902 LP  0  0  0  0  0  0  0  0  0  0  0  0  # atno 17321 bound_to 7965
  139.7954  143.8159  152.3157 LP  0  0  0  0  0  0  0  0  0  0  0  0  # atno 17342 bound_to 10162
  139.8157  144.7317  150.9638 LP  0  0  0  0  0  0  0  0  0  0  0  0  # atno 17343 bound_to 10162
  156.0949  130.3660  150.0325 LP  0  0  0  0  0  0  0  0  0  0  0  0  # atno 17370 bound_to 10713
  156.8450  130.9439  151.3629 LP  0  0  0  0  0  0  0  0  0  0  0  0  # atno 17371 bound_to 10713
  140.6174  134.5397  157.5542 LP  0  0  0  0  0  0  0  0  0  0  0  0  # atno 17394 bound_to 11000
  139.9301  134.7981  156.0957 LP  0  0  0  0  0  0  0  0  0  0  0  0  # atno 17395 bound_to 11000

$$$$
