AV-unprocessed.smi:3245|AV-procd|sdf|12403|dock6
  -GOLD-   2272018283D 1   1.00000     0.00000
 Structure written by MMmdl.
 36 37  0  0  0  0  0  0  0  0  2 V2000
  151.6163  140.8847  158.1096 C   0  0  0  0  0  0  0  0  0  0  0  0
  151.0269  142.2961  157.9852 C   0  0  1  0  0  0  0  0  0  0  0  0
  152.0855  143.3615  158.3454 C   0  0  0  0  0  0  0  0  0  0  0  0
  152.2918  143.4958  159.7764 N   0  0  0  0  0  0  0  0  0  0  0  0
  152.0513  144.5911  160.5788 C   0  0  0  0  0  0  0  0  0  0  0  0
  152.4184  144.2515  161.8494 C   0  0  0  0  0  0  0  0  0  0  0  0
  152.8725  142.9088  161.7237 C   0  0  0  0  0  0  0  0  0  0  0  0
  152.7957  142.4593  160.4813 N   0  0  0  0  0  0  0  0  0  0  0  0
  150.5135  142.4952  156.6105 N   0  3  0  0  0  0  0  0  0  0  0  0
  149.5742  141.4571  156.1391 C   0  0  0  0  0  0  0  0  0  0  0  0
  149.1674  141.7084  154.6802 C   0  0  0  0  0  0  0  0  0  0  0  0
  148.6698  140.4836  154.0495 N   0  0  0  0  0  0  0  0  0  0  0  0
  147.4430  140.3456  153.5309 C   0  0  0  0  0  0  0  0  0  0  0  0
  146.5470  141.1881  153.4950 O   0  0  0  0  0  0  0  0  0  0  0  0
  147.3185  138.9493  152.9610 C   0  0  0  0  0  0  0  0  0  0  0  0
  148.6449  138.4540  153.2614 N   0  0  0  0  0  0  0  0  0  0  0  0
  149.4008  139.3654  153.8870 C   0  0  0  0  0  0  0  0  0  0  0  0
  150.5674  139.1997  154.2400 O   0  0  0  0  0  0  0  0  0  0  0  0
  151.9689  140.6948  159.1240 H   0  0  0  0  0  0  0  0  0  0  0  0
  152.4602  140.7444  157.4331 H   0  0  0  0  0  0  0  0  0  0  0  0
  150.8709  140.1242  157.8745 H   0  0  0  0  0  0  0  0  0  0  0  0
  150.1977  142.3637  158.6916 H   0  0  0  0  0  0  0  0  0  0  0  0
  153.0442  143.1010  157.8948 H   0  0  0  0  0  0  0  0  0  0  0  0
  151.8068  144.3335  157.9344 H   0  0  0  0  0  0  0  0  0  0  0  0
  151.6484  145.5119  160.1832 H   0  0  0  0  0  0  0  0  0  0  0  0
  152.3696  144.8676  162.7351 H   0  0  0  0  0  0  0  0  0  0  0  0
  153.2555  142.2536  162.4922 H   0  0  0  0  0  0  0  0  0  0  0  0
  150.0540  143.3943  156.5736 H   0  0  0  0  0  0  0  0  0  0  0  0
  150.0459  140.4788  156.2414 H   0  0  0  0  0  0  0  0  0  0  0  0
  148.6847  141.4468  156.7685 H   0  0  0  0  0  0  0  0  0  0  0  0
  148.3964  142.4798  154.6367 H   0  0  0  0  0  0  0  0  0  0  0  0
  150.0152  142.1048  154.1186 H   0  0  0  0  0  0  0  0  0  0  0  0
  146.5475  138.3724  153.4729 H   0  0  0  0  0  0  0  0  0  0  0  0
  147.1281  138.9666  151.8876 H   0  0  0  0  0  0  0  0  0  0  0  0
  148.9537  137.5245  153.0153 H   0  0  0  0  0  0  0  0  0  0  0  0
  151.2979  142.5090  155.9742 H   0  0  0  0  0  0  0  0  0  0  0  0
  1  2  1  0  0  0  0
  1 19  1  0  0  0  0
  1 20  1  0  0  0  0
  1 21  1  0  0  0  0
  2  3  1  0  0  0  0
  2  9  1  0  0  0  0
  2 22  1  0  0  0  0
  3  4  1  0  0  0  0
  3 23  1  0  0  0  0
  3 24  1  0  0  0  0
  4  8  1  0  0  0  0
  4  5  1  0  0  0  0
  5  6  2  0  0  0  0
  5 25  1  0  0  0  0
  6  7  1  0  0  0  0
  6 26  1  0  0  0  0
  7  8  2  0  0  0  0
  7 27  1  0  0  0  0
  9 10  1  0  0  0  0
  9 28  1  0  0  0  0
  9 36  1  0  0  0  0
 10 11  1  0  0  0  0
 10 29  1  0  0  0  0
 10 30  1  0  0  0  0
 11 12  1  0  0  0  0
 11 31  1  0  0  0  0
 11 32  1  0  0  0  0
 12 17  1  0  0  0  0
 12 13  1  0  0  0  0
 13 14  2  0  0  0  0
 13 15  1  0  0  0  0
 15 16  1  0  0  0  0
 15 33  1  0  0  0  0
 15 34  1  0  0  0  0
 16 17  1  0  0  0  0
 16 35  1  0  0  0  0
 17 18  2  0  0  0  0
M  CHG  1   9   1
M  END
> <s_m_source_file>
AV-unprocessed.smi

> <i_m_source_file_index>
3245

> <i_lp_mmshare_version>
43012

> <i_f3d_flags>
0

> <s_epik_input>
bjFbY0hdW2NIXVtjSF1uMVtDSDJdW0NAQEhdKFtDSDNdKVtOSF1bQ0gyXVtDSDJdTjJDKD1PKVtDSDJdW05IXUMyPU8=

> <s_epik_cmdline>
J2VwaWtfcHl0aG9uJywgJy1waCcsICc3LjAnLCAnLXRuJywgJzgnLCAnLW1hJywgJzIwMCcsICctbWV0YWxfYmluZGluZycsICctaW1hZScsICc8aW5maWxlLm1hZT4nLCAnLW9tYWUnLCAnPG91dGZpbGUubWFlPic=

> <r_lp_tautomer_probability>
1

> <r_epik_Ionization_Penalty>
0.0160742

> <r_epik_Ionization_Penalty_Charging>
0.0159586

> <r_epik_Ionization_Penalty_Neutral>
0.000115543

> <r_epik_State_Penalty>
0.0125702

> <r_epik_Charging_Adjusted_Penalty>
0.0285288

> <i_epik_Tot_Q>
1

> <i_epik_Tot_abs_Q>
1

> <r_epik_Metal_State_Penalty>
0.0881892

> <b_epik_Metal_Only>
0

> <s_lp_Force_Field>
OPLS_2005

> <r_lp_Energy>
19.8129

> <b_lp_Chiralities_Consistent>
1

> <s_lp_Variant>
AV-unprocessed.smi:3245-2

> <Gold.Version>
5.8.1

> <Gold.Id.Protein>
6NUR|6NUR_protein|mol2

> <Gold.PLP.Fitness>
50.6203

> <Gold.PLP.PLP>
-39.3176

> <Gold.PLP.part.hbond>
-4.0000

> <Gold.PLP.part.metal>
0.0000

> <Gold.PLP.part.buried>
1.1253

> <Gold.PLP.part.nonpolar>
-34.9690

> <Gold.PLP.part.repulsive>
0.6685

> <Gold.PLP.ligand.clash>
0.0000

> <Gold.PLP.ligand.torsion>
0.3039

> <Gold.PLP.Chemscore.Hbond>
3.9520

> <Gold.PLP.Chemscore.CHOScore>
0.0000

> <Gold.PLP.Chemscore.Metal>
0.0000

> <Gold.Chemscore.Hbonds>
donor molecule, donor type, donor heavy atom, donor atom, acceptor molecule, acceptor atom, score
      L1  H     9    28       P1  8028  2.00
      L1  H    16    35       P1  7948  0.96
      P1  H  7989  7998       L1    18  0.81

> <Gold.PLP.Chemscore.Internal.Correction>
0.0546

> <Gold.Rescore>
     Score         DG    S(hbond)    S(metal)    S(lipo)     H(rot)  DE(clash)    DE(int)     intcor
     15.19     -17.44       2.76        0.00      83.44       2.74       1.72       0.54       ----

> <Gold.Chemscore.Fitness>
15.1891

> <Gold.Chemscore.DG>
-17.4429

> <Gold.Chemscore.ZeroCoef>
-5.4800

> <Gold.Chemscore.Hbond>
2.7567

> <Gold.Chemscore.Metal>
0.0000

> <Gold.Chemscore.Lipo>
83.4361

> <Gold.Chemscore.Internal_Hbond>
0.0000

> <Gold.Chemscore.DEClash>
1.7184

> <Gold.Chemscore.DEInternal>
0.5354

> <Gold.Chemscore.Rot>
2.7369

> <Gold.Chemscore.Internal.Correction>
   9.000000E+99

> <Gold.Chemscore.Hbonds>
donor molecule, donor type, donor heavy atom, donor atom, acceptor molecule, acceptor atom, score
      L1  H     9    28       P1  8028  0.94
      L1  H    16    35       P1  7948  0.92
      P1  H  7989  7998       L1    18  0.44

> <Gold.Chemscore.Hbond.Weighted>
-9.2074

> <Gold.Chemscore.Metal.Weighted>
-0.0000

> <Gold.Chemscore.Lipo.Weighted>
-9.7620

> <Gold.Chemscore.Internal_Hbond.Weighted>
0.0000

> <Gold.Chemscore.DEClash.Weighted>
1.7184

> <Gold.Chemscore.DEInternal.Weighted>
0.5354

> <Gold.Chemscore.Rot.Weighted>
7.0065

> <Gold.Chemscore.Internal.Correction.Weighted>
   9.000000E+99

> <Gold.Protein.RotatedTorsions>
[ 6907 6896 6895 6894 ] final   25.42 input  -60.11 | X-H torsion
[ 7974 7965 7964 7962 ] final -109.00 input  175.53 | X-H torsion
[ 8008 7997 7996 7995 ] final -151.62 input   59.86 | X-H torsion
[ 10167 10162 10161 10158 ] final  165.58 input  -65.29 | X-H torsion
[ 10718 10713 10712 10709 ] final  108.08 input   66.30 | X-H torsion
[ 10763 10752 10751 10750 ] final   77.56 input  -60.55 | X-H torsion
[ 11005 11000 10999 10996 ] final  161.07 input  -57.11 | X-H torsion

> <Gold.Protein.ActiveResidues>
 VAL166  LYS551  ARG553  GLY616  TRP617  ASP618  TYR619  PRO620  LYS621  CYS622 
 ASP623  PHE694  ASN695  SER759  ASP760  ASP761  ALA762  ILE779  LEU786  VAL792 
 PHE793  MET794  SER795  GLU796  ALA797  LYS798  CYS799  TRP800  GLU811  SER814 

> <Gold.Protein.RotatedAtoms>
  151.9723  135.0071  160.0553 H   0  0  0  0  0  0  0  0  0  0  0  0  # atno 6907 bound_to 6896
  152.1772  133.4678  159.4948 H   0  0  0  0  0  0  0  0  0  0  0  0  # atno 6908 bound_to 6896
  150.6911  134.1796  159.4286 H   0  0  0  0  0  0  0  0  0  0  0  0  # atno 6909 bound_to 6896
  145.1859  140.8992  143.3453 H   0  0  0  0  0  0  0  0  0  0  0  0  # atno 7974 bound_to 7965
  155.6422  140.0703  157.2614 H   0  0  0  0  0  0  0  0  0  0  0  0  # atno 8008 bound_to 7997
  154.4181  140.1748  156.1635 H   0  0  0  0  0  0  0  0  0  0  0  0  # atno 8009 bound_to 7997
  155.9846  140.3350  155.6698 H   0  0  0  0  0  0  0  0  0  0  0  0  # atno 8010 bound_to 7997
  139.4908  144.4117  151.9292 H   0  0  0  0  0  0  0  0  0  0  0  0  # atno 10167 bound_to 10162
  157.6601  131.0886  150.6251 H   0  0  0  0  0  0  0  0  0  0  0  0  # atno 10718 bound_to 10713
  153.0808  135.4909  154.8498 H   0  0  0  0  0  0  0  0  0  0  0  0  # atno 10763 bound_to 10752
  154.7148  135.3027  154.9143 H   0  0  0  0  0  0  0  0  0  0  0  0  # atno 10764 bound_to 10752
  153.9826  135.6788  153.4803 H   0  0  0  0  0  0  0  0  0  0  0  0  # atno 10765 bound_to 10752
  140.2122  134.8259  157.3132 H   0  0  0  0  0  0  0  0  0  0  0  0  # atno 11005 bound_to 11000
  145.0089  139.3528  143.6130 LP  0  0  0  0  0  0  0  0  0  0  0  0  # atno 17320 bound_to 7965
  146.3445  139.9344  142.8749 LP  0  0  0  0  0  0  0  0  0  0  0  0  # atno 17321 bound_to 7965
  140.3558  144.3033  150.5941 LP  0  0  0  0  0  0  0  0  0  0  0  0  # atno 17342 bound_to 10162
  140.5446  143.2217  151.8029 LP  0  0  0  0  0  0  0  0  0  0  0  0  # atno 17343 bound_to 10162
  156.6555  130.4497  149.5705 LP  0  0  0  0  0  0  0  0  0  0  0  0  # atno 17370 bound_to 10713
  156.2106  130.6676  151.1265 LP  0  0  0  0  0  0  0  0  0  0  0  0  # atno 17371 bound_to 10713
  140.1939  134.4338  155.7700 LP  0  0  0  0  0  0  0  0  0  0  0  0  # atno 17394 bound_to 11000
  141.2226  133.7040  156.8073 LP  0  0  0  0  0  0  0  0  0  0  0  0  # atno 17395 bound_to 11000

$$$$
