AV-unprocessed.smi:1767|AV-procd|sdf|7141|dock2
  -GOLD-   22720 8383D 1   1.00000     0.00000
 Structure written by MMmdl.
 33 35  0  0  0  0  0  0  0  0  2 V2000
  153.0441  138.9226  157.4405 O   0  0  0  0  0  0  0  0  0  0  0  0
  151.9771  139.8308  157.2610 C   0  0  2  0  0  0  0  0  0  0  0  0
  151.9717  140.2806  155.7858 C   0  0  0  0  0  0  0  0  0  0  0  0
  150.9822  139.5516  154.9791 N   0  0  0  0  0  0  0  0  0  0  0  0
  151.0206  138.2753  154.5086 C   0  0  0  0  0  0  0  0  0  0  0  0
  149.8612  138.0511  153.8305 N   0  3  0  0  0  0  0  0  0  0  0  0
  149.0702  139.2011  153.8659 C   0  0  0  0  0  0  0  0  0  0  0  0
  147.8129  139.4572  153.3276 C   0  0  0  0  0  0  0  0  0  0  0  0
  147.2791  140.7437  153.5495 C   0  0  0  0  0  0  0  0  0  0  0  0
  147.9906  141.7179  154.2792 C   0  0  0  0  0  0  0  0  0  0  0  0
  149.2655  141.4479  154.8178 C   0  0  0  0  0  0  0  0  0  0  0  0
  149.7861  140.1725  154.5976 C   0  0  0  0  0  0  0  0  0  0  0  0
  152.0470  141.0048  158.2288 C   0  0  0  0  0  0  0  0  0  0  0  0
  153.0310  141.0226  159.2408 C   0  0  0  0  0  0  0  0  0  0  0  0
  153.0843  142.0866  160.1618 C   0  0  0  0  0  0  0  0  0  0  0  0
  152.1554  143.1409  160.0750 C   0  0  0  0  0  0  0  0  0  0  0  0
  152.2040  144.1612  160.9636 F   0  0  0  0  0  0  0  0  0  0  0  0
  151.1742  143.1318  159.0653 C   0  0  0  0  0  0  0  0  0  0  0  0
  151.1193  142.0671  158.1448 C   0  0  0  0  0  0  0  0  0  0  0  0
  152.7909  138.2866  158.0924 H   0  0  0  0  0  0  0  0  0  0  0  0
  151.0625  139.2709  157.4619 H   0  0  0  0  0  0  0  0  0  0  0  0
  151.8063  141.3542  155.6921 H   0  0  0  0  0  0  0  0  0  0  0  0
  152.9456  140.0826  155.3355 H   0  0  0  0  0  0  0  0  0  0  0  0
  151.8230  137.5662  154.6532 H   0  0  0  0  0  0  0  0  0  0  0  0
  147.2654  138.7124  152.7687 H   0  0  0  0  0  0  0  0  0  0  0  0
  146.3045  140.9879  153.1523 H   0  0  0  0  0  0  0  0  0  0  0  0
  147.5491  142.6925  154.4304 H   0  0  0  0  0  0  0  0  0  0  0  0
  149.7971  142.2024  155.3780 H   0  0  0  0  0  0  0  0  0  0  0  0
  153.7420  140.2135  159.3213 H   0  0  0  0  0  0  0  0  0  0  0  0
  153.8367  142.0924  160.9368 H   0  0  0  0  0  0  0  0  0  0  0  0
  150.4608  143.9401  158.9985 H   0  0  0  0  0  0  0  0  0  0  0  0
  150.3557  142.0641  157.3809 H   0  0  0  0  0  0  0  0  0  0  0  0
  149.6289  137.1755  153.3790 H   0  0  0  0  0  0  0  0  0  0  0  0
  1  2  1  0  0  0  0
  1 20  1  0  0  0  0
  2  3  1  0  0  0  0
  2 13  1  0  0  0  0
  2 21  1  0  0  0  0
  3  4  1  0  0  0  0
  3 22  1  0  0  0  0
  3 23  1  0  0  0  0
  4 12  1  0  0  0  0
  4  5  1  0  0  0  0
  5  6  2  0  0  0  0
  5 24  1  0  0  0  0
  6  7  1  0  0  0  0
  6 33  1  0  0  0  0
  7 12  2  0  0  0  0
  7  8  1  0  0  0  0
  8  9  2  0  0  0  0
  8 25  1  0  0  0  0
  9 10  1  0  0  0  0
  9 26  1  0  0  0  0
 10 11  2  0  0  0  0
 10 27  1  0  0  0  0
 11 12  1  0  0  0  0
 11 28  1  0  0  0  0
 13 19  1  0  0  0  0
 13 14  2  0  0  0  0
 14 15  1  0  0  0  0
 14 29  1  0  0  0  0
 15 16  2  0  0  0  0
 15 30  1  0  0  0  0
 16 17  1  0  0  0  0
 16 18  1  0  0  0  0
 18 19  2  0  0  0  0
 18 31  1  0  0  0  0
 19 32  1  0  0  0  0
M  CHG  1   6   1
M  END
> <s_m_source_file>
AV-unprocessed.smi

> <i_m_source_file_index>
1767

> <i_lp_mmshare_version>
43012

> <i_f3d_flags>
0

> <s_epik_input>
W2NIXTFbY0hdYyhGKVtjSF1bY0hdYzFbQ0BIXShbT0hdKVtDSDJdbihbY0hdbjIpYyhjMjMpW2NIXVtjSF1bY0hdW2NIXTM=

> <s_epik_cmdline>
J2VwaWtfcHl0aG9uJywgJy1waCcsICc3LjAnLCAnLXRuJywgJzgnLCAnLW1hJywgJzIwMCcsICctbWV0YWxfYmluZGluZycsICctaW1hZScsICc8aW5maWxlLm1hZT4nLCAnLW9tYWUnLCAnPG91dGZpbGUubWFlPic=

> <r_epik_Ionization_Penalty>
1.3029

> <r_epik_Ionization_Penalty_Charging>
1.3029

> <r_epik_Ionization_Penalty_Neutral>
1.79538e-06

> <r_epik_State_Penalty>
1.377

> <r_epik_Charging_Adjusted_Penalty>
2.6799

> <i_epik_Tot_Q>
1

> <i_epik_Tot_abs_Q>
1

> <r_epik_Metal_State_Penalty>
5.40879

> <b_epik_Metal_Only>
0

> <s_lp_Force_Field>
OPLS_2005

> <r_lp_Energy>
17.7516

> <b_lp_Chiralities_Consistent>
1

> <s_lp_Variant>
AV-unprocessed.smi:1767-3

> <Gold.Version>
5.8.1

> <Gold.Id.Protein>
6NUR|6NUR_protein|mol2

> <Gold.PLP.Fitness>
51.4174

> <Gold.PLP.PLP>
-44.1601

> <Gold.PLP.part.hbond>
-2.0236

> <Gold.PLP.part.metal>
0.0000

> <Gold.PLP.part.buried>
1.8100

> <Gold.PLP.part.nonpolar>
-43.0138

> <Gold.PLP.part.repulsive>
0.0458

> <Gold.PLP.ligand.clash>
0.0000

> <Gold.PLP.ligand.torsion>
0.8581

> <Gold.PLP.Chemscore.Hbond>
2.9840

> <Gold.PLP.Chemscore.CHOScore>
0.0000

> <Gold.PLP.Chemscore.Metal>
0.0000

> <Gold.Chemscore.Hbonds>
donor molecule, donor type, donor heavy atom, donor atom, acceptor molecule, acceptor atom, score
      L1  H     6    33       P1  7948  1.98
      P1  H  7997  8009       L1     1  1.00

> <Gold.PLP.Chemscore.Internal.Correction>
0.0216

> <Gold.Rescore>
     Score         DG    S(hbond)    S(metal)    S(lipo)     H(rot)  DE(clash)    DE(int)     intcor
     16.46     -17.37       1.26        0.00     108.84       1.97       0.08       0.83       ----

> <Gold.Chemscore.Fitness>
16.4613

> <Gold.Chemscore.DG>
-17.3712

> <Gold.Chemscore.ZeroCoef>
-5.4800

> <Gold.Chemscore.Hbond>
1.2558

> <Gold.Chemscore.Metal>
0.0000

> <Gold.Chemscore.Lipo>
108.8381

> <Gold.Chemscore.Internal_Hbond>
0.0000

> <Gold.Chemscore.DEClash>
0.0758

> <Gold.Chemscore.DEInternal>
0.8341

> <Gold.Chemscore.Rot>
1.9677

> <Gold.Chemscore.Internal.Correction>
   9.000000E+99

> <Gold.Chemscore.Hbonds>
donor molecule, donor type, donor heavy atom, donor atom, acceptor molecule, acceptor atom, score
      L1  H     6    33       P1  7948  0.69
      P1  H  7997  8009       L1     1  0.34

> <Gold.Chemscore.Hbond.Weighted>
-4.1944

> <Gold.Chemscore.Metal.Weighted>
-0.0000

> <Gold.Chemscore.Lipo.Weighted>
-12.7341

> <Gold.Chemscore.Internal_Hbond.Weighted>
0.0000

> <Gold.Chemscore.DEClash.Weighted>
0.0758

> <Gold.Chemscore.DEInternal.Weighted>
0.8341

> <Gold.Chemscore.Rot.Weighted>
5.0372

> <Gold.Chemscore.Internal.Correction.Weighted>
   9.000000E+99

> <Gold.Protein.RotatedTorsions>
[ 6907 6896 6895 6894 ] final -163.45 input  -60.11 | X-H torsion
[ 7974 7965 7964 7962 ] final  123.59 input  175.53 | X-H torsion
[ 8008 7997 7996 7995 ] final  154.18 input   59.86 | X-H torsion
[ 10167 10162 10161 10158 ] final   14.96 input  -65.29 | X-H torsion
[ 10718 10713 10712 10709 ] final  -19.39 input   66.30 | X-H torsion
[ 10763 10752 10751 10750 ] final   -5.61 input  -60.55 | X-H torsion
[ 11005 11000 10999 10996 ] final   70.96 input  -57.11 | X-H torsion

> <Gold.Protein.ActiveResidues>
 VAL166  LYS551  ARG553  GLY616  TRP617  ASP618  TYR619  PRO620  LYS621  CYS622 
 ASP623  PHE694  ASN695  SER759  ASP760  ASP761  ALA762  ILE779  LEU786  VAL792 
 PHE793  MET794  SER795  GLU796  ALA797  LYS798  CYS799  TRP800  GLU811  SER814 

> <Gold.Protein.RotatedAtoms>
  151.3962  133.3772  159.2726 H   0  0  0  0  0  0  0  0  0  0  0  0  # atno 6907 bound_to 6896
  150.9467  134.8873  159.7657 H   0  0  0  0  0  0  0  0  0  0  0  0  # atno 6908 bound_to 6896
  152.5095  134.3916  159.9438 H   0  0  0  0  0  0  0  0  0  0  0  0  # atno 6909 bound_to 6896
  145.0941  139.3565  143.4845 H   0  0  0  0  0  0  0  0  0  0  0  0  # atno 7974 bound_to 7965
  156.2544  140.1973  156.6606 H   0  0  0  0  0  0  0  0  0  0  0  0  # atno 8008 bound_to 7997
  154.6467  140.0577  156.9934 H   0  0  0  0  0  0  0  0  0  0  0  0  # atno 8009 bound_to 7997
  155.1479  140.3248  155.4440 H   0  0  0  0  0  0  0  0  0  0  0  0  # atno 8010 bound_to 7997
  140.5900  143.8815  150.6864 H   0  0  0  0  0  0  0  0  0  0  0  0  # atno 10167 bound_to 10162
  156.5464  130.4691  149.6473 H   0  0  0  0  0  0  0  0  0  0  0  0  # atno 10718 bound_to 10713
  153.4009  135.7005  153.6427 H   0  0  0  0  0  0  0  0  0  0  0  0  # atno 10763 bound_to 10752
  153.4960  135.3662  155.2516 H   0  0  0  0  0  0  0  0  0  0  0  0  # atno 10764 bound_to 10752
  154.8710  135.4100  154.3344 H   0  0  0  0  0  0  0  0  0  0  0  0  # atno 10765 bound_to 10752
  139.9569  134.7128  156.0733 H   0  0  0  0  0  0  0  0  0  0  0  0  # atno 11005 bound_to 11000
  146.3531  140.0789  142.8619 LP  0  0  0  0  0  0  0  0  0  0  0  0  # atno 17320 bound_to 7965
  145.1031  140.9358  143.4700 LP  0  0  0  0  0  0  0  0  0  0  0  0  # atno 17321 bound_to 7965
  140.2335  143.3717  152.1546 LP  0  0  0  0  0  0  0  0  0  0  0  0  # atno 17342 bound_to 10162
  139.5221  144.7055  151.5368 LP  0  0  0  0  0  0  0  0  0  0  0  0  # atno 17343 bound_to 10162
  156.2925  130.7132  151.1984 LP  0  0  0  0  0  0  0  0  0  0  0  0  # atno 17370 bound_to 10713
  157.7396  131.0527  150.5222 LP  0  0  0  0  0  0  0  0  0  0  0  0  # atno 17371 bound_to 10713
  141.1242  133.6604  156.3292 LP  0  0  0  0  0  0  0  0  0  0  0  0  # atno 17394 bound_to 11000
  140.5588  134.5954  157.5428 LP  0  0  0  0  0  0  0  0  0  0  0  0  # atno 17395 bound_to 11000

$$$$
