AV-unprocessed.smi:2792|AV-procd|sdf|10772|dock7
  -GOLD-   2272015213D 1   1.00000     0.00000
 Structure written by MMmdl.
 44 46  0  0  0  0  0  0  0  0  1 V2000
  148.0001  132.3096  154.1981 C   0  0  0  0  0  0  0  0  0  0  0  0
  149.3240  133.0814  154.3314 C   0  0  0  0  0  0  0  0  0  0  0  0
  149.2640  134.3873  155.1615 C   0  0  1  0  0  0  0  0  0  0  0  0
  148.1312  135.3251  154.6922 C   0  0  0  0  0  0  0  0  0  0  0  0
  148.9939  134.0362  156.5055 O   0  0  0  0  0  0  0  0  0  0  0  0
  150.6513  135.0809  155.1197 C   0  0  0  0  0  0  0  0  0  0  0  0
  150.6645  136.4379  155.6465 N   0  0  0  0  0  0  0  0  0  0  0  0
  149.8049  136.9636  156.5858 C   0  0  0  0  0  0  0  0  0  0  0  0
  150.0166  138.2129  156.8996 N   0  0  0  0  0  0  0  0  0  0  0  0
  151.0968  138.5787  156.1069 C   0  0  0  0  0  0  0  0  0  0  0  0
  151.8359  139.7787  155.9448 C   0  0  0  0  0  0  0  0  0  0  0  0
  151.5315  140.8890  156.6525 N   0  0  0  0  0  0  0  0  0  0  0  0
  151.2741  140.8031  158.0866 C   0  0  0  0  0  0  0  0  0  0  0  0
  151.4908  142.0969  158.8557 C   0  0  0  0  0  0  0  0  0  0  0  0
  150.7591  143.2577  158.5242 C   0  0  0  0  0  0  0  0  0  0  0  0
  150.9609  144.4517  159.2434 C   0  0  0  0  0  0  0  0  0  0  0  0
  151.8967  144.4912  160.2951 C   0  0  0  0  0  0  0  0  0  0  0  0
  152.6325  143.3367  160.6256 C   0  0  0  0  0  0  0  0  0  0  0  0
  152.4314  142.1426  159.9061 C   0  0  0  0  0  0  0  0  0  0  0  0
  152.8555  139.7770  155.0460 N   0  0  0  0  0  0  0  0  0  0  0  0
  153.1396  138.6673  154.3572 C   0  0  0  0  0  0  0  0  0  0  0  0
  152.5398  137.4757  154.4097 N   0  0  0  0  0  0  0  0  0  0  0  0
  151.5137  137.4772  155.3083 C   0  0  0  0  0  0  0  0  0  0  0  0
  148.1572  131.3753  153.6588 H   0  0  0  0  0  0  0  0  0  0  0  0
  147.2535  132.8775  153.6439 H   0  0  0  0  0  0  0  0  0  0  0  0
  147.5805  132.0573  155.1720 H   0  0  0  0  0  0  0  0  0  0  0  0
  150.0651  132.4128  154.7721 H   0  0  0  0  0  0  0  0  0  0  0  0
  149.6914  133.3092  153.3300 H   0  0  0  0  0  0  0  0  0  0  0  0
  148.2847  135.6387  153.6593 H   0  0  0  0  0  0  0  0  0  0  0  0
  148.0667  136.2247  155.3046 H   0  0  0  0  0  0  0  0  0  0  0  0
  147.1545  134.8457  154.7513 H   0  0  0  0  0  0  0  0  0  0  0  0
  148.9273  133.0951  156.5633 H   0  0  0  0  0  0  0  0  0  0  0  0
  151.3878  134.4943  155.6710 H   0  0  0  0  0  0  0  0  0  0  0  0
  151.0107  135.1220  154.0906 H   0  0  0  0  0  0  0  0  0  0  0  0
  149.0149  136.3834  157.0403 H   0  0  0  0  0  0  0  0  0  0  0  0
  151.2801  141.7636  156.2148 H   0  0  0  0  0  0  0  0  0  0  0  0
  150.2593  140.4374  158.2493 H   0  0  0  0  0  0  0  0  0  0  0  0
  151.9398  140.0471  158.5032 H   0  0  0  0  0  0  0  0  0  0  0  0
  150.0390  143.2349  157.7194 H   0  0  0  0  0  0  0  0  0  0  0  0
  150.3975  145.3373  158.9884 H   0  0  0  0  0  0  0  0  0  0  0  0
  152.0511  145.4064  160.8475 H   0  0  0  0  0  0  0  0  0  0  0  0
  153.3506  143.3665  161.4318 H   0  0  0  0  0  0  0  0  0  0  0  0
  152.9972  141.2603  160.1676 H   0  0  0  0  0  0  0  0  0  0  0  0
  153.9654  138.7455  153.6656 H   0  0  0  0  0  0  0  0  0  0  0  0
  1  2  1  0  0  0  0
  1 24  1  0  0  0  0
  1 25  1  0  0  0  0
  1 26  1  0  0  0  0
  2  3  1  0  0  0  0
  2 27  1  0  0  0  0
  2 28  1  0  0  0  0
  3  4  1  0  0  0  0
  3  5  1  0  0  0  0
  3  6  1  0  0  0  0
  4 29  1  0  0  0  0
  4 30  1  0  0  0  0
  4 31  1  0  0  0  0
  5 32  1  0  0  0  0
  6  7  1  0  0  0  0
  6 33  1  0  0  0  0
  6 34  1  0  0  0  0
  7 23  1  0  0  0  0
  7  8  1  0  0  0  0
  8  9  2  0  0  0  0
  8 35  1  0  0  0  0
  9 10  1  0  0  0  0
 10 23  2  0  0  0  0
 10 11  1  0  0  0  0
 11 12  1  0  0  0  0
 11 20  2  0  0  0  0
 12 13  1  0  0  0  0
 12 36  1  0  0  0  0
 13 14  1  0  0  0  0
 13 37  1  0  0  0  0
 13 38  1  0  0  0  0
 14 19  1  0  0  0  0
 14 15  2  0  0  0  0
 15 16  1  0  0  0  0
 15 39  1  0  0  0  0
 16 17  2  0  0  0  0
 16 40  1  0  0  0  0
 17 18  1  0  0  0  0
 17 41  1  0  0  0  0
 18 19  2  0  0  0  0
 18 42  1  0  0  0  0
 19 43  1  0  0  0  0
 20 21  1  0  0  0  0
 21 22  2  0  0  0  0
 21 44  1  0  0  0  0
 22 23  1  0  0  0  0
M  END
> <s_m_source_file>
AV-unprocessed.smi

> <i_m_source_file_index>
2792

> <i_lp_mmshare_version>
43012

> <i_f3d_flags>
0

> <s_epik_input>
W0NIM11bQ0gyXVtDQEBdKFtDSDNdKShbT0hdKVtDSDJdbihbY0hdbjEpYyhjMTIpbltjSF1uYzJbTkhdW0NIMl1jM1tjSF1bY0hdW2NIXVtjSF1bY0hdMw==

> <s_epik_cmdline>
J2VwaWtfcHl0aG9uJywgJy1waCcsICc3LjAnLCAnLXRuJywgJzgnLCAnLW1hJywgJzIwMCcsICctbWV0YWxfYmluZGluZycsICctaW1hZScsICc8aW5maWxlLm1hZT4nLCAnLW9tYWUnLCAnPG91dGZpbGUubWFlPic=

> <r_lp_tautomer_probability>
1

> <r_epik_Ionization_Penalty>
0.00163025

> <r_epik_Ionization_Penalty_Charging>
0

> <r_epik_Ionization_Penalty_Neutral>
0.00163025

> <r_epik_State_Penalty>
-0

> <r_epik_Charging_Adjusted_Penalty>
0

> <i_epik_Tot_Q>
0

> <i_epik_Tot_abs_Q>
0

> <r_epik_Metal_State_Penalty>
-0

> <b_epik_Metal_Only>
0

> <s_lp_Force_Field>
OPLS_2005

> <r_lp_Energy>
13.0485

> <b_lp_Chiralities_Consistent>
1

> <s_lp_Variant>
AV-unprocessed.smi:2792-1

> <Gold.Version>
5.8.1

> <Gold.Id.Protein>
6NUR|6NUR_protein|mol2

> <Gold.PLP.Fitness>
44.4325

> <Gold.PLP.PLP>
-40.7508

> <Gold.PLP.part.hbond>
-3.0000

> <Gold.PLP.part.metal>
0.0000

> <Gold.PLP.part.buried>
-5.2517

> <Gold.PLP.part.nonpolar>
-31.9570

> <Gold.PLP.part.repulsive>
0.2439

> <Gold.PLP.ligand.clash>
0.0000

> <Gold.PLP.ligand.torsion>
1.0834

> <Gold.PLP.Chemscore.Hbond>
1.9011

> <Gold.PLP.Chemscore.CHOScore>
0.0000

> <Gold.PLP.Chemscore.Metal>
0.0000

> <Gold.Chemscore.Hbonds>
donor molecule, donor type, donor heavy atom, donor atom, acceptor molecule, acceptor atom, score
      P1  H  7989  7998       L1    20  0.16
      P1  H  7997  8010       L1    20  1.00
      P1  H 10752 10763       L1    22  0.59

> <Gold.PLP.Chemscore.Internal.Correction>
0.1451

> <Gold.Rescore>
     Score         DG    S(hbond)    S(metal)    S(lipo)     H(rot)  DE(clash)    DE(int)     intcor
     12.58     -15.01       1.48        0.00      94.60       2.52       0.11       2.32       ----

> <Gold.Chemscore.Fitness>
12.5836

> <Gold.Chemscore.DG>
-15.0136

> <Gold.Chemscore.ZeroCoef>
-5.4800

> <Gold.Chemscore.Hbond>
1.4757

> <Gold.Chemscore.Metal>
0.0000

> <Gold.Chemscore.Lipo>
94.6037

> <Gold.Chemscore.Internal_Hbond>
0.0000

> <Gold.Chemscore.DEClash>
0.1060

> <Gold.Chemscore.DEInternal>
2.3241

> <Gold.Chemscore.Rot>
2.5250

> <Gold.Chemscore.Internal.Correction>
   9.000000E+99

> <Gold.Chemscore.Hbonds>
donor molecule, donor type, donor heavy atom, donor atom, acceptor molecule, acceptor atom, score
      P1  H  7997  8010       L1    20  0.31
      P1  H 10752 10763       L1    22  0.30

> <Gold.Chemscore.Hbond.Weighted>
-4.9289

> <Gold.Chemscore.Metal.Weighted>
-0.0000

> <Gold.Chemscore.Lipo.Weighted>
-11.0686

> <Gold.Chemscore.Internal_Hbond.Weighted>
0.0000

> <Gold.Chemscore.DEClash.Weighted>
0.1060

> <Gold.Chemscore.DEInternal.Weighted>
2.3241

> <Gold.Chemscore.Rot.Weighted>
6.4639

> <Gold.Chemscore.Internal.Correction.Weighted>
   9.000000E+99

> <Gold.Protein.RotatedTorsions>
[ 6907 6896 6895 6894 ] final -134.63 input  -60.11 | X-H torsion
[ 7974 7965 7964 7962 ] final   33.27 input  175.53 | X-H torsion
[ 8008 7997 7996 7995 ] final  114.08 input   59.86 | X-H torsion
[ 10167 10162 10161 10158 ] final -108.69 input  -65.29 | X-H torsion
[ 10718 10713 10712 10709 ] final -147.10 input   66.30 | X-H torsion
[ 10763 10752 10751 10750 ] final   35.53 input  -60.55 | X-H torsion
[ 11005 11000 10999 10996 ] final  164.29 input  -57.11 | X-H torsion

> <Gold.Protein.ActiveResidues>
 VAL166  LYS551  ARG553  GLY616  TRP617  ASP618  TYR619  PRO620  LYS621  CYS622 
 ASP623  PHE694  ASN695  SER759  ASP760  ASP761  ALA762  ILE779  LEU786  VAL792 
 PHE793  MET794  SER795  GLU796  ALA797  LYS798  CYS799  TRP800  GLU811  SER814 

> <Gold.Protein.RotatedAtoms>
  150.9881  133.6177  159.2712 H   0  0  0  0  0  0  0  0  0  0  0  0  # atno 6907 bound_to 6896
  151.3407  135.0862  159.9380 H   0  0  0  0  0  0  0  0  0  0  0  0  # atno 6908 bound_to 6896
  152.5237  133.9493  159.7718 H   0  0  0  0  0  0  0  0  0  0  0  0  # atno 6909 bound_to 6896
  146.1432  139.6418  142.9149 H   0  0  0  0  0  0  0  0  0  0  0  0  # atno 7974 bound_to 7965
  156.2299  140.2966  156.0161 H   0  0  0  0  0  0  0  0  0  0  0  0  # atno 8008 bound_to 7997
  155.2254  140.0417  157.2971 H   0  0  0  0  0  0  0  0  0  0  0  0  # atno 8009 bound_to 7997
  154.5977  140.2418  155.7841 H   0  0  0  0  0  0  0  0  0  0  0  0  # atno 8010 bound_to 7997
  140.1634  143.4101  152.1408 H   0  0  0  0  0  0  0  0  0  0  0  0  # atno 10167 bound_to 10162
  156.4032  130.7944  151.2156 H   0  0  0  0  0  0  0  0  0  0  0  0  # atno 10718 bound_to 10713
  153.0115  135.6331  154.1841 H   0  0  0  0  0  0  0  0  0  0  0  0  # atno 10763 bound_to 10752
  154.1583  135.2825  155.3118 H   0  0  0  0  0  0  0  0  0  0  0  0  # atno 10764 bound_to 10752
  154.6001  135.5590  153.7426 H   0  0  0  0  0  0  0  0  0  0  0  0  # atno 10765 bound_to 10752
  140.2445  134.8025  157.3442 H   0  0  0  0  0  0  0  0  0  0  0  0  # atno 11005 bound_to 11000
  145.4999  141.0437  143.2546 LP  0  0  0  0  0  0  0  0  0  0  0  0  # atno 17320 bound_to 7965
  144.7816  139.6515  143.7152 LP  0  0  0  0  0  0  0  0  0  0  0  0  # atno 17321 bound_to 7965
  139.5370  144.7220  151.4859 LP  0  0  0  0  0  0  0  0  0  0  0  0  # atno 17342 bound_to 10162
  140.6628  143.8462  150.6907 LP  0  0  0  0  0  0  0  0  0  0  0  0  # atno 17343 bound_to 10162
  157.7504  131.0280  150.4031 LP  0  0  0  0  0  0  0  0  0  0  0  0  # atno 17370 bound_to 10713
  156.4315  130.3973  149.6757 LP  0  0  0  0  0  0  0  0  0  0  0  0  # atno 17371 bound_to 10713
  140.1620  134.4716  155.7888 LP  0  0  0  0  0  0  0  0  0  0  0  0  # atno 17394 bound_to 11000
  141.2207  133.6905  156.7561 LP  0  0  0  0  0  0  0  0  0  0  0  0  # atno 17395 bound_to 11000

$$$$
