AV-unprocessed.smi:2004|AV-procd|sdf|8123|dock4
  -GOLD-   2272010353D 1   1.00000     0.00000
 Structure written by MMmdl.
 40 42  0  0  0  0  0  0  0  0  2 V2000
  146.2367  137.9345  151.0592 O   0  0  0  0  0  0  0  0  0  0  0  0
  145.7414  137.7152  152.3629 C   0  0  2  0  0  0  0  0  0  0  0  0
  146.4349  138.6908  153.3338 C   0  0  0  0  0  0  0  0  0  0  0  0
  147.6408  138.0889  153.7710 O   0  0  0  0  0  0  0  0  0  0  0  0
  148.7949  138.4994  153.0640 C   0  0  0  0  0  0  0  0  0  0  0  0
  149.6587  139.3840  153.9402 C   0  0  0  0  0  0  0  0  0  0  0  0
  150.9638  138.9723  154.2822 C   0  0  0  0  0  0  0  0  0  0  0  0
  151.7826  139.7993  155.0751 C   0  0  0  0  0  0  0  0  0  0  0  0
  151.2984  141.0407  155.5309 C   0  0  0  0  0  0  0  0  0  0  0  0
  149.9940  141.4530  155.1960 C   0  0  0  0  0  0  0  0  0  0  0  0
  149.1742  140.6253  154.4040 C   0  0  0  0  0  0  0  0  0  0  0  0
  145.9123  136.2143  152.7068 C   0  0  0  0  0  0  0  0  0  0  0  0
  145.0193  135.3194  151.9562 N   0  0  0  0  0  0  0  0  0  0  0  0
  143.8291  135.5823  151.3504 C   0  0  0  0  0  0  0  0  0  0  0  0
  143.4144  134.4367  150.7423 N   0  3  0  0  0  0  0  0  0  0  0  0
  144.3497  133.4248  150.9669 C   0  0  0  0  0  0  0  0  0  0  0  0
  144.3776  132.1000  150.5432 C   0  0  0  0  0  0  0  0  0  0  0  0
  145.4894  131.3312  150.9454 C   0  0  0  0  0  0  0  0  0  0  0  0
  146.5140  131.8820  151.7427 C   0  0  0  0  0  0  0  0  0  0  0  0
  146.4735  133.2258  152.1694 C   0  0  0  0  0  0  0  0  0  0  0  0
  145.3760  133.9808  151.7597 C   0  0  0  0  0  0  0  0  0  0  0  0
  145.5169  138.1863  150.5011 H   0  0  0  0  0  0  0  0  0  0  0  0
  144.6794  137.9601  152.3358 H   0  0  0  0  0  0  0  0  0  0  0  0
  146.6190  139.6477  152.8426 H   0  0  0  0  0  0  0  0  0  0  0  0
  145.8088  138.8824  154.2066 H   0  0  0  0  0  0  0  0  0  0  0  0
  149.3709  137.6281  152.7482 H   0  0  0  0  0  0  0  0  0  0  0  0
  148.5065  139.0460  152.1651 H   0  0  0  0  0  0  0  0  0  0  0  0
  151.3420  138.0236  153.9302 H   0  0  0  0  0  0  0  0  0  0  0  0
  152.7821  139.4818  155.3329 H   0  0  0  0  0  0  0  0  0  0  0  0
  151.9263  141.6753  156.1387 H   0  0  0  0  0  0  0  0  0  0  0  0
  149.6226  142.4046  155.5470 H   0  0  0  0  0  0  0  0  0  0  0  0
  148.1770  140.9518  154.1479 H   0  0  0  0  0  0  0  0  0  0  0  0
  146.9419  135.8900  152.5507 H   0  0  0  0  0  0  0  0  0  0  0  0
  145.6929  136.0506  153.7631 H   0  0  0  0  0  0  0  0  0  0  0  0
  143.3163  136.5331  151.3377 H   0  0  0  0  0  0  0  0  0  0  0  0
  143.5951  131.6765  149.9308 H   0  0  0  0  0  0  0  0  0  0  0  0
  145.5573  130.2984  150.6356 H   0  0  0  0  0  0  0  0  0  0  0  0
  147.3500  131.2615  152.0311 H   0  0  0  0  0  0  0  0  0  0  0  0
  147.2645  133.6404  152.7762 H   0  0  0  0  0  0  0  0  0  0  0  0
  142.5586  134.3555  150.2087 H   0  0  0  0  0  0  0  0  0  0  0  0
  1  2  1  0  0  0  0
  1 22  1  0  0  0  0
  2  3  1  0  0  0  0
  2 12  1  0  0  0  0
  2 23  1  0  0  0  0
  3  4  1  0  0  0  0
  3 24  1  0  0  0  0
  3 25  1  0  0  0  0
  4  5  1  0  0  0  0
  5  6  1  0  0  0  0
  5 26  1  0  0  0  0
  5 27  1  0  0  0  0
  6 11  1  0  0  0  0
  6  7  2  0  0  0  0
  7  8  1  0  0  0  0
  7 28  1  0  0  0  0
  8  9  2  0  0  0  0
  8 29  1  0  0  0  0
  9 10  1  0  0  0  0
  9 30  1  0  0  0  0
 10 11  2  0  0  0  0
 10 31  1  0  0  0  0
 11 32  1  0  0  0  0
 12 13  1  0  0  0  0
 12 33  1  0  0  0  0
 12 34  1  0  0  0  0
 13 21  1  0  0  0  0
 13 14  1  0  0  0  0
 14 15  2  0  0  0  0
 14 35  1  0  0  0  0
 15 16  1  0  0  0  0
 15 40  1  0  0  0  0
 16 21  2  0  0  0  0
 16 17  1  0  0  0  0
 17 18  2  0  0  0  0
 17 36  1  0  0  0  0
 18 19  1  0  0  0  0
 18 37  1  0  0  0  0
 19 20  2  0  0  0  0
 19 38  1  0  0  0  0
 20 21  1  0  0  0  0
 20 39  1  0  0  0  0
M  CHG  1  15   1
M  END
> <s_m_source_file>
AV-unprocessed.smi

> <i_m_source_file_index>
2004

> <i_lp_mmshare_version>
43012

> <i_f3d_flags>
0

> <s_epik_input>
W2NIXTFbY0hdW2NIXVtjSF1jKGMxMiluKFtjSF1uMilbQ0gyXVtDQEhdKFtPSF0pW0NIMl1PW0NIMl1jM1tjSF1bY0hdW2NIXVtjSF1bY0hdMw==

> <s_epik_cmdline>
J2VwaWtfcHl0aG9uJywgJy1waCcsICc3LjAnLCAnLXRuJywgJzgnLCAnLW1hJywgJzIwMCcsICctbWV0YWxfYmluZGluZycsICctaW1hZScsICc8aW5maWxlLm1hZT4nLCAnLW9tYWUnLCAnPG91dGZpbGUubWFlPic=

> <r_epik_Ionization_Penalty>
1.28975

> <r_epik_Ionization_Penalty_Charging>
1.28975

> <r_epik_Ionization_Penalty_Neutral>
1.07667e-06

> <r_epik_State_Penalty>
1.36276

> <r_epik_Charging_Adjusted_Penalty>
2.65251

> <i_epik_Tot_Q>
1

> <i_epik_Tot_abs_Q>
1

> <r_epik_Metal_State_Penalty>
5.39298

> <b_epik_Metal_Only>
0

> <s_lp_Force_Field>
OPLS_2005

> <r_lp_Energy>
17.8954

> <b_lp_Chiralities_Consistent>
1

> <s_lp_Variant>
AV-unprocessed.smi:2004-3

> <Gold.Version>
5.8.1

> <Gold.Id.Protein>
6NUR|6NUR_protein|mol2

> <Gold.PLP.Fitness>
50.3285

> <Gold.PLP.PLP>
-38.3554

> <Gold.PLP.part.hbond>
-4.0000

> <Gold.PLP.part.metal>
0.0000

> <Gold.PLP.part.buried>
3.6553

> <Gold.PLP.part.nonpolar>
-38.9903

> <Gold.PLP.part.repulsive>
0.5361

> <Gold.PLP.ligand.clash>
0.0000

> <Gold.PLP.ligand.torsion>
1.3040

> <Gold.PLP.Chemscore.Hbond>
3.8128

> <Gold.PLP.Chemscore.CHOScore>
1.0000

> <Gold.PLP.Chemscore.Metal>
0.0000

> <Gold.Chemscore.Hbonds>
donor molecule, donor type, donor heavy atom, donor atom, acceptor molecule, acceptor atom, score
      L1  H     1    22       P1 10171  1.00
      L1  H    15    40       P1 10186  2.00
      P1  H  7954  7966       L1     1  0.46
      L1  C    14    35       P1 10171  0.78

> <Gold.PLP.Chemscore.Internal.Correction>
0.1429

> <Gold.Rescore>
     Score         DG    S(hbond)    S(metal)    S(lipo)     H(rot)  DE(clash)    DE(int)     intcor
     14.64     -18.85       2.13        0.00     106.50       2.43       2.77       1.45       ----

> <Gold.Chemscore.Fitness>
14.6413

> <Gold.Chemscore.DG>
-18.8528

> <Gold.Chemscore.ZeroCoef>
-5.4800

> <Gold.Chemscore.Hbond>
2.1331

> <Gold.Chemscore.Metal>
0.0000

> <Gold.Chemscore.Lipo>
106.5031

> <Gold.Chemscore.Internal_Hbond>
0.0000

> <Gold.Chemscore.DEClash>
2.7663

> <Gold.Chemscore.DEInternal>
1.4452

> <Gold.Chemscore.Rot>
2.4269

> <Gold.Chemscore.Internal.Correction>
   9.000000E+99

> <Gold.Chemscore.Hbonds>
donor molecule, donor type, donor heavy atom, donor atom, acceptor molecule, acceptor atom, score
      L1  H     1    22       P1 10171  1.00
      L1  H    15    40       P1 10186  0.78
      P1  H  7954  7966       L1     1  0.34

> <Gold.Chemscore.Hbond.Weighted>
-7.1247

> <Gold.Chemscore.Metal.Weighted>
-0.0000

> <Gold.Chemscore.Lipo.Weighted>
-12.4609

> <Gold.Chemscore.Internal_Hbond.Weighted>
0.0000

> <Gold.Chemscore.DEClash.Weighted>
2.7663

> <Gold.Chemscore.DEInternal.Weighted>
1.4452

> <Gold.Chemscore.Rot.Weighted>
6.2127

> <Gold.Chemscore.Internal.Correction.Weighted>
   9.000000E+99

> <Gold.Protein.RotatedTorsions>
[ 6907 6896 6895 6894 ] final   51.17 input  -60.11 | X-H torsion
[ 7974 7965 7964 7962 ] final  102.97 input  175.53 | X-H torsion
[ 8008 7997 7996 7995 ] final  -95.43 input   59.86 | X-H torsion
[ 10167 10162 10161 10158 ] final -168.40 input  -65.29 | X-H torsion
[ 10718 10713 10712 10709 ] final  -48.53 input   66.30 | X-H torsion
[ 10763 10752 10751 10750 ] final -172.43 input  -60.55 | X-H torsion
[ 11005 11000 10999 10996 ] final   77.03 input  -57.11 | X-H torsion

> <Gold.Protein.ActiveResidues>
 VAL166  LYS551  ARG553  GLY616  TRP617  ASP618  TYR619  PRO620  LYS621  CYS622 
 ASP623  PHE694  ASN695  SER759  ASP760  ASP761  ALA762  ILE779  LEU786  VAL792 
 PHE793  MET794  SER795  GLU796  ALA797  LYS798  CYS799  TRP800  GLU811  SER814 

> <Gold.Protein.RotatedAtoms>
  152.3098  134.7511  160.0338 H   0  0  0  0  0  0  0  0  0  0  0  0  # atno 6907 bound_to 6896
  151.7996  133.3363  159.3531 H   0  0  0  0  0  0  0  0  0  0  0  0  # atno 6908 bound_to 6896
  150.7314  134.5696  159.5928 H   0  0  0  0  0  0  0  0  0  0  0  0  # atno 6909 bound_to 6896
  145.3520  139.2437  143.3553 H   0  0  0  0  0  0  0  0  0  0  0  0  # atno 7974 bound_to 7965
  154.7612  140.0480  157.0975 H   0  0  0  0  0  0  0  0  0  0  0  0  # atno 8008 bound_to 7997
  154.9935  140.3116  155.4877 H   0  0  0  0  0  0  0  0  0  0  0  0  # atno 8009 bound_to 7997
  156.2904  140.2214  156.5041 H   0  0  0  0  0  0  0  0  0  0  0  0  # atno 8010 bound_to 7997
  139.5988  144.1056  152.1719 H   0  0  0  0  0  0  0  0  0  0  0  0  # atno 10167 bound_to 10162
  156.1979  130.4155  149.9282 H   0  0  0  0  0  0  0  0  0  0  0  0  # atno 10718 bound_to 10713
  154.6194  135.2873  155.0343 H   0  0  0  0  0  0  0  0  0  0  0  0  # atno 10763 bound_to 10752
  154.1544  135.6498  153.4975 H   0  0  0  0  0  0  0  0  0  0  0  0  # atno 10764 bound_to 10752
  153.0229  135.5363  154.6978 H   0  0  0  0  0  0  0  0  0  0  0  0  # atno 10765 bound_to 10752
  139.9272  134.7649  156.1470 H   0  0  0  0  0  0  0  0  0  0  0  0  # atno 11005 bound_to 11000
  146.2964  140.4138  142.8720 LP  0  0  0  0  0  0  0  0  0  0  0  0  # atno 17320 bound_to 7965
  144.8710  140.7272  143.6047 LP  0  0  0  0  0  0  0  0  0  0  0  0  # atno 17321 bound_to 7965
  140.0647  144.5828  150.7236 LP  0  0  0  0  0  0  0  0  0  0  0  0  # atno 17342 bound_to 10162
  140.7233  143.2610  151.4206 LP  0  0  0  0  0  0  0  0  0  0  0  0  # atno 17343 bound_to 10162
  156.7001  130.8929  151.3598 LP  0  0  0  0  0  0  0  0  0  0  0  0  # atno 17370 bound_to 10713
  157.6968  130.9290  150.0668 LP  0  0  0  0  0  0  0  0  0  0  0  0  # atno 17371 bound_to 10713
  141.0838  133.6743  156.2392 LP  0  0  0  0  0  0  0  0  0  0  0  0  # atno 17394 bound_to 11000
  140.6302  134.5271  157.5558 LP  0  0  0  0  0  0  0  0  0  0  0  0  # atno 17395 bound_to 11000

$$$$
