AV-unprocessed.smi:1978|AV-procd|sdf|8015|dock6
  -GOLD-   2272010203D 1   1.00000     0.00000
 Structure written by MMmdl.
 44 45  0  0  0  0  0  0  0  0  3 V2000
  152.7808  142.4300  160.2002 C   0  0  0  0  0  0  0  0  0  0  0  0
  152.9291  141.1187  159.5083 C   0  0  0  0  0  0  0  0  0  0  0  0
  152.0522  140.3220  158.8279 C   0  0  0  0  0  0  0  0  0  0  0  0
  152.8570  139.2190  158.4370 C   0  0  0  0  0  0  0  0  0  0  0  0
  152.2988  138.1427  157.6981 N   0  0  0  0  0  0  0  0  0  0  0  0
  151.9597  138.1000  156.3968 C   0  0  0  0  0  0  0  0  0  0  0  0
  152.0960  139.1001  155.6826 O   0  0  0  0  0  0  0  0  0  0  0  0
  151.4866  136.8775  156.0298 N   0  5  0  0  0  0  0  0  0  0  0  0
  150.2715  136.6471  155.2477 C   0  0  0  0  0  0  0  0  0  0  0  0
  149.9211  135.1373  155.2318 C   0  0  1  0  0  0  0  0  0  0  0  0
  149.8667  134.4949  156.6442 C   0  0  0  0  0  0  0  0  0  0  0  0
  148.6761  134.9198  154.4282 N   0  3  2  0  0  0  0  0  0  0  0  0
  147.4083  135.4697  154.9941 C   0  0  0  0  0  0  0  0  0  0  0  0
  146.2894  135.4689  153.9408 C   0  0  0  0  0  0  0  0  0  0  0  0
  146.0745  134.0642  153.3651 C   0  0  0  0  0  0  0  0  0  0  0  0
  147.3978  133.5155  152.8121 C   0  0  0  0  0  0  0  0  0  0  0  0
  148.5255  133.5428  153.8651 C   0  0  2  0  0  0  0  0  0  0  0  0
  148.3483  132.4531  154.9431 C   0  0  0  0  0  0  0  0  0  0  0  0
  154.1140  139.3353  158.8397 N   0  0  0  0  0  0  0  0  0  0  0  0
  154.1664  140.5533  159.5279 O   0  0  0  0  0  0  0  0  0  0  0  0
  151.7381  142.7482  160.2133 H   0  0  0  0  0  0  0  0  0  0  0  0
  153.3634  143.2010  159.6958 H   0  0  0  0  0  0  0  0  0  0  0  0
  153.1264  142.3634  161.2320 H   0  0  0  0  0  0  0  0  0  0  0  0
  151.0030  140.4990  158.6438 H   0  0  0  0  0  0  0  0  0  0  0  0
  152.1549  137.2884  158.2154 H   0  0  0  0  0  0  0  0  0  0  0  0
  149.4243  137.2077  155.6434 H   0  0  0  0  0  0  0  0  0  0  0  0
  150.3804  136.9808  154.2145 H   0  0  0  0  0  0  0  0  0  0  0  0
  150.7366  134.6479  154.6965 H   0  0  0  0  0  0  0  0  0  0  0  0
  150.8346  134.5408  157.1470 H   0  0  0  0  0  0  0  0  0  0  0  0
  149.6024  133.4394  156.5893 H   0  0  0  0  0  0  0  0  0  0  0  0
  149.1411  134.9759  157.3024 H   0  0  0  0  0  0  0  0  0  0  0  0
  147.0964  134.8953  155.8665 H   0  0  0  0  0  0  0  0  0  0  0  0
  147.5659  136.4944  155.3321 H   0  0  0  0  0  0  0  0  0  0  0  0
  145.3623  135.8372  154.3810 H   0  0  0  0  0  0  0  0  0  0  0  0
  146.5452  136.1594  153.1359 H   0  0  0  0  0  0  0  0  0  0  0  0
  145.6856  133.4005  154.1379 H   0  0  0  0  0  0  0  0  0  0  0  0
  145.3227  134.0940  152.5757 H   0  0  0  0  0  0  0  0  0  0  0  0
  147.2556  132.5024  152.4345 H   0  0  0  0  0  0  0  0  0  0  0  0
  147.6980  134.1171  151.9531 H   0  0  0  0  0  0  0  0  0  0  0  0
  149.4477  133.3122  153.3295 H   0  0  0  0  0  0  0  0  0  0  0  0
  148.2360  131.4715  154.4823 H   0  0  0  0  0  0  0  0  0  0  0  0
  147.4696  132.6223  155.5645 H   0  0  0  0  0  0  0  0  0  0  0  0
  149.2150  132.3938  155.6006 H   0  0  0  0  0  0  0  0  0  0  0  0
  148.8437  135.4860  153.6084 H   0  0  0  0  0  0  0  0  0  0  0  0
  1  2  1  0  0  0  0
  1 21  1  0  0  0  0
  1 22  1  0  0  0  0
  1 23  1  0  0  0  0
  2 20  1  0  0  0  0
  2  3  2  0  0  0  0
  3  4  1  0  0  0  0
  3 24  1  0  0  0  0
  4  5  1  0  0  0  0
  4 19  2  0  0  0  0
  5  6  1  0  0  0  0
  5 25  1  0  0  0  0
  6  7  2  0  0  0  0
  6  8  1  0  0  0  0
  8  9  1  0  0  0  0
  9 10  1  0  0  0  0
  9 26  1  0  0  0  0
  9 27  1  0  0  0  0
 10 11  1  0  0  0  0
 10 12  1  0  0  0  0
 10 28  1  0  0  0  0
 11 29  1  0  0  0  0
 11 30  1  0  0  0  0
 11 31  1  0  0  0  0
 12 17  1  0  0  0  0
 12 13  1  0  0  0  0
 12 44  1  0  0  0  0
 13 14  1  0  0  0  0
 13 32  1  0  0  0  0
 13 33  1  0  0  0  0
 14 15  1  0  0  0  0
 14 34  1  0  0  0  0
 14 35  1  0  0  0  0
 15 16  1  0  0  0  0
 15 36  1  0  0  0  0
 15 37  1  0  0  0  0
 16 17  1  0  0  0  0
 16 38  1  0  0  0  0
 16 39  1  0  0  0  0
 17 18  1  0  0  0  0
 17 40  1  0  0  0  0
 18 41  1  0  0  0  0
 18 42  1  0  0  0  0
 18 43  1  0  0  0  0
 19 20  1  0  0  0  0
M  CHG  1   8  -1
M  CHG  1  12   1
M  END
> <s_m_source_file>
AV-unprocessed.smi

> <i_m_source_file_index>
1978

> <i_lp_mmshare_version>
43012

> <i_f3d_flags>
0

> <s_epik_input>
W0NIM11jMVtjSF1jKG5vMSlbTkhdQyg9TylbTkhdW0NIMl1bQ0BIXShbQ0gzXSlOMltDSDJdW0NIMl1bQ0gyXVtDSDJdW0NASF0yW0NIM10=

> <s_epik_cmdline>
J2VwaWtfcHl0aG9uJywgJy1waCcsICc3LjAnLCAnLXRuJywgJzgnLCAnLW1hJywgJzIwMCcsICctbWV0YWxfYmluZGluZycsICctaW1hZScsICc8aW5maWxlLm1hZT4nLCAnLW9tYWUnLCAnPG91dGZpbGUubWFlPic=

> <r_epik_Ionization_Penalty>
6.7666

> <r_epik_Ionization_Penalty_Charging>
6.7666

> <r_epik_Ionization_Penalty_Neutral>
5.77131e-06

> <r_epik_State_Penalty>
6.79217

> <r_epik_Charging_Adjusted_Penalty>
13.5588

> <i_epik_Tot_Q>
0

> <i_epik_Tot_abs_Q>
2

> <r_epik_Metal_State_Penalty>
2.72569

> <b_epik_Metal_Only>
1

> <s_lp_Force_Field>
OPLS_2005

> <r_lp_Energy>
20.871

> <b_lp_Chiralities_Consistent>
1

> <s_lp_Variant>
AV-unprocessed.smi:1978-24

> <Gold.Version>
5.8.1

> <Gold.Id.Protein>
6NUR|6NUR_protein|mol2

> <Gold.PLP.Fitness>
43.2264

> <Gold.PLP.PLP>
-30.6937

> <Gold.PLP.part.hbond>
-3.5759

> <Gold.PLP.part.metal>
0.0000

> <Gold.PLP.part.buried>
-3.3378

> <Gold.PLP.part.nonpolar>
-23.8782

> <Gold.PLP.part.repulsive>
0.1489

> <Gold.PLP.ligand.clash>
0.0000

> <Gold.PLP.ligand.torsion>
1.3670

> <Gold.PLP.Chemscore.Hbond>
5.0000

> <Gold.PLP.Chemscore.CHOScore>
0.0000

> <Gold.PLP.Chemscore.Metal>
0.0000

> <Gold.Chemscore.Hbonds>
donor molecule, donor type, donor heavy atom, donor atom, acceptor molecule, acceptor atom, score
      L1  H    12    44       P1  7948  2.00
      P1  H  7997  8008       L1    19  0.64
      P1  H 10752 10765       L1     8  0.29

> <Gold.PLP.Chemscore.Internal.Correction>
0.2668

> <Gold.Rescore>
     Score         DG    S(hbond)    S(metal)    S(lipo)     H(rot)  DE(clash)    DE(int)     intcor
     13.17     -14.53       1.59        0.00      65.30       1.52       0.03       1.33       ----

> <Gold.Chemscore.Fitness>
13.1683

> <Gold.Chemscore.DG>
-14.5255

> <Gold.Chemscore.ZeroCoef>
-5.4800

> <Gold.Chemscore.Hbond>
1.5851

> <Gold.Chemscore.Metal>
0.0000

> <Gold.Chemscore.Lipo>
65.2985

> <Gold.Chemscore.Internal_Hbond>
0.0000

> <Gold.Chemscore.DEClash>
0.0260

> <Gold.Chemscore.DEInternal>
1.3313

> <Gold.Chemscore.Rot>
1.5190

> <Gold.Chemscore.Internal.Correction>
   9.000000E+99

> <Gold.Chemscore.Hbonds>
donor molecule, donor type, donor heavy atom, donor atom, acceptor molecule, acceptor atom, score
      L1  H    12    44       P1  7948  0.88
      P1  H  7997  8008       L1    19  0.04
      P1  H 10752 10765       L1     8  0.07

> <Gold.Chemscore.Hbond.Weighted>
-5.2942

> <Gold.Chemscore.Metal.Weighted>
-0.0000

> <Gold.Chemscore.Lipo.Weighted>
-7.6399

> <Gold.Chemscore.Internal_Hbond.Weighted>
0.0000

> <Gold.Chemscore.DEClash.Weighted>
0.0260

> <Gold.Chemscore.DEInternal.Weighted>
1.3313

> <Gold.Chemscore.Rot.Weighted>
3.8886

> <Gold.Chemscore.Internal.Correction.Weighted>
   9.000000E+99

> <Gold.Protein.RotatedTorsions>
[ 6907 6896 6895 6894 ] final   67.84 input  -60.11 | X-H torsion
[ 7974 7965 7964 7962 ] final  140.02 input  175.53 | X-H torsion
[ 8008 7997 7996 7995 ] final -128.41 input   59.86 | X-H torsion
[ 10167 10162 10161 10158 ] final   19.91 input  -65.29 | X-H torsion
[ 10718 10713 10712 10709 ] final -120.22 input   66.30 | X-H torsion
[ 10763 10752 10751 10750 ] final -150.86 input  -60.55 | X-H torsion
[ 11005 11000 10999 10996 ] final  -94.02 input  -57.11 | X-H torsion

> <Gold.Protein.ActiveResidues>
 VAL166  LYS551  ARG553  GLY616  TRP617  ASP618  TYR619  PRO620  LYS621  CYS622 
 ASP623  PHE694  ASN695  SER759  ASP760  ASP761  ALA762  ILE779  LEU786  VAL792 
 PHE793  MET794  SER795  GLU796  ALA797  LYS798  CYS799  TRP800  GLU811  SER814 

> <Gold.Protein.RotatedAtoms>
  152.4579  134.5250  159.9793 H   0  0  0  0  0  0  0  0  0  0  0  0  # atno 6907 bound_to 6896
  151.5306  133.3444  159.2925 H   0  0  0  0  0  0  0  0  0  0  0  0  # atno 6908 bound_to 6896
  150.8531  134.7891  159.7086 H   0  0  0  0  0  0  0  0  0  0  0  0  # atno 6909 bound_to 6896
  144.9225  139.5149  143.5656 H   0  0  0  0  0  0  0  0  0  0  0  0  # atno 7974 bound_to 7965
  155.2622  140.0436  157.2998 H   0  0  0  0  0  0  0  0  0  0  0  0  # atno 8008 bound_to 7997
  154.5703  140.2372  155.8170 H   0  0  0  0  0  0  0  0  0  0  0  0  # atno 8009 bound_to 7997
  156.2117  140.2996  155.9756 H   0  0  0  0  0  0  0  0  0  0  0  0  # atno 8010 bound_to 7997
  140.5543  143.9452  150.6599 H   0  0  0  0  0  0  0  0  0  0  0  0  # atno 10167 bound_to 10162
  156.1241  130.6345  150.9513 H   0  0  0  0  0  0  0  0  0  0  0  0  # atno 10718 bound_to 10713
  154.8093  135.3274  154.7347 H   0  0  0  0  0  0  0  0  0  0  0  0  # atno 10763 bound_to 10752
  153.7999  135.6904  153.4862 H   0  0  0  0  0  0  0  0  0  0  0  0  # atno 10764 bound_to 10752
  153.1861  135.4568  155.0035 H   0  0  0  0  0  0  0  0  0  0  0  0  # atno 10765 bound_to 10752
  141.1482  133.7927  157.0240 H   0  0  0  0  0  0  0  0  0  0  0  0  # atno 11005 bound_to 11000
  146.3211  139.8115  142.8945 LP  0  0  0  0  0  0  0  0  0  0  0  0  # atno 17320 bound_to 7965
  145.3273  141.0258  143.3466 LP  0  0  0  0  0  0  0  0  0  0  0  0  # atno 17321 bound_to 7965
  140.2886  143.3339  152.1083 LP  0  0  0  0  0  0  0  0  0  0  0  0  # atno 17342 bound_to 10162
  139.5041  144.6769  151.6107 LP  0  0  0  0  0  0  0  0  0  0  0  0  # atno 17343 bound_to 10162
  157.6423  131.0908  150.8225 LP  0  0  0  0  0  0  0  0  0  0  0  0  # atno 17370 bound_to 10713
  156.8318  130.5018  149.5331 LP  0  0  0  0  0  0  0  0  0  0  0  0  # atno 17371 bound_to 10713
  140.0797  134.9655  157.1604 LP  0  0  0  0  0  0  0  0  0  0  0  0  # atno 17394 bound_to 11000
  140.3594  134.2511  155.7189 LP  0  0  0  0  0  0  0  0  0  0  0  0  # atno 17395 bound_to 11000

$$$$
