AV-unprocessed.smi:911|AV-procd|sdf|4136|dock3
  -GOLD-   22720 2 43D 1   1.00000     0.00000
 Structure written by MMmdl.
 47 49  0  0  0  0  0  0  0  0  3 V2000
  146.7283  138.6003  155.3463 C   0  0  0  0  0  0  0  0  0  0  0  0
  147.1022  139.8791  154.5456 C   0  0  0  0  0  0  0  0  0  0  0  0
  146.9125  139.4992  153.0501 C   0  0  0  0  0  0  0  0  0  0  0  0
  146.3343  141.1454  154.9751 C   0  0  2  0  0  0  0  0  0  0  0  0
  146.9810  142.2681  154.1333 C   0  0  0  0  0  0  0  0  0  0  0  0
  148.4551  141.8239  154.0592 C   0  0  0  0  0  0  0  0  0  0  0  0
  148.4657  140.5257  154.9136 C   0  0  2  0  0  0  0  0  0  0  0  0
  149.7059  139.6504  154.6643 C   0  0  0  0  0  0  0  0  0  0  0  0
  148.2646  140.9223  156.4114 C   0  0  1  0  0  0  0  0  0  0  0  0
  149.1436  141.9948  156.8788 N   0  0  0  0  0  0  0  0  0  0  0  0
  150.0725  141.8762  157.8392 C   0  0  0  0  0  0  0  0  0  0  0  0
  150.2925  140.8242  158.4410 O   0  0  0  0  0  0  0  0  0  0  0  0
  150.8901  143.1395  158.1422 C   0  0  0  0  0  0  0  0  0  0  0  0
  151.7682  142.9919  159.3150 N   0  0  0  0  0  0  0  0  0  0  0  0
  152.7717  142.0052  159.2441 C   0  0  0  0  0  0  0  0  0  0  0  0
  153.6227  141.7752  160.2632 C   0  0  0  0  0  0  0  0  0  0  0  0
  154.6419  140.7528  160.1764 N   0  3  0  0  0  0  0  0  0  0  0  0
  154.6302  139.9907  159.2151 O   0  0  0  0  0  0  0  0  0  0  0  0
  155.4860  140.6764  161.0641 O   0  5  0  0  0  0  0  0  0  0  0  0
  153.4793  142.5855  161.4573 C   0  0  0  0  0  0  0  0  0  0  0  0
  152.5195  143.5281  161.5323 C   0  0  0  0  0  0  0  0  0  0  0  0
  151.5907  143.7730  160.4243 C   0  0  0  0  0  0  0  0  0  0  0  0
  150.7069  144.6276  160.4896 O   0  0  0  0  0  0  0  0  0  0  0  0
  146.7839  141.3655  156.4363 C   0  0  0  0  0  0  0  0  0  0  0  0
  145.7070  138.2919  155.1209 H   0  0  0  0  0  0  0  0  0  0  0  0
  146.7858  138.6958  156.4280 H   0  0  0  0  0  0  0  0  0  0  0  0
  147.3803  137.7698  155.0735 H   0  0  0  0  0  0  0  0  0  0  0  0
  147.1253  140.2941  152.3391 H   0  0  0  0  0  0  0  0  0  0  0  0
  145.8843  139.1888  152.8624 H   0  0  0  0  0  0  0  0  0  0  0  0
  147.5533  138.6596  152.7791 H   0  0  0  0  0  0  0  0  0  0  0  0
  145.2512  141.0888  154.8610 H   0  0  0  0  0  0  0  0  0  0  0  0
  146.5368  142.3328  153.1397 H   0  0  0  0  0  0  0  0  0  0  0  0
  146.8709  143.2486  154.5979 H   0  0  0  0  0  0  0  0  0  0  0  0
  148.7488  141.6250  153.0283 H   0  0  0  0  0  0  0  0  0  0  0  0
  149.1372  142.5947  154.4169 H   0  0  0  0  0  0  0  0  0  0  0  0
  150.6219  140.1886  154.9077 H   0  0  0  0  0  0  0  0  0  0  0  0
  149.7748  139.3457  153.6202 H   0  0  0  0  0  0  0  0  0  0  0  0
  149.6827  138.7470  155.2737 H   0  0  0  0  0  0  0  0  0  0  0  0
  148.3905  140.0542  157.0599 H   0  0  0  0  0  0  0  0  0  0  0  0
  149.0355  142.8949  156.4341 H   0  0  0  0  0  0  0  0  0  0  0  0
  151.4764  143.3839  157.2555 H   0  0  0  0  0  0  0  0  0  0  0  0
  150.2150  143.9868  158.2782 H   0  0  0  0  0  0  0  0  0  0  0  0
  152.7903  141.4508  158.3167 H   0  0  0  0  0  0  0  0  0  0  0  0
  154.1398  142.4422  162.2999 H   0  0  0  0  0  0  0  0  0  0  0  0
  152.4300  144.1199  162.4314 H   0  0  0  0  0  0  0  0  0  0  0  0
  146.6513  142.4018  156.7509 H   0  0  0  0  0  0  0  0  0  0  0  0
  146.2035  140.7550  157.1282 H   0  0  0  0  0  0  0  0  0  0  0  0
  1  2  1  0  0  0  0
  1 25  1  0  0  0  0
  1 26  1  0  0  0  0
  1 27  1  0  0  0  0
  2  7  1  0  0  0  0
  2  3  1  0  0  0  0
  2  4  1  0  0  0  0
  3 28  1  0  0  0  0
  3 29  1  0  0  0  0
  3 30  1  0  0  0  0
  4 24  1  0  0  0  0
  4  5  1  0  0  0  0
  4 31  1  0  0  0  0
  5  6  1  0  0  0  0
  5 32  1  0  0  0  0
  5 33  1  0  0  0  0
  6  7  1  0  0  0  0
  6 34  1  0  0  0  0
  6 35  1  0  0  0  0
  7  8  1  0  0  0  0
  7  9  1  0  0  0  0
  8 36  1  0  0  0  0
  8 37  1  0  0  0  0
  8 38  1  0  0  0  0
  9 10  1  0  0  0  0
  9 24  1  0  0  0  0
  9 39  1  0  0  0  0
 10 11  1  0  0  0  0
 10 40  1  0  0  0  0
 11 12  2  0  0  0  0
 11 13  1  0  0  0  0
 13 14  1  0  0  0  0
 13 41  1  0  0  0  0
 13 42  1  0  0  0  0
 14 22  1  0  0  0  0
 14 15  1  0  0  0  0
 15 16  2  0  0  0  0
 15 43  1  0  0  0  0
 16 17  1  0  0  0  0
 16 20  1  0  0  0  0
 17 18  2  0  0  0  0
 17 19  1  0  0  0  0
 20 21  2  0  0  0  0
 20 44  1  0  0  0  0
 21 22  1  0  0  0  0
 21 45  1  0  0  0  0
 22 23  2  0  0  0  0
 24 46  1  0  0  0  0
 24 47  1  0  0  0  0
M  CHG  1  17   1
M  CHG  1  19  -1
M  END
> <s_m_source_file>
AV-unprocessed.smi

> <i_m_source_file_index>
911

> <i_lp_mmshare_version>
43012

> <i_f3d_flags>
0

> <s_epik_input>
W0NIM11bQ0BdMTJDKFtDSDNdKShbQ0gzXSlbQ0BIXShbQ0gyXVtDSDJdMSlbQ0gyXVtDQEBIXTJbTkhdQyg9TylbQ0gyXW4zW2NIXWMoW04rXSg9TylbTy1dKVtjSF1bY0hdYzM9Tw==

> <s_epik_cmdline>
J2VwaWtfcHl0aG9uJywgJy1waCcsICc3LjAnLCAnLXRuJywgJzgnLCAnLW1hJywgJzIwMCcsICctbWV0YWxfYmluZGluZycsICctaW1hZScsICc8aW5maWxlLm1hZT4nLCAnLW9tYWUnLCAnPG91dGZpbGUubWFlPic=

> <r_lp_tautomer_probability>
1

> <r_epik_Ionization_Penalty>
2.04092e-08

> <r_epik_Ionization_Penalty_Charging>
8.54191e-11

> <r_epik_Ionization_Penalty_Neutral>
2.03238e-08

> <r_epik_State_Penalty>
-0

> <r_epik_Charging_Adjusted_Penalty>
8.54191e-11

> <i_epik_Tot_Q>
0

> <i_epik_Tot_abs_Q>
2

> <r_epik_Metal_State_Penalty>
-0

> <b_epik_Metal_Only>
0

> <s_lp_Force_Field>
OPLS_2005

> <r_lp_Energy>
67.3082

> <b_lp_Chiralities_Consistent>
1

> <s_lp_Variant>
AV-unprocessed.smi:911-1

> <Gold.Version>
5.8.1

> <Gold.Id.Protein>
6NUR|6NUR_protein|mol2

> <Gold.PLP.Fitness>
50.5222

> <Gold.PLP.PLP>
-44.7912

> <Gold.PLP.part.hbond>
-3.0000

> <Gold.PLP.part.metal>
0.0000

> <Gold.PLP.part.buried>
-4.0444

> <Gold.PLP.part.nonpolar>
-38.1331

> <Gold.PLP.part.repulsive>
0.1826

> <Gold.PLP.ligand.clash>
0.0000

> <Gold.PLP.ligand.torsion>
0.1339

> <Gold.PLP.Chemscore.Hbond>
1.9920

> <Gold.PLP.Chemscore.CHOScore>
0.0000

> <Gold.PLP.Chemscore.Metal>
0.0000

> <Gold.Chemscore.Hbonds>
donor molecule, donor type, donor heavy atom, donor atom, acceptor molecule, acceptor atom, score
      L1  H    10    40       P1  8028  1.00
      P1  H  7997  8009       L1    18  1.00

> <Gold.PLP.Chemscore.Internal.Correction>
0.0229

> <Gold.Rescore>
     Score         DG    S(hbond)    S(metal)    S(lipo)     H(rot)  DE(clash)    DE(int)     intcor
     17.89     -19.55       1.90        0.00      99.60       1.53       0.27       1.39       ----

> <Gold.Chemscore.Fitness>
17.8926

> <Gold.Chemscore.DG>
-19.5516

> <Gold.Chemscore.ZeroCoef>
-5.4800

> <Gold.Chemscore.Hbond>
1.8952

> <Gold.Chemscore.Metal>
0.0000

> <Gold.Chemscore.Lipo>
99.5959

> <Gold.Chemscore.Internal_Hbond>
0.0000

> <Gold.Chemscore.DEClash>
0.2676

> <Gold.Chemscore.DEInternal>
1.3914

> <Gold.Chemscore.Rot>
1.5277

> <Gold.Chemscore.Internal.Correction>
   9.000000E+99

> <Gold.Chemscore.Hbonds>
donor molecule, donor type, donor heavy atom, donor atom, acceptor molecule, acceptor atom, score
      L1  H    10    40       P1  8028  0.97
      P1  H  7997  8009       L1    18  0.94

> <Gold.Chemscore.Hbond.Weighted>
-6.3299

> <Gold.Chemscore.Metal.Weighted>
-0.0000

> <Gold.Chemscore.Lipo.Weighted>
-11.6527

> <Gold.Chemscore.Internal_Hbond.Weighted>
0.0000

> <Gold.Chemscore.DEClash.Weighted>
0.2676

> <Gold.Chemscore.DEInternal.Weighted>
1.3914

> <Gold.Chemscore.Rot.Weighted>
3.9110

> <Gold.Chemscore.Internal.Correction.Weighted>
   9.000000E+99

> <Gold.Protein.RotatedTorsions>
[ 6907 6896 6895 6894 ] final -103.67 input  -60.11 | X-H torsion
[ 7974 7965 7964 7962 ] final   28.60 input  175.53 | X-H torsion
[ 8008 7997 7996 7995 ] final  112.39 input   59.86 | X-H torsion
[ 10167 10162 10161 10158 ] final -148.08 input  -65.29 | X-H torsion
[ 10718 10713 10712 10709 ] final  125.43 input   66.30 | X-H torsion
[ 10763 10752 10751 10750 ] final   20.59 input  -60.55 | X-H torsion
[ 11005 11000 10999 10996 ] final  -10.15 input  -57.11 | X-H torsion

> <Gold.Protein.ActiveResidues>
 VAL166  LYS551  ARG553  GLY616  TRP617  ASP618  TYR619  PRO620  LYS621  CYS622 
 ASP623  PHE694  ASN695  SER759  ASP760  ASP761  ALA762  ILE779  LEU786  VAL792 
 PHE793  MET794  SER795  GLU796  ALA797  LYS798  CYS799  TRP800  GLU811  SER814 

> <Gold.Protein.RotatedAtoms>
  150.7251  134.0394  159.3760 H   0  0  0  0  0  0  0  0  0  0  0  0  # atno 6907 bound_to 6896
  151.8367  135.0601  160.0452 H   0  0  0  0  0  0  0  0  0  0  0  0  # atno 6908 bound_to 6896
  152.2893  133.5510  159.5584 H   0  0  0  0  0  0  0  0  0  0  0  0  # atno 6909 bound_to 6896
  146.1720  139.7034  142.8961 H   0  0  0  0  0  0  0  0  0  0  0  0  # atno 7974 bound_to 7965
  156.2189  140.3000  155.9905 H   0  0  0  0  0  0  0  0  0  0  0  0  # atno 8008 bound_to 7997
  155.2534  140.0427  157.3006 H   0  0  0  0  0  0  0  0  0  0  0  0  # atno 8009 bound_to 7997
  154.5810  140.2375  155.8062 H   0  0  0  0  0  0  0  0  0  0  0  0  # atno 8010 bound_to 7997
  139.7564  143.8441  152.2598 H   0  0  0  0  0  0  0  0  0  0  0  0  # atno 10167 bound_to 10162
  157.5504  131.1094  150.8712 H   0  0  0  0  0  0  0  0  0  0  0  0  # atno 10718 bound_to 10713
  153.1064  135.6686  153.9578 H   0  0  0  0  0  0  0  0  0  0  0  0  # atno 10763 bound_to 10752
  153.9134  135.3022  155.3450 H   0  0  0  0  0  0  0  0  0  0  0  0  # atno 10764 bound_to 10752
  154.7485  135.5046  153.9324 H   0  0  0  0  0  0  0  0  0  0  0  0  # atno 10765 bound_to 10752
  140.7416  133.8665  155.8972 H   0  0  0  0  0  0  0  0  0  0  0  0  # atno 11005 bound_to 11000
  145.4315  141.0415  143.2908 LP  0  0  0  0  0  0  0  0  0  0  0  0  # atno 17320 bound_to 7965
  144.8177  139.5847  143.7001 LP  0  0  0  0  0  0  0  0  0  0  0  0  # atno 17321 bound_to 7965
  139.8435  144.7199  150.9302 LP  0  0  0  0  0  0  0  0  0  0  0  0  # atno 17342 bound_to 10162
  140.7803  143.3962  151.1225 LP  0  0  0  0  0  0  0  0  0  0  0  0  # atno 17343 bound_to 10162
  156.9238  130.5325  149.5279 LP  0  0  0  0  0  0  0  0  0  0  0  0  # atno 17370 bound_to 10713
  156.0571  130.5631  150.9115 LP  0  0  0  0  0  0  0  0  0  0  0  0  # atno 17371 bound_to 10713
  140.9831  134.1379  157.4476 LP  0  0  0  0  0  0  0  0  0  0  0  0  # atno 17394 bound_to 11000
  139.8805  135.0017  156.6082 LP  0  0  0  0  0  0  0  0  0  0  0  0  # atno 17395 bound_to 11000

$$$$
