AV-unprocessed.smi:3143|AV-procd|sdf|11974|dock4
  -GOLD-   2272017373D 1   1.00000     0.00000
 Structure written by MMmdl.
 38 39  0  0  0  0  0  0  0  0  2 V2000
  150.8524  138.2100  154.4426 C   0  0  0  0  0  0  0  0  0  0  0  0
  149.5309  138.9911  154.5177 C   0  0  2  0  0  0  0  0  0  0  0  0
  148.7985  138.8450  153.2383 N   0  3  0  0  0  0  0  0  0  0  0  0
  147.3541  139.1525  153.3064 C   0  0  0  0  0  0  0  0  0  0  0  0
  146.7134  139.0925  151.9119 C   0  0  0  0  0  0  0  0  0  0  0  0
  146.0932  137.8067  151.6543 N   0  0  0  0  0  0  0  0  0  0  0  0
  145.1146  137.1643  152.3838 C   0  0  0  0  0  0  0  0  0  0  0  0
  144.8588  135.9757  151.7620 C   0  0  0  0  0  0  0  0  0  0  0  0
  145.7474  135.9771  150.6506 C   0  0  0  0  0  0  0  0  0  0  0  0
  146.4874  137.0729  150.5911 N   0  0  0  0  0  0  0  0  0  0  0  0
  149.8124  140.4720  154.8430 C   0  0  0  0  0  0  0  0  0  0  0  0
  149.4517  141.3341  154.0402 O   0  0  0  0  0  0  0  0  0  0  0  0
  150.4567  140.7879  155.9872 N   0  0  0  0  0  0  0  0  0  0  0  0
  150.7606  142.1632  156.3803 C   0  0  0  0  0  0  0  0  0  0  0  0
  151.2379  142.0860  157.8303 C   0  0  0  0  0  0  0  0  0  0  0  0
  151.7905  140.6744  157.9628 C   0  0  0  0  0  0  0  0  0  0  0  0
  150.9374  139.8480  157.0004 C   0  0  0  0  0  0  0  0  0  0  0  0
  151.4138  138.2807  155.3749 H   0  0  0  0  0  0  0  0  0  0  0  0
  151.4933  138.5823  153.6422 H   0  0  0  0  0  0  0  0  0  0  0  0
  150.6701  137.1517  154.2541 H   0  0  0  0  0  0  0  0  0  0  0  0
  148.9132  138.5392  155.2938 H   0  0  0  0  0  0  0  0  0  0  0  0
  149.2330  139.4466  152.5524 H   0  0  0  0  0  0  0  0  0  0  0  0
  146.8663  138.4373  153.9701 H   0  0  0  0  0  0  0  0  0  0  0  0
  147.2119  140.1429  153.7404 H   0  0  0  0  0  0  0  0  0  0  0  0
  145.9543  139.8688  151.8052 H   0  0  0  0  0  0  0  0  0  0  0  0
  147.4647  139.2746  151.1421 H   0  0  0  0  0  0  0  0  0  0  0  0
  144.6851  137.6003  153.2739 H   0  0  0  0  0  0  0  0  0  0  0  0
  144.1474  135.2189  152.0577 H   0  0  0  0  0  0  0  0  0  0  0  0
  145.8766  135.2194  149.8919 H   0  0  0  0  0  0  0  0  0  0  0  0
  151.5528  142.5493  155.7374 H   0  0  0  0  0  0  0  0  0  0  0  0
  149.8952  142.8207  156.2839 H   0  0  0  0  0  0  0  0  0  0  0  0
  151.9722  142.8540  158.0759 H   0  0  0  0  0  0  0  0  0  0  0  0
  150.3874  142.2094  158.5023 H   0  0  0  0  0  0  0  0  0  0  0  0
  152.8312  140.6582  157.6361 H   0  0  0  0  0  0  0  0  0  0  0  0
  151.7564  140.3003  158.9865 H   0  0  0  0  0  0  0  0  0  0  0  0
  150.0810  139.4226  157.5258 H   0  0  0  0  0  0  0  0  0  0  0  0
  151.5172  139.0303  156.5711 H   0  0  0  0  0  0  0  0  0  0  0  0
  148.8917  137.8871  152.9327 H   0  0  0  0  0  0  0  0  0  0  0  0
  1  2  1  0  0  0  0
  1 18  1  0  0  0  0
  1 19  1  0  0  0  0
  1 20  1  0  0  0  0
  2  3  1  0  0  0  0
  2 11  1  0  0  0  0
  2 21  1  0  0  0  0
  3  4  1  0  0  0  0
  3 22  1  0  0  0  0
  3 38  1  0  0  0  0
  4  5  1  0  0  0  0
  4 23  1  0  0  0  0
  4 24  1  0  0  0  0
  5  6  1  0  0  0  0
  5 25  1  0  0  0  0
  5 26  1  0  0  0  0
  6 10  1  0  0  0  0
  6  7  1  0  0  0  0
  7  8  2  0  0  0  0
  7 27  1  0  0  0  0
  8  9  1  0  0  0  0
  8 28  1  0  0  0  0
  9 10  2  0  0  0  0
  9 29  1  0  0  0  0
 11 12  2  0  0  0  0
 11 13  1  0  0  0  0
 13 17  1  0  0  0  0
 13 14  1  0  0  0  0
 14 15  1  0  0  0  0
 14 30  1  0  0  0  0
 14 31  1  0  0  0  0
 15 16  1  0  0  0  0
 15 32  1  0  0  0  0
 15 33  1  0  0  0  0
 16 17  1  0  0  0  0
 16 34  1  0  0  0  0
 16 35  1  0  0  0  0
 17 36  1  0  0  0  0
 17 37  1  0  0  0  0
M  CHG  1   3   1
M  END
> <s_m_source_file>
AV-unprocessed.smi

> <i_m_source_file_index>
3143

> <i_lp_mmshare_version>
43012

> <i_f3d_flags>
0

> <s_epik_input>
W0NIMl0xW0NIMl1bQ0gyXVtDSDJdTjFDKD1PKVtDQEhdKFtDSDNdKVtOSF1bQ0gyXVtDSDJdbjJbY0hdW2NIXVtjSF1uMg==

> <s_epik_cmdline>
J2VwaWtfcHl0aG9uJywgJy1waCcsICc3LjAnLCAnLXRuJywgJzgnLCAnLW1hJywgJzIwMCcsICctbWV0YWxfYmluZGluZycsICctaW1hZScsICc8aW5maWxlLm1hZT4nLCAnLW9tYWUnLCAnPG91dGZpbGUubWFlPic=

> <r_lp_tautomer_probability>
1

> <r_epik_Ionization_Penalty>
0.203171

> <r_epik_Ionization_Penalty_Charging>
0.203168

> <r_epik_Ionization_Penalty_Neutral>
2.46932e-06

> <r_epik_State_Penalty>
0.193072

> <r_epik_Charging_Adjusted_Penalty>
0.39624

> <i_epik_Tot_Q>
1

> <i_epik_Tot_abs_Q>
1

> <r_epik_Metal_State_Penalty>
0.193323

> <b_epik_Metal_Only>
0

> <s_lp_Force_Field>
OPLS_2005

> <r_lp_Energy>
30.2015

> <b_lp_Chiralities_Consistent>
1

> <s_lp_Variant>
AV-unprocessed.smi:3143-1

> <Gold.Version>
5.8.1

> <Gold.Id.Protein>
6NUR|6NUR_protein|mol2

> <Gold.PLP.Fitness>
50.3488

> <Gold.PLP.PLP>
-34.4206

> <Gold.PLP.part.hbond>
-5.0000

> <Gold.PLP.part.metal>
0.0000

> <Gold.PLP.part.buried>
0.1213

> <Gold.PLP.part.nonpolar>
-32.6205

> <Gold.PLP.part.repulsive>
2.5345

> <Gold.PLP.ligand.clash>
0.0000

> <Gold.PLP.ligand.torsion>
0.4209

> <Gold.PLP.Chemscore.Hbond>
4.5788

> <Gold.PLP.Chemscore.CHOScore>
1.0000

> <Gold.PLP.Chemscore.Metal>
0.0000

> <Gold.Chemscore.Hbonds>
donor molecule, donor type, donor heavy atom, donor atom, acceptor molecule, acceptor atom, score
      L1  H     3    22       P1  7957  1.00
      L1  H     3    38       P1  7948  2.00
      P1  H  7954  7966       L1    10  0.91
      P1  H  8011  8017       L1    12  0.71
      L1  C     9    29       P1  7921  1.00

> <Gold.PLP.Chemscore.Internal.Correction>
0.0336

> <Gold.Rescore>
     Score         DG    S(hbond)    S(metal)    S(lipo)     H(rot)  DE(clash)    DE(int)     intcor
     17.98     -20.27       3.31        0.00      72.24       1.84       1.76       0.53       ----

> <Gold.Chemscore.Fitness>
17.9807

> <Gold.Chemscore.DG>
-20.2695

> <Gold.Chemscore.ZeroCoef>
-5.4800

> <Gold.Chemscore.Hbond>
3.3079

> <Gold.Chemscore.Metal>
0.0000

> <Gold.Chemscore.Lipo>
72.2449

> <Gold.Chemscore.Internal_Hbond>
0.0000

> <Gold.Chemscore.DEClash>
1.7635

> <Gold.Chemscore.DEInternal>
0.5253

> <Gold.Chemscore.Rot>
1.8405

> <Gold.Chemscore.Internal.Correction>
   9.000000E+99

> <Gold.Chemscore.Hbonds>
donor molecule, donor type, donor heavy atom, donor atom, acceptor molecule, acceptor atom, score
      L1  H     3    22       P1  7957  0.95
      L1  H     3    38       P1  7948  0.99
      P1  H  7954  7966       L1    10  0.62
      P1  H  8011  8017       L1    12  0.67

> <Gold.Chemscore.Hbond.Weighted>
-11.0485

> <Gold.Chemscore.Metal.Weighted>
-0.0000

> <Gold.Chemscore.Lipo.Weighted>
-8.4526

> <Gold.Chemscore.Internal_Hbond.Weighted>
0.0000

> <Gold.Chemscore.DEClash.Weighted>
1.7635

> <Gold.Chemscore.DEInternal.Weighted>
0.5253

> <Gold.Chemscore.Rot.Weighted>
4.7117

> <Gold.Chemscore.Internal.Correction.Weighted>
   9.000000E+99

> <Gold.Protein.RotatedTorsions>
[ 6907 6896 6895 6894 ] final  -11.53 input  -60.11 | X-H torsion
[ 7974 7965 7964 7962 ] final -115.00 input  175.53 | X-H torsion
[ 8008 7997 7996 7995 ] final   36.96 input   59.86 | X-H torsion
[ 10167 10162 10161 10158 ] final -105.00 input  -65.29 | X-H torsion
[ 10718 10713 10712 10709 ] final  106.70 input   66.30 | X-H torsion
[ 10763 10752 10751 10750 ] final  167.94 input  -60.55 | X-H torsion
[ 11005 11000 10999 10996 ] final  -43.31 input  -57.11 | X-H torsion

> <Gold.Protein.ActiveResidues>
 VAL166  LYS551  ARG553  GLY616  TRP617  ASP618  TYR619  PRO620  LYS621  CYS622 
 ASP623  PHE694  ASN695  SER759  ASP760  ASP761  ALA762  ILE779  LEU786  VAL792 
 PHE793  MET794  SER795  GLU796  ALA797  LYS798  CYS799  TRP800  GLU811  SER814 

> <Gold.Protein.RotatedAtoms>
  151.3848  135.0946  159.9507 H   0  0  0  0  0  0  0  0  0  0  0  0  # atno 6907 bound_to 6896
  152.5097  133.9037  159.7464 H   0  0  0  0  0  0  0  0  0  0  0  0  # atno 6908 bound_to 6896
  150.9478  133.6528  159.2806 H   0  0  0  0  0  0  0  0  0  0  0  0  # atno 6909 bound_to 6896
  145.1135  140.8626  143.3856 H   0  0  0  0  0  0  0  0  0  0  0  0  # atno 7974 bound_to 7965
  155.1959  140.3312  155.4351 H   0  0  0  0  0  0  0  0  0  0  0  0  # atno 8008 bound_to 7997
  156.2425  140.1902  156.6999 H   0  0  0  0  0  0  0  0  0  0  0  0  # atno 8009 bound_to 7997
  154.6174  140.0600  156.9558 H   0  0  0  0  0  0  0  0  0  0  0  0  # atno 8010 bound_to 7997
  140.2033  143.3802  152.1111 H   0  0  0  0  0  0  0  0  0  0  0  0  # atno 10167 bound_to 10162
  157.6658  131.0856  150.6045 H   0  0  0  0  0  0  0  0  0  0  0  0  # atno 10718 bound_to 10713
  154.3612  135.2753  155.2319 H   0  0  0  0  0  0  0  0  0  0  0  0  # atno 10763 bound_to 10752
  154.4506  135.5932  153.6193 H   0  0  0  0  0  0  0  0  0  0  0  0  # atno 10764 bound_to 10752
  152.9843  135.6041  154.3833 H   0  0  0  0  0  0  0  0  0  0  0  0  # atno 10765 bound_to 10752
  141.0375  133.6794  156.2715 H   0  0  0  0  0  0  0  0  0  0  0  0  # atno 11005 bound_to 11000
  145.0820  139.2952  143.5778 LP  0  0  0  0  0  0  0  0  0  0  0  0  # atno 17320 bound_to 7965
  146.3525  140.0330  142.8649 LP  0  0  0  0  0  0  0  0  0  0  0  0  # atno 17321 bound_to 7965
  139.5208  144.7038  151.5414 LP  0  0  0  0  0  0  0  0  0  0  0  0  # atno 17342 bound_to 10162
  140.6375  143.8955  150.6661 LP  0  0  0  0  0  0  0  0  0  0  0  0  # atno 17343 bound_to 10162
  156.6346  130.4441  149.5774 LP  0  0  0  0  0  0  0  0  0  0  0  0  # atno 17370 bound_to 10713
  156.2256  130.6763  151.1412 LP  0  0  0  0  0  0  0  0  0  0  0  0  # atno 17371 bound_to 10713
  140.6295  134.5278  157.5558 LP  0  0  0  0  0  0  0  0  0  0  0  0  # atno 17394 bound_to 11000
  139.9251  134.8071  156.1092 LP  0  0  0  0  0  0  0  0  0  0  0  0  # atno 17395 bound_to 11000

$$$$
