AV-unprocessed.smi:440|AV-procd|sdf|2581|dock8
  -GOLD-   2262022573D 1   1.00000     0.00000
 Structure written by MMmdl.
 41 42  0  0  0  0  0  0  0  0  1 V2000
  153.1557  138.4682  155.5903 C   0  0  0  0  0  0  0  0  0  0  0  0
  152.0415  139.4732  155.6622 C   0  0  0  0  0  0  0  0  0  0  0  0
  152.2204  140.5903  156.3455 N   0  0  0  0  0  0  0  0  0  0  0  0
  151.0590  141.2650  156.2194 N   0  0  0  0  0  0  0  0  0  0  0  0
  150.9181  142.5590  156.8705 C   0  0  0  0  0  0  0  0  0  0  0  0
  151.0632  142.4889  158.4063 C   0  0  0  0  0  0  0  0  0  0  0  0
  151.0137  143.8960  159.0195 C   0  0  0  0  0  0  0  0  0  0  0  0
  152.3291  141.7396  158.8580 C   0  0  0  0  0  0  0  0  0  0  0  0
  150.1473  140.5733  155.4424 C   0  0  0  0  0  0  0  0  0  0  0  0
  148.7836  141.1045  155.1349 C   0  0  0  0  0  0  0  0  0  0  0  0
  150.7490  139.4024  155.0647 C   0  0  0  0  0  0  0  0  0  0  0  0
  150.1917  138.2899  154.2129 C   0  0  0  0  0  0  0  0  0  0  0  0
  150.2768  136.9662  154.9731 C   0  0  0  0  0  0  0  0  0  0  0  0
  150.7393  136.9406  156.1136 O   0  0  0  0  0  0  0  0  0  0  0  0
  149.8227  135.8806  154.3292 N   0  0  0  0  0  0  0  0  0  0  0  0
  149.7800  134.5569  154.8589 C   0  0  0  0  0  0  0  0  0  0  0  0
  151.0971  133.8815  155.1734 C   0  0  0  0  0  0  0  0  0  0  0  0
  150.2961  133.4378  153.9804 C   0  0  0  0  0  0  0  0  0  0  0  0
  152.8048  137.4759  155.8744 H   0  0  0  0  0  0  0  0  0  0  0  0
  153.9795  138.7288  156.2560 H   0  0  0  0  0  0  0  0  0  0  0  0
  153.5560  138.4028  154.5787 H   0  0  0  0  0  0  0  0  0  0  0  0
  151.6627  143.2414  156.4570 H   0  0  0  0  0  0  0  0  0  0  0  0
  149.9465  142.9742  156.6015 H   0  0  0  0  0  0  0  0  0  0  0  0
  150.2071  141.9393  158.7981 H   0  0  0  0  0  0  0  0  0  0  0  0
  151.8469  144.5083  158.6732 H   0  0  0  0  0  0  0  0  0  0  0  0
  151.0613  143.8538  160.1079 H   0  0  0  0  0  0  0  0  0  0  0  0
  150.0895  144.4091  158.7517 H   0  0  0  0  0  0  0  0  0  0  0  0
  153.2288  142.2079  158.4579 H   0  0  0  0  0  0  0  0  0  0  0  0
  152.3200  140.6998  158.5308 H   0  0  0  0  0  0  0  0  0  0  0  0
  152.4134  141.7327  159.9451 H   0  0  0  0  0  0  0  0  0  0  0  0
  148.2804  140.4903  154.3882 H   0  0  0  0  0  0  0  0  0  0  0  0
  148.8378  142.1195  154.7416 H   0  0  0  0  0  0  0  0  0  0  0  0
  148.1611  141.1175  156.0291 H   0  0  0  0  0  0  0  0  0  0  0  0
  149.1532  138.4778  153.9379 H   0  0  0  0  0  0  0  0  0  0  0  0
  150.7367  138.1973  153.2728 H   0  0  0  0  0  0  0  0  0  0  0  0
  149.4600  136.0061  153.3954 H   0  0  0  0  0  0  0  0  0  0  0  0
  148.9442  134.3050  155.5104 H   0  0  0  0  0  0  0  0  0  0  0  0
  152.0131  134.4386  154.9848 H   0  0  0  0  0  0  0  0  0  0  0  0
  151.1261  133.2163  156.0340 H   0  0  0  0  0  0  0  0  0  0  0  0
  149.7898  132.4767  154.0441 H   0  0  0  0  0  0  0  0  0  0  0  0
  150.6782  133.6984  152.9947 H   0  0  0  0  0  0  0  0  0  0  0  0
  1  2  1  0  0  0  0
  1 19  1  0  0  0  0
  1 20  1  0  0  0  0
  1 21  1  0  0  0  0
  2 11  1  0  0  0  0
  2  3  2  0  0  0  0
  3  4  1  0  0  0  0
  4  5  1  0  0  0  0
  4  9  1  0  0  0  0
  5  6  1  0  0  0  0
  5 22  1  0  0  0  0
  5 23  1  0  0  0  0
  6  7  1  0  0  0  0
  6  8  1  0  0  0  0
  6 24  1  0  0  0  0
  7 25  1  0  0  0  0
  7 26  1  0  0  0  0
  7 27  1  0  0  0  0
  8 28  1  0  0  0  0
  8 29  1  0  0  0  0
  8 30  1  0  0  0  0
  9 10  1  0  0  0  0
  9 11  2  0  0  0  0
 10 31  1  0  0  0  0
 10 32  1  0  0  0  0
 10 33  1  0  0  0  0
 11 12  1  0  0  0  0
 12 13  1  0  0  0  0
 12 34  1  0  0  0  0
 12 35  1  0  0  0  0
 13 14  2  0  0  0  0
 13 15  1  0  0  0  0
 15 16  1  0  0  0  0
 15 36  1  0  0  0  0
 16 18  1  0  0  0  0
 16 17  1  0  0  0  0
 16 37  1  0  0  0  0
 17 18  1  0  0  0  0
 17 38  1  0  0  0  0
 17 39  1  0  0  0  0
 18 40  1  0  0  0  0
 18 41  1  0  0  0  0
M  END
> <s_m_source_file>
AV-unprocessed.smi

> <i_m_source_file_index>
440

> <i_lp_mmshare_version>
43012

> <i_f3d_flags>
0

> <s_epik_input>
W0NIM11jMW5uKFtDSDJdW0NIXShbQ0gzXSlbQ0gzXSljKFtDSDNdKWMxW0NIMl1DKD1PKVtOSF1bQ0hdMltDSDJdW0NIMl0y

> <s_epik_cmdline>
J2VwaWtfcHl0aG9uJywgJy1waCcsICc3LjAnLCAnLXRuJywgJzgnLCAnLW1hJywgJzIwMCcsICctbWV0YWxfYmluZGluZycsICctaW1hZScsICc8aW5maWxlLm1hZT4nLCAnLW9tYWUnLCAnPG91dGZpbGUubWFlPic=

> <r_lp_tautomer_probability>
1

> <r_epik_Ionization_Penalty>
0.00313774

> <r_epik_Ionization_Penalty_Charging>
0

> <r_epik_Ionization_Penalty_Neutral>
0.00313774

> <r_epik_State_Penalty>
0.00220979

> <r_epik_Charging_Adjusted_Penalty>
0.00220979

> <i_epik_Tot_Q>
0

> <i_epik_Tot_abs_Q>
0

> <r_epik_Metal_State_Penalty>
-0

> <b_epik_Metal_Only>
0

> <s_lp_Force_Field>
OPLS_2005

> <r_lp_Energy>
13.2521

> <b_lp_Chiralities_Consistent>
1

> <s_lp_Variant>
AV-unprocessed.smi:440-1

> <Gold.Version>
5.8.1

> <Gold.Id.Protein>
6NUR|6NUR_protein|mol2

> <Gold.PLP.Fitness>
39.9827

> <Gold.PLP.PLP>
-34.2674

> <Gold.PLP.part.hbond>
-2.0000

> <Gold.PLP.part.metal>
0.0000

> <Gold.PLP.part.buried>
-1.7870

> <Gold.PLP.part.nonpolar>
-30.4407

> <Gold.PLP.part.repulsive>
0.0489

> <Gold.PLP.ligand.clash>
0.0000

> <Gold.PLP.ligand.torsion>
0.1386

> <Gold.PLP.Chemscore.Hbond>
1.9760

> <Gold.PLP.Chemscore.CHOScore>
0.0000

> <Gold.PLP.Chemscore.Metal>
0.0000

> <Gold.Chemscore.Hbonds>
donor molecule, donor type, donor heavy atom, donor atom, acceptor molecule, acceptor atom, score
      L1  H    15    36       P1  7948  1.00
      P1  H  7997  8009       L1     3  0.25

> <Gold.PLP.Chemscore.Internal.Correction>
0.0644

> <Gold.Rescore>
     Score         DG    S(hbond)    S(metal)    S(lipo)     H(rot)  DE(clash)    DE(int)     intcor
     15.69     -18.19       1.87        0.00      88.97       1.53       1.32       1.18       ----

> <Gold.Chemscore.Fitness>
15.6917

> <Gold.Chemscore.DG>
-18.1940

> <Gold.Chemscore.ZeroCoef>
-5.4800

> <Gold.Chemscore.Hbond>
1.8659

> <Gold.Chemscore.Metal>
0.0000

> <Gold.Chemscore.Lipo>
88.9695

> <Gold.Chemscore.Internal_Hbond>
0.0000

> <Gold.Chemscore.DEClash>
1.3208

> <Gold.Chemscore.DEInternal>
1.1815

> <Gold.Chemscore.Rot>
1.5342

> <Gold.Chemscore.Internal.Correction>
   9.000000E+99

> <Gold.Chemscore.Hbonds>
donor molecule, donor type, donor heavy atom, donor atom, acceptor molecule, acceptor atom, score
      L1  H    15    36       P1  7948  0.39
      P1  H  7997  8009       L1     3  0.01

> <Gold.Chemscore.Hbond.Weighted>
-6.2321

> <Gold.Chemscore.Metal.Weighted>
-0.0000

> <Gold.Chemscore.Lipo.Weighted>
-10.4094

> <Gold.Chemscore.Internal_Hbond.Weighted>
0.0000

> <Gold.Chemscore.DEClash.Weighted>
1.3208

> <Gold.Chemscore.DEInternal.Weighted>
1.1815

> <Gold.Chemscore.Rot.Weighted>
3.9276

> <Gold.Chemscore.Internal.Correction.Weighted>
   9.000000E+99

> <Gold.Protein.RotatedTorsions>
[ 6907 6896 6895 6894 ] final   28.12 input  -60.11 | X-H torsion
[ 7974 7965 7964 7962 ] final  177.38 input  175.53 | X-H torsion
[ 8008 7997 7996 7995 ] final -175.48 input   59.86 | X-H torsion
[ 10167 10162 10161 10158 ] final   61.85 input  -65.29 | X-H torsion
[ 10718 10713 10712 10709 ] final   74.73 input   66.30 | X-H torsion
[ 10763 10752 10751 10750 ] final   37.83 input  -60.55 | X-H torsion
[ 11005 11000 10999 10996 ] final -178.36 input  -57.11 | X-H torsion

> <Gold.Protein.ActiveResidues>
 VAL166  LYS551  ARG553  GLY616  TRP617  ASP618  TYR619  PRO620  LYS621  CYS622 
 ASP623  PHE694  ASN695  SER759  ASP760  ASP761  ALA762  ILE779  LEU786  VAL792 
 PHE793  MET794  SER795  GLU796  ALA797  LYS798  CYS799  TRP800  GLU811  SER814 

> <Gold.Protein.RotatedAtoms>
  152.0123  134.9869  160.0568 H   0  0  0  0  0  0  0  0  0  0  0  0  # atno 6907 bound_to 6896
  152.1417  133.4463  159.4778 H   0  0  0  0  0  0  0  0  0  0  0  0  # atno 6908 bound_to 6896
  150.6866  134.2215  159.4442 H   0  0  0  0  0  0  0  0  0  0  0  0  # atno 6909 bound_to 6896
  144.7170  140.0238  143.6440 H   0  0  0  0  0  0  0  0  0  0  0  0  # atno 7974 bound_to 7965
  155.9831  140.1186  157.0708 H   0  0  0  0  0  0  0  0  0  0  0  0  # atno 8008 bound_to 7997
  154.4189  140.1140  156.5530 H   0  0  0  0  0  0  0  0  0  0  0  0  # atno 8009 bound_to 7997
  155.6444  140.3473  155.4728 H   0  0  0  0  0  0  0  0  0  0  0  0  # atno 8010 bound_to 7997
  140.1503  144.4469  150.6763 H   0  0  0  0  0  0  0  0  0  0  0  0  # atno 10167 bound_to 10162
  157.6605  130.9692  150.1253 H   0  0  0  0  0  0  0  0  0  0  0  0  # atno 10718 bound_to 10713
  153.0023  135.6266  154.2208 H   0  0  0  0  0  0  0  0  0  0  0  0  # atno 10763 bound_to 10752
  154.1951  135.2807  155.3011 H   0  0  0  0  0  0  0  0  0  0  0  0  # atno 10764 bound_to 10752
  154.5729  135.5671  153.7171 H   0  0  0  0  0  0  0  0  0  0  0  0  # atno 10765 bound_to 10752
  140.4306  134.6522  157.4710 H   0  0  0  0  0  0  0  0  0  0  0  0  # atno 11005 bound_to 11000
  146.0158  139.3209  143.0842 LP  0  0  0  0  0  0  0  0  0  0  0  0  # atno 17320 bound_to 7965
  145.8627  140.9466  143.0692 LP  0  0  0  0  0  0  0  0  0  0  0  0  # atno 17321 bound_to 7965
  140.6706  143.2284  151.5633 LP  0  0  0  0  0  0  0  0  0  0  0  0  # atno 17342 bound_to 10162
  139.5429  144.2599  152.1386 LP  0  0  0  0  0  0  0  0  0  0  0  0  # atno 17343 bound_to 10162
  156.2114  130.3667  149.8666 LP  0  0  0  0  0  0  0  0  0  0  0  0  # atno 17370 bound_to 10713
  156.6544  130.8756  151.3537 LP  0  0  0  0  0  0  0  0  0  0  0  0  # atno 17371 bound_to 10713
  140.0137  134.6652  155.9342 LP  0  0  0  0  0  0  0  0  0  0  0  0  # atno 17394 bound_to 11000
  141.1747  133.6539  156.4783 LP  0  0  0  0  0  0  0  0  0  0  0  0  # atno 17395 bound_to 11000

$$$$
