AV-unprocessed.smi:2822|AV-procd|sdf|10860|dock6
  -GOLD-   2272015303D 1   1.00000     0.00000
 Structure written by MMmdl.
 41 43  0  0  0  0  0  0  0  0  3 V2000
  150.1994  138.3405  154.1151 Cl  0  0  0  0  0  0  0  0  0  0  0  0
  149.1549  139.7178  154.0803 C   0  0  0  0  0  0  0  0  0  0  0  0
  149.5509  140.8994  154.7404 C   0  0  0  0  0  0  0  0  0  0  0  0
  148.7478  141.9841  154.7235 N   0  3  0  0  0  0  0  0  0  0  0  0
  147.5546  141.9981  154.0928 C   0  0  0  0  0  0  0  0  0  0  0  0
  147.1035  140.8469  153.4153 C   0  0  0  0  0  0  0  0  0  0  0  0
  147.9110  139.6818  153.4027 C   0  0  0  0  0  0  0  0  0  0  0  0
  147.5231  138.5050  152.7432 N   0  0  0  0  0  0  0  0  0  0  0  0
  146.2038  138.3740  152.1431 C   0  0  0  0  0  0  0  0  0  0  0  0
  145.6252  136.9674  152.3552 C   0  0  2  0  0  0  0  0  0  0  0  0
  146.2475  135.9428  151.3886 C   0  0  0  0  0  0  0  0  0  0  0  0
  145.6222  134.6113  151.5655 N   0  3  2  0  0  0  0  0  0  0  0  0
  146.2206  133.5814  150.6787 C   0  0  0  0  0  0  0  0  0  0  0  0
  145.6159  132.1950  150.9537 C   0  0  0  0  0  0  0  0  0  0  0  0
  144.0889  132.2268  150.8113 C   0  0  0  0  0  0  0  0  0  0  0  0
  143.4989  133.3172  151.7157 C   0  0  0  0  0  0  0  0  0  0  0  0
  144.1421  134.6892  151.4308 C   0  0  1  0  0  0  0  0  0  0  0  0
  143.5842  135.7762  152.3703 C   0  0  0  0  0  0  0  0  0  0  0  0
  144.2241  137.0188  152.1081 O   0  0  0  0  0  0  0  0  0  0  0  0
  150.4813  141.0083  155.2784 H   0  0  0  0  0  0  0  0  0  0  0  0
  147.0000  142.9235  154.1478 H   0  0  0  0  0  0  0  0  0  0  0  0
  146.1470  140.8791  152.9154 H   0  0  0  0  0  0  0  0  0  0  0  0
  148.0848  137.6725  152.8571 H   0  0  0  0  0  0  0  0  0  0  0  0
  145.5313  139.1247  152.5602 H   0  0  0  0  0  0  0  0  0  0  0  0
  146.2895  138.5707  151.0737 H   0  0  0  0  0  0  0  0  0  0  0  0
  145.8097  136.6547  153.3853 H   0  0  0  0  0  0  0  0  0  0  0  0
  146.1187  136.2721  150.3561 H   0  0  0  0  0  0  0  0  0  0  0  0
  147.3206  135.8662  151.5687 H   0  0  0  0  0  0  0  0  0  0  0  0
  146.0600  133.8589  149.6358 H   0  0  0  0  0  0  0  0  0  0  0  0
  147.2994  133.5461  150.8352 H   0  0  0  0  0  0  0  0  0  0  0  0
  146.0389  131.4606  150.2674 H   0  0  0  0  0  0  0  0  0  0  0  0
  145.8845  131.8699  151.9598 H   0  0  0  0  0  0  0  0  0  0  0  0
  143.8189  132.4220  149.7725 H   0  0  0  0  0  0  0  0  0  0  0  0
  143.6655  131.2549  151.0668 H   0  0  0  0  0  0  0  0  0  0  0  0
  142.4195  133.3715  151.5687 H   0  0  0  0  0  0  0  0  0  0  0  0
  143.6545  133.0450  152.7607 H   0  0  0  0  0  0  0  0  0  0  0  0
  143.9117  134.9753  150.4027 H   0  0  0  0  0  0  0  0  0  0  0  0
  142.5123  135.8967  152.2110 H   0  0  0  0  0  0  0  0  0  0  0  0
  143.7198  135.5004  153.4176 H   0  0  0  0  0  0  0  0  0  0  0  0
  145.8126  134.3238  152.5150 H   0  0  0  0  0  0  0  0  0  0  0  0
  149.0557  142.8280  155.2075 H   0  0  0  0  0  0  0  0  0  0  0  0
  1  2  1  0  0  0  0
  2  7  1  0  0  0  0
  2  3  2  0  0  0  0
  3  4  1  0  0  0  0
  3 20  1  0  0  0  0
  4  5  2  0  0  0  0
  4 41  1  0  0  0  0
  5  6  1  0  0  0  0
  5 21  1  0  0  0  0
  6  7  2  0  0  0  0
  6 22  1  0  0  0  0
  7  8  1  0  0  0  0
  8  9  1  0  0  0  0
  8 23  1  0  0  0  0
  9 10  1  0  0  0  0
  9 24  1  0  0  0  0
  9 25  1  0  0  0  0
 10 19  1  0  0  0  0
 10 11  1  0  0  0  0
 10 26  1  0  0  0  0
 11 12  1  0  0  0  0
 11 27  1  0  0  0  0
 11 28  1  0  0  0  0
 12 17  1  0  0  0  0
 12 13  1  0  0  0  0
 12 40  1  0  0  0  0
 13 14  1  0  0  0  0
 13 29  1  0  0  0  0
 13 30  1  0  0  0  0
 14 15  1  0  0  0  0
 14 31  1  0  0  0  0
 14 32  1  0  0  0  0
 15 16  1  0  0  0  0
 15 33  1  0  0  0  0
 15 34  1  0  0  0  0
 16 17  1  0  0  0  0
 16 35  1  0  0  0  0
 16 36  1  0  0  0  0
 17 18  1  0  0  0  0
 17 37  1  0  0  0  0
 18 19  1  0  0  0  0
 18 38  1  0  0  0  0
 18 39  1  0  0  0  0
M  CHG  1   4   1
M  CHG  1  12   1
M  END
> <s_m_source_file>
AV-unprocessed.smi

> <i_m_source_file_index>
2822

> <i_lp_mmshare_version>
43012

> <i_f3d_flags>
0

> <s_epik_input>
Q2xjMVtjSF1uW2NIXVtjSF1jMVtOSF1bQ0gyXVtDQEhdKFtDSDJdMilPW0NIMl1bQ0BASF0oTjIzKVtDSDJdW0NIMl1bQ0gyXVtDSDJdMw==

> <s_epik_cmdline>
J2VwaWtfcHl0aG9uJywgJy1waCcsICc3LjAnLCAnLXRuJywgJzgnLCAnLW1hJywgJzIwMCcsICctbWV0YWxfYmluZGluZycsICctaW1hZScsICc8aW5maWxlLm1hZT4nLCAnLW9tYWUnLCAnPG91dGZpbGUubWFlPic=

> <r_lp_tautomer_probability>
1

> <r_epik_Ionization_Penalty>
0.254999

> <r_epik_Ionization_Penalty_Charging>
0.254956

> <r_epik_Ionization_Penalty_Neutral>
4.33524e-05

> <r_epik_State_Penalty>
0.230978

> <r_epik_Charging_Adjusted_Penalty>
0.485934

> <i_epik_Tot_Q>
2

> <i_epik_Tot_abs_Q>
2

> <r_epik_Metal_State_Penalty>
3.47007

> <b_epik_Metal_Only>
0

> <s_lp_Force_Field>
OPLS_2005

> <r_lp_Energy>
36.8988

> <b_lp_Chiralities_Consistent>
1

> <s_lp_Variant>
AV-unprocessed.smi:2822-1

> <Gold.Version>
5.8.1

> <Gold.Id.Protein>
6NUR|6NUR_protein|mol2

> <Gold.PLP.Fitness>
43.2047

> <Gold.PLP.PLP>
-35.2551

> <Gold.PLP.part.hbond>
-3.0000

> <Gold.PLP.part.metal>
0.0000

> <Gold.PLP.part.buried>
0.8695

> <Gold.PLP.part.nonpolar>
-35.5938

> <Gold.PLP.part.repulsive>
2.6043

> <Gold.PLP.ligand.clash>
0.0000

> <Gold.PLP.ligand.torsion>
0.2976

> <Gold.PLP.Chemscore.Hbond>
2.8480

> <Gold.PLP.Chemscore.CHOScore>
0.0000

> <Gold.PLP.Chemscore.Metal>
0.0000

> <Gold.Chemscore.Hbonds>
donor molecule, donor type, donor heavy atom, donor atom, acceptor molecule, acceptor atom, score
      L1  H     4    41       P1  8028  2.00
      L1  H     8    23       P1  7948  0.85

> <Gold.PLP.Chemscore.Internal.Correction>
0.0008

> <Gold.Rescore>
     Score         DG    S(hbond)    S(metal)    S(lipo)     H(rot)  DE(clash)    DE(int)     intcor
     16.75     -20.15       1.71        0.00     102.73       1.20       3.16       0.24       ----

> <Gold.Chemscore.Fitness>
16.7498

> <Gold.Chemscore.DG>
-20.1502

> <Gold.Chemscore.ZeroCoef>
-5.4800

> <Gold.Chemscore.Hbond>
1.7105

> <Gold.Chemscore.Metal>
0.0000

> <Gold.Chemscore.Lipo>
102.7310

> <Gold.Chemscore.Internal_Hbond>
0.0000

> <Gold.Chemscore.DEClash>
3.1557

> <Gold.Chemscore.DEInternal>
0.2446

> <Gold.Chemscore.Rot>
1.1962

> <Gold.Chemscore.Internal.Correction>
   9.000000E+99

> <Gold.Chemscore.Hbonds>
donor molecule, donor type, donor heavy atom, donor atom, acceptor molecule, acceptor atom, score
      L1  H     4    41       P1  8028  0.95
      L1  H     8    23       P1  7948  0.82

> <Gold.Chemscore.Hbond.Weighted>
-5.7130

> <Gold.Chemscore.Metal.Weighted>
-0.0000

> <Gold.Chemscore.Lipo.Weighted>
-12.0195

> <Gold.Chemscore.Internal_Hbond.Weighted>
0.0000

> <Gold.Chemscore.DEClash.Weighted>
3.1557

> <Gold.Chemscore.DEInternal.Weighted>
0.2446

> <Gold.Chemscore.Rot.Weighted>
3.0623

> <Gold.Chemscore.Internal.Correction.Weighted>
   9.000000E+99

> <Gold.Protein.RotatedTorsions>
[ 6907 6896 6895 6894 ] final   68.87 input  -60.11 | X-H torsion
[ 7974 7965 7964 7962 ] final  -37.59 input  175.53 | X-H torsion
[ 8008 7997 7996 7995 ] final -157.32 input   59.86 | X-H torsion
[ 10167 10162 10161 10158 ] final  -13.43 input  -65.29 | X-H torsion
[ 10718 10713 10712 10709 ] final  -42.12 input   66.30 | X-H torsion
[ 10763 10752 10751 10750 ] final  -95.26 input  -60.55 | X-H torsion
[ 11005 11000 10999 10996 ] final  150.72 input  -57.11 | X-H torsion

> <Gold.Protein.ActiveResidues>
 VAL166  LYS551  ARG553  GLY616  TRP617  ASP618  TYR619  PRO620  LYS621  CYS622 
 ASP623  PHE694  ASN695  SER759  ASP760  ASP761  ALA762  ILE779  LEU786  VAL792 
 PHE793  MET794  SER795  GLU796  ALA797  LYS798  CYS799  TRP800  GLU811  SER814 

> <Gold.Protein.RotatedAtoms>
  152.4649  134.5098  159.9750 H   0  0  0  0  0  0  0  0  0  0  0  0  # atno 6907 bound_to 6896
  151.5138  133.3474  159.2897 H   0  0  0  0  0  0  0  0  0  0  0  0  # atno 6908 bound_to 6896
  150.8629  134.8014  159.7158 H   0  0  0  0  0  0  0  0  0  0  0  0  # atno 6909 bound_to 6896
  146.0562  140.6413  142.9019 H   0  0  0  0  0  0  0  0  0  0  0  0  # atno 7974 bound_to 7965
  155.7306  140.0801  157.2290 H   0  0  0  0  0  0  0  0  0  0  0  0  # atno 8008 bound_to 7997
  154.4033  140.1596  156.2559 H   0  0  0  0  0  0  0  0  0  0  0  0  # atno 8009 bound_to 7997
  155.9112  140.3404  155.6103 H   0  0  0  0  0  0  0  0  0  0  0  0  # atno 8010 bound_to 7997
  140.7182  143.5427  150.9391 H   0  0  0  0  0  0  0  0  0  0  0  0  # atno 10167 bound_to 10162
  156.2630  130.4199  149.8521 H   0  0  0  0  0  0  0  0  0  0  0  0  # atno 10718 bound_to 10713
  154.7132  135.5127  153.8698 H   0  0  0  0  0  0  0  0  0  0  0  0  # atno 10763 bound_to 10752
  153.0798  135.6628  154.0078 H   0  0  0  0  0  0  0  0  0  0  0  0  # atno 10764 bound_to 10752
  153.9916  135.3019  155.3391 H   0  0  0  0  0  0  0  0  0  0  0  0  # atno 10765 bound_to 10752
  140.1156  134.8896  157.1999 H   0  0  0  0  0  0  0  0  0  0  0  0  # atno 11005 bound_to 11000
  144.7149  140.4174  143.7052 LP  0  0  0  0  0  0  0  0  0  0  0  0  # atno 17320 bound_to 7965
  145.6640  139.1586  143.2792 LP  0  0  0  0  0  0  0  0  0  0  0  0  # atno 17321 bound_to 7965
  139.9150  143.6675  152.3108 LP  0  0  0  0  0  0  0  0  0  0  0  0  # atno 17342 bound_to 10162
  139.7071  144.7626  151.1174 LP  0  0  0  0  0  0  0  0  0  0  0  0  # atno 17343 bound_to 10162
  156.6030  130.8554  151.3436 LP  0  0  0  0  0  0  0  0  0  0  0  0  # atno 17370 bound_to 10713
  157.7257  130.9620  150.1626 LP  0  0  0  0  0  0  0  0  0  0  0  0  # atno 17371 bound_to 10713
  140.3033  134.3107  155.7284 LP  0  0  0  0  0  0  0  0  0  0  0  0  # atno 17394 bound_to 11000
  141.2140  133.7605  156.9671 LP  0  0  0  0  0  0  0  0  0  0  0  0  # atno 17395 bound_to 11000

$$$$
