AV-unprocessed.smi:2999|AV-procd|sdf|11418|dock5
  -GOLD-   2272016343D 1   1.00000     0.00000
 Structure written by MMmdl.
 37 39  0  0  0  0  0  0  0  0  1 V2000
  150.7696  140.6071  156.2463 O   0  0  0  0  0  0  0  0  0  0  0  0
  150.3790  141.7721  156.1647 C   0  0  0  0  0  0  0  0  0  0  0  0
  149.5164  142.2004  155.2320 N   0  0  0  0  0  0  0  0  0  0  0  0
  148.8988  141.3689  154.2030 C   0  0  0  0  0  0  0  0  0  0  0  0
  147.3890  141.6349  154.0695 C   0  0  1  0  0  0  0  0  0  0  0  0
  146.5636  141.1309  155.2738 C   0  0  0  0  0  0  0  0  0  0  0  0
  145.1523  141.4752  155.1503 N   0  0  0  0  0  0  0  0  0  0  0  0
  144.3990  141.0104  156.3054 C   0  0  0  0  0  0  0  0  0  0  0  0
  143.7842  139.6349  156.2830 C   0  0  0  0  0  0  0  0  0  0  0  0
  142.9024  140.8676  156.2045 C   0  0  0  0  0  0  0  0  0  0  0  0
  145.0327  142.9188  154.9934 C   0  0  0  0  0  0  0  0  0  0  0  0
  145.8466  143.4271  153.7924 C   0  0  0  0  0  0  0  0  0  0  0  0
  147.2094  143.0444  153.9480 O   0  0  0  0  0  0  0  0  0  0  0  0
  150.7512  142.7760  156.9776 N   0  0  0  0  0  0  0  0  0  0  0  0
  151.6142  142.7212  158.1034 C   0  0  0  0  0  0  0  0  0  0  0  0
  152.0309  141.5884  158.6815 N   0  0  0  0  0  0  0  0  0  0  0  0
  152.8654  141.8341  159.7748 C   0  0  0  0  0  0  0  0  0  0  0  0
  153.0751  143.1692  160.0166 C   0  0  0  0  0  0  0  0  0  0  0  0
  152.2299  144.1767  158.8722 S   0  0  0  0  0  0  0  0  0  0  0  0
  149.2564  143.1760  155.2395 H   0  0  0  0  0  0  0  0  0  0  0  0
  149.3956  141.4946  153.2396 H   0  0  0  0  0  0  0  0  0  0  0  0
  149.0570  140.3292  154.4908 H   0  0  0  0  0  0  0  0  0  0  0  0
  147.0266  141.1611  153.1552 H   0  0  0  0  0  0  0  0  0  0  0  0
  146.6629  140.0487  155.3601 H   0  0  0  0  0  0  0  0  0  0  0  0
  146.9696  141.5540  156.1943 H   0  0  0  0  0  0  0  0  0  0  0  0
  144.8166  141.3690  157.2452 H   0  0  0  0  0  0  0  0  0  0  0  0
  143.8983  139.0409  155.3779 H   0  0  0  0  0  0  0  0  0  0  0  0
  143.7798  139.0718  157.2139 H   0  0  0  0  0  0  0  0  0  0  0  0
  142.3142  141.1234  157.0833 H   0  0  0  0  0  0  0  0  0  0  0  0
  142.4335  141.0887  155.2474 H   0  0  0  0  0  0  0  0  0  0  0  0
  143.9844  143.1905  154.8630 H   0  0  0  0  0  0  0  0  0  0  0  0
  145.3750  143.4214  155.8992 H   0  0  0  0  0  0  0  0  0  0  0  0
  145.4519  143.0245  152.8582 H   0  0  0  0  0  0  0  0  0  0  0  0
  145.7864  144.5132  153.7252 H   0  0  0  0  0  0  0  0  0  0  0  0
  150.3560  143.6834  156.7793 H   0  0  0  0  0  0  0  0  0  0  0  0
  153.2667  140.9976  160.3274 H   0  0  0  0  0  0  0  0  0  0  0  0
  153.6734  143.6190  160.7951 H   0  0  0  0  0  0  0  0  0  0  0  0
  1  2  2  0  0  0  0
  2  3  1  0  0  0  0
  2 14  1  0  0  0  0
  3  4  1  0  0  0  0
  3 20  1  0  0  0  0
  4  5  1  0  0  0  0
  4 21  1  0  0  0  0
  4 22  1  0  0  0  0
  5 13  1  0  0  0  0
  5  6  1  0  0  0  0
  5 23  1  0  0  0  0
  6  7  1  0  0  0  0
  6 24  1  0  0  0  0
  6 25  1  0  0  0  0
  7  8  1  0  0  0  0
  7 11  1  0  0  0  0
  8 10  1  0  0  0  0
  8  9  1  0  0  0  0
  8 26  1  0  0  0  0
  9 10  1  0  0  0  0
  9 27  1  0  0  0  0
  9 28  1  0  0  0  0
 10 29  1  0  0  0  0
 10 30  1  0  0  0  0
 11 12  1  0  0  0  0
 11 31  1  0  0  0  0
 11 32  1  0  0  0  0
 12 13  1  0  0  0  0
 12 33  1  0  0  0  0
 12 34  1  0  0  0  0
 14 15  1  0  0  0  0
 14 35  1  0  0  0  0
 15 19  1  0  0  0  0
 15 16  2  0  0  0  0
 16 17  1  0  0  0  0
 17 18  2  0  0  0  0
 17 36  1  0  0  0  0
 18 19  1  0  0  0  0
 18 37  1  0  0  0  0
M  END
> <s_m_source_file>
AV-unprocessed.smi

> <i_m_source_file_index>
2999

> <i_lp_mmshare_version>
43012

> <i_f3d_flags>
0

> <s_epik_input>
czFbY0hdW2NIXW5jMVtOSF1DKD1PKVtOSF1bQ0gyXVtDQEBIXTJbQ0gyXU4oW0NIMl1bQ0gyXU8yKVtDSF0zW0NIMl1bQ0gyXTM=

> <s_epik_cmdline>
J2VwaWtfcHl0aG9uJywgJy1waCcsICc3LjAnLCAnLXRuJywgJzgnLCAnLW1hJywgJzIwMCcsICctbWV0YWxfYmluZGluZycsICctaW1hZScsICc8aW5maWxlLm1hZT4nLCAnLW9tYWUnLCAnPG91dGZpbGUubWFlPic=

> <r_lp_tautomer_probability>
0.999

> <r_epik_Ionization_Penalty>
0.0449352

> <r_epik_Ionization_Penalty_Charging>
0

> <r_epik_Ionization_Penalty_Neutral>
0.0449352

> <r_epik_State_Penalty>
0.0379856

> <r_epik_Charging_Adjusted_Penalty>
0.0379856

> <i_epik_Tot_Q>
0

> <i_epik_Tot_abs_Q>
0

> <r_epik_Metal_State_Penalty>
0.0775629

> <b_epik_Metal_Only>
0

> <s_lp_Force_Field>
OPLS_2005

> <r_lp_Energy>
30.84

> <b_lp_Chiralities_Consistent>
1

> <s_lp_Variant>
AV-unprocessed.smi:2999-2

> <Gold.Version>
5.8.1

> <Gold.Id.Protein>
6NUR|6NUR_protein|mol2

> <Gold.PLP.Fitness>
40.5909

> <Gold.PLP.PLP>
-34.3140

> <Gold.PLP.part.hbond>
-3.2628

> <Gold.PLP.part.metal>
0.0000

> <Gold.PLP.part.buried>
-3.2252

> <Gold.PLP.part.nonpolar>
-28.8925

> <Gold.PLP.part.repulsive>
1.7274

> <Gold.PLP.ligand.clash>
0.0000

> <Gold.PLP.ligand.torsion>
0.7233

> <Gold.PLP.Chemscore.Hbond>
2.2115

> <Gold.PLP.Chemscore.CHOScore>
0.0000

> <Gold.PLP.Chemscore.Metal>
0.0000

> <Gold.Chemscore.Hbonds>
donor molecule, donor type, donor heavy atom, donor atom, acceptor molecule, acceptor atom, score
      L1  H     3    20       P1  8028  1.00
      L1  H    14    35       P1  8028  0.74
      P1  H  8022  8030       L1    13  0.29

> <Gold.PLP.Chemscore.Internal.Correction>
1.0890

> <Gold.Rescore>
     Score         DG    S(hbond)    S(metal)    S(lipo)     H(rot)  DE(clash)    DE(int)     intcor
     13.30     -16.33       1.95        0.00      71.03       1.55       1.06       1.98       ----

> <Gold.Chemscore.Fitness>
13.2959

> <Gold.Chemscore.DG>
-16.3349

> <Gold.Chemscore.ZeroCoef>
-5.4800

> <Gold.Chemscore.Hbond>
1.9468

> <Gold.Chemscore.Metal>
0.0000

> <Gold.Chemscore.Lipo>
71.0338

> <Gold.Chemscore.Internal_Hbond>
0.0000

> <Gold.Chemscore.DEClash>
1.0617

> <Gold.Chemscore.DEInternal>
1.9772

> <Gold.Chemscore.Rot>
1.5463

> <Gold.Chemscore.Internal.Correction>
   9.000000E+99

> <Gold.Chemscore.Hbonds>
donor molecule, donor type, donor heavy atom, donor atom, acceptor molecule, acceptor atom, score
      L1  H     3    20       P1  8028  1.00
      L1  H    14    35       P1  8028  0.72
      P1  H  8022  8030       L1    13  0.23

> <Gold.Chemscore.Hbond.Weighted>
-6.5023

> <Gold.Chemscore.Metal.Weighted>
-0.0000

> <Gold.Chemscore.Lipo.Weighted>
-8.3110

> <Gold.Chemscore.Internal_Hbond.Weighted>
0.0000

> <Gold.Chemscore.DEClash.Weighted>
1.0617

> <Gold.Chemscore.DEInternal.Weighted>
1.9772

> <Gold.Chemscore.Rot.Weighted>
3.9584

> <Gold.Chemscore.Internal.Correction.Weighted>
   9.000000E+99

> <Gold.Protein.RotatedTorsions>
[ 6907 6896 6895 6894 ] final -104.18 input  -60.11 | X-H torsion
[ 7974 7965 7964 7962 ] final -157.32 input  175.53 | X-H torsion
[ 8008 7997 7996 7995 ] final  -17.81 input   59.86 | X-H torsion
[ 10167 10162 10161 10158 ] final -153.49 input  -65.29 | X-H torsion
[ 10718 10713 10712 10709 ] final  143.35 input   66.30 | X-H torsion
[ 10763 10752 10751 10750 ] final -163.48 input  -60.55 | X-H torsion
[ 11005 11000 10999 10996 ] final -111.80 input  -57.11 | X-H torsion

> <Gold.Protein.ActiveResidues>
 VAL166  LYS551  ARG553  GLY616  TRP617  ASP618  TYR619  PRO620  LYS621  CYS622 
 ASP623  PHE694  ASN695  SER759  ASP760  ASP761  ALA762  ILE779  LEU786  VAL792 
 PHE793  MET794  SER795  GLU796  ALA797  LYS798  CYS799  TRP800  GLU811  SER814 

> <Gold.Protein.RotatedAtoms>
  150.7275  134.0316  159.3735 H   0  0  0  0  0  0  0  0  0  0  0  0  # atno 6907 bound_to 6896
  151.8286  135.0627  160.0443 H   0  0  0  0  0  0  0  0  0  0  0  0  # atno 6908 bound_to 6896
  152.2950  133.5563  159.5618 H   0  0  0  0  0  0  0  0  0  0  0  0  # atno 6909 bound_to 6896
  144.7553  140.3985  143.6017 H   0  0  0  0  0  0  0  0  0  0  0  0  # atno 7974 bound_to 7965
  154.4951  140.2132  155.9464 H   0  0  0  0  0  0  0  0  0  0  0  0  # atno 8008 bound_to 7997
  156.1359  140.3188  155.8388 H   0  0  0  0  0  0  0  0  0  0  0  0  # atno 8009 bound_to 7997
  155.4210  140.0497  157.3016 H   0  0  0  0  0  0  0  0  0  0  0  0  # atno 8010 bound_to 7997
  139.7092  143.9136  152.2461 H   0  0  0  0  0  0  0  0  0  0  0  0  # atno 10167 bound_to 10162
  157.3699  131.0977  151.0838 H   0  0  0  0  0  0  0  0  0  0  0  0  # atno 10718 bound_to 10713
  154.7118  135.3008  154.9185 H   0  0  0  0  0  0  0  0  0  0  0  0  # atno 10763 bound_to 10752
  154.0084  135.6698  153.4768 H   0  0  0  0  0  0  0  0  0  0  0  0  # atno 10764 bound_to 10752
  153.0761  135.5034  154.8321 H   0  0  0  0  0  0  0  0  0  0  0  0  # atno 10765 bound_to 10752
  141.0713  133.9375  157.2479 H   0  0  0  0  0  0  0  0  0  0  0  0  # atno 11005 bound_to 11000
  145.6800  139.1616  143.2706 LP  0  0  0  0  0  0  0  0  0  0  0  0  # atno 17320 bound_to 7965
  146.1556  140.6862  142.9301 LP  0  0  0  0  0  0  0  0  0  0  0  0  # atno 17321 bound_to 7965
  139.9000  144.6917  150.8675 LP  0  0  0  0  0  0  0  0  0  0  0  0  # atno 17342 bound_to 10162
  140.7729  143.3521  151.1994 LP  0  0  0  0  0  0  0  0  0  0  0  0  # atno 17343 bound_to 10162
  157.1946  130.6367  149.5716 LP  0  0  0  0  0  0  0  0  0  0  0  0  # atno 17370 bound_to 10713
  155.9753  130.4711  150.6452 LP  0  0  0  0  0  0  0  0  0  0  0  0  # atno 17371 bound_to 10713
  139.9526  135.0172  156.9037 LP  0  0  0  0  0  0  0  0  0  0  0  0  # atno 17394 bound_to 11000
  140.5668  134.0482  155.7417 LP  0  0  0  0  0  0  0  0  0  0  0  0  # atno 17395 bound_to 11000

$$$$
