AV-unprocessed.smi:2822|AV-procd|sdf|10863|dock6
  -GOLD-   2272015303D 1   1.00000     0.00000
 Structure written by MMmdl.
 41 43  0  0  0  0  0  0  0  0  3 V2000
  145.8153  142.3219  158.2460 Cl  0  0  0  0  0  0  0  0  0  0  0  0
  146.2698  141.6627  156.7133 C   0  0  0  0  0  0  0  0  0  0  0  0
  145.2902  141.5066  155.7109 C   0  0  0  0  0  0  0  0  0  0  0  0
  145.6294  140.9946  154.5089 N   0  3  0  0  0  0  0  0  0  0  0  0
  146.8891  140.6147  154.2075 C   0  0  0  0  0  0  0  0  0  0  0  0
  147.9128  140.7470  155.1679 C   0  0  0  0  0  0  0  0  0  0  0  0
  147.6071  141.2792  156.4454 C   0  0  0  0  0  0  0  0  0  0  0  0
  148.5775  141.4380  157.4459 N   0  0  0  0  0  0  0  0  0  0  0  0
  149.7320  140.5556  157.5431 C   0  0  0  0  0  0  0  0  0  0  0  0
  151.0376  141.3300  157.7932 C   0  0  1  0  0  0  0  0  0  0  0  0
  150.8191  142.7125  158.4410 C   0  0  0  0  0  0  0  0  0  0  0  0
  152.1199  143.3754  158.7068 N   0  3  1  0  0  0  0  0  0  0  0  0
  151.9919  144.7321  159.3011 C   0  0  0  0  0  0  0  0  0  0  0  0
  151.6001  144.6820  160.7909 C   0  0  0  0  0  0  0  0  0  0  0  0
  152.5701  143.8002  161.5891 C   0  0  0  0  0  0  0  0  0  0  0  0
  152.6738  142.4057  160.9550 C   0  0  0  0  0  0  0  0  0  0  0  0
  153.0608  142.5031  159.4629 C   0  0  1  0  0  0  0  0  0  0  0  0
  153.1737  141.1237  158.7842 C   0  0  0  0  0  0  0  0  0  0  0  0
  151.8863  140.5412  158.6200 O   0  0  0  0  0  0  0  0  0  0  0  0
  144.2510  141.7747  155.8347 H   0  0  0  0  0  0  0  0  0  0  0  0
  147.0401  140.2183  153.2138 H   0  0  0  0  0  0  0  0  0  0  0  0
  148.9139  140.4364  154.9087 H   0  0  0  0  0  0  0  0  0  0  0  0
  148.4655  142.1678  158.1359 H   0  0  0  0  0  0  0  0  0  0  0  0
  149.5698  139.8428  158.3524 H   0  0  0  0  0  0  0  0  0  0  0  0
  149.8223  139.9808  156.6206 H   0  0  0  0  0  0  0  0  0  0  0  0
  151.5273  141.4669  156.8273 H   0  0  0  0  0  0  0  0  0  0  0  0
  150.2211  143.3407  157.7801 H   0  0  0  0  0  0  0  0  0  0  0  0
  150.2579  142.6108  159.3695 H   0  0  0  0  0  0  0  0  0  0  0  0
  152.9504  145.2423  159.1967 H   0  0  0  0  0  0  0  0  0  0  0  0
  151.2686  145.3201  158.7351 H   0  0  0  0  0  0  0  0  0  0  0  0
  151.5934  145.6910  161.2042 H   0  0  0  0  0  0  0  0  0  0  0  0
  150.5835  144.3040  160.9018 H   0  0  0  0  0  0  0  0  0  0  0  0
  153.5556  144.2670  161.6114 H   0  0  0  0  0  0  0  0  0  0  0  0
  152.2402  143.7192  162.6252 H   0  0  0  0  0  0  0  0  0  0  0  0
  153.4164  141.8156  161.4930 H   0  0  0  0  0  0  0  0  0  0  0  0
  151.7265  141.8779  161.0704 H   0  0  0  0  0  0  0  0  0  0  0  0
  154.0445  142.9726  159.4112 H   0  0  0  0  0  0  0  0  0  0  0  0
  153.6619  141.2141  157.8125 H   0  0  0  0  0  0  0  0  0  0  0  0
  153.7932  140.4546  159.3818 H   0  0  0  0  0  0  0  0  0  0  0  0
  152.5385  143.5104  157.7973 H   0  0  0  0  0  0  0  0  0  0  0  0
  144.9034  140.8903  153.7995 H   0  0  0  0  0  0  0  0  0  0  0  0
  1  2  1  0  0  0  0
  2  7  1  0  0  0  0
  2  3  2  0  0  0  0
  3  4  1  0  0  0  0
  3 20  1  0  0  0  0
  4  5  2  0  0  0  0
  4 41  1  0  0  0  0
  5  6  1  0  0  0  0
  5 21  1  0  0  0  0
  6  7  2  0  0  0  0
  6 22  1  0  0  0  0
  7  8  1  0  0  0  0
  8  9  1  0  0  0  0
  8 23  1  0  0  0  0
  9 10  1  0  0  0  0
  9 24  1  0  0  0  0
  9 25  1  0  0  0  0
 10 19  1  0  0  0  0
 10 11  1  0  0  0  0
 10 26  1  0  0  0  0
 11 12  1  0  0  0  0
 11 27  1  0  0  0  0
 11 28  1  0  0  0  0
 12 17  1  0  0  0  0
 12 13  1  0  0  0  0
 12 40  1  0  0  0  0
 13 14  1  0  0  0  0
 13 29  1  0  0  0  0
 13 30  1  0  0  0  0
 14 15  1  0  0  0  0
 14 31  1  0  0  0  0
 14 32  1  0  0  0  0
 15 16  1  0  0  0  0
 15 33  1  0  0  0  0
 15 34  1  0  0  0  0
 16 17  1  0  0  0  0
 16 35  1  0  0  0  0
 16 36  1  0  0  0  0
 17 18  1  0  0  0  0
 17 37  1  0  0  0  0
 18 19  1  0  0  0  0
 18 38  1  0  0  0  0
 18 39  1  0  0  0  0
M  CHG  1   4   1
M  CHG  1  12   1
M  END
> <s_m_source_file>
AV-unprocessed.smi

> <i_m_source_file_index>
2822

> <i_lp_mmshare_version>
43012

> <i_f3d_flags>
0

> <s_epik_input>
Q2xjMVtjSF1uW2NIXVtjSF1jMVtOSF1bQ0gyXVtDQEhdKFtDSDJdMilPW0NIMl1bQ0BASF0oTjIzKVtDSDJdW0NIMl1bQ0gyXVtDSDJdMw==

> <s_epik_cmdline>
J2VwaWtfcHl0aG9uJywgJy1waCcsICc3LjAnLCAnLXRuJywgJzgnLCAnLW1hJywgJzIwMCcsICctbWV0YWxfYmluZGluZycsICctaW1hZScsICc8aW5maWxlLm1hZT4nLCAnLW9tYWUnLCAnPG91dGZpbGUubWFlPic=

> <r_lp_tautomer_probability>
1

> <r_epik_Ionization_Penalty>
0.254999

> <r_epik_Ionization_Penalty_Charging>
0.254956

> <r_epik_Ionization_Penalty_Neutral>
4.33524e-05

> <r_epik_State_Penalty>
0.230978

> <r_epik_Charging_Adjusted_Penalty>
0.485934

> <i_epik_Tot_Q>
2

> <i_epik_Tot_abs_Q>
2

> <r_epik_Metal_State_Penalty>
3.47007

> <b_epik_Metal_Only>
0

> <s_lp_Force_Field>
OPLS_2005

> <r_lp_Energy>
41.3986

> <b_lp_Chiralities_Consistent>
1

> <s_lp_Variant>
AV-unprocessed.smi:2822-4

> <Gold.Version>
5.8.1

> <Gold.Id.Protein>
6NUR|6NUR_protein|mol2

> <Gold.PLP.Fitness>
41.8155

> <Gold.PLP.PLP>
-37.5788

> <Gold.PLP.part.hbond>
-1.0000

> <Gold.PLP.part.metal>
0.0000

> <Gold.PLP.part.buried>
-7.6075

> <Gold.PLP.part.nonpolar>
-30.3719

> <Gold.PLP.part.repulsive>
0.0921

> <Gold.PLP.ligand.clash>
0.0000

> <Gold.PLP.ligand.torsion>
0.7626

> <Gold.PLP.Chemscore.Hbond>
1.9200

> <Gold.PLP.Chemscore.CHOScore>
0.0000

> <Gold.PLP.Chemscore.Metal>
0.0000

> <Gold.Chemscore.Hbonds>
donor molecule, donor type, donor heavy atom, donor atom, acceptor molecule, acceptor atom, score
      L1  H     4    41       P1 10175  2.00

> <Gold.PLP.Chemscore.Internal.Correction>
0.0019

> <Gold.Rescore>
     Score         DG    S(hbond)    S(metal)    S(lipo)     H(rot)  DE(clash)    DE(int)     intcor
     17.94     -18.73       0.92        0.00     113.16       1.20       0.01       0.78       ----

> <Gold.Chemscore.Fitness>
17.9447

> <Gold.Chemscore.DG>
-18.7321

> <Gold.Chemscore.ZeroCoef>
-5.4800

> <Gold.Chemscore.Hbond>
0.9206

> <Gold.Chemscore.Metal>
0.0000

> <Gold.Chemscore.Lipo>
113.1596

> <Gold.Chemscore.Internal_Hbond>
0.0000

> <Gold.Chemscore.DEClash>
0.0059

> <Gold.Chemscore.DEInternal>
0.7814

> <Gold.Chemscore.Rot>
1.1962

> <Gold.Chemscore.Internal.Correction>
   9.000000E+99

> <Gold.Chemscore.Hbonds>
donor molecule, donor type, donor heavy atom, donor atom, acceptor molecule, acceptor atom, score
      L1  H     4    41       P1 10175  0.88

> <Gold.Chemscore.Hbond.Weighted>
-3.0747

> <Gold.Chemscore.Metal.Weighted>
-0.0000

> <Gold.Chemscore.Lipo.Weighted>
-13.2397

> <Gold.Chemscore.Internal_Hbond.Weighted>
0.0000

> <Gold.Chemscore.DEClash.Weighted>
0.0059

> <Gold.Chemscore.DEInternal.Weighted>
0.7814

> <Gold.Chemscore.Rot.Weighted>
3.0623

> <Gold.Chemscore.Internal.Correction.Weighted>
   9.000000E+99

> <Gold.Protein.RotatedTorsions>
[ 6907 6896 6895 6894 ] final -125.69 input  -60.11 | X-H torsion
[ 7974 7965 7964 7962 ] final  -45.08 input  175.53 | X-H torsion
[ 8008 7997 7996 7995 ] final   24.85 input   59.86 | X-H torsion
[ 10167 10162 10161 10158 ] final  110.39 input  -65.29 | X-H torsion
[ 10718 10713 10712 10709 ] final  105.14 input   66.30 | X-H torsion
[ 10763 10752 10751 10750 ] final   39.84 input  -60.55 | X-H torsion
[ 11005 11000 10999 10996 ] final  165.23 input  -57.11 | X-H torsion

> <Gold.Protein.ActiveResidues>
 VAL166  LYS551  ARG553  GLY616  TRP617  ASP618  TYR619  PRO620  LYS621  CYS622 
 ASP623  PHE694  ASN695  SER759  ASP760  ASP761  ALA762  ILE779  LEU786  VAL792 
 PHE793  MET794  SER795  GLU796  ALA797  LYS798  CYS799  TRP800  GLU811  SER814 

> <Gold.Protein.RotatedAtoms>
  150.8893  133.7265  159.2909 H   0  0  0  0  0  0  0  0  0  0  0  0  # atno 6907 bound_to 6896
  151.4821  135.1051  159.9790 H   0  0  0  0  0  0  0  0  0  0  0  0  # atno 6908 bound_to 6896
  152.4810  133.8207  159.7107 H   0  0  0  0  0  0  0  0  0  0  0  0  # atno 6909 bound_to 6896
  145.9856  140.7236  142.9342 H   0  0  0  0  0  0  0  0  0  0  0  0  # atno 7974 bound_to 7965
  155.0026  140.3127  155.4861 H   0  0  0  0  0  0  0  0  0  0  0  0  # atno 8008 bound_to 7997
  156.2922  140.2229  156.5077 H   0  0  0  0  0  0  0  0  0  0  0  0  # atno 8009 bound_to 7997
  154.7605  140.0459  157.0957 H   0  0  0  0  0  0  0  0  0  0  0  0  # atno 8010 bound_to 7997
  139.6692  144.7126  151.1719 H   0  0  0  0  0  0  0  0  0  0  0  0  # atno 10167 bound_to 10162
  157.6716  131.0821  150.5812 H   0  0  0  0  0  0  0  0  0  0  0  0  # atno 10718 bound_to 10713
  152.9954  135.6209  154.2531 H   0  0  0  0  0  0  0  0  0  0  0  0  # atno 10763 bound_to 10752
  154.2269  135.2793  155.2906 H   0  0  0  0  0  0  0  0  0  0  0  0  # atno 10764 bound_to 10752
  154.5482  135.5741  153.6957 H   0  0  0  0  0  0  0  0  0  0  0  0  # atno 10765 bound_to 10752
  140.2540  134.7955  157.3528 H   0  0  0  0  0  0  0  0  0  0  0  0  # atno 11005 bound_to 11000
  144.6874  140.2983  143.7267 LP  0  0  0  0  0  0  0  0  0  0  0  0  # atno 17320 bound_to 7965
  145.7705  139.1855  143.2215 LP  0  0  0  0  0  0  0  0  0  0  0  0  # atno 17321 bound_to 7965
  140.7611  143.5871  150.8835 LP  0  0  0  0  0  0  0  0  0  0  0  0  # atno 17342 bound_to 10162
  139.9535  143.6245  152.3022 LP  0  0  0  0  0  0  0  0  0  0  0  0  # atno 17343 bound_to 10162
  156.6113  130.4381  149.5858 LP  0  0  0  0  0  0  0  0  0  0  0  0  # atno 17370 bound_to 10713
  156.2428  130.6861  151.1572 LP  0  0  0  0  0  0  0  0  0  0  0  0  # atno 17371 bound_to 10713
  140.1530  134.4825  155.7948 LP  0  0  0  0  0  0  0  0  0  0  0  0  # atno 17394 bound_to 11000
  141.2198  133.6870  156.7411 LP  0  0  0  0  0  0  0  0  0  0  0  0  # atno 17395 bound_to 11000

$$$$
