AV-unprocessed.smi:2447|AV-procd|sdf|9650|dock2
  -GOLD-   2272013283D 1   1.00000     0.00000
 Structure written by MMmdl.
 29 30  0  0  0  0  0  0  0  0  2 V2000
  150.3803  138.3124  153.5941 N   0  0  0  0  0  0  0  0  0  0  0  0
  151.3187  137.8016  154.3903 C   0  0  0  0  0  0  0  0  0  0  0  0
  151.4220  136.5767  154.4502 O   0  0  0  0  0  0  0  0  0  0  0  0
  152.0527  138.7363  155.0448 N   0  5  0  0  0  0  0  0  0  0  0  0
  151.5550  139.8716  155.5772 C   0  0  0  0  0  0  0  0  0  0  0  0
  150.5888  140.5334  154.8668 N   0  0  0  0  0  0  0  0  0  0  0  0
  150.3517  141.5599  155.6692 C   0  0  0  0  0  0  0  0  0  0  0  0
  151.0887  141.5550  156.7764 N   0  0  0  0  0  0  0  0  0  0  0  0
  151.1240  142.4915  157.8888 C   0  0  0  0  0  0  0  0  0  0  0  0
  151.5678  143.8967  157.4317 C   0  0  0  0  0  0  0  0  0  0  0  0
  151.5925  144.8841  158.6098 C   0  0  0  0  0  0  0  0  0  0  0  0
  152.4845  144.3671  159.7503 C   0  0  0  0  0  0  0  0  0  0  0  0
  152.0469  142.9668  160.2095 C   0  0  0  0  0  0  0  0  0  0  0  0
  152.0226  141.9778  159.0327 C   0  0  0  0  0  0  0  0  0  0  0  0
  151.8825  140.4598  156.7364 N   0  0  0  0  0  0  0  0  0  0  0  0
  149.7818  137.6970  153.0641 H   0  0  0  0  0  0  0  0  0  0  0  0
  150.2772  139.3142  153.5291 H   0  0  0  0  0  0  0  0  0  0  0  0
  149.6269  142.3280  155.4435 H   0  0  0  0  0  0  0  0  0  0  0  0
  150.1046  142.5687  158.2708 H   0  0  0  0  0  0  0  0  0  0  0  0
  152.5616  143.8487  156.9839 H   0  0  0  0  0  0  0  0  0  0  0  0
  150.8970  144.2660  156.6554 H   0  0  0  0  0  0  0  0  0  0  0  0
  151.9489  145.8571  158.2706 H   0  0  0  0  0  0  0  0  0  0  0  0
  150.5779  145.0379  158.9795 H   0  0  0  0  0  0  0  0  0  0  0  0
  153.5216  144.3325  159.4141 H   0  0  0  0  0  0  0  0  0  0  0  0
  152.4543  145.0611  160.5906 H   0  0  0  0  0  0  0  0  0  0  0  0
  152.7204  142.6026  160.9860 H   0  0  0  0  0  0  0  0  0  0  0  0
  151.0556  143.0225  160.6610 H   0  0  0  0  0  0  0  0  0  0  0  0
  151.6699  141.0048  159.3763 H   0  0  0  0  0  0  0  0  0  0  0  0
  153.0408  141.8270  158.6707 H   0  0  0  0  0  0  0  0  0  0  0  0
  1  2  1  0  0  0  0
  1 16  1  0  0  0  0
  1 17  1  0  0  0  0
  2  3  2  0  0  0  0
  2  4  1  0  0  0  0
  4  5  1  0  0  0  0
  5 15  2  0  0  0  0
  5  6  1  0  0  0  0
  6  7  2  0  0  0  0
  7  8  1  0  0  0  0
  7 18  1  0  0  0  0
  8  9  1  0  0  0  0
  8 15  1  0  0  0  0
  9 14  1  0  0  0  0
  9 10  1  0  0  0  0
  9 19  1  0  0  0  0
 10 11  1  0  0  0  0
 10 20  1  0  0  0  0
 10 21  1  0  0  0  0
 11 12  1  0  0  0  0
 11 22  1  0  0  0  0
 11 23  1  0  0  0  0
 12 13  1  0  0  0  0
 12 24  1  0  0  0  0
 12 25  1  0  0  0  0
 13 14  1  0  0  0  0
 13 26  1  0  0  0  0
 13 27  1  0  0  0  0
 14 28  1  0  0  0  0
 14 29  1  0  0  0  0
M  CHG  1   4  -1
M  END
> <s_m_source_file>
AV-unprocessed.smi

> <i_m_source_file_index>
2447

> <i_lp_mmshare_version>
43012

> <i_f3d_flags>
0

> <s_epik_input>
W05IMl1DKD1PKVtOSF1jMW5bY0hdbihuMSlbQ0hdMltDSDJdW0NIMl1bQ0gyXVtDSDJdW0NIMl0y

> <s_epik_cmdline>
J2VwaWtfcHl0aG9uJywgJy1waCcsICc3LjAnLCAnLXRuJywgJzgnLCAnLW1hJywgJzIwMCcsICctbWV0YWxfYmluZGluZycsICctaW1hZScsICc8aW5maWxlLm1hZT4nLCAnLW9tYWUnLCAnPG91dGZpbGUubWFlPic=

> <r_epik_Ionization_Penalty>
6.34251

> <r_epik_Ionization_Penalty_Charging>
2.59949

> <r_epik_Ionization_Penalty_Neutral>
3.74302

> <r_epik_State_Penalty>
2.59208

> <r_epik_Charging_Adjusted_Penalty>
5.19156

> <i_epik_Tot_Q>
-1

> <i_epik_Tot_abs_Q>
1

> <r_epik_Metal_State_Penalty>
0.11953

> <b_epik_Metal_Only>
1

> <s_lp_Force_Field>
OPLS_2005

> <r_lp_Energy>
9.7345

> <b_lp_Chiralities_Consistent>
1

> <s_lp_Variant>
AV-unprocessed.smi:2447-2

> <Gold.Version>
5.8.1

> <Gold.Id.Protein>
6NUR|6NUR_protein|mol2

> <Gold.PLP.Fitness>
46.5452

> <Gold.PLP.PLP>
-36.1504

> <Gold.PLP.part.hbond>
-4.1250

> <Gold.PLP.part.metal>
0.0000

> <Gold.PLP.part.buried>
-3.7872

> <Gold.PLP.part.nonpolar>
-27.3510

> <Gold.PLP.part.repulsive>
0.6912

> <Gold.PLP.ligand.clash>
0.0000

> <Gold.PLP.ligand.torsion>
0.6635

> <Gold.PLP.Chemscore.Hbond>
2.9000

> <Gold.PLP.Chemscore.CHOScore>
1.0000

> <Gold.PLP.Chemscore.Metal>
0.0000

> <Gold.Chemscore.Hbonds>
donor molecule, donor type, donor heavy atom, donor atom, acceptor molecule, acceptor atom, score
      L1  H     1    16       P1  7948  1.00
      P1  H  7989  7998       L1     6  0.75
      P1  H 10752 10764       L1     3  1.00
      L1  C     7    18       P1  8028  1.00

> <Gold.PLP.Chemscore.Internal.Correction>
0.0217

> <Gold.Rescore>
     Score         DG    S(hbond)    S(metal)    S(lipo)     H(rot)  DE(clash)    DE(int)     intcor
     14.53     -16.89       1.88        0.00      65.84       1.00       0.08       2.28       ----

> <Gold.Chemscore.Fitness>
14.5297

> <Gold.Chemscore.DG>
-16.8893

> <Gold.Chemscore.ZeroCoef>
-5.4800

> <Gold.Chemscore.Hbond>
1.8762

> <Gold.Chemscore.Metal>
0.0000

> <Gold.Chemscore.Lipo>
65.8369

> <Gold.Chemscore.Internal_Hbond>
0.0000

> <Gold.Chemscore.DEClash>
0.0842

> <Gold.Chemscore.DEInternal>
2.2754

> <Gold.Chemscore.Rot>
1.0000

> <Gold.Chemscore.Internal.Correction>
   9.000000E+99

> <Gold.Chemscore.Hbonds>
donor molecule, donor type, donor heavy atom, donor atom, acceptor molecule, acceptor atom, score
      L1  H     1    16       P1  7948  0.52
      P1  H  7989  7998       L1     6  0.08
      P1  H 10752 10764       L1     3  1.00

> <Gold.Chemscore.Hbond.Weighted>
-6.2664

> <Gold.Chemscore.Metal.Weighted>
-0.0000

> <Gold.Chemscore.Lipo.Weighted>
-7.7029

> <Gold.Chemscore.Internal_Hbond.Weighted>
0.0000

> <Gold.Chemscore.DEClash.Weighted>
0.0842

> <Gold.Chemscore.DEInternal.Weighted>
2.2754

> <Gold.Chemscore.Rot.Weighted>
2.5600

> <Gold.Chemscore.Internal.Correction.Weighted>
   9.000000E+99

> <Gold.Protein.RotatedTorsions>
[ 6907 6896 6895 6894 ] final  134.58 input  -60.11 | X-H torsion
[ 7974 7965 7964 7962 ] final   71.66 input  175.53 | X-H torsion
[ 8008 7997 7996 7995 ] final -132.72 input   59.86 | X-H torsion
[ 10167 10162 10161 10158 ] final  -54.59 input  -65.29 | X-H torsion
[ 10718 10713 10712 10709 ] final -172.54 input   66.30 | X-H torsion
[ 10763 10752 10751 10750 ] final  -62.44 input  -60.55 | X-H torsion
[ 11005 11000 10999 10996 ] final   89.39 input  -57.11 | X-H torsion

> <Gold.Protein.ActiveResidues>
 VAL166  LYS551  ARG553  GLY616  TRP617  ASP618  TYR619  PRO620  LYS621  CYS622 
 ASP623  PHE694  ASN695  SER759  ASP760  ASP761  ALA762  ILE779  LEU786  VAL792 
 PHE793  MET794  SER795  GLU796  ALA797  LYS798  CYS799  TRP800  GLU811  SER814 

> <Gold.Protein.RotatedAtoms>
  152.3097  133.5740  159.5672 H   0  0  0  0  0  0  0  0  0  0  0  0  # atno 6907 bound_to 6896
  150.7317  134.0170  159.3697 H   0  0  0  0  0  0  0  0  0  0  0  0  # atno 6908 bound_to 6896
  151.8064  135.0694  160.0458 H   0  0  0  0  0  0  0  0  0  0  0  0  # atno 6909 bound_to 6896
  145.7631  139.2809  143.1365 H   0  0  0  0  0  0  0  0  0  0  0  0  # atno 7974 bound_to 7965
  155.3336  140.0468  157.3043 H   0  0  0  0  0  0  0  0  0  0  0  0  # atno 8008 bound_to 7997
  154.5315  140.2258  155.8762 H   0  0  0  0  0  0  0  0  0  0  0  0  # atno 8009 bound_to 7997
  156.1793  140.3077  155.9124 H   0  0  0  0  0  0  0  0  0  0  0  0  # atno 8010 bound_to 7997
  140.6422  143.2514  151.4959 H   0  0  0  0  0  0  0  0  0  0  0  0  # atno 10167 bound_to 10162
  156.7572  130.9400  151.3117 H   0  0  0  0  0  0  0  0  0  0  0  0  # atno 10718 bound_to 10713
  154.2998  135.6237  153.5420 H   0  0  0  0  0  0  0  0  0  0  0  0  # atno 10763 bound_to 10752
  152.9842  135.5676  154.5296 H   0  0  0  0  0  0  0  0  0  0  0  0  # atno 10764 bound_to 10752
  154.4924  135.2868  155.1462 H   0  0  0  0  0  0  0  0  0  0  0  0  # atno 10765 bound_to 10752
  139.8876  134.8549  156.3136 H   0  0  0  0  0  0  0  0  0  0  0  0  # atno 11005 bound_to 11000
  146.0244  140.8317  142.9907 LP  0  0  0  0  0  0  0  0  0  0  0  0  # atno 17320 bound_to 7965
  144.6826  140.2677  143.7310 LP  0  0  0  0  0  0  0  0  0  0  0  0  # atno 17321 bound_to 7965
  139.5631  144.2108  152.1723 LP  0  0  0  0  0  0  0  0  0  0  0  0  # atno 17342 bound_to 10162
  140.1381  144.5227  150.6760 LP  0  0  0  0  0  0  0  0  0  0  0  0  # atno 17343 bound_to 10162
  157.6751  130.9087  150.0131 LP  0  0  0  0  0  0  0  0  0  0  0  0  # atno 17370 bound_to 10713
  156.1363  130.3642  149.9652 LP  0  0  0  0  0  0  0  0  0  0  0  0  # atno 17371 bound_to 10713
  140.9834  133.7253  156.0705 LP  0  0  0  0  0  0  0  0  0  0  0  0  # atno 17394 bound_to 11000
  140.7720  134.3822  157.5505 LP  0  0  0  0  0  0  0  0  0  0  0  0  # atno 17395 bound_to 11000

$$$$
