AV-unprocessed.smi:240|AV-procd|sdf|1825|dock10
  -GOLD-   2262020423D 1   1.00000     0.00000
 Structure written by MMmdl.
 55 59  0  0  0  0  0  0  0  0  1 V2000
  151.0332  138.1191  152.7767 O   0  0  0  0  0  0  0  0  0  0  0  0
  150.6342  137.9228  154.1180 C   0  0  1  0  0  0  0  0  0  0  0  0
  151.5783  138.5719  155.1278 C   0  0  0  0  0  0  0  0  0  0  0  0
  150.7583  138.5793  156.4164 C   0  0  0  0  0  0  0  0  0  0  0  0
  149.3037  138.7976  155.9765 C   0  0  0  0  0  0  0  0  0  0  0  0
  149.2239  138.4448  154.4721 C   0  0  1  0  0  0  0  0  0  0  0  0
  148.6597  139.6022  153.5809 C   0  0  2  0  0  0  0  0  0  0  0  0
  149.5343  140.8849  153.6007 C   0  0  0  0  0  0  0  0  0  0  0  0
  148.9622  141.8941  152.7767 O   0  0  0  0  0  0  0  0  0  0  0  0
  147.6732  142.2809  153.2314 C   0  0  0  0  0  0  0  0  0  0  0  0
  146.7385  141.0682  153.1481 C   0  0  0  0  0  0  0  0  0  0  0  0
  147.2762  139.9596  153.9292 N   0  0  0  0  0  0  0  0  0  0  0  0
  146.3928  138.9377  153.9907 C   0  0  0  0  0  0  0  0  0  0  0  0
  145.8571  138.5690  155.1844 N   0  0  0  0  0  0  0  0  0  0  0  0
  144.9691  137.5714  155.2345 C   0  0  0  0  0  0  0  0  0  0  0  0
  144.4875  136.8301  154.2334 N   0  0  0  0  0  0  0  0  0  0  0  0
  145.0310  137.1975  153.0369 C   0  0  0  0  0  0  0  0  0  0  0  0
  145.9846  138.2319  152.8298 C   0  0  0  0  0  0  0  0  0  0  0  0
  146.3021  138.3281  151.4815 N   0  0  0  0  0  0  0  0  0  0  0  0
  145.5733  137.4021  150.9203 C   0  0  0  0  0  0  0  0  0  0  0  0
  144.7841  136.6706  151.7807 N   0  0  0  0  0  0  0  0  0  0  0  0
  143.8732  135.5918  151.4288 C   0  0  0  0  0  0  0  0  0  0  0  0
  144.2402  134.2289  152.0657 C   0  0  1  0  0  0  0  0  0  0  0  0
  144.0087  134.2927  153.4615 O   0  0  0  0  0  0  0  0  0  0  0  0
  143.4238  133.0773  151.4761 C   0  0  0  0  0  0  0  0  0  0  0  0
  144.4235  132.3545  150.5824 C   0  0  0  0  0  0  0  0  0  0  0  0
  145.6280  132.4669  151.3180 O   0  0  0  0  0  0  0  0  0  0  0  0
  145.6995  133.7991  151.8072 C   0  0  0  0  0  0  0  0  0  0  0  0
  150.9521  137.2982  152.3153 H   0  0  0  0  0  0  0  0  0  0  0  0
  150.6513  136.8464  154.2974 H   0  0  0  0  0  0  0  0  0  0  0  0
  152.5175  138.0281  155.2334 H   0  0  0  0  0  0  0  0  0  0  0  0
  151.8183  139.5942  154.8352 H   0  0  0  0  0  0  0  0  0  0  0  0
  150.8477  137.6100  156.9084 H   0  0  0  0  0  0  0  0  0  0  0  0
  151.0989  139.3379  157.1213 H   0  0  0  0  0  0  0  0  0  0  0  0
  148.6273  138.1741  156.5623 H   0  0  0  0  0  0  0  0  0  0  0  0
  149.0064  139.8288  156.1650 H   0  0  0  0  0  0  0  0  0  0  0  0
  148.5619  137.5857  154.3592 H   0  0  0  0  0  0  0  0  0  0  0  0
  148.6392  139.2456  152.5499 H   0  0  0  0  0  0  0  0  0  0  0  0
  149.6614  141.2755  154.6105 H   0  0  0  0  0  0  0  0  0  0  0  0
  150.5325  140.6840  153.2161 H   0  0  0  0  0  0  0  0  0  0  0  0
  147.7276  142.6665  154.2510 H   0  0  0  0  0  0  0  0  0  0  0  0
  147.3002  143.0886  152.6016 H   0  0  0  0  0  0  0  0  0  0  0  0
  145.7487  141.3394  153.5181 H   0  0  0  0  0  0  0  0  0  0  0  0
  146.6223  140.7642  152.1066 H   0  0  0  0  0  0  0  0  0  0  0  0
  144.5887  137.3340  156.2169 H   0  0  0  0  0  0  0  0  0  0  0  0
  145.5914  137.2290  149.8541 H   0  0  0  0  0  0  0  0  0  0  0  0
  142.8662  135.8876  151.7265 H   0  0  0  0  0  0  0  0  0  0  0  0
  143.8538  135.5041  150.3416 H   0  0  0  0  0  0  0  0  0  0  0  0
  143.7196  133.4432  153.7581 H   0  0  0  0  0  0  0  0  0  0  0  0
  143.0935  132.3918  152.2586 H   0  0  0  0  0  0  0  0  0  0  0  0
  142.5371  133.4037  150.9317 H   0  0  0  0  0  0  0  0  0  0  0  0
  144.1552  131.3134  150.4020 H   0  0  0  0  0  0  0  0  0  0  0  0
  144.5286  132.8590  149.6204 H   0  0  0  0  0  0  0  0  0  0  0  0
  146.1589  134.4080  151.0286 H   0  0  0  0  0  0  0  0  0  0  0  0
  146.3361  133.8607  152.6907 H   0  0  0  0  0  0  0  0  0  0  0  0
  1  2  1  0  0  0  0
  1 29  1  0  0  0  0
  2  6  1  0  0  0  0
  2  3  1  0  0  0  0
  2 30  1  0  0  0  0
  3  4  1  0  0  0  0
  3 31  1  0  0  0  0
  3 32  1  0  0  0  0
  4  5  1  0  0  0  0
  4 33  1  0  0  0  0
  4 34  1  0  0  0  0
  5  6  1  0  0  0  0
  5 35  1  0  0  0  0
  5 36  1  0  0  0  0
  6  7  1  0  0  0  0
  6 37  1  0  0  0  0
  7 12  1  0  0  0  0
  7  8  1  0  0  0  0
  7 38  1  0  0  0  0
  8  9  1  0  0  0  0
  8 39  1  0  0  0  0
  8 40  1  0  0  0  0
  9 10  1  0  0  0  0
 10 11  1  0  0  0  0
 10 41  1  0  0  0  0
 10 42  1  0  0  0  0
 11 12  1  0  0  0  0
 11 43  1  0  0  0  0
 11 44  1  0  0  0  0
 12 13  1  0  0  0  0
 13 18  1  0  0  0  0
 13 14  2  0  0  0  0
 14 15  1  0  0  0  0
 15 16  2  0  0  0  0
 15 45  1  0  0  0  0
 16 17  1  0  0  0  0
 17 21  1  0  0  0  0
 17 18  2  0  0  0  0
 18 19  1  0  0  0  0
 19 20  2  0  0  0  0
 20 21  1  0  0  0  0
 20 46  1  0  0  0  0
 21 22  1  0  0  0  0
 22 23  1  0  0  0  0
 22 47  1  0  0  0  0
 22 48  1  0  0  0  0
 23 28  1  0  0  0  0
 23 24  1  0  0  0  0
 23 25  1  0  0  0  0
 24 49  1  0  0  0  0
 25 26  1  0  0  0  0
 25 50  1  0  0  0  0
 25 51  1  0  0  0  0
 26 27  1  0  0  0  0
 26 52  1  0  0  0  0
 26 53  1  0  0  0  0
 27 28  1  0  0  0  0
 28 54  1  0  0  0  0
 28 55  1  0  0  0  0
M  END
> <s_m_source_file>
AV-unprocessed.smi

> <i_m_source_file_index>
240

> <i_lp_mmshare_version>
43012

> <i_f3d_flags>
0

> <s_epik_input>
W09IXVtDQEBIXTFbQ0gyXVtDSDJdW0NIMl1bQ0BIXTFbQ0BASF0yW0NIMl1PW0NIMl1bQ0gyXU4yYyhuW2NIXW4zKWMoYzM0KW5bY0hdbjRbQ0gyXVtDQEBdNShbT0hdKVtDSDJdW0NIMl1PW0NIMl01

> <s_epik_cmdline>
J2VwaWtfcHl0aG9uJywgJy1waCcsICc3LjAnLCAnLXRuJywgJzgnLCAnLW1hJywgJzIwMCcsICctbWV0YWxfYmluZGluZycsICctaW1hZScsICc8aW5maWxlLm1hZT4nLCAnLW9tYWUnLCAnPG91dGZpbGUubWFlPic=

> <r_lp_tautomer_probability>
1

> <r_epik_Ionization_Penalty>
0.000130618

> <r_epik_Ionization_Penalty_Charging>
0

> <r_epik_Ionization_Penalty_Neutral>
0.000130618

> <r_epik_State_Penalty>
-0

> <r_epik_Charging_Adjusted_Penalty>
0

> <i_epik_Tot_Q>
0

> <i_epik_Tot_abs_Q>
0

> <r_epik_Metal_State_Penalty>
-0

> <b_epik_Metal_Only>
0

> <s_lp_Force_Field>
OPLS_2005

> <r_lp_Energy>
64.9026

> <b_lp_Chiralities_Consistent>
1

> <s_lp_Variant>
AV-unprocessed.smi:240-2

> <Gold.Version>
5.8.1

> <Gold.Id.Protein>
6NUR|6NUR_protein|mol2

> <Gold.PLP.Fitness>
43.6168

> <Gold.PLP.PLP>
-34.9074

> <Gold.PLP.part.hbond>
-4.4624

> <Gold.PLP.part.metal>
0.0000

> <Gold.PLP.part.buried>
-5.2845

> <Gold.PLP.part.nonpolar>
-27.6115

> <Gold.PLP.part.repulsive>
1.3415

> <Gold.PLP.ligand.clash>
0.0000

> <Gold.PLP.ligand.torsion>
0.1587

> <Gold.PLP.Chemscore.Hbond>
2.7120

> <Gold.PLP.Chemscore.CHOScore>
0.2372

> <Gold.PLP.Chemscore.Metal>
0.0000

> <Gold.Chemscore.Hbonds>
donor molecule, donor type, donor heavy atom, donor atom, acceptor molecule, acceptor atom, score
      L1  H     1    29       P1  7949  0.85
      L1  H    24    49       P1 10957  0.50
      L1  C    20    46       P1 10171  0.12

> <Gold.PLP.Chemscore.Internal.Correction>
0.1793

> <Gold.Rescore>
     Score         DG    S(hbond)    S(metal)    S(lipo)     H(rot)  DE(clash)    DE(int)     intcor
     11.91     -14.65       2.30        0.00      78.32       3.00       2.47       0.28       ----

> <Gold.Chemscore.Fitness>
11.9082

> <Gold.Chemscore.DG>
-14.6518

> <Gold.Chemscore.ZeroCoef>
-5.4800

> <Gold.Chemscore.Hbond>
2.3049

> <Gold.Chemscore.Metal>
0.0000

> <Gold.Chemscore.Lipo>
78.3178

> <Gold.Chemscore.Internal_Hbond>
0.0000

> <Gold.Chemscore.DEClash>
2.4673

> <Gold.Chemscore.DEInternal>
0.2763

> <Gold.Chemscore.Rot>
3.0039

> <Gold.Chemscore.Internal.Correction>
   9.000000E+99

> <Gold.Chemscore.Hbonds>
donor molecule, donor type, donor heavy atom, donor atom, acceptor molecule, acceptor atom, score
      L1  H     1    29       P1  7949  0.14
      L1  H    24    49       P1 10957  0.50
      P1  H  8011  8017       L1     9  0.01

> <Gold.Chemscore.Hbond.Weighted>
-7.6985

> <Gold.Chemscore.Metal.Weighted>
-0.0000

> <Gold.Chemscore.Lipo.Weighted>
-9.1632

> <Gold.Chemscore.Internal_Hbond.Weighted>
0.0000

> <Gold.Chemscore.DEClash.Weighted>
2.4673

> <Gold.Chemscore.DEInternal.Weighted>
0.2763

> <Gold.Chemscore.Rot.Weighted>
7.6899

> <Gold.Chemscore.Internal.Correction.Weighted>
   9.000000E+99

> <Gold.Protein.RotatedTorsions>
[ 6907 6896 6895 6894 ] final -101.17 input  -60.11 | X-H torsion
[ 7974 7965 7964 7962 ] final  108.77 input  175.53 | X-H torsion
[ 8008 7997 7996 7995 ] final   96.16 input   59.86 | X-H torsion
[ 10167 10162 10161 10158 ] final   40.48 input  -65.29 | X-H torsion
[ 10718 10713 10712 10709 ] final  -95.88 input   66.30 | X-H torsion
[ 10763 10752 10751 10750 ] final   52.55 input  -60.55 | X-H torsion
[ 11005 11000 10999 10996 ] final  139.99 input  -57.11 | X-H torsion

> <Gold.Protein.ActiveResidues>
 VAL166  LYS551  ARG553  GLY616  TRP617  ASP618  TYR619  PRO620  LYS621  CYS622 
 ASP623  PHE694  ASN695  SER759  ASP760  ASP761  ALA762  ILE779  LEU786  VAL792 
 PHE793  MET794  SER795  GLU796  ALA797  LYS798  CYS799  TRP800  GLU811  SER814 

> <Gold.Protein.RotatedAtoms>
  150.7144  134.0774  159.3885 H   0  0  0  0  0  0  0  0  0  0  0  0  # atno 6907 bound_to 6896
  151.8758  135.0470  160.0493 H   0  0  0  0  0  0  0  0  0  0  0  0  # atno 6908 bound_to 6896
  152.2607  133.5259  159.5417 H   0  0  0  0  0  0  0  0  0  0  0  0  # atno 6909 bound_to 6896
  145.2764  139.2648  143.3939 H   0  0  0  0  0  0  0  0  0  0  0  0  # atno 7974 bound_to 7965
  156.0767  140.3276  155.7642 H   0  0  0  0  0  0  0  0  0  0  0  0  # atno 8008 bound_to 7997
  155.5219  140.0586  157.2922 H   0  0  0  0  0  0  0  0  0  0  0  0  # atno 8009 bound_to 7997
  154.4559  140.1942  156.0398 H   0  0  0  0  0  0  0  0  0  0  0  0  # atno 8010 bound_to 7997
  140.3737  144.2071  150.6132 H   0  0  0  0  0  0  0  0  0  0  0  0  # atno 10167 bound_to 10162
  156.0051  130.5128  150.6143 H   0  0  0  0  0  0  0  0  0  0  0  0  # atno 10718 bound_to 10713
  152.9789  135.5808  154.4597 H   0  0  0  0  0  0  0  0  0  0  0  0  # atno 10763 bound_to 10752
  154.4175  135.2771  155.1999 H   0  0  0  0  0  0  0  0  0  0  0  0  # atno 10764 bound_to 10752
  154.3762  135.6157  153.5820 H   0  0  0  0  0  0  0  0  0  0  0  0  # atno 10765 bound_to 10752
  140.0294  134.9359  157.0633 H   0  0  0  0  0  0  0  0  0  0  0  0  # atno 11005 bound_to 11000
  146.3230  140.3220  142.8634 LP  0  0  0  0  0  0  0  0  0  0  0  0  # atno 17320 bound_to 7965
  144.9291  140.7954  143.5701 LP  0  0  0  0  0  0  0  0  0  0  0  0  # atno 17321 bound_to 7965
  140.5007  143.2319  151.8683 LP  0  0  0  0  0  0  0  0  0  0  0  0  # atno 17342 bound_to 10162
  139.4801  144.5062  151.8994 LP  0  0  0  0  0  0  0  0  0  0  0  0  # atno 17343 bound_to 10162
  157.3970  131.0804  151.1343 LP  0  0  0  0  0  0  0  0  0  0  0  0  # atno 17370 bound_to 10713
  157.2017  130.6397  149.5741 LP  0  0  0  0  0  0  0  0  0  0  0  0  # atno 17371 bound_to 10713
  140.4251  134.1840  155.7166 LP  0  0  0  0  0  0  0  0  0  0  0  0  # atno 17394 bound_to 11000
  141.1822  133.8389  157.1216 LP  0  0  0  0  0  0  0  0  0  0  0  0  # atno 17395 bound_to 11000

$$$$
