AV-unprocessed.smi:2355|AV-procd|sdf|9390|dock5
  -GOLD-   2272013 23D 1   1.00000     0.00000
 Structure written by MMmdl.
 49 50  0  0  0  0  0  0  0  0  2 V2000
  151.9914  145.9905  160.4329 C   0  0  0  0  0  0  0  0  0  0  0  0
  151.9971  144.6121  159.8063 C   0  0  0  0  0  0  0  0  0  0  0  0
  152.7943  143.5859  160.3472 C   0  0  0  0  0  0  0  0  0  0  0  0
  152.7659  142.3230  159.7245 C   0  0  0  0  0  0  0  0  0  0  0  0
  153.5977  141.1749  160.2559 C   0  0  0  0  0  0  0  0  0  0  0  0
  152.0106  142.0545  158.6381 N   0  0  0  0  0  0  0  0  0  0  0  0
  151.2368  143.0348  158.1098 C   0  0  0  0  0  0  0  0  0  0  0  0
  150.4178  142.8559  156.9636 N   0  0  0  0  0  0  0  0  0  0  0  0
  149.9973  141.7000  156.4216 C   0  0  0  0  0  0  0  0  0  0  0  0
  150.1780  140.5817  156.9033 O   0  0  0  0  0  0  0  0  0  0  0  0
  149.3536  141.9100  155.2631 N   0  0  0  0  0  0  0  0  0  0  0  0
  148.7578  140.8826  154.4041 C   0  0  1  0  0  0  0  0  0  0  0  0
  149.7384  139.6998  154.3353 C   0  0  0  0  0  0  0  0  0  0  0  0
  147.3446  140.4743  154.9126 C   0  0  2  0  0  0  0  0  0  0  0  0
  146.6932  139.3571  154.0689 C   0  0  0  0  0  0  0  0  0  0  0  0
  146.4547  141.6644  155.0637 N   0  3  0  0  0  0  0  0  0  0  0  0
  146.1852  142.4323  153.8218 C   0  0  0  0  0  0  0  0  0  0  0  0
  145.4383  143.7304  154.1675 C   0  0  0  0  0  0  0  0  0  0  0  0
  144.2277  143.4104  154.8437 O   0  0  0  0  0  0  0  0  0  0  0  0
  144.4613  142.7256  156.0694 C   0  0  0  0  0  0  0  0  0  0  0  0
  145.1947  141.4002  155.7976 C   0  0  0  0  0  0  0  0  0  0  0  0
  151.2107  144.3314  158.6702 C   0  0  0  0  0  0  0  0  0  0  0  0
  151.9781  145.9160  161.5207 H   0  0  0  0  0  0  0  0  0  0  0  0
  151.1154  146.5605  160.1218 H   0  0  0  0  0  0  0  0  0  0  0  0
  152.8837  146.5419  160.1365 H   0  0  0  0  0  0  0  0  0  0  0  0
  153.4108  143.7638  161.2163 H   0  0  0  0  0  0  0  0  0  0  0  0
  154.3731  141.5325  160.9339 H   0  0  0  0  0  0  0  0  0  0  0  0
  154.0834  140.6415  159.4383 H   0  0  0  0  0  0  0  0  0  0  0  0
  152.9654  140.4717  160.7985 H   0  0  0  0  0  0  0  0  0  0  0  0
  150.1501  143.7038  156.4858 H   0  0  0  0  0  0  0  0  0  0  0  0
  149.2525  142.8653  154.9517 H   0  0  0  0  0  0  0  0  0  0  0  0
  148.6676  141.2773  153.3907 H   0  0  0  0  0  0  0  0  0  0  0  0
  149.4222  138.9547  153.6057 H   0  0  0  0  0  0  0  0  0  0  0  0
  149.8340  139.2040  155.3019 H   0  0  0  0  0  0  0  0  0  0  0  0
  150.7324  140.0333  154.0345 H   0  0  0  0  0  0  0  0  0  0  0  0
  147.4928  140.0671  155.9140 H   0  0  0  0  0  0  0  0  0  0  0  0
  147.2551  138.4263  154.1400 H   0  0  0  0  0  0  0  0  0  0  0  0
  146.6404  139.6256  153.0136 H   0  0  0  0  0  0  0  0  0  0  0  0
  145.6817  139.1365  154.4097 H   0  0  0  0  0  0  0  0  0  0  0  0
  147.1174  142.6686  153.3093 H   0  0  0  0  0  0  0  0  0  0  0  0
  145.5805  141.8412  153.1330 H   0  0  0  0  0  0  0  0  0  0  0  0
  146.0555  144.3847  154.7857 H   0  0  0  0  0  0  0  0  0  0  0  0
  145.2011  144.2815  153.2575 H   0  0  0  0  0  0  0  0  0  0  0  0
  145.0398  143.3576  156.7453 H   0  0  0  0  0  0  0  0  0  0  0  0
  143.5044  142.5333  156.5549 H   0  0  0  0  0  0  0  0  0  0  0  0
  144.5583  140.7307  155.2178 H   0  0  0  0  0  0  0  0  0  0  0  0
  145.4082  140.9036  156.7447 H   0  0  0  0  0  0  0  0  0  0  0  0
  150.5928  145.1040  158.2352 H   0  0  0  0  0  0  0  0  0  0  0  0
  146.9733  142.2936  155.6602 H   0  0  0  0  0  0  0  0  0  0  0  0
  1  2  1  0  0  0  0
  1 23  1  0  0  0  0
  1 24  1  0  0  0  0
  1 25  1  0  0  0  0
  2 22  1  0  0  0  0
  2  3  2  0  0  0  0
  3  4  1  0  0  0  0
  3 26  1  0  0  0  0
  4  5  1  0  0  0  0
  4  6  2  0  0  0  0
  5 27  1  0  0  0  0
  5 28  1  0  0  0  0
  5 29  1  0  0  0  0
  6  7  1  0  0  0  0
  7  8  1  0  0  0  0
  7 22  2  0  0  0  0
  8  9  1  0  0  0  0
  8 30  1  0  0  0  0
  9 10  2  0  0  0  0
  9 11  1  0  0  0  0
 11 12  1  0  0  0  0
 11 31  1  0  0  0  0
 12 13  1  0  0  0  0
 12 14  1  0  0  0  0
 12 32  1  0  0  0  0
 13 33  1  0  0  0  0
 13 34  1  0  0  0  0
 13 35  1  0  0  0  0
 14 15  1  0  0  0  0
 14 16  1  0  0  0  0
 14 36  1  0  0  0  0
 15 37  1  0  0  0  0
 15 38  1  0  0  0  0
 15 39  1  0  0  0  0
 16 21  1  0  0  0  0
 16 17  1  0  0  0  0
 16 49  1  0  0  0  0
 17 18  1  0  0  0  0
 17 40  1  0  0  0  0
 17 41  1  0  0  0  0
 18 19  1  0  0  0  0
 18 42  1  0  0  0  0
 18 43  1  0  0  0  0
 19 20  1  0  0  0  0
 20 21  1  0  0  0  0
 20 44  1  0  0  0  0
 20 45  1  0  0  0  0
 21 46  1  0  0  0  0
 21 47  1  0  0  0  0
 22 48  1  0  0  0  0
M  CHG  1  16   1
M  END
> <s_m_source_file>
AV-unprocessed.smi

> <i_m_source_file_index>
2355

> <i_lp_mmshare_version>
43012

> <i_f3d_flags>
0

> <s_epik_input>
W0NIM11jMVtjSF1jKFtDSDNdKW5jKFtjSF0xKVtOSF1DKD1PKVtOSF1bQ0BIXShbQ0gzXSlbQ0BIXShbQ0gzXSlOMltDSDJdW0NIMl1PW0NIMl1bQ0gyXTI=

> <s_epik_cmdline>
J2VwaWtfcHl0aG9uJywgJy1waCcsICc3LjAnLCAnLXRuJywgJzgnLCAnLW1hJywgJzIwMCcsICctbWV0YWxfYmluZGluZycsICctaW1hZScsICc8aW5maWxlLm1hZT4nLCAnLW9tYWUnLCAnPG91dGZpbGUubWFlPic=

> <r_epik_Ionization_Penalty>
0.602711

> <r_epik_Ionization_Penalty_Charging>
0.602531

> <r_epik_Ionization_Penalty_Neutral>
0.000180055

> <r_epik_State_Penalty>
0.617039

> <r_epik_Charging_Adjusted_Penalty>
1.21957

> <i_epik_Tot_Q>
1

> <i_epik_Tot_abs_Q>
1

> <r_epik_Metal_State_Penalty>
0.617075

> <b_epik_Metal_Only>
0

> <s_lp_Force_Field>
OPLS_2005

> <r_lp_Energy>
26.6532

> <b_lp_Chiralities_Consistent>
1

> <s_lp_Variant>
AV-unprocessed.smi:2355-6

> <Gold.Version>
5.8.1

> <Gold.Id.Protein>
6NUR|6NUR_protein|mol2

> <Gold.PLP.Fitness>
49.2731

> <Gold.PLP.PLP>
-44.5407

> <Gold.PLP.part.hbond>
-2.0000

> <Gold.PLP.part.metal>
0.0000

> <Gold.PLP.part.buried>
-7.7410

> <Gold.PLP.part.nonpolar>
-36.9118

> <Gold.PLP.part.repulsive>
0.4079

> <Gold.PLP.ligand.clash>
0.0000

> <Gold.PLP.ligand.torsion>
0.4175

> <Gold.PLP.Chemscore.Hbond>
1.8080

> <Gold.PLP.Chemscore.CHOScore>
0.0000

> <Gold.PLP.Chemscore.Metal>
0.0000

> <Gold.Chemscore.Hbonds>
donor molecule, donor type, donor heavy atom, donor atom, acceptor molecule, acceptor atom, score
      L1  H     8    30       P1  8028  1.00
      L1  H    11    31       P1  8028  0.85

> <Gold.PLP.Chemscore.Internal.Correction>
0.1433

> <Gold.Rescore>
     Score         DG    S(hbond)    S(metal)    S(lipo)     H(rot)  DE(clash)    DE(int)     intcor
     17.56     -20.89       1.86        0.00     110.31       1.45       0.06       3.27       ----

> <Gold.Chemscore.Fitness>
17.5585

> <Gold.Chemscore.DG>
-20.8860

> <Gold.Chemscore.ZeroCoef>
-5.4800

> <Gold.Chemscore.Hbond>
1.8570

> <Gold.Chemscore.Metal>
0.0000

> <Gold.Chemscore.Lipo>
110.3075

> <Gold.Chemscore.Internal_Hbond>
0.0000

> <Gold.Chemscore.DEClash>
0.0559

> <Gold.Chemscore.DEInternal>
3.2716

> <Gold.Chemscore.Rot>
1.4462

> <Gold.Chemscore.Internal.Correction>
   9.000000E+99

> <Gold.Chemscore.Hbonds>
donor molecule, donor type, donor heavy atom, donor atom, acceptor molecule, acceptor atom, score
      L1  H     8    30       P1  8028  0.95
      L1  H    11    31       P1  8028  0.79

> <Gold.Chemscore.Hbond.Weighted>
-6.2023

> <Gold.Chemscore.Metal.Weighted>
-0.0000

> <Gold.Chemscore.Lipo.Weighted>
-12.9060

> <Gold.Chemscore.Internal_Hbond.Weighted>
0.0000

> <Gold.Chemscore.DEClash.Weighted>
0.0559

> <Gold.Chemscore.DEInternal.Weighted>
3.2716

> <Gold.Chemscore.Rot.Weighted>
3.7023

> <Gold.Chemscore.Internal.Correction.Weighted>
   9.000000E+99

> <Gold.Protein.RotatedTorsions>
[ 6907 6896 6895 6894 ] final  116.62 input  -60.11 | X-H torsion
[ 7974 7965 7964 7962 ] final  173.18 input  175.53 | X-H torsion
[ 8008 7997 7996 7995 ] final   40.88 input   59.86 | X-H torsion
[ 10167 10162 10161 10158 ] final -112.20 input  -65.29 | X-H torsion
[ 10718 10713 10712 10709 ] final  146.08 input   66.30 | X-H torsion
[ 10763 10752 10751 10750 ] final   57.89 input  -60.55 | X-H torsion
[ 11005 11000 10999 10996 ] final   -3.23 input  -57.11 | X-H torsion

> <Gold.Protein.ActiveResidues>
 VAL166  LYS551  ARG553  GLY616  TRP617  ASP618  TYR619  PRO620  LYS621  CYS622 
 ASP623  PHE694  ASN695  SER759  ASP760  ASP761  ALA762  ILE779  LEU786  VAL792 
 PHE793  MET794  SER795  GLU796  ALA797  LYS798  CYS799  TRP800  GLU811  SER814 

> <Gold.Protein.RotatedAtoms>
  152.4666  133.7936  159.6914 H   0  0  0  0  0  0  0  0  0  0  0  0  # atno 6907 bound_to 6896
  150.8633  133.7601  159.2991 H   0  0  0  0  0  0  0  0  0  0  0  0  # atno 6908 bound_to 6896
  151.5160  135.1069  159.9918 H   0  0  0  0  0  0  0  0  0  0  0  0  # atno 6909 bound_to 6896
  144.7250  139.9609  143.6434 H   0  0  0  0  0  0  0  0  0  0  0  0  # atno 7974 bound_to 7965
  155.2604  140.3359  155.4274 H   0  0  0  0  0  0  0  0  0  0  0  0  # atno 8008 bound_to 7997
  156.2177  140.1796  156.7593 H   0  0  0  0  0  0  0  0  0  0  0  0  # atno 8009 bound_to 7997
  154.5778  140.0659  156.9045 H   0  0  0  0  0  0  0  0  0  0  0  0  # atno 8010 bound_to 7997
  140.1253  143.4408  152.1664 H   0  0  0  0  0  0  0  0  0  0  0  0  # atno 10167 bound_to 10162
  157.3375  131.0930  151.1111 H   0  0  0  0  0  0  0  0  0  0  0  0  # atno 10718 bound_to 10713
  152.9859  135.5626  154.5464 H   0  0  0  0  0  0  0  0  0  0  0  0  # atno 10763 bound_to 10752
  154.4909  135.2793  155.1499 H   0  0  0  0  0  0  0  0  0  0  0  0  # atno 10764 bound_to 10752
  154.2969  135.6315  153.5461 H   0  0  0  0  0  0  0  0  0  0  0  0  # atno 10765 bound_to 10752
  140.6671  133.9269  155.8471 H   0  0  0  0  0  0  0  0  0  0  0  0  # atno 11005 bound_to 11000
  146.0638  139.3630  143.0565 LP  0  0  0  0  0  0  0  0  0  0  0  0  # atno 17320 bound_to 7965
  145.8057  140.9749  143.0975 LP  0  0  0  0  0  0  0  0  0  0  0  0  # atno 17321 bound_to 7965
  139.5548  144.7364  151.4328 LP  0  0  0  0  0  0  0  0  0  0  0  0  # atno 17342 bound_to 10162
  140.6849  143.7998  150.7172 LP  0  0  0  0  0  0  0  0  0  0  0  0  # atno 17343 bound_to 10162
  157.2335  130.6536  149.5860 LP  0  0  0  0  0  0  0  0  0  0  0  0  # atno 17370 bound_to 10713
  155.9703  130.4591  150.6023 LP  0  0  0  0  0  0  0  0  0  0  0  0  # atno 17371 bound_to 10713
  141.0421  134.0606  157.3889 LP  0  0  0  0  0  0  0  0  0  0  0  0  # atno 17394 bound_to 11000
  139.8994  135.0158  156.7193 LP  0  0  0  0  0  0  0  0  0  0  0  0  # atno 17395 bound_to 11000

$$$$
