AV-unprocessed.smi:2044|AV-procd|sdf|8301|dock9
  -GOLD-   2272010563D 1   1.00000     0.00000
 Structure written by MMmdl.
 40 41  0  0  0  0  0  0  0  0  2 V2000
  138.2669  136.8574  153.7271 C   0  0  0  0  0  0  0  0  0  0  0  0
  139.7405  137.0434  153.8496 C   0  0  0  0  0  0  0  0  0  0  0  0
  140.5891  138.0346  153.4446 C   0  0  0  0  0  0  0  0  0  0  0  0
  141.8599  137.5697  153.8925 C   0  0  0  0  0  0  0  0  0  0  0  0
  143.1032  138.2340  153.7314 N   0  0  0  0  0  0  0  0  0  0  0  0
  144.3185  137.8434  154.1502 C   0  0  0  0  0  0  0  0  0  0  0  0
  144.5604  136.8183  154.7874 O   0  0  0  0  0  0  0  0  0  0  0  0
  145.2651  138.7181  153.7802 N   0  0  0  0  0  0  0  0  0  0  0  0
  146.6904  138.5709  154.0615 C   0  0  0  0  0  0  0  0  0  0  0  0
  147.4803  139.8998  153.9181 C   0  0  1  0  0  0  0  0  0  0  0  0
  146.5796  141.0982  154.3064 C   0  0  0  0  0  0  0  0  0  0  0  0
  148.7583  139.8352  154.7004 N   0  3  0  0  0  0  0  0  0  0  0  0
  149.7530  138.9087  154.0927 C   0  0  0  0  0  0  0  0  0  0  0  0
  151.0167  138.8021  154.9613 C   0  0  0  0  0  0  0  0  0  0  0  0
  151.5850  140.0920  155.1277 O   0  0  0  0  0  0  0  0  0  0  0  0
  150.6946  140.9685  155.8014 C   0  0  0  0  0  0  0  0  0  0  0  0
  149.4078  141.1469  154.9769 C   0  0  0  0  0  0  0  0  0  0  0  0
  141.7865  136.4050  154.5098 N   0  0  0  0  0  0  0  0  0  0  0  0
  140.4303  136.0596  154.4867 O   0  0  0  0  0  0  0  0  0  0  0  0
  137.8493  137.5386  152.9855 H   0  0  0  0  0  0  0  0  0  0  0  0
  137.7737  137.0510  154.6797 H   0  0  0  0  0  0  0  0  0  0  0  0
  138.0279  135.8384  153.4220 H   0  0  0  0  0  0  0  0  0  0  0  0
  140.3249  138.9386  152.9170 H   0  0  0  0  0  0  0  0  0  0  0  0
  143.0612  139.1054  153.2236 H   0  0  0  0  0  0  0  0  0  0  0  0
  144.9827  139.5377  153.2620 H   0  0  0  0  0  0  0  0  0  0  0  0
  146.7921  138.1909  155.0785 H   0  0  0  0  0  0  0  0  0  0  0  0
  147.0790  137.7896  153.4094 H   0  0  0  0  0  0  0  0  0  0  0  0
  147.7496  140.0397  152.8698 H   0  0  0  0  0  0  0  0  0  0  0  0
  145.6464  141.1022  153.7435 H   0  0  0  0  0  0  0  0  0  0  0  0
  147.0547  142.0549  154.0892 H   0  0  0  0  0  0  0  0  0  0  0  0
  146.3210  141.0762  155.3657 H   0  0  0  0  0  0  0  0  0  0  0  0
  149.3386  137.9105  153.9664 H   0  0  0  0  0  0  0  0  0  0  0  0
  150.0218  139.2651  153.0971 H   0  0  0  0  0  0  0  0  0  0  0  0
  150.7894  138.3582  155.9321 H   0  0  0  0  0  0  0  0  0  0  0  0
  151.7496  138.1551  154.4790 H   0  0  0  0  0  0  0  0  0  0  0  0
  150.4686  140.5824  156.7968 H   0  0  0  0  0  0  0  0  0  0  0  0
  151.1865  141.9314  155.9398 H   0  0  0  0  0  0  0  0  0  0  0  0
  149.6330  141.6510  154.0355 H   0  0  0  0  0  0  0  0  0  0  0  0
  148.7447  141.7965  155.5471 H   0  0  0  0  0  0  0  0  0  0  0  0
  148.5163  139.4543  155.6041 H   0  0  0  0  0  0  0  0  0  0  0  0
  1  2  1  0  0  0  0
  1 20  1  0  0  0  0
  1 21  1  0  0  0  0
  1 22  1  0  0  0  0
  2 19  1  0  0  0  0
  2  3  2  0  0  0  0
  3  4  1  0  0  0  0
  3 23  1  0  0  0  0
  4  5  1  0  0  0  0
  4 18  2  0  0  0  0
  5  6  1  0  0  0  0
  5 24  1  0  0  0  0
  6  7  2  0  0  0  0
  6  8  1  0  0  0  0
  8  9  1  0  0  0  0
  8 25  1  0  0  0  0
  9 10  1  0  0  0  0
  9 26  1  0  0  0  0
  9 27  1  0  0  0  0
 10 11  1  0  0  0  0
 10 12  1  0  0  0  0
 10 28  1  0  0  0  0
 11 29  1  0  0  0  0
 11 30  1  0  0  0  0
 11 31  1  0  0  0  0
 12 17  1  0  0  0  0
 12 13  1  0  0  0  0
 12 40  1  0  0  0  0
 13 14  1  0  0  0  0
 13 32  1  0  0  0  0
 13 33  1  0  0  0  0
 14 15  1  0  0  0  0
 14 34  1  0  0  0  0
 14 35  1  0  0  0  0
 15 16  1  0  0  0  0
 16 17  1  0  0  0  0
 16 36  1  0  0  0  0
 16 37  1  0  0  0  0
 17 38  1  0  0  0  0
 17 39  1  0  0  0  0
 18 19  1  0  0  0  0
M  CHG  1  12   1
M  END
> <s_m_source_file>
AV-unprocessed.smi

> <i_m_source_file_index>
2044

> <i_lp_mmshare_version>
43012

> <i_f3d_flags>
0

> <s_epik_input>
W0NIM11jMVtjSF1jKG5vMSlbTkhdQyg9TylbTkhdW0NIMl1bQ0BIXShbQ0gzXSlOMltDSDJdW0NIMl1PW0NIMl1bQ0gyXTI=

> <s_epik_cmdline>
J2VwaWtfcHl0aG9uJywgJy1waCcsICc3LjAnLCAnLXRuJywgJzgnLCAnLW1hJywgJzIwMCcsICctbWV0YWxfYmluZGluZycsICctaW1hZScsICc8aW5maWxlLm1hZT4nLCAnLW9tYWUnLCAnPG91dGZpbGUubWFlPic=

> <r_epik_Ionization_Penalty>
0.707076

> <r_epik_Ionization_Penalty_Charging>
0.707039

> <r_epik_Ionization_Penalty_Neutral>
3.67886e-05

> <r_epik_State_Penalty>
0.730276

> <r_epik_Charging_Adjusted_Penalty>
1.43732

> <i_epik_Tot_Q>
1

> <i_epik_Tot_abs_Q>
1

> <r_epik_Metal_State_Penalty>
0.743216

> <b_epik_Metal_Only>
0

> <s_lp_Force_Field>
OPLS_2005

> <r_lp_Energy>
19.4768

> <b_lp_Chiralities_Consistent>
1

> <s_lp_Variant>
AV-unprocessed.smi:2044-4

> <Gold.Version>
5.8.1

> <Gold.Id.Protein>
6NUR|6NUR_protein|mol2

> <Gold.PLP.Fitness>
40.4730

> <Gold.PLP.PLP>
-29.8352

> <Gold.PLP.part.hbond>
-4.0000

> <Gold.PLP.part.metal>
0.0000

> <Gold.PLP.part.buried>
-5.1940

> <Gold.PLP.part.nonpolar>
-22.1979

> <Gold.PLP.part.repulsive>
0.2219

> <Gold.PLP.ligand.clash>
0.0000

> <Gold.PLP.ligand.torsion>
0.6535

> <Gold.PLP.Chemscore.Hbond>
3.9680

> <Gold.PLP.Chemscore.CHOScore>
0.0000

> <Gold.PLP.Chemscore.Metal>
0.0000

> <Gold.Chemscore.Hbonds>
donor molecule, donor type, donor heavy atom, donor atom, acceptor molecule, acceptor atom, score
      L1  H     5    24       P1 10175  1.00
      L1  H     8    25       P1 10175  0.98
      P1  H  7989  7998       L1    15  1.00
      P1  H 11000 11005       L1    19  0.98

> <Gold.PLP.Chemscore.Internal.Correction>
0.0408

> <Gold.Rescore>
     Score         DG    S(hbond)    S(metal)    S(lipo)     H(rot)  DE(clash)    DE(int)     intcor
     17.20     -19.20       3.00        0.00      67.16       1.62       0.00       2.00       ----

> <Gold.Chemscore.Fitness>
17.1972

> <Gold.Chemscore.DG>
-19.2043

> <Gold.Chemscore.ZeroCoef>
-5.4800

> <Gold.Chemscore.Hbond>
2.9993

> <Gold.Chemscore.Metal>
0.0000

> <Gold.Chemscore.Lipo>
67.1561

> <Gold.Chemscore.Internal_Hbond>
0.0000

> <Gold.Chemscore.DEClash>
0.0025

> <Gold.Chemscore.DEInternal>
2.0045

> <Gold.Chemscore.Rot>
1.6213

> <Gold.Chemscore.Internal.Correction>
   9.000000E+99

> <Gold.Chemscore.Hbonds>
donor molecule, donor type, donor heavy atom, donor atom, acceptor molecule, acceptor atom, score
      L1  H     5    24       P1 10175  0.99
      L1  H     8    25       P1 10175  0.92
      P1  H  7989  7998       L1    15  0.19
      P1  H 11000 11005       L1    19  0.65

> <Gold.Chemscore.Hbond.Weighted>
-10.0176

> <Gold.Chemscore.Metal.Weighted>
-0.0000

> <Gold.Chemscore.Lipo.Weighted>
-7.8573

> <Gold.Chemscore.Internal_Hbond.Weighted>
0.0000

> <Gold.Chemscore.DEClash.Weighted>
0.0025

> <Gold.Chemscore.DEInternal.Weighted>
2.0045

> <Gold.Chemscore.Rot.Weighted>
4.1506

> <Gold.Chemscore.Internal.Correction.Weighted>
   9.000000E+99

> <Gold.Protein.RotatedTorsions>
[ 6907 6896 6895 6894 ] final -112.79 input  -60.11 | X-H torsion
[ 7974 7965 7964 7962 ] final  -39.41 input  175.53 | X-H torsion
[ 8008 7997 7996 7995 ] final -174.90 input   59.86 | X-H torsion
[ 10167 10162 10161 10158 ] final   99.13 input  -65.29 | X-H torsion
[ 10718 10713 10712 10709 ] final  -51.85 input   66.30 | X-H torsion
[ 10763 10752 10751 10750 ] final -152.88 input  -60.55 | X-H torsion
[ 11005 11000 10999 10996 ] final   59.08 input  -57.11 | X-H torsion

> <Gold.Protein.ActiveResidues>
 VAL166  LYS551  ARG553  GLY616  TRP617  ASP618  TYR619  PRO620  LYS621  CYS622 
 ASP623  PHE694  ASN695  SER759  ASP760  ASP761  ALA762  ILE779  LEU786  VAL792 
 PHE793  MET794  SER795  GLU796  ALA797  LYS798  CYS799  TRP800  GLU811  SER814 

> <Gold.Protein.RotatedAtoms>
  150.7783  133.9039  159.3349 H   0  0  0  0  0  0  0  0  0  0  0  0  # atno 6907 bound_to 6896
  151.6908  135.0945  160.0243 H   0  0  0  0  0  0  0  0  0  0  0  0  # atno 6908 bound_to 6896
  152.3826  133.6529  159.6209 H   0  0  0  0  0  0  0  0  0  0  0  0  # atno 6909 bound_to 6896
  146.0399  140.6623  142.9092 H   0  0  0  0  0  0  0  0  0  0  0  0  # atno 7974 bound_to 7965
  155.9759  140.1172  157.0770 H   0  0  0  0  0  0  0  0  0  0  0  0  # atno 8008 bound_to 7997
  154.4169  140.1154  156.5438 H   0  0  0  0  0  0  0  0  0  0  0  0  # atno 8009 bound_to 7997
  155.6535  140.3473  155.4759 H   0  0  0  0  0  0  0  0  0  0  0  0  # atno 8010 bound_to 7997
  139.7645  144.6943  151.0244 H   0  0  0  0  0  0  0  0  0  0  0  0  # atno 10167 bound_to 10162
  156.1673  130.4149  149.9701 H   0  0  0  0  0  0  0  0  0  0  0  0  # atno 10718 bound_to 10713
  154.7965  135.3225  154.7655 H   0  0  0  0  0  0  0  0  0  0  0  0  # atno 10763 bound_to 10752
  153.8332  135.6877  153.4816 H   0  0  0  0  0  0  0  0  0  0  0  0  # atno 10764 bound_to 10752
  153.1658  135.4642  154.9778 H   0  0  0  0  0  0  0  0  0  0  0  0  # atno 10765 bound_to 10752
  140.0330  134.5984  155.9482 H   0  0  0  0  0  0  0  0  0  0  0  0  # atno 11005 bound_to 11000
  144.7069  140.3888  143.7111 LP  0  0  0  0  0  0  0  0  0  0  0  0  # atno 17320 bound_to 7965
  145.6902  139.1637  143.2651 LP  0  0  0  0  0  0  0  0  0  0  0  0  # atno 17321 bound_to 7965
  140.7810  143.4659  151.0213 LP  0  0  0  0  0  0  0  0  0  0  0  0  # atno 17342 bound_to 10162
  139.8344  143.7648  152.3180 LP  0  0  0  0  0  0  0  0  0  0  0  0  # atno 17343 bound_to 10162
  156.7512  130.9116  151.3637 LP  0  0  0  0  0  0  0  0  0  0  0  0  # atno 17370 bound_to 10713
  157.6777  130.9110  150.0191 LP  0  0  0  0  0  0  0  0  0  0  0  0  # atno 17371 bound_to 10713
  141.1841  133.6552  156.5145 LP  0  0  0  0  0  0  0  0  0  0  0  0  # atno 17394 bound_to 11000
  140.4194  134.7201  157.4881 LP  0  0  0  0  0  0  0  0  0  0  0  0  # atno 17395 bound_to 11000

$$$$
