AV-unprocessed.smi:3037|AV-procd|sdf|11587|dock3
  -GOLD-   2272016563D 1   1.00000     0.00000
 Structure written by MMmdl.
 47 48  0  0  0  0  0  0  0  0  2 V2000
  152.3770  145.1660  159.0528 C   0  0  0  0  0  0  0  0  0  0  0  0
  152.7297  143.9940  159.9225 C   0  0  0  0  0  0  0  0  0  0  0  0
  152.6369  143.8959  161.3400 C   0  0  0  0  0  0  0  0  0  0  0  0
  153.0272  142.7185  161.8007 N   0  0  0  0  0  0  0  0  0  0  0  0
  153.3832  142.0265  160.6978 N   0  0  0  0  0  0  0  0  0  0  0  0
  153.8720  140.6652  160.8232 C   0  0  0  0  0  0  0  0  0  0  0  0
  153.3682  139.7395  159.6919 C   0  0  1  0  0  0  0  0  0  0  0  0
  153.5435  138.2473  160.0213 C   0  0  0  0  0  0  0  0  0  0  0  0
  151.9447  140.0038  159.3850 N   0  3  0  0  0  0  0  0  0  0  0  0
  151.5338  139.7310  157.9917 C   0  0  0  0  0  0  0  0  0  0  0  0
  150.5530  140.8069  157.4919 C   0  0  0  0  0  0  0  0  0  0  0  0
  150.1403  140.6371  156.0189 C   0  0  0  0  0  0  0  0  0  0  0  0
  151.0145  140.4186  155.1789 O   0  0  0  0  0  0  0  0  0  0  0  0
  148.8281  140.7277  155.6899 N   0  0  0  0  0  0  0  0  0  0  0  0
  147.7869  141.0685  156.6693 C   0  0  0  0  0  0  0  0  0  0  0  0
  147.2450  142.4750  156.3528 C   0  0  0  0  0  0  0  0  0  0  0  0
  146.7285  142.5547  154.9041 C   0  0  0  0  0  0  0  0  0  0  0  0
  147.7680  142.0208  153.9010 C   0  0  0  0  0  0  0  0  0  0  0  0
  148.2801  140.6337  154.3291 C   0  0  0  0  0  0  0  0  0  0  0  0
  153.2114  142.7711  159.5504 C   0  0  0  0  0  0  0  0  0  0  0  0
  152.1289  146.0486  159.6426 H   0  0  0  0  0  0  0  0  0  0  0  0
  151.5167  144.9510  158.4188 H   0  0  0  0  0  0  0  0  0  0  0  0
  153.2016  145.4411  158.3948 H   0  0  0  0  0  0  0  0  0  0  0  0
  152.2987  144.6419  162.0438 H   0  0  0  0  0  0  0  0  0  0  0  0
  154.9633  140.6837  160.8369 H   0  0  0  0  0  0  0  0  0  0  0  0
  153.5574  140.2937  161.7982 H   0  0  0  0  0  0  0  0  0  0  0  0
  153.9485  139.9393  158.7898 H   0  0  0  0  0  0  0  0  0  0  0  0
  154.5939  137.9821  160.1437 H   0  0  0  0  0  0  0  0  0  0  0  0
  153.1471  137.6200  159.2223 H   0  0  0  0  0  0  0  0  0  0  0  0
  153.0234  137.9812  160.9423 H   0  0  0  0  0  0  0  0  0  0  0  0
  151.3908  139.4049  159.9808 H   0  0  0  0  0  0  0  0  0  0  0  0
  152.4136  139.7021  157.3483 H   0  0  0  0  0  0  0  0  0  0  0  0
  151.0645  138.7468  157.9471 H   0  0  0  0  0  0  0  0  0  0  0  0
  149.6544  140.7803  158.1098 H   0  0  0  0  0  0  0  0  0  0  0  0
  151.0064  141.7911  157.6163 H   0  0  0  0  0  0  0  0  0  0  0  0
  146.9820  140.3345  156.6112 H   0  0  0  0  0  0  0  0  0  0  0  0
  148.1434  141.0346  157.6994 H   0  0  0  0  0  0  0  0  0  0  0  0
  146.4467  142.7354  157.0484 H   0  0  0  0  0  0  0  0  0  0  0  0
  148.0363  143.2114  156.4996 H   0  0  0  0  0  0  0  0  0  0  0  0
  145.8159  141.9633  154.8189 H   0  0  0  0  0  0  0  0  0  0  0  0
  146.4550  143.5806  154.6559 H   0  0  0  0  0  0  0  0  0  0  0  0
  147.3303  141.9687  152.9037 H   0  0  0  0  0  0  0  0  0  0  0  0
  148.6062  142.7158  153.8365 H   0  0  0  0  0  0  0  0  0  0  0  0
  148.9881  140.2579  153.5925 H   0  0  0  0  0  0  0  0  0  0  0  0
  147.4563  139.9184  154.3262 H   0  0  0  0  0  0  0  0  0  0  0  0
  153.4451  142.3737  158.5736 H   0  0  0  0  0  0  0  0  0  0  0  0
  151.7344  140.9649  159.6143 H   0  0  0  0  0  0  0  0  0  0  0  0
  1  2  1  0  0  0  0
  1 21  1  0  0  0  0
  1 22  1  0  0  0  0
  1 23  1  0  0  0  0
  2 20  2  0  0  0  0
  2  3  1  0  0  0  0
  3  4  2  0  0  0  0
  3 24  1  0  0  0  0
  4  5  1  0  0  0  0
  5  6  1  0  0  0  0
  5 20  1  0  0  0  0
  6  7  1  0  0  0  0
  6 25  1  0  0  0  0
  6 26  1  0  0  0  0
  7  8  1  0  0  0  0
  7  9  1  0  0  0  0
  7 27  1  0  0  0  0
  8 28  1  0  0  0  0
  8 29  1  0  0  0  0
  8 30  1  0  0  0  0
  9 10  1  0  0  0  0
  9 31  1  0  0  0  0
  9 47  1  0  0  0  0
 10 11  1  0  0  0  0
 10 32  1  0  0  0  0
 10 33  1  0  0  0  0
 11 12  1  0  0  0  0
 11 34  1  0  0  0  0
 11 35  1  0  0  0  0
 12 13  2  0  0  0  0
 12 14  1  0  0  0  0
 14 19  1  0  0  0  0
 14 15  1  0  0  0  0
 15 16  1  0  0  0  0
 15 36  1  0  0  0  0
 15 37  1  0  0  0  0
 16 17  1  0  0  0  0
 16 38  1  0  0  0  0
 16 39  1  0  0  0  0
 17 18  1  0  0  0  0
 17 40  1  0  0  0  0
 17 41  1  0  0  0  0
 18 19  1  0  0  0  0
 18 42  1  0  0  0  0
 18 43  1  0  0  0  0
 19 44  1  0  0  0  0
 19 45  1  0  0  0  0
 20 46  1  0  0  0  0
M  CHG  1   9   1
M  END
> <s_m_source_file>
AV-unprocessed.smi

> <i_m_source_file_index>
3037

> <i_lp_mmshare_version>
43012

> <i_f3d_flags>
0

> <s_epik_input>
W0NIM11jMVtjSF1ubihbY0hdMSlbQ0gyXVtDQEhdKFtDSDNdKVtOSF1bQ0gyXVtDSDJdQyg9TylOMltDSDJdW0NIMl1bQ0gyXVtDSDJdW0NIMl0y

> <s_epik_cmdline>
J2VwaWtfcHl0aG9uJywgJy1waCcsICc3LjAnLCAnLXRuJywgJzgnLCAnLW1hJywgJzIwMCcsICctbWV0YWxfYmluZGluZycsICctaW1hZScsICc8aW5maWxlLm1hZT4nLCAnLW9tYWUnLCAnPG91dGZpbGUubWFlPic=

> <r_lp_tautomer_probability>
1

> <r_epik_Ionization_Penalty>
0.00574983

> <r_epik_Ionization_Penalty_Charging>
0.00574185

> <r_epik_Ionization_Penalty_Neutral>
7.97936e-06

> <r_epik_State_Penalty>
0.00421386

> <r_epik_Charging_Adjusted_Penalty>
0.00995571

> <i_epik_Tot_Q>
1

> <i_epik_Tot_abs_Q>
1

> <r_epik_Metal_State_Penalty>
-0

> <b_epik_Metal_Only>
0

> <s_lp_Force_Field>
OPLS_2005

> <r_lp_Energy>
26.5412

> <b_lp_Chiralities_Consistent>
1

> <s_lp_Variant>
AV-unprocessed.smi:3037-2

> <Gold.Version>
5.8.1

> <Gold.Id.Protein>
6NUR|6NUR_protein|mol2

> <Gold.PLP.Fitness>
45.6705

> <Gold.PLP.PLP>
-44.9085

> <Gold.PLP.part.hbond>
-1.0000

> <Gold.PLP.part.metal>
0.0000

> <Gold.PLP.part.buried>
-6.3110

> <Gold.PLP.part.nonpolar>
-36.9030

> <Gold.PLP.part.repulsive>
0.2991

> <Gold.PLP.ligand.clash>
0.0000

> <Gold.PLP.ligand.torsion>
1.1994

> <Gold.PLP.Chemscore.Hbond>
1.0000

> <Gold.PLP.Chemscore.CHOScore>
0.0000

> <Gold.PLP.Chemscore.Metal>
0.0000

> <Gold.Chemscore.Hbonds>
donor molecule, donor type, donor heavy atom, donor atom, acceptor molecule, acceptor atom, score
      P1  H  7989  7998       L1    13  1.00

> <Gold.PLP.Chemscore.Internal.Correction>
0.1608

> <Gold.Rescore>
     Score         DG    S(hbond)    S(metal)    S(lipo)     H(rot)  DE(clash)    DE(int)     intcor
     15.63     -16.67       1.00        0.00     107.34       1.84       0.02       1.02       ----

> <Gold.Chemscore.Fitness>
15.6340

> <Gold.Chemscore.DG>
-16.6729

> <Gold.Chemscore.ZeroCoef>
-5.4800

> <Gold.Chemscore.Hbond>
1.0000

> <Gold.Chemscore.Metal>
0.0000

> <Gold.Chemscore.Lipo>
107.3424

> <Gold.Chemscore.Internal_Hbond>
0.0000

> <Gold.Chemscore.DEClash>
0.0186

> <Gold.Chemscore.DEInternal>
1.0203

> <Gold.Chemscore.Rot>
1.8383

> <Gold.Chemscore.Internal.Correction>
   9.000000E+99

> <Gold.Chemscore.Hbonds>
donor molecule, donor type, donor heavy atom, donor atom, acceptor molecule, acceptor atom, score
      P1  H  7989  7998       L1    13  0.95

> <Gold.Chemscore.Hbond.Weighted>
-3.3400

> <Gold.Chemscore.Metal.Weighted>
-0.0000

> <Gold.Chemscore.Lipo.Weighted>
-12.5591

> <Gold.Chemscore.Internal_Hbond.Weighted>
0.0000

> <Gold.Chemscore.DEClash.Weighted>
0.0186

> <Gold.Chemscore.DEInternal.Weighted>
1.0203

> <Gold.Chemscore.Rot.Weighted>
4.7062

> <Gold.Chemscore.Internal.Correction.Weighted>
   9.000000E+99

> <Gold.Protein.RotatedTorsions>
[ 6907 6896 6895 6894 ] final  -58.38 input  -60.11 | X-H torsion
[ 7974 7965 7964 7962 ] final  108.89 input  175.53 | X-H torsion
[ 8008 7997 7996 7995 ] final   37.06 input   59.86 | X-H torsion
[ 10167 10162 10161 10158 ] final  -92.80 input  -65.29 | X-H torsion
[ 10718 10713 10712 10709 ] final  139.28 input   66.30 | X-H torsion
[ 10763 10752 10751 10750 ] final   14.04 input  -60.55 | X-H torsion
[ 11005 11000 10999 10996 ] final  -37.52 input  -57.11 | X-H torsion

> <Gold.Protein.ActiveResidues>
 VAL166  LYS551  ARG553  GLY616  TRP617  ASP618  TYR619  PRO620  LYS621  CYS622 
 ASP623  PHE694  ASN695  SER759  ASP760  ASP761  ALA762  ILE779  LEU786  VAL792 
 PHE793  MET794  SER795  GLU796  ALA797  LYS798  CYS799  TRP800  GLU811  SER814 

> <Gold.Protein.RotatedAtoms>
  150.8011  134.7106  159.6601 H   0  0  0  0  0  0  0  0  0  0  0  0  # atno 6907 bound_to 6896
  152.4128  134.6091  160.0030 H   0  0  0  0  0  0  0  0  0  0  0  0  # atno 6908 bound_to 6896
  151.6329  133.3294  159.3149 H   0  0  0  0  0  0  0  0  0  0  0  0  # atno 6909 bound_to 6896
  145.2748  139.2654  143.3947 H   0  0  0  0  0  0  0  0  0  0  0  0  # atno 7974 bound_to 7965
  155.1976  140.3313  155.4348 H   0  0  0  0  0  0  0  0  0  0  0  0  # atno 8008 bound_to 7997
  156.2419  140.1899  156.7014 H   0  0  0  0  0  0  0  0  0  0  0  0  # atno 8009 bound_to 7997
  154.6163  140.0601  156.9545 H   0  0  0  0  0  0  0  0  0  0  0  0  # atno 8010 bound_to 7997
  140.3311  143.2994  151.9941 H   0  0  0  0  0  0  0  0  0  0  0  0  # atno 10167 bound_to 10162
  157.4161  131.1033  151.0403 H   0  0  0  0  0  0  0  0  0  0  0  0  # atno 10718 bound_to 10713
  153.1661  135.6804  153.8673 H   0  0  0  0  0  0  0  0  0  0  0  0  # atno 10763 bound_to 10752
  153.8053  135.3150  155.3396 H   0  0  0  0  0  0  0  0  0  0  0  0  # atno 10764 bound_to 10752
  154.7966  135.4803  154.0266 H   0  0  0  0  0  0  0  0  0  0  0  0  # atno 10765 bound_to 10752
  140.9958  133.6981  156.1932 H   0  0  0  0  0  0  0  0  0  0  0  0  # atno 11005 bound_to 11000
  146.3235  140.3200  142.8632 LP  0  0  0  0  0  0  0  0  0  0  0  0  # atno 17320 bound_to 7965
  144.9304  140.7968  143.5693 LP  0  0  0  0  0  0  0  0  0  0  0  0  # atno 17321 bound_to 7965
  139.4856  144.6234  151.7211 LP  0  0  0  0  0  0  0  0  0  0  0  0  # atno 17342 bound_to 10162
  140.5396  144.0600  150.6083 LP  0  0  0  0  0  0  0  0  0  0  0  0  # atno 17343 bound_to 10162
  157.1350  130.6118  149.5539 LP  0  0  0  0  0  0  0  0  0  0  0  0  # atno 17370 bound_to 10713
  155.9865  130.4901  150.7084 LP  0  0  0  0  0  0  0  0  0  0  0  0  # atno 17371 bound_to 10713
  140.6968  134.4607  157.5587 LP  0  0  0  0  0  0  0  0  0  0  0  0  # atno 17394 bound_to 11000
  139.9014  134.8547  156.1880 LP  0  0  0  0  0  0  0  0  0  0  0  0  # atno 17395 bound_to 11000

$$$$
