AV-unprocessed.smi:626|AV-procd|sdf|3110|dock8
  -GOLD-   22720 0 33D 1   1.00000     0.00000
 Structure written by MMmdl.
 34 36  0  0  0  0  0  0  0  0  1 V2000
  147.3391  139.5193  153.4228 C   0  0  0  0  0  0  0  0  0  0  0  0
  148.5516  139.2744  154.1880 N   0  0  0  0  0  0  0  0  0  0  0  0
  149.5152  140.1856  154.3892 C   0  0  0  0  0  0  0  0  0  0  0  0
  149.4641  141.3327  153.9451 O   0  0  0  0  0  0  0  0  0  0  0  0
  150.7183  139.7396  155.2227 C   0  0  0  0  0  0  0  0  0  0  0  0
  150.9505  140.6794  156.3624 C   0  0  0  0  0  0  0  0  0  0  0  0
  151.1198  140.2340  157.6017 N   0  0  0  0  0  0  0  0  0  0  0  0
  151.2846  141.4093  158.3479 O   0  0  0  0  0  0  0  0  0  0  0  0
  151.2298  142.4299  157.4578 C   0  0  0  0  0  0  0  0  0  0  0  0
  151.2734  143.8339  157.9868 C   0  0  1  0  0  0  0  0  0  0  0  0
  150.2686  144.1462  159.1190 C   0  0  0  0  0  0  0  0  0  0  0  0
  151.1675  144.7776  160.1998 C   0  0  1  0  0  0  0  0  0  0  0  0
  152.0349  143.6799  160.8461 C   0  0  0  0  0  0  0  0  0  0  0  0
  153.0689  143.3696  159.7468 C   0  0  0  0  0  0  0  0  0  0  0  0
  152.6219  144.2898  158.5926 C   0  0  2  0  0  0  0  0  0  0  0  0
  152.1927  145.5350  159.3630 C   0  0  0  0  0  0  0  0  0  0  0  0
  150.9792  142.0317  156.2107 N   0  0  0  0  0  0  0  0  0  0  0  0
  146.7227  138.6205  153.4050 H   0  0  0  0  0  0  0  0  0  0  0  0
  147.5773  139.7898  152.3934 H   0  0  0  0  0  0  0  0  0  0  0  0
  146.7547  140.3252  153.8690 H   0  0  0  0  0  0  0  0  0  0  0  0
  148.6704  138.3528  154.5837 H   0  0  0  0  0  0  0  0  0  0  0  0
  150.5461  138.7338  155.6087 H   0  0  0  0  0  0  0  0  0  0  0  0
  151.6088  139.6886  154.5946 H   0  0  0  0  0  0  0  0  0  0  0  0
  151.0438  144.4926  157.1475 H   0  0  0  0  0  0  0  0  0  0  0  0
  149.5124  144.8522  158.7742 H   0  0  0  0  0  0  0  0  0  0  0  0
  149.7456  143.2675  159.4982 H   0  0  0  0  0  0  0  0  0  0  0  0
  150.6217  145.3845  160.9227 H   0  0  0  0  0  0  0  0  0  0  0  0
  152.5308  144.0506  161.7441 H   0  0  0  0  0  0  0  0  0  0  0  0
  151.4497  142.8029  161.1251 H   0  0  0  0  0  0  0  0  0  0  0  0
  154.0694  143.6442  160.0833 H   0  0  0  0  0  0  0  0  0  0  0  0
  153.0995  142.3148  159.4775 H   0  0  0  0  0  0  0  0  0  0  0  0
  153.3995  144.4553  157.8463 H   0  0  0  0  0  0  0  0  0  0  0  0
  151.7498  146.3073  158.7312 H   0  0  0  0  0  0  0  0  0  0  0  0
  152.9952  145.9767  159.9568 H   0  0  0  0  0  0  0  0  0  0  0  0
  1  2  1  0  0  0  0
  1 18  1  0  0  0  0
  1 19  1  0  0  0  0
  1 20  1  0  0  0  0
  2  3  1  0  0  0  0
  2 21  1  0  0  0  0
  3  4  2  0  0  0  0
  3  5  1  0  0  0  0
  5  6  1  0  0  0  0
  5 22  1  0  0  0  0
  5 23  1  0  0  0  0
  6 17  1  0  0  0  0
  6  7  2  0  0  0  0
  7  8  1  0  0  0  0
  8  9  1  0  0  0  0
  9 10  1  0  0  0  0
  9 17  2  0  0  0  0
 10 15  1  0  0  0  0
 10 11  1  0  0  0  0
 10 24  1  0  0  0  0
 11 12  1  0  0  0  0
 11 25  1  0  0  0  0
 11 26  1  0  0  0  0
 12 16  1  0  0  0  0
 12 13  1  0  0  0  0
 12 27  1  0  0  0  0
 13 14  1  0  0  0  0
 13 28  1  0  0  0  0
 13 29  1  0  0  0  0
 14 15  1  0  0  0  0
 14 30  1  0  0  0  0
 14 31  1  0  0  0  0
 15 16  1  0  0  0  0
 15 32  1  0  0  0  0
 16 33  1  0  0  0  0
 16 34  1  0  0  0  0
M  END
> <s_m_source_file>
AV-unprocessed.smi

> <i_m_source_file_index>
626

> <i_lp_mmshare_version>
43012

> <i_f3d_flags>
0

> <s_epik_input>
W0NIM11bTkhdQyg9TylbQ0gyXWMxbm9jKG4xKVtDQEhdKFtDSDJdW0NAQEhdMjMpW0NAQEhdKFtDSDJdMylbQ0gyXVtDSDJdMg==

> <s_epik_cmdline>
J2VwaWtfcHl0aG9uJywgJy1waCcsICc3LjAnLCAnLXRuJywgJzgnLCAnLW1hJywgJzIwMCcsICctbWV0YWxfYmluZGluZycsICctaW1hZScsICc8aW5maWxlLm1hZT4nLCAnLW9tYWUnLCAnPG91dGZpbGUubWFlPic=

> <r_lp_tautomer_probability>
1

> <r_epik_Ionization_Penalty>
1.02916e-07

> <r_epik_Ionization_Penalty_Charging>
0

> <r_epik_Ionization_Penalty_Neutral>
1.02916e-07

> <r_epik_State_Penalty>
-0

> <r_epik_Charging_Adjusted_Penalty>
0

> <i_epik_Tot_Q>
0

> <i_epik_Tot_abs_Q>
0

> <r_epik_Metal_State_Penalty>
-0

> <b_epik_Metal_Only>
0

> <s_lp_Force_Field>
OPLS_2005

> <r_lp_Energy>
49.0627

> <b_lp_Chiralities_Consistent>
1

> <s_lp_Variant>
AV-unprocessed.smi:626-2

> <Gold.Version>
5.8.1

> <Gold.Id.Protein>
6NUR|6NUR_protein|mol2

> <Gold.PLP.Fitness>
41.6433

> <Gold.PLP.PLP>
-39.6564

> <Gold.PLP.part.hbond>
-2.0390

> <Gold.PLP.part.metal>
0.0000

> <Gold.PLP.part.buried>
-2.8814

> <Gold.PLP.part.nonpolar>
-33.5683

> <Gold.PLP.part.repulsive>
0.6576

> <Gold.PLP.ligand.clash>
0.0000

> <Gold.PLP.ligand.torsion>
0.2432

> <Gold.PLP.Chemscore.Hbond>
0.7971

> <Gold.PLP.Chemscore.CHOScore>
0.0000

> <Gold.PLP.Chemscore.Metal>
0.0000

> <Gold.Chemscore.Hbonds>
donor molecule, donor type, donor heavy atom, donor atom, acceptor molecule, acceptor atom, score
      P1  H  7989  7998       L1     4  0.01
      P1  H  8011  8017       L1     4  0.77

> <Gold.PLP.Chemscore.Internal.Correction>
0.0820

> <Gold.Rescore>
     Score         DG    S(hbond)    S(metal)    S(lipo)     H(rot)  DE(clash)    DE(int)     intcor
     13.47     -15.40       0.78        0.00      97.84       1.61       0.25       1.68       ----

> <Gold.Chemscore.Fitness>
13.4719

> <Gold.Chemscore.DG>
-15.4002

> <Gold.Chemscore.ZeroCoef>
-5.4800

> <Gold.Chemscore.Hbond>
0.7784

> <Gold.Chemscore.Metal>
0.0000

> <Gold.Chemscore.Lipo>
97.8385

> <Gold.Chemscore.Internal_Hbond>
0.0000

> <Gold.Chemscore.DEClash>
0.2483

> <Gold.Chemscore.DEInternal>
1.6800

> <Gold.Chemscore.Rot>
1.6119

> <Gold.Chemscore.Internal.Correction>
   9.000000E+99

> <Gold.Chemscore.Hbonds>
donor molecule, donor type, donor heavy atom, donor atom, acceptor molecule, acceptor atom, score
      P1  H  8011  8017       L1     4  0.76

> <Gold.Chemscore.Hbond.Weighted>
-2.5997

> <Gold.Chemscore.Metal.Weighted>
-0.0000

> <Gold.Chemscore.Lipo.Weighted>
-11.4471

> <Gold.Chemscore.Internal_Hbond.Weighted>
0.0000

> <Gold.Chemscore.DEClash.Weighted>
0.2483

> <Gold.Chemscore.DEInternal.Weighted>
1.6800

> <Gold.Chemscore.Rot.Weighted>
4.1266

> <Gold.Chemscore.Internal.Correction.Weighted>
   9.000000E+99

> <Gold.Protein.RotatedTorsions>
[ 6907 6896 6895 6894 ] final -133.72 input  -60.11 | X-H torsion
[ 7974 7965 7964 7962 ] final  120.45 input  175.53 | X-H torsion
[ 8008 7997 7996 7995 ] final  -48.17 input   59.86 | X-H torsion
[ 10167 10162 10161 10158 ] final  -76.82 input  -65.29 | X-H torsion
[ 10718 10713 10712 10709 ] final   16.29 input   66.30 | X-H torsion
[ 10763 10752 10751 10750 ] final   27.56 input  -60.55 | X-H torsion
[ 11005 11000 10999 10996 ] final  106.70 input  -57.11 | X-H torsion

> <Gold.Protein.ActiveResidues>
 VAL166  LYS551  ARG553  GLY616  TRP617  ASP618  TYR619  PRO620  LYS621  CYS622 
 ASP623  PHE694  ASN695  SER759  ASP760  ASP761  ALA762  ILE779  LEU786  VAL792 
 PHE793  MET794  SER795  GLU796  ALA797  LYS798  CYS799  TRP800  GLU811  SER814 

> <Gold.Protein.RotatedAtoms>
  150.9774  133.6281  159.2727 H   0  0  0  0  0  0  0  0  0  0  0  0  # atno 6907 bound_to 6896
  151.3548  135.0891  159.9424 H   0  0  0  0  0  0  0  0  0  0  0  0  # atno 6908 bound_to 6896
  152.5204  133.9359  159.7658 H   0  0  0  0  0  0  0  0  0  0  0  0  # atno 6909 bound_to 6896
  145.1311  139.3327  143.4665 H   0  0  0  0  0  0  0  0  0  0  0  0  # atno 7974 bound_to 7965
  154.4025  140.1328  156.4296 H   0  0  0  0  0  0  0  0  0  0  0  0  # atno 8008 bound_to 7997
  155.7564  140.3487  155.5156 H   0  0  0  0  0  0  0  0  0  0  0  0  # atno 8009 bound_to 7997
  155.8901  140.1001  157.1415 H   0  0  0  0  0  0  0  0  0  0  0  0  # atno 8010 bound_to 7997
  140.4824  143.2399  151.8037 H   0  0  0  0  0  0  0  0  0  0  0  0  # atno 10167 bound_to 10162
  157.0657  130.6327  149.5795 H   0  0  0  0  0  0  0  0  0  0  0  0  # atno 10718 bound_to 10713
  153.0547  135.6534  154.0605 H   0  0  0  0  0  0  0  0  0  0  0  0  # atno 10763 bound_to 10752
  154.0286  135.2913  155.3373 H   0  0  0  0  0  0  0  0  0  0  0  0  # atno 10764 bound_to 10752
  154.6856  135.5303  153.8389 H   0  0  0  0  0  0  0  0  0  0  0  0  # atno 10765 bound_to 10752
  139.8817  134.9377  156.5706 H   0  0  0  0  0  0  0  0  0  0  0  0  # atno 11005 bound_to 11000
  146.3514  140.1310  142.8597 LP  0  0  0  0  0  0  0  0  0  0  0  0  # atno 17320 bound_to 7965
  145.0635  140.9104  143.4925 LP  0  0  0  0  0  0  0  0  0  0  0  0  # atno 17321 bound_to 7965
  139.4836  144.4756  151.9371 LP  0  0  0  0  0  0  0  0  0  0  0  0  # atno 17342 bound_to 10162
  140.3841  144.2699  150.5905 LP  0  0  0  0  0  0  0  0  0  0  0  0  # atno 17343 bound_to 10162
  155.9965  130.5034  150.7499 LP  0  0  0  0  0  0  0  0  0  0  0  0  # atno 17370 bound_to 10713
  157.4919  131.0911  151.0417 LP  0  0  0  0  0  0  0  0  0  0  0  0  # atno 17371 bound_to 10713
  140.8101  133.8436  155.8802 LP  0  0  0  0  0  0  0  0  0  0  0  0  # atno 17394 bound_to 11000
  140.9514  134.1774  157.4725 LP  0  0  0  0  0  0  0  0  0  0  0  0  # atno 17395 bound_to 11000

$$$$
