AV-unprocessed.smi:1903|AV-procd|sdf|7722|dock9
  -GOLD-   22720 9463D 1   1.00000     0.00000
 Structure written by MMmdl.
 47 48  0  0  0  0  0  0  0  0  2 V2000
  143.8030  132.1372  149.4659 C   0  0  0  0  0  0  0  0  0  0  0  0
  144.9328  132.0751  150.4539 C   0  0  0  0  0  0  0  0  0  0  0  0
  145.2460  130.9173  151.0111 N   0  0  0  0  0  0  0  0  0  0  0  0
  146.2787  131.1977  151.8306 N   0  0  0  0  0  0  0  0  0  0  0  0
  146.8794  130.1315  152.6084 C   0  0  0  0  0  0  0  0  0  0  0  0
  146.6193  132.5357  151.7910 C   0  0  0  0  0  0  0  0  0  0  0  0
  147.7384  133.0938  152.6101 C   0  0  0  0  0  0  0  0  0  0  0  0
  145.7665  133.1401  150.9057 C   0  0  0  0  0  0  0  0  0  0  0  0
  145.7035  134.5879  150.4887 C   0  0  0  0  0  0  0  0  0  0  0  0
  145.1463  135.4322  151.6350 C   0  0  0  0  0  0  0  0  0  0  0  0
  143.9961  135.2498  152.0332 O   0  0  0  0  0  0  0  0  0  0  0  0
  145.9701  136.3542  152.1573 N   0  0  0  0  0  0  0  0  0  0  0  0
  145.6212  137.2759  153.2313 C   0  0  0  0  0  0  0  0  0  0  0  0
  146.6115  138.4539  153.3119 C   0  0  0  0  0  0  0  0  0  0  0  0
  146.0085  139.6612  153.9313 N   0  3  0  0  0  0  0  0  0  0  0  0
  145.5561  139.4095  155.3251 C   0  0  0  0  0  0  0  0  0  0  0  0
  144.8141  140.6276  155.9008 C   0  0  0  0  0  0  0  0  0  0  0  0
  145.6877  141.8863  155.8330 C   0  0  0  0  0  0  0  0  0  0  0  0
  146.1672  142.1106  154.3936 C   0  0  0  0  0  0  0  0  0  0  0  0
  146.8825  140.8626  153.8493 C   0  0  0  0  0  0  0  0  0  0  0  0
  144.1192  132.6220  148.5424 H   0  0  0  0  0  0  0  0  0  0  0  0
  142.9654  132.7062  149.8694 H   0  0  0  0  0  0  0  0  0  0  0  0
  143.4351  131.1436  149.2071 H   0  0  0  0  0  0  0  0  0  0  0  0
  146.8802  130.4022  153.6646 H   0  0  0  0  0  0  0  0  0  0  0  0
  147.9067  129.9732  152.2793 H   0  0  0  0  0  0  0  0  0  0  0  0
  146.3215  129.2023  152.4847 H   0  0  0  0  0  0  0  0  0  0  0  0
  147.8627  134.1628  152.4386 H   0  0  0  0  0  0  0  0  0  0  0  0
  148.6804  132.6049  152.3613 H   0  0  0  0  0  0  0  0  0  0  0  0
  147.5507  132.9461  153.6738 H   0  0  0  0  0  0  0  0  0  0  0  0
  146.6914  134.9641  150.2203 H   0  0  0  0  0  0  0  0  0  0  0  0
  145.0816  134.7264  149.6037 H   0  0  0  0  0  0  0  0  0  0  0  0
  146.8967  136.4371  151.7642 H   0  0  0  0  0  0  0  0  0  0  0  0
  144.6100  137.6292  153.0331 H   0  0  0  0  0  0  0  0  0  0  0  0
  145.5826  136.7415  154.1822 H   0  0  0  0  0  0  0  0  0  0  0  0
  147.4670  138.1403  153.9118 H   0  0  0  0  0  0  0  0  0  0  0  0
  147.0039  138.7008  152.3241 H   0  0  0  0  0  0  0  0  0  0  0  0
  144.8896  138.5461  155.3464 H   0  0  0  0  0  0  0  0  0  0  0  0
  146.4163  139.1620  155.9493 H   0  0  0  0  0  0  0  0  0  0  0  0
  143.8910  140.7917  155.3432 H   0  0  0  0  0  0  0  0  0  0  0  0
  144.5214  140.4327  156.9331 H   0  0  0  0  0  0  0  0  0  0  0  0
  145.1290  142.7539  156.1852 H   0  0  0  0  0  0  0  0  0  0  0  0
  146.5469  141.7767  156.4959 H   0  0  0  0  0  0  0  0  0  0  0  0
  145.3155  142.3520  153.7566 H   0  0  0  0  0  0  0  0  0  0  0  0
  146.8361  142.9705  154.3534 H   0  0  0  0  0  0  0  0  0  0  0  0
  147.8014  140.6839  154.4097 H   0  0  0  0  0  0  0  0  0  0  0  0
  147.1754  141.0508  152.8172 H   0  0  0  0  0  0  0  0  0  0  0  0
  145.1739  139.8666  153.4004 H   0  0  0  0  0  0  0  0  0  0  0  0
  1  2  1  0  0  0  0
  1 21  1  0  0  0  0
  1 22  1  0  0  0  0
  1 23  1  0  0  0  0
  2  8  1  0  0  0  0
  2  3  2  0  0  0  0
  3  4  1  0  0  0  0
  4  5  1  0  0  0  0
  4  6  1  0  0  0  0
  5 24  1  0  0  0  0
  5 25  1  0  0  0  0
  5 26  1  0  0  0  0
  6  7  1  0  0  0  0
  6  8  2  0  0  0  0
  7 27  1  0  0  0  0
  7 28  1  0  0  0  0
  7 29  1  0  0  0  0
  8  9  1  0  0  0  0
  9 10  1  0  0  0  0
  9 30  1  0  0  0  0
  9 31  1  0  0  0  0
 10 11  2  0  0  0  0
 10 12  1  0  0  0  0
 12 13  1  0  0  0  0
 12 32  1  0  0  0  0
 13 14  1  0  0  0  0
 13 33  1  0  0  0  0
 13 34  1  0  0  0  0
 14 15  1  0  0  0  0
 14 35  1  0  0  0  0
 14 36  1  0  0  0  0
 15 20  1  0  0  0  0
 15 16  1  0  0  0  0
 15 47  1  0  0  0  0
 16 17  1  0  0  0  0
 16 37  1  0  0  0  0
 16 38  1  0  0  0  0
 17 18  1  0  0  0  0
 17 39  1  0  0  0  0
 17 40  1  0  0  0  0
 18 19  1  0  0  0  0
 18 41  1  0  0  0  0
 18 42  1  0  0  0  0
 19 20  1  0  0  0  0
 19 43  1  0  0  0  0
 19 44  1  0  0  0  0
 20 45  1  0  0  0  0
 20 46  1  0  0  0  0
M  CHG  1  15   1
M  END
> <s_m_source_file>
AV-unprocessed.smi

> <i_m_source_file_index>
1903

> <i_lp_mmshare_version>
43012

> <i_f3d_flags>
0

> <s_epik_input>
W0NIM11jMW5uKFtDSDNdKWMoW0NIM10pYzFbQ0gyXUMoPU8pW05IXVtDSDJdW0NIMl1OMltDSDJdW0NIMl1bQ0gyXVtDSDJdW0NIMl0y

> <s_epik_cmdline>
J2VwaWtfcHl0aG9uJywgJy1waCcsICc3LjAnLCAnLXRuJywgJzgnLCAnLW1hJywgJzIwMCcsICctbWV0YWxfYmluZGluZycsICctaW1hZScsICc8aW5maWxlLm1hZT4nLCAnLW9tYWUnLCAnPG91dGZpbGUubWFlPic=

> <r_lp_tautomer_probability>
1

> <r_epik_Ionization_Penalty>
0.00456445

> <r_epik_Ionization_Penalty_Charging>
0.00240401

> <r_epik_Ionization_Penalty_Neutral>
0.00216044

> <r_epik_State_Penalty>
-0

> <r_epik_Charging_Adjusted_Penalty>
0.00240401

> <i_epik_Tot_Q>
1

> <i_epik_Tot_abs_Q>
1

> <r_epik_Metal_State_Penalty>
-0

> <b_epik_Metal_Only>
0

> <s_lp_Force_Field>
OPLS_2005

> <r_lp_Energy>
10.8117

> <b_lp_Chiralities_Consistent>
1

> <s_lp_Variant>
AV-unprocessed.smi:1903-1

> <Gold.Version>
5.8.1

> <Gold.Id.Protein>
6NUR|6NUR_protein|mol2

> <Gold.PLP.Fitness>
44.7602

> <Gold.PLP.PLP>
-36.5296

> <Gold.PLP.part.hbond>
-2.0000

> <Gold.PLP.part.metal>
0.0000

> <Gold.PLP.part.buried>
-5.3339

> <Gold.PLP.part.nonpolar>
-28.9042

> <Gold.PLP.part.repulsive>
0.3122

> <Gold.PLP.ligand.clash>
0.0000

> <Gold.PLP.ligand.torsion>
0.4099

> <Gold.PLP.Chemscore.Hbond>
3.0000

> <Gold.PLP.Chemscore.CHOScore>
0.0000

> <Gold.PLP.Chemscore.Metal>
0.0000

> <Gold.Chemscore.Hbonds>
donor molecule, donor type, donor heavy atom, donor atom, acceptor molecule, acceptor atom, score
      L1  H    12    32       P1  7948  0.98
      L1  H    15    47       P1 10175  2.00

> <Gold.PLP.Chemscore.Internal.Correction>
0.0504

> <Gold.Rescore>
     Score         DG    S(hbond)    S(metal)    S(lipo)     H(rot)  DE(clash)    DE(int)     intcor
     16.56     -17.79       1.99        0.00      84.37       1.65       0.19       1.03       ----

> <Gold.Chemscore.Fitness>
16.5645

> <Gold.Chemscore.DG>
-17.7874

> <Gold.Chemscore.ZeroCoef>
-5.4800

> <Gold.Chemscore.Hbond>
1.9914

> <Gold.Chemscore.Metal>
0.0000

> <Gold.Chemscore.Lipo>
84.3727

> <Gold.Chemscore.Internal_Hbond>
0.0000

> <Gold.Chemscore.DEClash>
0.1892

> <Gold.Chemscore.DEInternal>
1.0337

> <Gold.Chemscore.Rot>
1.6467

> <Gold.Chemscore.Internal.Correction>
   9.000000E+99

> <Gold.Chemscore.Hbonds>
donor molecule, donor type, donor heavy atom, donor atom, acceptor molecule, acceptor atom, score
      L1  H    12    32       P1  7948  0.89
      L1  H    15    47       P1 10175  1.00

> <Gold.Chemscore.Hbond.Weighted>
-6.6513

> <Gold.Chemscore.Metal.Weighted>
-0.0000

> <Gold.Chemscore.Lipo.Weighted>
-9.8716

> <Gold.Chemscore.Internal_Hbond.Weighted>
0.0000

> <Gold.Chemscore.DEClash.Weighted>
0.1892

> <Gold.Chemscore.DEInternal.Weighted>
1.0337

> <Gold.Chemscore.Rot.Weighted>
4.2155

> <Gold.Chemscore.Internal.Correction.Weighted>
   9.000000E+99

> <Gold.Protein.RotatedTorsions>
[ 6907 6896 6895 6894 ] final  151.05 input  -60.11 | X-H torsion
[ 7974 7965 7964 7962 ] final   58.60 input  175.53 | X-H torsion
[ 8008 7997 7996 7995 ] final  144.46 input   59.86 | X-H torsion
[ 10167 10162 10161 10158 ] final   95.05 input  -65.29 | X-H torsion
[ 10718 10713 10712 10709 ] final -115.31 input   66.30 | X-H torsion
[ 10763 10752 10751 10750 ] final  133.27 input  -60.55 | X-H torsion
[ 11005 11000 10999 10996 ] final  117.34 input  -57.11 | X-H torsion

> <Gold.Protein.ActiveResidues>
 VAL166  LYS551  ARG553  GLY616  TRP617  ASP618  TYR619  PRO620  LYS621  CYS622 
 ASP623  PHE694  ASN695  SER759  ASP760  ASP761  ALA762  ILE779  LEU786  VAL792 
 PHE793  MET794  SER795  GLU796  ALA797  LYS798  CYS799  TRP800  GLU811  SER814 

> <Gold.Protein.RotatedAtoms>
  152.1060  133.4275  159.4608 H   0  0  0  0  0  0  0  0  0  0  0  0  # atno 6907 bound_to 6896
  150.6865  134.2705  159.4595 H   0  0  0  0  0  0  0  0  0  0  0  0  # atno 6908 bound_to 6896
  152.0569  134.9618  160.0625 H   0  0  0  0  0  0  0  0  0  0  0  0  # atno 6909 bound_to 6896
  145.9164  139.3695  143.0504 H   0  0  0  0  0  0  0  0  0  0  0  0  # atno 7974 bound_to 7965
  156.2907  140.2235  156.5057 H   0  0  0  0  0  0  0  0  0  0  0  0  # atno 8008 bound_to 7997
  154.7652  140.0470  157.1028 H   0  0  0  0  0  0  0  0  0  0  0  0  # atno 8009 bound_to 7997
  154.9942  140.3094  155.4897 H   0  0  0  0  0  0  0  0  0  0  0  0  # atno 8010 bound_to 7997
  139.8026  144.6807  150.9745 H   0  0  0  0  0  0  0  0  0  0  0  0  # atno 10167 bound_to 10162
  156.0887  130.6073  150.8888 H   0  0  0  0  0  0  0  0  0  0  0  0  # atno 10718 bound_to 10713
  153.8043  135.3137  155.3393 H   0  0  0  0  0  0  0  0  0  0  0  0  # atno 10763 bound_to 10752
  154.8076  135.4687  154.0437 H   0  0  0  0  0  0  0  0  0  0  0  0  # atno 10764 bound_to 10752
  153.1794  135.6891  153.8586 H   0  0  0  0  0  0  0  0  0  0  0  0  # atno 10765 bound_to 10752
  139.9071  134.9609  156.7336 H   0  0  0  0  0  0  0  0  0  0  0  0  # atno 11005 bound_to 11000
  145.8606  140.9477  143.0702 LP  0  0  0  0  0  0  0  0  0  0  0  0  # atno 17320 bound_to 7965
  144.6748  140.0525  143.7478 LP  0  0  0  0  0  0  0  0  0  0  0  0  # atno 17321 bound_to 7965
  140.7820  143.4266  151.0758 LP  0  0  0  0  0  0  0  0  0  0  0  0  # atno 17342 bound_to 10162
  139.7937  143.8181  152.3155 LP  0  0  0  0  0  0  0  0  0  0  0  0  # atno 17343 bound_to 10162
  157.6029  131.0940  150.8929 LP  0  0  0  0  0  0  0  0  0  0  0  0  # atno 17370 bound_to 10713
  156.9082  130.5271  149.5281 LP  0  0  0  0  0  0  0  0  0  0  0  0  # atno 17371 bound_to 10713
  140.6906  133.9394  155.7964 LP  0  0  0  0  0  0  0  0  0  0  0  0  # atno 17394 bound_to 11000
  141.0444  134.0574  157.3862 LP  0  0  0  0  0  0  0  0  0  0  0  0  # atno 17395 bound_to 11000

$$$$
