AV-unprocessed.smi:160|AV-procd|sdf|1367|dock9
  -GOLD-   2262019 83D 1   1.00000     0.00000
 Structure written by MMmdl.
 28 29  0  0  0  0  0  0  0  0  2 V2000
  147.9987  137.7885  159.1707 N   0  5  0  0  0  0  0  0  0  0  0  0
  148.8711  136.7685  159.0145 C   0  0  0  0  0  0  0  0  0  0  0  0
  148.8516  135.6950  159.6161 O   0  0  0  0  0  0  0  0  0  0  0  0
  149.9537  137.0220  157.9925 C   0  0  0  0  0  0  0  0  0  0  0  0
  151.0098  136.1624  157.8645 N   0  0  0  0  0  0  0  0  0  0  0  0
  151.6663  136.7775  156.8900 C   0  0  0  0  0  0  0  0  0  0  0  0
  151.0782  137.8940  156.4498 N   0  0  0  0  0  0  0  0  0  0  0  0
  151.5271  138.8597  155.3916 C   0  0  2  0  0  0  0  0  0  0  0  0
  151.6558  140.1108  155.9929 O   0  0  0  0  0  0  0  0  0  0  0  0
  150.5924  140.9860  155.6107 C   0  0  2  0  0  0  0  0  0  0  0  0
  149.9406  141.5982  156.8621 C   0  0  0  0  0  0  0  0  0  0  0  0
  150.5463  142.8353  157.1723 O   0  0  0  0  0  0  0  0  0  0  0  0
  149.6229  140.1377  154.7701 C   0  0  1  0  0  0  0  0  0  0  0  0
  149.1054  140.8921  153.6922 O   0  0  0  0  0  0  0  0  0  0  0  0
  150.5073  139.0140  154.2520 C   0  0  2  0  0  0  0  0  0  0  0  0
  149.7594  137.8420  153.9819 O   0  0  0  0  0  0  0  0  0  0  0  0
  149.9472  138.0783  157.1744 N   0  0  0  0  0  0  0  0  0  0  0  0
  152.4923  138.4712  155.0651 H   0  0  0  0  0  0  0  0  0  0  0  0
  151.0253  141.7674  154.9830 H   0  0  0  0  0  0  0  0  0  0  0  0
  148.8092  139.7487  155.3841 H   0  0  0  0  0  0  0  0  0  0  0  0
  151.0522  139.3292  153.3606 H   0  0  0  0  0  0  0  0  0  0  0  0
  147.5595  138.1877  158.3327 H   0  0  0  0  0  0  0  0  0  0  0  0
  152.5969  136.4051  156.4879 H   0  0  0  0  0  0  0  0  0  0  0  0
  148.8835  141.7917  156.6773 H   0  0  0  0  0  0  0  0  0  0  0  0
  150.0004  140.9237  157.7162 H   0  0  0  0  0  0  0  0  0  0  0  0
  150.0217  143.5262  156.7977 H   0  0  0  0  0  0  0  0  0  0  0  0
  149.1494  140.3605  152.9121 H   0  0  0  0  0  0  0  0  0  0  0  0
  149.8292  137.6447  153.0607 H   0  0  0  0  0  0  0  0  0  0  0  0
  1  2  1  0  0  0  0
  1 22  1  0  0  0  0
  2  3  2  0  0  0  0
  2  4  1  0  0  0  0
  4 17  2  0  0  0  0
  4  5  1  0  0  0  0
  5  6  2  0  0  0  0
  6  7  1  0  0  0  0
  6 23  1  0  0  0  0
  7  8  1  0  0  0  0
  7 17  1  0  0  0  0
  8 18  1  0  0  0  0
  8 15  1  0  0  0  0
  8  9  1  0  0  0  0
  9 10  1  0  0  0  0
 10 19  1  0  0  0  0
 10 11  1  0  0  0  0
 10 13  1  0  0  0  0
 11 12  1  0  0  0  0
 11 24  1  0  0  0  0
 11 25  1  0  0  0  0
 12 26  1  0  0  0  0
 13 20  1  0  0  0  0
 13 14  1  0  0  0  0
 13 15  1  0  0  0  0
 14 27  1  0  0  0  0
 15 21  1  0  0  0  0
 15 16  1  0  0  0  0
 16 28  1  0  0  0  0
M  CHG  1   1  -1
M  END
> <s_m_source_file>
AV-unprocessed.smi

> <i_m_source_file_index>
160

> <i_lp_mmshare_version>
43012

> <i_f3d_flags>
0

> <s_epik_input>
W05IMl1DKD1PKWMxbltjSF1uKG4xKVtDQEBIXTJPW0NASF0oW0NIMl1bT0hdKVtDQEBIXShbT0hdKVtDQEhdMltPSF0=

> <s_epik_cmdline>
J2VwaWtfcHl0aG9uJywgJy1waCcsICc3LjAnLCAnLXRuJywgJzgnLCAnLW1hJywgJzIwMCcsICctbWV0YWxfYmluZGluZycsICctaW1hZScsICc8aW5maWxlLm1hZT4nLCAnLW9tYWUnLCAnPG91dGZpbGUubWFlPic=

> <r_lp_tautomer_probability>
1

> <r_epik_Ionization_Penalty>
6.6993

> <r_epik_Ionization_Penalty_Charging>
6.6993

> <r_epik_Ionization_Penalty_Neutral>
6.01698e-06

> <r_epik_State_Penalty>
6.69929

> <r_epik_Charging_Adjusted_Penalty>
13.3986

> <i_epik_Tot_Q>
-1

> <i_epik_Tot_abs_Q>
1

> <r_epik_Metal_State_Penalty>
2.62798

> <b_epik_Metal_Only>
1

> <s_epik_Chemistry_Notes>
This compound contains an acetal/aminal-like group ( X-CH(R)-Y where X, Y are N, S, or O) that may be acid/base labile, releasing an aldehyde.

> <s_lp_Force_Field>
OPLS_2005

> <r_lp_Energy>
43.4077

> <b_lp_Chiralities_Consistent>
1

> <s_lp_Variant>
AV-unprocessed.smi:160-25

> <Gold.Version>
5.8.1

> <Gold.Id.Protein>
6NUR|6NUR_protein|mol2

> <Gold.PLP.Fitness>
37.6022

> <Gold.PLP.PLP>
-25.3832

> <Gold.PLP.part.hbond>
-7.7261

> <Gold.PLP.part.metal>
0.0000

> <Gold.PLP.part.buried>
-4.5466

> <Gold.PLP.part.nonpolar>
-14.4932

> <Gold.PLP.part.repulsive>
0.0000

> <Gold.PLP.ligand.clash>
0.0000

> <Gold.PLP.ligand.torsion>
0.4563

> <Gold.PLP.Chemscore.Hbond>
4.3731

> <Gold.PLP.Chemscore.CHOScore>
0.0000

> <Gold.PLP.Chemscore.Metal>
0.0000

> <Gold.Chemscore.Hbonds>
donor molecule, donor type, donor heavy atom, donor atom, acceptor molecule, acceptor atom, score
      L1  H    12    26       P1  8028  1.00
      L1  H    14    27       P1  7957  1.00
      L1  H    16    28       P1  7948  0.69
      P1  H  6896  6908       L1     3  0.80
      P1  H  6934  6947       L1     1  0.34
      P1  H  8011  8017       L1    14  0.07

> <Gold.PLP.Chemscore.Internal.Correction>
0.0124

> <Gold.Rescore>
     Score         DG    S(hbond)    S(metal)    S(lipo)     H(rot)  DE(clash)    DE(int)     intcor
     10.01     -10.47       3.62        0.00      27.79       4.04       0.00       0.46       ----

> <Gold.Chemscore.Fitness>
10.0126

> <Gold.Chemscore.DG>
-10.4746

> <Gold.Chemscore.ZeroCoef>
-5.4800

> <Gold.Chemscore.Hbond>
3.6187

> <Gold.Chemscore.Metal>
0.0000

> <Gold.Chemscore.Lipo>
27.7878

> <Gold.Chemscore.Internal_Hbond>
0.0000

> <Gold.Chemscore.DEClash>
0.0000

> <Gold.Chemscore.DEInternal>
0.4620

> <Gold.Chemscore.Rot>
4.0403

> <Gold.Chemscore.Internal.Correction>
   9.000000E+99

> <Gold.Chemscore.Hbonds>
donor molecule, donor type, donor heavy atom, donor atom, acceptor molecule, acceptor atom, score
      L1  H    12    26       P1  8028  0.97
      L1  H    14    27       P1  7957  0.97
      L1  H    16    28       P1  7948  0.34
      P1  H  6896  6908       L1     3  0.67
      P1  H  6934  6947       L1     1  0.07

> <Gold.Chemscore.Hbond.Weighted>
-12.0865

> <Gold.Chemscore.Metal.Weighted>
-0.0000

> <Gold.Chemscore.Lipo.Weighted>
-3.2512

> <Gold.Chemscore.Internal_Hbond.Weighted>
0.0000

> <Gold.Chemscore.DEClash.Weighted>
0.0000

> <Gold.Chemscore.DEInternal.Weighted>
0.4620

> <Gold.Chemscore.Rot.Weighted>
10.3431

> <Gold.Chemscore.Internal.Correction.Weighted>
   9.000000E+99

> <Gold.Protein.RotatedTorsions>
[ 6907 6896 6895 6894 ] final -179.35 input  -60.11 | X-H torsion
[ 7974 7965 7964 7962 ] final -175.96 input  175.53 | X-H torsion
[ 8008 7997 7996 7995 ] final  -30.02 input   59.86 | X-H torsion
[ 10167 10162 10161 10158 ] final  -32.96 input  -65.29 | X-H torsion
[ 10718 10713 10712 10709 ] final  -74.26 input   66.30 | X-H torsion
[ 10763 10752 10751 10750 ] final  110.75 input  -60.55 | X-H torsion
[ 11005 11000 10999 10996 ] final   31.74 input  -57.11 | X-H torsion

> <Gold.Protein.ActiveResidues>
 VAL166  LYS551  ARG553  GLY616  TRP617  ASP618  TYR619  PRO620  LYS621  CYS622 
 ASP623  PHE694  ASN695  SER759  ASP760  ASP761  ALA762  ILE779  LEU786  VAL792 
 PHE793  MET794  SER795  GLU796  ALA797  LYS798  CYS799  TRP800  GLU811  SER814 

> <Gold.Protein.RotatedAtoms>
  151.6520  133.3320  159.3153 H   0  0  0  0  0  0  0  0  0  0  0  0  # atno 6907 bound_to 6896
  150.7956  134.7016  159.6563 H   0  0  0  0  0  0  0  0  0  0  0  0  # atno 6908 bound_to 6896
  152.4042  134.6239  160.0109 H   0  0  0  0  0  0  0  0  0  0  0  0  # atno 6909 bound_to 6896
  144.7127  140.1243  143.6403 H   0  0  0  0  0  0  0  0  0  0  0  0  # atno 7974 bound_to 7965
  154.4266  140.1802  156.1341 H   0  0  0  0  0  0  0  0  0  0  0  0  # atno 8008 bound_to 7997
  156.0044  140.3357  155.6853 H   0  0  0  0  0  0  0  0  0  0  0  0  # atno 8009 bound_to 7997
  155.6198  140.0658  157.2672 H   0  0  0  0  0  0  0  0  0  0  0  0  # atno 8010 bound_to 7997
  140.7212  143.3656  151.1878 H   0  0  0  0  0  0  0  0  0  0  0  0  # atno 10167 bound_to 10162
  156.0249  130.4413  150.2866 H   0  0  0  0  0  0  0  0  0  0  0  0  # atno 10718 bound_to 10713
  153.4534  135.3738  155.2297 H   0  0  0  0  0  0  0  0  0  0  0  0  # atno 10763 bound_to 10752
  154.8756  135.3891  154.4011 H   0  0  0  0  0  0  0  0  0  0  0  0  # atno 10764 bound_to 10752
  153.4573  135.7086  153.6135 H   0  0  0  0  0  0  0  0  0  0  0  0  # atno 10765 bound_to 10752
  140.2807  134.2976  155.7801 H   0  0  0  0  0  0  0  0  0  0  0  0  # atno 11005 bound_to 11000
  145.9343  139.2627  143.1306 LP  0  0  0  0  0  0  0  0  0  0  0  0  # atno 17320 bound_to 7965
  145.9490  140.8923  143.0269 LP  0  0  0  0  0  0  0  0  0  0  0  0  # atno 17321 bound_to 7965
  139.7217  143.9213  152.2987 LP  0  0  0  0  0  0  0  0  0  0  0  0  # atno 17342 bound_to 10162
  139.8972  144.6932  150.8705 LP  0  0  0  0  0  0  0  0  0  0  0  0  # atno 17343 bound_to 10162
  157.0969  131.0185  151.3100 LP  0  0  0  0  0  0  0  0  0  0  0  0  # atno 17370 bound_to 10713
  157.4810  130.7765  149.7414 LP  0  0  0  0  0  0  0  0  0  0  0  0  # atno 17371 bound_to 10713
  141.2163  133.7523  156.9476 LP  0  0  0  0  0  0  0  0  0  0  0  0  # atno 17394 bound_to 11000
  140.1286  134.9370  157.2305 LP  0  0  0  0  0  0  0  0  0  0  0  0  # atno 17395 bound_to 11000

$$$$
