AV-unprocessed.smi:2459|AV-procd|sdf|9712|dock1
  -GOLD-   2272013353D 1   1.00000     0.00000
 Structure written by MMmdl.
 47 48  0  0  0  0  0  0  0  0  2 V2000
  156.0227  140.9125  167.4985 C   0  0  0  0  0  0  0  0  0  0  0  0
  157.1699  140.8966  166.6514 O   0  0  0  0  0  0  0  0  0  0  0  0
  157.0706  140.2515  165.3752 C   0  0  0  0  0  0  0  0  0  0  0  0
  158.4772  140.3897  164.7609 C   0  0  0  0  0  0  0  0  0  0  0  0
  156.7538  138.7471  165.5675 C   0  0  0  0  0  0  0  0  0  0  0  0
  156.0446  140.9983  164.4840 C   0  0  0  0  0  0  0  0  0  0  0  0
  155.4592  141.9789  164.9430 O   0  0  0  0  0  0  0  0  0  0  0  0
  155.8434  140.5213  163.2396 N   0  0  0  0  0  0  0  0  0  0  0  0
  154.9567  140.9844  162.2295 C   0  0  0  0  0  0  0  0  0  0  0  0
  154.8698  140.4300  160.9306 C   0  0  0  0  0  0  0  0  0  0  0  0
  154.0112  140.9546  160.0308 N   0  3  0  0  0  0  0  0  0  0  0  0
  153.2020  142.0113  160.2862 C   0  0  0  0  0  0  0  0  0  0  0  0
  152.3654  142.4864  159.2587 N   0  0  0  0  0  0  0  0  0  0  0  0
  152.7212  143.8270  158.7978 C   0  0  0  0  0  0  0  0  0  0  0  0
  151.6025  144.4226  157.9260 C   0  0  0  0  0  0  0  0  0  0  0  0
  151.2442  143.4775  156.7682 C   0  0  0  0  0  0  0  0  0  0  0  0
  150.9033  142.0798  157.3092 C   0  0  0  0  0  0  0  0  0  0  0  0
  152.0417  141.5396  158.1915 C   0  0  0  0  0  0  0  0  0  0  0  0
  153.2478  142.6097  161.5721 C   0  0  0  0  0  0  0  0  0  0  0  0
  152.3577  143.7840  161.9442 C   0  0  0  0  0  0  0  0  0  0  0  0
  154.1368  142.0898  162.5386 C   0  0  0  0  0  0  0  0  0  0  0  0
  156.2736  141.4381  168.4198 H   0  0  0  0  0  0  0  0  0  0  0  0
  155.7065  139.9081  167.7776 H   0  0  0  0  0  0  0  0  0  0  0  0
  155.1775  141.4358  167.0513 H   0  0  0  0  0  0  0  0  0  0  0  0
  158.5233  139.9482  163.7645 H   0  0  0  0  0  0  0  0  0  0  0  0
  159.2245  139.8871  165.3760 H   0  0  0  0  0  0  0  0  0  0  0  0
  158.7836  141.4332  164.6757 H   0  0  0  0  0  0  0  0  0  0  0  0
  156.8081  138.2077  164.6209 H   0  0  0  0  0  0  0  0  0  0  0  0
  155.7616  138.5731  165.9838 H   0  0  0  0  0  0  0  0  0  0  0  0
  157.4721  138.2832  166.2441 H   0  0  0  0  0  0  0  0  0  0  0  0
  156.4333  139.7462  162.9733 H   0  0  0  0  0  0  0  0  0  0  0  0
  155.4569  139.6028  160.5620 H   0  0  0  0  0  0  0  0  0  0  0  0
  152.9187  144.4878  159.6415 H   0  0  0  0  0  0  0  0  0  0  0  0
  153.6469  143.7675  158.2236 H   0  0  0  0  0  0  0  0  0  0  0  0
  150.7180  144.6008  158.5393 H   0  0  0  0  0  0  0  0  0  0  0  0
  151.9095  145.3934  157.5357 H   0  0  0  0  0  0  0  0  0  0  0  0
  150.4045  143.8783  156.1996 H   0  0  0  0  0  0  0  0  0  0  0  0
  152.0852  143.4083  156.0771 H   0  0  0  0  0  0  0  0  0  0  0  0
  149.9818  142.1282  157.8911 H   0  0  0  0  0  0  0  0  0  0  0  0
  150.7125  141.3941  156.4834 H   0  0  0  0  0  0  0  0  0  0  0  0
  152.9276  141.3630  157.5798 H   0  0  0  0  0  0  0  0  0  0  0  0
  151.7507  140.5810  158.6231 H   0  0  0  0  0  0  0  0  0  0  0  0
  152.2008  143.8256  163.0224 H   0  0  0  0  0  0  0  0  0  0  0  0
  151.3776  143.7058  161.4734 H   0  0  0  0  0  0  0  0  0  0  0  0
  152.8173  144.7225  161.6348 H   0  0  0  0  0  0  0  0  0  0  0  0
  154.1857  142.5373  163.5211 H   0  0  0  0  0  0  0  0  0  0  0  0
  153.9779  140.5357  159.1012 H   0  0  0  0  0  0  0  0  0  0  0  0
  1  2  1  0  0  0  0
  1 22  1  0  0  0  0
  1 23  1  0  0  0  0
  1 24  1  0  0  0  0
  2  3  1  0  0  0  0
  3  4  1  0  0  0  0
  3  5  1  0  0  0  0
  3  6  1  0  0  0  0
  4 25  1  0  0  0  0
  4 26  1  0  0  0  0
  4 27  1  0  0  0  0
  5 28  1  0  0  0  0
  5 29  1  0  0  0  0
  5 30  1  0  0  0  0
  6  7  2  0  0  0  0
  6  8  1  0  0  0  0
  8  9  1  0  0  0  0
  8 31  1  0  0  0  0
  9 21  1  0  0  0  0
  9 10  2  0  0  0  0
 10 11  1  0  0  0  0
 10 32  1  0  0  0  0
 11 12  2  0  0  0  0
 11 47  1  0  0  0  0
 12 13  1  0  0  0  0
 12 19  1  0  0  0  0
 13 18  1  0  0  0  0
 13 14  1  0  0  0  0
 14 15  1  0  0  0  0
 14 33  1  0  0  0  0
 14 34  1  0  0  0  0
 15 16  1  0  0  0  0
 15 35  1  0  0  0  0
 15 36  1  0  0  0  0
 16 17  1  0  0  0  0
 16 37  1  0  0  0  0
 16 38  1  0  0  0  0
 17 18  1  0  0  0  0
 17 39  1  0  0  0  0
 17 40  1  0  0  0  0
 18 41  1  0  0  0  0
 18 42  1  0  0  0  0
 19 20  1  0  0  0  0
 19 21  2  0  0  0  0
 20 43  1  0  0  0  0
 20 44  1  0  0  0  0
 20 45  1  0  0  0  0
 21 46  1  0  0  0  0
M  CHG  1  11   1
M  END
> <s_m_source_file>
AV-unprocessed.smi

> <i_m_source_file_index>
2459

> <i_lp_mmshare_version>
43012

> <i_f3d_flags>
0

> <s_epik_input>
W0NIM11PQyhbQ0gzXSkoW0NIM10pQyg9TylbTkhdYzFbY0hdbmMoYyhbQ0gzXSlbY0hdMSlOMltDSDJdW0NIMl1bQ0gyXVtDSDJdW0NIMl0y

> <s_epik_cmdline>
J2VwaWtfcHl0aG9uJywgJy1waCcsICc3LjAnLCAnLXRuJywgJzgnLCAnLW1hJywgJzIwMCcsICctbWV0YWxfYmluZGluZycsICctaW1hZScsICc8aW5maWxlLm1hZT4nLCAnLW9tYWUnLCAnPG91dGZpbGUubWFlPic=

> <r_lp_tautomer_probability>
0.999994

> <r_epik_Ionization_Penalty>
1.22605

> <r_epik_Ionization_Penalty_Charging>
1.22604

> <r_epik_Ionization_Penalty_Neutral>
3.07462e-06

> <r_epik_State_Penalty>
0.10642

> <r_epik_Charging_Adjusted_Penalty>
1.33246

> <i_epik_Tot_Q>
1

> <i_epik_Tot_abs_Q>
1

> <r_epik_Metal_State_Penalty>
0.12082

> <b_epik_Metal_Only>
0

> <s_lp_Force_Field>
OPLS_2005

> <r_lp_Energy>
38.0416

> <b_lp_Chiralities_Consistent>
1

> <s_lp_Variant>
AV-unprocessed.smi:2459-1

> <Gold.Version>
5.8.1

> <Gold.Id.Protein>
6NUR|6NUR_protein|mol2

> <Gold.PLP.Fitness>
42.1609

> <Gold.PLP.PLP>
-42.7769

> <Gold.PLP.part.hbond>
-0.1380

> <Gold.PLP.part.metal>
0.0000

> <Gold.PLP.part.buried>
-2.3007

> <Gold.PLP.part.nonpolar>
-39.3334

> <Gold.PLP.part.repulsive>
0.0552

> <Gold.PLP.ligand.clash>
0.1353

> <Gold.PLP.ligand.torsion>
0.3926

> <Gold.PLP.Chemscore.Hbond>
0.0000

> <Gold.PLP.Chemscore.CHOScore>
0.0000

> <Gold.PLP.Chemscore.Metal>
0.0000

> <Gold.PLP.Chemscore.Internal.Correction>
0.3044

> <Gold.Rescore>
     Score         DG    S(hbond)    S(metal)    S(lipo)     H(rot)  DE(clash)    DE(int)     intcor
     13.34     -16.82       0.00        0.00     126.24       1.34       0.40       3.08       ----

> <Gold.Chemscore.Fitness>
13.3398

> <Gold.Chemscore.DG>
-16.8157

> <Gold.Chemscore.ZeroCoef>
-5.4800

> <Gold.Chemscore.Hbond>
0.0000

> <Gold.Chemscore.Metal>
0.0000

> <Gold.Chemscore.Lipo>
126.2417

> <Gold.Chemscore.Internal_Hbond>
0.0000

> <Gold.Chemscore.DEClash>
0.3963

> <Gold.Chemscore.DEInternal>
3.0796

> <Gold.Chemscore.Rot>
1.3416

> <Gold.Chemscore.Internal.Correction>
   9.000000E+99

> <Gold.Chemscore.Hbond.Weighted>
-0.0000

> <Gold.Chemscore.Metal.Weighted>
-0.0000

> <Gold.Chemscore.Lipo.Weighted>
-14.7703

> <Gold.Chemscore.Internal_Hbond.Weighted>
0.0000

> <Gold.Chemscore.DEClash.Weighted>
0.3963

> <Gold.Chemscore.DEInternal.Weighted>
3.0796

> <Gold.Chemscore.Rot.Weighted>
3.4346

> <Gold.Chemscore.Internal.Correction.Weighted>
   9.000000E+99

> <Gold.Protein.RotatedTorsions>
[ 6907 6896 6895 6894 ] final   45.45 input  -60.11 | X-H torsion
[ 7974 7965 7964 7962 ] final  -95.37 input  175.53 | X-H torsion
[ 8008 7997 7996 7995 ] final  -49.63 input   59.86 | X-H torsion
[ 10167 10162 10161 10158 ] final  -96.91 input  -65.29 | X-H torsion
[ 10718 10713 10712 10709 ] final -167.91 input   66.30 | X-H torsion
[ 10763 10752 10751 10750 ] final -113.80 input  -60.55 | X-H torsion
[ 11005 11000 10999 10996 ] final   86.29 input  -57.11 | X-H torsion

> <Gold.Protein.ActiveResidues>
 VAL166  LYS551  ARG553  GLY616  TRP617  ASP618  TYR619  PRO620  LYS621  CYS622 
 ASP623  PHE694  ASN695  SER759  ASP760  ASP761  ALA762  ILE779  LEU786  VAL792 
 PHE793  MET794  SER795  GLU796  ALA797  LYS798  CYS799  TRP800  GLU811  SER814 

> <Gold.Protein.RotatedAtoms>
  152.2447  134.8193  160.0454 H   0  0  0  0  0  0  0  0  0  0  0  0  # atno 6907 bound_to 6896
  151.8895  133.3508  159.3801 H   0  0  0  0  0  0  0  0  0  0  0  0  # atno 6908 bound_to 6896
  150.7064  134.4864  159.5539 H   0  0  0  0  0  0  0  0  0  0  0  0  # atno 6909 bound_to 6896
  145.3610  140.9491  143.2501 H   0  0  0  0  0  0  0  0  0  0  0  0  # atno 7974 bound_to 7965
  154.4047  140.1292  156.4533 H   0  0  0  0  0  0  0  0  0  0  0  0  # atno 8008 bound_to 7997
  155.7345  140.3491  155.5055 H   0  0  0  0  0  0  0  0  0  0  0  0  # atno 8009 bound_to 7997
  155.9097  140.1033  157.1279 H   0  0  0  0  0  0  0  0  0  0  0  0  # atno 8010 bound_to 7997
  140.2889  143.3234  152.0366 H   0  0  0  0  0  0  0  0  0  0  0  0  # atno 10167 bound_to 10162
  156.6893  130.9153  151.3067 H   0  0  0  0  0  0  0  0  0  0  0  0  # atno 10718 bound_to 10713
  154.8412  135.4441  154.1406 H   0  0  0  0  0  0  0  0  0  0  0  0  # atno 10763 bound_to 10752
  153.2592  135.6934  153.7603 H   0  0  0  0  0  0  0  0  0  0  0  0  # atno 10764 bound_to 10752
  153.6886  135.3391  155.3172 H   0  0  0  0  0  0  0  0  0  0  0  0  # atno 10765 bound_to 10752
  139.8948  134.8345  156.2700 H   0  0  0  0  0  0  0  0  0  0  0  0  # atno 11005 bound_to 11000
  144.8646  139.5126  143.6796 LP  0  0  0  0  0  0  0  0  0  0  0  0  # atno 17320 bound_to 7965
  146.2927  139.7187  142.9149 LP  0  0  0  0  0  0  0  0  0  0  0  0  # atno 17321 bound_to 7965
  139.4943  144.6539  151.6616 LP  0  0  0  0  0  0  0  0  0  0  0  0  # atno 17342 bound_to 10162
  140.5749  144.0046  150.6236 LP  0  0  0  0  0  0  0  0  0  0  0  0  # atno 17343 bound_to 10162
  157.7015  130.9338  150.0799 LP  0  0  0  0  0  0  0  0  0  0  0  0  # atno 17370 bound_to 10713
  156.1810  130.3650  149.9036 LP  0  0  0  0  0  0  0  0  0  0  0  0  # atno 17371 bound_to 10713
  141.0107  133.7097  156.1107 LP  0  0  0  0  0  0  0  0  0  0  0  0  # atno 17394 bound_to 11000
  140.7372  134.4190  157.5559 LP  0  0  0  0  0  0  0  0  0  0  0  0  # atno 17395 bound_to 11000

$$$$
