AV-unprocessed.smi:703|AV-procd|sdf|3429|dock6
  -GOLD-   22720 0413D 1   1.00000     0.00000
 Structure written by MMmdl.
 38 39  0  0  0  0  0  0  0  0  2 V2000
  145.1710  134.2538  151.3230 C   0  0  0  0  0  0  0  0  0  0  0  0
  145.6058  134.5948  152.7545 C   0  0  0  0  0  0  0  0  0  0  0  0
  147.0656  134.4344  152.9497 N   0  3  2  0  0  0  0  0  0  0  0  0
  147.5669  133.0511  152.8439 C   0  0  0  0  0  0  0  0  0  0  0  0
  148.9691  133.0955  153.4562 C   0  0  2  0  0  0  0  0  0  0  0  0
  149.4410  131.7471  154.0163 C   0  0  0  0  0  0  0  0  0  0  0  0
  148.8909  134.2171  154.5089 C   0  0  1  0  0  0  0  0  0  0  0  0
  150.0230  135.1369  154.3626 N   0  0  0  0  0  0  0  0  0  0  0  0
  150.2876  136.3116  155.5961 S   0  0  0  0  0  0  0  0  0  0  0  0
  149.1767  136.1981  156.5534 O   0  0  0  0  0  0  0  0  0  0  0  0
  151.6754  136.1613  156.0601 O   0  0  0  0  0  0  0  0  0  0  0  0
  150.1405  137.9023  154.6782 C   0  0  0  0  0  0  0  0  0  0  0  0
  150.8874  138.9782  155.4136 C   0  0  0  0  0  0  0  0  0  0  0  0
  150.4928  140.3236  155.6522 C   0  0  0  0  0  0  0  0  0  0  0  0
  151.5407  140.8428  156.3567 C   0  0  0  0  0  0  0  0  0  0  0  0
  152.5033  139.9038  156.5371 O   0  0  0  0  0  0  0  0  0  0  0  0
  152.0778  138.7168  155.9299 N   0  0  0  0  0  0  0  0  0  0  0  0
  147.5610  134.9420  154.2446 C   0  0  0  0  0  0  0  0  0  0  0  0
  144.1055  134.4420  151.1897 H   0  0  0  0  0  0  0  0  0  0  0  0
  145.3479  133.2043  151.0869 H   0  0  0  0  0  0  0  0  0  0  0  0
  145.7074  134.8594  150.5918 H   0  0  0  0  0  0  0  0  0  0  0  0
  145.3401  135.6323  152.9618 H   0  0  0  0  0  0  0  0  0  0  0  0
  145.0611  133.9817  153.4739 H   0  0  0  0  0  0  0  0  0  0  0  0
  146.9213  132.3852  153.4196 H   0  0  0  0  0  0  0  0  0  0  0  0
  147.5812  132.7001  151.8116 H   0  0  0  0  0  0  0  0  0  0  0  0
  149.6573  133.3953  152.6633 H   0  0  0  0  0  0  0  0  0  0  0  0
  148.7845  131.3938  154.8121 H   0  0  0  0  0  0  0  0  0  0  0  0
  150.4478  131.8285  154.4274 H   0  0  0  0  0  0  0  0  0  0  0  0
  149.4613  130.9850  153.2371 H   0  0  0  0  0  0  0  0  0  0  0  0
  148.8791  133.8068  155.5202 H   0  0  0  0  0  0  0  0  0  0  0  0
  150.0396  135.5652  153.4373 H   0  0  0  0  0  0  0  0  0  0  0  0
  150.5371  137.7569  153.6729 H   0  0  0  0  0  0  0  0  0  0  0  0
  149.0841  138.1539  154.5868 H   0  0  0  0  0  0  0  0  0  0  0  0
  149.5842  140.8267  155.3566 H   0  0  0  0  0  0  0  0  0  0  0  0
  151.7419  141.8163  156.7791 H   0  0  0  0  0  0  0  0  0  0  0  0
  147.6533  136.0291  154.2324 H   0  0  0  0  0  0  0  0  0  0  0  0
  146.8498  134.6836  155.0314 H   0  0  0  0  0  0  0  0  0  0  0  0
  147.5349  134.9709  152.2339 H   0  0  0  0  0  0  0  0  0  0  0  0
  1  2  1  0  0  0  0
  1 19  1  0  0  0  0
  1 20  1  0  0  0  0
  1 21  1  0  0  0  0
  2  3  1  0  0  0  0
  2 22  1  0  0  0  0
  2 23  1  0  0  0  0
  3 18  1  0  0  0  0
  3  4  1  0  0  0  0
  3 38  1  0  0  0  0
  4  5  1  0  0  0  0
  4 24  1  0  0  0  0
  4 25  1  0  0  0  0
  5  6  1  0  0  0  0
  5  7  1  0  0  0  0
  5 26  1  0  0  0  0
  6 27  1  0  0  0  0
  6 28  1  0  0  0  0
  6 29  1  0  0  0  0
  7  8  1  0  0  0  0
  7 18  1  0  0  0  0
  7 30  1  0  0  0  0
  8  9  1  0  0  0  0
  8 31  1  0  0  0  0
  9 10  2  0  0  0  0
  9 11  2  0  0  0  0
  9 12  1  0  0  0  0
 12 13  1  0  0  0  0
 12 32  1  0  0  0  0
 12 33  1  0  0  0  0
 13 17  2  0  0  0  0
 13 14  1  0  0  0  0
 14 15  2  0  0  0  0
 14 34  1  0  0  0  0
 15 16  1  0  0  0  0
 15 35  1  0  0  0  0
 16 17  1  0  0  0  0
 18 36  1  0  0  0  0
 18 37  1  0  0  0  0
M  CHG  1   3   1
M  END
> <s_m_source_file>
AV-unprocessed.smi

> <i_m_source_file_index>
703

> <i_lp_mmshare_version>
43012

> <i_f3d_flags>
0

> <s_epik_input>
W0NIM11bQ0gyXU4xW0NIMl1bQ0BASF0oW0NIM10pW0NASF0oW0NIMl0xKVtOSF1TKD1PKSg9TylbQ0gyXWMyW2NIXVtjSF1vbjI=

> <s_epik_cmdline>
J2VwaWtfcHl0aG9uJywgJy1waCcsICc3LjAnLCAnLXRuJywgJzgnLCAnLW1hJywgJzIwMCcsICctbWV0YWxfYmluZGluZycsICctaW1hZScsICc8aW5maWxlLm1hZT4nLCAnLW9tYWUnLCAnPG91dGZpbGUubWFlPic=

> <r_epik_Ionization_Penalty>
0.00324529

> <r_epik_Ionization_Penalty_Charging>
0.0019384

> <r_epik_Ionization_Penalty_Neutral>
0.00130689

> <r_epik_State_Penalty>
0.00218682

> <r_epik_Charging_Adjusted_Penalty>
0.00412522

> <i_epik_Tot_Q>
1

> <i_epik_Tot_abs_Q>
1

> <r_epik_Metal_State_Penalty>
0.310831

> <b_epik_Metal_Only>
0

> <s_lp_Force_Field>
OPLS_2005

> <r_lp_Energy>
19.0381

> <b_lp_Chiralities_Consistent>
1

> <s_lp_Variant>
AV-unprocessed.smi:703-4

> <Gold.Version>
5.8.1

> <Gold.Id.Protein>
6NUR|6NUR_protein|mol2

> <Gold.PLP.Fitness>
39.0316

> <Gold.PLP.PLP>
-28.2996

> <Gold.PLP.part.hbond>
-4.4081

> <Gold.PLP.part.metal>
0.0000

> <Gold.PLP.part.buried>
-2.5447

> <Gold.PLP.part.nonpolar>
-21.0980

> <Gold.PLP.part.repulsive>
0.0310

> <Gold.PLP.ligand.clash>
0.0000

> <Gold.PLP.ligand.torsion>
0.8375

> <Gold.PLP.Chemscore.Hbond>
4.0800

> <Gold.PLP.Chemscore.CHOScore>
0.0000

> <Gold.PLP.Chemscore.Metal>
0.0000

> <Gold.Chemscore.Hbonds>
donor molecule, donor type, donor heavy atom, donor atom, acceptor molecule, acceptor atom, score
      L1  H     3    38       P1  7948  1.86
      L1  H     8    31       P1  7948  0.19
      P1  H  7997  8010       L1    16  1.00
      P1  H 10752 10764       L1    11  1.00

> <Gold.PLP.Chemscore.Internal.Correction>
0.1669

> <Gold.Rescore>
     Score         DG    S(hbond)    S(metal)    S(lipo)     H(rot)  DE(clash)    DE(int)     intcor
     14.25     -16.55       2.90        0.00      54.34       1.94       0.04       2.25       ----

> <Gold.Chemscore.Fitness>
14.2536

> <Gold.Chemscore.DG>
-16.5466

> <Gold.Chemscore.ZeroCoef>
-5.4800

> <Gold.Chemscore.Hbond>
2.8967

> <Gold.Chemscore.Metal>
0.0000

> <Gold.Chemscore.Lipo>
54.3414

> <Gold.Chemscore.Internal_Hbond>
0.0000

> <Gold.Chemscore.DEClash>
0.0420

> <Gold.Chemscore.DEInternal>
2.2510

> <Gold.Chemscore.Rot>
1.9400

> <Gold.Chemscore.Internal.Correction>
   9.000000E+99

> <Gold.Chemscore.Hbonds>
donor molecule, donor type, donor heavy atom, donor atom, acceptor molecule, acceptor atom, score
      L1  H     3    38       P1  7948  0.86
      P1  H  7997  8010       L1    16  0.85
      P1  H 10752 10764       L1    11  1.00

> <Gold.Chemscore.Hbond.Weighted>
-9.6751

> <Gold.Chemscore.Metal.Weighted>
-0.0000

> <Gold.Chemscore.Lipo.Weighted>
-6.3579

> <Gold.Chemscore.Internal_Hbond.Weighted>
0.0000

> <Gold.Chemscore.DEClash.Weighted>
0.0420

> <Gold.Chemscore.DEInternal.Weighted>
2.2510

> <Gold.Chemscore.Rot.Weighted>
4.9665

> <Gold.Chemscore.Internal.Correction.Weighted>
   9.000000E+99

> <Gold.Protein.RotatedTorsions>
[ 6907 6896 6895 6894 ] final -132.58 input  -60.11 | X-H torsion
[ 7974 7965 7964 7962 ] final   67.96 input  175.53 | X-H torsion
[ 8008 7997 7996 7995 ] final   67.69 input   59.86 | X-H torsion
[ 10167 10162 10161 10158 ] final -177.55 input  -65.29 | X-H torsion
[ 10718 10713 10712 10709 ] final    2.81 input   66.30 | X-H torsion
[ 10763 10752 10751 10750 ] final  -26.83 input  -60.55 | X-H torsion
[ 11005 11000 10999 10996 ] final  -65.65 input  -57.11 | X-H torsion

> <Gold.Protein.ActiveResidues>
 VAL166  LYS551  ARG553  GLY616  TRP617  ASP618  TYR619  PRO620  LYS621  CYS622 
 ASP623  PHE694  ASN695  SER759  ASP760  ASP761  ALA762  ILE779  LEU786  VAL792 
 PHE793  MET794  SER795  GLU796  ALA797  LYS798  CYS799  TRP800  GLU811  SER814 

> <Gold.Protein.RotatedAtoms>
  150.9641  133.6414  159.2749 H   0  0  0  0  0  0  0  0  0  0  0  0  # atno 6907 bound_to 6896
  151.3726  135.0924  159.9480 H   0  0  0  0  0  0  0  0  0  0  0  0  # atno 6908 bound_to 6896
  152.5159  133.9192  159.7580 H   0  0  0  0  0  0  0  0  0  0  0  0  # atno 6909 bound_to 6896
  145.8083  139.3019  143.1114 H   0  0  0  0  0  0  0  0  0  0  0  0  # atno 7974 bound_to 7965
  155.6969  140.3495  155.4916 H   0  0  0  0  0  0  0  0  0  0  0  0  # atno 8008 bound_to 7997
  155.9475  140.1113  157.1026 H   0  0  0  0  0  0  0  0  0  0  0  0  # atno 8009 bound_to 7997
  154.4115  140.1200  156.4995 H   0  0  0  0  0  0  0  0  0  0  0  0  # atno 8010 bound_to 7997
  139.5475  144.2197  152.1015 H   0  0  0  0  0  0  0  0  0  0  0  0  # atno 10167 bound_to 10162
  156.8685  130.5611  149.5658 H   0  0  0  0  0  0  0  0  0  0  0  0  # atno 10718 bound_to 10713
  153.7222  135.6944  153.5010 H   0  0  0  0  0  0  0  0  0  0  0  0  # atno 10763 bound_to 10752
  153.2195  135.4375  155.0472 H   0  0  0  0  0  0  0  0  0  0  0  0  # atno 10764 bound_to 10752
  154.8280  135.3457  154.6756 H   0  0  0  0  0  0  0  0  0  0  0  0  # atno 10765 bound_to 10752
  141.1460  133.6685  156.6019 H   0  0  0  0  0  0  0  0  0  0  0  0  # atno 11005 bound_to 11000
  145.9804  140.8687  143.0117 LP  0  0  0  0  0  0  0  0  0  0  0  0  # atno 17320 bound_to 7965
  144.6760  140.2072  143.7381 LP  0  0  0  0  0  0  0  0  0  0  0  0  # atno 17321 bound_to 7965
  140.1686  144.4957  150.6592 LP  0  0  0  0  0  0  0  0  0  0  0  0  # atno 17342 bound_to 10162
  140.6728  143.2292  151.5584 LP  0  0  0  0  0  0  0  0  0  0  0  0  # atno 17343 bound_to 10162
  156.0739  130.5766  150.9436 LP  0  0  0  0  0  0  0  0  0  0  0  0  # atno 17370 bound_to 10713
  157.6209  131.0929  150.8623 LP  0  0  0  0  0  0  0  0  0  0  0  0  # atno 17371 bound_to 10713
  140.3682  134.7628  157.4581 LP  0  0  0  0  0  0  0  0  0  0  0  0  # atno 17394 bound_to 11000
  140.0731  134.5835  155.8620 LP  0  0  0  0  0  0  0  0  0  0  0  0  # atno 17395 bound_to 11000

$$$$
