AV-unprocessed.smi:2655|AV-procd|sdf|10301|dock4
  -GOLD-   2272014313D 1   1.00000     0.00000
 Structure written by MMmdl.
 32 33  0  0  0  0  0  0  0  0  3 V2000
  150.4066  141.2434  155.5516 C   0  0  0  0  0  0  0  0  0  0  0  0
  150.5133  139.8303  155.0554 C   0  0  0  0  0  0  0  0  0  0  0  0
  149.9800  139.5191  153.8782 N   0  0  0  0  0  0  0  0  0  0  0  0
  150.2435  138.2069  153.7319 N   0  0  0  0  0  0  0  0  0  0  0  0
  150.9315  137.7021  154.8049 C   0  0  0  0  0  0  0  0  0  0  0  0
  151.2937  136.4071  154.8542 O   0  5  0  0  0  0  0  0  0  0  0  0
  151.1327  138.7139  155.6991 C   0  0  0  0  0  0  0  0  0  0  0  0
  151.8322  138.6790  157.0318 C   0  0  0  0  0  0  0  0  0  0  0  0
  150.9746  139.3182  158.1361 C   0  0  0  0  0  0  0  0  0  0  0  0
  149.7244  138.5928  158.3370 N   0  0  0  0  0  0  0  0  0  0  0  0
  149.5797  137.4426  159.0105 C   0  0  0  0  0  0  0  0  0  0  0  0
  150.5598  136.9087  159.5349 O   0  0  0  0  0  0  0  0  0  0  0  0
  148.3076  136.9800  159.0321 N   0  5  0  0  0  0  0  0  0  0  0  0
  147.7862  136.4937  160.1689 C   0  0  0  0  0  0  0  0  0  0  0  0
  147.3215  135.1656  160.3727 C   0  0  0  0  0  0  0  0  0  0  0  0
  146.8842  135.1827  161.6665 C   0  0  0  0  0  0  0  0  0  0  0  0
  146.2807  134.1398  162.5440 C   0  0  0  0  0  0  0  0  0  0  0  0
  147.0555  136.4195  162.2064 O   0  0  0  0  0  0  0  0  0  0  0  0
  147.6275  137.2547  161.2390 N   0  0  0  0  0  0  0  0  0  0  0  0
  151.1946  141.4711  156.2693 H   0  0  0  0  0  0  0  0  0  0  0  0
  149.4494  141.4113  156.0447 H   0  0  0  0  0  0  0  0  0  0  0  0
  150.4917  141.9591  154.7338 H   0  0  0  0  0  0  0  0  0  0  0  0
  149.9550  137.6862  152.9164 H   0  0  0  0  0  0  0  0  0  0  0  0
  152.7910  139.1952  156.9720 H   0  0  0  0  0  0  0  0  0  0  0  0
  152.0699  137.6514  157.3087 H   0  0  0  0  0  0  0  0  0  0  0  0
  151.5338  139.3774  159.0713 H   0  0  0  0  0  0  0  0  0  0  0  0
  150.7212  140.3425  157.8617 H   0  0  0  0  0  0  0  0  0  0  0  0
  148.8954  138.9947  157.9248 H   0  0  0  0  0  0  0  0  0  0  0  0
  147.3160  134.3355  159.6823 H   0  0  0  0  0  0  0  0  0  0  0  0
  145.3156  133.8187  162.1524 H   0  0  0  0  0  0  0  0  0  0  0  0
  146.1263  134.5169  163.5551 H   0  0  0  0  0  0  0  0  0  0  0  0
  146.9290  133.2658  162.6052 H   0  0  0  0  0  0  0  0  0  0  0  0
  1 20  1  0  0  0  0
  1 21  1  0  0  0  0
  1 22  1  0  0  0  0
  1  2  1  0  0  0  0
  2  7  1  0  0  0  0
  2  3  2  0  0  0  0
  3  4  1  0  0  0  0
  4 23  1  0  0  0  0
  4  5  1  0  0  0  0
  5  7  2  0  0  0  0
  5  6  1  0  0  0  0
  7  8  1  0  0  0  0
  8  9  1  0  0  0  0
  8 24  1  0  0  0  0
  8 25  1  0  0  0  0
  9 10  1  0  0  0  0
  9 26  1  0  0  0  0
  9 27  1  0  0  0  0
 10 11  1  0  0  0  0
 10 28  1  0  0  0  0
 11 12  2  0  0  0  0
 11 13  1  0  0  0  0
 13 14  1  0  0  0  0
 14 19  2  0  0  0  0
 14 15  1  0  0  0  0
 15 16  2  0  0  0  0
 15 29  1  0  0  0  0
 16 17  1  0  0  0  0
 16 18  1  0  0  0  0
 17 30  1  0  0  0  0
 17 31  1  0  0  0  0
 17 32  1  0  0  0  0
 18 19  1  0  0  0  0
M  CHG  1   6  -1
M  CHG  1  13  -1
M  END
> <s_m_source_file>
AV-unprocessed.smi

> <i_m_source_file_index>
2655

> <i_lp_mmshare_version>
43012

> <i_f3d_flags>
0

> <s_epik_input>
W0NIM11DMT1OW05IXUMoPU8pW0NASF0xW0NIMl1bQ0gyXVtOSF1DKD1PKVtOSF1jMltjSF1jKFtDSDNdKW9uMg==

> <s_epik_cmdline>
J2VwaWtfcHl0aG9uJywgJy1waCcsICc3LjAnLCAnLXRuJywgJzgnLCAnLW1hJywgJzIwMCcsICctbWV0YWxfYmluZGluZycsICctaW1hZScsICc8aW5maWxlLm1hZT4nLCAnLW9tYWUnLCAnPG91dGZpbGUubWFlPic=

> <r_lp_tautomer_probability>
0.99495

> <r_epik_Ionization_Penalty>
8.09923

> <r_epik_Ionization_Penalty_Charging>
6.55729

> <r_epik_Ionization_Penalty_Neutral>
1.54195

> <r_epik_State_Penalty>
6.87174

> <r_epik_Charging_Adjusted_Penalty>
13.429

> <i_epik_Tot_Q>
-2

> <i_epik_Tot_abs_Q>
2

> <r_epik_Metal_State_Penalty>
4.19188

> <b_epik_Metal_Only>
1

> <s_lp_Force_Field>
OPLS_2005

> <r_lp_Energy>
-4.19881

> <b_lp_Chiralities_Consistent>
1

> <s_lp_Variant>
AV-unprocessed.smi:2655-4

> <Gold.Version>
5.8.1

> <Gold.Id.Protein>
6NUR|6NUR_protein|mol2

> <Gold.PLP.Fitness>
45.3018

> <Gold.PLP.PLP>
-30.0278

> <Gold.PLP.part.hbond>
-6.5278

> <Gold.PLP.part.metal>
0.0000

> <Gold.PLP.part.buried>
-6.0093

> <Gold.PLP.part.nonpolar>
-21.1500

> <Gold.PLP.part.repulsive>
2.9146

> <Gold.PLP.ligand.clash>
0.0000

> <Gold.PLP.ligand.torsion>
1.1593

> <Gold.PLP.Chemscore.Hbond>
5.8480

> <Gold.PLP.Chemscore.CHOScore>
0.0000

> <Gold.PLP.Chemscore.Metal>
0.0000

> <Gold.Chemscore.Hbonds>
donor molecule, donor type, donor heavy atom, donor atom, acceptor molecule, acceptor atom, score
      L1  H     4    23       P1  7948  1.00
      P1  H  6896  6907       L1    12  1.00
      P1  H  6931  6943       L1    19  0.91
      P1  H  6934  6947       L1    19  0.86
      P1  H 10752 10763       L1     6  2.00

> <Gold.PLP.Chemscore.Internal.Correction>
0.0486

> <Gold.Rescore>
     Score         DG    S(hbond)    S(metal)    S(lipo)     H(rot)  DE(clash)    DE(int)     intcor
     19.90     -21.07       4.50        0.00      44.67       1.82       0.02       1.16       ----

> <Gold.Chemscore.Fitness>
19.8957

> <Gold.Chemscore.DG>
-21.0707

> <Gold.Chemscore.ZeroCoef>
-5.4800

> <Gold.Chemscore.Hbond>
4.4992

> <Gold.Chemscore.Metal>
0.0000

> <Gold.Chemscore.Lipo>
44.6711

> <Gold.Chemscore.Internal_Hbond>
0.0000

> <Gold.Chemscore.DEClash>
0.0158

> <Gold.Chemscore.DEInternal>
1.1592

> <Gold.Chemscore.Rot>
1.8215

> <Gold.Chemscore.Internal.Correction>
   9.000000E+99

> <Gold.Chemscore.Hbonds>
donor molecule, donor type, donor heavy atom, donor atom, acceptor molecule, acceptor atom, score
      L1  H     4    23       P1  7948  0.24
      P1  H  6896  6907       L1    12  0.95
      P1  H  6931  6943       L1    19  0.74
      P1  H  6934  6947       L1    19  0.80
      P1  H 10752 10763       L1     6  0.99

> <Gold.Chemscore.Hbond.Weighted>
-15.0272

> <Gold.Chemscore.Metal.Weighted>
-0.0000

> <Gold.Chemscore.Lipo.Weighted>
-5.2265

> <Gold.Chemscore.Internal_Hbond.Weighted>
0.0000

> <Gold.Chemscore.DEClash.Weighted>
0.0158

> <Gold.Chemscore.DEInternal.Weighted>
1.1592

> <Gold.Chemscore.Rot.Weighted>
4.6631

> <Gold.Chemscore.Internal.Correction.Weighted>
   9.000000E+99

> <Gold.Protein.RotatedTorsions>
[ 6907 6896 6895 6894 ] final  -42.41 input  -60.11 | X-H torsion
[ 7974 7965 7964 7962 ] final  128.99 input  175.53 | X-H torsion
[ 8008 7997 7996 7995 ] final   27.86 input   59.86 | X-H torsion
[ 10167 10162 10161 10158 ] final  -91.00 input  -65.29 | X-H torsion
[ 10718 10713 10712 10709 ] final    5.93 input   66.30 | X-H torsion
[ 10763 10752 10751 10750 ] final   39.78 input  -60.55 | X-H torsion
[ 11005 11000 10999 10996 ] final   58.14 input  -57.11 | X-H torsion

> <Gold.Protein.ActiveResidues>
 VAL166  LYS551  ARG553  GLY616  TRP617  ASP618  TYR619  PRO620  LYS621  CYS622 
 ASP623  PHE694  ASN695  SER759  ASP760  ASP761  ALA762  ILE779  LEU786  VAL792 
 PHE793  MET794  SER795  GLU796  ALA797  LYS798  CYS799  TRP800  GLU811  SER814 

> <Gold.Protein.RotatedAtoms>
  150.9555  134.8950  159.7698 H   0  0  0  0  0  0  0  0  0  0  0  0  # atno 6907 bound_to 6896
  152.5136  134.3746  159.9340 H   0  0  0  0  0  0  0  0  0  0  0  0  # atno 6908 bound_to 6896
  151.3760  133.3797  159.2739 H   0  0  0  0  0  0  0  0  0  0  0  0  # atno 6909 bound_to 6896
  145.0335  139.4025  143.5138 H   0  0  0  0  0  0  0  0  0  0  0  0  # atno 7974 bound_to 7965
  155.0495  140.3178  155.4697 H   0  0  0  0  0  0  0  0  0  0  0  0  # atno 8008 bound_to 7997
  156.2837  140.2148  156.5564 H   0  0  0  0  0  0  0  0  0  0  0  0  # atno 8009 bound_to 7997
  154.7222  140.0488  157.0638 H   0  0  0  0  0  0  0  0  0  0  0  0  # atno 8010 bound_to 7997
  140.3493  143.2900  151.9745 H   0  0  0  0  0  0  0  0  0  0  0  0  # atno 10167 bound_to 10162
  156.9147  130.5769  149.5647 H   0  0  0  0  0  0  0  0  0  0  0  0  # atno 10718 bound_to 10713
  152.9956  135.6210  154.2521 H   0  0  0  0  0  0  0  0  0  0  0  0  # atno 10763 bound_to 10752
  154.2259  135.2794  155.2909 H   0  0  0  0  0  0  0  0  0  0  0  0  # atno 10764 bound_to 10752
  154.5490  135.5739  153.6963 H   0  0  0  0  0  0  0  0  0  0  0  0  # atno 10765 bound_to 10752
  140.0400  134.5888  155.9395 H   0  0  0  0  0  0  0  0  0  0  0  0  # atno 11005 bound_to 11000
  146.3501  139.9898  142.8687 LP  0  0  0  0  0  0  0  0  0  0  0  0  # atno 17320 bound_to 7965
  145.1740  140.9734  143.4305 LP  0  0  0  0  0  0  0  0  0  0  0  0  # atno 17321 bound_to 7965
  139.4829  144.6090  151.7468 LP  0  0  0  0  0  0  0  0  0  0  0  0  # atno 17342 bound_to 10162
  140.5235  144.0843  150.6030 LP  0  0  0  0  0  0  0  0  0  0  0  0  # atno 17343 bound_to 10162
  156.0519  130.5587  150.9008 LP  0  0  0  0  0  0  0  0  0  0  0  0  # atno 17370 bound_to 10713
  157.5945  131.0943  150.9063 LP  0  0  0  0  0  0  0  0  0  0  0  0  # atno 17371 bound_to 10713
  141.1878  133.6560  156.5295 LP  0  0  0  0  0  0  0  0  0  0  0  0  # atno 17394 bound_to 11000
  140.4085  134.7293  157.4822 LP  0  0  0  0  0  0  0  0  0  0  0  0  # atno 17395 bound_to 11000

$$$$
