AV-unprocessed.smi:266|AV-procd|sdf|2034|dock6
  -GOLD-   2262021243D 1   1.00000     0.00000
 Structure written by MMmdl.
 52 55  0  0  0  0  0  0  0  0  1 V2000
  153.3294  142.0727  159.6466 C   0  0  0  0  0  0  0  0  0  0  0  0
  151.9279  142.6994  159.7144 C   0  0  1  0  0  0  0  0  0  0  0  0
  152.0730  144.0220  160.2256 O   0  0  0  0  0  0  0  0  0  0  0  0
  151.0606  144.8431  159.6707 C   0  0  0  0  0  0  0  0  0  0  0  0
  151.0003  144.3591  158.2302 C   0  0  0  0  0  0  0  0  0  0  0  0
  151.1602  142.8476  158.3696 C   0  0  2  0  0  0  0  0  0  0  0  0
  149.8684  142.2904  158.5504 O   0  0  0  0  0  0  0  0  0  0  0  0
  151.8024  142.1722  157.1292 C   0  0  0  0  0  0  0  0  0  0  0  0
  151.5888  140.7332  157.0757 N   0  0  0  0  0  0  0  0  0  0  0  0
  152.0223  139.8026  157.9899 C   0  0  0  0  0  0  0  0  0  0  0  0
  151.7033  138.5684  157.7166 N   0  0  0  0  0  0  0  0  0  0  0  0
  151.0008  138.6410  156.5168 C   0  0  0  0  0  0  0  0  0  0  0  0
  150.3709  137.6862  155.6561 C   0  0  0  0  0  0  0  0  0  0  0  0
  150.3298  136.3370  155.8716 N   0  0  0  0  0  0  0  0  0  0  0  0
  151.4197  135.6738  156.5778 C   0  0  0  0  0  0  0  0  0  0  0  0
  149.3335  135.5025  155.1930 C   0  0  0  0  0  0  0  0  0  0  0  0
  149.8199  134.0600  154.9424 C   0  0  2  0  0  0  0  0  0  0  0  0
  148.9818  133.3505  153.8616 C   0  0  0  0  0  0  0  0  0  0  0  0
  149.3442  131.8622  153.8580 C   0  0  0  0  0  0  0  0  0  0  0  0
  149.7016  131.4407  155.6033 S   0  0  0  0  0  0  0  0  0  0  0  0
  148.5235  130.7963  156.2036 O   0  0  0  0  0  0  0  0  0  0  0  0
  151.0299  130.8149  155.6829 O   0  0  0  0  0  0  0  0  0  0  0  0
  149.8003  133.1717  156.1984 C   0  0  0  0  0  0  0  0  0  0  0  0
  149.7661  138.1811  154.5416 N   0  0  0  0  0  0  0  0  0  0  0  0
  149.7740  139.4885  154.2736 C   0  0  0  0  0  0  0  0  0  0  0  0
  150.3210  140.4781  154.9773 N   0  0  0  0  0  0  0  0  0  0  0  0
  150.9261  140.0048  156.1028 C   0  0  0  0  0  0  0  0  0  0  0  0
  153.2922  141.0501  159.2704 H   0  0  0  0  0  0  0  0  0  0  0  0
  153.7821  142.0380  160.6377 H   0  0  0  0  0  0  0  0  0  0  0  0
  153.9955  142.6503  159.0051 H   0  0  0  0  0  0  0  0  0  0  0  0
  151.3323  142.1316  160.4320 H   0  0  0  0  0  0  0  0  0  0  0  0
  150.1156  144.6671  160.1869 H   0  0  0  0  0  0  0  0  0  0  0  0
  151.3102  145.9010  159.7514 H   0  0  0  0  0  0  0  0  0  0  0  0
  150.0903  144.6623  157.7104 H   0  0  0  0  0  0  0  0  0  0  0  0
  151.8486  144.7780  157.6878 H   0  0  0  0  0  0  0  0  0  0  0  0
  149.9573  141.3555  158.6545 H   0  0  0  0  0  0  0  0  0  0  0  0
  151.4005  142.5999  156.2105 H   0  0  0  0  0  0  0  0  0  0  0  0
  152.8774  142.3557  157.1098 H   0  0  0  0  0  0  0  0  0  0  0  0
  152.5820  140.0699  158.8744 H   0  0  0  0  0  0  0  0  0  0  0  0
  151.4811  136.0260  157.6075 H   0  0  0  0  0  0  0  0  0  0  0  0
  152.3725  135.8593  156.0812 H   0  0  0  0  0  0  0  0  0  0  0  0
  151.2700  134.5947  156.6108 H   0  0  0  0  0  0  0  0  0  0  0  0
  148.4217  135.4806  155.7912 H   0  0  0  0  0  0  0  0  0  0  0  0
  149.0386  135.9681  154.2519 H   0  0  0  0  0  0  0  0  0  0  0  0
  150.8466  134.0892  154.5749 H   0  0  0  0  0  0  0  0  0  0  0  0
  147.9229  133.4550  154.1019 H   0  0  0  0  0  0  0  0  0  0  0  0
  149.1307  133.7969  152.8779 H   0  0  0  0  0  0  0  0  0  0  0  0
  148.5480  131.2275  153.4692 H   0  0  0  0  0  0  0  0  0  0  0  0
  150.2495  131.6864  153.2764 H   0  0  0  0  0  0  0  0  0  0  0  0
  150.6827  133.3026  156.8250 H   0  0  0  0  0  0  0  0  0  0  0  0
  148.9134  133.3635  156.8027 H   0  0  0  0  0  0  0  0  0  0  0  0
  149.2690  139.7832  153.3654 H   0  0  0  0  0  0  0  0  0  0  0  0
  1  2  1  0  0  0  0
  1 28  1  0  0  0  0
  1 29  1  0  0  0  0
  1 30  1  0  0  0  0
  2  6  1  0  0  0  0
  2  3  1  0  0  0  0
  2 31  1  0  0  0  0
  3  4  1  0  0  0  0
  4  5  1  0  0  0  0
  4 32  1  0  0  0  0
  4 33  1  0  0  0  0
  5  6  1  0  0  0  0
  5 34  1  0  0  0  0
  5 35  1  0  0  0  0
  6  7  1  0  0  0  0
  6  8  1  0  0  0  0
  7 36  1  0  0  0  0
  8  9  1  0  0  0  0
  8 37  1  0  0  0  0
  8 38  1  0  0  0  0
  9 27  1  0  0  0  0
  9 10  1  0  0  0  0
 10 11  2  0  0  0  0
 10 39  1  0  0  0  0
 11 12  1  0  0  0  0
 12 27  2  0  0  0  0
 12 13  1  0  0  0  0
 13 14  1  0  0  0  0
 13 24  2  0  0  0  0
 14 15  1  0  0  0  0
 14 16  1  0  0  0  0
 15 40  1  0  0  0  0
 15 41  1  0  0  0  0
 15 42  1  0  0  0  0
 16 17  1  0  0  0  0
 16 43  1  0  0  0  0
 16 44  1  0  0  0  0
 17 23  1  0  0  0  0
 17 18  1  0  0  0  0
 17 45  1  0  0  0  0
 18 19  1  0  0  0  0
 18 46  1  0  0  0  0
 18 47  1  0  0  0  0
 19 20  1  0  0  0  0
 19 48  1  0  0  0  0
 19 49  1  0  0  0  0
 20 21  2  0  0  0  0
 20 22  2  0  0  0  0
 20 23  1  0  0  0  0
 23 50  1  0  0  0  0
 23 51  1  0  0  0  0
 24 25  1  0  0  0  0
 25 26  2  0  0  0  0
 25 52  1  0  0  0  0
 26 27  1  0  0  0  0
M  END
> <s_m_source_file>
AV-unprocessed.smi

> <i_m_source_file_index>
266

> <i_lp_mmshare_version>
43012

> <i_f3d_flags>
0

> <s_epik_input>
W0NIMl0xW0NIMl1PW0NAQEhdKFtDSDNdKVtDQEBdMShbT0hdKVtDSDJdbihbY0hdbjIpYyhjMjMpbltjSF1uYzNOKFtDSDNdKVtDSDJdW0NAQEhdKFtDSDJdNClbQ0gyXVtDSDJdUzQoPU8pPU8=

> <s_epik_cmdline>
J2VwaWtfcHl0aG9uJywgJy1waCcsICc3LjAnLCAnLXRuJywgJzgnLCAnLW1hJywgJzIwMCcsICctbWV0YWxfYmluZGluZycsICctaW1hZScsICc8aW5maWxlLm1hZT4nLCAnLW9tYWUnLCAnPG91dGZpbGUubWFlPic=

> <r_lp_tautomer_probability>
1

> <r_epik_Ionization_Penalty>
0.00155497

> <r_epik_Ionization_Penalty_Charging>
0

> <r_epik_Ionization_Penalty_Neutral>
0.00155497

> <r_epik_State_Penalty>
-0

> <r_epik_Charging_Adjusted_Penalty>
0

> <i_epik_Tot_Q>
0

> <i_epik_Tot_abs_Q>
0

> <r_epik_Metal_State_Penalty>
-0

> <b_epik_Metal_Only>
0

> <s_lp_Force_Field>
OPLS_2005

> <r_lp_Energy>
30.3558

> <b_lp_Chiralities_Consistent>
1

> <s_lp_Variant>
AV-unprocessed.smi:266-4

> <Gold.Version>
5.8.1

> <Gold.Id.Protein>
6NUR|6NUR_protein|mol2

> <Gold.PLP.Fitness>
44.0807

> <Gold.PLP.PLP>
-41.1098

> <Gold.PLP.part.hbond>
-1.0849

> <Gold.PLP.part.metal>
0.0000

> <Gold.PLP.part.buried>
-6.9580

> <Gold.PLP.part.nonpolar>
-32.8708

> <Gold.PLP.part.repulsive>
0.3227

> <Gold.PLP.ligand.clash>
0.0000

> <Gold.PLP.ligand.torsion>
0.9661

> <Gold.PLP.Chemscore.Hbond>
0.5952

> <Gold.PLP.Chemscore.CHOScore>
1.0000

> <Gold.PLP.Chemscore.Metal>
0.0000

> <Gold.Chemscore.Hbonds>
donor molecule, donor type, donor heavy atom, donor atom, acceptor molecule, acceptor atom, score
      P1  H  7989  7998       L1    26  0.60
      L1  C    25    52       P1  7957  1.00

> <Gold.PLP.Chemscore.Internal.Correction>
0.1175

> <Gold.Rescore>
     Score         DG    S(hbond)    S(metal)    S(lipo)     H(rot)  DE(clash)    DE(int)     intcor
      9.20     -12.15       0.44        0.00      98.04       2.45       1.87       1.08       ----

> <Gold.Chemscore.Fitness>
9.1990

> <Gold.Chemscore.DG>
-12.1486

> <Gold.Chemscore.ZeroCoef>
-5.4800

> <Gold.Chemscore.Hbond>
0.4380

> <Gold.Chemscore.Metal>
0.0000

> <Gold.Chemscore.Lipo>
98.0362

> <Gold.Chemscore.Internal_Hbond>
0.0000

> <Gold.Chemscore.DEClash>
1.8670

> <Gold.Chemscore.DEInternal>
1.0827

> <Gold.Chemscore.Rot>
2.4471

> <Gold.Chemscore.Internal.Correction>
   9.000000E+99

> <Gold.Chemscore.Hbonds>
donor molecule, donor type, donor heavy atom, donor atom, acceptor molecule, acceptor atom, score
      P1  H  7989  7998       L1    26  0.03

> <Gold.Chemscore.Hbond.Weighted>
-1.4629

> <Gold.Chemscore.Metal.Weighted>
-0.0000

> <Gold.Chemscore.Lipo.Weighted>
-11.4702

> <Gold.Chemscore.Internal_Hbond.Weighted>
0.0000

> <Gold.Chemscore.DEClash.Weighted>
1.8670

> <Gold.Chemscore.DEInternal.Weighted>
1.0827

> <Gold.Chemscore.Rot.Weighted>
6.2645

> <Gold.Chemscore.Internal.Correction.Weighted>
   9.000000E+99

> <Gold.Protein.RotatedTorsions>
[ 6907 6896 6895 6894 ] final   43.82 input  -60.11 | X-H torsion
[ 7974 7965 7964 7962 ] final  175.39 input  175.53 | X-H torsion
[ 8008 7997 7996 7995 ] final   84.19 input   59.86 | X-H torsion
[ 10167 10162 10161 10158 ] final  -82.95 input  -65.29 | X-H torsion
[ 10718 10713 10712 10709 ] final -166.07 input   66.30 | X-H torsion
[ 10763 10752 10751 10750 ] final  109.27 input  -60.55 | X-H torsion
[ 11005 11000 10999 10996 ] final  163.56 input  -57.11 | X-H torsion

> <Gold.Protein.ActiveResidues>
 VAL166  LYS551  ARG553  GLY616  TRP617  ASP618  TYR619  PRO620  LYS621  CYS622 
 ASP623  PHE694  ASN695  SER759  ASP760  ASP761  ALA762  ILE779  LEU786  VAL792 
 PHE793  MET794  SER795  GLU796  ALA797  LYS798  CYS799  TRP800  GLU811  SER814 

> <Gold.Protein.RotatedAtoms>
  152.2250  134.8377  160.0480 H   0  0  0  0  0  0  0  0  0  0  0  0  # atno 6907 bound_to 6896
  151.9147  133.3565  159.3884 H   0  0  0  0  0  0  0  0  0  0  0  0  # atno 6908 bound_to 6896
  150.7010  134.4622  159.5430 H   0  0  0  0  0  0  0  0  0  0  0  0  # atno 6909 bound_to 6896
  144.7202  139.9940  143.6440 H   0  0  0  0  0  0  0  0  0  0  0  0  # atno 7974 bound_to 7965
  155.9338  140.3413  155.6271 H   0  0  0  0  0  0  0  0  0  0  0  0  # atno 8008 bound_to 7997
  155.7124  140.0773  157.2384 H   0  0  0  0  0  0  0  0  0  0  0  0  # atno 8009 bound_to 7997
  154.4090  140.1620  156.2299 H   0  0  0  0  0  0  0  0  0  0  0  0  # atno 8010 bound_to 7997
  140.4272  143.2562  151.8810 H   0  0  0  0  0  0  0  0  0  0  0  0  # atno 10167 bound_to 10162
  156.6625  130.9051  151.3031 H   0  0  0  0  0  0  0  0  0  0  0  0  # atno 10718 bound_to 10713
  153.4323  135.3785  155.2178 H   0  0  0  0  0  0  0  0  0  0  0  0  # atno 10763 bound_to 10752
  154.8750  135.3843  154.4253 H   0  0  0  0  0  0  0  0  0  0  0  0  # atno 10764 bound_to 10752
  153.4787  135.7088  153.6014 H   0  0  0  0  0  0  0  0  0  0  0  0  # atno 10765 bound_to 10752
  140.2370  134.8080  157.3374 H   0  0  0  0  0  0  0  0  0  0  0  0  # atno 11005 bound_to 11000
  146.0389  139.3403  143.0710 LP  0  0  0  0  0  0  0  0  0  0  0  0  # atno 17320 bound_to 7965
  145.8360  140.9606  143.0824 LP  0  0  0  0  0  0  0  0  0  0  0  0  # atno 17321 bound_to 7965
  139.4784  144.5374  151.8578 LP  0  0  0  0  0  0  0  0  0  0  0  0  # atno 17342 bound_to 10162
  140.4468  144.1910  150.5894 LP  0  0  0  0  0  0  0  0  0  0  0  0  # atno 17343 bound_to 10162
  157.7105  130.9434  150.1072 LP  0  0  0  0  0  0  0  0  0  0  0  0  # atno 17370 bound_to 10713
  156.2000  130.3659  149.8800 LP  0  0  0  0  0  0  0  0  0  0  0  0  # atno 17371 bound_to 10713
  140.1692  134.4630  155.7843 LP  0  0  0  0  0  0  0  0  0  0  0  0  # atno 17394 bound_to 11000
  141.2213  133.6934  156.7678 LP  0  0  0  0  0  0  0  0  0  0  0  0  # atno 17395 bound_to 11000

$$$$
