AV-unprocessed.smi:102|AV-procd|sdf|973|dock4
  -GOLD-   2262017523D 1   1.00000     0.00000
 Structure written by MMmdl.
 43 44  0  0  0  0  0  0  0  0  2 V2000
  142.8039  136.3781  155.3317 C   0  0  0  0  0  0  0  0  0  0  0  0
  143.5847  135.6625  156.4266 C   0  0  0  0  0  0  0  0  0  0  0  0
  143.1063  134.7034  157.0323 O   0  0  0  0  0  0  0  0  0  0  0  0
  144.7970  136.2001  156.6289 O   0  0  0  0  0  0  0  0  0  0  0  0
  145.6670  135.6404  157.6003 C   0  0  0  0  0  0  0  0  0  0  0  0
  147.0311  136.3514  157.5508 C   0  0  2  0  0  0  0  0  0  0  0  0
  147.5071  136.2537  156.2071 O   0  0  0  0  0  0  0  0  0  0  0  0
  148.6689  135.4756  156.1312 C   0  0  1  0  0  0  0  0  0  0  0  0
  149.8697  136.3723  155.9047 N   0  0  0  0  0  0  0  0  0  0  0  0
  149.7249  137.7324  155.6809 C   0  0  0  0  0  0  0  0  0  0  0  0
  150.7967  138.5302  155.4996 C   0  0  0  0  0  0  0  0  0  0  0  0
  150.6229  139.8463  155.2885 F   0  0  0  0  0  0  0  0  0  0  0  0
  152.1400  137.9566  155.5382 C   0  0  0  0  0  0  0  0  0  0  0  0
  153.1137  138.6896  155.3725 O   0  0  0  0  0  0  0  0  0  0  0  0
  152.2545  136.6154  155.7606 N   0  5  0  0  0  0  0  0  0  0  0  0
  151.1726  135.8043  155.9491 C   0  0  0  0  0  0  0  0  0  0  0  0
  151.2679  134.5959  156.1619 O   0  0  0  0  0  0  0  0  0  0  0  0
  148.8155  134.7461  157.4710 C   0  0  2  0  0  0  0  0  0  0  0  0
  148.1245  133.5024  157.4081 O   0  0  0  0  0  0  0  0  0  0  0  0
  148.6652  132.3887  157.9303 C   0  0  0  0  0  0  0  0  0  0  0  0
  147.8709  131.1381  157.5767 C   0  0  0  0  0  0  0  0  0  0  0  0
  149.6779  132.3271  158.6266 O   0  0  0  0  0  0  0  0  0  0  0  0
  148.1351  135.7204  158.4154 C   0  0  2  0  0  0  0  0  0  0  0  0
  147.6984  135.0796  159.6094 O   0  0  0  0  0  0  0  0  0  0  0  0
  147.3236  135.8103  160.6733 C   0  0  0  0  0  0  0  0  0  0  0  0
  146.7734  134.9497  161.8024 C   0  0  0  0  0  0  0  0  0  0  0  0
  147.3812  137.0361  160.7694 O   0  0  0  0  0  0  0  0  0  0  0  0
  143.3757  137.2135  154.9264 H   0  0  0  0  0  0  0  0  0  0  0  0
  141.8660  136.7651  155.7300 H   0  0  0  0  0  0  0  0  0  0  0  0
  142.5764  135.6886  154.5187 H   0  0  0  0  0  0  0  0  0  0  0  0
  145.2396  135.6995  158.6018 H   0  0  0  0  0  0  0  0  0  0  0  0
  145.7925  134.5824  157.3671 H   0  0  0  0  0  0  0  0  0  0  0  0
  146.9007  137.4044  157.8028 H   0  0  0  0  0  0  0  0  0  0  0  0
  148.6226  134.8219  155.2584 H   0  0  0  0  0  0  0  0  0  0  0  0
  148.7439  138.1809  155.6526 H   0  0  0  0  0  0  0  0  0  0  0  0
  149.8655  134.6100  157.7342 H   0  0  0  0  0  0  0  0  0  0  0  0
  147.2867  131.2936  156.6694 H   0  0  0  0  0  0  0  0  0  0  0  0
  147.1893  130.8839  158.3884 H   0  0  0  0  0  0  0  0  0  0  0  0
  148.5433  130.2956  157.4133 H   0  0  0  0  0  0  0  0  0  0  0  0
  148.8677  136.4928  158.6551 H   0  0  0  0  0  0  0  0  0  0  0  0
  147.3519  134.0307  161.9001 H   0  0  0  0  0  0  0  0  0  0  0  0
  145.7350  134.6863  161.6021 H   0  0  0  0  0  0  0  0  0  0  0  0
  146.8179  135.4876  162.7496 H   0  0  0  0  0  0  0  0  0  0  0  0
  1  2  1  0  0  0  0
  1 28  1  0  0  0  0
  1 29  1  0  0  0  0
  1 30  1  0  0  0  0
  2  3  2  0  0  0  0
  2  4  1  0  0  0  0
  4  5  1  0  0  0  0
  5  6  1  0  0  0  0
  5 31  1  0  0  0  0
  5 32  1  0  0  0  0
  6 23  1  0  0  0  0
  6  7  1  0  0  0  0
  6 33  1  0  0  0  0
  7  8  1  0  0  0  0
  8  9  1  0  0  0  0
  8 18  1  0  0  0  0
  8 34  1  0  0  0  0
  9 16  1  0  0  0  0
  9 10  1  0  0  0  0
 10 11  2  0  0  0  0
 10 35  1  0  0  0  0
 11 12  1  0  0  0  0
 11 13  1  0  0  0  0
 13 14  2  0  0  0  0
 13 15  1  0  0  0  0
 15 16  1  0  0  0  0
 16 17  2  0  0  0  0
 18 19  1  0  0  0  0
 18 23  1  0  0  0  0
 18 36  1  0  0  0  0
 19 20  1  0  0  0  0
 20 21  1  0  0  0  0
 20 22  2  0  0  0  0
 21 37  1  0  0  0  0
 21 38  1  0  0  0  0
 21 39  1  0  0  0  0
 23 24  1  0  0  0  0
 23 40  1  0  0  0  0
 24 25  1  0  0  0  0
 25 26  1  0  0  0  0
 25 27  2  0  0  0  0
 26 41  1  0  0  0  0
 26 42  1  0  0  0  0
 26 43  1  0  0  0  0
M  CHG  1  15  -1
M  END
> <s_m_source_file>
AV-unprocessed.smi

> <i_m_source_file_index>
102

> <i_lp_mmshare_version>
43012

> <i_f3d_flags>
0

> <s_epik_input>
W0NIM11DKD1PKU9bQ0gyXVtDQEBIXTFPW0NASF0oW0NAQEhdKE9DKD1PKVtDSDNdKVtDQEhdMU9DKD1PKVtDSDNdKW4yW2NIXWMoRiljKD1PKVtuSF1jMj1P

> <s_epik_cmdline>
J2VwaWtfcHl0aG9uJywgJy1waCcsICc3LjAnLCAnLXRuJywgJzgnLCAnLW1hJywgJzIwMCcsICctbWV0YWxfYmluZGluZycsICctaW1hZScsICc8aW5maWxlLm1hZT4nLCAnLW9tYWUnLCAnPG91dGZpbGUubWFlPic=

> <r_epik_Ionization_Penalty>
1.40304

> <r_epik_Ionization_Penalty_Charging>
1.43915e-08

> <r_epik_Ionization_Penalty_Neutral>
1.40304

> <r_epik_State_Penalty>
1.48536

> <r_epik_Charging_Adjusted_Penalty>
1.48536

> <i_epik_Tot_Q>
-1

> <i_epik_Tot_abs_Q>
1

> <r_epik_Metal_State_Penalty>
0.00663881

> <b_epik_Metal_Only>
0

> <s_epik_Chemistry_Notes>
This compound has an ester and may undergo hydrolysis at high or low pH. This compound contains an acetal/aminal-like group ( X-CH(R)-Y where X, Y are N, S, or O) that may be acid/base labile, releasing an aldehyde.

> <s_lp_Force_Field>
OPLS_2005

> <r_lp_Energy>
27.0853

> <b_lp_Chiralities_Consistent>
1

> <s_lp_Variant>
AV-unprocessed.smi:102-29

> <Gold.Version>
5.8.1

> <Gold.Id.Protein>
6NUR|6NUR_protein|mol2

> <Gold.PLP.Fitness>
39.8786

> <Gold.PLP.PLP>
-23.4446

> <Gold.PLP.part.hbond>
-6.1389

> <Gold.PLP.part.metal>
0.0000

> <Gold.PLP.part.buried>
-5.2066

> <Gold.PLP.part.nonpolar>
-13.6511

> <Gold.PLP.part.repulsive>
0.0797

> <Gold.PLP.ligand.clash>
0.0000

> <Gold.PLP.ligand.torsion>
0.9397

> <Gold.PLP.Chemscore.Hbond>
6.0672

> <Gold.PLP.Chemscore.CHOScore>
0.0000

> <Gold.PLP.Chemscore.Metal>
0.0000

> <Gold.Chemscore.Hbonds>
donor molecule, donor type, donor heavy atom, donor atom, acceptor molecule, acceptor atom, score
      P1  H  6896  6907       L1    22  1.00
      P1  H  6931  6943       L1    27  0.19
      P1  H  6934  6947       L1    27  1.00
      P1  H  7997  8008       L1    14  0.94
      P1  H 10752 10765       L1    15  1.50
      P1  H 11000 11005       L1     3  0.38

> <Gold.PLP.Chemscore.Internal.Correction>
0.1118

> <Gold.Rescore>
     Score         DG    S(hbond)    S(metal)    S(lipo)     H(rot)  DE(clash)    DE(int)     intcor
     10.32     -12.77       4.44        0.00      23.06       4.00       0.00       2.45       ----

> <Gold.Chemscore.Fitness>
10.3199

> <Gold.Chemscore.DG>
-12.7734

> <Gold.Chemscore.ZeroCoef>
-5.4800

> <Gold.Chemscore.Hbond>
4.4381

> <Gold.Chemscore.Metal>
0.0000

> <Gold.Chemscore.Lipo>
23.0552

> <Gold.Chemscore.Internal_Hbond>
0.0000

> <Gold.Chemscore.DEClash>
0.0009

> <Gold.Chemscore.DEInternal>
2.4526

> <Gold.Chemscore.Rot>
3.9951

> <Gold.Chemscore.Internal.Correction>
   9.000000E+99

> <Gold.Chemscore.Hbonds>
donor molecule, donor type, donor heavy atom, donor atom, acceptor molecule, acceptor atom, score
      P1  H  6896  6907       L1    22  0.97
      P1  H  6931  6943       L1    27  0.20
      P1  H  6934  6947       L1    27  0.94
      P1  H  7997  8008       L1    14  0.88
      P1  H 10752 10765       L1    15  0.09
      P1  H 11000 11005       L1     3  0.37

> <Gold.Chemscore.Hbond.Weighted>
-14.8234

> <Gold.Chemscore.Metal.Weighted>
-0.0000

> <Gold.Chemscore.Lipo.Weighted>
-2.6975

> <Gold.Chemscore.Internal_Hbond.Weighted>
0.0000

> <Gold.Chemscore.DEClash.Weighted>
0.0009

> <Gold.Chemscore.DEInternal.Weighted>
2.4526

> <Gold.Chemscore.Rot.Weighted>
10.2274

> <Gold.Chemscore.Internal.Correction.Weighted>
   9.000000E+99

> <Gold.Protein.RotatedTorsions>
[ 6907 6896 6895 6894 ] final -142.18 input  -60.11 | X-H torsion
[ 7974 7965 7964 7962 ] final   32.77 input  175.53 | X-H torsion
[ 8008 7997 7996 7995 ] final  -26.00 input   59.86 | X-H torsion
[ 10167 10162 10161 10158 ] final  -58.08 input  -65.29 | X-H torsion
[ 10718 10713 10712 10709 ] final  117.87 input   66.30 | X-H torsion
[ 10763 10752 10751 10750 ] final -152.16 input  -60.55 | X-H torsion
[ 11005 11000 10999 10996 ] final -118.61 input  -57.11 | X-H torsion

> <Gold.Protein.ActiveResidues>
 VAL166  LYS551  ARG553  GLY616  TRP617  ASP618  TYR619  PRO620  LYS621  CYS622 
 ASP623  PHE694  ASN695  SER759  ASP760  ASP761  ALA762  ILE779  LEU786  VAL792 
 PHE793  MET794  SER795  GLU796  ALA797  LYS798  CYS799  TRP800  GLU811  SER814 

> <Gold.Protein.RotatedAtoms>
  151.0836  133.5371  159.2618 H   0  0  0  0  0  0  0  0  0  0  0  0  # atno 6907 bound_to 6896
  151.2265  135.0537  159.8980 H   0  0  0  0  0  0  0  0  0  0  0  0  # atno 6908 bound_to 6896
  152.5426  134.0631  159.8214 H   0  0  0  0  0  0  0  0  0  0  0  0  # atno 6909 bound_to 6896
  146.1464  139.6483  142.9128 H   0  0  0  0  0  0  0  0  0  0  0  0  # atno 7974 bound_to 7965
  154.4447  140.1911  156.0708 H   0  0  0  0  0  0  0  0  0  0  0  0  # atno 8008 bound_to 7997
  156.0513  140.3308  155.7327 H   0  0  0  0  0  0  0  0  0  0  0  0  # atno 8009 bound_to 7997
  155.5553  140.0598  157.2832 H   0  0  0  0  0  0  0  0  0  0  0  0  # atno 8010 bound_to 7997
  140.6219  143.2423  151.5458 H   0  0  0  0  0  0  0  0  0  0  0  0  # atno 10167 bound_to 10162
  157.6068  131.1042  150.7676 H   0  0  0  0  0  0  0  0  0  0  0  0  # atno 10718 bound_to 10713
  154.8012  135.3243  154.7545 H   0  0  0  0  0  0  0  0  0  0  0  0  # atno 10763 bound_to 10752
  153.8213  135.6887  153.4831 H   0  0  0  0  0  0  0  0  0  0  0  0  # atno 10764 bound_to 10752
  153.1730  135.4616  154.9871 H   0  0  0  0  0  0  0  0  0  0  0  0  # atno 10765 bound_to 10752
  141.0273  134.0034  157.3195 H   0  0  0  0  0  0  0  0  0  0  0  0  # atno 11005 bound_to 11000
  145.4926  141.0438  143.2584 LP  0  0  0  0  0  0  0  0  0  0  0  0  # atno 17320 bound_to 7965
  144.7852  139.6442  143.7137 LP  0  0  0  0  0  0  0  0  0  0  0  0  # atno 17321 bound_to 7965
  139.5446  144.2555  152.1418 LP  0  0  0  0  0  0  0  0  0  0  0  0  # atno 17342 bound_to 10162
  140.1777  144.4874  150.6545 LP  0  0  0  0  0  0  0  0  0  0  0  0  # atno 17343 bound_to 10162
  156.8063  130.4937  149.5362 LP  0  0  0  0  0  0  0  0  0  0  0  0  # atno 17370 bound_to 10713
  156.1157  130.6073  151.0116 LP  0  0  0  0  0  0  0  0  0  0  0  0  # atno 17371 bound_to 10713
  139.9184  135.0199  156.7972 LP  0  0  0  0  0  0  0  0  0  0  0  0  # atno 17394 bound_to 11000
  140.6468  133.9768  155.7735 LP  0  0  0  0  0  0  0  0  0  0  0  0  # atno 17395 bound_to 11000

$$$$
