AV-unprocessed.smi:3146|AV-procd|sdf|11985|dock9
  -GOLD-   2272017393D 1   1.00000     0.00000
 Structure written by MMmdl.
 35 36  0  0  0  0  0  0  0  0  2 V2000
  151.7535  140.5621  157.8668 O   0  0  0  0  0  0  0  0  0  0  0  0
  151.0173  141.5497  157.8365 C   0  0  0  0  0  0  0  0  0  0  0  0
  149.7439  141.5224  156.9789 C   0  0  0  0  0  0  0  0  0  0  0  0
  149.9499  142.1266  155.6468 N   0  3  0  0  0  0  0  0  0  0  0  0
  149.2681  141.4152  154.5469 C   0  0  0  0  0  0  0  0  0  0  0  0
  149.1830  139.9037  154.8138 C   0  0  0  0  0  0  0  0  0  0  0  0
  150.4704  139.2468  154.6759 N   0  0  0  0  0  0  0  0  0  0  0  0
  150.7357  137.9616  154.2518 C   0  0  0  0  0  0  0  0  0  0  0  0
  152.0909  137.7964  154.2810 C   0  0  0  0  0  0  0  0  0  0  0  0
  152.5756  139.0515  154.7445 C   0  0  0  0  0  0  0  0  0  0  0  0
  151.6031  139.9183  154.9780 N   0  0  0  0  0  0  0  0  0  0  0  0
  151.2883  142.6687  158.5393 N   0  0  0  0  0  0  0  0  0  0  0  0
  152.4510  142.8743  159.4026 C   0  0  0  0  0  0  0  0  0  0  0  0
  152.4269  144.3553  159.7827 C   0  0  0  0  0  0  0  0  0  0  0  0
  150.9626  144.7514  159.6528 C   0  0  0  0  0  0  0  0  0  0  0  0
  150.4301  143.8521  158.5371 C   0  0  0  0  0  0  0  0  0  0  0  0
  149.4181  140.4890  156.8540 H   0  0  0  0  0  0  0  0  0  0  0  0
  148.9488  142.0637  157.4935 H   0  0  0  0  0  0  0  0  0  0  0  0
  149.6103  143.0779  155.6719 H   0  0  0  0  0  0  0  0  0  0  0  0
  148.2627  141.8232  154.4377 H   0  0  0  0  0  0  0  0  0  0  0  0
  149.7913  141.6007  153.6078 H   0  0  0  0  0  0  0  0  0  0  0  0
  148.7848  139.7069  155.8105 H   0  0  0  0  0  0  0  0  0  0  0  0
  148.4917  139.4438  154.1066 H   0  0  0  0  0  0  0  0  0  0  0  0
  149.9482  137.2791  153.9672 H   0  0  0  0  0  0  0  0  0  0  0  0
  152.6513  136.9127  154.0136 H   0  0  0  0  0  0  0  0  0  0  0  0
  153.5977  139.3563  154.9158 H   0  0  0  0  0  0  0  0  0  0  0  0
  152.3491  142.2519  160.2928 H   0  0  0  0  0  0  0  0  0  0  0  0
  153.3878  142.6141  158.9082 H   0  0  0  0  0  0  0  0  0  0  0  0
  152.8300  144.5434  160.7782 H   0  0  0  0  0  0  0  0  0  0  0  0
  153.0223  144.9258  159.0685 H   0  0  0  0  0  0  0  0  0  0  0  0
  150.4400  144.5273  160.5838 H   0  0  0  0  0  0  0  0  0  0  0  0
  150.8282  145.8127  159.4417 H   0  0  0  0  0  0  0  0  0  0  0  0
  150.5154  144.3502  157.5703 H   0  0  0  0  0  0  0  0  0  0  0  0
  149.3807  143.6005  158.6979 H   0  0  0  0  0  0  0  0  0  0  0  0
  150.9414  142.1493  155.4548 H   0  0  0  0  0  0  0  0  0  0  0  0
  1  2  2  0  0  0  0
  2  3  1  0  0  0  0
  2 12  1  0  0  0  0
  3  4  1  0  0  0  0
  3 17  1  0  0  0  0
  3 18  1  0  0  0  0
  4  5  1  0  0  0  0
  4 19  1  0  0  0  0
  4 35  1  0  0  0  0
  5  6  1  0  0  0  0
  5 20  1  0  0  0  0
  5 21  1  0  0  0  0
  6  7  1  0  0  0  0
  6 22  1  0  0  0  0
  6 23  1  0  0  0  0
  7 11  1  0  0  0  0
  7  8  1  0  0  0  0
  8  9  2  0  0  0  0
  8 24  1  0  0  0  0
  9 10  1  0  0  0  0
  9 25  1  0  0  0  0
 10 11  2  0  0  0  0
 10 26  1  0  0  0  0
 12 16  1  0  0  0  0
 12 13  1  0  0  0  0
 13 14  1  0  0  0  0
 13 27  1  0  0  0  0
 13 28  1  0  0  0  0
 14 15  1  0  0  0  0
 14 29  1  0  0  0  0
 14 30  1  0  0  0  0
 15 16  1  0  0  0  0
 15 31  1  0  0  0  0
 15 32  1  0  0  0  0
 16 33  1  0  0  0  0
 16 34  1  0  0  0  0
M  CHG  1   4   1
M  END
> <s_m_source_file>
AV-unprocessed.smi

> <i_m_source_file_index>
3146

> <i_lp_mmshare_version>
43012

> <i_f3d_flags>
0

> <s_epik_input>
W0NIMl0xW0NIMl1bQ0gyXVtDSDJdTjFDKD1PKVtDSDJdW05IXVtDSDJdW0NIMl1uMltjSF1bY0hdW2NIXW4y

> <s_epik_cmdline>
J2VwaWtfcHl0aG9uJywgJy1waCcsICc3LjAnLCAnLXRuJywgJzgnLCAnLW1hJywgJzIwMCcsICctbWV0YWxfYmluZGluZycsICctaW1hZScsICc8aW5maWxlLm1hZT4nLCAnLW9tYWUnLCAnPG91dGZpbGUubWFlPic=

> <r_lp_tautomer_probability>
1

> <r_epik_Ionization_Penalty>
0.203171

> <r_epik_Ionization_Penalty_Charging>
0.203168

> <r_epik_Ionization_Penalty_Neutral>
2.33614e-06

> <r_epik_State_Penalty>
0.193072

> <r_epik_Charging_Adjusted_Penalty>
0.39624

> <i_epik_Tot_Q>
1

> <i_epik_Tot_abs_Q>
1

> <r_epik_Metal_State_Penalty>
0.193553

> <b_epik_Metal_Only>
0

> <s_lp_Force_Field>
OPLS_2005

> <r_lp_Energy>
25.7734

> <b_lp_Chiralities_Consistent>
1

> <s_lp_Variant>
AV-unprocessed.smi:3146-1

> <Gold.Version>
5.8.1

> <Gold.Id.Protein>
6NUR|6NUR_protein|mol2

> <Gold.PLP.Fitness>
47.4753

> <Gold.PLP.PLP>
-37.8619

> <Gold.PLP.part.hbond>
-2.0000

> <Gold.PLP.part.metal>
0.0000

> <Gold.PLP.part.buried>
-4.0951

> <Gold.PLP.part.nonpolar>
-32.5449

> <Gold.PLP.part.repulsive>
0.2090

> <Gold.PLP.ligand.clash>
0.0000

> <Gold.PLP.ligand.torsion>
1.2000

> <Gold.PLP.Chemscore.Hbond>
3.0000

> <Gold.PLP.Chemscore.CHOScore>
0.9962

> <Gold.PLP.Chemscore.Metal>
0.0000

> <Gold.Chemscore.Hbonds>
donor molecule, donor type, donor heavy atom, donor atom, acceptor molecule, acceptor atom, score
      L1  H     4    19       P1  8028  2.00
      P1  H  7989  7998       L1    11  0.80
      L1  C     8    24       P1  7948  1.00

> <Gold.PLP.Chemscore.Internal.Correction>
0.0249

> <Gold.Rescore>
     Score         DG    S(hbond)    S(metal)    S(lipo)     H(rot)  DE(clash)    DE(int)     intcor
     14.68     -16.85       1.77        0.00      88.16       1.90       0.17       2.00       ----

> <Gold.Chemscore.Fitness>
14.6768

> <Gold.Chemscore.DG>
-16.8466

> <Gold.Chemscore.ZeroCoef>
-5.4800

> <Gold.Chemscore.Hbond>
1.7693

> <Gold.Chemscore.Metal>
0.0000

> <Gold.Chemscore.Lipo>
88.1580

> <Gold.Chemscore.Internal_Hbond>
0.0000

> <Gold.Chemscore.DEClash>
0.1739

> <Gold.Chemscore.DEInternal>
1.9958

> <Gold.Chemscore.Rot>
1.8974

> <Gold.Chemscore.Internal.Correction>
   9.000000E+99

> <Gold.Chemscore.Hbonds>
donor molecule, donor type, donor heavy atom, donor atom, acceptor molecule, acceptor atom, score
      L1  H     4    19       P1  8028  1.00
      P1  H  7989  7998       L1    11  0.03

> <Gold.Chemscore.Hbond.Weighted>
-5.9093

> <Gold.Chemscore.Metal.Weighted>
-0.0000

> <Gold.Chemscore.Lipo.Weighted>
-10.3145

> <Gold.Chemscore.Internal_Hbond.Weighted>
0.0000

> <Gold.Chemscore.DEClash.Weighted>
0.1739

> <Gold.Chemscore.DEInternal.Weighted>
1.9958

> <Gold.Chemscore.Rot.Weighted>
4.8572

> <Gold.Chemscore.Internal.Correction.Weighted>
   9.000000E+99

> <Gold.Protein.RotatedTorsions>
[ 6907 6896 6895 6894 ] final  112.01 input  -60.11 | X-H torsion
[ 7974 7965 7964 7962 ] final  -48.45 input  175.53 | X-H torsion
[ 8008 7997 7996 7995 ] final -166.62 input   59.86 | X-H torsion
[ 10167 10162 10161 10158 ] final -156.55 input  -65.29 | X-H torsion
[ 10718 10713 10712 10709 ] final  -80.17 input   66.30 | X-H torsion
[ 10763 10752 10751 10750 ] final  154.86 input  -60.55 | X-H torsion
[ 11005 11000 10999 10996 ] final   32.49 input  -57.11 | X-H torsion

> <Gold.Protein.ActiveResidues>
 VAL166  LYS551  ARG553  GLY616  TRP617  ASP618  TYR619  PRO620  LYS621  CYS622 
 ASP623  PHE694  ASN695  SER759  ASP760  ASP761  ALA762  ILE779  LEU786  VAL792 
 PHE793  MET794  SER795  GLU796  ALA797  LYS798  CYS799  TRP800  GLU811  SER814 

> <Gold.Protein.RotatedAtoms>
  152.4939  133.8576  159.7233 H   0  0  0  0  0  0  0  0  0  0  0  0  # atno 6907 bound_to 6896
  150.9096  133.7005  159.2865 H   0  0  0  0  0  0  0  0  0  0  0  0  # atno 6908 bound_to 6896
  151.4419  135.1025  159.9725 H   0  0  0  0  0  0  0  0  0  0  0  0  # atno 6909 bound_to 6896
  145.9510  140.7572  142.9504 H   0  0  0  0  0  0  0  0  0  0  0  0  # atno 7974 bound_to 7965
  155.8664  140.0986  157.1579 H   0  0  0  0  0  0  0  0  0  0  0  0  # atno 8008 bound_to 7997
  154.3994  140.1355  156.4086 H   0  0  0  0  0  0  0  0  0  0  0  0  # atno 8009 bound_to 7997
  155.7800  140.3458  155.5294 H   0  0  0  0  0  0  0  0  0  0  0  0  # atno 8010 bound_to 7997
  139.6841  143.9531  152.2352 H   0  0  0  0  0  0  0  0  0  0  0  0  # atno 10167 bound_to 10162
  156.0076  130.4566  150.3760 H   0  0  0  0  0  0  0  0  0  0  0  0  # atno 10718 bound_to 10713
  154.1591  135.2811  155.3114 H   0  0  0  0  0  0  0  0  0  0  0  0  # atno 10763 bound_to 10752
  154.6160  135.5483  153.7527 H   0  0  0  0  0  0  0  0  0  0  0  0  # atno 10764 bound_to 10752
  153.0198  135.6427  154.1733 H   0  0  0  0  0  0  0  0  0  0  0  0  # atno 10765 bound_to 10752
  140.2729  134.3062  155.7822 H   0  0  0  0  0  0  0  0  0  0  0  0  # atno 11005 bound_to 11000
  144.6796  140.2435  143.7340 LP  0  0  0  0  0  0  0  0  0  0  0  0  # atno 17320 bound_to 7965
  145.8170  139.2027  143.1960 LP  0  0  0  0  0  0  0  0  0  0  0  0  # atno 17321 bound_to 7965
  139.9329  144.6730  150.8344 LP  0  0  0  0  0  0  0  0  0  0  0  0  # atno 17342 bound_to 10162
  140.7662  143.3296  151.2439 LP  0  0  0  0  0  0  0  0  0  0  0  0  # atno 17343 bound_to 10162
  157.1842  131.0399  151.2733 LP  0  0  0  0  0  0  0  0  0  0  0  0  # atno 17370 bound_to 10713
  157.4119  130.7389  149.6845 LP  0  0  0  0  0  0  0  0  0  0  0  0  # atno 17371 bound_to 10713
  141.2175  133.7478  156.9362 LP  0  0  0  0  0  0  0  0  0  0  0  0  # atno 17394 bound_to 11000
  140.1356  134.9327  157.2397 LP  0  0  0  0  0  0  0  0  0  0  0  0  # atno 17395 bound_to 11000

$$$$
