AV-unprocessed.smi:72|AV-procd|sdf|668|dock7
  -GOLD-   2262016573D 1   1.00000     0.00000
 Structure written by MMmdl.
 29 30  0  0  0  0  0  0  0  0  1 V2000
  152.5379  136.9077  159.6543 N   0  0  0  0  0  0  0  0  0  0  0  0
  152.0245  137.4934  158.6318 C   0  0  0  0  0  0  0  0  0  0  0  0
  150.6631  137.7892  158.4656 N   0  0  0  0  0  0  0  0  0  0  0  0
  150.2826  138.3850  157.3777 C   0  0  0  0  0  0  0  0  0  0  0  0
  151.2218  138.7600  156.3292 N   0  0  0  0  0  0  0  0  0  0  0  0
  150.7841  139.4560  155.0518 C   0  0  1  0  0  0  0  0  0  0  0  0
  149.6941  138.7847  154.4881 O   0  0  0  0  0  0  0  0  0  0  0  0
  148.5047  139.5495  154.6599 C   0  0  2  0  0  0  0  0  0  0  0  0
  147.4308  139.1455  153.6353 C   0  0  0  0  0  0  0  0  0  0  0  0
  148.0412  138.7863  152.4144 O   0  0  0  0  0  0  0  0  0  0  0  0
  149.0109  140.9932  154.5588 C   0  0  2  0  0  0  0  0  0  0  0  0
  149.1824  141.3814  153.2076 O   0  0  0  0  0  0  0  0  0  0  0  0
  150.3577  140.9299  155.2677 C   0  0  1  0  0  0  0  0  0  0  0  0
  150.1963  141.2896  156.6292 O   0  0  0  0  0  0  0  0  0  0  0  0
  152.5990  138.4682  156.4835 C   0  0  0  0  0  0  0  0  0  0  0  0
  153.4354  138.7716  155.6330 O   0  0  0  0  0  0  0  0  0  0  0  0
  152.9405  137.8437  157.6311 N   0  0  0  0  0  0  0  0  0  0  0  0
  151.6237  139.3508  154.3624 H   0  0  0  0  0  0  0  0  0  0  0  0
  148.1261  139.4001  155.6727 H   0  0  0  0  0  0  0  0  0  0  0  0
  148.3225  141.6993  155.0256 H   0  0  0  0  0  0  0  0  0  0  0  0
  151.0954  141.5978  154.8209 H   0  0  0  0  0  0  0  0  0  0  0  0
  153.5358  136.8070  159.5409 H   0  0  0  0  0  0  0  0  0  0  0  0
  149.2398  138.6371  157.1878 H   0  0  0  0  0  0  0  0  0  0  0  0
  146.8788  138.2756  153.9923 H   0  0  0  0  0  0  0  0  0  0  0  0
  146.7099  139.9480  153.4758 H   0  0  0  0  0  0  0  0  0  0  0  0
  148.1365  137.8464  152.3903 H   0  0  0  0  0  0  0  0  0  0  0  0
  149.3794  140.6119  152.6962 H   0  0  0  0  0  0  0  0  0  0  0  0
  150.7523  142.0323  156.8089 H   0  0  0  0  0  0  0  0  0  0  0  0
  153.9160  137.6242  157.7686 H   0  0  0  0  0  0  0  0  0  0  0  0
  1  2  2  0  0  0  0
  1 22  1  0  0  0  0
  2 17  1  0  0  0  0
  2  3  1  0  0  0  0
  3  4  2  0  0  0  0
  4  5  1  0  0  0  0
  4 23  1  0  0  0  0
  5  6  1  0  0  0  0
  5 15  1  0  0  0  0
  6 18  1  0  0  0  0
  6 13  1  0  0  0  0
  6  7  1  0  0  0  0
  7  8  1  0  0  0  0
  8 19  1  0  0  0  0
  8  9  1  0  0  0  0
  8 11  1  0  0  0  0
  9 10  1  0  0  0  0
  9 24  1  0  0  0  0
  9 25  1  0  0  0  0
 10 26  1  0  0  0  0
 11 20  1  0  0  0  0
 11 12  1  0  0  0  0
 11 13  1  0  0  0  0
 12 27  1  0  0  0  0
 13 21  1  0  0  0  0
 13 14  1  0  0  0  0
 14 28  1  0  0  0  0
 15 16  2  0  0  0  0
 15 17  1  0  0  0  0
 17 29  1  0  0  0  0
M  END
> <s_m_source_file>
AV-unprocessed.smi

> <i_m_source_file_index>
72

> <i_lp_mmshare_version>
43012

> <i_f3d_flags>
0

> <s_epik_input>
W05IMl1jMW5bY0hdbihjKD1PKW4xKVtDQEBIXTJPW0NASF0oW0NIMl1bT0hdKVtDQEBIXShbT0hdKVtDQEhdMltPSF0=

> <s_epik_cmdline>
J2VwaWtfcHl0aG9uJywgJy1waCcsICc3LjAnLCAnLXRuJywgJzgnLCAnLW1hJywgJzIwMCcsICctbWV0YWxfYmluZGluZycsICctaW1hZScsICc8aW5maWxlLm1hZT4nLCAnLW9tYWUnLCAnPG91dGZpbGUubWFlPic=

> <r_lp_tautomer_probability>
7.17554e-07

> <r_epik_Ionization_Penalty>
0.0066451

> <r_epik_Ionization_Penalty_Charging>
0.00663793

> <r_epik_Ionization_Penalty_Neutral>
7.17052e-06

> <r_epik_State_Penalty>
0.419231

> <r_epik_Charging_Adjusted_Penalty>
0.425868

> <i_epik_Tot_Q>
0

> <i_epik_Tot_abs_Q>
0

> <r_epik_Metal_State_Penalty>
1.44144

> <b_epik_Metal_Only>
0

> <s_epik_Chemistry_Notes>
This compound contains an acetal/aminal-like group ( X-CH(R)-Y where X, Y are N, S, or O) that may be acid/base labile, releasing an aldehyde.

> <s_lp_Force_Field>
OPLS_2005

> <r_lp_Energy>
43.5158

> <b_lp_Chiralities_Consistent>
1

> <s_lp_Variant>
AV-unprocessed.smi:72-6

> <Gold.Version>
5.8.1

> <Gold.Id.Protein>
6NUR|6NUR_protein|mol2

> <Gold.PLP.Fitness>
36.3548

> <Gold.PLP.PLP>
-22.8390

> <Gold.PLP.part.hbond>
-6.1665

> <Gold.PLP.part.metal>
0.0000

> <Gold.PLP.part.buried>
-2.5950

> <Gold.PLP.part.nonpolar>
-13.2599

> <Gold.PLP.part.repulsive>
0.3073

> <Gold.PLP.ligand.clash>
0.0000

> <Gold.PLP.ligand.torsion>
0.4895

> <Gold.PLP.Chemscore.Hbond>
4.8080

> <Gold.PLP.Chemscore.CHOScore>
0.0000

> <Gold.PLP.Chemscore.Metal>
0.0000

> <Gold.Chemscore.Hbonds>
donor molecule, donor type, donor heavy atom, donor atom, acceptor molecule, acceptor atom, score
      L1  H    10    26       P1  7948  1.00
      L1  H    12    27       P1  7957  0.86
      P1  H  6896  6908       L1     1  0.95
      P1  H  7997  8008       L1    16  0.94
      P1  H  8011  8017       L1    12  0.85

> <Gold.PLP.Chemscore.Internal.Correction>
0.0709

> <Gold.Rescore>
     Score         DG    S(hbond)    S(metal)    S(lipo)     H(rot)  DE(clash)    DE(int)     intcor
      9.89     -10.62       3.82        0.00      23.76       4.06       0.01       0.71       ----

> <Gold.Chemscore.Fitness>
9.8885

> <Gold.Chemscore.DG>
-10.6153

> <Gold.Chemscore.ZeroCoef>
-5.4800

> <Gold.Chemscore.Hbond>
3.8169

> <Gold.Chemscore.Metal>
0.0000

> <Gold.Chemscore.Lipo>
23.7634

> <Gold.Chemscore.Internal_Hbond>
0.0000

> <Gold.Chemscore.DEClash>
0.0135

> <Gold.Chemscore.DEInternal>
0.7133

> <Gold.Chemscore.Rot>
4.0600

> <Gold.Chemscore.Internal.Correction>
   9.000000E+99

> <Gold.Chemscore.Hbonds>
donor molecule, donor type, donor heavy atom, donor atom, acceptor molecule, acceptor atom, score
      L1  H    10    26       P1  7948  0.97
      L1  H    12    27       P1  7957  0.86
      P1  H  6896  6908       L1     1  0.20
      P1  H  7997  8008       L1    16  0.78
      P1  H  8011  8017       L1    12  0.18

> <Gold.Chemscore.Hbond.Weighted>
-12.7486

> <Gold.Chemscore.Metal.Weighted>
-0.0000

> <Gold.Chemscore.Lipo.Weighted>
-2.7803

> <Gold.Chemscore.Internal_Hbond.Weighted>
0.0000

> <Gold.Chemscore.DEClash.Weighted>
0.0135

> <Gold.Chemscore.DEInternal.Weighted>
0.7133

> <Gold.Chemscore.Rot.Weighted>
10.3936

> <Gold.Chemscore.Internal.Correction.Weighted>
   9.000000E+99

> <Gold.Protein.RotatedTorsions>
[ 6907 6896 6895 6894 ] final  -89.03 input  -60.11 | X-H torsion
[ 7974 7965 7964 7962 ] final -155.63 input  175.53 | X-H torsion
[ 8008 7997 7996 7995 ] final  -29.00 input   59.86 | X-H torsion
[ 10167 10162 10161 10158 ] final   43.37 input  -65.29 | X-H torsion
[ 10718 10713 10712 10709 ] final  -23.63 input   66.30 | X-H torsion
[ 10763 10752 10751 10750 ] final -155.53 input  -60.55 | X-H torsion
[ 11005 11000 10999 10996 ] final   99.51 input  -57.11 | X-H torsion

> <Gold.Protein.ActiveResidues>
 VAL166  LYS551  ARG553  GLY616  TRP617  ASP618  TYR619  PRO620  LYS621  CYS622 
 ASP623  PHE694  ASN695  SER759  ASP760  ASP761  ALA762  ILE779  LEU786  VAL792 
 PHE793  MET794  SER795  GLU796  ALA797  LYS798  CYS799  TRP800  GLU811  SER814 

> <Gold.Protein.RotatedAtoms>
  150.6871  134.2650  159.4564 H   0  0  0  0  0  0  0  0  0  0  0  0  # atno 6907 bound_to 6896
  152.0577  134.9612  160.0584 H   0  0  0  0  0  0  0  0  0  0  0  0  # atno 6908 bound_to 6896
  152.1051  133.4236  159.4642 H   0  0  0  0  0  0  0  0  0  0  0  0  # atno 6909 bound_to 6896
  144.7631  140.4223  143.5962 H   0  0  0  0  0  0  0  0  0  0  0  0  # atno 7974 bound_to 7965
  154.4308  140.1830  156.1179 H   0  0  0  0  0  0  0  0  0  0  0  0  # atno 8008 bound_to 7997
  156.0166  140.3345  155.6970 H   0  0  0  0  0  0  0  0  0  0  0  0  # atno 8009 bound_to 7997
  155.6035  140.0643  157.2717 H   0  0  0  0  0  0  0  0  0  0  0  0  # atno 8010 bound_to 7997
  140.3450  144.2422  150.6151 H   0  0  0  0  0  0  0  0  0  0  0  0  # atno 10167 bound_to 10162
  156.4885  130.4561  149.6769 H   0  0  0  0  0  0  0  0  0  0  0  0  # atno 10718 bound_to 10713
  154.7780  135.3166  154.8050 H   0  0  0  0  0  0  0  0  0  0  0  0  # atno 10763 bound_to 10752
  153.8769  135.6839  153.4774 H   0  0  0  0  0  0  0  0  0  0  0  0  # atno 10764 bound_to 10752
  153.1409  135.4739  154.9431 H   0  0  0  0  0  0  0  0  0  0  0  0  # atno 10765 bound_to 10752
  139.8771  134.9098  156.4616 H   0  0  0  0  0  0  0  0  0  0  0  0  # atno 11005 bound_to 11000
  145.6556  139.1572  143.2837 LP  0  0  0  0  0  0  0  0  0  0  0  0  # atno 17320 bound_to 7965
  146.1713  140.6641  142.9232 LP  0  0  0  0  0  0  0  0  0  0  0  0  # atno 17321 bound_to 7965
  140.5273  143.2251  151.8295 LP  0  0  0  0  0  0  0  0  0  0  0  0  # atno 17342 bound_to 10162
  139.4834  144.4764  151.9361 LP  0  0  0  0  0  0  0  0  0  0  0  0  # atno 17343 bound_to 10162
  156.3450  130.7402  151.2353 LP  0  0  0  0  0  0  0  0  0  0  0  0  # atno 17370 bound_to 10713
  157.7476  131.0393  150.4543 LP  0  0  0  0  0  0  0  0  0  0  0  0  # atno 17371 bound_to 10713
  140.8860  133.7883  155.9518 LP  0  0  0  0  0  0  0  0  0  0  0  0  # atno 17394 bound_to 11000
  140.8804  134.2618  157.5147 LP  0  0  0  0  0  0  0  0  0  0  0  0  # atno 17395 bound_to 11000

$$$$
