AV-unprocessed.smi:2795|AV-procd|sdf|10781|dock7
  -GOLD-   2272015213D 1   1.00000     0.00000
 Structure written by MMmdl.
 36 37  0  0  0  0  0  0  0  0  1 V2000
  153.0337  142.8667  160.8146 C   0  0  0  0  0  0  0  0  0  0  0  0
  152.2409  143.9045  160.1863 N   0  0  0  0  0  0  0  0  0  0  0  0
  152.1760  145.1936  160.5456 C   0  0  0  0  0  0  0  0  0  0  0  0
  151.3640  145.9312  159.8014 N   0  0  0  0  0  0  0  0  0  0  0  0
  150.8566  145.0275  158.8721 C   0  0  0  0  0  0  0  0  0  0  0  0
  151.3926  143.7750  159.0898 C   0  0  0  0  0  0  0  0  0  0  0  0
  151.1742  142.4692  158.3807 C   0  0  0  0  0  0  0  0  0  0  0  0
  151.4080  142.4930  156.8605 C   0  0  0  0  0  0  0  0  0  0  0  0
  150.1732  142.2532  156.1243 N   0  0  0  0  0  0  0  0  0  0  0  0
  149.9396  141.1783  155.3578 C   0  0  0  0  0  0  0  0  0  0  0  0
  150.7786  140.2966  155.1685 O   0  0  0  0  0  0  0  0  0  0  0  0
  148.5515  141.1039  154.7066 C   0  0  1  0  0  0  0  0  0  0  0  0
  147.3996  141.0705  155.7373 C   0  0  0  0  0  0  0  0  0  0  0  0
  146.0408  141.0804  155.0282 C   0  0  0  0  0  0  0  0  0  0  0  0
  145.9769  142.2574  154.0497 C   0  0  0  0  0  0  0  0  0  0  0  0
  147.1873  142.2294  153.1037 C   0  0  0  0  0  0  0  0  0  0  0  0
  148.3949  142.2417  153.8581 O   0  0  0  0  0  0  0  0  0  0  0  0
  153.5555  143.2641  161.6859 H   0  0  0  0  0  0  0  0  0  0  0  0
  153.7689  142.4858  160.1053 H   0  0  0  0  0  0  0  0  0  0  0  0
  152.3855  142.0500  161.1333 H   0  0  0  0  0  0  0  0  0  0  0  0
  152.7354  145.6020  161.3747 H   0  0  0  0  0  0  0  0  0  0  0  0
  150.1501  145.3481  158.1203 H   0  0  0  0  0  0  0  0  0  0  0  0
  151.8238  141.7117  158.8210 H   0  0  0  0  0  0  0  0  0  0  0  0
  150.1547  142.1327  158.5710 H   0  0  0  0  0  0  0  0  0  0  0  0
  151.8205  143.4598  156.5683 H   0  0  0  0  0  0  0  0  0  0  0  0
  152.1444  141.7365  156.5846 H   0  0  0  0  0  0  0  0  0  0  0  0
  149.4335  142.9330  156.2299 H   0  0  0  0  0  0  0  0  0  0  0  0
  148.5241  140.1987  154.0974 H   0  0  0  0  0  0  0  0  0  0  0  0
  147.4758  140.1842  156.3685 H   0  0  0  0  0  0  0  0  0  0  0  0
  147.4667  141.9347  156.4002 H   0  0  0  0  0  0  0  0  0  0  0  0
  145.9020  140.1440  154.4866 H   0  0  0  0  0  0  0  0  0  0  0  0
  145.2317  141.1457  155.7561 H   0  0  0  0  0  0  0  0  0  0  0  0
  145.0491  142.2237  153.4782 H   0  0  0  0  0  0  0  0  0  0  0  0
  145.9696  143.1962  154.6047 H   0  0  0  0  0  0  0  0  0  0  0  0
  147.1581  141.3494  152.4596 H   0  0  0  0  0  0  0  0  0  0  0  0
  147.1723  143.1022  152.4506 H   0  0  0  0  0  0  0  0  0  0  0  0
  1  2  1  0  0  0  0
  1 18  1  0  0  0  0
  1 19  1  0  0  0  0
  1 20  1  0  0  0  0
  2  6  1  0  0  0  0
  2  3  1  0  0  0  0
  3  4  2  0  0  0  0
  3 21  1  0  0  0  0
  4  5  1  0  0  0  0
  5  6  2  0  0  0  0
  5 22  1  0  0  0  0
  6  7  1  0  0  0  0
  7  8  1  0  0  0  0
  7 23  1  0  0  0  0
  7 24  1  0  0  0  0
  8  9  1  0  0  0  0
  8 25  1  0  0  0  0
  8 26  1  0  0  0  0
  9 10  1  0  0  0  0
  9 27  1  0  0  0  0
 10 11  2  0  0  0  0
 10 12  1  0  0  0  0
 12 17  1  0  0  0  0
 12 13  1  0  0  0  0
 12 28  1  0  0  0  0
 13 14  1  0  0  0  0
 13 29  1  0  0  0  0
 13 30  1  0  0  0  0
 14 15  1  0  0  0  0
 14 31  1  0  0  0  0
 14 32  1  0  0  0  0
 15 16  1  0  0  0  0
 15 33  1  0  0  0  0
 15 34  1  0  0  0  0
 16 17  1  0  0  0  0
 16 35  1  0  0  0  0
 16 36  1  0  0  0  0
M  END
> <s_m_source_file>
AV-unprocessed.smi

> <i_m_source_file_index>
2795

> <i_lp_mmshare_version>
43012

> <i_f3d_flags>
0

> <s_epik_input>
W0NIM11uMVtjSF1uW2NIXWMxW0NIMl1bQ0gyXVtOSF1DKD1PKVtDQEBIXTJbQ0gyXVtDSDJdW0NIMl1bQ0gyXU8y

> <s_epik_cmdline>
J2VwaWtfcHl0aG9uJywgJy1waCcsICc3LjAnLCAnLXRuJywgJzgnLCAnLW1hJywgJzIwMCcsICctbWV0YWxfYmluZGluZycsICctaW1hZScsICc8aW5maWxlLm1hZT4nLCAnLW9tYWUnLCAnPG91dGZpbGUubWFlPic=

> <r_lp_tautomer_probability>
1

> <r_epik_Ionization_Penalty>
0.870864

> <r_epik_Ionization_Penalty_Charging>
0.870864

> <r_epik_Ionization_Penalty_Neutral>
4.06047e-08

> <r_epik_State_Penalty>
0.90819

> <r_epik_Charging_Adjusted_Penalty>
1.77905

> <i_epik_Tot_Q>
0

> <i_epik_Tot_abs_Q>
0

> <r_epik_Metal_State_Penalty>
0.360563

> <b_epik_Metal_Only>
0

> <s_lp_Force_Field>
OPLS_2005

> <r_lp_Energy>
10.035

> <b_lp_Chiralities_Consistent>
1

> <s_lp_Variant>
AV-unprocessed.smi:2795-4

> <Gold.Version>
5.8.1

> <Gold.Id.Protein>
6NUR|6NUR_protein|mol2

> <Gold.PLP.Fitness>
42.0733

> <Gold.PLP.PLP>
-33.9124

> <Gold.PLP.part.hbond>
-4.8472

> <Gold.PLP.part.metal>
0.0000

> <Gold.PLP.part.buried>
-5.3668

> <Gold.PLP.part.nonpolar>
-23.7004

> <Gold.PLP.part.repulsive>
1.3005

> <Gold.PLP.ligand.clash>
0.0000

> <Gold.PLP.ligand.torsion>
0.4184

> <Gold.PLP.Chemscore.Hbond>
1.9712

> <Gold.PLP.Chemscore.CHOScore>
1.0258

> <Gold.PLP.Chemscore.Metal>
0.0000

> <Gold.Chemscore.Hbonds>
donor molecule, donor type, donor heavy atom, donor atom, acceptor molecule, acceptor atom, score
      L1  H     9    27       P1  8028  0.85
      P1  H  7989  7998       L1    11  1.00
      P1  H  8011  8017       L1    17  0.27
      L1  C     5    22       P1  8028  0.06
      L1  C     5    22       P1  8029  0.90

> <Gold.PLP.Chemscore.Internal.Correction>
0.0067

> <Gold.Rescore>
     Score         DG    S(hbond)    S(metal)    S(lipo)     H(rot)  DE(clash)    DE(int)     intcor
     12.43     -14.61       1.48        0.00      74.24       1.76       1.59       0.59       ----

> <Gold.Chemscore.Fitness>
12.4319

> <Gold.Chemscore.DG>
-14.6122

> <Gold.Chemscore.ZeroCoef>
-5.4800

> <Gold.Chemscore.Hbond>
1.4813

> <Gold.Chemscore.Metal>
0.0000

> <Gold.Chemscore.Lipo>
74.2423

> <Gold.Chemscore.Internal_Hbond>
0.0000

> <Gold.Chemscore.DEClash>
1.5895

> <Gold.Chemscore.DEInternal>
0.5909

> <Gold.Chemscore.Rot>
1.7585

> <Gold.Chemscore.Internal.Correction>
   9.000000E+99

> <Gold.Chemscore.Hbonds>
donor molecule, donor type, donor heavy atom, donor atom, acceptor molecule, acceptor atom, score
      L1  H     9    27       P1  8028  0.82
      P1  H  7989  7998       L1    11  0.34
      P1  H  8011  8017       L1    17  0.06

> <Gold.Chemscore.Hbond.Weighted>
-4.9476

> <Gold.Chemscore.Metal.Weighted>
-0.0000

> <Gold.Chemscore.Lipo.Weighted>
-8.6863

> <Gold.Chemscore.Internal_Hbond.Weighted>
0.0000

> <Gold.Chemscore.DEClash.Weighted>
1.5895

> <Gold.Chemscore.DEInternal.Weighted>
0.5909

> <Gold.Chemscore.Rot.Weighted>
4.5018

> <Gold.Chemscore.Internal.Correction.Weighted>
   9.000000E+99

> <Gold.Protein.RotatedTorsions>
[ 6907 6896 6895 6894 ] final -132.04 input  -60.11 | X-H torsion
[ 7974 7965 7964 7962 ] final -170.22 input  175.53 | X-H torsion
[ 8008 7997 7996 7995 ] final   -4.07 input   59.86 | X-H torsion
[ 10167 10162 10161 10158 ] final  137.09 input  -65.29 | X-H torsion
[ 10718 10713 10712 10709 ] final  170.34 input   66.30 | X-H torsion
[ 10763 10752 10751 10750 ] final  -87.92 input  -60.55 | X-H torsion
[ 11005 11000 10999 10996 ] final  165.08 input  -57.11 | X-H torsion

> <Gold.Protein.ActiveResidues>
 VAL166  LYS551  ARG553  GLY616  TRP617  ASP618  TYR619  PRO620  LYS621  CYS622 
 ASP623  PHE694  ASN695  SER759  ASP760  ASP761  ALA762  ILE779  LEU786  VAL792 
 PHE793  MET794  SER795  GLU796  ALA797  LYS798  CYS799  TRP800  GLU811  SER814 

> <Gold.Protein.RotatedAtoms>
  150.9579  133.6477  159.2759 H   0  0  0  0  0  0  0  0  0  0  0  0  # atno 6907 bound_to 6896
  151.3810  135.0938  159.9506 H   0  0  0  0  0  0  0  0  0  0  0  0  # atno 6908 bound_to 6896
  152.5136  133.9113  159.7544 H   0  0  0  0  0  0  0  0  0  0  0  0  # atno 6909 bound_to 6896
  144.7173  140.2105  143.6328 H   0  0  0  0  0  0  0  0  0  0  0  0  # atno 7974 bound_to 7965
  154.6182  140.2493  155.7582 H   0  0  0  0  0  0  0  0  0  0  0  0  # atno 8008 bound_to 7997
  156.2411  140.2932  156.0397 H   0  0  0  0  0  0  0  0  0  0  0  0  # atno 8009 bound_to 7997
  155.1940  140.0392  157.2896 H   0  0  0  0  0  0  0  0  0  0  0  0  # atno 8010 bound_to 7997
  139.5157  144.6429  151.5519 H   0  0  0  0  0  0  0  0  0  0  0  0  # atno 10167 bound_to 10162
  157.0096  131.0200  151.2807 H   0  0  0  0  0  0  0  0  0  0  0  0  # atno 10718 bound_to 10713
  154.6388  135.5396  153.7766 H   0  0  0  0  0  0  0  0  0  0  0  0  # atno 10763 bound_to 10752
  153.0323  135.6454  154.1190 H   0  0  0  0  0  0  0  0  0  0  0  0  # atno 10764 bound_to 10752
  154.1116  135.2926  155.3209 H   0  0  0  0  0  0  0  0  0  0  0  0  # atno 10765 bound_to 10752
  140.2524  134.7966  157.3514 H   0  0  0  0  0  0  0  0  0  0  0  0  # atno 11005 bound_to 11000
  145.8595  139.2216  143.1725 LP  0  0  0  0  0  0  0  0  0  0  0  0  # atno 17320 bound_to 7965
  146.0186  140.8369  142.9934 LP  0  0  0  0  0  0  0  0  0  0  0  0  # atno 17321 bound_to 7965
  140.6203  143.9271  150.6521 LP  0  0  0  0  0  0  0  0  0  0  0  0  # atno 17342 bound_to 10162
  140.2542  143.3571  152.1379 LP  0  0  0  0  0  0  0  0  0  0  0  0  # atno 17343 bound_to 10162
  157.5330  130.8071  149.7939 LP  0  0  0  0  0  0  0  0  0  0  0  0  # atno 17370 bound_to 10713
  156.0141  130.3821  150.2168 LP  0  0  0  0  0  0  0  0  0  0  0  0  # atno 17371 bound_to 10713
  140.1544  134.4808  155.7938 LP  0  0  0  0  0  0  0  0  0  0  0  0  # atno 17394 bound_to 11000
  141.2200  133.6875  156.7435 LP  0  0  0  0  0  0  0  0  0  0  0  0  # atno 17395 bound_to 11000

$$$$
