AV-unprocessed.smi:1894|AV-procd|sdf|7679|dock1
  -GOLD-   22720 9423D 1   1.00000     0.00000
 Structure written by MMmdl.
 32 34  0  0  0  0  0  0  0  0  1 V2000
  153.7555  139.6427  158.4229 O   0  0  0  0  0  0  0  0  0  0  0  0
  152.5386  139.7914  158.3158 C   0  0  0  0  0  0  0  0  0  0  0  0
  151.6719  138.6406  157.8051 C   0  0  0  0  0  0  0  0  0  0  0  0
  151.2571  138.8744  156.4344 N   0  0  0  0  0  0  0  0  0  0  0  0
  151.4213  139.9400  155.6485 C   0  0  0  0  0  0  0  0  0  0  0  0
  150.8964  139.7991  154.4391 N   0  0  0  0  0  0  0  0  0  0  0  0
  150.3903  138.5353  154.5559 C   0  0  0  0  0  0  0  0  0  0  0  0
  150.5788  137.9361  155.7318 N   0  0  0  0  0  0  0  0  0  0  0  0
  151.8975  140.9309  158.6189 N   0  0  0  0  0  0  0  0  0  0  0  0
  152.5211  142.1585  159.1011 C   0  0  0  0  0  0  0  0  0  0  0  0
  152.1784  142.4585  160.5516 C   0  0  0  0  0  0  0  0  0  0  0  0
  152.9686  143.4659  161.3538 C   0  0  0  0  0  0  0  0  0  0  0  0
  153.0643  141.9948  161.6846 C   0  0  0  0  0  0  0  0  0  0  0  0
  152.1655  143.3424  158.2201 C   0  0  0  0  0  0  0  0  0  0  0  0
  152.4889  144.7548  158.6448 C   0  0  0  0  0  0  0  0  0  0  0  0
  151.0502  144.2934  158.5850 C   0  0  0  0  0  0  0  0  0  0  0  0
  152.2321  137.7057  157.8471 H   0  0  0  0  0  0  0  0  0  0  0  0
  150.7917  138.5178  158.4384 H   0  0  0  0  0  0  0  0  0  0  0  0
  151.9321  140.8364  155.9689 H   0  0  0  0  0  0  0  0  0  0  0  0
  149.8671  138.0420  153.7499 H   0  0  0  0  0  0  0  0  0  0  0  0
  150.8960  140.9537  158.4908 H   0  0  0  0  0  0  0  0  0  0  0  0
  153.6042  142.0325  159.0383 H   0  0  0  0  0  0  0  0  0  0  0  0
  151.1087  142.4408  160.7530 H   0  0  0  0  0  0  0  0  0  0  0  0
  153.8357  143.9267  160.8855 H   0  0  0  0  0  0  0  0  0  0  0  0
  152.4174  144.1023  162.0429 H   0  0  0  0  0  0  0  0  0  0  0  0
  152.5761  141.6486  162.5931 H   0  0  0  0  0  0  0  0  0  0  0  0
  153.9932  141.4875  161.4325 H   0  0  0  0  0  0  0  0  0  0  0  0
  152.2740  143.1361  157.1565 H   0  0  0  0  0  0  0  0  0  0  0  0
  152.9281  144.9005  159.6299 H   0  0  0  0  0  0  0  0  0  0  0  0
  152.8298  145.4446  157.8754 H   0  0  0  0  0  0  0  0  0  0  0  0
  150.4316  144.6746  157.7750 H   0  0  0  0  0  0  0  0  0  0  0  0
  150.5367  144.1422  159.5322 H   0  0  0  0  0  0  0  0  0  0  0  0
  1  2  2  0  0  0  0
  2  3  1  0  0  0  0
  2  9  1  0  0  0  0
  3  4  1  0  0  0  0
  3 17  1  0  0  0  0
  3 18  1  0  0  0  0
  4  8  1  0  0  0  0
  4  5  1  0  0  0  0
  5  6  2  0  0  0  0
  5 19  1  0  0  0  0
  6  7  1  0  0  0  0
  7  8  2  0  0  0  0
  7 20  1  0  0  0  0
  9 10  1  0  0  0  0
  9 21  1  0  0  0  0
 10 11  1  0  0  0  0
 10 14  1  0  0  0  0
 10 22  1  0  0  0  0
 11 13  1  0  0  0  0
 11 12  1  0  0  0  0
 11 23  1  0  0  0  0
 12 13  1  0  0  0  0
 12 24  1  0  0  0  0
 12 25  1  0  0  0  0
 13 26  1  0  0  0  0
 13 27  1  0  0  0  0
 14 16  1  0  0  0  0
 14 15  1  0  0  0  0
 14 28  1  0  0  0  0
 15 16  1  0  0  0  0
 15 29  1  0  0  0  0
 15 30  1  0  0  0  0
 16 31  1  0  0  0  0
 16 32  1  0  0  0  0
M  END
> <s_m_source_file>
AV-unprocessed.smi

> <i_m_source_file_index>
1894

> <i_lp_mmshare_version>
43012

> <i_f3d_flags>
0

> <s_epik_input>
W0NIMl0xW0NIMl1bQ0hdMVtDSF0oW0NIXTJbQ0gyXVtDSDJdMilbTkhdQyg9TylbQ0gyXW4zW2NIXW5bY0hdbjM=

> <s_epik_cmdline>
J2VwaWtfcHl0aG9uJywgJy1waCcsICc3LjAnLCAnLXRuJywgJzgnLCAnLW1hJywgJzIwMCcsICctbWV0YWxfYmluZGluZycsICctaW1hZScsICc8aW5maWxlLm1hZT4nLCAnLW9tYWUnLCAnPG91dGZpbGUubWFlPic=

> <r_lp_tautomer_probability>
1

> <r_epik_Ionization_Penalty>
9.18136e-06

> <r_epik_Ionization_Penalty_Charging>
0

> <r_epik_Ionization_Penalty_Neutral>
9.18136e-06

> <r_epik_State_Penalty>
-0

> <r_epik_Charging_Adjusted_Penalty>
0

> <i_epik_Tot_Q>
0

> <i_epik_Tot_abs_Q>
0

> <r_epik_Metal_State_Penalty>
-0

> <b_epik_Metal_Only>
0

> <s_lp_Force_Field>
OPLS_2005

> <r_lp_Energy>
25.0863

> <b_lp_Chiralities_Consistent>
1

> <s_lp_Variant>
AV-unprocessed.smi:1894-1

> <Gold.Version>
5.8.1

> <Gold.Id.Protein>
6NUR|6NUR_protein|mol2

> <Gold.PLP.Fitness>
41.0774

> <Gold.PLP.PLP>
-34.0234

> <Gold.PLP.part.hbond>
-2.0000

> <Gold.PLP.part.metal>
0.0000

> <Gold.PLP.part.buried>
-3.6060

> <Gold.PLP.part.nonpolar>
-28.4106

> <Gold.PLP.part.repulsive>
0.2748

> <Gold.PLP.ligand.clash>
0.0000

> <Gold.PLP.ligand.torsion>
1.3963

> <Gold.PLP.Chemscore.Hbond>
2.0000

> <Gold.PLP.Chemscore.CHOScore>
0.5614

> <Gold.PLP.Chemscore.Metal>
0.0000

> <Gold.Chemscore.Hbonds>
donor molecule, donor type, donor heavy atom, donor atom, acceptor molecule, acceptor atom, score
      P1  H  7989  7998       L1     6  1.00
      P1  H  7997  8009       L1     1  1.00
      L1  C     7    20       P1  7948  0.49

> <Gold.PLP.Chemscore.Internal.Correction>
2.1623

> <Gold.Rescore>
     Score         DG    S(hbond)    S(metal)    S(lipo)     H(rot)  DE(clash)    DE(int)     intcor
     13.95     -15.34       1.89        0.00      84.95       2.50       0.16       1.23       ----

> <Gold.Chemscore.Fitness>
13.9517

> <Gold.Chemscore.DG>
-15.3394

> <Gold.Chemscore.ZeroCoef>
-5.4800

> <Gold.Chemscore.Hbond>
1.8906

> <Gold.Chemscore.Metal>
0.0000

> <Gold.Chemscore.Lipo>
84.9490

> <Gold.Chemscore.Internal_Hbond>
0.0000

> <Gold.Chemscore.DEClash>
0.1568

> <Gold.Chemscore.DEInternal>
1.2309

> <Gold.Chemscore.Rot>
2.4977

> <Gold.Chemscore.Internal.Correction>
   9.000000E+99

> <Gold.Chemscore.Hbonds>
donor molecule, donor type, donor heavy atom, donor atom, acceptor molecule, acceptor atom, score
      P1  H  7989  7998       L1     6  0.60
      P1  H  7997  8009       L1     1  0.96

> <Gold.Chemscore.Hbond.Weighted>
-6.3145

> <Gold.Chemscore.Metal.Weighted>
-0.0000

> <Gold.Chemscore.Lipo.Weighted>
-9.9390

> <Gold.Chemscore.Internal_Hbond.Weighted>
0.0000

> <Gold.Chemscore.DEClash.Weighted>
0.1568

> <Gold.Chemscore.DEInternal.Weighted>
1.2309

> <Gold.Chemscore.Rot.Weighted>
6.3941

> <Gold.Chemscore.Internal.Correction.Weighted>
   9.000000E+99

> <Gold.Protein.RotatedTorsions>
[ 6907 6896 6895 6894 ] final -122.11 input  -60.11 | X-H torsion
[ 7974 7965 7964 7962 ] final -170.42 input  175.53 | X-H torsion
[ 8008 7997 7996 7995 ] final  144.09 input   59.86 | X-H torsion
[ 10167 10162 10161 10158 ] final  -91.20 input  -65.29 | X-H torsion
[ 10718 10713 10712 10709 ] final  137.98 input   66.30 | X-H torsion
[ 10763 10752 10751 10750 ] final -178.64 input  -60.55 | X-H torsion
[ 11005 11000 10999 10996 ] final   17.43 input  -57.11 | X-H torsion

> <Gold.Protein.ActiveResidues>
 VAL166  LYS551  ARG553  GLY616  TRP617  ASP618  TYR619  PRO620  LYS621  CYS622 
 ASP623  PHE694  ASN695  SER759  ASP760  ASP761  ALA762  ILE779  LEU786  VAL792 
 PHE793  MET794  SER795  GLU796  ALA797  LYS798  CYS799  TRP800  GLU811  SER814 

> <Gold.Protein.RotatedAtoms>
  150.8546  133.7735  159.3013 H   0  0  0  0  0  0  0  0  0  0  0  0  # atno 6907 bound_to 6896
  151.5397  135.1067  159.9933 H   0  0  0  0  0  0  0  0  0  0  0  0  # atno 6908 bound_to 6896
  152.4579  133.7718  159.6859 H   0  0  0  0  0  0  0  0  0  0  0  0  # atno 6909 bound_to 6896
  144.7170  140.2075  143.6331 H   0  0  0  0  0  0  0  0  0  0  0  0  # atno 7974 bound_to 7965
  156.2916  140.2245  156.4997 H   0  0  0  0  0  0  0  0  0  0  0  0  # atno 8008 bound_to 7997
  154.7700  140.0467  157.1065 H   0  0  0  0  0  0  0  0  0  0  0  0  # atno 8009 bound_to 7997
  154.9885  140.3087  155.4919 H   0  0  0  0  0  0  0  0  0  0  0  0  # atno 8010 bound_to 7997
  140.3472  143.2910  151.9767 H   0  0  0  0  0  0  0  0  0  0  0  0  # atno 10167 bound_to 10162
  157.4302  131.1048  151.0258 H   0  0  0  0  0  0  0  0  0  0  0  0  # atno 10718 bound_to 10713
  154.5452  135.2809  155.1059 H   0  0  0  0  0  0  0  0  0  0  0  0  # atno 10763 bound_to 10752
  154.2526  135.6336  153.5249 H   0  0  0  0  0  0  0  0  0  0  0  0  # atno 10764 bound_to 10752
  152.9989  135.5586  154.6002 H   0  0  0  0  0  0  0  0  0  0  0  0  # atno 10765 bound_to 10752
  140.4360  134.1371  155.7685 H   0  0  0  0  0  0  0  0  0  0  0  0  # atno 11005 bound_to 11000
  145.8622  139.2229  143.1710 LP  0  0  0  0  0  0  0  0  0  0  0  0  # atno 17320 bound_to 7965
  146.0163  140.8389  142.9946 LP  0  0  0  0  0  0  0  0  0  0  0  0  # atno 17321 bound_to 7965
  139.4831  144.6107  151.7439 LP  0  0  0  0  0  0  0  0  0  0  0  0  # atno 17342 bound_to 10162
  140.5253  144.0815  150.6035 LP  0  0  0  0  0  0  0  0  0  0  0  0  # atno 17343 bound_to 10162
  157.1157  130.6040  149.5493 LP  0  0  0  0  0  0  0  0  0  0  0  0  # atno 17370 bound_to 10713
  155.9910  130.4964  150.7283 LP  0  0  0  0  0  0  0  0  0  0  0  0  # atno 17371 bound_to 10713
  141.1726  133.8579  157.1524 LP  0  0  0  0  0  0  0  0  0  0  0  0  # atno 17394 bound_to 11000
  140.0102  134.9991  157.0378 LP  0  0  0  0  0  0  0  0  0  0  0  0  # atno 17395 bound_to 11000

$$$$
