AV-unprocessed.smi:427|AV-procd|sdf|2543|dock6
  -GOLD-   2262022503D 1   1.00000     0.00000
 Structure written by MMmdl.
 51 52  0  0  0  0  0  0  0  0  1 V2000
  152.7618  138.8847  158.5149 C   0  0  0  0  0  0  0  0  0  0  0  0
  152.1364  140.1585  157.9767 C   0  0  0  0  0  0  0  0  0  0  0  0
  152.1782  141.3369  158.7509 C   0  0  0  0  0  0  0  0  0  0  0  0
  151.6026  142.5418  158.2798 C   0  0  0  0  0  0  0  0  0  0  0  0
  151.6316  143.8473  159.0981 C   0  0  0  0  0  0  0  0  0  0  0  0
  152.4754  144.9048  158.3563 C   0  0  0  0  0  0  0  0  0  0  0  0
  152.2422  143.6646  160.5064 C   0  0  0  0  0  0  0  0  0  0  0  0
  150.1943  144.3793  159.2777 C   0  0  0  0  0  0  0  0  0  0  0  0
  150.9835  142.5290  157.0092 C   0  0  0  0  0  0  0  0  0  0  0  0
  150.9388  141.3569  156.2322 C   0  0  0  0  0  0  0  0  0  0  0  0
  151.5165  140.1556  156.7083 C   0  0  0  0  0  0  0  0  0  0  0  0
  151.5130  138.9695  156.0048 O   0  0  0  0  0  0  0  0  0  0  0  0
  150.5232  138.7735  155.0026 C   0  0  0  0  0  0  0  0  0  0  0  0
  150.3854  137.2726  154.6982 C   0  0  1  0  0  0  0  0  0  0  0  0
  151.4954  136.8904  153.9112 O   0  0  0  0  0  0  0  0  0  0  0  0
  150.3041  136.4066  155.9751 C   0  0  0  0  0  0  0  0  0  0  0  0
  150.2625  134.9801  155.7009 N   0  0  0  0  0  0  0  0  0  0  0  0
  151.2518  134.1595  156.2977 C   0  0  0  0  0  0  0  0  0  0  0  0
  152.1299  134.6158  157.0306 O   0  0  0  0  0  0  0  0  0  0  0  0
  151.1537  132.7429  155.9628 C   0  0  0  0  0  0  0  0  0  0  0  0
  150.1875  132.2903  155.1344 C   0  0  0  0  0  0  0  0  0  0  0  0
  149.2477  133.1207  154.5559 N   0  0  0  0  0  0  0  0  0  0  0  0
  148.2296  132.6329  153.6708 C   0  0  0  0  0  0  0  0  0  0  0  0
  149.2613  134.5078  154.8190 C   0  0  0  0  0  0  0  0  0  0  0  0
  148.4417  135.2671  154.2941 O   0  0  0  0  0  0  0  0  0  0  0  0
  153.2139  139.0411  159.4946 H   0  0  0  0  0  0  0  0  0  0  0  0
  153.5377  138.5280  157.8372 H   0  0  0  0  0  0  0  0  0  0  0  0
  152.0061  138.1046  158.6115 H   0  0  0  0  0  0  0  0  0  0  0  0
  152.6627  141.2900  159.7133 H   0  0  0  0  0  0  0  0  0  0  0  0
  152.5305  145.8356  158.9218 H   0  0  0  0  0  0  0  0  0  0  0  0
  152.0605  145.1506  157.3786 H   0  0  0  0  0  0  0  0  0  0  0  0
  153.4969  144.5560  158.2004 H   0  0  0  0  0  0  0  0  0  0  0  0
  153.2758  143.3199  160.4568 H   0  0  0  0  0  0  0  0  0  0  0  0
  151.6743  142.9500  161.1033 H   0  0  0  0  0  0  0  0  0  0  0  0
  152.2483  144.6049  161.0589 H   0  0  0  0  0  0  0  0  0  0  0  0
  150.1816  145.2941  159.8716 H   0  0  0  0  0  0  0  0  0  0  0  0
  149.5645  143.6495  159.7878 H   0  0  0  0  0  0  0  0  0  0  0  0
  149.7198  144.6128  158.3245 H   0  0  0  0  0  0  0  0  0  0  0  0
  150.5325  143.4265  156.6134 H   0  0  0  0  0  0  0  0  0  0  0  0
  150.4531  141.4079  155.2698 H   0  0  0  0  0  0  0  0  0  0  0  0
  149.5659  139.1423  155.3742 H   0  0  0  0  0  0  0  0  0  0  0  0
  150.7633  139.3286  154.0939 H   0  0  0  0  0  0  0  0  0  0  0  0
  149.4910  137.1348  154.0892 H   0  0  0  0  0  0  0  0  0  0  0  0
  151.2108  136.7987  153.0147 H   0  0  0  0  0  0  0  0  0  0  0  0
  151.1192  136.6100  156.6717 H   0  0  0  0  0  0  0  0  0  0  0  0
  149.4025  136.6349  156.5466 H   0  0  0  0  0  0  0  0  0  0  0  0
  151.8658  132.0480  156.3832 H   0  0  0  0  0  0  0  0  0  0  0  0
  150.1549  131.2330  154.9152 H   0  0  0  0  0  0  0  0  0  0  0  0
  147.2633  132.8624  154.1232 H   0  0  0  0  0  0  0  0  0  0  0  0
  148.3606  131.5552  153.5682 H   0  0  0  0  0  0  0  0  0  0  0  0
  148.3633  133.1299  152.7086 H   0  0  0  0  0  0  0  0  0  0  0  0
  1  2  1  0  0  0  0
  1 26  1  0  0  0  0
  1 27  1  0  0  0  0
  1 28  1  0  0  0  0
  2 11  1  0  0  0  0
  2  3  2  0  0  0  0
  3  4  1  0  0  0  0
  3 29  1  0  0  0  0
  4  5  1  0  0  0  0
  4  9  2  0  0  0  0
  5  6  1  0  0  0  0
  5  7  1  0  0  0  0
  5  8  1  0  0  0  0
  6 30  1  0  0  0  0
  6 31  1  0  0  0  0
  6 32  1  0  0  0  0
  7 33  1  0  0  0  0
  7 34  1  0  0  0  0
  7 35  1  0  0  0  0
  8 36  1  0  0  0  0
  8 37  1  0  0  0  0
  8 38  1  0  0  0  0
  9 10  1  0  0  0  0
  9 39  1  0  0  0  0
 10 11  2  0  0  0  0
 10 40  1  0  0  0  0
 11 12  1  0  0  0  0
 12 13  1  0  0  0  0
 13 14  1  0  0  0  0
 13 41  1  0  0  0  0
 13 42  1  0  0  0  0
 14 15  1  0  0  0  0
 14 16  1  0  0  0  0
 14 43  1  0  0  0  0
 15 44  1  0  0  0  0
 16 17  1  0  0  0  0
 16 45  1  0  0  0  0
 16 46  1  0  0  0  0
 17 24  1  0  0  0  0
 17 18  1  0  0  0  0
 18 19  2  0  0  0  0
 18 20  1  0  0  0  0
 20 21  2  0  0  0  0
 20 47  1  0  0  0  0
 21 22  1  0  0  0  0
 21 48  1  0  0  0  0
 22 23  1  0  0  0  0
 22 24  1  0  0  0  0
 23 49  1  0  0  0  0
 23 50  1  0  0  0  0
 23 51  1  0  0  0  0
 24 25  2  0  0  0  0
M  END
> <s_m_source_file>
AV-unprocessed.smi

> <i_m_source_file_index>
427

> <i_lp_mmshare_version>
43012

> <i_f3d_flags>
0

> <s_epik_input>
W0NIM11jMVtjSF1jKEMoW0NIM10pKFtDSDNdKVtDSDNdKVtjSF1bY0hdYzFPW0NIMl1bQ0BIXShbT0hdKVtDSDJdbjJjKD1PKVtjSF1bY0hdbihbQ0gzXSljMj1P

> <s_epik_cmdline>
J2VwaWtfcHl0aG9uJywgJy1waCcsICc3LjAnLCAnLXRuJywgJzgnLCAnLW1hJywgJzIwMCcsICctbWV0YWxfYmluZGluZycsICctaW1hZScsICc8aW5maWxlLm1hZT4nLCAnLW9tYWUnLCAnPG91dGZpbGUubWFlPic=

> <r_lp_tautomer_probability>
1

> <r_epik_Ionization_Penalty>
2.02112e-07

> <r_epik_Ionization_Penalty_Charging>
8.49383e-08

> <r_epik_Ionization_Penalty_Neutral>
1.17174e-07

> <r_epik_State_Penalty>
-0

> <r_epik_Charging_Adjusted_Penalty>
8.49383e-08

> <i_epik_Tot_Q>
0

> <i_epik_Tot_abs_Q>
0

> <r_epik_Metal_State_Penalty>
-0

> <b_epik_Metal_Only>
0

> <s_lp_Force_Field>
OPLS_2005

> <r_lp_Energy>
28.8364

> <b_lp_Chiralities_Consistent>
1

> <s_lp_Variant>
AV-unprocessed.smi:427-2

> <Gold.Version>
5.8.1

> <Gold.Id.Protein>
6NUR|6NUR_protein|mol2

> <Gold.PLP.Fitness>
54.5258

> <Gold.PLP.PLP>
-49.7199

> <Gold.PLP.part.hbond>
-3.7321

> <Gold.PLP.part.metal>
0.0000

> <Gold.PLP.part.buried>
-7.7985

> <Gold.PLP.part.nonpolar>
-41.4513

> <Gold.PLP.part.repulsive>
3.0534

> <Gold.PLP.ligand.clash>
0.0000

> <Gold.PLP.ligand.torsion>
0.6167

> <Gold.PLP.Chemscore.Hbond>
2.0000

> <Gold.PLP.Chemscore.CHOScore>
0.0000

> <Gold.PLP.Chemscore.Metal>
0.0000

> <Gold.Chemscore.Hbonds>
donor molecule, donor type, donor heavy atom, donor atom, acceptor molecule, acceptor atom, score
      L1  H    15    44       P1  7949  1.00
      P1  H 10752 10763       L1    15  1.00

> <Gold.PLP.Chemscore.Internal.Correction>
0.0393

> <Gold.Rescore>
     Score         DG    S(hbond)    S(metal)    S(lipo)     H(rot)  DE(clash)    DE(int)     intcor
     16.64     -20.36       1.63        0.00     135.07       2.49       1.83       1.89       ----

> <Gold.Chemscore.Fitness>
16.6354

> <Gold.Chemscore.DG>
-20.3562

> <Gold.Chemscore.ZeroCoef>
-5.4800

> <Gold.Chemscore.Hbond>
1.6303

> <Gold.Chemscore.Metal>
0.0000

> <Gold.Chemscore.Lipo>
135.0739

> <Gold.Chemscore.Internal_Hbond>
0.0000

> <Gold.Chemscore.DEClash>
1.8292

> <Gold.Chemscore.DEInternal>
1.8916

> <Gold.Chemscore.Rot>
2.4894

> <Gold.Chemscore.Internal.Correction>
   9.000000E+99

> <Gold.Chemscore.Hbonds>
donor molecule, donor type, donor heavy atom, donor atom, acceptor molecule, acceptor atom, score
      L1  H    15    44       P1  7949  0.58
      P1  H 10752 10763       L1    15  0.55

> <Gold.Chemscore.Hbond.Weighted>
-5.4453

> <Gold.Chemscore.Metal.Weighted>
-0.0000

> <Gold.Chemscore.Lipo.Weighted>
-15.8036

> <Gold.Chemscore.Internal_Hbond.Weighted>
0.0000

> <Gold.Chemscore.DEClash.Weighted>
1.8292

> <Gold.Chemscore.DEInternal.Weighted>
1.8916

> <Gold.Chemscore.Rot.Weighted>
6.3728

> <Gold.Chemscore.Internal.Correction.Weighted>
   9.000000E+99

> <Gold.Protein.RotatedTorsions>
[ 6907 6896 6895 6894 ] final  -28.16 input  -60.11 | X-H torsion
[ 7974 7965 7964 7962 ] final  -58.17 input  175.53 | X-H torsion
[ 8008 7997 7996 7995 ] final   44.19 input   59.86 | X-H torsion
[ 10167 10162 10161 10158 ] final   98.59 input  -65.29 | X-H torsion
[ 10718 10713 10712 10709 ] final  174.61 input   66.30 | X-H torsion
[ 10763 10752 10751 10750 ] final   32.12 input  -60.55 | X-H torsion
[ 11005 11000 10999 10996 ] final   49.30 input  -57.11 | X-H torsion

> <Gold.Protein.ActiveResidues>
 VAL166  LYS551  ARG553  GLY616  TRP617  ASP618  TYR619  PRO620  LYS621  CYS622 
 ASP623  PHE694  ASN695  SER759  ASP760  ASP761  ALA762  ILE779  LEU786  VAL792 
 PHE793  MET794  SER795  GLU796  ALA797  LYS798  CYS799  TRP800  GLU811  SER814 

> <Gold.Protein.RotatedAtoms>
  151.1369  135.0159  159.8607 H   0  0  0  0  0  0  0  0  0  0  0  0  # atno 6907 bound_to 6896
  152.5452  134.1545  159.8542 H   0  0  0  0  0  0  0  0  0  0  0  0  # atno 6908 bound_to 6896
  151.1617  133.4796  159.2627 H   0  0  0  0  0  0  0  0  0  0  0  0  # atno 6909 bound_to 6896
  145.8425  140.8407  143.0027 H   0  0  0  0  0  0  0  0  0  0  0  0  # atno 7974 bound_to 7965
  155.3152  140.3393  155.4242 H   0  0  0  0  0  0  0  0  0  0  0  0  # atno 8008 bound_to 7997
  156.1936  140.1706  156.8081 H   0  0  0  0  0  0  0  0  0  0  0  0  # atno 8009 bound_to 7997
  154.5471  140.0713  156.8591 H   0  0  0  0  0  0  0  0  0  0  0  0  # atno 8010 bound_to 7997
  139.7695  144.6927  151.0176 H   0  0  0  0  0  0  0  0  0  0  0  0  # atno 10167 bound_to 10162
  156.9471  131.0019  151.2956 H   0  0  0  0  0  0  0  0  0  0  0  0  # atno 10718 bound_to 10713
  153.0279  135.6421  154.1305 H   0  0  0  0  0  0  0  0  0  0  0  0  # atno 10763 bound_to 10752
  154.1031  135.2858  155.3249 H   0  0  0  0  0  0  0  0  0  0  0  0  # atno 10764 bound_to 10752
  154.6384  135.5468  153.7824 H   0  0  0  0  0  0  0  0  0  0  0  0  # atno 10765 bound_to 10752
  140.1115  134.4949  155.8674 H   0  0  0  0  0  0  0  0  0  0  0  0  # atno 11005 bound_to 11000
  144.6733  140.0833  143.7468 LP  0  0  0  0  0  0  0  0  0  0  0  0  # atno 17320 bound_to 7965
  145.9449  139.2694  143.1246 LP  0  0  0  0  0  0  0  0  0  0  0  0  # atno 17321 bound_to 7965
  140.7813  143.4605  151.0285 LP  0  0  0  0  0  0  0  0  0  0  0  0  # atno 17342 bound_to 10162
  139.8289  143.7718  152.3179 LP  0  0  0  0  0  0  0  0  0  0  0  0  # atno 17343 bound_to 10162
  157.5746  130.8334  149.8439 LP  0  0  0  0  0  0  0  0  0  0  0  0  # atno 17370 bound_to 10713
  156.0379  130.3746  150.1512 LP  0  0  0  0  0  0  0  0  0  0  0  0  # atno 17371 bound_to 10713
  141.2131  133.6729  156.6714 LP  0  0  0  0  0  0  0  0  0  0  0  0  # atno 17394 bound_to 11000
  140.3085  134.8106  157.4156 LP  0  0  0  0  0  0  0  0  0  0  0  0  # atno 17395 bound_to 11000

$$$$
