AV-unprocessed.smi:2439|AV-procd|sdf|9614|dock4
  -GOLD-   2272013243D 1   1.00000     0.00000
 Structure written by MMmdl.
 40 42  0  0  0  0  0  0  0  0  1 V2000
  153.1264  136.3398  160.2591 N   0  0  0  0  0  0  0  0  0  0  0  0
  153.3448  136.6009  161.3649 C   0  0  0  0  0  0  0  0  0  0  0  0
  153.6195  136.9300  162.7583 C   0  0  0  0  0  0  0  0  0  0  0  0
  153.4011  135.9481  163.7476 C   0  0  0  0  0  0  0  0  0  0  0  0
  153.6644  136.2601  165.0939 C   0  0  0  0  0  0  0  0  0  0  0  0
  154.1406  137.5481  165.3977 C   0  0  0  0  0  0  0  0  0  0  0  0
  154.3556  138.4955  164.4615 N   0  0  0  0  0  0  0  0  0  0  0  0
  154.1001  138.2050  163.1619 C   0  0  0  0  0  0  0  0  0  0  0  0
  154.3347  139.2120  162.2068 N   0  0  0  0  0  0  0  0  0  0  0  0
  154.0534  140.6163  162.4823 C   0  0  0  0  0  0  0  0  0  0  0  0
  153.1429  141.2524  161.4191 C   0  0  1  0  0  0  0  0  0  0  0  0
  152.8036  142.7139  161.7640 C   0  0  0  0  0  0  0  0  0  0  0  0
  152.0023  143.3454  160.7235 N   0  0  0  0  0  0  0  0  0  0  0  0
  151.6919  144.7338  161.0602 C   0  0  0  0  0  0  0  0  0  0  0  0
  150.8171  145.4131  159.9945 C   0  0  0  0  0  0  0  0  0  0  0  0
  151.4966  145.3378  158.6198 C   0  0  0  0  0  0  0  0  0  0  0  0
  151.8699  143.8831  158.2950 C   0  0  0  0  0  0  0  0  0  0  0  0
  152.6985  143.2579  159.4363 C   0  0  2  0  0  0  0  0  0  0  0  0
  153.0645  141.7962  159.1066 C   0  0  0  0  0  0  0  0  0  0  0  0
  153.8287  141.2362  160.1696 O   0  0  0  0  0  0  0  0  0  0  0  0
  153.0363  134.9658  163.4830 H   0  0  0  0  0  0  0  0  0  0  0  0
  153.5061  135.5299  165.8736 H   0  0  0  0  0  0  0  0  0  0  0  0
  154.3559  137.8256  166.4191 H   0  0  0  0  0  0  0  0  0  0  0  0
  154.5145  138.9445  161.2495 H   0  0  0  0  0  0  0  0  0  0  0  0
  153.6058  140.7098  163.4722 H   0  0  0  0  0  0  0  0  0  0  0  0
  155.0000  141.1551  162.5280 H   0  0  0  0  0  0  0  0  0  0  0  0
  152.2166  140.6818  161.3321 H   0  0  0  0  0  0  0  0  0  0  0  0
  152.2649  142.7466  162.7116 H   0  0  0  0  0  0  0  0  0  0  0  0
  153.7274  143.2760  161.9109 H   0  0  0  0  0  0  0  0  0  0  0  0
  151.1758  144.7711  162.0203 H   0  0  0  0  0  0  0  0  0  0  0  0
  152.6161  145.3002  161.1848 H   0  0  0  0  0  0  0  0  0  0  0  0
  149.8439  144.9220  159.9526 H   0  0  0  0  0  0  0  0  0  0  0  0
  150.6311  146.4525  160.2661 H   0  0  0  0  0  0  0  0  0  0  0  0
  150.8405  145.7431  157.8491 H   0  0  0  0  0  0  0  0  0  0  0  0
  152.3963  145.9543  158.6222 H   0  0  0  0  0  0  0  0  0  0  0  0
  150.9603  143.3012  158.1387 H   0  0  0  0  0  0  0  0  0  0  0  0
  152.4275  143.8460  157.3586 H   0  0  0  0  0  0  0  0  0  0  0  0
  153.6326  143.8177  159.5115 H   0  0  0  0  0  0  0  0  0  0  0  0
  152.1682  141.1958  158.9428 H   0  0  0  0  0  0  0  0  0  0  0  0
  153.6530  141.7483  158.1900 H   0  0  0  0  0  0  0  0  0  0  0  0
  1  2  3  0  0  0  0
  2  3  1  0  0  0  0
  3  8  1  0  0  0  0
  3  4  2  0  0  0  0
  4  5  1  0  0  0  0
  4 21  1  0  0  0  0
  5  6  2  0  0  0  0
  5 22  1  0  0  0  0
  6  7  1  0  0  0  0
  6 23  1  0  0  0  0
  7  8  2  0  0  0  0
  8  9  1  0  0  0  0
  9 10  1  0  0  0  0
  9 24  1  0  0  0  0
 10 11  1  0  0  0  0
 10 25  1  0  0  0  0
 10 26  1  0  0  0  0
 11 20  1  0  0  0  0
 11 12  1  0  0  0  0
 11 27  1  0  0  0  0
 12 13  1  0  0  0  0
 12 28  1  0  0  0  0
 12 29  1  0  0  0  0
 13 18  1  0  0  0  0
 13 14  1  0  0  0  0
 14 15  1  0  0  0  0
 14 30  1  0  0  0  0
 14 31  1  0  0  0  0
 15 16  1  0  0  0  0
 15 32  1  0  0  0  0
 15 33  1  0  0  0  0
 16 17  1  0  0  0  0
 16 34  1  0  0  0  0
 16 35  1  0  0  0  0
 17 18  1  0  0  0  0
 17 36  1  0  0  0  0
 17 37  1  0  0  0  0
 18 19  1  0  0  0  0
 18 38  1  0  0  0  0
 19 20  1  0  0  0  0
 19 39  1  0  0  0  0
 19 40  1  0  0  0  0
M  END
> <s_m_source_file>
AV-unprocessed.smi

> <i_m_source_file_index>
2439

> <i_lp_mmshare_version>
43012

> <i_f3d_flags>
0

> <s_epik_input>
TiNDYzFbY0hdW2NIXVtjSF1uYzFbTkhdW0NIMl1bQ0BIXShbQ0gyXTIpT1tDSDJdW0NAQEhdKE4yMylbQ0gyXVtDSDJdW0NIMl1bQ0gyXTM=

> <s_epik_cmdline>
J2VwaWtfcHl0aG9uJywgJy1waCcsICc3LjAnLCAnLXRuJywgJzgnLCAnLW1hJywgJzIwMCcsICctbWV0YWxfYmluZGluZycsICctaW1hZScsICc8aW5maWxlLm1hZT4nLCAnLW9tYWUnLCAnPG91dGZpbGUubWFlPic=

> <r_epik_Ionization_Penalty>
1.22355

> <r_epik_Ionization_Penalty_Charging>
0

> <r_epik_Ionization_Penalty_Neutral>
1.22355

> <r_epik_State_Penalty>
1.29103

> <r_epik_Charging_Adjusted_Penalty>
1.29103

> <i_epik_Tot_Q>
0

> <i_epik_Tot_abs_Q>
0

> <r_epik_Metal_State_Penalty>
1.29103

> <b_epik_Metal_Only>
0

> <s_lp_Force_Field>
OPLS_2005

> <r_lp_Energy>
37.4095

> <b_lp_Chiralities_Consistent>
1

> <s_lp_Variant>
AV-unprocessed.smi:2439-12

> <Gold.Version>
5.8.1

> <Gold.Id.Protein>
6NUR|6NUR_protein|mol2

> <Gold.PLP.Fitness>
46.7069

> <Gold.PLP.PLP>
-44.3001

> <Gold.PLP.part.hbond>
-1.0000

> <Gold.PLP.part.metal>
0.0000

> <Gold.PLP.part.buried>
-4.7677

> <Gold.PLP.part.nonpolar>
-38.2952

> <Gold.PLP.part.repulsive>
0.0700

> <Gold.PLP.ligand.clash>
0.0000

> <Gold.PLP.ligand.torsion>
0.2980

> <Gold.PLP.Chemscore.Hbond>
1.0000

> <Gold.PLP.Chemscore.CHOScore>
0.0000

> <Gold.PLP.Chemscore.Metal>
0.0000

> <Gold.Chemscore.Hbonds>
donor molecule, donor type, donor heavy atom, donor atom, acceptor molecule, acceptor atom, score
      P1  H  6896  6908       L1     1  1.00

> <Gold.PLP.Chemscore.Internal.Correction>
0.0028

> <Gold.Rescore>
     Score         DG    S(hbond)    S(metal)    S(lipo)     H(rot)  DE(clash)    DE(int)     intcor
     19.15     -19.84       0.83        0.00     126.43       1.25       0.37       0.31       ----

> <Gold.Chemscore.Fitness>
19.1541

> <Gold.Chemscore.DG>
-19.8384

> <Gold.Chemscore.ZeroCoef>
-5.4800

> <Gold.Chemscore.Hbond>
0.8271

> <Gold.Chemscore.Metal>
0.0000

> <Gold.Chemscore.Lipo>
126.4282

> <Gold.Chemscore.Internal_Hbond>
0.0000

> <Gold.Chemscore.DEClash>
0.3733

> <Gold.Chemscore.DEInternal>
0.3110

> <Gold.Chemscore.Rot>
1.2485

> <Gold.Chemscore.Internal.Correction>
   9.000000E+99

> <Gold.Chemscore.Hbonds>
donor molecule, donor type, donor heavy atom, donor atom, acceptor molecule, acceptor atom, score
      P1  H  6896  6908       L1     1  0.86

> <Gold.Chemscore.Hbond.Weighted>
-2.7624

> <Gold.Chemscore.Metal.Weighted>
-0.0000

> <Gold.Chemscore.Lipo.Weighted>
-14.7921

> <Gold.Chemscore.Internal_Hbond.Weighted>
0.0000

> <Gold.Chemscore.DEClash.Weighted>
0.3733

> <Gold.Chemscore.DEInternal.Weighted>
0.3110

> <Gold.Chemscore.Rot.Weighted>
3.1961

> <Gold.Chemscore.Internal.Correction.Weighted>
   9.000000E+99

> <Gold.Protein.RotatedTorsions>
[ 6907 6896 6895 6894 ] final  -67.38 input  -60.11 | X-H torsion
[ 7974 7965 7964 7962 ] final    5.11 input  175.53 | X-H torsion
[ 8008 7997 7996 7995 ] final  -11.98 input   59.86 | X-H torsion
[ 10167 10162 10161 10158 ] final   67.38 input  -65.29 | X-H torsion
[ 10718 10713 10712 10709 ] final  -62.33 input   66.30 | X-H torsion
[ 10763 10752 10751 10750 ] final   -4.30 input  -60.55 | X-H torsion
[ 11005 11000 10999 10996 ] final   91.46 input  -57.11 | X-H torsion

> <Gold.Protein.ActiveResidues>
 VAL166  LYS551  ARG553  GLY616  TRP617  ASP618  TYR619  PRO620  LYS621  CYS622 
 ASP623  PHE694  ASN695  SER759  ASP760  ASP761  ALA762  ILE779  LEU786  VAL792 
 PHE793  MET794  SER795  GLU796  ALA797  LYS798  CYS799  TRP800  GLU811  SER814 

> <Gold.Protein.RotatedAtoms>
  150.7412  134.5888  159.5976 H   0  0  0  0  0  0  0  0  0  0  0  0  # atno 6907 bound_to 6896
  152.3282  134.7291  160.0305 H   0  0  0  0  0  0  0  0  0  0  0  0  # atno 6908 bound_to 6896
  151.7783  133.3311  159.3501 H   0  0  0  0  0  0  0  0  0  0  0  0  # atno 6909 bound_to 6896
  146.2442  140.0432  142.8380 H   0  0  0  0  0  0  0  0  0  0  0  0  # atno 7974 bound_to 7965
  154.5417  140.2288  155.8631 H   0  0  0  0  0  0  0  0  0  0  0  0  # atno 8008 bound_to 7997
  156.1864  140.3088  155.9209 H   0  0  0  0  0  0  0  0  0  0  0  0  # atno 8009 bound_to 7997
  155.3245  140.0442  157.3031 H   0  0  0  0  0  0  0  0  0  0  0  0  # atno 8010 bound_to 7997
  140.0901  144.4995  150.7104 H   0  0  0  0  0  0  0  0  0  0  0  0  # atno 10167 bound_to 10162
  156.0862  130.4208  150.1120 H   0  0  0  0  0  0  0  0  0  0  0  0  # atno 10718 bound_to 10713
  153.3830  135.6999  153.6551 H   0  0  0  0  0  0  0  0  0  0  0  0  # atno 10763 bound_to 10752
  153.5154  135.3623  155.2607 H   0  0  0  0  0  0  0  0  0  0  0  0  # atno 10764 bound_to 10752
  154.8694  135.4145  154.3132 H   0  0  0  0  0  0  0  0  0  0  0  0  # atno 10765 bound_to 10752
  139.8838  134.8675  156.3432 H   0  0  0  0  0  0  0  0  0  0  0  0  # atno 11005 bound_to 11000
  145.1050  140.9370  143.4690 LP  0  0  0  0  0  0  0  0  0  0  0  0  # atno 17320 bound_to 7965
  145.0634  139.3088  143.5869 LP  0  0  0  0  0  0  0  0  0  0  0  0  # atno 17321 bound_to 7965
  140.7033  143.2450  151.4801 LP  0  0  0  0  0  0  0  0  0  0  0  0  # atno 17342 bound_to 10162
  139.5729  144.1886  152.1862 LP  0  0  0  0  0  0  0  0  0  0  0  0  # atno 17343 bound_to 10162
  156.9141  130.9661  151.3558 LP  0  0  0  0  0  0  0  0  0  0  0  0  # atno 17370 bound_to 10713
  157.5997  130.8503  149.8783 LP  0  0  0  0  0  0  0  0  0  0  0  0  # atno 17371 bound_to 10713
  140.9644  133.7367  156.0447 LP  0  0  0  0  0  0  0  0  0  0  0  0  # atno 17394 bound_to 11000
  140.7949  134.3575  157.5455 LP  0  0  0  0  0  0  0  0  0  0  0  0  # atno 17395 bound_to 11000

$$$$
