AV-unprocessed.smi:207|AV-procd|sdf|1603|dock4
  -GOLD-   2262019513D 1   1.00000     0.00000
 Structure written by MMmdl.
 56 59  0  0  0  0  0  0  0  0  2 V2000
  146.4144  133.3436  151.1683 C   0  0  0  0  0  0  0  0  0  0  0  0
  145.5858  133.1266  152.4565 C   0  0  0  0  0  0  0  0  0  0  0  0
  146.0394  131.8125  153.1337 C   0  0  0  0  0  0  0  0  0  0  0  0
  145.9028  134.2574  153.4691 C   0  0  0  0  0  0  0  0  0  0  0  0
  145.3060  135.5347  153.0927 N   0  0  0  0  0  0  0  0  0  0  0  0
  145.8551  136.6382  153.6622 C   0  0  0  0  0  0  0  0  0  0  0  0
  145.1616  137.8005  153.5487 N   0  0  0  0  0  0  0  0  0  0  0  0
  145.6374  138.9290  154.0810 C   0  0  0  0  0  0  0  0  0  0  0  0
  146.7712  139.1173  154.7565 N   0  0  0  0  0  0  0  0  0  0  0  0
  147.4752  137.9568  154.8794 C   0  0  0  0  0  0  0  0  0  0  0  0
  147.0961  136.6815  154.3674 C   0  0  0  0  0  0  0  0  0  0  0  0
  148.0794  135.7473  154.6758 N   0  0  0  0  0  0  0  0  0  0  0  0
  148.9806  136.4274  155.3293 C   0  0  0  0  0  0  0  0  0  0  0  0
  148.6944  137.7619  155.5060 N   0  0  0  0  0  0  0  0  0  0  0  0
  149.5261  138.7476  156.1821 C   0  0  0  0  0  0  0  0  0  0  0  0
  150.7803  139.1706  155.3929 C   0  0  0  0  0  0  0  0  0  0  0  0
  150.4190  139.2627  153.8963 C   0  0  0  0  0  0  0  0  0  0  0  0
  149.7243  140.4523  153.5778 O   0  0  0  0  0  0  0  0  0  0  0  0
  151.5423  140.3667  155.9831 C   0  0  0  0  0  0  0  0  0  0  0  0
  152.7990  139.6556  155.9388 O   0  0  0  0  0  0  0  0  0  0  0  0
  152.0805  138.4219  155.7199 C   0  0  0  0  0  0  0  0  0  0  0  0
  143.8702  135.4881  152.8715 C   0  0  0  0  0  0  0  0  0  0  0  0
  143.5308  134.4220  151.8246 C   0  0  0  0  0  0  0  0  0  0  0  0
  144.1094  133.0914  152.1669 N   0  3  1  0  0  0  0  0  0  0  0  0
  143.6656  132.0402  151.2070 C   0  0  0  0  0  0  0  0  0  0  0  0
  143.8710  132.4733  149.7462 C   0  0  0  0  0  0  0  0  0  0  0  0
  142.8041  132.0009  148.9512 O   0  0  0  0  0  0  0  0  0  0  0  0
  147.4810  133.3763  151.3933 H   0  0  0  0  0  0  0  0  0  0  0  0
  146.1664  134.2822  150.6731 H   0  0  0  0  0  0  0  0  0  0  0  0
  146.2665  132.5409  150.4457 H   0  0  0  0  0  0  0  0  0  0  0  0
  147.0632  131.8961  153.5010 H   0  0  0  0  0  0  0  0  0  0  0  0
  146.0303  130.9561  152.4612 H   0  0  0  0  0  0  0  0  0  0  0  0
  145.4081  131.5686  153.9890 H   0  0  0  0  0  0  0  0  0  0  0  0
  145.5082  133.9932  154.4517 H   0  0  0  0  0  0  0  0  0  0  0  0
  146.9832  134.3440  153.5920 H   0  0  0  0  0  0  0  0  0  0  0  0
  145.0219  139.8064  153.9465 H   0  0  0  0  0  0  0  0  0  0  0  0
  149.8843  135.9701  155.7057 H   0  0  0  0  0  0  0  0  0  0  0  0
  148.9072  139.6181  156.4035 H   0  0  0  0  0  0  0  0  0  0  0  0
  149.8061  138.3355  157.1525 H   0  0  0  0  0  0  0  0  0  0  0  0
  151.3144  139.2386  153.2755 H   0  0  0  0  0  0  0  0  0  0  0  0
  149.7981  138.4194  153.5920 H   0  0  0  0  0  0  0  0  0  0  0  0
  149.4904  140.4282  152.6623 H   0  0  0  0  0  0  0  0  0  0  0  0
  151.5386  141.2603  155.3580 H   0  0  0  0  0  0  0  0  0  0  0  0
  151.2562  140.6132  157.0070 H   0  0  0  0  0  0  0  0  0  0  0  0
  152.0368  137.8236  156.6302 H   0  0  0  0  0  0  0  0  0  0  0  0
  152.4829  137.8394  154.8905 H   0  0  0  0  0  0  0  0  0  0  0  0
  143.3676  135.2579  153.8118 H   0  0  0  0  0  0  0  0  0  0  0  0
  143.5057  136.4585  152.5320 H   0  0  0  0  0  0  0  0  0  0  0  0
  142.4472  134.3514  151.7377 H   0  0  0  0  0  0  0  0  0  0  0  0
  143.8956  134.7404  150.8473 H   0  0  0  0  0  0  0  0  0  0  0  0
  144.2122  131.1164  151.4027 H   0  0  0  0  0  0  0  0  0  0  0  0
  142.6163  131.7834  151.3313 H   0  0  0  0  0  0  0  0  0  0  0  0
  143.9536  133.5549  149.6442 H   0  0  0  0  0  0  0  0  0  0  0  0
  144.7982  132.0477  149.3617 H   0  0  0  0  0  0  0  0  0  0  0  0
  142.0660  132.5817  149.0605 H   0  0  0  0  0  0  0  0  0  0  0  0
  143.6900  132.8329  153.0489 H   0  0  0  0  0  0  0  0  0  0  0  0
  1  2  1  0  0  0  0
  1 28  1  0  0  0  0
  1 29  1  0  0  0  0
  1 30  1  0  0  0  0
  2 24  1  0  0  0  0
  2  3  1  0  0  0  0
  2  4  1  0  0  0  0
  3 31  1  0  0  0  0
  3 32  1  0  0  0  0
  3 33  1  0  0  0  0
  4  5  1  0  0  0  0
  4 34  1  0  0  0  0
  4 35  1  0  0  0  0
  5  6  1  0  0  0  0
  5 22  1  0  0  0  0
  6 11  1  0  0  0  0
  6  7  2  0  0  0  0
  7  8  1  0  0  0  0
  8  9  2  0  0  0  0
  8 36  1  0  0  0  0
  9 10  1  0  0  0  0
 10 14  1  0  0  0  0
 10 11  2  0  0  0  0
 11 12  1  0  0  0  0
 12 13  2  0  0  0  0
 13 14  1  0  0  0  0
 13 37  1  0  0  0  0
 14 15  1  0  0  0  0
 15 16  1  0  0  0  0
 15 38  1  0  0  0  0
 15 39  1  0  0  0  0
 16 21  1  0  0  0  0
 16 17  1  0  0  0  0
 16 19  1  0  0  0  0
 17 18  1  0  0  0  0
 17 40  1  0  0  0  0
 17 41  1  0  0  0  0
 18 42  1  0  0  0  0
 19 20  1  0  0  0  0
 19 43  1  0  0  0  0
 19 44  1  0  0  0  0
 20 21  1  0  0  0  0
 21 45  1  0  0  0  0
 21 46  1  0  0  0  0
 22 23  1  0  0  0  0
 22 47  1  0  0  0  0
 22 48  1  0  0  0  0
 23 24  1  0  0  0  0
 23 49  1  0  0  0  0
 23 50  1  0  0  0  0
 24 25  1  0  0  0  0
 24 56  1  0  0  0  0
 25 26  1  0  0  0  0
 25 51  1  0  0  0  0
 25 52  1  0  0  0  0
 26 27  1  0  0  0  0
 26 53  1  0  0  0  0
 26 54  1  0  0  0  0
 27 55  1  0  0  0  0
M  CHG  1  24   1
M  END
> <s_m_source_file>
AV-unprocessed.smi

> <i_m_source_file_index>
207

> <i_lp_mmshare_version>
43012

> <i_f3d_flags>
0

> <s_epik_input>
W09IXVtDSDJdW0NIMl1OMVtDSDJdW0NIMl1OKFtDSDJdQzEoW0NIM10pW0NIM10pYyhuW2NIXW4yKWMoYzIzKW5bY0hdbjNbQ0gyXUM0KFtDSDJdW09IXSlbQ0gyXU9bQ0gyXTQ=

> <s_epik_cmdline>
J2VwaWtfcHl0aG9uJywgJy1waCcsICc3LjAnLCAnLXRuJywgJzgnLCAnLW1hJywgJzIwMCcsICctbWV0YWxfYmluZGluZycsICctaW1hZScsICc8aW5maWxlLm1hZT4nLCAnLW9tYWUnLCAnPG91dGZpbGUubWFlPic=

> <r_lp_tautomer_probability>
1

> <r_epik_Ionization_Penalty>
0.416568

> <r_epik_Ionization_Penalty_Charging>
0.416506

> <r_epik_Ionization_Penalty_Neutral>
6.2219e-05

> <r_epik_State_Penalty>
0.419386

> <r_epik_Charging_Adjusted_Penalty>
0.835892

> <i_epik_Tot_Q>
1

> <i_epik_Tot_abs_Q>
1

> <r_epik_Metal_State_Penalty>
0.420232

> <b_epik_Metal_Only>
0

> <s_lp_Force_Field>
OPLS_2005

> <r_lp_Energy>
56.8459

> <b_lp_Chiralities_Consistent>
1

> <s_lp_Variant>
AV-unprocessed.smi:207-2

> <Gold.Version>
5.8.1

> <Gold.Id.Protein>
6NUR|6NUR_protein|mol2

> <Gold.PLP.Fitness>
49.8780

> <Gold.PLP.PLP>
-33.4514

> <Gold.PLP.part.hbond>
-6.4421

> <Gold.PLP.part.metal>
0.0000

> <Gold.PLP.part.buried>
-7.7521

> <Gold.PLP.part.nonpolar>
-22.2570

> <Gold.PLP.part.repulsive>
0.5261

> <Gold.PLP.ligand.clash>
0.0000

> <Gold.PLP.ligand.torsion>
1.6982

> <Gold.PLP.Chemscore.Hbond>
5.3240

> <Gold.PLP.Chemscore.CHOScore>
0.9861

> <Gold.PLP.Chemscore.Metal>
0.0000

> <Gold.Chemscore.Hbonds>
donor molecule, donor type, donor heavy atom, donor atom, acceptor molecule, acceptor atom, score
      L1  H    18    42       P1  7957  1.00
      L1  H    24    56       P1 10957  0.81
      L1  H    27    55       P1 10186  0.67
      P1  H  7997  8009       L1    20  1.00
      P1  H 10785 10796       L1    27  1.00
      L1  C     8    36       P1 10175  1.00

> <Gold.PLP.Chemscore.Internal.Correction>
0.8926

> <Gold.Rescore>
     Score         DG    S(hbond)    S(metal)    S(lipo)     H(rot)  DE(clash)    DE(int)     intcor
     13.89     -17.99       4.03        0.00      75.04       3.80       0.13       3.97       ----

> <Gold.Chemscore.Fitness>
13.8855

> <Gold.Chemscore.DG>
-17.9889

> <Gold.Chemscore.ZeroCoef>
-5.4800

> <Gold.Chemscore.Hbond>
4.0290

> <Gold.Chemscore.Metal>
0.0000

> <Gold.Chemscore.Lipo>
75.0369

> <Gold.Chemscore.Internal_Hbond>
0.0000

> <Gold.Chemscore.DEClash>
0.1344

> <Gold.Chemscore.DEInternal>
3.9690

> <Gold.Chemscore.Rot>
3.7997

> <Gold.Chemscore.Internal.Correction>
   9.000000E+99

> <Gold.Chemscore.Hbonds>
donor molecule, donor type, donor heavy atom, donor atom, acceptor molecule, acceptor atom, score
      L1  H    18    42       P1  7957  0.94
      L1  H    24    56       P1 10957  0.16
      L1  H    27    55       P1 10186  0.66
      P1  H  7997  8009       L1    20  1.00
      P1  H 10785 10796       L1    27  0.44

> <Gold.Chemscore.Hbond.Weighted>
-13.4569

> <Gold.Chemscore.Metal.Weighted>
-0.0000

> <Gold.Chemscore.Lipo.Weighted>
-8.7793

> <Gold.Chemscore.Internal_Hbond.Weighted>
0.0000

> <Gold.Chemscore.DEClash.Weighted>
0.1344

> <Gold.Chemscore.DEInternal.Weighted>
3.9690

> <Gold.Chemscore.Rot.Weighted>
9.7273

> <Gold.Chemscore.Internal.Correction.Weighted>
   9.000000E+99

> <Gold.Protein.RotatedTorsions>
[ 6907 6896 6895 6894 ] final  -49.34 input  -60.11 | X-H torsion
[ 7974 7965 7964 7962 ] final   44.32 input  175.53 | X-H torsion
[ 8008 7997 7996 7995 ] final -149.68 input   59.86 | X-H torsion
[ 10167 10162 10161 10158 ] final  119.57 input  -65.29 | X-H torsion
[ 10718 10713 10712 10709 ] final  103.84 input   66.30 | X-H torsion
[ 10763 10752 10751 10750 ] final  176.65 input  -60.55 | X-H torsion
[ 11005 11000 10999 10996 ] final  -52.49 input  -57.11 | X-H torsion

> <Gold.Protein.ActiveResidues>
 VAL166  LYS551  ARG553  GLY616  TRP617  ASP618  TYR619  PRO620  LYS621  CYS622 
 ASP623  PHE694  ASN695  SER759  ASP760  ASP761  ALA762  ILE779  LEU786  VAL792 
 PHE793  MET794  SER795  GLU796  ALA797  LYS798  CYS799  TRP800  GLU811  SER814 

> <Gold.Protein.RotatedAtoms>
  150.8815  134.8207  159.7228 H   0  0  0  0  0  0  0  0  0  0  0  0  # atno 6907 bound_to 6896
  152.4781  134.4788  159.9669 H   0  0  0  0  0  0  0  0  0  0  0  0  # atno 6908 bound_to 6896
  151.4862  133.3496  159.2881 H   0  0  0  0  0  0  0  0  0  0  0  0  # atno 6909 bound_to 6896
  146.0578  139.5087  142.9677 H   0  0  0  0  0  0  0  0  0  0  0  0  # atno 7974 bound_to 7965
  155.6114  140.0672  157.2705 H   0  0  0  0  0  0  0  0  0  0  0  0  # atno 8008 bound_to 7997
  154.4252  140.1800  156.1324 H   0  0  0  0  0  0  0  0  0  0  0  0  # atno 8009 bound_to 7997
  156.0081  140.3329  155.6917 H   0  0  0  0  0  0  0  0  0  0  0  0  # atno 8010 bound_to 7997
  139.6037  144.7064  151.3002 H   0  0  0  0  0  0  0  0  0  0  0  0  # atno 10167 bound_to 10162
  157.6759  131.0789  150.5617 H   0  0  0  0  0  0  0  0  0  0  0  0  # atno 10718 bound_to 10713
  154.4840  135.2776  155.1549 H   0  0  0  0  0  0  0  0  0  0  0  0  # atno 10763 bound_to 10752
  154.3247  135.6202  153.5527 H   0  0  0  0  0  0  0  0  0  0  0  0  # atno 10764 bound_to 10752
  152.9879  135.5751  154.5247 H   0  0  0  0  0  0  0  0  0  0  0  0  # atno 10765 bound_to 10752
  141.0927  133.6630  156.4032 H   0  0  0  0  0  0  0  0  0  0  0  0  # atno 11005 bound_to 11000
  145.6612  141.0240  143.1708 LP  0  0  0  0  0  0  0  0  0  0  0  0  # atno 17320 bound_to 7965
  144.7158  139.8203  143.7399 LP  0  0  0  0  0  0  0  0  0  0  0  0  # atno 17321 bound_to 7965
  140.7269  143.6977  150.7870 LP  0  0  0  0  0  0  0  0  0  0  0  0  # atno 17342 bound_to 10162
  140.0559  143.5203  152.2651 LP  0  0  0  0  0  0  0  0  0  0  0  0  # atno 17343 bound_to 10162
  156.5919  130.4331  149.5933 LP  0  0  0  0  0  0  0  0  0  0  0  0  # atno 17370 bound_to 10713
  156.2576  130.6943  151.1702 LP  0  0  0  0  0  0  0  0  0  0  0  0  # atno 17371 bound_to 10713
  140.5214  134.6301  157.5319 LP  0  0  0  0  0  0  0  0  0  0  0  0  # atno 17394 bound_to 11000
  139.9756  134.7220  155.9956 LP  0  0  0  0  0  0  0  0  0  0  0  0  # atno 17395 bound_to 11000

$$$$
