AV-unprocessed.smi:2228|AV-procd|sdf|9024|dock4
  -GOLD-   2272012223D 1   1.00000     0.00000
 Structure written by MMmdl.
 40 41  0  0  0  0  0  0  0  0  1 V2000
  148.3678  138.7146  156.9680 C   0  0  0  0  0  0  0  0  0  0  0  0
  148.3394  139.8781  156.1573 O   0  0  0  0  0  0  0  0  0  0  0  0
  148.7358  139.6482  154.8077 C   0  0  1  0  0  0  0  0  0  0  0  0
  147.5304  139.1288  154.0164 C   0  0  0  0  0  0  0  0  0  0  0  0
  146.7456  140.3890  153.6635 C   0  0  0  0  0  0  0  0  0  0  0  0
  147.8147  141.4496  153.3877 C   0  0  0  0  0  0  0  0  0  0  0  0
  149.0893  140.9884  154.1220 C   0  0  1  0  0  0  0  0  0  0  0  0
  149.5595  142.0069  155.0587 N   0  0  0  0  0  0  0  0  0  0  0  0
  150.3501  141.7677  156.1147 C   0  0  0  0  0  0  0  0  0  0  0  0
  150.7815  140.6494  156.3983 O   0  0  0  0  0  0  0  0  0  0  0  0
  150.5953  142.8957  156.8036 N   0  0  0  0  0  0  0  0  0  0  0  0
  151.3569  143.0501  157.9921 C   0  0  0  0  0  0  0  0  0  0  0  0
  151.3051  144.3370  158.5728 C   0  0  0  0  0  0  0  0  0  0  0  0
  152.0240  144.5943  159.7574 C   0  0  0  0  0  0  0  0  0  0  0  0
  151.9796  145.9660  160.3969 C   0  0  0  0  0  0  0  0  0  0  0  0
  152.7772  143.5521  160.3312 C   0  0  0  0  0  0  0  0  0  0  0  0
  152.7742  142.2984  159.6891 C   0  0  0  0  0  0  0  0  0  0  0  0
  153.5559  141.1315  160.2550 C   0  0  0  0  0  0  0  0  0  0  0  0
  152.0853  142.0537  158.5540 N   0  0  0  0  0  0  0  0  0  0  0  0
  148.0421  138.9669  157.9770 H   0  0  0  0  0  0  0  0  0  0  0  0
  149.3784  138.3098  157.0352 H   0  0  0  0  0  0  0  0  0  0  0  0
  147.7054  137.9374  156.5865 H   0  0  0  0  0  0  0  0  0  0  0  0
  149.5849  138.9634  154.7660 H   0  0  0  0  0  0  0  0  0  0  0  0
  147.8761  138.6497  153.0996 H   0  0  0  0  0  0  0  0  0  0  0  0
  146.9296  138.4000  154.5602 H   0  0  0  0  0  0  0  0  0  0  0  0
  146.0740  140.2415  152.8177 H   0  0  0  0  0  0  0  0  0  0  0  0
  146.1404  140.6924  154.5188 H   0  0  0  0  0  0  0  0  0  0  0  0
  148.0120  141.5065  152.3166 H   0  0  0  0  0  0  0  0  0  0  0  0
  147.4748  142.4373  153.7024 H   0  0  0  0  0  0  0  0  0  0  0  0
  149.8624  140.8110  153.3717 H   0  0  0  0  0  0  0  0  0  0  0  0
  149.2443  142.9525  154.9000 H   0  0  0  0  0  0  0  0  0  0  0  0
  150.1809  143.7414  156.4413 H   0  0  0  0  0  0  0  0  0  0  0  0
  150.7199  145.1221  158.1159 H   0  0  0  0  0  0  0  0  0  0  0  0
  152.6400  146.0218  161.2628 H   0  0  0  0  0  0  0  0  0  0  0  0
  150.9657  146.1957  160.7246 H   0  0  0  0  0  0  0  0  0  0  0  0
  152.2910  146.7276  159.6817 H   0  0  0  0  0  0  0  0  0  0  0  0
  153.3401  143.7084  161.2398 H   0  0  0  0  0  0  0  0  0  0  0  0
  154.2000  141.4484  161.0756 H   0  0  0  0  0  0  0  0  0  0  0  0
  154.1836  140.6824  159.4847 H   0  0  0  0  0  0  0  0  0  0  0  0
  152.8737  140.3686  160.6310 H   0  0  0  0  0  0  0  0  0  0  0  0
  1  2  1  0  0  0  0
  1 20  1  0  0  0  0
  1 21  1  0  0  0  0
  1 22  1  0  0  0  0
  2  3  1  0  0  0  0
  3  7  1  0  0  0  0
  3  4  1  0  0  0  0
  3 23  1  0  0  0  0
  4  5  1  0  0  0  0
  4 24  1  0  0  0  0
  4 25  1  0  0  0  0
  5  6  1  0  0  0  0
  5 26  1  0  0  0  0
  5 27  1  0  0  0  0
  6  7  1  0  0  0  0
  6 28  1  0  0  0  0
  6 29  1  0  0  0  0
  7  8  1  0  0  0  0
  7 30  1  0  0  0  0
  8  9  1  0  0  0  0
  8 31  1  0  0  0  0
  9 10  2  0  0  0  0
  9 11  1  0  0  0  0
 11 12  1  0  0  0  0
 11 32  1  0  0  0  0
 12 19  1  0  0  0  0
 12 13  2  0  0  0  0
 13 14  1  0  0  0  0
 13 33  1  0  0  0  0
 14 15  1  0  0  0  0
 14 16  2  0  0  0  0
 15 34  1  0  0  0  0
 15 35  1  0  0  0  0
 15 36  1  0  0  0  0
 16 17  1  0  0  0  0
 16 37  1  0  0  0  0
 17 18  1  0  0  0  0
 17 19  2  0  0  0  0
 18 38  1  0  0  0  0
 18 39  1  0  0  0  0
 18 40  1  0  0  0  0
M  END
> <s_m_source_file>
AV-unprocessed.smi

> <i_m_source_file_index>
2228

> <i_lp_mmshare_version>
43012

> <i_f3d_flags>
0

> <s_epik_input>
W0NIM11PW0NAQEhdMVtDSDJdW0NIMl1bQ0gyXVtDQEhdMVtOSF1DKD1PKVtOSF1jMltjSF1jKFtDSDNdKVtjSF1jKG4yKVtDSDNd

> <s_epik_cmdline>
J2VwaWtfcHl0aG9uJywgJy1waCcsICc3LjAnLCAnLXRuJywgJzgnLCAnLW1hJywgJzIwMCcsICctbWV0YWxfYmluZGluZycsICctaW1hZScsICc8aW5maWxlLm1hZT4nLCAnLW9tYWUnLCAnPG91dGZpbGUubWFlPic=

> <r_lp_tautomer_probability>
1

> <r_epik_Ionization_Penalty>
0.000275391

> <r_epik_Ionization_Penalty_Charging>
0

> <r_epik_Ionization_Penalty_Neutral>
0.000275391

> <r_epik_State_Penalty>
-0

> <r_epik_Charging_Adjusted_Penalty>
0

> <i_epik_Tot_Q>
0

> <i_epik_Tot_abs_Q>
0

> <r_epik_Metal_State_Penalty>
-0

> <b_epik_Metal_Only>
0

> <s_lp_Force_Field>
OPLS_2005

> <r_lp_Energy>
22.5757

> <b_lp_Chiralities_Consistent>
1

> <s_lp_Variant>
AV-unprocessed.smi:2228-2

> <Gold.Version>
5.8.1

> <Gold.Id.Protein>
6NUR|6NUR_protein|mol2

> <Gold.PLP.Fitness>
43.5611

> <Gold.PLP.PLP>
-38.5888

> <Gold.PLP.part.hbond>
-2.0000

> <Gold.PLP.part.metal>
0.0000

> <Gold.PLP.part.buried>
-3.9960

> <Gold.PLP.part.nonpolar>
-33.6048

> <Gold.PLP.part.repulsive>
0.2482

> <Gold.PLP.ligand.clash>
0.0000

> <Gold.PLP.ligand.torsion>
0.5198

> <Gold.PLP.Chemscore.Hbond>
2.0000

> <Gold.PLP.Chemscore.CHOScore>
0.0000

> <Gold.PLP.Chemscore.Metal>
0.0000

> <Gold.Chemscore.Hbonds>
donor molecule, donor type, donor heavy atom, donor atom, acceptor molecule, acceptor atom, score
      L1  H     8    31       P1  8028  0.98
      L1  H    11    32       P1  8028  1.00

> <Gold.PLP.Chemscore.Internal.Correction>
0.0120

> <Gold.Rescore>
     Score         DG    S(hbond)    S(metal)    S(lipo)     H(rot)  DE(clash)    DE(int)     intcor
     18.45     -20.43       1.93        0.00      99.36       1.21       0.37       1.62       ----

> <Gold.Chemscore.Fitness>
18.4493

> <Gold.Chemscore.DG>
-20.4341

> <Gold.Chemscore.ZeroCoef>
-5.4800

> <Gold.Chemscore.Hbond>
1.9258

> <Gold.Chemscore.Metal>
0.0000

> <Gold.Chemscore.Lipo>
99.3563

> <Gold.Chemscore.Internal_Hbond>
0.0000

> <Gold.Chemscore.DEClash>
0.3683

> <Gold.Chemscore.DEInternal>
1.6165

> <Gold.Chemscore.Rot>
1.2119

> <Gold.Chemscore.Internal.Correction>
   9.000000E+99

> <Gold.Chemscore.Hbonds>
donor molecule, donor type, donor heavy atom, donor atom, acceptor molecule, acceptor atom, score
      L1  H     8    31       P1  8028  0.93
      L1  H    11    32       P1  8028  0.99

> <Gold.Chemscore.Hbond.Weighted>
-6.4320

> <Gold.Chemscore.Metal.Weighted>
-0.0000

> <Gold.Chemscore.Lipo.Weighted>
-11.6247

> <Gold.Chemscore.Internal_Hbond.Weighted>
0.0000

> <Gold.Chemscore.DEClash.Weighted>
0.3683

> <Gold.Chemscore.DEInternal.Weighted>
1.6165

> <Gold.Chemscore.Rot.Weighted>
3.1026

> <Gold.Chemscore.Internal.Correction.Weighted>
   9.000000E+99

> <Gold.Protein.RotatedTorsions>
[ 6907 6896 6895 6894 ] final -150.17 input  -60.11 | X-H torsion
[ 7974 7965 7964 7962 ] final   80.30 input  175.53 | X-H torsion
[ 8008 7997 7996 7995 ] final   98.18 input   59.86 | X-H torsion
[ 10167 10162 10161 10158 ] final  -88.15 input  -65.29 | X-H torsion
[ 10718 10713 10712 10709 ] final   36.41 input   66.30 | X-H torsion
[ 10763 10752 10751 10750 ] final  -32.86 input  -60.55 | X-H torsion
[ 11005 11000 10999 10996 ] final  -28.19 input  -57.11 | X-H torsion

> <Gold.Protein.ActiveResidues>
 VAL166  LYS551  ARG553  GLY616  TRP617  ASP618  TYR619  PRO620  LYS621  CYS622 
 ASP623  PHE694  ASN695  SER759  ASP760  ASP761  ALA762  ILE779  LEU786  VAL792 
 PHE793  MET794  SER795  GLU796  ALA797  LYS798  CYS799  TRP800  GLU811  SER814 

> <Gold.Protein.RotatedAtoms>
  151.1947  133.4646  159.2595 H   0  0  0  0  0  0  0  0  0  0  0  0  # atno 6907 bound_to 6896
  151.1129  135.0036  159.8512 H   0  0  0  0  0  0  0  0  0  0  0  0  # atno 6908 bound_to 6896
  152.5451  134.1865  159.8709 H   0  0  0  0  0  0  0  0  0  0  0  0  # atno 6909 bound_to 6896
  145.6530  139.2452  143.1966 H   0  0  0  0  0  0  0  0  0  0  0  0  # atno 7974 bound_to 7965
  156.0978  140.3247  155.7901 H   0  0  0  0  0  0  0  0  0  0  0  0  # atno 8008 bound_to 7997
  155.4889  140.0560  157.2974 H   0  0  0  0  0  0  0  0  0  0  0  0  # atno 8009 bound_to 7997
  154.4677  140.1997  156.0090 H   0  0  0  0  0  0  0  0  0  0  0  0  # atno 8010 bound_to 7997
  140.3775  143.2765  151.9425 H   0  0  0  0  0  0  0  0  0  0  0  0  # atno 10167 bound_to 10162
  157.3346  130.7515  149.6870 H   0  0  0  0  0  0  0  0  0  0  0  0  # atno 10718 bound_to 10713
  153.8206  135.6874  153.4827 H   0  0  0  0  0  0  0  0  0  0  0  0  # atno 10763 bound_to 10752
  153.1571  135.4594  154.9718 H   0  0  0  0  0  0  0  0  0  0  0  0  # atno 10764 bound_to 10752
  154.7929  135.3308  154.7679 H   0  0  0  0  0  0  0  0  0  0  0  0  # atno 10765 bound_to 10752
  140.9186  133.7413  156.0770 H   0  0  0  0  0  0  0  0  0  0  0  0  # atno 11005 bound_to 11000
  146.1188  140.7335  142.9467 LP  0  0  0  0  0  0  0  0  0  0  0  0  # atno 17320 bound_to 7965
  144.7116  140.4058  143.7076 LP  0  0  0  0  0  0  0  0  0  0  0  0  # atno 17321 bound_to 7965
  139.4798  144.5850  151.7869 LP  0  0  0  0  0  0  0  0  0  0  0  0  # atno 17342 bound_to 10162
  140.4971  144.1224  150.5963 LP  0  0  0  0  0  0  0  0  0  0  0  0  # atno 17343 bound_to 10162
  155.9700  130.4185  150.4332 LP  0  0  0  0  0  0  0  0  0  0  0  0  # atno 17370 bound_to 10713
  157.2369  131.0517  151.2459 LP  0  0  0  0  0  0  0  0  0  0  0  0  # atno 17371 bound_to 10713
  140.8017  134.3501  157.5437 LP  0  0  0  0  0  0  0  0  0  0  0  0  # atno 17394 bound_to 11000
  139.8771  134.9201  156.3244 LP  0  0  0  0  0  0  0  0  0  0  0  0  # atno 17395 bound_to 11000

$$$$
