AV-unprocessed.smi:8|AV-procd|sdf|48|dock8
  -GOLD-   2262015163D 1   1.00000     0.00000
 Structure written by MMmdl.
 34 35  0  0  0  0  0  0  0  0  3 V2000
  151.7820  145.2420  160.2432 C   0  0  0  0  0  0  0  0  0  0  0  0
  152.2409  144.9120  158.8160 C   0  0  0  0  0  0  0  0  0  0  0  0
  152.2025  143.4660  158.5604 N   0  0  0  0  0  0  0  0  0  0  0  0
  151.4193  143.0181  157.4835 C   0  0  0  0  0  0  0  0  0  0  0  0
  151.3194  141.7141  157.1523 C   0  0  0  0  0  0  0  0  0  0  0  0
  150.4519  141.2327  155.9993 C   0  0  0  0  0  0  0  0  0  0  0  0
  149.1742  141.9301  155.9209 N   0  0  0  0  0  0  0  0  0  0  0  0
  148.0962  141.3060  155.2770 C   0  0  0  0  0  0  0  0  0  0  0  0
  148.3200  140.6210  154.1324 N   0  0  0  0  0  0  0  0  0  0  0  0
  147.2987  140.0165  153.5140 C   0  0  0  0  0  0  0  0  0  0  0  0
  146.0411  140.0509  153.9780 N   0  3  0  0  0  0  0  0  0  0  0  0
  145.7702  140.7229  155.1230 C   0  0  0  0  0  0  0  0  0  0  0  0
  146.7982  141.3827  155.8256 C   0  0  0  0  0  0  0  0  0  0  0  0
  146.5025  142.1402  157.1074 C   0  0  0  0  0  0  0  0  0  0  0  0
  152.0546  140.7526  157.9820 C   0  0  0  0  0  0  0  0  0  0  0  0
  151.9786  139.5492  157.7345 O   0  0  0  0  0  0  0  0  0  0  0  0
  152.8087  141.2392  159.0100 N   0  5  0  0  0  0  0  0  0  0  0  0
  152.9039  142.5695  159.3143 C   0  0  0  0  0  0  0  0  0  0  0  0
  153.5996  142.9847  160.2418 O   0  0  0  0  0  0  0  0  0  0  0  0
  151.8286  146.3157  160.4260 H   0  0  0  0  0  0  0  0  0  0  0  0
  152.4131  144.7505  160.9841 H   0  0  0  0  0  0  0  0  0  0  0  0
  150.7537  144.9213  160.4128 H   0  0  0  0  0  0  0  0  0  0  0  0
  151.6238  145.4489  158.0938 H   0  0  0  0  0  0  0  0  0  0  0  0
  153.2517  145.2924  158.6629 H   0  0  0  0  0  0  0  0  0  0  0  0
  150.9088  143.8003  156.9407 H   0  0  0  0  0  0  0  0  0  0  0  0
  151.0001  141.3662  155.0656 H   0  0  0  0  0  0  0  0  0  0  0  0
  150.2704  140.1632  156.1144 H   0  0  0  0  0  0  0  0  0  0  0  0
  149.2226  142.9363  155.8425 H   0  0  0  0  0  0  0  0  0  0  0  0
  147.4649  139.4678  152.5987 H   0  0  0  0  0  0  0  0  0  0  0  0
  144.7372  140.7099  155.4388 H   0  0  0  0  0  0  0  0  0  0  0  0
  145.4428  142.0913  157.3597 H   0  0  0  0  0  0  0  0  0  0  0  0
  146.7775  143.1902  157.0006 H   0  0  0  0  0  0  0  0  0  0  0  0
  147.0683  141.7183  157.9384 H   0  0  0  0  0  0  0  0  0  0  0  0
  145.2874  139.5776  153.4790 H   0  0  0  0  0  0  0  0  0  0  0  0
  1  2  1  0  0  0  0
  1 20  1  0  0  0  0
  1 21  1  0  0  0  0
  1 22  1  0  0  0  0
  2  3  1  0  0  0  0
  2 23  1  0  0  0  0
  2 24  1  0  0  0  0
  3 18  1  0  0  0  0
  3  4  1  0  0  0  0
  4  5  2  0  0  0  0
  4 25  1  0  0  0  0
  5  6  1  0  0  0  0
  5 15  1  0  0  0  0
  6  7  1  0  0  0  0
  6 26  1  0  0  0  0
  6 27  1  0  0  0  0
  7  8  1  0  0  0  0
  7 28  1  0  0  0  0
  8 13  1  0  0  0  0
  8  9  2  0  0  0  0
  9 10  1  0  0  0  0
 10 11  2  0  0  0  0
 10 29  1  0  0  0  0
 11 12  1  0  0  0  0
 11 34  1  0  0  0  0
 12 13  2  0  0  0  0
 12 30  1  0  0  0  0
 13 14  1  0  0  0  0
 14 31  1  0  0  0  0
 14 32  1  0  0  0  0
 14 33  1  0  0  0  0
 15 16  2  0  0  0  0
 15 17  1  0  0  0  0
 17 18  1  0  0  0  0
 18 19  2  0  0  0  0
M  CHG  1  11   1
M  CHG  1  17  -1
M  END
> <s_m_source_file>
AV-unprocessed.smi

> <i_m_source_file_index>
8

> <i_lp_mmshare_version>
43012

> <i_f3d_flags>
0

> <s_epik_input>
W0NIM11bQ0gyXW4xW2NIXWMoYyg9TylbbkhdYzE9TylbQ0gyXVtOSF1jMm5bY0hdbltjSF1jMltDSDNd

> <s_epik_cmdline>
J2VwaWtfcHl0aG9uJywgJy1waCcsICc3LjAnLCAnLXRuJywgJzgnLCAnLW1hJywgJzIwMCcsICctbWV0YWxfYmluZGluZycsICctaW1hZScsICc8aW5maWxlLm1hZT4nLCAnLW9tYWUnLCAnPG91dGZpbGUubWFlPic=

> <r_lp_tautomer_probability>
0.998874

> <r_epik_Ionization_Penalty>
7.33654

> <r_epik_Ionization_Penalty_Charging>
3.33717

> <r_epik_Ionization_Penalty_Neutral>
3.99937

> <r_epik_State_Penalty>
6.31594

> <r_epik_Charging_Adjusted_Penalty>
9.65311

> <i_epik_Tot_Q>
0

> <i_epik_Tot_abs_Q>
2

> <r_epik_Metal_State_Penalty>
2.94778

> <b_epik_Metal_Only>
1

> <s_lp_Force_Field>
OPLS_2005

> <r_lp_Energy>
21.5879

> <b_lp_Chiralities_Consistent>
1

> <s_lp_Variant>
AV-unprocessed.smi:8-4

> <Gold.Version>
5.8.1

> <Gold.Id.Protein>
6NUR|6NUR_protein|mol2

> <Gold.PLP.Fitness>
50.1210

> <Gold.PLP.PLP>
-37.6309

> <Gold.PLP.part.hbond>
-1.8546

> <Gold.PLP.part.metal>
0.0000

> <Gold.PLP.part.buried>
-4.3144

> <Gold.PLP.part.nonpolar>
-32.5754

> <Gold.PLP.part.repulsive>
0.2711

> <Gold.PLP.ligand.clash>
0.0000

> <Gold.PLP.ligand.torsion>
0.7505

> <Gold.PLP.Chemscore.Hbond>
2.8153

> <Gold.PLP.Chemscore.CHOScore>
1.8442

> <Gold.PLP.Chemscore.Metal>
0.0000

> <Gold.Chemscore.Hbonds>
donor molecule, donor type, donor heavy atom, donor atom, acceptor molecule, acceptor atom, score
      L1  H     7    28       P1  8028  1.00
      L1  H    11    34       P1 10175  0.90
      L1  C     4    25       P1  8028  0.96
      L1  C    10    29       P1  7957  0.60

> <Gold.PLP.Chemscore.Internal.Correction>
0.0128

> <Gold.Rescore>
     Score         DG    S(hbond)    S(metal)    S(lipo)     H(rot)  DE(clash)    DE(int)     intcor
     12.84     -14.38       1.91        0.00      59.43       1.73       0.04       1.51       ----

> <Gold.Chemscore.Fitness>
12.8392

> <Gold.Chemscore.DG>
-14.3838

> <Gold.Chemscore.ZeroCoef>
-5.4800

> <Gold.Chemscore.Hbond>
1.9091

> <Gold.Chemscore.Metal>
0.0000

> <Gold.Chemscore.Lipo>
59.4326

> <Gold.Chemscore.Internal_Hbond>
0.0000

> <Gold.Chemscore.DEClash>
0.0375

> <Gold.Chemscore.DEInternal>
1.5071

> <Gold.Chemscore.Rot>
1.7290

> <Gold.Chemscore.Internal.Correction>
   9.000000E+99

> <Gold.Chemscore.Hbonds>
donor molecule, donor type, donor heavy atom, donor atom, acceptor molecule, acceptor atom, score
      L1  H     7    28       P1  8028  1.00
      L1  H    11    34       P1 10175  0.44

> <Gold.Chemscore.Hbond.Weighted>
-6.3765

> <Gold.Chemscore.Metal.Weighted>
-0.0000

> <Gold.Chemscore.Lipo.Weighted>
-6.9536

> <Gold.Chemscore.Internal_Hbond.Weighted>
0.0000

> <Gold.Chemscore.DEClash.Weighted>
0.0375

> <Gold.Chemscore.DEInternal.Weighted>
1.5071

> <Gold.Chemscore.Rot.Weighted>
4.4263

> <Gold.Chemscore.Internal.Correction.Weighted>
   9.000000E+99

> <Gold.Protein.RotatedTorsions>
[ 6907 6896 6895 6894 ] final -165.81 input  -60.11 | X-H torsion
[ 7974 7965 7964 7962 ] final   68.80 input  175.53 | X-H torsion
[ 8008 7997 7996 7995 ] final -114.69 input   59.86 | X-H torsion
[ 10167 10162 10161 10158 ] final  -49.13 input  -65.29 | X-H torsion
[ 10718 10713 10712 10709 ] final  -36.96 input   66.30 | X-H torsion
[ 10763 10752 10751 10750 ] final -178.87 input  -60.55 | X-H torsion
[ 11005 11000 10999 10996 ] final   49.44 input  -57.11 | X-H torsion

> <Gold.Protein.ActiveResidues>
 VAL166  LYS551  ARG553  GLY616  TRP617  ASP618  TYR619  PRO620  LYS621  CYS622 
 ASP623  PHE694  ASN695  SER759  ASP760  ASP761  ALA762  ILE779  LEU786  VAL792 
 PHE793  MET794  SER795  GLU796  ALA797  LYS798  CYS799  TRP800  GLU811  SER814 

> <Gold.Protein.RotatedAtoms>
  151.4336  133.3663  159.2771 H   0  0  0  0  0  0  0  0  0  0  0  0  # atno 6907 bound_to 6896
  150.9208  134.8627  159.7498 H   0  0  0  0  0  0  0  0  0  0  0  0  # atno 6908 bound_to 6896
  152.4980  134.4273  159.9552 H   0  0  0  0  0  0  0  0  0  0  0  0  # atno 6909 bound_to 6896
  145.7981  139.2968  143.1171 H   0  0  0  0  0  0  0  0  0  0  0  0  # atno 7974 bound_to 7965
  155.0403  140.0392  157.2507 H   0  0  0  0  0  0  0  0  0  0  0  0  # atno 8008 bound_to 7997
  154.7222  140.2714  155.6507 H   0  0  0  0  0  0  0  0  0  0  0  0  # atno 8009 bound_to 7997
  156.2819  140.2700  156.1897 H   0  0  0  0  0  0  0  0  0  0  0  0  # atno 8010 bound_to 7997
  140.6699  143.2711  151.4170 H   0  0  0  0  0  0  0  0  0  0  0  0  # atno 10167 bound_to 10162
  156.3208  130.4265  149.7962 H   0  0  0  0  0  0  0  0  0  0  0  0  # atno 10718 bound_to 10713
  154.5422  135.2807  155.1085 H   0  0  0  0  0  0  0  0  0  0  0  0  # atno 10763 bound_to 10752
  154.2563  135.6330  153.5262 H   0  0  0  0  0  0  0  0  0  0  0  0  # atno 10764 bound_to 10752
  152.9982  135.5595  154.5965 H   0  0  0  0  0  0  0  0  0  0  0  0  # atno 10765 bound_to 10752
  140.1103  134.4963  155.8683 H   0  0  0  0  0  0  0  0  0  0  0  0  # atno 11005 bound_to 11000
  145.9906  140.8605  143.0068 LP  0  0  0  0  0  0  0  0  0  0  0  0  # atno 17320 bound_to 7965
  144.6772  140.2210  143.7366 LP  0  0  0  0  0  0  0  0  0  0  0  0  # atno 17321 bound_to 7965
  139.5963  144.1390  152.2148 LP  0  0  0  0  0  0  0  0  0  0  0  0  # atno 17342 bound_to 10162
  140.0760  144.5740  150.7157 LP  0  0  0  0  0  0  0  0  0  0  0  0  # atno 17343 bound_to 10162
  156.5271  130.8241  151.3224 LP  0  0  0  0  0  0  0  0  0  0  0  0  # atno 17370 bound_to 10713
  157.7411  130.9863  150.2423 LP  0  0  0  0  0  0  0  0  0  0  0  0  # atno 17371 bound_to 10713
  141.2128  133.6725  156.6692 LP  0  0  0  0  0  0  0  0  0  0  0  0  # atno 17394 bound_to 11000
  140.3100  134.8094  157.4168 LP  0  0  0  0  0  0  0  0  0  0  0  0  # atno 17395 bound_to 11000

$$$$
