AV-unprocessed.smi:713|AV-procd|sdf|3476|dock7
  -GOLD-   22720 0463D 1   1.00000     0.00000
 Structure written by MMmdl.
 41 42  0  0  0  0  0  0  0  0  1 V2000
  145.8876  131.9432  149.8387 C   0  0  0  0  0  0  0  0  0  0  0  0
  146.6037  132.9879  150.7190 C   0  0  2  0  0  0  0  0  0  0  0  0
  147.1089  132.4023  152.0467 C   0  0  0  0  0  0  0  0  0  0  0  0
  146.6968  131.3153  152.4541 O   0  0  0  0  0  0  0  0  0  0  0  0
  148.0008  133.1467  152.7197 N   0  0  0  0  0  0  0  0  0  0  0  0
  148.5726  132.8090  154.0187 C   0  0  1  0  0  0  0  0  0  0  0  0
  149.5548  131.6347  153.8598 C   0  0  0  0  0  0  0  0  0  0  0  0
  150.2319  131.2889  155.1944 C   0  0  0  0  0  0  0  0  0  0  0  0
  150.9380  132.5146  155.7931 C   0  0  0  0  0  0  0  0  0  0  0  0
  149.9642  133.6941  155.9669 C   0  0  1  0  0  0  0  0  0  0  0  0
  150.8697  135.1555  156.6519 S   0  0  0  0  0  0  0  0  0  0  0  0
  150.5774  136.4508  155.3773 C   0  0  0  0  0  0  0  0  0  0  0  0
  150.2020  135.5691  157.8954 O   0  0  0  0  0  0  0  0  0  0  0  0
  152.3088  134.8523  156.6681 O   0  0  0  0  0  0  0  0  0  0  0  0
  149.2776  134.0374  154.6300 C   0  0  0  0  0  0  0  0  0  0  0  0
  145.7748  134.1613  150.9710 N   0  0  0  0  0  0  0  0  0  0  0  0
  146.0548  135.2364  151.7901 C   0  0  0  0  0  0  0  0  0  0  0  0
  144.9764  136.0729  151.7541 C   0  0  0  0  0  0  0  0  0  0  0  0
  144.0655  135.4125  150.8841 C   0  0  0  0  0  0  0  0  0  0  0  0
  144.5408  134.2670  150.4245 N   0  0  0  0  0  0  0  0  0  0  0  0
  146.5441  131.1012  149.6166 H   0  0  0  0  0  0  0  0  0  0  0  0
  145.5859  132.3804  148.8865 H   0  0  0  0  0  0  0  0  0  0  0  0
  144.9920  131.5453  150.3176 H   0  0  0  0  0  0  0  0  0  0  0  0
  147.4782  133.3283  150.1621 H   0  0  0  0  0  0  0  0  0  0  0  0
  148.2857  134.0256  152.3129 H   0  0  0  0  0  0  0  0  0  0  0  0
  147.7714  132.4914  154.6889 H   0  0  0  0  0  0  0  0  0  0  0  0
  149.0313  130.7580  153.4762 H   0  0  0  0  0  0  0  0  0  0  0  0
  150.3189  131.8871  153.1228 H   0  0  0  0  0  0  0  0  0  0  0  0
  149.4862  130.9165  155.8980 H   0  0  0  0  0  0  0  0  0  0  0  0
  150.9497  130.4813  155.0485 H   0  0  0  0  0  0  0  0  0  0  0  0
  151.3805  132.2490  156.7533 H   0  0  0  0  0  0  0  0  0  0  0  0
  151.7636  132.8118  155.1449 H   0  0  0  0  0  0  0  0  0  0  0  0
  149.2051  133.4194  156.7002 H   0  0  0  0  0  0  0  0  0  0  0  0
  150.9841  137.3984  155.7293 H   0  0  0  0  0  0  0  0  0  0  0  0
  149.5070  136.5604  155.2048 H   0  0  0  0  0  0  0  0  0  0  0  0
  151.0733  136.1780  154.4467 H   0  0  0  0  0  0  0  0  0  0  0  0
  150.0170  134.4211  153.9255 H   0  0  0  0  0  0  0  0  0  0  0  0
  148.5506  134.8353  154.7784 H   0  0  0  0  0  0  0  0  0  0  0  0
  146.9891  135.3152  152.3263 H   0  0  0  0  0  0  0  0  0  0  0  0
  144.8539  137.0111  152.2745 H   0  0  0  0  0  0  0  0  0  0  0  0
  143.0783  135.7266  150.5786 H   0  0  0  0  0  0  0  0  0  0  0  0
  1  2  1  0  0  0  0
  1 21  1  0  0  0  0
  1 22  1  0  0  0  0
  1 23  1  0  0  0  0
  2  3  1  0  0  0  0
  2 16  1  0  0  0  0
  2 24  1  0  0  0  0
  3  4  2  0  0  0  0
  3  5  1  0  0  0  0
  5  6  1  0  0  0  0
  5 25  1  0  0  0  0
  6 15  1  0  0  0  0
  6  7  1  0  0  0  0
  6 26  1  0  0  0  0
  7  8  1  0  0  0  0
  7 27  1  0  0  0  0
  7 28  1  0  0  0  0
  8  9  1  0  0  0  0
  8 29  1  0  0  0  0
  8 30  1  0  0  0  0
  9 10  1  0  0  0  0
  9 31  1  0  0  0  0
  9 32  1  0  0  0  0
 10 11  1  0  0  0  0
 10 15  1  0  0  0  0
 10 33  1  0  0  0  0
 11 12  1  0  0  0  0
 11 13  2  0  0  0  0
 11 14  2  0  0  0  0
 12 34  1  0  0  0  0
 12 35  1  0  0  0  0
 12 36  1  0  0  0  0
 15 37  1  0  0  0  0
 15 38  1  0  0  0  0
 16 20  1  0  0  0  0
 16 17  1  0  0  0  0
 17 18  2  0  0  0  0
 17 39  1  0  0  0  0
 18 19  1  0  0  0  0
 18 40  1  0  0  0  0
 19 20  2  0  0  0  0
 19 41  1  0  0  0  0
M  END
> <s_m_source_file>
AV-unprocessed.smi

> <i_m_source_file_index>
713

> <i_lp_mmshare_version>
43012

> <i_f3d_flags>
0

> <s_epik_input>
bjFbY0hdW2NIXVtjSF1uMVtDQEhdKFtDSDNdKUMoPU8pW05IXVtDQEBIXTJbQ0gyXVtDSDJdW0NIMl1bQ0BIXShbQ0gyXTIpUyg9TykoPU8pW0NIM10=

> <s_epik_cmdline>
J2VwaWtfcHl0aG9uJywgJy1waCcsICc3LjAnLCAnLXRuJywgJzgnLCAnLW1hJywgJzIwMCcsICctbWV0YWxfYmluZGluZycsICctaW1hZScsICc8aW5maWxlLm1hZT4nLCAnLW9tYWUnLCAnPG91dGZpbGUubWFlPic=

> <r_lp_tautomer_probability>
1

> <r_epik_Ionization_Penalty>
4.07816e-05

> <r_epik_Ionization_Penalty_Charging>
0

> <r_epik_Ionization_Penalty_Neutral>
4.07816e-05

> <r_epik_State_Penalty>
-0

> <r_epik_Charging_Adjusted_Penalty>
0

> <i_epik_Tot_Q>
0

> <i_epik_Tot_abs_Q>
0

> <r_epik_Metal_State_Penalty>
-0

> <b_epik_Metal_Only>
0

> <s_lp_Force_Field>
OPLS_2005

> <r_lp_Energy>
6.63175

> <b_lp_Chiralities_Consistent>
1

> <s_lp_Variant>
AV-unprocessed.smi:713-3

> <Gold.Version>
5.8.1

> <Gold.Id.Protein>
6NUR|6NUR_protein|mol2

> <Gold.PLP.Fitness>
42.7542

> <Gold.PLP.PLP>
-33.5180

> <Gold.PLP.part.hbond>
-2.4023

> <Gold.PLP.part.metal>
0.0000

> <Gold.PLP.part.buried>
-2.0281

> <Gold.PLP.part.nonpolar>
-30.0016

> <Gold.PLP.part.repulsive>
0.3375

> <Gold.PLP.ligand.clash>
0.0000

> <Gold.PLP.ligand.torsion>
0.5957

> <Gold.PLP.Chemscore.Hbond>
2.1222

> <Gold.PLP.Chemscore.CHOScore>
1.2726

> <Gold.PLP.Chemscore.Metal>
0.0000

> <Gold.Chemscore.Hbonds>
donor molecule, donor type, donor heavy atom, donor atom, acceptor molecule, acceptor atom, score
      L1  H     5    25       P1  7948  0.18
      P1  H  6896  6909       L1    13  0.77
      P1  H 10752 10765       L1    14  0.96
      L1  C    17    39       P1  7948  1.00
      L1  C    19    41       P1 10186  0.17

> <Gold.PLP.Chemscore.Internal.Correction>
0.2434

> <Gold.Rescore>
     Score         DG    S(hbond)    S(metal)    S(lipo)     H(rot)  DE(clash)    DE(int)     intcor
     14.55     -15.38       1.84        0.00      69.77       1.72       0.00       0.83       ----

> <Gold.Chemscore.Fitness>
14.5471

> <Gold.Chemscore.DG>
-15.3826

> <Gold.Chemscore.ZeroCoef>
-5.4800

> <Gold.Chemscore.Hbond>
1.8429

> <Gold.Chemscore.Metal>
0.0000

> <Gold.Chemscore.Lipo>
69.7680

> <Gold.Chemscore.Internal_Hbond>
0.0000

> <Gold.Chemscore.DEClash>
0.0038

> <Gold.Chemscore.DEInternal>
0.8316

> <Gold.Chemscore.Rot>
1.7249

> <Gold.Chemscore.Internal.Correction>
   9.000000E+99

> <Gold.Chemscore.Hbonds>
donor molecule, donor type, donor heavy atom, donor atom, acceptor molecule, acceptor atom, score
      L1  H     5    25       P1  7948  0.01
      P1  H  6896  6909       L1    13  0.69
      P1  H 10752 10765       L1    14  0.85

> <Gold.Chemscore.Hbond.Weighted>
-6.1554

> <Gold.Chemscore.Metal.Weighted>
-0.0000

> <Gold.Chemscore.Lipo.Weighted>
-8.1629

> <Gold.Chemscore.Internal_Hbond.Weighted>
0.0000

> <Gold.Chemscore.DEClash.Weighted>
0.0038

> <Gold.Chemscore.DEInternal.Weighted>
0.8316

> <Gold.Chemscore.Rot.Weighted>
4.4157

> <Gold.Chemscore.Internal.Correction.Weighted>
   9.000000E+99

> <Gold.Protein.RotatedTorsions>
[ 6907 6896 6895 6894 ] final   50.22 input  -60.11 | X-H torsion
[ 7974 7965 7964 7962 ] final  154.94 input  175.53 | X-H torsion
[ 8008 7997 7996 7995 ] final  -41.25 input   59.86 | X-H torsion
[ 10167 10162 10161 10158 ] final  115.46 input  -65.29 | X-H torsion
[ 10718 10713 10712 10709 ] final -158.40 input   66.30 | X-H torsion
[ 10763 10752 10751 10750 ] final -140.82 input  -60.55 | X-H torsion
[ 11005 11000 10999 10996 ] final    4.19 input  -57.11 | X-H torsion

> <Gold.Protein.ActiveResidues>
 VAL166  LYS551  ARG553  GLY616  TRP617  ASP618  TYR619  PRO620  LYS621  CYS622 
 ASP623  PHE694  ASN695  SER759  ASP760  ASP761  ALA762  ILE779  LEU786  VAL792 
 PHE793  MET794  SER795  GLU796  ALA797  LYS798  CYS799  TRP800  GLU811  SER814 

> <Gold.Protein.RotatedAtoms>
  152.2995  134.7628  160.0360 H   0  0  0  0  0  0  0  0  0  0  0  0  # atno 6907 bound_to 6896
  151.8146  133.3381  159.3574 H   0  0  0  0  0  0  0  0  0  0  0  0  # atno 6908 bound_to 6896
  150.7267  134.5561  159.5863 H   0  0  0  0  0  0  0  0  0  0  0  0  # atno 6909 bound_to 6896
  144.8056  139.7002  143.6163 H   0  0  0  0  0  0  0  0  0  0  0  0  # atno 7974 bound_to 7965
  154.4005  140.1504  156.3161 H   0  0  0  0  0  0  0  0  0  0  0  0  # atno 8008 bound_to 7997
  155.8572  140.3455  155.5711 H   0  0  0  0  0  0  0  0  0  0  0  0  # atno 8009 bound_to 7997
  155.7920  140.0858  157.1994 H   0  0  0  0  0  0  0  0  0  0  0  0  # atno 8010 bound_to 7997
  139.6316  144.7115  151.2421 H   0  0  0  0  0  0  0  0  0  0  0  0  # atno 10167 bound_to 10162
  156.5536  130.8616  151.2787 H   0  0  0  0  0  0  0  0  0  0  0  0  # atno 10718 bound_to 10713
  154.8566  135.3542  154.5769 H   0  0  0  0  0  0  0  0  0  0  0  0  # atno 10763 bound_to 10752
  153.6381  135.6999  153.5256 H   0  0  0  0  0  0  0  0  0  0  0  0  # atno 10764 bound_to 10752
  153.2994  135.4211  155.1198 H   0  0  0  0  0  0  0  0  0  0  0  0  # atno 10765 bound_to 10752
  140.5847  133.9980  155.8063 H   0  0  0  0  0  0  0  0  0  0  0  0  # atno 11005 bound_to 11000
  146.2347  139.5881  142.9532 LP  0  0  0  0  0  0  0  0  0  0  0  0  # atno 17320 bound_to 7965
  145.5446  141.0418  143.2312 LP  0  0  0  0  0  0  0  0  0  0  0  0  # atno 17321 bound_to 7965
  140.7442  143.6471  150.8282 LP  0  0  0  0  0  0  0  0  0  0  0  0  # atno 17342 bound_to 10162
  140.0096  143.5656  152.2844 LP  0  0  0  0  0  0  0  0  0  0  0  0  # atno 17343 bound_to 10162
  157.7383  130.9810  150.2242 LP  0  0  0  0  0  0  0  0  0  0  0  0  # atno 17370 bound_to 10713
  156.2862  130.3740  149.7886 LP  0  0  0  0  0  0  0  0  0  0  0  0  # atno 17371 bound_to 10713
  141.0973  133.9823  157.3138 LP  0  0  0  0  0  0  0  0  0  0  0  0  # atno 17394 bound_to 11000
  139.9301  135.0200  156.8371 LP  0  0  0  0  0  0  0  0  0  0  0  0  # atno 17395 bound_to 11000

$$$$
