AV-unprocessed.smi:47|AV-procd|sdf|443|dock1
  -GOLD-   2262016313D 1   1.00000     0.00000
 Structure written by MMmdl.
 30 32  0  0  0  0  0  0  0  0  2 V2000
  154.1321  136.1743  164.9466 O   0  0  0  0  0  0  0  0  0  0  0  0
  154.6168  137.1426  164.0404 C   0  0  1  0  0  0  0  0  0  0  0  0
  156.1355  137.2531  164.0635 C   0  0  0  0  0  0  0  0  0  0  0  0
  156.4718  137.8929  162.7997 N   0  0  0  0  0  0  0  0  0  0  0  0
  155.4773  137.4721  161.8058 C   0  0  2  0  0  0  0  0  0  0  0  0
  154.9650  138.6274  160.9647 C   0  0  0  0  0  0  0  0  0  0  0  0
  155.1235  138.7472  159.6305 N   0  0  0  0  0  0  0  0  0  0  0  0
  154.5764  139.9009  159.2970 N   0  5  0  0  0  0  0  0  0  0  0  0
  154.1073  140.4686  160.4185 C   0  0  0  0  0  0  0  0  0  0  0  0
  153.4321  141.7829  160.4145 C   0  0  0  0  0  0  0  0  0  0  0  0
  153.1329  142.4377  161.6318 C   0  0  0  0  0  0  0  0  0  0  0  0
  152.4893  143.6906  161.6445 C   0  0  0  0  0  0  0  0  0  0  0  0
  152.1340  144.3117  160.4336 C   0  0  0  0  0  0  0  0  0  0  0  0
  152.4245  143.6756  159.2130 C   0  0  0  0  0  0  0  0  0  0  0  0
  153.0671  142.4222  159.2058 C   0  0  0  0  0  0  0  0  0  0  0  0
  154.3414  139.7013  161.4740 N   0  0  0  0  0  0  0  0  0  0  0  0
  154.3403  136.7844  162.5838 C   0  0  0  0  0  0  0  0  0  0  0  0
  154.1735  138.1120  164.2733 H   0  0  0  0  0  0  0  0  0  0  0  0
  155.9273  136.7448  161.1290 H   0  0  0  0  0  0  0  0  0  0  0  0
  154.3380  136.4584  165.8240 H   0  0  0  0  0  0  0  0  0  0  0  0
  156.5047  137.8187  164.9191 H   0  0  0  0  0  0  0  0  0  0  0  0
  156.5810  136.2579  164.1003 H   0  0  0  0  0  0  0  0  0  0  0  0
  157.3968  137.5922  162.5112 H   0  0  0  0  0  0  0  0  0  0  0  0
  153.3987  141.9775  162.5722 H   0  0  0  0  0  0  0  0  0  0  0  0
  152.2693  144.1738  162.5847 H   0  0  0  0  0  0  0  0  0  0  0  0
  151.6407  145.2723  160.4405 H   0  0  0  0  0  0  0  0  0  0  0  0
  152.1548  144.1484  158.2803 H   0  0  0  0  0  0  0  0  0  0  0  0
  153.2792  141.9526  158.2566 H   0  0  0  0  0  0  0  0  0  0  0  0
  154.4215  135.7051  162.4454 H   0  0  0  0  0  0  0  0  0  0  0  0
  153.3429  137.0816  162.2570 H   0  0  0  0  0  0  0  0  0  0  0  0
  1  2  1  0  0  0  0
  1 20  1  0  0  0  0
  2 18  1  0  0  0  0
  2 17  1  0  0  0  0
  2  3  1  0  0  0  0
  3  4  1  0  0  0  0
  3 21  1  0  0  0  0
  3 22  1  0  0  0  0
  4  5  1  0  0  0  0
  4 23  1  0  0  0  0
  5 19  1  0  0  0  0
  5  6  1  0  0  0  0
  5 17  1  0  0  0  0
  6 16  1  0  0  0  0
  6  7  2  0  0  0  0
  7  8  1  0  0  0  0
  8  9  1  0  0  0  0
  9 10  1  0  0  0  0
  9 16  2  0  0  0  0
 10 15  1  0  0  0  0
 10 11  2  0  0  0  0
 11 12  1  0  0  0  0
 11 24  1  0  0  0  0
 12 13  2  0  0  0  0
 12 25  1  0  0  0  0
 13 14  1  0  0  0  0
 13 26  1  0  0  0  0
 14 15  2  0  0  0  0
 14 27  1  0  0  0  0
 15 28  1  0  0  0  0
 17 29  1  0  0  0  0
 17 30  1  0  0  0  0
M  CHG  1   8  -1
M  END
> <s_m_source_file>
AV-unprocessed.smi

> <i_m_source_file_index>
47

> <i_lp_mmshare_version>
43012

> <i_f3d_flags>
0

> <s_epik_input>
W09IXVtDQEhdMVtDSDJdW05IXVtDQEBIXShbQ0gyXTEpYzJuW25IXWMobjIpLWMzW2NIXVtjSF1bY0hdW2NIXVtjSF0z

> <s_epik_cmdline>
J2VwaWtfcHl0aG9uJywgJy1waCcsICc3LjAnLCAnLXRuJywgJzgnLCAnLW1hJywgJzIwMCcsICctbWV0YWxfYmluZGluZycsICctaW1hZScsICc8aW5maWxlLm1hZT4nLCAnLW9tYWUnLCAnPG91dGZpbGUubWFlPic=

> <r_epik_Ionization_Penalty>
16.1968

> <r_epik_Ionization_Penalty_Charging>
13.1522

> <r_epik_Ionization_Penalty_Neutral>
3.04463

> <r_epik_State_Penalty>
6.32428

> <r_epik_Charging_Adjusted_Penalty>
19.4764

> <i_epik_Tot_Q>
-1

> <i_epik_Tot_abs_Q>
1

> <r_epik_Metal_State_Penalty>
2.82187

> <b_epik_Metal_Only>
1

> <s_lp_Force_Field>
OPLS_2005

> <r_lp_Energy>
30.4725

> <b_lp_Chiralities_Consistent>
1

> <s_lp_Variant>
AV-unprocessed.smi:47-21

> <Gold.Version>
5.8.1

> <Gold.Id.Protein>
6NUR|6NUR_protein|mol2

> <Gold.PLP.Fitness>
45.1517

> <Gold.PLP.PLP>
-39.2376

> <Gold.PLP.part.hbond>
-2.0000

> <Gold.PLP.part.metal>
0.0000

> <Gold.PLP.part.buried>
-5.2435

> <Gold.PLP.part.nonpolar>
-30.9707

> <Gold.PLP.part.repulsive>
0.0000

> <Gold.PLP.ligand.clash>
0.0000

> <Gold.PLP.ligand.torsion>
0.0487

> <Gold.PLP.Chemscore.Hbond>
2.0000

> <Gold.PLP.Chemscore.CHOScore>
0.0000

> <Gold.PLP.Chemscore.Metal>
0.0000

> <Gold.Chemscore.Hbonds>
donor molecule, donor type, donor heavy atom, donor atom, acceptor molecule, acceptor atom, score
      P1  H  7997  8009       L1     8  1.98

> <Gold.PLP.Chemscore.Internal.Correction>
0.0115

> <Gold.Rescore>
     Score         DG    S(hbond)    S(metal)    S(lipo)     H(rot)  DE(clash)    DE(int)     intcor
     15.16     -15.63       0.78        0.00      96.49       1.46       0.38       0.08       ----

> <Gold.Chemscore.Fitness>
15.1618

> <Gold.Chemscore.DG>
-15.6259

> <Gold.Chemscore.ZeroCoef>
-5.4800

> <Gold.Chemscore.Hbond>
0.7783

> <Gold.Chemscore.Metal>
0.0000

> <Gold.Chemscore.Lipo>
96.4895

> <Gold.Chemscore.Internal_Hbond>
0.0000

> <Gold.Chemscore.DEClash>
0.3824

> <Gold.Chemscore.DEInternal>
0.0817

> <Gold.Chemscore.Rot>
1.4621

> <Gold.Chemscore.Internal.Correction>
   9.000000E+99

> <Gold.Chemscore.Hbonds>
donor molecule, donor type, donor heavy atom, donor atom, acceptor molecule, acceptor atom, score
      P1  H  7997  8009       L1     8  0.23

> <Gold.Chemscore.Hbond.Weighted>
-2.5995

> <Gold.Chemscore.Metal.Weighted>
-0.0000

> <Gold.Chemscore.Lipo.Weighted>
-11.2893

> <Gold.Chemscore.Internal_Hbond.Weighted>
0.0000

> <Gold.Chemscore.DEClash.Weighted>
0.3824

> <Gold.Chemscore.DEInternal.Weighted>
0.0817

> <Gold.Chemscore.Rot.Weighted>
3.7429

> <Gold.Chemscore.Internal.Correction.Weighted>
   9.000000E+99

> <Gold.Protein.RotatedTorsions>
[ 6907 6896 6895 6894 ] final  -20.02 input  -60.11 | X-H torsion
[ 7974 7965 7964 7962 ] final  176.14 input  175.53 | X-H torsion
[ 8008 7997 7996 7995 ] final  116.39 input   59.86 | X-H torsion
[ 10167 10162 10161 10158 ] final  172.93 input  -65.29 | X-H torsion
[ 10718 10713 10712 10709 ] final   26.55 input   66.30 | X-H torsion
[ 10763 10752 10751 10750 ] final  130.78 input  -60.55 | X-H torsion
[ 11005 11000 10999 10996 ] final  -13.61 input  -57.11 | X-H torsion

> <Gold.Protein.ActiveResidues>
 VAL166  LYS551  ARG553  GLY616  TRP617  ASP618  TYR619  PRO620  LYS621  CYS622 
 ASP623  PHE694  ASN695  SER759  ASP760  ASP761  ALA762  ILE779  LEU786  VAL792 
 PHE793  MET794  SER795  GLU796  ALA797  LYS798  CYS799  TRP800  GLU811  SER814 

> <Gold.Protein.RotatedAtoms>
  151.2545  135.0633  159.9074 H   0  0  0  0  0  0  0  0  0  0  0  0  # atno 6907 bound_to 6896
  152.5375  134.0297  159.8029 H   0  0  0  0  0  0  0  0  0  0  0  0  # atno 6908 bound_to 6896
  151.0510  133.5574  159.2673 H   0  0  0  0  0  0  0  0  0  0  0  0  # atno 6909 bound_to 6896
  144.7189  140.0052  143.6440 H   0  0  0  0  0  0  0  0  0  0  0  0  # atno 7974 bound_to 7965
  156.2437  140.2918  156.0516 H   0  0  0  0  0  0  0  0  0  0  0  0  # atno 8008 bound_to 7997
  155.1874  140.0406  157.2911 H   0  0  0  0  0  0  0  0  0  0  0  0  # atno 8009 bound_to 7997
  154.6218  140.2477  155.7547 H   0  0  0  0  0  0  0  0  0  0  0  0  # atno 8010 bound_to 7997
  139.5092  144.3318  152.0104 H   0  0  0  0  0  0  0  0  0  0  0  0  # atno 10167 bound_to 10162
  157.2084  130.6922  149.6218 H   0  0  0  0  0  0  0  0  0  0  0  0  # atno 10718 bound_to 10713
  153.7636  135.3192  155.3341 H   0  0  0  0  0  0  0  0  0  0  0  0  # atno 10763 bound_to 10752
  154.8221  135.4595  154.0814 H   0  0  0  0  0  0  0  0  0  0  0  0  # atno 10764 bound_to 10752
  153.2052  135.6928  153.8265 H   0  0  0  0  0  0  0  0  0  0  0  0  # atno 10765 bound_to 10752
  140.7779  133.8386  155.9265 H   0  0  0  0  0  0  0  0  0  0  0  0  # atno 11005 bound_to 11000
  146.0303  139.3329  143.0759 LP  0  0  0  0  0  0  0  0  0  0  0  0  # atno 17320 bound_to 7965
  145.8461  140.9554  143.0774 LP  0  0  0  0  0  0  0  0  0  0  0  0  # atno 17321 bound_to 7965
  140.2757  144.3915  150.6136 LP  0  0  0  0  0  0  0  0  0  0  0  0  # atno 17342 bound_to 10162
  140.6055  143.2167  151.6989 LP  0  0  0  0  0  0  0  0  0  0  0  0  # atno 17343 bound_to 10162
  155.9693  130.4559  150.5906 LP  0  0  0  0  0  0  0  0  0  0  0  0  # atno 17370 bound_to 10713
  157.3697  131.0763  151.1568 LP  0  0  0  0  0  0  0  0  0  0  0  0  # atno 17371 bound_to 10713
  140.9511  134.1777  157.4727 LP  0  0  0  0  0  0  0  0  0  0  0  0  # atno 17394 bound_to 11000
  139.8746  134.9909  156.5526 LP  0  0  0  0  0  0  0  0  0  0  0  0  # atno 17395 bound_to 11000

$$$$
