AV-unprocessed.smi:1032|AV-procd|sdf|4482|dock4
  -GOLD-   22720 2463D 1   1.00000     0.00000
 Structure written by MMmdl.
 46 47  0  0  0  0  0  0  0  0  2 V2000
  141.7745  136.4996  154.3884 C   0  0  0  0  0  0  0  0  0  0  0  0
  143.2571  136.8716  154.2457 C   0  0  2  0  0  0  0  0  0  0  0  0
  143.6093  138.1240  155.0661 C   0  0  0  0  0  0  0  0  0  0  0  0
  145.0862  138.5145  154.8884 C   0  0  0  0  0  0  0  0  0  0  0  0
  145.4144  138.7258  153.4534 N   0  3  1  0  0  0  0  0  0  0  0  0
  146.7912  139.2385  153.2327 C   0  0  0  0  0  0  0  0  0  0  0  0
  147.0969  140.4926  154.0772 C   0  0  2  0  0  0  0  0  0  0  0  0
  146.2227  141.5192  153.6513 O   0  0  0  0  0  0  0  0  0  0  0  0
  148.5458  140.9785  153.8652 C   0  0  0  0  0  0  0  0  0  0  0  0
  148.9954  141.8587  154.9401 N   0  0  0  0  0  0  0  0  0  0  0  0
  150.0930  141.6633  155.6859 C   0  0  0  0  0  0  0  0  0  0  0  0
  150.8318  140.6875  155.5535 O   0  0  0  0  0  0  0  0  0  0  0  0
  150.2514  142.6491  156.5865 N   0  0  0  0  0  0  0  0  0  0  0  0
  151.2820  142.8208  157.5512 C   0  0  0  0  0  0  0  0  0  0  0  0
  151.6989  144.1380  157.8349 C   0  0  0  0  0  0  0  0  0  0  0  0
  152.7295  144.3377  158.7751 C   0  0  0  0  0  0  0  0  0  0  0  0
  153.3513  143.3282  159.4195 N   0  0  0  0  0  0  0  0  0  0  0  0
  152.9609  142.0673  159.1376 C   0  0  0  0  0  0  0  0  0  0  0  0
  151.9409  141.7576  158.2154 C   0  0  0  0  0  0  0  0  0  0  0  0
  145.1249  137.5123  152.6471 C   0  0  0  0  0  0  0  0  0  0  0  0
  143.6483  137.1010  152.7760 C   0  0  0  0  0  0  0  0  0  0  0  0
  141.1273  137.2947  154.0167 H   0  0  0  0  0  0  0  0  0  0  0  0
  141.5138  136.3199  155.4320 H   0  0  0  0  0  0  0  0  0  0  0  0
  141.5409  135.5924  153.8303 H   0  0  0  0  0  0  0  0  0  0  0  0
  143.8467  136.0373  154.6288 H   0  0  0  0  0  0  0  0  0  0  0  0
  142.9743  138.9573  154.7615 H   0  0  0  0  0  0  0  0  0  0  0  0
  143.4021  137.9483  156.1222 H   0  0  0  0  0  0  0  0  0  0  0  0
  145.2818  139.4192  155.4625 H   0  0  0  0  0  0  0  0  0  0  0  0
  145.7313  137.7368  155.3001 H   0  0  0  0  0  0  0  0  0  0  0  0
  147.5056  138.4435  153.4515 H   0  0  0  0  0  0  0  0  0  0  0  0
  146.9318  139.4884  152.1797 H   0  0  0  0  0  0  0  0  0  0  0  0
  146.9212  140.2893  155.1328 H   0  0  0  0  0  0  0  0  0  0  0  0
  145.4323  141.1207  153.3189 H   0  0  0  0  0  0  0  0  0  0  0  0
  149.2234  140.1240  153.8205 H   0  0  0  0  0  0  0  0  0  0  0  0
  148.6494  141.4928  152.9089 H   0  0  0  0  0  0  0  0  0  0  0  0
  148.4407  142.6841  155.1151 H   0  0  0  0  0  0  0  0  0  0  0  0
  149.5186  143.3426  156.6152 H   0  0  0  0  0  0  0  0  0  0  0  0
  151.2380  144.9846  157.3471 H   0  0  0  0  0  0  0  0  0  0  0  0
  153.0648  145.3363  159.0134 H   0  0  0  0  0  0  0  0  0  0  0  0
  153.4825  141.2782  159.6591 H   0  0  0  0  0  0  0  0  0  0  0  0
  151.7002  140.7223  158.0315 H   0  0  0  0  0  0  0  0  0  0  0  0
  145.3496  137.7038  151.5970 H   0  0  0  0  0  0  0  0  0  0  0  0
  145.7747  136.6959  152.9669 H   0  0  0  0  0  0  0  0  0  0  0  0
  143.4678  136.1955  152.1956 H   0  0  0  0  0  0  0  0  0  0  0  0
  143.0165  137.8771  152.3413 H   0  0  0  0  0  0  0  0  0  0  0  0
  144.7927  139.4441  153.1095 H   0  0  0  0  0  0  0  0  0  0  0  0
  1  2  1  0  0  0  0
  1 22  1  0  0  0  0
  1 23  1  0  0  0  0
  1 24  1  0  0  0  0
  2 21  1  0  0  0  0
  2  3  1  0  0  0  0
  2 25  1  0  0  0  0
  3  4  1  0  0  0  0
  3 26  1  0  0  0  0
  3 27  1  0  0  0  0
  4  5  1  0  0  0  0
  4 28  1  0  0  0  0
  4 29  1  0  0  0  0
  5  6  1  0  0  0  0
  5 20  1  0  0  0  0
  5 46  1  0  0  0  0
  6  7  1  0  0  0  0
  6 30  1  0  0  0  0
  6 31  1  0  0  0  0
  7  8  1  0  0  0  0
  7  9  1  0  0  0  0
  7 32  1  0  0  0  0
  8 33  1  0  0  0  0
  9 10  1  0  0  0  0
  9 34  1  0  0  0  0
  9 35  1  0  0  0  0
 10 11  1  0  0  0  0
 10 36  1  0  0  0  0
 11 12  2  0  0  0  0
 11 13  1  0  0  0  0
 13 14  1  0  0  0  0
 13 37  1  0  0  0  0
 14 19  1  0  0  0  0
 14 15  2  0  0  0  0
 15 16  1  0  0  0  0
 15 38  1  0  0  0  0
 16 17  2  0  0  0  0
 16 39  1  0  0  0  0
 17 18  1  0  0  0  0
 18 19  2  0  0  0  0
 18 40  1  0  0  0  0
 19 41  1  0  0  0  0
 20 21  1  0  0  0  0
 20 42  1  0  0  0  0
 20 43  1  0  0  0  0
 21 44  1  0  0  0  0
 21 45  1  0  0  0  0
M  CHG  1   5   1
M  END
> <s_m_source_file>
AV-unprocessed.smi

> <i_m_source_file_index>
1032

> <i_lp_mmshare_version>
43012

> <i_f3d_flags>
0

> <s_epik_input>
W0NIM11bQ0hdMVtDSDJdW0NIMl1OKFtDSDJdW0NIMl0xKVtDSDJdW0NASF0oW09IXSlbQ0gyXVtOSF1DKD1PKVtOSF1jMltjSF1bY0hdbltjSF1bY0hdMg==

> <s_epik_cmdline>
J2VwaWtfcHl0aG9uJywgJy1waCcsICc3LjAnLCAnLXRuJywgJzgnLCAnLW1hJywgJzIwMCcsICctbWV0YWxfYmluZGluZycsICctaW1hZScsICc8aW5maWxlLm1hZT4nLCAnLW9tYWUnLCAnPG91dGZpbGUubWFlPic=

> <r_epik_Ionization_Penalty>
0.11743

> <r_epik_Ionization_Penalty_Charging>
0.00147689

> <r_epik_Ionization_Penalty_Neutral>
0.115954

> <r_epik_State_Penalty>
0.105552

> <r_epik_Charging_Adjusted_Penalty>
0.107029

> <i_epik_Tot_Q>
1

> <i_epik_Tot_abs_Q>
1

> <r_epik_Metal_State_Penalty>
0.0881315

> <b_epik_Metal_Only>
0

> <s_lp_Force_Field>
OPLS_2005

> <r_lp_Energy>
24.9442

> <b_lp_Chiralities_Consistent>
1

> <s_lp_Variant>
AV-unprocessed.smi:1032-1

> <Gold.Version>
5.8.1

> <Gold.Id.Protein>
6NUR|6NUR_protein|mol2

> <Gold.PLP.Fitness>
52.8757

> <Gold.PLP.PLP>
-38.9817

> <Gold.PLP.part.hbond>
-5.0000

> <Gold.PLP.part.metal>
0.0000

> <Gold.PLP.part.buried>
-3.7400

> <Gold.PLP.part.nonpolar>
-31.1054

> <Gold.PLP.part.repulsive>
0.3243

> <Gold.PLP.ligand.clash>
0.0000

> <Gold.PLP.ligand.torsion>
0.4510

> <Gold.PLP.Chemscore.Hbond>
4.9217

> <Gold.PLP.Chemscore.CHOScore>
0.0000

> <Gold.PLP.Chemscore.Metal>
0.0000

> <Gold.Chemscore.Hbonds>
donor molecule, donor type, donor heavy atom, donor atom, acceptor molecule, acceptor atom, score
      L1  H     5    46       P1 10175  2.00
      L1  H     8    33       P1 10175  0.99
      L1  H    10    36       P1  8028  0.51
      L1  H    13    37       P1  8028  0.82
      P1  H  7989  7998       L1    12  0.49

> <Gold.PLP.Chemscore.Internal.Correction>
0.0309

> <Gold.Rescore>
     Score         DG    S(hbond)    S(metal)    S(lipo)     H(rot)  DE(clash)    DE(int)     intcor
     20.20     -22.16       3.44        0.00      94.45       2.29       0.75       1.21       ----

> <Gold.Chemscore.Fitness>
20.2035

> <Gold.Chemscore.DG>
-22.1643

> <Gold.Chemscore.ZeroCoef>
-5.4800

> <Gold.Chemscore.Hbond>
3.4393

> <Gold.Chemscore.Metal>
0.0000

> <Gold.Chemscore.Lipo>
94.4500

> <Gold.Chemscore.Internal_Hbond>
0.0000

> <Gold.Chemscore.DEClash>
0.7495

> <Gold.Chemscore.DEInternal>
1.2113

> <Gold.Chemscore.Rot>
2.2865

> <Gold.Chemscore.Internal.Correction>
   9.000000E+99

> <Gold.Chemscore.Hbonds>
donor molecule, donor type, donor heavy atom, donor atom, acceptor molecule, acceptor atom, score
      L1  H     5    46       P1 10175  1.00
      L1  H     8    33       P1 10175  0.37
      L1  H    10    36       P1  8028  0.52
      L1  H    13    37       P1  8028  0.81
      P1  H  7989  7998       L1    12  0.21

> <Gold.Chemscore.Hbond.Weighted>
-11.4872

> <Gold.Chemscore.Metal.Weighted>
-0.0000

> <Gold.Chemscore.Lipo.Weighted>
-11.0506

> <Gold.Chemscore.Internal_Hbond.Weighted>
0.0000

> <Gold.Chemscore.DEClash.Weighted>
0.7495

> <Gold.Chemscore.DEInternal.Weighted>
1.2113

> <Gold.Chemscore.Rot.Weighted>
5.8536

> <Gold.Chemscore.Internal.Correction.Weighted>
   9.000000E+99

> <Gold.Protein.RotatedTorsions>
[ 6907 6896 6895 6894 ] final  164.81 input  -60.11 | X-H torsion
[ 7974 7965 7964 7962 ] final   25.04 input  175.53 | X-H torsion
[ 8008 7997 7996 7995 ] final -160.64 input   59.86 | X-H torsion
[ 10167 10162 10161 10158 ] final -178.40 input  -65.29 | X-H torsion
[ 10718 10713 10712 10709 ] final  -36.10 input   66.30 | X-H torsion
[ 10763 10752 10751 10750 ] final  178.63 input  -60.55 | X-H torsion
[ 11005 11000 10999 10996 ] final   95.89 input  -57.11 | X-H torsion

> <Gold.Protein.ActiveResidues>
 VAL166  LYS551  ARG553  GLY616  TRP617  ASP618  TYR619  PRO620  LYS621  CYS622 
 ASP623  PHE694  ASN695  SER759  ASP760  ASP761  ALA762  ILE779  LEU786  VAL792 
 PHE793  MET794  SER795  GLU796  ALA797  LYS798  CYS799  TRP800  GLU811  SER814 

> <Gold.Protein.RotatedAtoms>
  151.9040  133.3545  159.3840 H   0  0  0  0  0  0  0  0  0  0  0  0  # atno 6907 bound_to 6896
  150.7073  134.4799  159.5474 H   0  0  0  0  0  0  0  0  0  0  0  0  # atno 6908 bound_to 6896
  152.2393  134.8245  160.0513 H   0  0  0  0  0  0  0  0  0  0  0  0  # atno 6909 bound_to 6896
  146.1908  139.7521  142.8833 H   0  0  0  0  0  0  0  0  0  0  0  0  # atno 7974 bound_to 7965
  155.7805  140.0864  157.2061 H   0  0  0  0  0  0  0  0  0  0  0  0  # atno 8008 bound_to 7997
  154.3990  140.1508  156.3104 H   0  0  0  0  0  0  0  0  0  0  0  0  # atno 8009 bound_to 7997
  155.8658  140.3428  155.5790 H   0  0  0  0  0  0  0  0  0  0  0  0  # atno 8010 bound_to 7997
  139.5434  144.2300  152.0941 H   0  0  0  0  0  0  0  0  0  0  0  0  # atno 10167 bound_to 10162
  156.3308  130.4279  149.7874 H   0  0  0  0  0  0  0  0  0  0  0  0  # atno 10718 bound_to 10713
  154.5102  135.2788  155.1349 H   0  0  0  0  0  0  0  0  0  0  0  0  # atno 10763 bound_to 10752
  154.2947  135.6260  153.5403 H   0  0  0  0  0  0  0  0  0  0  0  0  # atno 10764 bound_to 10752
  152.9917  135.5682  154.5566 H   0  0  0  0  0  0  0  0  0  0  0  0  # atno 10765 bound_to 10752
  139.8785  134.8922  156.4078 H   0  0  0  0  0  0  0  0  0  0  0  0  # atno 11005 bound_to 11000
  145.3798  141.0356  143.3184 LP  0  0  0  0  0  0  0  0  0  0  0  0  # atno 17320 bound_to 7965
  144.8483  139.5361  143.6868 LP  0  0  0  0  0  0  0  0  0  0  0  0  # atno 17321 bound_to 7965
  140.1783  144.4869  150.6542 LP  0  0  0  0  0  0  0  0  0  0  0  0  # atno 17342 bound_to 10162
  140.6673  143.2272  151.5711 LP  0  0  0  0  0  0  0  0  0  0  0  0  # atno 17343 bound_to 10162
  156.5147  130.8188  151.3182 LP  0  0  0  0  0  0  0  0  0  0  0  0  # atno 17370 bound_to 10713
  157.7430  130.9902  150.2558 LP  0  0  0  0  0  0  0  0  0  0  0  0  # atno 17371 bound_to 10713
  140.9222  133.7637  155.9920 LP  0  0  0  0  0  0  0  0  0  0  0  0  # atno 17394 bound_to 11000
  140.8427  134.3048  157.5307 LP  0  0  0  0  0  0  0  0  0  0  0  0  # atno 17395 bound_to 11000

$$$$
