AV-unprocessed.smi:2076|AV-procd|sdf|8460|dock6
  -GOLD-   2272011163D 1   1.00000     0.00000
 Structure written by MMmdl.
 45 46  0  0  0  0  0  0  0  0  2 V2000
  153.7375  140.7866  160.5739 C   0  0  0  0  0  0  0  0  0  0  0  0
  152.9727  141.9060  159.9319 C   0  0  0  0  0  0  0  0  0  0  0  0
  153.4077  143.2360  159.6753 C   0  0  0  0  0  0  0  0  0  0  0  0
  152.3331  143.8341  159.0800 C   0  0  0  0  0  0  0  0  0  0  0  0
  152.1656  145.2294  158.5741 C   0  0  0  0  0  0  0  0  0  0  0  0
  151.3339  142.8800  159.0044 N   0  0  0  0  0  0  0  0  0  0  0  0
  149.9943  142.9961  158.4498 C   0  0  0  0  0  0  0  0  0  0  0  0
  149.6910  141.8392  157.4966 C   0  0  0  0  0  0  0  0  0  0  0  0
  149.5039  140.7074  157.9416 O   0  0  0  0  0  0  0  0  0  0  0  0
  149.6495  142.1373  156.1882 N   0  0  0  0  0  0  0  0  0  0  0  0
  149.3207  141.2038  155.1135 C   0  0  0  0  0  0  0  0  0  0  0  0
  148.1923  141.7130  154.1725 C   0  0  1  0  0  0  0  0  0  0  0  0
  147.5844  140.5419  153.3611 C   0  0  0  0  0  0  0  0  0  0  0  0
  147.1348  142.4735  154.9222 N   0  3  0  0  0  0  0  0  0  0  0  0
  146.0250  142.9728  154.0611 C   0  0  0  0  0  0  0  0  0  0  0  0
  144.9728  143.7422  154.8774 C   0  0  0  0  0  0  0  0  0  0  0  0
  144.4689  142.9149  155.9129 O   0  0  0  0  0  0  0  0  0  0  0  0
  145.4966  142.5480  156.8185 C   0  0  0  0  0  0  0  0  0  0  0  0
  146.5691  141.7276  156.0824 C   0  0  0  0  0  0  0  0  0  0  0  0
  151.7304  141.6986  159.5270 N   0  0  0  0  0  0  0  0  0  0  0  0
  154.6991  141.1334  160.9529 H   0  0  0  0  0  0  0  0  0  0  0  0
  153.9318  139.9854  159.8604 H   0  0  0  0  0  0  0  0  0  0  0  0
  153.1852  140.3616  161.4123 H   0  0  0  0  0  0  0  0  0  0  0  0
  154.3656  143.6836  159.8952 H   0  0  0  0  0  0  0  0  0  0  0  0
  153.0852  145.8014  158.6983 H   0  0  0  0  0  0  0  0  0  0  0  0
  151.3736  145.7464  159.1161 H   0  0  0  0  0  0  0  0  0  0  0  0
  151.9115  145.2325  157.5143 H   0  0  0  0  0  0  0  0  0  0  0  0
  149.2642  143.0140  159.2608 H   0  0  0  0  0  0  0  0  0  0  0  0
  149.9058  143.9478  157.9250 H   0  0  0  0  0  0  0  0  0  0  0  0
  149.8187  143.0971  155.9220 H   0  0  0  0  0  0  0  0  0  0  0  0
  150.2077  140.9414  154.5344 H   0  0  0  0  0  0  0  0  0  0  0  0
  149.0139  140.2981  155.6335 H   0  0  0  0  0  0  0  0  0  0  0  0
  148.6463  142.4036  153.4595 H   0  0  0  0  0  0  0  0  0  0  0  0
  148.3467  139.9550  152.8513 H   0  0  0  0  0  0  0  0  0  0  0  0
  146.9227  140.8843  152.5671 H   0  0  0  0  0  0  0  0  0  0  0  0
  147.0238  139.8632  154.0046 H   0  0  0  0  0  0  0  0  0  0  0  0
  146.3946  143.6581  153.3009 H   0  0  0  0  0  0  0  0  0  0  0  0
  145.5561  142.1336  153.5449 H   0  0  0  0  0  0  0  0  0  0  0  0
  145.3953  144.6578  155.2949 H   0  0  0  0  0  0  0  0  0  0  0  0
  144.1455  144.0410  154.2331 H   0  0  0  0  0  0  0  0  0  0  0  0
  145.9315  143.4365  157.2795 H   0  0  0  0  0  0  0  0  0  0  0  0
  145.0600  141.9559  157.6231 H   0  0  0  0  0  0  0  0  0  0  0  0
  146.1443  140.7835  155.7376 H   0  0  0  0  0  0  0  0  0  0  0  0
  147.3412  141.4894  156.8114 H   0  0  0  0  0  0  0  0  0  0  0  0
  147.5880  143.2917  155.3039 H   0  0  0  0  0  0  0  0  0  0  0  0
  1  2  1  0  0  0  0
  1 21  1  0  0  0  0
  1 22  1  0  0  0  0
  1 23  1  0  0  0  0
  2 20  2  0  0  0  0
  2  3  1  0  0  0  0
  3  4  2  0  0  0  0
  3 24  1  0  0  0  0
  4  5  1  0  0  0  0
  4  6  1  0  0  0  0
  5 25  1  0  0  0  0
  5 26  1  0  0  0  0
  5 27  1  0  0  0  0
  6  7  1  0  0  0  0
  6 20  1  0  0  0  0
  7  8  1  0  0  0  0
  7 28  1  0  0  0  0
  7 29  1  0  0  0  0
  8  9  2  0  0  0  0
  8 10  1  0  0  0  0
 10 11  1  0  0  0  0
 10 30  1  0  0  0  0
 11 12  1  0  0  0  0
 11 31  1  0  0  0  0
 11 32  1  0  0  0  0
 12 13  1  0  0  0  0
 12 14  1  0  0  0  0
 12 33  1  0  0  0  0
 13 34  1  0  0  0  0
 13 35  1  0  0  0  0
 13 36  1  0  0  0  0
 14 19  1  0  0  0  0
 14 15  1  0  0  0  0
 14 45  1  0  0  0  0
 15 16  1  0  0  0  0
 15 37  1  0  0  0  0
 15 38  1  0  0  0  0
 16 17  1  0  0  0  0
 16 39  1  0  0  0  0
 16 40  1  0  0  0  0
 17 18  1  0  0  0  0
 18 19  1  0  0  0  0
 18 41  1  0  0  0  0
 18 42  1  0  0  0  0
 19 43  1  0  0  0  0
 19 44  1  0  0  0  0
M  CHG  1  14   1
M  END
> <s_m_source_file>
AV-unprocessed.smi

> <i_m_source_file_index>
2076

> <i_lp_mmshare_version>
43012

> <i_f3d_flags>
0

> <s_epik_input>
W0NIM11jMVtjSF1jKFtDSDNdKW4objEpW0NIMl1DKD1PKVtOSF1bQ0gyXVtDQEhdKFtDSDNdKU4yW0NIMl1bQ0gyXU9bQ0gyXVtDSDJdMg==

> <s_epik_cmdline>
J2VwaWtfcHl0aG9uJywgJy1waCcsICc3LjAnLCAnLXRuJywgJzgnLCAnLW1hJywgJzIwMCcsICctbWV0YWxfYmluZGluZycsICctaW1hZScsICc8aW5maWxlLm1hZT4nLCAnLW9tYWUnLCAnPG91dGZpbGUubWFlPic=

> <r_lp_tautomer_probability>
1

> <r_epik_Ionization_Penalty>
0.748594

> <r_epik_Ionization_Penalty_Charging>
0.748396

> <r_epik_Ionization_Penalty_Neutral>
0.000197403

> <r_epik_State_Penalty>
0.775162

> <r_epik_Charging_Adjusted_Penalty>
1.52356

> <i_epik_Tot_Q>
1

> <i_epik_Tot_abs_Q>
1

> <r_epik_Metal_State_Penalty>
0.77529

> <b_epik_Metal_Only>
0

> <s_lp_Force_Field>
OPLS_2005

> <r_lp_Energy>
19.0856

> <b_lp_Chiralities_Consistent>
1

> <s_lp_Variant>
AV-unprocessed.smi:2076-4

> <Gold.Version>
5.8.1

> <Gold.Id.Protein>
6NUR|6NUR_protein|mol2

> <Gold.PLP.Fitness>
50.9819

> <Gold.PLP.PLP>
-43.5923

> <Gold.PLP.part.hbond>
-2.0000

> <Gold.PLP.part.metal>
0.0000

> <Gold.PLP.part.buried>
-5.2921

> <Gold.PLP.part.nonpolar>
-36.2442

> <Gold.PLP.part.repulsive>
0.3214

> <Gold.PLP.ligand.clash>
0.0000

> <Gold.PLP.ligand.torsion>
0.5201

> <Gold.PLP.Chemscore.Hbond>
2.7840

> <Gold.PLP.Chemscore.CHOScore>
0.0000

> <Gold.PLP.Chemscore.Metal>
0.0000

> <Gold.Chemscore.Hbonds>
donor molecule, donor type, donor heavy atom, donor atom, acceptor molecule, acceptor atom, score
      L1  H    10    30       P1  8028  0.82
      L1  H    14    45       P1  8028  2.00

> <Gold.PLP.Chemscore.Internal.Correction>
0.0778

> <Gold.Rescore>
     Score         DG    S(hbond)    S(metal)    S(lipo)     H(rot)  DE(clash)    DE(int)     intcor
     15.20     -17.21       1.18        0.00     105.58       1.78       0.33       1.68       ----

> <Gold.Chemscore.Fitness>
15.2049

> <Gold.Chemscore.DG>
-17.2139

> <Gold.Chemscore.ZeroCoef>
-5.4800

> <Gold.Chemscore.Hbond>
1.1760

> <Gold.Chemscore.Metal>
0.0000

> <Gold.Chemscore.Lipo>
105.5759

> <Gold.Chemscore.Internal_Hbond>
0.0000

> <Gold.Chemscore.DEClash>
0.3305

> <Gold.Chemscore.DEInternal>
1.6786

> <Gold.Chemscore.Rot>
1.7760

> <Gold.Chemscore.Internal.Correction>
   9.000000E+99

> <Gold.Chemscore.Hbonds>
donor molecule, donor type, donor heavy atom, donor atom, acceptor molecule, acceptor atom, score
      L1  H    10    30       P1  8028  0.81
      L1  H    14    45       P1  8028  0.25

> <Gold.Chemscore.Hbond.Weighted>
-3.9280

> <Gold.Chemscore.Metal.Weighted>
-0.0000

> <Gold.Chemscore.Lipo.Weighted>
-12.3524

> <Gold.Chemscore.Internal_Hbond.Weighted>
0.0000

> <Gold.Chemscore.DEClash.Weighted>
0.3305

> <Gold.Chemscore.DEInternal.Weighted>
1.6786

> <Gold.Chemscore.Rot.Weighted>
4.5464

> <Gold.Chemscore.Internal.Correction.Weighted>
   9.000000E+99

> <Gold.Protein.RotatedTorsions>
[ 6907 6896 6895 6894 ] final  -55.40 input  -60.11 | X-H torsion
[ 7974 7965 7964 7962 ] final -104.87 input  175.53 | X-H torsion
[ 8008 7997 7996 7995 ] final -146.44 input   59.86 | X-H torsion
[ 10167 10162 10161 10158 ] final -118.85 input  -65.29 | X-H torsion
[ 10718 10713 10712 10709 ] final   77.32 input   66.30 | X-H torsion
[ 10763 10752 10751 10750 ] final   98.74 input  -60.55 | X-H torsion
[ 11005 11000 10999 10996 ] final -178.83 input  -57.11 | X-H torsion

> <Gold.Protein.ActiveResidues>
 VAL166  LYS551  ARG553  GLY616  TRP617  ASP618  TYR619  PRO620  LYS621  CYS622 
 ASP623  PHE694  ASN695  SER759  ASP760  ASP761  ALA762  ILE779  LEU786  VAL792 
 PHE793  MET794  SER795  GLU796  ALA797  LYS798  CYS799  TRP800  GLU811  SER814 

> <Gold.Protein.RotatedAtoms>
  150.8255  134.7483  159.6808 H   0  0  0  0  0  0  0  0  0  0  0  0  # atno 6907 bound_to 6896
  152.4366  134.5671  159.9920 H   0  0  0  0  0  0  0  0  0  0  0  0  # atno 6908 bound_to 6896
  151.5845  133.3336  159.3051 H   0  0  0  0  0  0  0  0  0  0  0  0  # atno 6909 bound_to 6896
  145.2377  140.9194  143.3168 H   0  0  0  0  0  0  0  0  0  0  0  0  # atno 7974 bound_to 7965
  155.5595  140.0624  157.2832 H   0  0  0  0  0  0  0  0  0  0  0  0  # atno 8008 bound_to 7997
  154.4395  140.1888  156.0813 H   0  0  0  0  0  0  0  0  0  0  0  0  # atno 8009 bound_to 7997
  156.0457  140.3290  155.7298 H   0  0  0  0  0  0  0  0  0  0  0  0  # atno 8010 bound_to 7997
  140.0530  143.5041  152.2072 H   0  0  0  0  0  0  0  0  0  0  0  0  # atno 10167 bound_to 10162
  157.6706  130.9816  150.1624 H   0  0  0  0  0  0  0  0  0  0  0  0  # atno 10718 bound_to 10713
  153.2927  135.4138  155.1182 H   0  0  0  0  0  0  0  0  0  0  0  0  # atno 10763 bound_to 10752
  154.8525  135.3522  154.5959 H   0  0  0  0  0  0  0  0  0  0  0  0  # atno 10764 bound_to 10752
  153.6382  135.7058  153.5309 H   0  0  0  0  0  0  0  0  0  0  0  0  # atno 10765 bound_to 10752
  140.4254  134.6567  157.4685 H   0  0  0  0  0  0  0  0  0  0  0  0  # atno 11005 bound_to 11000
  144.9618  139.3972  143.6352 LP  0  0  0  0  0  0  0  0  0  0  0  0  # atno 17320 bound_to 7965
  146.3337  139.8675  142.8845 LP  0  0  0  0  0  0  0  0  0  0  0  0  # atno 17321 bound_to 7965
  139.5941  144.7560  151.3329 LP  0  0  0  0  0  0  0  0  0  0  0  0  # atno 17342 bound_to 10162
  140.7208  143.7142  150.7746 LP  0  0  0  0  0  0  0  0  0  0  0  0  # atno 17343 bound_to 10162
  156.2398  130.3690  149.8350 LP  0  0  0  0  0  0  0  0  0  0  0  0  # atno 17370 bound_to 10713
  156.6154  130.8604  151.3463 LP  0  0  0  0  0  0  0  0  0  0  0  0  # atno 17371 bound_to 10713
  140.0171  134.6603  155.9294 LP  0  0  0  0  0  0  0  0  0  0  0  0  # atno 17394 bound_to 11000
  141.1767  133.6541  156.4857 LP  0  0  0  0  0  0  0  0  0  0  0  0  # atno 17395 bound_to 11000

$$$$
