AV-unprocessed.smi:2716|AV-procd|sdf|10483|dock1
  -GOLD-   2272014523D 1   1.00000     0.00000
 Structure written by MMmdl.
 19 19  0  0  0  0  0  0  0  0  1 V2000
  150.8942  138.0847  153.2018 N   0  0  0  0  0  0  0  0  0  0  0  0
  151.4570  138.0736  154.4133 C   0  0  0  0  0  0  0  0  0  0  0  0
  152.0774  137.1027  154.8424 O   0  0  0  0  0  0  0  0  0  0  0  0
  151.2716  139.3217  155.2030 C   0  0  0  0  0  0  0  0  0  0  0  0
  151.7066  139.5350  156.4810 C   0  0  0  0  0  0  0  0  0  0  0  0
  151.2908  140.8217  156.7531 N   0  0  0  0  0  0  0  0  0  0  0  0
  151.4730  141.5934  157.9693 C   0  0  0  0  0  0  0  0  0  0  0  0
  150.7050  142.9256  157.9467 C   0  0  0  0  0  0  0  0  0  0  0  0
  151.1583  143.7528  156.8949 O   0  0  0  0  0  0  0  0  0  0  0  0
  150.6428  141.3686  155.6968 N   0  0  0  0  0  0  0  0  0  0  0  0
  150.6221  140.4762  154.7571 N   0  0  0  0  0  0  0  0  0  0  0  0
  150.9724  137.2764  152.6023 H   0  0  0  0  0  0  0  0  0  0  0  0
  150.3918  138.9047  152.8937 H   0  0  0  0  0  0  0  0  0  0  0  0
  152.2430  138.9151  157.1842 H   0  0  0  0  0  0  0  0  0  0  0  0
  151.1510  140.9871  158.8172 H   0  0  0  0  0  0  0  0  0  0  0  0
  152.5394  141.7781  158.1050 H   0  0  0  0  0  0  0  0  0  0  0  0
  149.6390  142.7413  157.8130 H   0  0  0  0  0  0  0  0  0  0  0  0
  150.8227  143.4550  158.8928 H   0  0  0  0  0  0  0  0  0  0  0  0
  150.4114  144.1817  156.5060 H   0  0  0  0  0  0  0  0  0  0  0  0
  1  2  1  0  0  0  0
  1 12  1  0  0  0  0
  1 13  1  0  0  0  0
  2  3  2  0  0  0  0
  2  4  1  0  0  0  0
  4 11  1  0  0  0  0
  4  5  2  0  0  0  0
  5  6  1  0  0  0  0
  5 14  1  0  0  0  0
  6  7  1  0  0  0  0
  6 10  1  0  0  0  0
  7  8  1  0  0  0  0
  7 15  1  0  0  0  0
  7 16  1  0  0  0  0
  8  9  1  0  0  0  0
  8 17  1  0  0  0  0
  8 18  1  0  0  0  0
  9 19  1  0  0  0  0
 10 11  2  0  0  0  0
M  END
> <s_m_source_file>
AV-unprocessed.smi

> <i_m_source_file_index>
2716

> <i_lp_mmshare_version>
43012

> <i_f3d_flags>
0

> <s_epik_input>
W05IMl1DKD1PKWMxW2NIXW4obm4xKVtDSDJdW0NIMl1bT0hd

> <s_epik_cmdline>
J2VwaWtfcHl0aG9uJywgJy1waCcsICc3LjAnLCAnLXRuJywgJzgnLCAnLW1hJywgJzIwMCcsICctbWV0YWxfYmluZGluZycsICctaW1hZScsICc8aW5maWxlLm1hZT4nLCAnLW9tYWUnLCAnPG91dGZpbGUubWFlPic=

> <r_lp_tautomer_probability>
1

> <r_epik_Ionization_Penalty>
2.94119e-06

> <r_epik_Ionization_Penalty_Charging>
0

> <r_epik_Ionization_Penalty_Neutral>
2.94119e-06

> <r_epik_State_Penalty>
-0

> <r_epik_Charging_Adjusted_Penalty>
0

> <i_epik_Tot_Q>
0

> <i_epik_Tot_abs_Q>
0

> <r_epik_Metal_State_Penalty>
-0

> <b_epik_Metal_Only>
0

> <s_lp_Force_Field>
OPLS_2005

> <r_lp_Energy>
2.94202

> <b_lp_Chiralities_Consistent>
1

> <s_lp_Variant>
AV-unprocessed.smi:2716-1

> <Gold.Version>
5.8.1

> <Gold.Id.Protein>
6NUR|6NUR_protein|mol2

> <Gold.PLP.Fitness>
31.8305

> <Gold.PLP.PLP>
-18.5689

> <Gold.PLP.part.hbond>
-6.5200

> <Gold.PLP.part.metal>
0.0000

> <Gold.PLP.part.buried>
2.0344

> <Gold.PLP.part.nonpolar>
-13.0261

> <Gold.PLP.part.repulsive>
0.3925

> <Gold.PLP.ligand.clash>
0.0000

> <Gold.PLP.ligand.torsion>
0.0604

> <Gold.PLP.Chemscore.Hbond>
4.4604

> <Gold.PLP.Chemscore.CHOScore>
0.0000

> <Gold.PLP.Chemscore.Metal>
0.0000

> <Gold.Chemscore.Hbonds>
donor molecule, donor type, donor heavy atom, donor atom, acceptor molecule, acceptor atom, score
      L1  H     1    12       P1  7949  0.95
      L1  H     1    13       P1  7957  0.52
      L1  H     9    19       P1  8028  1.00
      P1  H  7989  7998       L1    11  1.00
      P1  H 10752 10764       L1     3  0.91

> <Gold.PLP.Chemscore.Internal.Correction>
0.0011

> <Gold.Rescore>
     Score         DG    S(hbond)    S(metal)    S(lipo)     H(rot)  DE(clash)    DE(int)     intcor
     11.76     -14.58       3.40        0.00      27.38       2.14       1.12       1.70       ----

> <Gold.Chemscore.Fitness>
11.7572

> <Gold.Chemscore.DG>
-14.5751

> <Gold.Chemscore.ZeroCoef>
-5.4800

> <Gold.Chemscore.Hbond>
3.4040

> <Gold.Chemscore.Metal>
0.0000

> <Gold.Chemscore.Lipo>
27.3810

> <Gold.Chemscore.Internal_Hbond>
0.0000

> <Gold.Chemscore.DEClash>
1.1203

> <Gold.Chemscore.DEInternal>
1.6976

> <Gold.Chemscore.Rot>
2.1398

> <Gold.Chemscore.Internal.Correction>
   9.000000E+99

> <Gold.Chemscore.Hbonds>
donor molecule, donor type, donor heavy atom, donor atom, acceptor molecule, acceptor atom, score
      L1  H     1    12       P1  7949  0.22
      L1  H     1    13       P1  7957  0.26
      L1  H     9    19       P1  8028  1.00
      P1  H  7989  7998       L1    11  0.20
      P1  H 10752 10764       L1     3  0.88

> <Gold.Chemscore.Hbond.Weighted>
-11.3693

> <Gold.Chemscore.Metal.Weighted>
-0.0000

> <Gold.Chemscore.Lipo.Weighted>
-3.2036

> <Gold.Chemscore.Internal_Hbond.Weighted>
0.0000

> <Gold.Chemscore.DEClash.Weighted>
1.1203

> <Gold.Chemscore.DEInternal.Weighted>
1.6976

> <Gold.Chemscore.Rot.Weighted>
5.4778

> <Gold.Chemscore.Internal.Correction.Weighted>
   9.000000E+99

> <Gold.Protein.RotatedTorsions>
[ 6907 6896 6895 6894 ] final  151.62 input  -60.11 | X-H torsion
[ 7974 7965 7964 7962 ] final  -18.26 input  175.53 | X-H torsion
[ 8008 7997 7996 7995 ] final -155.60 input   59.86 | X-H torsion
[ 10167 10162 10161 10158 ] final  -13.70 input  -65.29 | X-H torsion
[ 10718 10713 10712 10709 ] final -149.42 input   66.30 | X-H torsion
[ 10763 10752 10751 10750 ] final  -67.51 input  -60.55 | X-H torsion
[ 11005 11000 10999 10996 ] final   29.05 input  -57.11 | X-H torsion

> <Gold.Protein.ActiveResidues>
 VAL166  LYS551  ARG553  GLY616  TRP617  ASP618  TYR619  PRO620  LYS621  CYS622 
 ASP623  PHE694  ASN695  SER759  ASP760  ASP761  ALA762  ILE779  LEU786  VAL792 
 PHE793  MET794  SER795  GLU796  ALA797  LYS798  CYS799  TRP800  GLU811  SER814 

> <Gold.Protein.RotatedAtoms>
  152.0981  133.4235  159.4573 H   0  0  0  0  0  0  0  0  0  0  0  0  # atno 6907 bound_to 6896
  150.6863  134.2793  159.4630 H   0  0  0  0  0  0  0  0  0  0  0  0  # atno 6908 bound_to 6896
  152.0651  134.9569  160.0625 H   0  0  0  0  0  0  0  0  0  0  0  0  # atno 6909 bound_to 6896
  146.1901  140.3896  142.8461 H   0  0  0  0  0  0  0  0  0  0  0  0  # atno 7974 bound_to 7965
  155.7043  140.0770  157.2397 H   0  0  0  0  0  0  0  0  0  0  0  0  # atno 8008 bound_to 7997
  154.4068  140.1641  156.2278 H   0  0  0  0  0  0  0  0  0  0  0  0  # atno 8009 bound_to 7997
  155.9340  140.3389  155.6275 H   0  0  0  0  0  0  0  0  0  0  0  0  # atno 8010 bound_to 7997
  140.7187  143.5398  150.9422 H   0  0  0  0  0  0  0  0  0  0  0  0  # atno 10167 bound_to 10162
  156.4329  130.8084  151.2312 H   0  0  0  0  0  0  0  0  0  0  0  0  # atno 10718 bound_to 10713
  154.3755  135.6086  153.5762 H   0  0  0  0  0  0  0  0  0  0  0  0  # atno 10763 bound_to 10752
  152.9789  135.5848  154.4472 H   0  0  0  0  0  0  0  0  0  0  0  0  # atno 10764 bound_to 10752
  154.4233  135.2846  155.1939 H   0  0  0  0  0  0  0  0  0  0  0  0  # atno 10765 bound_to 10752
  140.3091  134.2670  155.7738 H   0  0  0  0  0  0  0  0  0  0  0  0  # atno 11005 bound_to 11000
  144.8470  140.6944  143.6192 LP  0  0  0  0  0  0  0  0  0  0  0  0  # atno 17320 bound_to 7965
  145.3819  139.1635  143.4276 LP  0  0  0  0  0  0  0  0  0  0  0  0  # atno 17321 bound_to 7965
  139.9121  143.6708  152.3113 LP  0  0  0  0  0  0  0  0  0  0  0  0  # atno 17342 bound_to 10162
  139.7095  144.7622  151.1137 LP  0  0  0  0  0  0  0  0  0  0  0  0  # atno 17343 bound_to 10162
  157.7508  131.0192  150.3659 LP  0  0  0  0  0  0  0  0  0  0  0  0  # atno 17370 bound_to 10713
  156.4000  130.3914  149.6966 LP  0  0  0  0  0  0  0  0  0  0  0  0  # atno 17371 bound_to 10713
  141.2112  133.7696  156.9880 LP  0  0  0  0  0  0  0  0  0  0  0  0  # atno 17394 bound_to 11000
  140.1041  134.9517  157.1967 LP  0  0  0  0  0  0  0  0  0  0  0  0  # atno 17395 bound_to 11000

$$$$
