AV-unprocessed.smi:3125|AV-procd|sdf|11907|dock2
  -GOLD-   2272017293D 1   1.00000     0.00000
 Structure written by MMmdl.
 29 30  0  0  0  0  0  0  0  0  3 V2000
  149.5762  140.0774  154.1791 C   0  0  0  0  0  0  0  0  0  0  0  0
  148.3057  140.7814  153.9940 N   0  0  0  0  0  0  0  0  0  0  0  0
  148.0699  142.1064  154.2584 C   0  0  0  0  0  0  0  0  0  0  0  0
  146.7568  142.3420  153.9483 C   0  0  0  0  0  0  0  0  0  0  0  0
  146.2457  141.1527  153.5061 N   0  3  0  0  0  0  0  0  0  0  0  0
  147.1855  140.1983  153.5306 C   0  0  0  0  0  0  0  0  0  0  0  0
  146.9832  138.7676  153.1117 C   0  0  1  0  0  0  0  0  0  0  0  0
  145.9472  138.0524  153.9996 C   0  0  0  0  0  0  0  0  0  0  0  0
  145.7560  136.5995  153.5373 C   0  0  0  0  0  0  0  0  0  0  0  0
  145.3889  136.5400  152.0452 C   0  0  0  0  0  0  0  0  0  0  0  0
  146.4049  137.2394  151.2288 N   0  3  0  0  0  0  0  0  0  0  0  0
  146.5914  138.6539  151.6232 C   0  0  0  0  0  0  0  0  0  0  0  0
  150.3236  140.7689  154.5699 H   0  0  0  0  0  0  0  0  0  0  0  0
  149.9155  139.6849  153.2202 H   0  0  0  0  0  0  0  0  0  0  0  0
  149.4370  139.2610  154.8887 H   0  0  0  0  0  0  0  0  0  0  0  0
  148.8346  142.7682  154.6398 H   0  0  0  0  0  0  0  0  0  0  0  0
  146.1635  143.2431  154.0082 H   0  0  0  0  0  0  0  0  0  0  0  0
  147.9403  138.2637  153.2444 H   0  0  0  0  0  0  0  0  0  0  0  0
  146.2671  138.0704  155.0424 H   0  0  0  0  0  0  0  0  0  0  0  0
  144.9904  138.5747  153.9578 H   0  0  0  0  0  0  0  0  0  0  0  0
  146.6735  136.0357  153.7114 H   0  0  0  0  0  0  0  0  0  0  0  0
  144.9797  136.1174  154.1325 H   0  0  0  0  0  0  0  0  0  0  0  0
  145.3172  135.5038  151.7137 H   0  0  0  0  0  0  0  0  0  0  0  0
  144.4133  136.9974  151.8751 H   0  0  0  0  0  0  0  0  0  0  0  0
  147.2858  136.7558  151.3317 H   0  0  0  0  0  0  0  0  0  0  0  0
  145.6684  139.2007  151.4243 H   0  0  0  0  0  0  0  0  0  0  0  0
  147.3647  139.0940  150.9926 H   0  0  0  0  0  0  0  0  0  0  0  0
  146.1263  137.2023  150.2582 H   0  0  0  0  0  0  0  0  0  0  0  0
  145.2891  141.0127  153.2056 H   0  0  0  0  0  0  0  0  0  0  0  0
  1  2  1  0  0  0  0
  1 13  1  0  0  0  0
  1 14  1  0  0  0  0
  1 15  1  0  0  0  0
  2  6  1  0  0  0  0
  2  3  1  0  0  0  0
  3  4  2  0  0  0  0
  3 16  1  0  0  0  0
  4  5  1  0  0  0  0
  4 17  1  0  0  0  0
  5  6  2  0  0  0  0
  5 29  1  0  0  0  0
  6  7  1  0  0  0  0
  7 12  1  0  0  0  0
  7  8  1  0  0  0  0
  7 18  1  0  0  0  0
  8  9  1  0  0  0  0
  8 19  1  0  0  0  0
  8 20  1  0  0  0  0
  9 10  1  0  0  0  0
  9 21  1  0  0  0  0
  9 22  1  0  0  0  0
 10 11  1  0  0  0  0
 10 23  1  0  0  0  0
 10 24  1  0  0  0  0
 11 12  1  0  0  0  0
 11 25  1  0  0  0  0
 11 28  1  0  0  0  0
 12 26  1  0  0  0  0
 12 27  1  0  0  0  0
M  CHG  1   5   1
M  CHG  1  11   1
M  END
> <s_m_source_file>
AV-unprocessed.smi

> <i_m_source_file_index>
3125

> <i_lp_mmshare_version>
43012

> <i_f3d_flags>
0

> <s_epik_input>
W0NIM11uMVtjSF1bY0hdbmMxW0NAQEhdMltDSDJdW0NIMl1bQ0gyXVtOSF1bQ0gyXTI=

> <s_epik_cmdline>
J2VwaWtfcHl0aG9uJywgJy1waCcsICc3LjAnLCAnLXRuJywgJzgnLCAnLW1hJywgJzIwMCcsICctbWV0YWxfYmluZGluZycsICctaW1hZScsICc8aW5maWxlLm1hZT4nLCAnLW9tYWUnLCAnPG91dGZpbGUubWFlPic=

> <r_lp_tautomer_probability>
1

> <r_epik_Ionization_Penalty>
0.803551

> <r_epik_Ionization_Penalty_Charging>
0.000747377

> <r_epik_Ionization_Penalty_Neutral>
0.802804

> <r_epik_State_Penalty>
0.360941

> <r_epik_Charging_Adjusted_Penalty>
0.361688

> <i_epik_Tot_Q>
2

> <i_epik_Tot_abs_Q>
2

> <r_epik_Metal_State_Penalty>
3.98724

> <b_epik_Metal_Only>
0

> <s_lp_Force_Field>
OPLS_2005

> <r_lp_Energy>
24.5109

> <b_lp_Chiralities_Consistent>
1

> <s_lp_Variant>
AV-unprocessed.smi:3125-2

> <Gold.Version>
5.8.1

> <Gold.Id.Protein>
6NUR|6NUR_protein|mol2

> <Gold.PLP.Fitness>
40.6179

> <Gold.PLP.PLP>
-25.6188

> <Gold.PLP.part.hbond>
-2.4827

> <Gold.PLP.part.metal>
0.0000

> <Gold.PLP.part.buried>
-1.3389

> <Gold.PLP.part.nonpolar>
-23.1271

> <Gold.PLP.part.repulsive>
0.3813

> <Gold.PLP.ligand.clash>
0.0000

> <Gold.PLP.ligand.torsion>
0.0114

> <Gold.PLP.Chemscore.Hbond>
4.0000

> <Gold.PLP.Chemscore.CHOScore>
1.0000

> <Gold.PLP.Chemscore.Metal>
0.0000

> <Gold.Chemscore.Hbonds>
donor molecule, donor type, donor heavy atom, donor atom, acceptor molecule, acceptor atom, score
      L1  H     5    29       P1 10175  2.00
      L1  H    11    25       P1  7948  2.00
      L1  C     3    16       P1  8028  1.00

> <Gold.PLP.Chemscore.Internal.Correction>
0.0218

> <Gold.Rescore>
     Score         DG    S(hbond)    S(metal)    S(lipo)     H(rot)  DE(clash)    DE(int)     intcor
     13.35     -14.23       1.77        0.00      46.08       1.00       0.76       0.12       ----

> <Gold.Chemscore.Fitness>
13.3514

> <Gold.Chemscore.DG>
-14.2321

> <Gold.Chemscore.ZeroCoef>
-5.4800

> <Gold.Chemscore.Hbond>
1.7728

> <Gold.Chemscore.Metal>
0.0000

> <Gold.Chemscore.Lipo>
46.0771

> <Gold.Chemscore.Internal_Hbond>
0.0000

> <Gold.Chemscore.DEClash>
0.7599

> <Gold.Chemscore.DEInternal>
0.1208

> <Gold.Chemscore.Rot>
1.0000

> <Gold.Chemscore.Internal.Correction>
   9.000000E+99

> <Gold.Chemscore.Hbonds>
donor molecule, donor type, donor heavy atom, donor atom, acceptor molecule, acceptor atom, score
      L1  H     5    29       P1 10175  0.40
      L1  H    11    25       P1  7948  1.00

> <Gold.Chemscore.Hbond.Weighted>
-5.9211

> <Gold.Chemscore.Metal.Weighted>
-0.0000

> <Gold.Chemscore.Lipo.Weighted>
-5.3910

> <Gold.Chemscore.Internal_Hbond.Weighted>
0.0000

> <Gold.Chemscore.DEClash.Weighted>
0.7599

> <Gold.Chemscore.DEInternal.Weighted>
0.1208

> <Gold.Chemscore.Rot.Weighted>
2.5600

> <Gold.Chemscore.Internal.Correction.Weighted>
   9.000000E+99

> <Gold.Protein.RotatedTorsions>
[ 6907 6896 6895 6894 ] final  -55.39 input  -60.11 | X-H torsion
[ 7974 7965 7964 7962 ] final   95.14 input  175.53 | X-H torsion
[ 8008 7997 7996 7995 ] final   32.88 input   59.86 | X-H torsion
[ 10167 10162 10161 10158 ] final -146.37 input  -65.29 | X-H torsion
[ 10718 10713 10712 10709 ] final   50.70 input   66.30 | X-H torsion
[ 10763 10752 10751 10750 ] final   42.29 input  -60.55 | X-H torsion
[ 11005 11000 10999 10996 ] final  109.20 input  -57.11 | X-H torsion

> <Gold.Protein.ActiveResidues>
 VAL166  LYS551  ARG553  GLY616  TRP617  ASP618  TYR619  PRO620  LYS621  CYS622 
 ASP623  PHE694  ASN695  SER759  ASP760  ASP761  ALA762  ILE779  LEU786  VAL792 
 PHE793  MET794  SER795  GLU796  ALA797  LYS798  CYS799  TRP800  GLU811  SER814 

> <Gold.Protein.RotatedAtoms>
  150.8256  134.7485  159.6809 H   0  0  0  0  0  0  0  0  0  0  0  0  # atno 6907 bound_to 6896
  152.4367  134.5669  159.9920 H   0  0  0  0  0  0  0  0  0  0  0  0  # atno 6908 bound_to 6896
  151.5842  133.3336  159.3050 H   0  0  0  0  0  0  0  0  0  0  0  0  # atno 6909 bound_to 6896
  145.4561  139.2290  143.3013 H   0  0  0  0  0  0  0  0  0  0  0  0  # atno 7974 bound_to 7965
  155.1295  140.3256  155.4477 H   0  0  0  0  0  0  0  0  0  0  0  0  # atno 8008 bound_to 7997
  156.2638  140.2013  156.6364 H   0  0  0  0  0  0  0  0  0  0  0  0  # atno 8009 bound_to 7997
  154.6623  140.0546  157.0062 H   0  0  0  0  0  0  0  0  0  0  0  0  # atno 8010 bound_to 7997
  139.7719  143.8225  152.2626 H   0  0  0  0  0  0  0  0  0  0  0  0  # atno 10167 bound_to 10162
  157.4910  130.8376  149.8203 H   0  0  0  0  0  0  0  0  0  0  0  0  # atno 10718 bound_to 10713
  152.9886  135.6136  154.2925 H   0  0  0  0  0  0  0  0  0  0  0  0  # atno 10763 bound_to 10752
  154.2650  135.2781  155.2764 H   0  0  0  0  0  0  0  0  0  0  0  0  # atno 10764 bound_to 10752
  154.5172  135.5824  153.6709 H   0  0  0  0  0  0  0  0  0  0  0  0  # atno 10765 bound_to 10752
  139.8858  134.9452  156.6090 H   0  0  0  0  0  0  0  0  0  0  0  0  # atno 11005 bound_to 11000
  146.2477  140.5326  142.8907 LP  0  0  0  0  0  0  0  0  0  0  0  0  # atno 17320 bound_to 7965
  144.8031  140.6250  143.6465 LP  0  0  0  0  0  0  0  0  0  0  0  0  # atno 17321 bound_to 7965
  139.8262  144.7274  150.9509 LP  0  0  0  0  0  0  0  0  0  0  0  0  # atno 17342 bound_to 10162
  140.7814  143.4112  151.0989 LP  0  0  0  0  0  0  0  0  0  0  0  0  # atno 17343 bound_to 10162
  156.0173  130.3808  150.2069 LP  0  0  0  0  0  0  0  0  0  0  0  0  # atno 17370 bound_to 10713
  157.0258  130.9993  151.3326 LP  0  0  0  0  0  0  0  0  0  0  0  0  # atno 17371 bound_to 10713
  140.7826  133.8647  155.8580 LP  0  0  0  0  0  0  0  0  0  0  0  0  # atno 17394 bound_to 11000
  140.9747  134.1485  157.4546 LP  0  0  0  0  0  0  0  0  0  0  0  0  # atno 17395 bound_to 11000

$$$$
