AV-unprocessed.smi:2377|AV-procd|sdf|9447|dock5
  -GOLD-   2272013 73D 1   1.00000     0.00000
 Structure written by MMmdl.
 23 23  0  0  0  0  0  0  0  0  1 V2000
  148.3919  141.2193  154.3091 C   0  0  0  0  0  0  0  0  0  0  0  0
  149.3831  142.2102  154.7087 N   0  0  0  0  0  0  0  0  0  0  0  0
  150.3925  141.6794  155.6211 C   0  0  0  0  0  0  0  0  0  0  0  0
  149.9647  141.8330  157.0917 C   0  0  2  0  0  0  0  0  0  0  0  0
  148.7646  142.5799  157.1386 O   0  0  0  0  0  0  0  0  0  0  0  0
  151.0608  142.4975  157.9091 C   0  0  0  0  0  0  0  0  0  0  0  0
  151.6487  141.8474  159.0162 C   0  0  0  0  0  0  0  0  0  0  0  0
  152.6524  142.5150  159.7440 C   0  0  0  0  0  0  0  0  0  0  0  0
  153.0277  143.8102  159.3357 C   0  0  0  0  0  0  0  0  0  0  0  0
  152.4717  144.4447  158.2814 N   0  0  0  0  0  0  0  0  0  0  0  0
  151.5098  143.7974  157.5891 C   0  0  0  0  0  0  0  0  0  0  0  0
  147.6692  141.6550  153.6192 H   0  0  0  0  0  0  0  0  0  0  0  0
  147.8441  140.8417  155.1730 H   0  0  0  0  0  0  0  0  0  0  0  0
  148.8630  140.3727  153.8086 H   0  0  0  0  0  0  0  0  0  0  0  0
  148.9188  143.0015  155.1427 H   0  0  0  0  0  0  0  0  0  0  0  0
  150.5337  140.6188  155.4078 H   0  0  0  0  0  0  0  0  0  0  0  0
  151.3573  142.1600  155.4518 H   0  0  0  0  0  0  0  0  0  0  0  0
  149.7625  140.8492  157.5182 H   0  0  0  0  0  0  0  0  0  0  0  0
  148.7459  143.1651  156.3968 H   0  0  0  0  0  0  0  0  0  0  0  0
  151.3353  140.8551  159.3061 H   0  0  0  0  0  0  0  0  0  0  0  0
  153.1227  142.0462  160.5959 H   0  0  0  0  0  0  0  0  0  0  0  0
  153.7934  144.3514  159.8714 H   0  0  0  0  0  0  0  0  0  0  0  0
  151.0856  144.3362  156.7545 H   0  0  0  0  0  0  0  0  0  0  0  0
  1  2  1  0  0  0  0
  1 12  1  0  0  0  0
  1 13  1  0  0  0  0
  1 14  1  0  0  0  0
  2  3  1  0  0  0  0
  2 15  1  0  0  0  0
  3  4  1  0  0  0  0
  3 16  1  0  0  0  0
  3 17  1  0  0  0  0
  4  5  1  0  0  0  0
  4  6  1  0  0  0  0
  4 18  1  0  0  0  0
  5 19  1  0  0  0  0
  6 11  1  0  0  0  0
  6  7  2  0  0  0  0
  7  8  1  0  0  0  0
  7 20  1  0  0  0  0
  8  9  2  0  0  0  0
  8 21  1  0  0  0  0
  9 10  1  0  0  0  0
  9 22  1  0  0  0  0
 10 11  2  0  0  0  0
 11 23  1  0  0  0  0
M  END
> <s_m_source_file>
AV-unprocessed.smi

> <i_m_source_file_index>
2377

> <i_lp_mmshare_version>
43012

> <i_f3d_flags>
0

> <s_epik_input>
W0NIM11bTkhdW0NIMl1bQ0BIXShbT0hdKWMxW2NIXVtjSF1bY0hdbltjSF0x

> <s_epik_cmdline>
J2VwaWtfcHl0aG9uJywgJy1waCcsICc3LjAnLCAnLXRuJywgJzgnLCAnLW1hJywgJzIwMCcsICctbWV0YWxfYmluZGluZycsICctaW1hZScsICc8aW5maWxlLm1hZT4nLCAnLW9tYWUnLCAnPG91dGZpbGUubWFlPic=

> <r_epik_Ionization_Penalty>
2.4626

> <r_epik_Ionization_Penalty_Charging>
0

> <r_epik_Ionization_Penalty_Neutral>
2.4626

> <r_epik_State_Penalty>
2.6219

> <r_epik_Charging_Adjusted_Penalty>
2.6219

> <i_epik_Tot_Q>
0

> <i_epik_Tot_abs_Q>
0

> <r_epik_Metal_State_Penalty>
2.61964

> <b_epik_Metal_Only>
0

> <s_lp_Force_Field>
OPLS_2005

> <r_lp_Energy>
11.5551

> <b_lp_Chiralities_Consistent>
1

> <s_lp_Variant>
AV-unprocessed.smi:2377-3

> <Gold.Version>
5.8.1

> <Gold.Id.Protein>
6NUR|6NUR_protein|mol2

> <Gold.PLP.Fitness>
34.2201

> <Gold.PLP.PLP>
-27.0147

> <Gold.PLP.part.hbond>
-3.1514

> <Gold.PLP.part.metal>
0.0000

> <Gold.PLP.part.buried>
-2.0417

> <Gold.PLP.part.nonpolar>
-19.8062

> <Gold.PLP.part.repulsive>
0.0276

> <Gold.PLP.ligand.clash>
0.0000

> <Gold.PLP.ligand.torsion>
0.9069

> <Gold.PLP.Chemscore.Hbond>
2.0051

> <Gold.PLP.Chemscore.CHOScore>
1.0000

> <Gold.PLP.Chemscore.Metal>
0.0000

> <Gold.Chemscore.Hbonds>
donor molecule, donor type, donor heavy atom, donor atom, acceptor molecule, acceptor atom, score
      L1  H     2    15       P1  8028  1.00
      L1  H     5    19       P1  8028  1.00
      L1  C    11    23       P1  8028  1.00

> <Gold.PLP.Chemscore.Internal.Correction>
0.0039

> <Gold.Rescore>
     Score         DG    S(hbond)    S(metal)    S(lipo)     H(rot)  DE(clash)    DE(int)     intcor
     14.64     -15.64       1.90        0.00      75.06       1.94       0.10       0.90       ----

> <Gold.Chemscore.Fitness>
14.6381

> <Gold.Chemscore.DG>
-15.6387

> <Gold.Chemscore.ZeroCoef>
-5.4800

> <Gold.Chemscore.Hbond>
1.8962

> <Gold.Chemscore.Metal>
0.0000

> <Gold.Chemscore.Lipo>
75.0616

> <Gold.Chemscore.Internal_Hbond>
0.0000

> <Gold.Chemscore.DEClash>
0.0956

> <Gold.Chemscore.DEInternal>
0.9049

> <Gold.Chemscore.Rot>
1.9363

> <Gold.Chemscore.Internal.Correction>
   9.000000E+99

> <Gold.Chemscore.Hbonds>
donor molecule, donor type, donor heavy atom, donor atom, acceptor molecule, acceptor atom, score
      L1  H     2    15       P1  8028  0.96
      L1  H     5    19       P1  8028  0.91

> <Gold.Chemscore.Hbond.Weighted>
-6.3335

> <Gold.Chemscore.Metal.Weighted>
-0.0000

> <Gold.Chemscore.Lipo.Weighted>
-8.7822

> <Gold.Chemscore.Internal_Hbond.Weighted>
0.0000

> <Gold.Chemscore.DEClash.Weighted>
0.0956

> <Gold.Chemscore.DEInternal.Weighted>
0.9049

> <Gold.Chemscore.Rot.Weighted>
4.9570

> <Gold.Chemscore.Internal.Correction.Weighted>
   9.000000E+99

> <Gold.Protein.RotatedTorsions>
[ 6907 6896 6895 6894 ] final  -69.58 input  -60.11 | X-H torsion
[ 7974 7965 7964 7962 ] final   85.41 input  175.53 | X-H torsion
[ 8008 7997 7996 7995 ] final -104.88 input   59.86 | X-H torsion
[ 10167 10162 10161 10158 ] final   56.86 input  -65.29 | X-H torsion
[ 10718 10713 10712 10709 ] final  144.73 input   66.30 | X-H torsion
[ 10763 10752 10751 10750 ] final -123.73 input  -60.55 | X-H torsion
[ 11005 11000 10999 10996 ] final -134.32 input  -57.11 | X-H torsion

> <Gold.Protein.ActiveResidues>
 VAL166  LYS551  ARG553  GLY616  TRP617  ASP618  TYR619  PRO620  LYS621  CYS622 
 ASP623  PHE694  ASN695  SER759  ASP760  ASP761  ALA762  ILE779  LEU786  VAL792 
 PHE793  MET794  SER795  GLU796  ALA797  LYS798  CYS799  TRP800  GLU811  SER814 

> <Gold.Protein.RotatedAtoms>
  150.7298  134.5576  159.5825 H   0  0  0  0  0  0  0  0  0  0  0  0  # atno 6907 bound_to 6896
  152.3047  134.7566  160.0359 H   0  0  0  0  0  0  0  0  0  0  0  0  # atno 6908 bound_to 6896
  151.8134  133.3349  159.3599 H   0  0  0  0  0  0  0  0  0  0  0  0  # atno 6909 bound_to 6896
  145.5858  139.2331  143.2327 H   0  0  0  0  0  0  0  0  0  0  0  0  # atno 7974 bound_to 7965
  154.8917  140.0415  157.1842 H   0  0  0  0  0  0  0  0  0  0  0  0  # atno 8008 bound_to 7997
  154.8533  140.2932  155.5563 H   0  0  0  0  0  0  0  0  0  0  0  0  # atno 8009 bound_to 7997
  156.2996  140.2460  156.3496 H   0  0  0  0  0  0  0  0  0  0  0  0  # atno 8010 bound_to 7997
  140.2042  144.3956  150.6516 H   0  0  0  0  0  0  0  0  0  0  0  0  # atno 10167 bound_to 10162
  157.3537  131.0954  151.0977 H   0  0  0  0  0  0  0  0  0  0  0  0  # atno 10718 bound_to 10713
  154.8712  135.4088  154.2990 H   0  0  0  0  0  0  0  0  0  0  0  0  # atno 10763 bound_to 10752
  153.3853  135.7013  153.6540 H   0  0  0  0  0  0  0  0  0  0  0  0  # atno 10764 bound_to 10752
  153.5346  135.3660  155.2662 H   0  0  0  0  0  0  0  0  0  0  0  0  # atno 10765 bound_to 10752
  140.9000  134.1702  157.4467 H   0  0  0  0  0  0  0  0  0  0  0  0  # atno 11005 bound_to 11000
  146.1683  140.6685  142.9245 LP  0  0  0  0  0  0  0  0  0  0  0  0  # atno 17320 bound_to 7965
  144.7373  140.4845  143.6894 LP  0  0  0  0  0  0  0  0  0  0  0  0  # atno 17321 bound_to 7965
  140.6369  143.2196  151.6375 LP  0  0  0  0  0  0  0  0  0  0  0  0  # atno 17342 bound_to 10162
  139.5205  144.3221  152.0901 LP  0  0  0  0  0  0  0  0  0  0  0  0  # atno 17343 bound_to 10162
  157.2143  130.6452  149.5786 LP  0  0  0  0  0  0  0  0  0  0  0  0  # atno 17370 bound_to 10713
  155.9726  130.4650  150.6237 LP  0  0  0  0  0  0  0  0  0  0  0  0  # atno 17371 bound_to 10713
  139.8741  134.9894  156.5456 LP  0  0  0  0  0  0  0  0  0  0  0  0  # atno 17394 bound_to 11000
  140.8241  133.8330  155.8923 LP  0  0  0  0  0  0  0  0  0  0  0  0  # atno 17395 bound_to 11000

$$$$
