AV-unprocessed.smi:1365|AV-procd|sdf|5568|dock7
  -GOLD-   22720 5163D 1   1.00000     0.00000
 Structure written by MMmdl.
 42 43  0  0  0  0  0  0  0  0  2 V2000
  150.5263  142.1623  157.4301 C   0  0  0  0  0  0  0  0  0  0  0  0
  150.4415  141.2158  156.2817 C   0  0  0  0  0  0  0  0  0  0  0  0
  149.3887  140.6641  155.6070 C   0  0  0  0  0  0  0  0  0  0  0  0
  150.0246  139.8458  154.6359 C   0  0  0  0  0  0  0  0  0  0  0  0
  149.2626  139.0779  153.7183 N   0  0  0  0  0  0  0  0  0  0  0  0
  147.9304  139.0989  153.5424 C   0  0  0  0  0  0  0  0  0  0  0  0
  147.1403  139.7943  154.1819 O   0  0  0  0  0  0  0  0  0  0  0  0
  147.5523  138.2619  152.5650 N   0  0  0  0  0  0  0  0  0  0  0  0
  146.1818  138.0960  152.0942 C   0  0  0  0  0  0  0  0  0  0  0  0
  145.7864  136.6139  151.9859 C   0  0  0  0  0  0  0  0  0  0  0  0
  145.5805  136.1749  150.5262 C   0  0  0  0  0  0  0  0  0  0  0  0
  145.3574  134.7124  150.4015 N   0  3  0  0  0  0  0  0  0  0  0  0
  146.4474  133.9203  151.0303 C   0  0  0  0  0  0  0  0  0  0  0  0
  146.2641  132.4149  150.7720 C   0  0  0  0  0  0  0  0  0  0  0  0
  144.8923  131.9363  151.2638 C   0  0  0  0  0  0  0  0  0  0  0  0
  143.7848  132.7856  150.6273 C   0  0  0  0  0  0  0  0  0  0  0  0
  144.0187  134.2830  150.8889 C   0  0  0  0  0  0  0  0  0  0  0  0
  151.3459  139.8977  154.7069 N   0  0  0  0  0  0  0  0  0  0  0  0
  151.6198  140.7754  155.7627 O   0  0  0  0  0  0  0  0  0  0  0  0
  149.5959  142.7187  157.5451 H   0  0  0  0  0  0  0  0  0  0  0  0
  151.3326  142.8811  157.2829 H   0  0  0  0  0  0  0  0  0  0  0  0
  150.7167  141.6246  158.3592 H   0  0  0  0  0  0  0  0  0  0  0  0
  148.3350  140.8188  155.7865 H   0  0  0  0  0  0  0  0  0  0  0  0
  149.7915  138.4635  153.1170 H   0  0  0  0  0  0  0  0  0  0  0  0
  148.2658  137.7244  152.0944 H   0  0  0  0  0  0  0  0  0  0  0  0
  145.4975  138.6283  152.7572 H   0  0  0  0  0  0  0  0  0  0  0  0
  146.1001  138.5738  151.1176 H   0  0  0  0  0  0  0  0  0  0  0  0
  146.5561  136.0079  152.4636 H   0  0  0  0  0  0  0  0  0  0  0  0
  144.8647  136.4378  152.5423 H   0  0  0  0  0  0  0  0  0  0  0  0
  144.7083  136.7042  150.1398 H   0  0  0  0  0  0  0  0  0  0  0  0
  146.4235  136.4788  149.9037 H   0  0  0  0  0  0  0  0  0  0  0  0
  147.4114  134.2345  150.6279 H   0  0  0  0  0  0  0  0  0  0  0  0
  146.4711  134.1184  152.1033 H   0  0  0  0  0  0  0  0  0  0  0  0
  146.3632  132.2113  149.7049 H   0  0  0  0  0  0  0  0  0  0  0  0
  147.0549  131.8516  151.2686 H   0  0  0  0  0  0  0  0  0  0  0  0
  144.7492  130.8833  151.0194 H   0  0  0  0  0  0  0  0  0  0  0  0
  144.8409  132.0156  152.3505 H   0  0  0  0  0  0  0  0  0  0  0  0
  143.7530  132.6022  149.5525 H   0  0  0  0  0  0  0  0  0  0  0  0
  142.8130  132.4859  151.0213 H   0  0  0  0  0  0  0  0  0  0  0  0
  143.9351  134.4923  151.9568 H   0  0  0  0  0  0  0  0  0  0  0  0
  143.2338  134.8540  150.3944 H   0  0  0  0  0  0  0  0  0  0  0  0
  145.3944  134.5021  149.4141 H   0  0  0  0  0  0  0  0  0  0  0  0
  1  2  1  0  0  0  0
  1 20  1  0  0  0  0
  1 21  1  0  0  0  0
  1 22  1  0  0  0  0
  2 19  1  0  0  0  0
  2  3  2  0  0  0  0
  3  4  1  0  0  0  0
  3 23  1  0  0  0  0
  4  5  1  0  0  0  0
  4 18  2  0  0  0  0
  5  6  1  0  0  0  0
  5 24  1  0  0  0  0
  6  7  2  0  0  0  0
  6  8  1  0  0  0  0
  8  9  1  0  0  0  0
  8 25  1  0  0  0  0
  9 10  1  0  0  0  0
  9 26  1  0  0  0  0
  9 27  1  0  0  0  0
 10 11  1  0  0  0  0
 10 28  1  0  0  0  0
 10 29  1  0  0  0  0
 11 12  1  0  0  0  0
 11 30  1  0  0  0  0
 11 31  1  0  0  0  0
 12 17  1  0  0  0  0
 12 13  1  0  0  0  0
 12 42  1  0  0  0  0
 13 14  1  0  0  0  0
 13 32  1  0  0  0  0
 13 33  1  0  0  0  0
 14 15  1  0  0  0  0
 14 34  1  0  0  0  0
 14 35  1  0  0  0  0
 15 16  1  0  0  0  0
 15 36  1  0  0  0  0
 15 37  1  0  0  0  0
 16 17  1  0  0  0  0
 16 38  1  0  0  0  0
 16 39  1  0  0  0  0
 17 40  1  0  0  0  0
 17 41  1  0  0  0  0
 18 19  1  0  0  0  0
M  CHG  1  12   1
M  END
> <s_m_source_file>
AV-unprocessed.smi

> <i_m_source_file_index>
1365

> <i_lp_mmshare_version>
43012

> <i_f3d_flags>
0

> <s_epik_input>
W0NIM11jMVtjSF1jKG5vMSlbTkhdQyg9TylbTkhdW0NIMl1bQ0gyXVtDSDJdTjJbQ0gyXVtDSDJdW0NIMl1bQ0gyXVtDSDJdMg==

> <s_epik_cmdline>
J2VwaWtfcHl0aG9uJywgJy1waCcsICc3LjAnLCAnLXRuJywgJzgnLCAnLW1hJywgJzIwMCcsICctbWV0YWxfYmluZGluZycsICctaW1hZScsICc8aW5maWxlLm1hZT4nLCAnLW9tYWUnLCAnPG91dGZpbGUubWFlPic=

> <r_epik_Ionization_Penalty>
0.000389345

> <r_epik_Ionization_Penalty_Charging>
0.000358942

> <r_epik_Ionization_Penalty_Neutral>
3.04028e-05

> <r_epik_State_Penalty>
0.000218395

> <r_epik_Charging_Adjusted_Penalty>
0.000577337

> <i_epik_Tot_Q>
1

> <i_epik_Tot_abs_Q>
1

> <r_epik_Metal_State_Penalty>
0.0112716

> <b_epik_Metal_Only>
0

> <s_lp_Force_Field>
OPLS_2005

> <r_lp_Energy>
13.5089

> <b_lp_Chiralities_Consistent>
1

> <s_lp_Variant>
AV-unprocessed.smi:1365-1

> <Gold.Version>
5.8.1

> <Gold.Id.Protein>
6NUR|6NUR_protein|mol2

> <Gold.PLP.Fitness>
43.4422

> <Gold.PLP.PLP>
-35.5741

> <Gold.PLP.part.hbond>
-6.0000

> <Gold.PLP.part.metal>
0.0000

> <Gold.PLP.part.buried>
0.3928

> <Gold.PLP.part.nonpolar>
-29.5323

> <Gold.PLP.part.repulsive>
0.4381

> <Gold.PLP.ligand.clash>
0.0000

> <Gold.PLP.ligand.torsion>
0.4933

> <Gold.PLP.Chemscore.Hbond>
2.9420

> <Gold.PLP.Chemscore.CHOScore>
0.0000

> <Gold.PLP.Chemscore.Metal>
0.0000

> <Gold.Chemscore.Hbonds>
donor molecule, donor type, donor heavy atom, donor atom, acceptor molecule, acceptor atom, score
      L1  H     8    25       P1  7948  0.98
      L1  H    12    42       P1  7921  1.00
      P1  H  7989  7998       L1    18  0.95

> <Gold.PLP.Chemscore.Internal.Correction>
0.0288

> <Gold.Rescore>
     Score         DG    S(hbond)    S(metal)    S(lipo)     H(rot)  DE(clash)    DE(int)     intcor
     15.84     -18.45       2.59        0.00      76.81       1.82       0.62       1.99       ----

> <Gold.Chemscore.Fitness>
15.8382

> <Gold.Chemscore.DG>
-18.4458

> <Gold.Chemscore.ZeroCoef>
-5.4800

> <Gold.Chemscore.Hbond>
2.5862

> <Gold.Chemscore.Metal>
0.0000

> <Gold.Chemscore.Lipo>
76.8123

> <Gold.Chemscore.Internal_Hbond>
0.0000

> <Gold.Chemscore.DEClash>
0.6169

> <Gold.Chemscore.DEInternal>
1.9906

> <Gold.Chemscore.Rot>
1.8201

> <Gold.Chemscore.Internal.Correction>
   9.000000E+99

> <Gold.Chemscore.Hbonds>
donor molecule, donor type, donor heavy atom, donor atom, acceptor molecule, acceptor atom, score
      L1  H     8    25       P1  7948  0.93
      L1  H    12    42       P1  7921  0.91
      P1  H  7989  7998       L1    18  0.05

> <Gold.Chemscore.Hbond.Weighted>
-8.6381

> <Gold.Chemscore.Metal.Weighted>
-0.0000

> <Gold.Chemscore.Lipo.Weighted>
-8.9870

> <Gold.Chemscore.Internal_Hbond.Weighted>
0.0000

> <Gold.Chemscore.DEClash.Weighted>
0.6169

> <Gold.Chemscore.DEInternal.Weighted>
1.9906

> <Gold.Chemscore.Rot.Weighted>
4.6593

> <Gold.Chemscore.Internal.Correction.Weighted>
   9.000000E+99

> <Gold.Protein.RotatedTorsions>
[ 6907 6896 6895 6894 ] final  -84.48 input  -60.11 | X-H torsion
[ 7974 7965 7964 7962 ] final  -64.45 input  175.53 | X-H torsion
[ 8008 7997 7996 7995 ] final -145.10 input   59.86 | X-H torsion
[ 10167 10162 10161 10158 ] final   59.74 input  -65.29 | X-H torsion
[ 10718 10713 10712 10709 ] final   57.50 input   66.30 | X-H torsion
[ 10763 10752 10751 10750 ] final  -62.57 input  -60.55 | X-H torsion
[ 11005 11000 10999 10996 ] final  -21.53 input  -57.11 | X-H torsion

> <Gold.Protein.ActiveResidues>
 VAL166  LYS551  ARG553  GLY616  TRP617  ASP618  TYR619  PRO620  LYS621  CYS622 
 ASP623  PHE694  ASN695  SER759  ASP760  ASP761  ALA762  ILE779  LEU786  VAL792 
 PHE793  MET794  SER795  GLU796  ALA797  LYS798  CYS799  TRP800  GLU811  SER814 

> <Gold.Protein.RotatedAtoms>
  150.6876  134.3351  159.4843 H   0  0  0  0  0  0  0  0  0  0  0  0  # atno 6907 bound_to 6896
  152.1211  134.9202  160.0572 H   0  0  0  0  0  0  0  0  0  0  0  0  # atno 6908 bound_to 6896
  152.0408  133.3942  159.4373 H   0  0  0  0  0  0  0  0  0  0  0  0  # atno 6909 bound_to 6896
  145.7665  140.8835  143.0402 H   0  0  0  0  0  0  0  0  0  0  0  0  # atno 7974 bound_to 7965
  155.5378  140.0605  157.2876 H   0  0  0  0  0  0  0  0  0  0  0  0  # atno 8008 bound_to 7997
  154.4462  140.1924  156.0604 H   0  0  0  0  0  0  0  0  0  0  0  0  # atno 8009 bound_to 7997
  156.0607  140.3273  155.7462 H   0  0  0  0  0  0  0  0  0  0  0  0  # atno 8010 bound_to 7997
  140.1731  144.4256  150.6651 H   0  0  0  0  0  0  0  0  0  0  0  0  # atno 10167 bound_to 10162
  157.5519  130.8772  149.8977 H   0  0  0  0  0  0  0  0  0  0  0  0  # atno 10718 bound_to 10713
  154.3019  135.6233  153.5428 H   0  0  0  0  0  0  0  0  0  0  0  0  # atno 10763 bound_to 10752
  152.9839  135.5680  154.5274 H   0  0  0  0  0  0  0  0  0  0  0  0  # atno 10764 bound_to 10752
  154.4907  135.2867  155.1475 H   0  0  0  0  0  0  0  0  0  0  0  0  # atno 10765 bound_to 10752
  140.8570  133.7815  156.0030 H   0  0  0  0  0  0  0  0  0  0  0  0  # atno 11005 bound_to 11000
  144.6820  139.9796  143.7483 LP  0  0  0  0  0  0  0  0  0  0  0  0  # atno 17320 bound_to 7965
  146.0212  139.3253  143.0811 LP  0  0  0  0  0  0  0  0  0  0  0  0  # atno 17321 bound_to 7965
  140.6569  143.2240  151.5948 LP  0  0  0  0  0  0  0  0  0  0  0  0  # atno 17342 bound_to 10162
  139.5329  144.2864  152.1187 LP  0  0  0  0  0  0  0  0  0  0  0  0  # atno 17343 bound_to 10162
  156.0584  130.3704  150.1037 LP  0  0  0  0  0  0  0  0  0  0  0  0  # atno 17370 bound_to 10713
  156.9209  130.9682  151.3548 LP  0  0  0  0  0  0  0  0  0  0  0  0  # atno 17371 bound_to 10713
  140.8726  134.2708  157.5183 LP  0  0  0  0  0  0  0  0  0  0  0  0  # atno 17394 bound_to 11000
  139.8705  134.9575  156.4270 LP  0  0  0  0  0  0  0  0  0  0  0  0  # atno 17395 bound_to 11000

$$$$
