AV-unprocessed.smi:1885|AV-procd|sdf|7653|dock3
  -GOLD-   22720 9383D 1   1.00000     0.00000
 Structure written by MMmdl.
 44 46  0  0  0  0  0  0  0  0  2 V2000
  147.2854  133.2801  161.7640 C   0  0  0  0  0  0  0  0  0  0  0  0
  147.5655  133.1894  160.3746 O   0  0  0  0  0  0  0  0  0  0  0  0
  148.0181  134.3200  159.7287 C   0  0  0  0  0  0  0  0  0  0  0  0
  148.2455  135.5651  160.3673 C   0  0  0  0  0  0  0  0  0  0  0  0
  148.7104  136.6710  159.6293 C   0  0  0  0  0  0  0  0  0  0  0  0
  148.9495  136.5563  158.2451 C   0  0  0  0  0  0  0  0  0  0  0  0
  149.4728  137.7500  157.4676 C   0  0  0  0  0  0  0  0  0  0  0  0
  149.6588  137.4618  156.0904 O   0  0  0  0  0  0  0  0  0  0  0  0
  150.2184  138.5490  155.3724 C   0  0  0  0  0  0  0  0  0  0  0  0
  151.7024  138.6969  155.7553 C   0  0  1  0  0  0  0  0  0  0  0  0
  152.3573  139.4276  154.7393 O   0  0  0  0  0  0  0  0  0  0  0  0
  151.9358  139.4535  157.0784 C   0  0  0  0  0  0  0  0  0  0  0  0
  151.3868  140.8173  157.0653 N   0  0  0  0  0  0  0  0  0  0  0  0
  150.6167  141.4269  156.1231 C   0  0  0  0  0  0  0  0  0  0  0  0
  150.3514  142.6885  156.5609 N   0  3  0  0  0  0  0  0  0  0  0  0
  150.9600  142.8895  157.8016 C   0  0  0  0  0  0  0  0  0  0  0  0
  150.9777  144.0020  158.6367 C   0  0  0  0  0  0  0  0  0  0  0  0
  151.7004  143.8806  159.8416 C   0  0  0  0  0  0  0  0  0  0  0  0
  151.7519  144.9343  160.6904 F   0  0  0  0  0  0  0  0  0  0  0  0
  152.3709  142.6855  160.1773 C   0  0  0  0  0  0  0  0  0  0  0  0
  153.0566  142.6119  161.3426 F   0  0  0  0  0  0  0  0  0  0  0  0
  152.3445  141.5635  159.3230 C   0  0  0  0  0  0  0  0  0  0  0  0
  151.6268  141.6909  158.1338 C   0  0  0  0  0  0  0  0  0  0  0  0
  148.7332  135.3177  157.6069 C   0  0  0  0  0  0  0  0  0  0  0  0
  148.2682  134.2125  158.3453 C   0  0  0  0  0  0  0  0  0  0  0  0
  146.9366  132.3126  162.1246 H   0  0  0  0  0  0  0  0  0  0  0  0
  146.4995  134.0095  161.9660 H   0  0  0  0  0  0  0  0  0  0  0  0
  148.1773  133.5421  162.3346 H   0  0  0  0  0  0  0  0  0  0  0  0
  148.0727  135.6973  161.4245 H   0  0  0  0  0  0  0  0  0  0  0  0
  148.8831  137.6110  160.1326 H   0  0  0  0  0  0  0  0  0  0  0  0
  148.7730  138.5806  157.5743 H   0  0  0  0  0  0  0  0  0  0  0  0
  150.4184  138.0602  157.9147 H   0  0  0  0  0  0  0  0  0  0  0  0
  150.1011  138.4195  154.2950 H   0  0  0  0  0  0  0  0  0  0  0  0
  149.6653  139.4458  155.6512 H   0  0  0  0  0  0  0  0  0  0  0  0
  152.1639  137.7109  155.8256 H   0  0  0  0  0  0  0  0  0  0  0  0
  153.1584  138.9806  154.5124 H   0  0  0  0  0  0  0  0  0  0  0  0
  151.4419  138.9270  157.8963 H   0  0  0  0  0  0  0  0  0  0  0  0
  152.9946  139.4850  157.3351 H   0  0  0  0  0  0  0  0  0  0  0  0
  150.2773  140.9883  155.1955 H   0  0  0  0  0  0  0  0  0  0  0  0
  150.4675  144.9194  158.3829 H   0  0  0  0  0  0  0  0  0  0  0  0
  152.8673  140.6582  159.5924 H   0  0  0  0  0  0  0  0  0  0  0  0
  148.9224  135.2073  156.5493 H   0  0  0  0  0  0  0  0  0  0  0  0
  148.1038  133.2700  157.8438 H   0  0  0  0  0  0  0  0  0  0  0  0
  149.7951  143.3606  156.0478 H   0  0  0  0  0  0  0  0  0  0  0  0
  1  2  1  0  0  0  0
  1 26  1  0  0  0  0
  1 27  1  0  0  0  0
  1 28  1  0  0  0  0
  2  3  1  0  0  0  0
  3 25  1  0  0  0  0
  3  4  2  0  0  0  0
  4  5  1  0  0  0  0
  4 29  1  0  0  0  0
  5  6  2  0  0  0  0
  5 30  1  0  0  0  0
  6  7  1  0  0  0  0
  6 24  1  0  0  0  0
  7  8  1  0  0  0  0
  7 31  1  0  0  0  0
  7 32  1  0  0  0  0
  8  9  1  0  0  0  0
  9 10  1  0  0  0  0
  9 33  1  0  0  0  0
  9 34  1  0  0  0  0
 10 11  1  0  0  0  0
 10 12  1  0  0  0  0
 10 35  1  0  0  0  0
 11 36  1  0  0  0  0
 12 13  1  0  0  0  0
 12 37  1  0  0  0  0
 12 38  1  0  0  0  0
 13 23  1  0  0  0  0
 13 14  1  0  0  0  0
 14 15  2  0  0  0  0
 14 39  1  0  0  0  0
 15 16  1  0  0  0  0
 15 44  1  0  0  0  0
 16 23  2  0  0  0  0
 16 17  1  0  0  0  0
 17 18  2  0  0  0  0
 17 40  1  0  0  0  0
 18 19  1  0  0  0  0
 18 20  1  0  0  0  0
 20 21  1  0  0  0  0
 20 22  2  0  0  0  0
 22 23  1  0  0  0  0
 22 41  1  0  0  0  0
 24 25  2  0  0  0  0
 24 42  1  0  0  0  0
 25 43  1  0  0  0  0
M  CHG  1  15   1
M  END
> <s_m_source_file>
AV-unprocessed.smi

> <i_m_source_file_index>
1885

> <i_lp_mmshare_version>
43012

> <i_f3d_flags>
0

> <s_epik_input>
W0NIM11PYzFbY0hdW2NIXWMoW2NIXVtjSF0xKVtDSDJdT1tDSDJdW0NASF0oW09IXSlbQ0gyXW4oW2NIXW4yKWMoYzIzKVtjSF1jKEYpYyhGKVtjSF0z

> <s_epik_cmdline>
J2VwaWtfcHl0aG9uJywgJy1waCcsICc3LjAnLCAnLXRuJywgJzgnLCAnLW1hJywgJzIwMCcsICctbWV0YWxfYmluZGluZycsICctaW1hZScsICc8aW5maWxlLm1hZT4nLCAnLW9tYWUnLCAnPG91dGZpbGUubWFlPic=

> <r_lp_tautomer_probability>
1

> <r_epik_Ionization_Penalty>
2.14697

> <r_epik_Ionization_Penalty_Charging>
2.14697

> <r_epik_Ionization_Penalty_Neutral>
9.74819e-07

> <r_epik_State_Penalty>
2.28651

> <r_epik_Charging_Adjusted_Penalty>
4.43348

> <i_epik_Tot_Q>
1

> <i_epik_Tot_abs_Q>
1

> <r_epik_Metal_State_Penalty>
6.36664

> <b_epik_Metal_Only>
0

> <s_lp_Force_Field>
OPLS_2005

> <r_lp_Energy>
25.0693

> <b_lp_Chiralities_Consistent>
1

> <s_lp_Variant>
AV-unprocessed.smi:1885-4

> <Gold.Version>
5.8.1

> <Gold.Id.Protein>
6NUR|6NUR_protein|mol2

> <Gold.PLP.Fitness>
57.2855

> <Gold.PLP.PLP>
-49.7365

> <Gold.PLP.part.hbond>
-2.0000

> <Gold.PLP.part.metal>
0.0000

> <Gold.PLP.part.buried>
-7.2174

> <Gold.PLP.part.nonpolar>
-41.3798

> <Gold.PLP.part.repulsive>
0.1165

> <Gold.PLP.ligand.clash>
0.3232

> <Gold.PLP.ligand.torsion>
0.2914

> <Gold.PLP.Chemscore.Hbond>
2.7296

> <Gold.PLP.Chemscore.CHOScore>
0.0000

> <Gold.PLP.Chemscore.Metal>
0.0000

> <Gold.Chemscore.Hbonds>
donor molecule, donor type, donor heavy atom, donor atom, acceptor molecule, acceptor atom, score
      L1  H    15    44       P1  8028  2.00
      P1  H  7989  7998       L1    11  0.72

> <Gold.PLP.Chemscore.Internal.Correction>
0.2664

> <Gold.Rescore>
     Score         DG    S(hbond)    S(metal)    S(lipo)     H(rot)  DE(clash)    DE(int)     intcor
     14.29     -16.69       1.69        0.00     113.84       3.03       0.11       2.28       ----

> <Gold.Chemscore.Fitness>
14.2918

> <Gold.Chemscore.DG>
-16.6856

> <Gold.Chemscore.ZeroCoef>
-5.4800

> <Gold.Chemscore.Hbond>
1.6880

> <Gold.Chemscore.Metal>
0.0000

> <Gold.Chemscore.Lipo>
113.8352

> <Gold.Chemscore.Internal_Hbond>
0.0000

> <Gold.Chemscore.DEClash>
0.1113

> <Gold.Chemscore.DEInternal>
2.2826

> <Gold.Chemscore.Rot>
3.0278

> <Gold.Chemscore.Internal.Correction>
   9.000000E+99

> <Gold.Chemscore.Hbonds>
donor molecule, donor type, donor heavy atom, donor atom, acceptor molecule, acceptor atom, score
      L1  H    15    44       P1  8028  1.00
      P1  H  7989  7998       L1    11  0.66

> <Gold.Chemscore.Hbond.Weighted>
-5.6380

> <Gold.Chemscore.Metal.Weighted>
-0.0000

> <Gold.Chemscore.Lipo.Weighted>
-13.3187

> <Gold.Chemscore.Internal_Hbond.Weighted>
0.0000

> <Gold.Chemscore.DEClash.Weighted>
0.1113

> <Gold.Chemscore.DEInternal.Weighted>
2.2826

> <Gold.Chemscore.Rot.Weighted>
7.7512

> <Gold.Chemscore.Internal.Correction.Weighted>
   9.000000E+99

> <Gold.Protein.RotatedTorsions>
[ 6907 6896 6895 6894 ] final  -79.62 input  -60.11 | X-H torsion
[ 7974 7965 7964 7962 ] final  157.13 input  175.53 | X-H torsion
[ 8008 7997 7996 7995 ] final  153.51 input   59.86 | X-H torsion
[ 10167 10162 10161 10158 ] final   -1.94 input  -65.29 | X-H torsion
[ 10718 10713 10712 10709 ] final  179.76 input   66.30 | X-H torsion
[ 10763 10752 10751 10750 ] final   63.09 input  -60.55 | X-H torsion
[ 11005 11000 10999 10996 ] final    5.27 input  -57.11 | X-H torsion

> <Gold.Protein.ActiveResidues>
 VAL166  LYS551  ARG553  GLY616  TRP617  ASP618  TYR619  PRO620  LYS621  CYS622 
 ASP623  PHE694  ASN695  SER759  ASP760  ASP761  ALA762  ILE779  LEU786  VAL792 
 PHE793  MET794  SER795  GLU796  ALA797  LYS798  CYS799  TRP800  GLU811  SER814 

> <Gold.Protein.RotatedAtoms>
  150.6946  134.4093  159.5154 H   0  0  0  0  0  0  0  0  0  0  0  0  # atno 6907 bound_to 6896
  152.1854  134.8715  160.0531 H   0  0  0  0  0  0  0  0  0  0  0  0  # atno 6908 bound_to 6896
  151.9690  133.3685  159.4101 H   0  0  0  0  0  0  0  0  0  0  0  0  # atno 6909 bound_to 6896
  144.7921  139.7298  143.6217 H   0  0  0  0  0  0  0  0  0  0  0  0  # atno 7974 bound_to 7965
  156.2578  140.1992  156.6501 H   0  0  0  0  0  0  0  0  0  0  0  0  # atno 8008 bound_to 7997
  154.6543  140.0568  157.0016 H   0  0  0  0  0  0  0  0  0  0  0  0  # atno 8009 bound_to 7997
  155.1371  140.3239  155.4463 H   0  0  0  0  0  0  0  0  0  0  0  0  # atno 8010 bound_to 7997
  140.6831  143.6716  150.8180 H   0  0  0  0  0  0  0  0  0  0  0  0  # atno 10167 bound_to 10162
  156.8710  130.9783  151.3073 H   0  0  0  0  0  0  0  0  0  0  0  0  # atno 10718 bound_to 10713
  153.0005  135.5441  154.6297 H   0  0  0  0  0  0  0  0  0  0  0  0  # atno 10763 bound_to 10752
  154.5577  135.2831  155.0951 H   0  0  0  0  0  0  0  0  0  0  0  0  # atno 10764 bound_to 10752
  154.2166  135.6458  153.5184 H   0  0  0  0  0  0  0  0  0  0  0  0  # atno 10765 bound_to 10752
  140.5725  134.0089  155.8014 H   0  0  0  0  0  0  0  0  0  0  0  0  # atno 11005 bound_to 11000
  146.2177  139.5579  142.9639 LP  0  0  0  0  0  0  0  0  0  0  0  0  # atno 17320 bound_to 7965
  145.5766  141.0388  143.2145 LP  0  0  0  0  0  0  0  0  0  0  0  0  # atno 17321 bound_to 7965
  140.0419  143.5337  152.2714 LP  0  0  0  0  0  0  0  0  0  0  0  0  # atno 17342 bound_to 10162
  139.6167  144.7621  151.2829 LP  0  0  0  0  0  0  0  0  0  0  0  0  # atno 17343 bound_to 10162
  157.6196  130.8645  149.9086 LP  0  0  0  0  0  0  0  0  0  0  0  0  # atno 17370 bound_to 10713
  156.0726  130.3683  150.0743 LP  0  0  0  0  0  0  0  0  0  0  0  0  # atno 17371 bound_to 10713
  141.1047  133.9713  157.3018 LP  0  0  0  0  0  0  0  0  0  0  0  0  # atno 17394 bound_to 11000
  139.9355  135.0197  156.8541 LP  0  0  0  0  0  0  0  0  0  0  0  0  # atno 17395 bound_to 11000

$$$$
