AV-unprocessed.smi:2005|AV-procd|sdf|8125|dock3
  -GOLD-   2272010363D 1   1.00000     0.00000
 Structure written by MMmdl.
 39 40  0  0  0  0  0  0  0  0  1 V2000
  148.0370  135.2005  160.5512 C   0  0  0  0  0  0  0  0  0  0  0  0
  147.6027  133.9704  159.7415 C   0  0  0  0  0  0  0  0  0  0  0  0
  148.0545  132.6447  160.3715 C   0  0  0  0  0  0  0  0  0  0  0  0
  147.9970  134.0733  158.3009 C   0  0  0  0  0  0  0  0  0  0  0  0
  149.2698  134.0113  157.8866 N   0  0  0  0  0  0  0  0  0  0  0  0
  149.3828  134.1219  156.5079 N   0  0  0  0  0  0  0  0  0  0  0  0
  148.1882  134.2660  155.9187 C   0  0  0  0  0  0  0  0  0  0  0  0
  148.0112  134.3980  154.5160 N   0  0  0  0  0  0  0  0  0  0  0  0
  147.1010  133.7956  153.7304 C   0  0  0  0  0  0  0  0  0  0  0  0
  146.2485  132.9938  154.1135 O   0  0  0  0  0  0  0  0  0  0  0  0
  147.2289  134.1854  152.4536 N   0  0  0  0  0  0  0  0  0  0  0  0
  146.3843  133.7429  151.3479 C   0  0  2  0  0  0  0  0  0  0  0  0
  145.0579  134.5262  151.3649 C   0  0  0  0  0  0  0  0  0  0  0  0
  144.1046  134.0447  150.2591 C   0  0  0  0  0  0  0  0  0  0  0  0
  143.8498  132.5319  150.3682 C   0  0  1  0  0  0  0  0  0  0  0  0
  143.0245  132.1127  149.3021 O   0  0  0  0  0  0  0  0  0  0  0  0
  145.1712  131.7458  150.3359 C   0  0  0  0  0  0  0  0  0  0  0  0
  146.1270  132.2244  151.4406 C   0  0  0  0  0  0  0  0  0  0  0  0
  146.8158  134.2851  157.0124 S   0  0  0  0  0  0  0  0  0  0  0  0
  147.6286  136.1163  160.1228 H   0  0  0  0  0  0  0  0  0  0  0  0
  149.1228  135.2979  160.5739 H   0  0  0  0  0  0  0  0  0  0  0  0
  147.6883  135.1346  161.5823 H   0  0  0  0  0  0  0  0  0  0  0  0
  146.5122  133.9614  159.7612 H   0  0  0  0  0  0  0  0  0  0  0  0
  147.6586  131.7923  159.8189 H   0  0  0  0  0  0  0  0  0  0  0  0
  147.7072  132.5608  161.4014 H   0  0  0  0  0  0  0  0  0  0  0  0
  149.1417  132.5598  160.3807 H   0  0  0  0  0  0  0  0  0  0  0  0
  148.6416  135.0404  154.0595 H   0  0  0  0  0  0  0  0  0  0  0  0
  147.9572  134.8477  152.2298 H   0  0  0  0  0  0  0  0  0  0  0  0
  146.8891  133.9570  150.4037 H   0  0  0  0  0  0  0  0  0  0  0  0
  144.5710  134.4105  152.3343 H   0  0  0  0  0  0  0  0  0  0  0  0
  145.2519  135.5924  151.2420 H   0  0  0  0  0  0  0  0  0  0  0  0
  143.1621  134.5900  150.3213 H   0  0  0  0  0  0  0  0  0  0  0  0
  144.5347  134.2796  149.2843 H   0  0  0  0  0  0  0  0  0  0  0  0
  143.3253  132.3197  151.3007 H   0  0  0  0  0  0  0  0  0  0  0  0
  142.3274  132.7420  149.1961 H   0  0  0  0  0  0  0  0  0  0  0  0
  144.9765  130.6792  150.4535 H   0  0  0  0  0  0  0  0  0  0  0  0
  145.6529  131.8676  149.3646 H   0  0  0  0  0  0  0  0  0  0  0  0
  147.0679  131.6776  151.3694 H   0  0  0  0  0  0  0  0  0  0  0  0
  145.7020  131.9804  152.4152 H   0  0  0  0  0  0  0  0  0  0  0  0
  1  2  1  0  0  0  0
  1 20  1  0  0  0  0
  1 21  1  0  0  0  0
  1 22  1  0  0  0  0
  2  3  1  0  0  0  0
  2  4  1  0  0  0  0
  2 23  1  0  0  0  0
  3 24  1  0  0  0  0
  3 25  1  0  0  0  0
  3 26  1  0  0  0  0
  4 19  1  0  0  0  0
  4  5  2  0  0  0  0
  5  6  1  0  0  0  0
  6  7  2  0  0  0  0
  7  8  1  0  0  0  0
  7 19  1  0  0  0  0
  8  9  1  0  0  0  0
  8 27  1  0  0  0  0
  9 10  2  0  0  0  0
  9 11  1  0  0  0  0
 11 12  1  0  0  0  0
 11 28  1  0  0  0  0
 12 18  1  0  0  0  0
 12 13  1  0  0  0  0
 12 29  1  0  0  0  0
 13 14  1  0  0  0  0
 13 30  1  0  0  0  0
 13 31  1  0  0  0  0
 14 15  1  0  0  0  0
 14 32  1  0  0  0  0
 14 33  1  0  0  0  0
 15 16  1  0  0  0  0
 15 17  1  0  0  0  0
 15 34  1  0  0  0  0
 16 35  1  0  0  0  0
 17 18  1  0  0  0  0
 17 36  1  0  0  0  0
 17 37  1  0  0  0  0
 18 38  1  0  0  0  0
 18 39  1  0  0  0  0
M  END
> <s_m_source_file>
AV-unprocessed.smi

> <i_m_source_file_index>
2005

> <i_lp_mmshare_version>
43012

> <i_f3d_flags>
0

> <s_epik_input>
W0NIM11bQ0hdKFtDSDNdKWMxbm5jKHMxKVtOSF1DKD1PKVtOSF1bQ0BASF0yW0NIMl1bQ0gyXVtDQEBIXShbT0hdKVtDSDJdW0NIMl0y

> <s_epik_cmdline>
J2VwaWtfcHl0aG9uJywgJy1waCcsICc3LjAnLCAnLXRuJywgJzgnLCAnLW1hJywgJzIwMCcsICctbWV0YWxfYmluZGluZycsICctaW1hZScsICc8aW5maWxlLm1hZT4nLCAnLW9tYWUnLCAnPG91dGZpbGUubWFlPic=

> <r_lp_tautomer_probability>
1

> <r_epik_Ionization_Penalty>
0.000372581

> <r_epik_Ionization_Penalty_Charging>
0

> <r_epik_Ionization_Penalty_Neutral>
0.000372581

> <r_epik_State_Penalty>
-0

> <r_epik_Charging_Adjusted_Penalty>
0

> <i_epik_Tot_Q>
0

> <i_epik_Tot_abs_Q>
0

> <r_epik_Metal_State_Penalty>
0.186152

> <b_epik_Metal_Only>
0

> <s_lp_Force_Field>
OPLS_2005

> <r_lp_Energy>
0.700643

> <b_lp_Chiralities_Consistent>
1

> <s_lp_Variant>
AV-unprocessed.smi:2005-1

> <Gold.Version>
5.8.1

> <Gold.Id.Protein>
6NUR|6NUR_protein|mol2

> <Gold.PLP.Fitness>
36.7932

> <Gold.PLP.PLP>
-27.1852

> <Gold.PLP.part.hbond>
-4.8919

> <Gold.PLP.part.metal>
0.0000

> <Gold.PLP.part.buried>
-5.1257

> <Gold.PLP.part.nonpolar>
-18.5759

> <Gold.PLP.part.repulsive>
0.1065

> <Gold.PLP.ligand.clash>
0.0000

> <Gold.PLP.ligand.torsion>
0.6976

> <Gold.PLP.Chemscore.Hbond>
3.6412

> <Gold.PLP.Chemscore.CHOScore>
0.0000

> <Gold.PLP.Chemscore.Metal>
0.0000

> <Gold.Chemscore.Hbonds>
donor molecule, donor type, donor heavy atom, donor atom, acceptor molecule, acceptor atom, score
      L1  H    11    28       P1  7948  1.00
      L1  H    16    35       P1 10186  0.70
      P1  H  6896  6907       L1     5  1.00
      P1  H 10785 10796       L1    16  0.94

> <Gold.PLP.Chemscore.Internal.Correction>
0.0795

> <Gold.Rescore>
     Score         DG    S(hbond)    S(metal)    S(lipo)     H(rot)  DE(clash)    DE(int)     intcor
     17.91     -19.84       3.50        0.00      60.47       1.72       0.01       1.93       ----

> <Gold.Chemscore.Fitness>
17.9096

> <Gold.Chemscore.DG>
-19.8434

> <Gold.Chemscore.ZeroCoef>
-5.4800

> <Gold.Chemscore.Hbond>
3.5011

> <Gold.Chemscore.Metal>
0.0000

> <Gold.Chemscore.Lipo>
60.4672

> <Gold.Chemscore.Internal_Hbond>
0.0000

> <Gold.Chemscore.DEClash>
0.0073

> <Gold.Chemscore.DEInternal>
1.9265

> <Gold.Chemscore.Rot>
1.7207

> <Gold.Chemscore.Internal.Correction>
   9.000000E+99

> <Gold.Chemscore.Hbonds>
donor molecule, donor type, donor heavy atom, donor atom, acceptor molecule, acceptor atom, score
      L1  H     8    27       P1  7948  0.01
      L1  H    11    28       P1  7948  0.60
      L1  H    16    35       P1 10186  0.69
      P1  H  6896  6907       L1     5  0.90
      P1  H 10785 10796       L1    16  0.83

> <Gold.Chemscore.Hbond.Weighted>
-11.6938

> <Gold.Chemscore.Metal.Weighted>
-0.0000

> <Gold.Chemscore.Lipo.Weighted>
-7.0747

> <Gold.Chemscore.Internal_Hbond.Weighted>
0.0000

> <Gold.Chemscore.DEClash.Weighted>
0.0073

> <Gold.Chemscore.DEInternal.Weighted>
1.9265

> <Gold.Chemscore.Rot.Weighted>
4.4051

> <Gold.Chemscore.Internal.Correction.Weighted>
   9.000000E+99

> <Gold.Protein.RotatedTorsions>
[ 6907 6896 6895 6894 ] final -105.47 input  -60.11 | X-H torsion
[ 7974 7965 7964 7962 ] final  -12.83 input  175.53 | X-H torsion
[ 8008 7997 7996 7995 ] final   -9.05 input   59.86 | X-H torsion
[ 10167 10162 10161 10158 ] final   43.58 input  -65.29 | X-H torsion
[ 10718 10713 10712 10709 ] final   40.15 input   66.30 | X-H torsion
[ 10763 10752 10751 10750 ] final  -84.28 input  -60.55 | X-H torsion
[ 11005 11000 10999 10996 ] final  169.23 input  -57.11 | X-H torsion

> <Gold.Protein.ActiveResidues>
 VAL166  LYS551  ARG553  GLY616  TRP617  ASP618  TYR619  PRO620  LYS621  CYS622 
 ASP623  PHE694  ASN695  SER759  ASP760  ASP761  ALA762  ILE779  LEU786  VAL792 
 PHE793  MET794  SER795  GLU796  ALA797  LYS798  CYS799  TRP800  GLU811  SER814 

> <Gold.Protein.RotatedAtoms>
  150.7339  134.0121  159.3672 H   0  0  0  0  0  0  0  0  0  0  0  0  # atno 6907 bound_to 6896
  151.8081  135.0687  160.0418 H   0  0  0  0  0  0  0  0  0  0  0  0  # atno 6908 bound_to 6896
  152.3092  133.5699  159.5706 H   0  0  0  0  0  0  0  0  0  0  0  0  # atno 6909 bound_to 6896
  146.2137  140.3115  142.8383 H   0  0  0  0  0  0  0  0  0  0  0  0  # atno 7974 bound_to 7965
  154.5683  140.2365  155.8230 H   0  0  0  0  0  0  0  0  0  0  0  0  # atno 8008 bound_to 7997
  156.2086  140.3032  155.9640 H   0  0  0  0  0  0  0  0  0  0  0  0  # atno 8009 bound_to 7997
  155.2760  140.0420  157.3002 H   0  0  0  0  0  0  0  0  0  0  0  0  # atno 8010 bound_to 7997
  140.3429  144.2447  150.6153 H   0  0  0  0  0  0  0  0  0  0  0  0  # atno 10167 bound_to 10162
  157.3788  130.7742  149.7177 H   0  0  0  0  0  0  0  0  0  0  0  0  # atno 10718 bound_to 10713
  154.5977  135.5526  153.7342 H   0  0  0  0  0  0  0  0  0  0  0  0  # atno 10763 bound_to 10752
  153.0142  135.6358  154.1759 H   0  0  0  0  0  0  0  0  0  0  0  0  # atno 10764 bound_to 10752
  154.1699  135.2892  155.3064 H   0  0  0  0  0  0  0  0  0  0  0  0  # atno 10765 bound_to 10752
  140.2955  134.7638  157.3874 H   0  0  0  0  0  0  0  0  0  0  0  0  # atno 11005 bound_to 11000
  144.8985  140.7613  143.5882 LP  0  0  0  0  0  0  0  0  0  0  0  0  # atno 17320 bound_to 7965
  145.3040  139.1841  143.4674 LP  0  0  0  0  0  0  0  0  0  0  0  0  # atno 17321 bound_to 7965
  140.5292  143.2247  151.8266 LP  0  0  0  0  0  0  0  0  0  0  0  0  # atno 17342 bound_to 10162
  139.4838  144.4742  151.9388 LP  0  0  0  0  0  0  0  0  0  0  0  0  # atno 17343 bound_to 10162
  155.9771  130.4067  150.3733 LP  0  0  0  0  0  0  0  0  0  0  0  0  # atno 17370 bound_to 10713
  157.1834  131.0398  151.2737 LP  0  0  0  0  0  0  0  0  0  0  0  0  # atno 17371 bound_to 10713
  140.1156  134.5287  155.8228 LP  0  0  0  0  0  0  0  0  0  0  0  0  # atno 17394 bound_to 11000
  141.2138  133.6739  156.6771 LP  0  0  0  0  0  0  0  0  0  0  0  0  # atno 17395 bound_to 11000

$$$$
