AV-unprocessed.smi:55|AV-procd|sdf|565|dock6
  -GOLD-   2262016473D 1   1.00000     0.00000
 Structure written by MMmdl.
 31 32  0  0  0  0  0  0  0  0  1 V2000
  152.8328  142.0510  160.0553 C   0  0  0  0  0  0  0  0  0  0  0  0
  152.1018  141.8424  158.7394 C   0  0  0  0  0  0  0  0  0  0  0  0
  152.1656  140.6754  158.0487 C   0  0  0  0  0  0  0  0  0  0  0  0
  151.5096  140.4535  156.8460 N   0  0  0  0  0  0  0  0  0  0  0  0
  151.6257  139.1287  156.1264 C   0  0  2  0  0  0  0  0  0  0  0  0
  151.9268  139.3386  154.6388 C   0  0  0  0  0  0  0  0  0  0  0  0
  151.0734  138.2698  153.9850 C   0  0  1  0  0  0  0  0  0  0  0  0
  151.7804  137.0461  153.9066 O   0  0  0  0  0  0  0  0  0  0  0  0
  149.8710  138.1908  154.9368 C   0  0  1  0  0  0  0  0  0  0  0  0
  149.0581  136.8846  154.9257 C   0  0  0  0  0  0  0  0  0  0  0  0
  148.3961  136.7294  153.6884 O   0  0  0  0  0  0  0  0  0  0  0  0
  150.4097  138.4463  156.2319 O   0  0  0  0  0  0  0  0  0  0  0  0
  150.7072  141.4764  156.2986 C   0  0  0  0  0  0  0  0  0  0  0  0
  150.0725  141.3463  155.2526 O   0  0  0  0  0  0  0  0  0  0  0  0
  150.6441  142.6764  157.0049 N   0  0  0  0  0  0  0  0  0  0  0  0
  151.2981  142.9471  158.2094 C   0  0  0  0  0  0  0  0  0  0  0  0
  151.1661  144.0498  158.7381 O   0  0  0  0  0  0  0  0  0  0  0  0
  152.3794  138.5281  156.6375 H   0  0  0  0  0  0  0  0  0  0  0  0
  150.7707  138.5550  152.9770 H   0  0  0  0  0  0  0  0  0  0  0  0
  149.2017  139.0212  154.7072 H   0  0  0  0  0  0  0  0  0  0  0  0
  150.0736  143.4125  156.6148 H   0  0  0  0  0  0  0  0  0  0  0  0
  153.3974  141.1656  160.3489 H   0  0  0  0  0  0  0  0  0  0  0  0
  152.1240  142.2754  160.8531 H   0  0  0  0  0  0  0  0  0  0  0  0
  153.5336  142.8828  159.9747 H   0  0  0  0  0  0  0  0  0  0  0  0
  152.7581  139.8748  158.4647 H   0  0  0  0  0  0  0  0  0  0  0  0
  151.5837  140.3271  154.3298 H   0  0  0  0  0  0  0  0  0  0  0  0
  152.9945  139.2571  154.4313 H   0  0  0  0  0  0  0  0  0  0  0  0
  151.6130  136.6576  153.0611 H   0  0  0  0  0  0  0  0  0  0  0  0
  149.6887  136.0166  155.1188 H   0  0  0  0  0  0  0  0  0  0  0  0
  148.3056  136.9104  155.7141 H   0  0  0  0  0  0  0  0  0  0  0  0
  149.0350  136.4911  153.0338 H   0  0  0  0  0  0  0  0  0  0  0  0
  1  2  1  0  0  0  0
  1 22  1  0  0  0  0
  1 23  1  0  0  0  0
  1 24  1  0  0  0  0
  2 16  1  0  0  0  0
  2  3  2  0  0  0  0
  3  4  1  0  0  0  0
  3 25  1  0  0  0  0
  4  5  1  0  0  0  0
  4 13  1  0  0  0  0
  5 18  1  0  0  0  0
  5 12  1  0  0  0  0
  5  6  1  0  0  0  0
  6  7  1  0  0  0  0
  6 26  1  0  0  0  0
  6 27  1  0  0  0  0
  7 19  1  0  0  0  0
  7  8  1  0  0  0  0
  7  9  1  0  0  0  0
  8 28  1  0  0  0  0
  9 20  1  0  0  0  0
  9 10  1  0  0  0  0
  9 12  1  0  0  0  0
 10 11  1  0  0  0  0
 10 29  1  0  0  0  0
 10 30  1  0  0  0  0
 11 31  1  0  0  0  0
 13 14  2  0  0  0  0
 13 15  1  0  0  0  0
 15 21  1  0  0  0  0
 15 16  1  0  0  0  0
 16 17  2  0  0  0  0
M  END
> <s_m_source_file>
AV-unprocessed.smi

> <i_m_source_file_index>
55

> <i_lp_mmshare_version>
43012

> <i_f3d_flags>
0

> <s_epik_input>
Tz1jMVtuSF1jKD1PKW4oW2NIXWMxW0NIM10pW0NAQEhdMltDSDJdW0NAQEhdKFtPSF0pW0NAQEhdKE8yKVtDSDJdW09IXQ==

> <s_epik_cmdline>
J2VwaWtfcHl0aG9uJywgJy1waCcsICc3LjAnLCAnLXRuJywgJzgnLCAnLW1hJywgJzIwMCcsICctbWV0YWxfYmluZGluZycsICctaW1hZScsICc8aW5maWxlLm1hZT4nLCAnLW9tYWUnLCAnPG91dGZpbGUubWFlPic=

> <r_lp_tautomer_probability>
0.999537

> <r_epik_Ionization_Penalty>
0.00121888

> <r_epik_Ionization_Penalty_Charging>
0.00121876

> <r_epik_Ionization_Penalty_Neutral>
1.19946e-07

> <r_epik_State_Penalty>
0.000805124

> <r_epik_Charging_Adjusted_Penalty>
0.00202389

> <i_epik_Tot_Q>
0

> <i_epik_Tot_abs_Q>
0

> <r_epik_Metal_State_Penalty>
0.662472

> <b_epik_Metal_Only>
0

> <s_epik_Chemistry_Notes>
This compound contains an acetal/aminal-like group ( X-CH(R)-Y where X, Y are N, S, or O) that may be acid/base labile, releasing an aldehyde.

> <s_lp_Force_Field>
OPLS_2005

> <r_lp_Energy>
27.6975

> <b_lp_Chiralities_Consistent>
1

> <s_lp_Variant>
AV-unprocessed.smi:55-5

> <Gold.Version>
5.8.1

> <Gold.Id.Protein>
6NUR|6NUR_protein|mol2

> <Gold.PLP.Fitness>
39.7747

> <Gold.PLP.PLP>
-28.9138

> <Gold.PLP.part.hbond>
-3.9426

> <Gold.PLP.part.metal>
0.0000

> <Gold.PLP.part.buried>
-4.4592

> <Gold.PLP.part.nonpolar>
-21.5065

> <Gold.PLP.part.repulsive>
0.2328

> <Gold.PLP.ligand.clash>
0.0000

> <Gold.PLP.ligand.torsion>
0.2706

> <Gold.PLP.Chemscore.Hbond>
3.8000

> <Gold.PLP.Chemscore.CHOScore>
0.0000

> <Gold.PLP.Chemscore.Metal>
0.0000

> <Gold.Chemscore.Hbonds>
donor molecule, donor type, donor heavy atom, donor atom, acceptor molecule, acceptor atom, score
      L1  H     8    28       P1  7949  1.00
      L1  H    11    31       P1  7948  0.10
      L1  H    15    21       P1  8028  1.00
      P1  H  7989  7998       L1    14  0.07
      P1  H 10752 10763       L1     8  0.61

> <Gold.PLP.Chemscore.Internal.Correction>
0.0021

> <Gold.Rescore>
     Score         DG    S(hbond)    S(metal)    S(lipo)     H(rot)  DE(clash)    DE(int)     intcor
     12.85     -14.74       3.11        0.00      49.95       2.73       0.02       1.87       ----

> <Gold.Chemscore.Fitness>
12.8511

> <Gold.Chemscore.DG>
-14.7411

> <Gold.Chemscore.ZeroCoef>
-5.4800

> <Gold.Chemscore.Hbond>
3.1120

> <Gold.Chemscore.Metal>
0.0000

> <Gold.Chemscore.Lipo>
49.9466

> <Gold.Chemscore.Internal_Hbond>
0.0000

> <Gold.Chemscore.DEClash>
0.0199

> <Gold.Chemscore.DEInternal>
1.8701

> <Gold.Chemscore.Rot>
2.7253

> <Gold.Chemscore.Internal.Correction>
   9.000000E+99

> <Gold.Chemscore.Hbonds>
donor molecule, donor type, donor heavy atom, donor atom, acceptor molecule, acceptor atom, score
      L1  H     8    28       P1  7949  0.97
      L1  H    11    31       P1  7948  0.11
      L1  H    15    21       P1  8028  0.96
      P1  H  7989  7998       L1    14  0.06
      P1  H 10752 10763       L1     8  0.08

> <Gold.Chemscore.Hbond.Weighted>
-10.3942

> <Gold.Chemscore.Metal.Weighted>
-0.0000

> <Gold.Chemscore.Lipo.Weighted>
-5.8438

> <Gold.Chemscore.Internal_Hbond.Weighted>
0.0000

> <Gold.Chemscore.DEClash.Weighted>
0.0199

> <Gold.Chemscore.DEInternal.Weighted>
1.8701

> <Gold.Chemscore.Rot.Weighted>
6.9769

> <Gold.Chemscore.Internal.Correction.Weighted>
   9.000000E+99

> <Gold.Protein.RotatedTorsions>
[ 6907 6896 6895 6894 ] final  -20.90 input  -60.11 | X-H torsion
[ 7974 7965 7964 7962 ] final  -32.14 input  175.53 | X-H torsion
[ 8008 7997 7996 7995 ] final  -79.60 input   59.86 | X-H torsion
[ 10167 10162 10161 10158 ] final  -54.34 input  -65.29 | X-H torsion
[ 10718 10713 10712 10709 ] final -163.09 input   66.30 | X-H torsion
[ 10763 10752 10751 10750 ] final   56.66 input  -60.55 | X-H torsion
[ 11005 11000 10999 10996 ] final  -36.14 input  -57.11 | X-H torsion

> <Gold.Protein.ActiveResidues>
 VAL166  LYS551  ARG553  GLY616  TRP617  ASP618  TYR619  PRO620  LYS621  CYS622 
 ASP623  PHE694  ASN695  SER759  ASP760  ASP761  ALA762  ILE779  LEU786  VAL792 
 PHE793  MET794  SER795  GLU796  ALA797  LYS798  CYS799  TRP800  GLU811  SER814 

> <Gold.Protein.RotatedAtoms>
  151.2413  135.0590  159.9025 H   0  0  0  0  0  0  0  0  0  0  0  0  # atno 6907 bound_to 6896
  152.5392  134.0431  159.8086 H   0  0  0  0  0  0  0  0  0  0  0  0  # atno 6908 bound_to 6896
  151.0625  133.5483  159.2664 H   0  0  0  0  0  0  0  0  0  0  0  0  # atno 6909 bound_to 6896
  146.1013  140.5755  142.8819 H   0  0  0  0  0  0  0  0  0  0  0  0  # atno 7974 bound_to 7965
  154.5801  140.0676  156.9091 H   0  0  0  0  0  0  0  0  0  0  0  0  # atno 8008 bound_to 7997
  155.2478  140.3349  155.4267 H   0  0  0  0  0  0  0  0  0  0  0  0  # atno 8009 bound_to 7997
  156.2183  140.1788  156.7523 H   0  0  0  0  0  0  0  0  0  0  0  0  # atno 8010 bound_to 7997
  140.6436  143.2522  151.4922 H   0  0  0  0  0  0  0  0  0  0  0  0  # atno 10167 bound_to 10162
  156.6197  130.8885  151.2955 H   0  0  0  0  0  0  0  0  0  0  0  0  # atno 10718 bound_to 10713
  152.9836  135.5668  154.5265 H   0  0  0  0  0  0  0  0  0  0  0  0  # atno 10763 bound_to 10752
  154.4744  135.2786  155.1620 H   0  0  0  0  0  0  0  0  0  0  0  0  # atno 10764 bound_to 10752
  154.3155  135.6279  153.5537 H   0  0  0  0  0  0  0  0  0  0  0  0  # atno 10765 bound_to 10752
  140.9852  133.7035  156.1752 H   0  0  0  0  0  0  0  0  0  0  0  0  # atno 11005 bound_to 11000
  144.7435  140.5006  143.6852 LP  0  0  0  0  0  0  0  0  0  0  0  0  # atno 17320 bound_to 7965
  145.5848  139.1491  143.3215 LP  0  0  0  0  0  0  0  0  0  0  0  0  # atno 17321 bound_to 7965
  139.5645  144.2075  152.1744 LP  0  0  0  0  0  0  0  0  0  0  0  0  # atno 17342 bound_to 10162
  140.1352  144.5252  150.6777 LP  0  0  0  0  0  0  0  0  0  0  0  0  # atno 17343 bound_to 10162
  157.7231  130.9585  150.1520 LP  0  0  0  0  0  0  0  0  0  0  0  0  # atno 17370 bound_to 10713
  156.2322  130.3683  149.8432 LP  0  0  0  0  0  0  0  0  0  0  0  0  # atno 17371 bound_to 10713
  140.7126  134.4445  157.5580 LP  0  0  0  0  0  0  0  0  0  0  0  0  # atno 17394 bound_to 11000
  139.8967  134.8653  156.2075 LP  0  0  0  0  0  0  0  0  0  0  0  0  # atno 17395 bound_to 11000

$$$$
