AV-unprocessed.smi:244|AV-procd|sdf|1871|dock7
  -GOLD-   2262020513D 1   1.00000     0.00000
 Structure written by MMmdl.
 57 61  0  0  0  0  0  0  0  0  2 V2000
  146.1920  137.8852  153.5526 C   0  0  0  0  0  0  0  0  0  0  0  0
  147.0637  136.7289  153.8525 N   0  3  2  0  0  0  0  0  0  0  0  0
  146.2868  135.5124  154.1994 C   0  0  0  0  0  0  0  0  0  0  0  0
  147.2130  134.3014  154.3968 C   0  0  0  0  0  0  0  0  0  0  0  0
  148.2714  134.6056  155.4638 C   0  0  1  0  0  0  0  0  0  0  0  0
  149.1559  133.4982  155.5920 O   0  0  0  0  0  0  0  0  0  0  0  0
  150.1190  133.7101  156.6192 C   0  0  0  0  0  0  0  0  0  0  0  0
  150.9671  134.9466  156.2793 C   0  0  0  0  0  0  0  0  0  0  0  0
  150.1111  136.1102  156.0646 N   0  0  0  0  0  0  0  0  0  0  0  0
  150.8235  137.2435  155.8756 C   0  0  0  0  0  0  0  0  0  0  0  0
  152.0242  137.1975  155.2405 N   0  0  0  0  0  0  0  0  0  0  0  0
  152.7127  138.3250  155.0372 C   0  0  0  0  0  0  0  0  0  0  0  0
  152.3839  139.5756  155.3694 N   0  0  0  0  0  0  0  0  0  0  0  0
  151.1738  139.6213  155.9981 C   0  0  0  0  0  0  0  0  0  0  0  0
  150.3374  138.5093  156.2918 C   0  0  0  0  0  0  0  0  0  0  0  0
  149.1836  138.9335  156.9367 N   0  0  0  0  0  0  0  0  0  0  0  0
  149.3321  140.2275  157.0258 C   0  0  0  0  0  0  0  0  0  0  0  0
  150.4898  140.7274  156.4709 N   0  0  0  0  0  0  0  0  0  0  0  0
  150.9013  142.1219  156.4219 C   0  0  0  0  0  0  0  0  0  0  0  0
  151.1743  142.7602  157.8080 C   0  0  0  0  0  0  0  0  0  0  0  0
  149.9115  142.8189  158.4468 O   0  0  0  0  0  0  0  0  0  0  0  0
  152.1253  141.9166  158.6846 C   0  0  0  0  0  0  0  0  0  0  0  0
  152.4510  142.6173  160.0161 C   0  0  0  0  0  0  0  0  0  0  0  0
  152.9938  143.9087  159.7661 O   0  0  0  0  0  0  0  0  0  0  0  0
  152.0833  144.7716  159.0945 C   0  0  0  0  0  0  0  0  0  0  0  0
  151.7360  144.1954  157.7099 C   0  0  0  0  0  0  0  0  0  0  0  0
  149.0724  135.8624  155.0618 C   0  0  2  0  0  0  0  0  0  0  0  0
  148.0969  137.0491  154.8701 C   0  0  0  0  0  0  0  0  0  0  0  0
  145.6180  138.1815  154.4315 H   0  0  0  0  0  0  0  0  0  0  0  0
  145.4922  137.6420  152.7525 H   0  0  0  0  0  0  0  0  0  0  0  0
  146.7841  138.7407  153.2260 H   0  0  0  0  0  0  0  0  0  0  0  0
  145.7089  135.6947  155.1070 H   0  0  0  0  0  0  0  0  0  0  0  0
  145.5708  135.2971  153.4052 H   0  0  0  0  0  0  0  0  0  0  0  0
  146.6285  133.4281  154.6878 H   0  0  0  0  0  0  0  0  0  0  0  0
  147.6992  134.0506  153.4530 H   0  0  0  0  0  0  0  0  0  0  0  0
  147.7685  134.7715  156.4191 H   0  0  0  0  0  0  0  0  0  0  0  0
  149.6218  133.8315  157.5828 H   0  0  0  0  0  0  0  0  0  0  0  0
  150.7548  132.8282  156.6979 H   0  0  0  0  0  0  0  0  0  0  0  0
  151.6709  135.1480  157.0882 H   0  0  0  0  0  0  0  0  0  0  0  0
  151.5554  134.7476  155.3823 H   0  0  0  0  0  0  0  0  0  0  0  0
  153.6611  138.2093  154.5333 H   0  0  0  0  0  0  0  0  0  0  0  0
  148.5904  140.8599  157.4919 H   0  0  0  0  0  0  0  0  0  0  0  0
  151.7951  142.1846  155.7992 H   0  0  0  0  0  0  0  0  0  0  0  0
  150.1279  142.6839  155.8957 H   0  0  0  0  0  0  0  0  0  0  0  0
  149.4490  142.0130  158.2742 H   0  0  0  0  0  0  0  0  0  0  0  0
  151.7008  140.9296  158.8723 H   0  0  0  0  0  0  0  0  0  0  0  0
  153.0653  141.7521  158.1583 H   0  0  0  0  0  0  0  0  0  0  0  0
  151.5649  142.6980  160.6475 H   0  0  0  0  0  0  0  0  0  0  0  0
  153.1826  142.0334  160.5746 H   0  0  0  0  0  0  0  0  0  0  0  0
  151.1868  144.9166  159.6993 H   0  0  0  0  0  0  0  0  0  0  0  0
  152.5488  145.7510  158.9831 H   0  0  0  0  0  0  0  0  0  0  0  0
  152.6479  144.1968  157.1135 H   0  0  0  0  0  0  0  0  0  0  0  0
  151.0309  144.8499  157.1958 H   0  0  0  0  0  0  0  0  0  0  0  0
  149.5682  135.6664  154.1092 H   0  0  0  0  0  0  0  0  0  0  0  0
  148.6372  137.9367  154.5386 H   0  0  0  0  0  0  0  0  0  0  0  0
  147.6161  137.3040  155.8161 H   0  0  0  0  0  0  0  0  0  0  0  0
  147.5605  136.5174  152.9987 H   0  0  0  0  0  0  0  0  0  0  0  0
  1  2  1  0  0  0  0
  1 29  1  0  0  0  0
  1 30  1  0  0  0  0
  1 31  1  0  0  0  0
  2 28  1  0  0  0  0
  2  3  1  0  0  0  0
  2 57  1  0  0  0  0
  3  4  1  0  0  0  0
  3 32  1  0  0  0  0
  3 33  1  0  0  0  0
  4  5  1  0  0  0  0
  4 34  1  0  0  0  0
  4 35  1  0  0  0  0
  5 27  1  0  0  0  0
  5  6  1  0  0  0  0
  5 36  1  0  0  0  0
  6  7  1  0  0  0  0
  7  8  1  0  0  0  0
  7 37  1  0  0  0  0
  7 38  1  0  0  0  0
  8  9  1  0  0  0  0
  8 39  1  0  0  0  0
  8 40  1  0  0  0  0
  9 10  1  0  0  0  0
  9 27  1  0  0  0  0
 10 15  1  0  0  0  0
 10 11  2  0  0  0  0
 11 12  1  0  0  0  0
 12 13  2  0  0  0  0
 12 41  1  0  0  0  0
 13 14  1  0  0  0  0
 14 18  1  0  0  0  0
 14 15  2  0  0  0  0
 15 16  1  0  0  0  0
 16 17  2  0  0  0  0
 17 18  1  0  0  0  0
 17 42  1  0  0  0  0
 18 19  1  0  0  0  0
 19 20  1  0  0  0  0
 19 43  1  0  0  0  0
 19 44  1  0  0  0  0
 20 26  1  0  0  0  0
 20 21  1  0  0  0  0
 20 22  1  0  0  0  0
 21 45  1  0  0  0  0
 22 23  1  0  0  0  0
 22 46  1  0  0  0  0
 22 47  1  0  0  0  0
 23 24  1  0  0  0  0
 23 48  1  0  0  0  0
 23 49  1  0  0  0  0
 24 25  1  0  0  0  0
 25 26  1  0  0  0  0
 25 50  1  0  0  0  0
 25 51  1  0  0  0  0
 26 52  1  0  0  0  0
 26 53  1  0  0  0  0
 27 28  1  0  0  0  0
 27 54  1  0  0  0  0
 28 55  1  0  0  0  0
 28 56  1  0  0  0  0
M  CHG  1   2   1
M  END
> <s_m_source_file>
AV-unprocessed.smi

> <i_m_source_file_index>
244

> <i_lp_mmshare_version>
43012

> <i_f3d_flags>
0

> <s_epik_input>
W0NIMl0xW0NIMl1OKFtDSDNdKVtDSDJdW0NAQEhdKFtDQEhdMTIpTihbQ0gyXVtDSDJdTzIpYyhuW2NIXW4zKWMoYzM0KW5bY0hdbjRbQ0gyXUM1KFtPSF0pW0NIMl1bQ0gyXU9bQ0gyXVtDSDJdNQ==

> <s_epik_cmdline>
J2VwaWtfcHl0aG9uJywgJy1waCcsICc3LjAnLCAnLXRuJywgJzgnLCAnLW1hJywgJzIwMCcsICctbWV0YWxfYmluZGluZycsICctaW1hZScsICc8aW5maWxlLm1hZT4nLCAnLW9tYWUnLCAnPG91dGZpbGUubWFlPic=

> <r_lp_tautomer_probability>
1

> <r_epik_Ionization_Penalty>
0.0136215

> <r_epik_Ionization_Penalty_Charging>
0.0131385

> <r_epik_Ionization_Penalty_Neutral>
0.000483022

> <r_epik_State_Penalty>
0.0104001

> <r_epik_Charging_Adjusted_Penalty>
0.0235387

> <i_epik_Tot_Q>
1

> <i_epik_Tot_abs_Q>
1

> <r_epik_Metal_State_Penalty>
0.0104469

> <b_epik_Metal_Only>
0

> <s_lp_Force_Field>
OPLS_2005

> <r_lp_Energy>
42.2984

> <b_lp_Chiralities_Consistent>
1

> <s_lp_Variant>
AV-unprocessed.smi:244-8

> <Gold.Version>
5.8.1

> <Gold.Id.Protein>
6NUR|6NUR_protein|mol2

> <Gold.PLP.Fitness>
49.0297

> <Gold.PLP.PLP>
-39.7462

> <Gold.PLP.part.hbond>
-3.4577

> <Gold.PLP.part.metal>
0.0000

> <Gold.PLP.part.buried>
-3.3551

> <Gold.PLP.part.nonpolar>
-33.3253

> <Gold.PLP.part.repulsive>
0.1536

> <Gold.PLP.ligand.clash>
0.0000

> <Gold.PLP.ligand.torsion>
0.7594

> <Gold.PLP.Chemscore.Hbond>
3.5627

> <Gold.PLP.Chemscore.CHOScore>
0.0000

> <Gold.PLP.Chemscore.Metal>
0.0000

> <Gold.Chemscore.Hbonds>
donor molecule, donor type, donor heavy atom, donor atom, acceptor molecule, acceptor atom, score
      L1  H     2    57       P1  7948  2.00
      P1  H  7989  7998       L1    13  0.07
      P1  H  7997  8010       L1    13  0.48
      P1  H 10752 10764       L1    11  0.90

> <Gold.PLP.Chemscore.Internal.Correction>
0.1141

> <Gold.Rescore>
     Score         DG    S(hbond)    S(metal)    S(lipo)     H(rot)  DE(clash)    DE(int)     intcor
     14.78     -18.64       2.26        0.00      93.64       2.09       0.07       3.79       ----

> <Gold.Chemscore.Fitness>
14.7791

> <Gold.Chemscore.DG>
-18.6420

> <Gold.Chemscore.ZeroCoef>
-5.4800

> <Gold.Chemscore.Hbond>
2.2634

> <Gold.Chemscore.Metal>
0.0000

> <Gold.Chemscore.Lipo>
93.6364

> <Gold.Chemscore.Internal_Hbond>
0.0000

> <Gold.Chemscore.DEClash>
0.0743

> <Gold.Chemscore.DEInternal>
3.7886

> <Gold.Chemscore.Rot>
2.0911

> <Gold.Chemscore.Internal.Correction>
   9.000000E+99

> <Gold.Chemscore.Hbonds>
donor molecule, donor type, donor heavy atom, donor atom, acceptor molecule, acceptor atom, score
      L1  H     2    57       P1  7948  1.00
      P1  H  7989  7998       L1    13  0.01
      P1  H  7997  8010       L1    13  0.08
      P1  H 10752 10764       L1    11  0.74

> <Gold.Chemscore.Hbond.Weighted>
-7.5596

> <Gold.Chemscore.Metal.Weighted>
-0.0000

> <Gold.Chemscore.Lipo.Weighted>
-10.9555

> <Gold.Chemscore.Internal_Hbond.Weighted>
0.0000

> <Gold.Chemscore.DEClash.Weighted>
0.0743

> <Gold.Chemscore.DEInternal.Weighted>
3.7886

> <Gold.Chemscore.Rot.Weighted>
5.3531

> <Gold.Chemscore.Internal.Correction.Weighted>
   9.000000E+99

> <Gold.Protein.RotatedTorsions>
[ 6907 6896 6895 6894 ] final   59.73 input  -60.11 | X-H torsion
[ 7974 7965 7964 7962 ] final   11.21 input  175.53 | X-H torsion
[ 8008 7997 7996 7995 ] final   84.92 input   59.86 | X-H torsion
[ 10167 10162 10161 10158 ] final   44.55 input  -65.29 | X-H torsion
[ 10718 10713 10712 10709 ] final -111.23 input   66.30 | X-H torsion
[ 10763 10752 10751 10750 ] final  -59.76 input  -60.55 | X-H torsion
[ 11005 11000 10999 10996 ] final -169.76 input  -57.11 | X-H torsion

> <Gold.Protein.ActiveResidues>
 VAL166  LYS551  ARG553  GLY616  TRP617  ASP618  TYR619  PRO620  LYS621  CYS622 
 ASP623  PHE694  ASN695  SER759  ASP760  ASP761  ALA762  ILE779  LEU786  VAL792 
 PHE793  MET794  SER795  GLU796  ALA797  LYS798  CYS799  TRP800  GLU811  SER814 

> <Gold.Protein.RotatedAtoms>
  152.3941  134.6394  160.0095 H   0  0  0  0  0  0  0  0  0  0  0  0  # atno 6907 bound_to 6896
  151.6619  133.3311  159.3184 H   0  0  0  0  0  0  0  0  0  0  0  0  # atno 6908 bound_to 6896
  150.7851  134.6873  159.6522 H   0  0  0  0  0  0  0  0  0  0  0  0  # atno 6909 bound_to 6896
  146.2375  139.9519  142.8469 H   0  0  0  0  0  0  0  0  0  0  0  0  # atno 7974 bound_to 7965
  155.9434  140.3406  155.6346 H   0  0  0  0  0  0  0  0  0  0  0  0  # atno 8008 bound_to 7997
  155.7011  140.0760  157.2428 H   0  0  0  0  0  0  0  0  0  0  0  0  # atno 8009 bound_to 7997
  154.4107  140.1640  156.2180 H   0  0  0  0  0  0  0  0  0  0  0  0  # atno 8010 bound_to 7997
  140.3332  144.2563  150.6165 H   0  0  0  0  0  0  0  0  0  0  0  0  # atno 10167 bound_to 10162
  156.0635  130.5857  150.8345 H   0  0  0  0  0  0  0  0  0  0  0  0  # atno 10718 bound_to 10713
  154.2587  135.6312  153.5266 H   0  0  0  0  0  0  0  0  0  0  0  0  # atno 10763 bound_to 10752
  152.9899  135.5582  154.5728 H   0  0  0  0  0  0  0  0  0  0  0  0  # atno 10764 bound_to 10752
  154.5272  135.2886  155.1187 H   0  0  0  0  0  0  0  0  0  0  0  0  # atno 10765 bound_to 10752
  140.5271  134.5652  157.5064 H   0  0  0  0  0  0  0  0  0  0  0  0  # atno 11005 bound_to 11000
  145.1853  140.9786  143.4242 LP  0  0  0  0  0  0  0  0  0  0  0  0  # atno 17320 bound_to 7965
  144.9906  139.3693  143.6217 LP  0  0  0  0  0  0  0  0  0  0  0  0  # atno 17321 bound_to 7965
  140.5378  143.2229  151.8134 LP  0  0  0  0  0  0  0  0  0  0  0  0  # atno 17342 bound_to 10162
  139.4853  144.4639  151.9508 LP  0  0  0  0  0  0  0  0  0  0  0  0  # atno 17343 bound_to 10162
  157.5661  131.0946  150.9487 LP  0  0  0  0  0  0  0  0  0  0  0  0  # atno 17370 bound_to 10713
  156.9714  130.5492  149.5291 LP  0  0  0  0  0  0  0  0  0  0  0  0  # atno 17371 bound_to 10713
  139.9574  134.7511  156.0312 LP  0  0  0  0  0  0  0  0  0  0  0  0  # atno 17394 bound_to 11000
  141.1302  133.6588  156.3443 LP  0  0  0  0  0  0  0  0  0  0  0  0  # atno 17395 bound_to 11000

$$$$
