AV-unprocessed.smi:148|AV-procd|sdf|1227|dock10
  -GOLD-   2262018423D 1   1.00000     0.00000
 Structure written by MMmdl.
 63 67  0  0  0  0  0  0  0  0  1 V2000
  149.7101  141.9029  156.3128 O   0  0  0  0  0  0  0  0  0  0  0  0
  150.9620  141.2488  156.3159 C   0  0  0  0  0  0  0  0  0  0  0  0
  151.2871  140.6916  157.7220 C   0  0  1  0  0  0  0  0  0  0  0  0
  151.7423  139.2136  157.6229 C   0  0  0  0  0  0  0  0  0  0  0  0
  150.9034  138.3001  158.3789 N   0  0  0  0  0  0  0  0  0  0  0  0
  151.3110  137.4584  159.3896 C   0  0  0  0  0  0  0  0  0  0  0  0
  150.3678  136.7303  159.9230 N   0  0  0  0  0  0  0  0  0  0  0  0
  149.2248  137.1033  159.2283 C   0  0  0  0  0  0  0  0  0  0  0  0
  147.8605  136.7198  159.2969 C   0  0  0  0  0  0  0  0  0  0  0  0
  147.4232  135.7932  160.1771 N   0  0  0  0  0  0  0  0  0  0  0  0
  147.4480  136.3528  161.5306 C   0  0  0  0  0  0  0  0  0  0  0  0
  146.7035  135.4544  162.5219 C   0  0  0  0  0  0  0  0  0  0  0  0
  147.2972  134.0460  162.4882 C   0  0  0  0  0  0  0  0  0  0  0  0
  147.2508  133.4970  161.0566 C   0  0  0  0  0  0  0  0  0  0  0  0
  147.9579  134.4231  160.0292 C   0  0  1  0  0  0  0  0  0  0  0  0
  147.8058  133.8395  158.5799 C   0  0  2  0  0  0  0  0  0  0  0  0
  148.0795  132.3292  158.4516 C   0  0  0  0  0  0  0  0  0  0  0  0
  148.2936  132.0535  156.9595 C   0  0  0  0  0  0  0  0  0  0  0  0
  148.6211  133.4065  156.3188 C   0  0  0  0  0  0  0  0  0  0  0  0
  148.7172  134.4141  157.4702 C   0  0  2  0  0  0  0  0  0  0  0  0
  150.0644  134.4894  157.8987 O   0  0  0  0  0  0  0  0  0  0  0  0
  146.9869  137.3062  158.4357 N   0  0  0  0  0  0  0  0  0  0  0  0
  147.4238  138.2255  157.5693 C   0  0  0  0  0  0  0  0  0  0  0  0
  148.6640  138.6897  157.3990 N   0  0  0  0  0  0  0  0  0  0  0  0
  149.5407  138.0927  158.2568 C   0  0  0  0  0  0  0  0  0  0  0  0
  152.2927  141.5643  158.5266 C   0  0  1  0  0  0  0  0  0  0  0  0
  151.9741  143.0441  158.6326 C   0  0  0  0  0  0  0  0  0  0  0  0
  152.9248  143.4775  159.7433 C   0  0  0  0  0  0  0  0  0  0  0  0
  153.0305  142.3588  160.6199 O   0  0  0  0  0  0  0  0  0  0  0  0
  152.4950  141.1927  159.9988 C   0  0  0  0  0  0  0  0  0  0  0  0
  149.8514  142.8239  156.1541 H   0  0  0  0  0  0  0  0  0  0  0  0
  150.9452  140.4529  155.5711 H   0  0  0  0  0  0  0  0  0  0  0  0
  151.7016  141.9765  155.9880 H   0  0  0  0  0  0  0  0  0  0  0  0
  150.3569  140.7039  158.2923 H   0  0  0  0  0  0  0  0  0  0  0  0
  151.7348  138.8781  156.5855 H   0  0  0  0  0  0  0  0  0  0  0  0
  152.7718  139.1124  157.9682 H   0  0  0  0  0  0  0  0  0  0  0  0
  152.3385  137.3998  159.7187 H   0  0  0  0  0  0  0  0  0  0  0  0
  148.4821  136.4762  161.8564 H   0  0  0  0  0  0  0  0  0  0  0  0
  146.9937  137.3451  161.5327 H   0  0  0  0  0  0  0  0  0  0  0  0
  146.7698  135.8686  163.5283 H   0  0  0  0  0  0  0  0  0  0  0  0
  145.6438  135.4182  162.2658 H   0  0  0  0  0  0  0  0  0  0  0  0
  148.3283  134.0683  162.8432 H   0  0  0  0  0  0  0  0  0  0  0  0
  146.7467  133.3893  163.1625 H   0  0  0  0  0  0  0  0  0  0  0  0
  147.7075  132.5080  161.0666 H   0  0  0  0  0  0  0  0  0  0  0  0
  146.2096  133.3545  160.7629 H   0  0  0  0  0  0  0  0  0  0  0  0
  149.0158  134.4486  160.2937 H   0  0  0  0  0  0  0  0  0  0  0  0
  146.7710  133.9941  158.2684 H   0  0  0  0  0  0  0  0  0  0  0  0
  148.9899  132.0716  158.9948 H   0  0  0  0  0  0  0  0  0  0  0  0
  147.2709  131.7199  158.8565 H   0  0  0  0  0  0  0  0  0  0  0  0
  149.0970  131.3321  156.8081 H   0  0  0  0  0  0  0  0  0  0  0  0
  147.3912  131.6362  156.5115 H   0  0  0  0  0  0  0  0  0  0  0  0
  149.5264  133.3725  155.7108 H   0  0  0  0  0  0  0  0  0  0  0  0
  147.8032  133.6931  155.6566 H   0  0  0  0  0  0  0  0  0  0  0  0
  148.4052  135.3972  157.1234 H   0  0  0  0  0  0  0  0  0  0  0  0
  150.5354  135.0539  157.3045 H   0  0  0  0  0  0  0  0  0  0  0  0
  146.6718  138.6519  156.9219 H   0  0  0  0  0  0  0  0  0  0  0  0
  153.2775  141.4767  158.0662 H   0  0  0  0  0  0  0  0  0  0  0  0
  152.1375  143.5897  157.7036 H   0  0  0  0  0  0  0  0  0  0  0  0
  150.9440  143.2070  158.9491 H   0  0  0  0  0  0  0  0  0  0  0  0
  153.9130  143.6912  159.3336 H   0  0  0  0  0  0  0  0  0  0  0  0
  152.5765  144.3667  160.2687 H   0  0  0  0  0  0  0  0  0  0  0  0
  151.5587  140.9535  160.4994 H   0  0  0  0  0  0  0  0  0  0  0  0
  153.1636  140.3402  160.1203 H   0  0  0  0  0  0  0  0  0  0  0  0
  1  2  1  0  0  0  0
  1 31  1  0  0  0  0
  2  3  1  0  0  0  0
  2 32  1  0  0  0  0
  2 33  1  0  0  0  0
  3  4  1  0  0  0  0
  3 26  1  0  0  0  0
  3 34  1  0  0  0  0
  4  5  1  0  0  0  0
  4 35  1  0  0  0  0
  4 36  1  0  0  0  0
  5 25  1  0  0  0  0
  5  6  1  0  0  0  0
  6  7  2  0  0  0  0
  6 37  1  0  0  0  0
  7  8  1  0  0  0  0
  8 25  2  0  0  0  0
  8  9  1  0  0  0  0
  9 10  1  0  0  0  0
  9 22  2  0  0  0  0
 10 15  1  0  0  0  0
 10 11  1  0  0  0  0
 11 12  1  0  0  0  0
 11 38  1  0  0  0  0
 11 39  1  0  0  0  0
 12 13  1  0  0  0  0
 12 40  1  0  0  0  0
 12 41  1  0  0  0  0
 13 14  1  0  0  0  0
 13 42  1  0  0  0  0
 13 43  1  0  0  0  0
 14 15  1  0  0  0  0
 14 44  1  0  0  0  0
 14 45  1  0  0  0  0
 15 16  1  0  0  0  0
 15 46  1  0  0  0  0
 16 20  1  0  0  0  0
 16 17  1  0  0  0  0
 16 47  1  0  0  0  0
 17 18  1  0  0  0  0
 17 48  1  0  0  0  0
 17 49  1  0  0  0  0
 18 19  1  0  0  0  0
 18 50  1  0  0  0  0
 18 51  1  0  0  0  0
 19 20  1  0  0  0  0
 19 52  1  0  0  0  0
 19 53  1  0  0  0  0
 20 21  1  0  0  0  0
 20 54  1  0  0  0  0
 21 55  1  0  0  0  0
 22 23  1  0  0  0  0
 23 24  2  0  0  0  0
 23 56  1  0  0  0  0
 24 25  1  0  0  0  0
 26 30  1  0  0  0  0
 26 27  1  0  0  0  0
 26 57  1  0  0  0  0
 27 28  1  0  0  0  0
 27 58  1  0  0  0  0
 27 59  1  0  0  0  0
 28 29  1  0  0  0  0
 28 60  1  0  0  0  0
 28 61  1  0  0  0  0
 29 30  1  0  0  0  0
 30 62  1  0  0  0  0
 30 63  1  0  0  0  0
M  END
> <s_m_source_file>
AV-unprocessed.smi

> <i_m_source_file_index>
148

> <i_lp_mmshare_version>
43012

> <i_f3d_flags>
0

> <s_epik_input>
W0NIMl0xT1tDSDJdW0NIMl1bQ0BIXTFbQ0BIXShbQ0gyXVtPSF0pW0NIMl1uKFtjSF1uMiljKGMyMyluW2NIXW5jM040W0NIMl1bQ0gyXVtDSDJdW0NIMl1bQ0BIXTRbQ0BASF01W0NIMl1bQ0gyXVtDSDJdW0NASF01W09IXQ==

> <s_epik_cmdline>
J2VwaWtfcHl0aG9uJywgJy1waCcsICc3LjAnLCAnLXRuJywgJzgnLCAnLW1hJywgJzIwMCcsICctbWV0YWxfYmluZGluZycsICctaW1hZScsICc8aW5maWxlLm1hZT4nLCAnLW9tYWUnLCAnPG91dGZpbGUubWFlPic=

> <r_lp_tautomer_probability>
1

> <r_epik_Ionization_Penalty>
0.00556303

> <r_epik_Ionization_Penalty_Charging>
0

> <r_epik_Ionization_Penalty_Neutral>
0.00556303

> <r_epik_State_Penalty>
0.00401767

> <r_epik_Charging_Adjusted_Penalty>
0.00401767

> <i_epik_Tot_Q>
0

> <i_epik_Tot_abs_Q>
0

> <r_epik_Metal_State_Penalty>
-0

> <b_epik_Metal_Only>
0

> <s_lp_Force_Field>
OPLS_2005

> <r_lp_Energy>
69.6846

> <b_lp_Chiralities_Consistent>
1

> <s_lp_Variant>
AV-unprocessed.smi:148-26

> <Gold.Version>
5.8.1

> <Gold.Id.Protein>
6NUR|6NUR_protein|mol2

> <Gold.PLP.Fitness>
50.4240

> <Gold.PLP.PLP>
-45.7406

> <Gold.PLP.part.hbond>
-3.2106

> <Gold.PLP.part.metal>
0.0000

> <Gold.PLP.part.buried>
-7.9220

> <Gold.PLP.part.nonpolar>
-35.5036

> <Gold.PLP.part.repulsive>
0.0000

> <Gold.PLP.ligand.clash>
0.0000

> <Gold.PLP.ligand.torsion>
1.7182

> <Gold.PLP.Chemscore.Hbond>
2.4800

> <Gold.PLP.Chemscore.CHOScore>
0.0000

> <Gold.PLP.Chemscore.Metal>
0.0000

> <Gold.Chemscore.Hbonds>
donor molecule, donor type, donor heavy atom, donor atom, acceptor molecule, acceptor atom, score
      L1  H     1    31       P1  8028  0.55
      P1  H  6896  6908       L1    21  0.53
      P1  H  6896  6909       L1     7  0.80

> <Gold.PLP.Chemscore.Internal.Correction>
0.6798

> <Gold.Rescore>
     Score         DG    S(hbond)    S(metal)    S(lipo)     H(rot)  DE(clash)    DE(int)     intcor
     15.64     -17.93       2.48        0.00     108.19       3.32       0.01       2.28       ----

> <Gold.Chemscore.Fitness>
15.6359

> <Gold.Chemscore.DG>
-17.9264

> <Gold.Chemscore.ZeroCoef>
-5.4800

> <Gold.Chemscore.Hbond>
2.4814

> <Gold.Chemscore.Metal>
0.0000

> <Gold.Chemscore.Lipo>
108.1920

> <Gold.Chemscore.Internal_Hbond>
0.0000

> <Gold.Chemscore.DEClash>
0.0075

> <Gold.Chemscore.DEInternal>
2.2831

> <Gold.Chemscore.Rot>
3.3203

> <Gold.Chemscore.Internal.Correction>
   9.000000E+99

> <Gold.Chemscore.Hbonds>
donor molecule, donor type, donor heavy atom, donor atom, acceptor molecule, acceptor atom, score
      L1  H     1    31       P1  8028  0.53
      P1  H  6896  6908       L1    21  0.51
      P1  H  6896  6909       L1     7  0.12

> <Gold.Chemscore.Hbond.Weighted>
-8.2880

> <Gold.Chemscore.Metal.Weighted>
-0.0000

> <Gold.Chemscore.Lipo.Weighted>
-12.6585

> <Gold.Chemscore.Internal_Hbond.Weighted>
0.0000

> <Gold.Chemscore.DEClash.Weighted>
0.0075

> <Gold.Chemscore.DEInternal.Weighted>
2.2831

> <Gold.Chemscore.Rot.Weighted>
8.5000

> <Gold.Chemscore.Internal.Correction.Weighted>
   9.000000E+99

> <Gold.Protein.RotatedTorsions>
[ 6907 6896 6895 6894 ] final  108.09 input  -60.11 | X-H torsion
[ 7974 7965 7964 7962 ] final -152.10 input  175.53 | X-H torsion
[ 8008 7997 7996 7995 ] final   96.00 input   59.86 | X-H torsion
[ 10167 10162 10161 10158 ] final -119.72 input  -65.29 | X-H torsion
[ 10718 10713 10712 10709 ] final  143.76 input   66.30 | X-H torsion
[ 10763 10752 10751 10750 ] final  -78.04 input  -60.55 | X-H torsion
[ 11005 11000 10999 10996 ] final  102.66 input  -57.11 | X-H torsion

> <Gold.Protein.ActiveResidues>
 VAL166  LYS551  ARG553  GLY616  TRP617  ASP618  TYR619  PRO620  LYS621  CYS622 
 ASP623  PHE694  ASN695  SER759  ASP760  ASP761  ALA762  ILE779  LEU786  VAL792 
 PHE793  MET794  SER795  GLU796  ALA797  LYS798  CYS799  TRP800  GLU811  SER814 

> <Gold.Protein.RotatedAtoms>
  152.5127  133.9140  159.7501 H   0  0  0  0  0  0  0  0  0  0  0  0  # atno 6907 bound_to 6896
  150.9527  133.6523  159.2776 H   0  0  0  0  0  0  0  0  0  0  0  0  # atno 6908 bound_to 6896
  151.3796  135.0942  159.9544 H   0  0  0  0  0  0  0  0  0  0  0  0  # atno 6909 bound_to 6896
  144.7813  140.4708  143.5837 H   0  0  0  0  0  0  0  0  0  0  0  0  # atno 7974 bound_to 7965
  156.0749  140.3279  155.7621 H   0  0  0  0  0  0  0  0  0  0  0  0  # atno 8008 bound_to 7997
  155.5246  140.0588  157.2917 H   0  0  0  0  0  0  0  0  0  0  0  0  # atno 8009 bound_to 7997
  154.4550  140.1938  156.0424 H   0  0  0  0  0  0  0  0  0  0  0  0  # atno 8010 bound_to 7997
  140.0436  143.5129  152.2118 H   0  0  0  0  0  0  0  0  0  0  0  0  # atno 10167 bound_to 10162
  157.3651  131.0971  151.0880 H   0  0  0  0  0  0  0  0  0  0  0  0  # atno 10718 bound_to 10713
  154.5207  135.5743  153.6678 H   0  0  0  0  0  0  0  0  0  0  0  0  # atno 10763 bound_to 10752
  152.9916  135.6181  154.2758 H   0  0  0  0  0  0  0  0  0  0  0  0  # atno 10764 bound_to 10752
  154.2679  135.2854  155.2730 H   0  0  0  0  0  0  0  0  0  0  0  0  # atno 10765 bound_to 10752
  139.8779  134.9233  156.5092 H   0  0  0  0  0  0  0  0  0  0  0  0  # atno 11005 bound_to 11000
  145.6043  139.1507  143.3111 LP  0  0  0  0  0  0  0  0  0  0  0  0  # atno 17320 bound_to 7965
  146.2022  140.6163  142.9097 LP  0  0  0  0  0  0  0  0  0  0  0  0  # atno 17321 bound_to 7965
  139.5998  144.7579  151.3199 LP  0  0  0  0  0  0  0  0  0  0  0  0  # atno 17342 bound_to 10162
  140.7249  143.7032  150.7828 LP  0  0  0  0  0  0  0  0  0  0  0  0  # atno 17343 bound_to 10162
  157.2005  130.6392  149.5737 LP  0  0  0  0  0  0  0  0  0  0  0  0  # atno 17370 bound_to 10713
  155.9744  130.4692  150.6388 LP  0  0  0  0  0  0  0  0  0  0  0  0  # atno 17371 bound_to 10713
  140.8533  133.8115  155.9190 LP  0  0  0  0  0  0  0  0  0  0  0  0  # atno 17394 bound_to 11000
  140.9123  134.2245  157.4978 LP  0  0  0  0  0  0  0  0  0  0  0  0  # atno 17395 bound_to 11000

$$$$
