AV-unprocessed.smi:791|AV-procd|sdf|3748|dock4
  -GOLD-   22720 1183D 1   1.00000     0.00000
 Structure written by MMmdl.
 30 32  0  0  0  0  0  0  0  0  2 V2000
  146.5082  141.2776  154.7577 C   0  0  0  0  0  0  0  0  0  0  0  0
  147.3850  141.1520  153.5003 C   0  0  0  0  0  0  0  0  0  0  0  0
  148.6477  140.4461  153.8101 N   0  3  0  0  0  0  0  0  0  0  0  0
  149.4391  141.1131  154.8675 C   0  0  0  0  0  0  0  0  0  0  0  0
  148.6114  141.2676  156.1590 C   0  0  1  0  0  0  0  0  0  0  0  0
  149.3957  141.9259  157.2518 C   0  0  0  0  0  0  0  0  0  0  0  0
  148.9164  142.0099  158.4872 N   0  0  0  0  0  0  0  0  0  0  0  0
  149.9398  142.6624  159.1892 O   0  0  0  0  0  0  0  0  0  0  0  0
  150.9127  142.9081  158.2801 C   0  0  0  0  0  0  0  0  0  0  0  0
  152.1669  143.5755  158.7314 C   0  0  0  0  0  0  0  0  0  0  0  0
  152.1292  144.9565  159.3439 C   0  0  0  0  0  0  0  0  0  0  0  0
  152.7323  144.7570  157.9766 C   0  0  0  0  0  0  0  0  0  0  0  0
  150.6402  142.4469  157.0621 N   0  0  0  0  0  0  0  0  0  0  0  0
  147.2707  141.9789  155.8924 C   0  0  0  0  0  0  0  0  0  0  0  0
  146.1932  140.2860  155.0856 H   0  0  0  0  0  0  0  0  0  0  0  0
  145.5974  141.8299  154.5243 H   0  0  0  0  0  0  0  0  0  0  0  0
  146.8532  140.6052  152.7214 H   0  0  0  0  0  0  0  0  0  0  0  0
  147.6147  142.1389  153.0966 H   0  0  0  0  0  0  0  0  0  0  0  0
  148.4246  139.5103  154.1181 H   0  0  0  0  0  0  0  0  0  0  0  0
  150.3378  140.5260  155.0592 H   0  0  0  0  0  0  0  0  0  0  0  0
  149.7664  142.0877  154.5024 H   0  0  0  0  0  0  0  0  0  0  0  0
  148.3687  140.2592  156.5004 H   0  0  0  0  0  0  0  0  0  0  0  0
  152.8639  142.8507  159.1475 H   0  0  0  0  0  0  0  0  0  0  0  0
  151.1654  145.4587  159.3994 H   0  0  0  0  0  0  0  0  0  0  0  0
  152.8097  145.1597  160.1682 H   0  0  0  0  0  0  0  0  0  0  0  0
  153.8147  144.8257  157.8895 H   0  0  0  0  0  0  0  0  0  0  0  0
  152.1705  145.1303  157.1225 H   0  0  0  0  0  0  0  0  0  0  0  0
  147.4477  143.0199  155.6181 H   0  0  0  0  0  0  0  0  0  0  0  0
  146.6625  141.9943  156.7976 H   0  0  0  0  0  0  0  0  0  0  0  0
  149.2063  140.3875  152.9706 H   0  0  0  0  0  0  0  0  0  0  0  0
  1 14  1  0  0  0  0
  1  2  1  0  0  0  0
  1 15  1  0  0  0  0
  1 16  1  0  0  0  0
  2  3  1  0  0  0  0
  2 17  1  0  0  0  0
  2 18  1  0  0  0  0
  3  4  1  0  0  0  0
  3 19  1  0  0  0  0
  3 30  1  0  0  0  0
  4  5  1  0  0  0  0
  4 20  1  0  0  0  0
  4 21  1  0  0  0  0
  5  6  1  0  0  0  0
  5 14  1  0  0  0  0
  5 22  1  0  0  0  0
  6 13  1  0  0  0  0
  6  7  2  0  0  0  0
  7  8  1  0  0  0  0
  8  9  1  0  0  0  0
  9 10  1  0  0  0  0
  9 13  2  0  0  0  0
 10 12  1  0  0  0  0
 10 11  1  0  0  0  0
 10 23  1  0  0  0  0
 11 12  1  0  0  0  0
 11 24  1  0  0  0  0
 11 25  1  0  0  0  0
 12 26  1  0  0  0  0
 12 27  1  0  0  0  0
 14 28  1  0  0  0  0
 14 29  1  0  0  0  0
M  CHG  1   3   1
M  END
> <s_m_source_file>
AV-unprocessed.smi

> <i_m_source_file_index>
791

> <i_lp_mmshare_version>
43012

> <i_f3d_flags>
0

> <s_epik_input>
W0NIMl0xW0NIMl1bQ0gyXVtOSF1bQ0gyXVtDQEhdMWMybm9jKG4yKVtDSF0zW0NIMl1bQ0gyXTM=

> <s_epik_cmdline>
J2VwaWtfcHl0aG9uJywgJy1waCcsICc3LjAnLCAnLXRuJywgJzgnLCAnLW1hJywgJzIwMCcsICctbWV0YWxfYmluZGluZycsICctaW1hZScsICc8aW5maWxlLm1hZT4nLCAnLW9tYWUnLCAnPG91dGZpbGUubWFlPic=

> <r_lp_tautomer_probability>
1

> <r_epik_Ionization_Penalty>
0.000532935

> <r_epik_Ionization_Penalty_Charging>
0.000532935

> <r_epik_Ionization_Penalty_Neutral>
2.72852e-13

> <r_epik_State_Penalty>
0.000332992

> <r_epik_Charging_Adjusted_Penalty>
0.000865928

> <i_epik_Tot_Q>
1

> <i_epik_Tot_abs_Q>
1

> <r_epik_Metal_State_Penalty>
-0

> <b_epik_Metal_Only>
0

> <s_lp_Force_Field>
OPLS_2005

> <r_lp_Energy>
11.8714

> <b_lp_Chiralities_Consistent>
1

> <s_lp_Variant>
AV-unprocessed.smi:791-1

> <Gold.Version>
5.8.1

> <Gold.Id.Protein>
6NUR|6NUR_protein|mol2

> <Gold.PLP.Fitness>
32.7679

> <Gold.PLP.PLP>
-29.8853

> <Gold.PLP.part.hbond>
-2.2272

> <Gold.PLP.part.metal>
0.0000

> <Gold.PLP.part.buried>
-4.2801

> <Gold.PLP.part.nonpolar>
-23.4939

> <Gold.PLP.part.repulsive>
0.4238

> <Gold.PLP.ligand.clash>
0.0000

> <Gold.PLP.ligand.torsion>
0.1471

> <Gold.PLP.Chemscore.Hbond>
1.0000

> <Gold.PLP.Chemscore.CHOScore>
0.0000

> <Gold.PLP.Chemscore.Metal>
0.0000

> <Gold.Chemscore.Hbonds>
donor molecule, donor type, donor heavy atom, donor atom, acceptor molecule, acceptor atom, score
      L1  H     3    30       P1  7957  1.00

> <Gold.PLP.Chemscore.Internal.Correction>
0.1769

> <Gold.Rescore>
     Score         DG    S(hbond)    S(metal)    S(lipo)     H(rot)  DE(clash)    DE(int)     intcor
     13.63     -13.90       0.99        0.00      70.56       1.23       0.09       0.19       ----

> <Gold.Chemscore.Fitness>
13.6266

> <Gold.Chemscore.DG>
-13.9032

> <Gold.Chemscore.ZeroCoef>
-5.4800

> <Gold.Chemscore.Hbond>
0.9937

> <Gold.Chemscore.Metal>
0.0000

> <Gold.Chemscore.Lipo>
70.5641

> <Gold.Chemscore.Internal_Hbond>
0.0000

> <Gold.Chemscore.DEClash>
0.0881

> <Gold.Chemscore.DEInternal>
0.1884

> <Gold.Chemscore.Rot>
1.2312

> <Gold.Chemscore.Internal.Correction>
   9.000000E+99

> <Gold.Chemscore.Hbonds>
donor molecule, donor type, donor heavy atom, donor atom, acceptor molecule, acceptor atom, score
      L1  H     3    30       P1  7957  0.99

> <Gold.Chemscore.Hbond.Weighted>
-3.3190

> <Gold.Chemscore.Metal.Weighted>
-0.0000

> <Gold.Chemscore.Lipo.Weighted>
-8.2560

> <Gold.Chemscore.Internal_Hbond.Weighted>
0.0000

> <Gold.Chemscore.DEClash.Weighted>
0.0881

> <Gold.Chemscore.DEInternal.Weighted>
0.1884

> <Gold.Chemscore.Rot.Weighted>
3.1518

> <Gold.Chemscore.Internal.Correction.Weighted>
   9.000000E+99

> <Gold.Protein.RotatedTorsions>
[ 6907 6896 6895 6894 ] final   35.04 input  -60.11 | X-H torsion
[ 7974 7965 7964 7962 ] final   61.44 input  175.53 | X-H torsion
[ 8008 7997 7996 7995 ] final -165.53 input   59.86 | X-H torsion
[ 10167 10162 10161 10158 ] final   17.16 input  -65.29 | X-H torsion
[ 10718 10713 10712 10709 ] final   40.57 input   66.30 | X-H torsion
[ 10763 10752 10751 10750 ] final  -87.34 input  -60.55 | X-H torsion
[ 11005 11000 10999 10996 ] final   66.84 input  -57.11 | X-H torsion

> <Gold.Protein.ActiveResidues>
 VAL166  LYS551  ARG553  GLY616  TRP617  ASP618  TYR619  PRO620  LYS621  CYS622 
 ASP623  PHE694  ASN695  SER759  ASP760  ASP761  ALA762  ILE779  LEU786  VAL792 
 PHE793  MET794  SER795  GLU796  ALA797  LYS798  CYS799  TRP800  GLU811  SER814 

> <Gold.Protein.RotatedAtoms>
  152.1107  134.9277  160.0566 H   0  0  0  0  0  0  0  0  0  0  0  0  # atno 6907 bound_to 6896
  152.0455  133.3991  159.4363 H   0  0  0  0  0  0  0  0  0  0  0  0  # atno 6908 bound_to 6896
  150.6843  134.3287  159.4861 H   0  0  0  0  0  0  0  0  0  0  0  0  # atno 6909 bound_to 6896
  145.8847  139.3468  143.0685 H   0  0  0  0  0  0  0  0  0  0  0  0  # atno 7974 bound_to 7965
  155.8512  140.0963  157.1674 H   0  0  0  0  0  0  0  0  0  0  0  0  # atno 8008 bound_to 7997
  154.3985  140.1383  156.3908 H   0  0  0  0  0  0  0  0  0  0  0  0  # atno 8009 bound_to 7997
  155.7959  140.3454  155.5378 H   0  0  0  0  0  0  0  0  0  0  0  0  # atno 8010 bound_to 7997
  140.5746  143.9097  150.6740 H   0  0  0  0  0  0  0  0  0  0  0  0  # atno 10167 bound_to 10162
  157.3837  130.7767  149.7213 H   0  0  0  0  0  0  0  0  0  0  0  0  # atno 10718 bound_to 10713
  154.6325  135.5417  153.7696 H   0  0  0  0  0  0  0  0  0  0  0  0  # atno 10763 bound_to 10752
  153.0291  135.6439  154.1280 H   0  0  0  0  0  0  0  0  0  0  0  0  # atno 10764 bound_to 10752
  154.1209  135.2920  155.3188 H   0  0  0  0  0  0  0  0  0  0  0  0  # atno 10765 bound_to 10752
  139.9807  134.6749  156.0268 H   0  0  0  0  0  0  0  0  0  0  0  0  # atno 11005 bound_to 11000
  145.8981  140.9260  143.0517 LP  0  0  0  0  0  0  0  0  0  0  0  0  # atno 17320 bound_to 7965
  144.6728  140.0996  143.7461 LP  0  0  0  0  0  0  0  0  0  0  0  0  # atno 17321 bound_to 7965
  140.2581  143.3544  152.1347 LP  0  0  0  0  0  0  0  0  0  0  0  0  # atno 17342 bound_to 10162
  139.5136  144.6934  151.5696 LP  0  0  0  0  0  0  0  0  0  0  0  0  # atno 17343 bound_to 10162
  155.9781  130.4054  150.3666 LP  0  0  0  0  0  0  0  0  0  0  0  0  # atno 17370 bound_to 10713
  157.1774  131.0383  151.2765 LP  0  0  0  0  0  0  0  0  0  0  0  0  # atno 17371 bound_to 10713
  141.1479  133.6553  156.3923 LP  0  0  0  0  0  0  0  0  0  0  0  0  # atno 17394 bound_to 11000
  140.5103  134.6402  157.5282 LP  0  0  0  0  0  0  0  0  0  0  0  0  # atno 17395 bound_to 11000

$$$$
