AV-unprocessed.smi:1477|AV-procd|sdf|5981|dock6
  -GOLD-   22720 6 73D 1   1.00000     0.00000
 Structure written by MMmdl.
 33 34  0  0  0  0  0  0  0  0  1 V2000
  152.2279  144.9095  158.9696 C   0  0  0  0  0  0  0  0  0  0  0  0
  151.9967  143.4772  158.7676 N   0  0  0  0  0  0  0  0  0  0  0  0
  151.1092  143.0936  157.7447 C   0  0  0  0  0  0  0  0  0  0  0  0
  150.8237  141.8064  157.4752 C   0  0  0  0  0  0  0  0  0  0  0  0
  149.9251  141.5426  156.4315 N   0  0  0  0  0  0  0  0  0  0  0  0
  150.1088  140.8294  155.3027 C   0  0  0  0  0  0  0  0  0  0  0  0
  151.1474  140.2530  154.9848 O   0  0  0  0  0  0  0  0  0  0  0  0
  148.9105  140.7675  154.3554 C   0  0  0  0  0  0  0  0  0  0  0  0
  147.7820  140.2618  155.0528 O   0  0  0  0  0  0  0  0  0  0  0  0
  146.6980  139.9674  154.1890 C   0  0  0  0  0  0  0  0  0  0  0  0
  147.1681  139.0143  153.1111 C   0  0  0  0  0  0  0  0  0  0  0  0
  146.7888  139.2539  151.6672 C   0  0  0  0  0  0  0  0  0  0  0  0
  146.1950  138.0887  152.4163 C   0  0  0  0  0  0  0  0  0  0  0  0
  151.4868  140.8022  158.2951 C   0  0  0  0  0  0  0  0  0  0  0  0
  152.3387  141.1630  159.2752 C   0  0  0  0  0  0  0  0  0  0  0  0
  152.6361  142.5689  159.5593 C   0  0  0  0  0  0  0  0  0  0  0  0
  153.4124  142.9098  160.4524 O   0  0  0  0  0  0  0  0  0  0  0  0
  151.6332  145.5315  158.2999 H   0  0  0  0  0  0  0  0  0  0  0  0
  153.2767  145.1546  158.7970 H   0  0  0  0  0  0  0  0  0  0  0  0
  151.9749  145.1990  159.9904 H   0  0  0  0  0  0  0  0  0  0  0  0
  150.6731  143.9143  157.1930 H   0  0  0  0  0  0  0  0  0  0  0  0
  149.0060  141.9432  156.5523 H   0  0  0  0  0  0  0  0  0  0  0  0
  148.7073  141.7688  153.9732 H   0  0  0  0  0  0  0  0  0  0  0  0
  149.1472  140.1258  153.5049 H   0  0  0  0  0  0  0  0  0  0  0  0
  145.8724  139.5202  154.7455 H   0  0  0  0  0  0  0  0  0  0  0  0
  146.3308  140.8802  153.7178 H   0  0  0  0  0  0  0  0  0  0  0  0
  148.1716  138.6259  153.2748 H   0  0  0  0  0  0  0  0  0  0  0  0
  146.1334  140.0943  151.4470 H   0  0  0  0  0  0  0  0  0  0  0  0
  147.5381  139.0360  150.9089 H   0  0  0  0  0  0  0  0  0  0  0  0
  146.5479  137.0923  152.1583 H   0  0  0  0  0  0  0  0  0  0  0  0
  145.1448  138.1532  152.6943 H   0  0  0  0  0  0  0  0  0  0  0  0
  151.3258  139.7476  158.1444 H   0  0  0  0  0  0  0  0  0  0  0  0
  152.8182  140.3964  159.8659 H   0  0  0  0  0  0  0  0  0  0  0  0
  1  2  1  0  0  0  0
  1 18  1  0  0  0  0
  1 19  1  0  0  0  0
  1 20  1  0  0  0  0
  2 16  1  0  0  0  0
  2  3  1  0  0  0  0
  3  4  2  0  0  0  0
  3 21  1  0  0  0  0
  4  5  1  0  0  0  0
  4 14  1  0  0  0  0
  5  6  1  0  0  0  0
  5 22  1  0  0  0  0
  6  7  2  0  0  0  0
  6  8  1  0  0  0  0
  8  9  1  0  0  0  0
  8 23  1  0  0  0  0
  8 24  1  0  0  0  0
  9 10  1  0  0  0  0
 10 11  1  0  0  0  0
 10 25  1  0  0  0  0
 10 26  1  0  0  0  0
 11 13  1  0  0  0  0
 11 12  1  0  0  0  0
 11 27  1  0  0  0  0
 12 13  1  0  0  0  0
 12 28  1  0  0  0  0
 12 29  1  0  0  0  0
 13 30  1  0  0  0  0
 13 31  1  0  0  0  0
 14 15  2  0  0  0  0
 14 32  1  0  0  0  0
 15 16  1  0  0  0  0
 15 33  1  0  0  0  0
 16 17  2  0  0  0  0
M  END
> <s_m_source_file>
AV-unprocessed.smi

> <i_m_source_file_index>
1477

> <i_lp_mmshare_version>
43012

> <i_f3d_flags>
0

> <s_epik_input>
Tz1jMVtjSF1bY0hdYyhbY0hdbjFbQ0gzXSlbTkhdQyg9TylbQ0gyXU9bQ0gyXVtDSF0yW0NIMl1bQ0gyXTI=

> <s_epik_cmdline>
J2VwaWtfcHl0aG9uJywgJy1waCcsICc3LjAnLCAnLXRuJywgJzgnLCAnLW1hJywgJzIwMCcsICctbWV0YWxfYmluZGluZycsICctaW1hZScsICc8aW5maWxlLm1hZT4nLCAnLW9tYWUnLCAnPG91dGZpbGUubWFlPic=

> <r_lp_tautomer_probability>
1

> <r_epik_Ionization_Penalty>
2.50647e-06

> <r_epik_Ionization_Penalty_Charging>
2.2009e-06

> <r_epik_Ionization_Penalty_Neutral>
3.05566e-07

> <r_epik_State_Penalty>
-0

> <r_epik_Charging_Adjusted_Penalty>
2.2009e-06

> <i_epik_Tot_Q>
0

> <i_epik_Tot_abs_Q>
0

> <r_epik_Metal_State_Penalty>
-0

> <b_epik_Metal_Only>
0

> <s_lp_Force_Field>
OPLS_2005

> <r_lp_Energy>
27.664

> <b_lp_Chiralities_Consistent>
1

> <s_lp_Variant>
AV-unprocessed.smi:1477-1

> <Gold.Version>
5.8.1

> <Gold.Id.Protein>
6NUR|6NUR_protein|mol2

> <Gold.PLP.Fitness>
42.7935

> <Gold.PLP.PLP>
-38.3644

> <Gold.PLP.part.hbond>
-1.0000

> <Gold.PLP.part.metal>
0.0000

> <Gold.PLP.part.buried>
-1.5319

> <Gold.PLP.part.nonpolar>
-35.9565

> <Gold.PLP.part.repulsive>
0.1684

> <Gold.PLP.ligand.clash>
0.0000

> <Gold.PLP.ligand.torsion>
1.0659

> <Gold.PLP.Chemscore.Hbond>
1.0000

> <Gold.PLP.Chemscore.CHOScore>
1.0000

> <Gold.PLP.Chemscore.Metal>
0.0000

> <Gold.Chemscore.Hbonds>
donor molecule, donor type, donor heavy atom, donor atom, acceptor molecule, acceptor atom, score
      P1  H  7989  7998       L1     7  1.00
      L1  C     3    21       P1  8028  1.00

> <Gold.PLP.Chemscore.Internal.Correction>
0.5609

> <Gold.Rescore>
     Score         DG    S(hbond)    S(metal)    S(lipo)     H(rot)  DE(clash)    DE(int)     intcor
     12.53     -13.78       0.91        0.00      79.73       1.58       0.17       1.08       ----

> <Gold.Chemscore.Fitness>
12.5319

> <Gold.Chemscore.DG>
-13.7795

> <Gold.Chemscore.ZeroCoef>
-5.4800

> <Gold.Chemscore.Hbond>
0.9054

> <Gold.Chemscore.Metal>
0.0000

> <Gold.Chemscore.Lipo>
79.7348

> <Gold.Chemscore.Internal_Hbond>
0.0000

> <Gold.Chemscore.DEClash>
0.1710

> <Gold.Chemscore.DEInternal>
1.0765

> <Gold.Chemscore.Rot>
1.5834

> <Gold.Chemscore.Internal.Correction>
   9.000000E+99

> <Gold.Chemscore.Hbonds>
donor molecule, donor type, donor heavy atom, donor atom, acceptor molecule, acceptor atom, score
      P1  H  7989  7998       L1     7  0.65

> <Gold.Chemscore.Hbond.Weighted>
-3.0241

> <Gold.Chemscore.Metal.Weighted>
-0.0000

> <Gold.Chemscore.Lipo.Weighted>
-9.3290

> <Gold.Chemscore.Internal_Hbond.Weighted>
0.0000

> <Gold.Chemscore.DEClash.Weighted>
0.1710

> <Gold.Chemscore.DEInternal.Weighted>
1.0765

> <Gold.Chemscore.Rot.Weighted>
4.0536

> <Gold.Chemscore.Internal.Correction.Weighted>
   9.000000E+99

> <Gold.Protein.RotatedTorsions>
[ 6907 6896 6895 6894 ] final -123.07 input  -60.11 | X-H torsion
[ 7974 7965 7964 7962 ] final -152.71 input  175.53 | X-H torsion
[ 8008 7997 7996 7995 ] final  -24.71 input   59.86 | X-H torsion
[ 10167 10162 10161 10158 ] final -171.79 input  -65.29 | X-H torsion
[ 10718 10713 10712 10709 ] final  -37.50 input   66.30 | X-H torsion
[ 10763 10752 10751 10750 ] final  -89.99 input  -60.55 | X-H torsion
[ 11005 11000 10999 10996 ] final   -3.22 input  -57.11 | X-H torsion

> <Gold.Protein.ActiveResidues>
 VAL166  LYS551  ARG553  GLY616  TRP617  ASP618  TYR619  PRO620  LYS621  CYS622 
 ASP623  PHE694  ASN695  SER759  ASP760  ASP761  ALA762  ILE779  LEU786  VAL792 
 PHE793  MET794  SER795  GLU796  ALA797  LYS798  CYS799  TRP800  GLU811  SER814 

> <Gold.Protein.RotatedAtoms>
  150.8635  133.7608  159.2984 H   0  0  0  0  0  0  0  0  0  0  0  0  # atno 6907 bound_to 6896
  151.5242  135.1066  159.9896 H   0  0  0  0  0  0  0  0  0  0  0  0  # atno 6908 bound_to 6896
  152.4644  133.7847  159.6925 H   0  0  0  0  0  0  0  0  0  0  0  0  # atno 6909 bound_to 6896
  144.7779  140.4625  143.5860 H   0  0  0  0  0  0  0  0  0  0  0  0  # atno 7974 bound_to 7965
  154.4514  140.1946  156.0507 H   0  0  0  0  0  0  0  0  0  0  0  0  # atno 8008 bound_to 7997
  156.0656  140.3291  155.7486 H   0  0  0  0  0  0  0  0  0  0  0  0  # atno 8009 bound_to 7997
  155.5343  140.0581  157.2873 H   0  0  0  0  0  0  0  0  0  0  0  0  # atno 8010 bound_to 7997
  139.5782  144.1484  152.1479 H   0  0  0  0  0  0  0  0  0  0  0  0  # atno 10167 bound_to 10162
  156.3145  130.4257  149.8018 H   0  0  0  0  0  0  0  0  0  0  0  0  # atno 10718 bound_to 10713
  154.6610  135.5321  153.8019 H   0  0  0  0  0  0  0  0  0  0  0  0  # atno 10763 bound_to 10752
  153.0442  135.6506  154.0871 H   0  0  0  0  0  0  0  0  0  0  0  0  # atno 10764 bound_to 10752
  154.0780  135.2949  155.3276 H   0  0  0  0  0  0  0  0  0  0  0  0  # atno 10765 bound_to 10752
  140.6669  133.9270  155.8470 H   0  0  0  0  0  0  0  0  0  0  0  0  # atno 11005 bound_to 11000
  145.6132  139.1515  143.3064 LP  0  0  0  0  0  0  0  0  0  0  0  0  # atno 17320 bound_to 7965
  146.1970  140.6247  142.9119 LP  0  0  0  0  0  0  0  0  0  0  0  0  # atno 17321 bound_to 7965
  140.1032  144.5522  150.6975 LP  0  0  0  0  0  0  0  0  0  0  0  0  # atno 17342 bound_to 10162
  140.7062  143.2470  151.4718 LP  0  0  0  0  0  0  0  0  0  0  0  0  # atno 17343 bound_to 10162
  156.5349  130.8274  151.3249 LP  0  0  0  0  0  0  0  0  0  0  0  0  # atno 17370 bound_to 10713
  157.7398  130.9839  150.2340 LP  0  0  0  0  0  0  0  0  0  0  0  0  # atno 17371 bound_to 10713
  141.0422  134.0605  157.3888 LP  0  0  0  0  0  0  0  0  0  0  0  0  # atno 17394 bound_to 11000
  139.8994  135.0158  156.7194 LP  0  0  0  0  0  0  0  0  0  0  0  0  # atno 17395 bound_to 11000

$$$$
