AV-unprocessed.smi:194|AV-procd|sdf|1520|dock3
  -GOLD-   2262019363D 1   1.00000     0.00000
 Structure written by MMmdl.
 53 55  0  0  0  0  0  0  0  0  1 V2000
  150.7675  143.0106  157.5082 C   0  0  0  0  0  0  0  0  0  0  0  0
  151.4191  141.6212  157.5970 C   0  0  2  0  0  0  0  0  0  0  0  0
  150.3595  140.5015  157.6394 C   0  0  0  0  0  0  0  0  0  0  0  0
  149.7723  140.1566  155.9117 S   0  0  1  0  0  0  0  0  0  0  0  0
  148.7334  141.6808  155.7300 C   0  0  0  0  0  0  0  0  0  0  0  0
  150.9817  140.3316  154.9913 O   0  0  0  0  0  0  0  0  0  0  0  0
  152.3546  141.5559  158.7289 N   0  0  0  0  0  0  0  0  0  0  0  0
  152.6318  142.7374  159.5405 C   0  0  0  0  0  0  0  0  0  0  0  0
  153.1883  140.4870  158.8343 C   0  0  0  0  0  0  0  0  0  0  0  0
  153.1218  139.5251  157.8768 N   0  0  0  0  0  0  0  0  0  0  0  0
  153.9078  138.4477  157.9386 C   0  0  0  0  0  0  0  0  0  0  0  0
  154.8206  138.1344  158.8585 N   0  0  0  0  0  0  0  0  0  0  0  0
  154.8963  139.0916  159.8266 C   0  0  0  0  0  0  0  0  0  0  0  0
  154.1282  140.2907  159.8900 C   0  0  0  0  0  0  0  0  0  0  0  0
  154.5083  141.0278  161.0065 N   0  0  0  0  0  0  0  0  0  0  0  0
  155.4377  140.3067  161.5694 C   0  0  0  0  0  0  0  0  0  0  0  0
  155.7209  139.1168  160.9389 N   0  0  0  0  0  0  0  0  0  0  0  0
  156.7130  138.1333  161.3490 C   0  0  0  0  0  0  0  0  0  0  0  0
  156.3320  137.2548  162.5795 C   0  0  0  0  0  0  0  0  0  0  0  0
  156.3476  138.0940  163.8927 C   0  0  0  0  0  0  0  0  0  0  0  0
  157.5924  138.7058  164.1659 O   0  0  0  0  0  0  0  0  0  0  0  0
  154.9678  136.5514  162.3613 C   0  0  0  0  0  0  0  0  0  0  0  0
  154.7063  135.4353  163.3867 C   0  0  0  0  0  0  0  0  0  0  0  0
  155.7473  134.4696  163.3208 O   0  0  0  0  0  0  0  0  0  0  0  0
  157.0194  135.0068  163.6578 C   0  0  0  0  0  0  0  0  0  0  0  0
  157.3990  136.1340  162.6770 C   0  0  0  0  0  0  0  0  0  0  0  0
  150.1416  143.0931  156.6192 H   0  0  0  0  0  0  0  0  0  0  0  0
  151.5233  143.7946  157.4502 H   0  0  0  0  0  0  0  0  0  0  0  0
  150.1381  143.2168  158.3745 H   0  0  0  0  0  0  0  0  0  0  0  0
  151.9671  141.4959  156.6629 H   0  0  0  0  0  0  0  0  0  0  0  0
  150.7452  139.5885  158.0921 H   0  0  0  0  0  0  0  0  0  0  0  0
  149.5029  140.8175  158.2353 H   0  0  0  0  0  0  0  0  0  0  0  0
  147.9629  141.7113  156.5003 H   0  0  0  0  0  0  0  0  0  0  0  0
  148.2484  141.6897  154.7540 H   0  0  0  0  0  0  0  0  0  0  0  0
  149.3510  142.5748  155.8177 H   0  0  0  0  0  0  0  0  0  0  0  0
  152.9942  142.4550  160.5296 H   0  0  0  0  0  0  0  0  0  0  0  0
  151.7368  143.3412  159.6818 H   0  0  0  0  0  0  0  0  0  0  0  0
  153.3844  143.3636  159.0609 H   0  0  0  0  0  0  0  0  0  0  0  0
  153.7858  137.7342  157.1369 H   0  0  0  0  0  0  0  0  0  0  0  0
  155.9390  140.6197  162.4737 H   0  0  0  0  0  0  0  0  0  0  0  0
  156.9184  137.4995  160.4851 H   0  0  0  0  0  0  0  0  0  0  0  0
  157.6444  138.6649  161.5498 H   0  0  0  0  0  0  0  0  0  0  0  0
  155.6145  138.8977  163.8618 H   0  0  0  0  0  0  0  0  0  0  0  0
  156.0741  137.4691  164.7433 H   0  0  0  0  0  0  0  0  0  0  0  0
  157.8085  139.2814  163.4483 H   0  0  0  0  0  0  0  0  0  0  0  0
  154.1457  137.2668  162.3810 H   0  0  0  0  0  0  0  0  0  0  0  0
  154.9489  136.1044  161.3667 H   0  0  0  0  0  0  0  0  0  0  0  0
  154.6192  135.8337  164.3983 H   0  0  0  0  0  0  0  0  0  0  0  0
  153.7613  134.9409  163.1620 H   0  0  0  0  0  0  0  0  0  0  0  0
  157.0196  135.3486  164.6927 H   0  0  0  0  0  0  0  0  0  0  0  0
  157.7574  134.2066  163.6008 H   0  0  0  0  0  0  0  0  0  0  0  0
  157.5406  135.6808  161.6946 H   0  0  0  0  0  0  0  0  0  0  0  0
  158.3666  136.5540  162.9547 H   0  0  0  0  0  0  0  0  0  0  0  0
  1  2  1  0  0  0  0
  1 27  1  0  0  0  0
  1 28  1  0  0  0  0
  1 29  1  0  0  0  0
  2  3  1  0  0  0  0
  2  7  1  0  0  0  0
  2 30  1  0  0  0  0
  3  4  1  0  0  0  0
  3 31  1  0  0  0  0
  3 32  1  0  0  0  0
  4  5  1  0  0  0  0
  4  6  2  0  0  0  0
  5 33  1  0  0  0  0
  5 34  1  0  0  0  0
  5 35  1  0  0  0  0
  7  8  1  0  0  0  0
  7  9  1  0  0  0  0
  8 36  1  0  0  0  0
  8 37  1  0  0  0  0
  8 38  1  0  0  0  0
  9 14  1  0  0  0  0
  9 10  2  0  0  0  0
 10 11  1  0  0  0  0
 11 12  2  0  0  0  0
 11 39  1  0  0  0  0
 12 13  1  0  0  0  0
 13 17  1  0  0  0  0
 13 14  2  0  0  0  0
 14 15  1  0  0  0  0
 15 16  2  0  0  0  0
 16 17  1  0  0  0  0
 16 40  1  0  0  0  0
 17 18  1  0  0  0  0
 18 19  1  0  0  0  0
 18 41  1  0  0  0  0
 18 42  1  0  0  0  0
 19 26  1  0  0  0  0
 19 20  1  0  0  0  0
 19 22  1  0  0  0  0
 20 21  1  0  0  0  0
 20 43  1  0  0  0  0
 20 44  1  0  0  0  0
 21 45  1  0  0  0  0
 22 23  1  0  0  0  0
 22 46  1  0  0  0  0
 22 47  1  0  0  0  0
 23 24  1  0  0  0  0
 23 48  1  0  0  0  0
 23 49  1  0  0  0  0
 24 25  1  0  0  0  0
 25 26  1  0  0  0  0
 25 50  1  0  0  0  0
 25 51  1  0  0  0  0
 26 52  1  0  0  0  0
 26 53  1  0  0  0  0
M  END
> <s_m_source_file>
AV-unprocessed.smi

> <i_m_source_file_index>
194

> <i_lp_mmshare_version>
43012

> <i_f3d_flags>
0

> <s_epik_input>
W0NIM11bU0BAXSg9TylbQ0gyXVtDQEBIXShbQ0gzXSlOKFtDSDNdKWMobltjSF1uMSljKGMxMiluW2NIXW4yW0NIMl1DMyhbQ0gyXVtPSF0pW0NIMl1bQ0gyXU9bQ0gyXVtDSDJdMw==

> <s_epik_cmdline>
J2VwaWtfcHl0aG9uJywgJy1waCcsICc3LjAnLCAnLXRuJywgJzgnLCAnLW1hJywgJzIwMCcsICctbWV0YWxfYmluZGluZycsICctaW1hZScsICc8aW5maWxlLm1hZT4nLCAnLW9tYWUnLCAnPG91dGZpbGUubWFlPic=

> <r_lp_tautomer_probability>
1

> <r_epik_Ionization_Penalty>
0.00101625

> <r_epik_Ionization_Penalty_Charging>
0

> <r_epik_Ionization_Penalty_Neutral>
0.00101625

> <r_epik_State_Penalty>
0.000568005

> <r_epik_Charging_Adjusted_Penalty>
0.000568005

> <i_epik_Tot_Q>
0

> <i_epik_Tot_abs_Q>
0

> <r_epik_Metal_State_Penalty>
-0

> <b_epik_Metal_Only>
0

> <s_lp_Force_Field>
OPLS_2005

> <r_lp_Energy>
28.4609

> <b_lp_Chiralities_Consistent>
1

> <s_lp_Variant>
AV-unprocessed.smi:194-1

> <Gold.Version>
5.8.1

> <Gold.Id.Protein>
6NUR|6NUR_protein|mol2

> <Gold.PLP.Fitness>
44.5257

> <Gold.PLP.PLP>
-40.9437

> <Gold.PLP.part.hbond>
-2.1639

> <Gold.PLP.part.metal>
0.0000

> <Gold.PLP.part.buried>
-4.4605

> <Gold.PLP.part.nonpolar>
-34.1935

> <Gold.PLP.part.repulsive>
0.1162

> <Gold.PLP.ligand.clash>
0.0000

> <Gold.PLP.ligand.torsion>
0.9165

> <Gold.PLP.Chemscore.Hbond>
1.6140

> <Gold.PLP.Chemscore.CHOScore>
0.0000

> <Gold.PLP.Chemscore.Metal>
0.0000

> <Gold.Chemscore.Hbonds>
donor molecule, donor type, donor heavy atom, donor atom, acceptor molecule, acceptor atom, score
      P1  H  7989  7998       L1     6  1.00

> <Gold.PLP.Chemscore.Internal.Correction>
0.5731

> <Gold.Rescore>
     Score         DG    S(hbond)    S(metal)    S(lipo)     H(rot)  DE(clash)    DE(int)     intcor
      9.22     -11.48       1.00        0.00      89.12       3.03       0.18       2.07       ----

> <Gold.Chemscore.Fitness>
9.2185

> <Gold.Chemscore.DG>
-11.4752

> <Gold.Chemscore.ZeroCoef>
-5.4800

> <Gold.Chemscore.Hbond>
0.9953

> <Gold.Chemscore.Metal>
0.0000

> <Gold.Chemscore.Lipo>
89.1154

> <Gold.Chemscore.Internal_Hbond>
0.0000

> <Gold.Chemscore.DEClash>
0.1821

> <Gold.Chemscore.DEInternal>
2.0746

> <Gold.Chemscore.Rot>
3.0295

> <Gold.Chemscore.Internal.Correction>
   9.000000E+99

> <Gold.Chemscore.Hbonds>
donor molecule, donor type, donor heavy atom, donor atom, acceptor molecule, acceptor atom, score
      P1  H  7989  7998       L1     6  0.98

> <Gold.Chemscore.Hbond.Weighted>
-3.3242

> <Gold.Chemscore.Metal.Weighted>
-0.0000

> <Gold.Chemscore.Lipo.Weighted>
-10.4265

> <Gold.Chemscore.Internal_Hbond.Weighted>
0.0000

> <Gold.Chemscore.DEClash.Weighted>
0.1821

> <Gold.Chemscore.DEInternal.Weighted>
2.0746

> <Gold.Chemscore.Rot.Weighted>
7.7555

> <Gold.Chemscore.Internal.Correction.Weighted>
   9.000000E+99

> <Gold.Protein.RotatedTorsions>
[ 6907 6896 6895 6894 ] final  -22.55 input  -60.11 | X-H torsion
[ 7974 7965 7964 7962 ] final -151.14 input  175.53 | X-H torsion
[ 8008 7997 7996 7995 ] final  168.12 input   59.86 | X-H torsion
[ 10167 10162 10161 10158 ] final  113.00 input  -65.29 | X-H torsion
[ 10718 10713 10712 10709 ] final  -58.48 input   66.30 | X-H torsion
[ 10763 10752 10751 10750 ] final   67.41 input  -60.55 | X-H torsion
[ 11005 11000 10999 10996 ] final  -14.90 input  -57.11 | X-H torsion

> <Gold.Protein.ActiveResidues>
 VAL166  LYS551  ARG553  GLY616  TRP617  ASP618  TYR619  PRO620  LYS621  CYS622 
 ASP623  PHE694  ASN695  SER759  ASP760  ASP761  ALA762  ILE779  LEU786  VAL792 
 PHE793  MET794  SER795  GLU796  ALA797  LYS798  CYS799  TRP800  GLU811  SER814 

> <Gold.Protein.RotatedAtoms>
  151.2170  135.0503  159.8933 H   0  0  0  0  0  0  0  0  0  0  0  0  # atno 6907 bound_to 6896
  152.5419  134.0682  159.8192 H   0  0  0  0  0  0  0  0  0  0  0  0  # atno 6908 bound_to 6896
  151.0843  133.5317  159.2650 H   0  0  0  0  0  0  0  0  0  0  0  0  # atno 6909 bound_to 6896
  144.7867  140.4837  143.5801 H   0  0  0  0  0  0  0  0  0  0  0  0  # atno 7974 bound_to 7965
  156.1575  140.1599  156.8669 H   0  0  0  0  0  0  0  0  0  0  0  0  # atno 8008 bound_to 7997
  154.5128  140.0797  156.8060 H   0  0  0  0  0  0  0  0  0  0  0  0  # atno 8009 bound_to 7997
  155.3775  140.3403  155.4247 H   0  0  0  0  0  0  0  0  0  0  0  0  # atno 8010 bound_to 7997
  139.6494  144.7128  151.2079 H   0  0  0  0  0  0  0  0  0  0  0  0  # atno 10167 bound_to 10162
  156.1132  130.4173  150.0583 H   0  0  0  0  0  0  0  0  0  0  0  0  # atno 10718 bound_to 10713
  153.0185  135.5285  154.6975 H   0  0  0  0  0  0  0  0  0  0  0  0  # atno 10763 bound_to 10752
  154.6093  135.2876  155.0452 H   0  0  0  0  0  0  0  0  0  0  0  0  # atno 10764 bound_to 10752
  154.1480  135.6567  153.5009 H   0  0  0  0  0  0  0  0  0  0  0  0  # atno 10765 bound_to 10752
  140.7912  133.8287  155.9381 H   0  0  0  0  0  0  0  0  0  0  0  0  # atno 11005 bound_to 11000
  145.5903  139.1495  143.3186 LP  0  0  0  0  0  0  0  0  0  0  0  0  # atno 17320 bound_to 7965
  146.2101  140.6029  142.9063 LP  0  0  0  0  0  0  0  0  0  0  0  0  # atno 17321 bound_to 7965
  140.7530  143.6176  150.8544 LP  0  0  0  0  0  0  0  0  0  0  0  0  # atno 17342 bound_to 10162
  139.9823  143.5938  152.2939 LP  0  0  0  0  0  0  0  0  0  0  0  0  # atno 17343 bound_to 10162
  156.8541  130.9469  151.3623 LP  0  0  0  0  0  0  0  0  0  0  0  0  # atno 17370 bound_to 10713
  157.6314  130.8732  149.9281 LP  0  0  0  0  0  0  0  0  0  0  0  0  # atno 17371 bound_to 10713
  140.9388  134.1928  157.4812 LP  0  0  0  0  0  0  0  0  0  0  0  0  # atno 17394 bound_to 11000
  139.8731  134.9863  156.5319 LP  0  0  0  0  0  0  0  0  0  0  0  0  # atno 17395 bound_to 11000

$$$$
