AV-unprocessed.smi:3251|AV-procd|sdf|12435|dock4
  -GOLD-   2272018323D 1   1.00000     0.00000
 Structure written by MMmdl.
 41 42  0  0  0  0  0  0  0  0  2 V2000
  145.3529  133.1110  150.1317 C   0  0  0  0  0  0  0  0  0  0  0  0
  145.1218  134.3835  150.8947 C   0  0  0  0  0  0  0  0  0  0  0  0
  143.8805  135.0228  151.1744 C   0  0  0  0  0  0  0  0  0  0  0  0
  144.0229  136.1404  151.8685 N   0  0  0  0  0  0  0  0  0  0  0  0
  145.3548  136.2524  152.0574 N   0  0  0  0  0  0  0  0  0  0  0  0
  145.8892  137.3959  152.7747 C   0  0  0  0  0  0  0  0  0  0  0  0
  146.5805  138.3872  151.8265 C   0  0  0  0  0  0  0  0  0  0  0  0
  147.9279  138.7503  152.3184 N   0  3  0  0  0  0  0  0  0  0  0  0
  147.9841  139.2200  153.7208 C   0  0  2  0  0  0  0  0  0  0  0  0
  146.9274  140.3162  153.9312 C   0  0  0  0  0  0  0  0  0  0  0  0
  149.3842  139.7636  154.0724 C   0  0  0  0  0  0  0  0  0  0  0  0
  149.5982  140.9719  153.9590 O   0  0  0  0  0  0  0  0  0  0  0  0
  150.3365  138.9093  154.5050 N   0  0  0  0  0  0  0  0  0  0  0  0
  150.1907  137.4645  154.6841 C   0  0  0  0  0  0  0  0  0  0  0  0
  151.4458  137.0109  155.4297 C   0  0  0  0  0  0  0  0  0  0  0  0
  152.4935  138.0517  155.0627 C   0  0  0  0  0  0  0  0  0  0  0  0
  151.6886  139.3358  154.8631 C   0  0  0  0  0  0  0  0  0  0  0  0
  146.0421  135.2056  151.4809 C   0  0  0  0  0  0  0  0  0  0  0  0
  144.4476  132.5070  150.0671 H   0  0  0  0  0  0  0  0  0  0  0  0
  146.1180  132.4923  150.6010 H   0  0  0  0  0  0  0  0  0  0  0  0
  145.6807  133.3097  149.1112 H   0  0  0  0  0  0  0  0  0  0  0  0
  142.8857  134.7098  150.8930 H   0  0  0  0  0  0  0  0  0  0  0  0
  145.0849  137.8815  153.3300 H   0  0  0  0  0  0  0  0  0  0  0  0
  146.6030  137.0299  153.5136 H   0  0  0  0  0  0  0  0  0  0  0  0
  146.6774  137.9499  150.8324 H   0  0  0  0  0  0  0  0  0  0  0  0
  145.9602  139.2783  151.7210 H   0  0  0  0  0  0  0  0  0  0  0  0
  148.5279  137.9405  152.2389 H   0  0  0  0  0  0  0  0  0  0  0  0
  147.7323  138.3702  154.3557 H   0  0  0  0  0  0  0  0  0  0  0  0
  146.9220  140.6795  154.9591 H   0  0  0  0  0  0  0  0  0  0  0  0
  145.9269  139.9402  153.7154 H   0  0  0  0  0  0  0  0  0  0  0  0
  147.1048  141.1734  153.2801 H   0  0  0  0  0  0  0  0  0  0  0  0
  149.2919  137.1978  155.2404 H   0  0  0  0  0  0  0  0  0  0  0  0
  150.1403  136.9880  153.7039 H   0  0  0  0  0  0  0  0  0  0  0  0
  151.2635  137.0419  156.5048 H   0  0  0  0  0  0  0  0  0  0  0  0
  151.7485  135.9955  155.1717 H   0  0  0  0  0  0  0  0  0  0  0  0
  153.2723  138.1541  155.8193 H   0  0  0  0  0  0  0  0  0  0  0  0
  152.9742  137.7711  154.1246 H   0  0  0  0  0  0  0  0  0  0  0  0
  152.1375  139.9677  154.0949 H   0  0  0  0  0  0  0  0  0  0  0  0
  151.6463  139.9085  155.7910 H   0  0  0  0  0  0  0  0  0  0  0  0
  147.1189  135.1348  151.5300 H   0  0  0  0  0  0  0  0  0  0  0  0
  148.2907  139.4772  151.7188 H   0  0  0  0  0  0  0  0  0  0  0  0
  1  2  1  0  0  0  0
  1 19  1  0  0  0  0
  1 20  1  0  0  0  0
  1 21  1  0  0  0  0
  2 18  2  0  0  0  0
  2  3  1  0  0  0  0
  3  4  2  0  0  0  0
  3 22  1  0  0  0  0
  4  5  1  0  0  0  0
  5  6  1  0  0  0  0
  5 18  1  0  0  0  0
  6  7  1  0  0  0  0
  6 23  1  0  0  0  0
  6 24  1  0  0  0  0
  7  8  1  0  0  0  0
  7 25  1  0  0  0  0
  7 26  1  0  0  0  0
  8  9  1  0  0  0  0
  8 27  1  0  0  0  0
  8 41  1  0  0  0  0
  9 10  1  0  0  0  0
  9 11  1  0  0  0  0
  9 28  1  0  0  0  0
 10 29  1  0  0  0  0
 10 30  1  0  0  0  0
 10 31  1  0  0  0  0
 11 12  2  0  0  0  0
 11 13  1  0  0  0  0
 13 17  1  0  0  0  0
 13 14  1  0  0  0  0
 14 15  1  0  0  0  0
 14 32  1  0  0  0  0
 14 33  1  0  0  0  0
 15 16  1  0  0  0  0
 15 34  1  0  0  0  0
 15 35  1  0  0  0  0
 16 17  1  0  0  0  0
 16 36  1  0  0  0  0
 16 37  1  0  0  0  0
 17 38  1  0  0  0  0
 17 39  1  0  0  0  0
 18 40  1  0  0  0  0
M  CHG  1   8   1
M  END
> <s_m_source_file>
AV-unprocessed.smi

> <i_m_source_file_index>
3251

> <i_lp_mmshare_version>
43012

> <i_f3d_flags>
0

> <s_epik_input>
W0NIM11jMVtjSF1ubihbY0hdMSlbQ0gyXVtDSDJdW05IXVtDQEhdKFtDSDNdKUMoPU8pTjJbQ0gyXVtDSDJdW0NIMl1bQ0gyXTI=

> <s_epik_cmdline>
J2VwaWtfcHl0aG9uJywgJy1waCcsICc3LjAnLCAnLXRuJywgJzgnLCAnLW1hJywgJzIwMCcsICctbWV0YWxfYmluZGluZycsICctaW1hZScsICc8aW5maWxlLm1hZT4nLCAnLW9tYWUnLCAnPG91dGZpbGUubWFlPic=

> <r_lp_tautomer_probability>
1

> <r_epik_Ionization_Penalty>
0.203173

> <r_epik_Ionization_Penalty_Charging>
0.203168

> <r_epik_Ionization_Penalty_Neutral>
5.06494e-06

> <r_epik_State_Penalty>
0.193072

> <r_epik_Charging_Adjusted_Penalty>
0.39624

> <i_epik_Tot_Q>
1

> <i_epik_Tot_abs_Q>
1

> <r_epik_Metal_State_Penalty>
0.193587

> <b_epik_Metal_Only>
0

> <s_lp_Force_Field>
OPLS_2005

> <r_lp_Energy>
29.5605

> <b_lp_Chiralities_Consistent>
1

> <s_lp_Variant>
AV-unprocessed.smi:3251-1

> <Gold.Version>
5.8.1

> <Gold.Id.Protein>
6NUR|6NUR_protein|mol2

> <Gold.PLP.Fitness>
48.1510

> <Gold.PLP.PLP>
-33.3801

> <Gold.PLP.part.hbond>
-3.5373

> <Gold.PLP.part.metal>
0.0000

> <Gold.PLP.part.buried>
2.8713

> <Gold.PLP.part.nonpolar>
-33.4280

> <Gold.PLP.part.repulsive>
1.6602

> <Gold.PLP.ligand.clash>
0.0000

> <Gold.PLP.ligand.torsion>
1.2862

> <Gold.PLP.Chemscore.Hbond>
3.7712

> <Gold.PLP.Chemscore.CHOScore>
2.0000

> <Gold.PLP.Chemscore.Metal>
0.0000

> <Gold.Chemscore.Hbonds>
donor molecule, donor type, donor heavy atom, donor atom, acceptor molecule, acceptor atom, score
      L1  H     8    27       P1  7948  2.00
      L1  H     8    41       P1  7957  0.81
      P1  H  7989  7998       L1    12  0.38
      P1  H  8011  8017       L1    12  0.55
      L1  C     3    22       P1 10186  0.80
      L1  C    18    40       P1  7948  1.00

> <Gold.PLP.Chemscore.Internal.Correction>
0.0296

> <Gold.Rescore>
     Score         DG    S(hbond)    S(metal)    S(lipo)     H(rot)  DE(clash)    DE(int)     intcor
     15.67     -18.33       2.54        0.00      75.72       1.76       1.50       1.16       ----

> <Gold.Chemscore.Fitness>
15.6739

> <Gold.Chemscore.DG>
-18.3318

> <Gold.Chemscore.ZeroCoef>
-5.4800

> <Gold.Chemscore.Hbond>
2.5441

> <Gold.Chemscore.Metal>
0.0000

> <Gold.Chemscore.Lipo>
75.7248

> <Gold.Chemscore.Internal_Hbond>
0.0000

> <Gold.Chemscore.DEClash>
1.4988

> <Gold.Chemscore.DEInternal>
1.1591

> <Gold.Chemscore.Rot>
1.7599

> <Gold.Chemscore.Internal.Correction>
   9.000000E+99

> <Gold.Chemscore.Hbonds>
donor molecule, donor type, donor heavy atom, donor atom, acceptor molecule, acceptor atom, score
      L1  H     8    27       P1  7948  0.99
      L1  H     8    41       P1  7957  0.76
      P1  H  7989  7998       L1    12  0.08
      P1  H  8011  8017       L1    12  0.55

> <Gold.Chemscore.Hbond.Weighted>
-8.4973

> <Gold.Chemscore.Metal.Weighted>
-0.0000

> <Gold.Chemscore.Lipo.Weighted>
-8.8598

> <Gold.Chemscore.Internal_Hbond.Weighted>
0.0000

> <Gold.Chemscore.DEClash.Weighted>
1.4988

> <Gold.Chemscore.DEInternal.Weighted>
1.1591

> <Gold.Chemscore.Rot.Weighted>
4.5053

> <Gold.Chemscore.Internal.Correction.Weighted>
   9.000000E+99

> <Gold.Protein.RotatedTorsions>
[ 6907 6896 6895 6894 ] final -171.80 input  -60.11 | X-H torsion
[ 7974 7965 7964 7962 ] final   94.75 input  175.53 | X-H torsion
[ 8008 7997 7996 7995 ] final   -6.89 input   59.86 | X-H torsion
[ 10167 10162 10161 10158 ] final -165.06 input  -65.29 | X-H torsion
[ 10718 10713 10712 10709 ] final -137.66 input   66.30 | X-H torsion
[ 10763 10752 10751 10750 ] final -160.99 input  -60.55 | X-H torsion
[ 11005 11000 10999 10996 ] final -177.43 input  -57.11 | X-H torsion

> <Gold.Protein.ActiveResidues>
 VAL166  LYS551  ARG553  GLY616  TRP617  ASP618  TYR619  PRO620  LYS621  CYS622 
 ASP623  PHE694  ASN695  SER759  ASP760  ASP761  ALA762  ILE779  LEU786  VAL792 
 PHE793  MET794  SER795  GLU796  ALA797  LYS798  CYS799  TRP800  GLU811  SER814 

> <Gold.Protein.RotatedAtoms>
  151.5297  133.3451  159.2915 H   0  0  0  0  0  0  0  0  0  0  0  0  # atno 6907 bound_to 6896
  150.8601  134.7953  159.7087 H   0  0  0  0  0  0  0  0  0  0  0  0  # atno 6908 bound_to 6896
  152.4623  134.5164  159.9821 H   0  0  0  0  0  0  0  0  0  0  0  0  # atno 6909 bound_to 6896
  145.4614  139.2287  143.2985 H   0  0  0  0  0  0  0  0  0  0  0  0  # atno 7974 bound_to 7965
  154.5892  140.2421  155.7944 H   0  0  0  0  0  0  0  0  0  0  0  0  # atno 8008 bound_to 7997
  156.2235  140.2990  155.9965 H   0  0  0  0  0  0  0  0  0  0  0  0  # atno 8009 bound_to 7997
  155.2403  140.0407  157.2964 H   0  0  0  0  0  0  0  0  0  0  0  0  # atno 8010 bound_to 7997
  139.6208  144.0629  152.1930 H   0  0  0  0  0  0  0  0  0  0  0  0  # atno 10167 bound_to 10162
  156.2906  130.7373  151.1397 H   0  0  0  0  0  0  0  0  0  0  0  0  # atno 10718 bound_to 10713
  154.7343  135.3053  154.8838 H   0  0  0  0  0  0  0  0  0  0  0  0  # atno 10763 bound_to 10752
  153.9672  135.6746  153.4750 H   0  0  0  0  0  0  0  0  0  0  0  0  # atno 10764 bound_to 10752
  153.0947  135.4941  154.8679 H   0  0  0  0  0  0  0  0  0  0  0  0  # atno 10765 bound_to 10752
  140.4411  134.6431  157.4758 H   0  0  0  0  0  0  0  0  0  0  0  0  # atno 11005 bound_to 11000
  146.2449  140.5383  142.8918 LP  0  0  0  0  0  0  0  0  0  0  0  0  # atno 17320 bound_to 7965
  144.8000  140.6196  143.6484 LP  0  0  0  0  0  0  0  0  0  0  0  0  # atno 17321 bound_to 7965
  140.0270  144.6110  150.7519 LP  0  0  0  0  0  0  0  0  0  0  0  0  # atno 17342 bound_to 10162
  140.7380  143.2773  151.3703 LP  0  0  0  0  0  0  0  0  0  0  0  0  # atno 17343 bound_to 10162
  157.7341  131.0585  150.5541 LP  0  0  0  0  0  0  0  0  0  0  0  0  # atno 17370 bound_to 10713
  156.5657  130.4267  149.6042 LP  0  0  0  0  0  0  0  0  0  0  0  0  # atno 17371 bound_to 10713
  140.0069  134.6749  155.9440 LP  0  0  0  0  0  0  0  0  0  0  0  0  # atno 17394 bound_to 11000
  141.1705  133.6537  156.4635 LP  0  0  0  0  0  0  0  0  0  0  0  0  # atno 17395 bound_to 11000

$$$$
