AV-unprocessed.smi:3132|AV-procd|sdf|11934|dock7
  -GOLD-   2272017323D 1   1.00000     0.00000
 Structure written by MMmdl.
 33 34  0  0  0  0  0  0  0  0  1 V2000
  149.6353  141.1208  155.0890 C   0  0  0  0  0  0  0  0  0  0  0  0
  150.3314  141.1070  156.4565 C   0  0  1  0  0  0  0  0  0  0  0  0
  151.7204  140.4388  156.3726 C   0  0  0  0  0  0  0  0  0  0  0  0
  151.6440  139.0208  156.0712 N   0  0  0  0  0  0  0  0  0  0  0  0
  151.1052  138.4331  154.9340 C   0  0  0  0  0  0  0  0  0  0  0  0
  151.2618  137.0737  155.0826 C   0  0  0  0  0  0  0  0  0  0  0  0
  151.8847  136.8035  156.2986 N   0  0  0  0  0  0  0  0  0  0  0  0
  152.0786  138.0043  156.8284 C   0  0  0  0  0  0  0  0  0  0  0  0
  150.4431  142.4809  156.9456 N   0  0  0  0  0  0  0  0  0  0  0  0
  151.1797  142.8832  157.9936 C   0  0  0  0  0  0  0  0  0  0  0  0
  151.8360  142.1116  158.6943 O   0  0  0  0  0  0  0  0  0  0  0  0
  151.1764  144.3912  158.2860 C   0  0  2  0  0  0  0  0  0  0  0  0
  152.2833  144.8267  159.2669 C   0  0  0  0  0  0  0  0  0  0  0  0
  151.5320  145.4526  160.4296 C   0  0  0  0  0  0  0  0  0  0  0  0
  150.1523  144.8195  160.3243 C   0  0  0  0  0  0  0  0  0  0  0  0
  149.9471  144.7392  158.9214 O   0  0  0  0  0  0  0  0  0  0  0  0
  149.5060  140.1088  154.7047 H   0  0  0  0  0  0  0  0  0  0  0  0
  150.2115  141.6845  154.3545 H   0  0  0  0  0  0  0  0  0  0  0  0
  148.6459  141.5744  155.1566 H   0  0  0  0  0  0  0  0  0  0  0  0
  149.7017  140.5232  157.1305 H   0  0  0  0  0  0  0  0  0  0  0  0
  152.3180  140.9127  155.5926 H   0  0  0  0  0  0  0  0  0  0  0  0
  152.2677  140.5706  157.3073 H   0  0  0  0  0  0  0  0  0  0  0  0
  150.6738  139.0146  154.1327 H   0  0  0  0  0  0  0  0  0  0  0  0
  150.9760  136.2756  154.4136 H   0  0  0  0  0  0  0  0  0  0  0  0
  152.5545  138.1485  157.7874 H   0  0  0  0  0  0  0  0  0  0  0  0
  149.9317  143.1858  156.4347 H   0  0  0  0  0  0  0  0  0  0  0  0
  151.2504  144.9523  157.3533 H   0  0  0  0  0  0  0  0  0  0  0  0
  152.8806  143.9826  159.6159 H   0  0  0  0  0  0  0  0  0  0  0  0
  152.9709  145.5395  158.8111 H   0  0  0  0  0  0  0  0  0  0  0  0
  152.0089  145.2742  161.3937 H   0  0  0  0  0  0  0  0  0  0  0  0
  151.4542  146.5306  160.2829 H   0  0  0  0  0  0  0  0  0  0  0  0
  150.1460  143.8199  160.7608 H   0  0  0  0  0  0  0  0  0  0  0  0
  149.3776  145.4120  160.8111 H   0  0  0  0  0  0  0  0  0  0  0  0
  1  2  1  0  0  0  0
  1 17  1  0  0  0  0
  1 18  1  0  0  0  0
  1 19  1  0  0  0  0
  2  3  1  0  0  0  0
  2  9  1  0  0  0  0
  2 20  1  0  0  0  0
  3  4  1  0  0  0  0
  3 21  1  0  0  0  0
  3 22  1  0  0  0  0
  4  8  1  0  0  0  0
  4  5  1  0  0  0  0
  5  6  2  0  0  0  0
  5 23  1  0  0  0  0
  6  7  1  0  0  0  0
  6 24  1  0  0  0  0
  7  8  2  0  0  0  0
  8 25  1  0  0  0  0
  9 10  1  0  0  0  0
  9 26  1  0  0  0  0
 10 11  2  0  0  0  0
 10 12  1  0  0  0  0
 12 16  1  0  0  0  0
 12 13  1  0  0  0  0
 12 27  1  0  0  0  0
 13 14  1  0  0  0  0
 13 28  1  0  0  0  0
 13 29  1  0  0  0  0
 14 15  1  0  0  0  0
 14 30  1  0  0  0  0
 14 31  1  0  0  0  0
 15 16  1  0  0  0  0
 15 32  1  0  0  0  0
 15 33  1  0  0  0  0
M  END
> <s_m_source_file>
AV-unprocessed.smi

> <i_m_source_file_index>
3132

> <i_lp_mmshare_version>
43012

> <i_f3d_flags>
0

> <s_epik_input>
W2NIXTFuW2NIXVtjSF1uMVtDSDJdW0NAQEhdKFtDSDNdKVtOSF1DKD1PKVtDQEBIXTJbQ0gyXVtDSDJdW0NIMl1PMg==

> <s_epik_cmdline>
J2VwaWtfcHl0aG9uJywgJy1waCcsICc3LjAnLCAnLXRuJywgJzgnLCAnLW1hJywgJzIwMCcsICctbWV0YWxfYmluZGluZycsICctaW1hZScsICc8aW5maWxlLm1hZT4nLCAnLW9tYWUnLCAnPG91dGZpbGUubWFlPic=

> <r_lp_tautomer_probability>
1

> <r_epik_Ionization_Penalty>
0.630322

> <r_epik_Ionization_Penalty_Charging>
0.630322

> <r_epik_Ionization_Penalty_Neutral>
3.82652e-08

> <r_epik_State_Penalty>
0.647117

> <r_epik_Charging_Adjusted_Penalty>
1.27744

> <i_epik_Tot_Q>
0

> <i_epik_Tot_abs_Q>
0

> <r_epik_Metal_State_Penalty>
0.309095

> <b_epik_Metal_Only>
0

> <s_lp_Force_Field>
OPLS_2005

> <r_lp_Energy>
20.2845

> <b_lp_Chiralities_Consistent>
1

> <s_lp_Variant>
AV-unprocessed.smi:3132-6

> <Gold.Version>
5.8.1

> <Gold.Id.Protein>
6NUR|6NUR_protein|mol2

> <Gold.PLP.Fitness>
47.4073

> <Gold.PLP.PLP>
-37.7095

> <Gold.PLP.part.hbond>
-2.0000

> <Gold.PLP.part.metal>
0.0000

> <Gold.PLP.part.buried>
-4.8865

> <Gold.PLP.part.nonpolar>
-31.7717

> <Gold.PLP.part.repulsive>
1.0106

> <Gold.PLP.ligand.clash>
0.0000

> <Gold.PLP.ligand.torsion>
0.5497

> <Gold.PLP.Chemscore.Hbond>
2.0000

> <Gold.PLP.Chemscore.CHOScore>
1.5935

> <Gold.PLP.Chemscore.Metal>
0.0000

> <Gold.Chemscore.Hbonds>
donor molecule, donor type, donor heavy atom, donor atom, acceptor molecule, acceptor atom, score
      L1  H     9    26       P1  8028  1.00

> <Gold.PLP.Chemscore.Internal.Correction>
0.0168

> <Gold.Rescore>
     Score         DG    S(hbond)    S(metal)    S(lipo)     H(rot)  DE(clash)    DE(int)     intcor
     12.96     -15.79       1.48        0.00      86.70       1.86       1.13       1.70       ----

> <Gold.Chemscore.Fitness>
12.9581

> <Gold.Chemscore.DG>
-15.7883

> <Gold.Chemscore.ZeroCoef>
-5.4800

> <Gold.Chemscore.Hbond>
1.4777

> <Gold.Chemscore.Metal>
0.0000

> <Gold.Chemscore.Lipo>
86.6990

> <Gold.Chemscore.Internal_Hbond>
0.0000

> <Gold.Chemscore.DEClash>
1.1313

> <Gold.Chemscore.DEInternal>
1.6989

> <Gold.Chemscore.Rot>
1.8636

> <Gold.Chemscore.Internal.Correction>
   9.000000E+99

> <Gold.Chemscore.Hbonds>
donor molecule, donor type, donor heavy atom, donor atom, acceptor molecule, acceptor atom, score
      L1  H     9    26       P1  8028  0.95

> <Gold.Chemscore.Hbond.Weighted>
-4.9354

> <Gold.Chemscore.Metal.Weighted>
-0.0000

> <Gold.Chemscore.Lipo.Weighted>
-10.1438

> <Gold.Chemscore.Internal_Hbond.Weighted>
0.0000

> <Gold.Chemscore.DEClash.Weighted>
1.1313

> <Gold.Chemscore.DEInternal.Weighted>
1.6989

> <Gold.Chemscore.Rot.Weighted>
4.7709

> <Gold.Chemscore.Internal.Correction.Weighted>
   9.000000E+99

> <Gold.Protein.RotatedTorsions>
[ 6907 6896 6895 6894 ] final -109.70 input  -60.11 | X-H torsion
[ 7974 7965 7964 7962 ] final -106.30 input  175.53 | X-H torsion
[ 8008 7997 7996 7995 ] final  126.70 input   59.86 | X-H torsion
[ 10167 10162 10161 10158 ] final -165.65 input  -65.29 | X-H torsion
[ 10718 10713 10712 10709 ] final  -96.22 input   66.30 | X-H torsion
[ 10763 10752 10751 10750 ] final -168.02 input  -60.55 | X-H torsion
[ 11005 11000 10999 10996 ] final -131.15 input  -57.11 | X-H torsion

> <Gold.Protein.ActiveResidues>
 VAL166  LYS551  ARG553  GLY616  TRP617  ASP618  TYR619  PRO620  LYS621  CYS622 
 ASP623  PHE694  ASN695  SER759  ASP760  ASP761  ALA762  ILE779  LEU786  VAL792 
 PHE793  MET794  SER795  GLU796  ALA797  LYS798  CYS799  TRP800  GLU811  SER814 

> <Gold.Protein.RotatedAtoms>
  150.7578  133.9491  159.3479 H   0  0  0  0  0  0  0  0  0  0  0  0  # atno 6907 bound_to 6896
  151.7406  135.0853  160.0324 H   0  0  0  0  0  0  0  0  0  0  0  0  # atno 6908 bound_to 6896
  152.3530  133.6166  159.5995 H   0  0  0  0  0  0  0  0  0  0  0  0  # atno 6909 bound_to 6896
  145.2196  140.9129  143.3267 H   0  0  0  0  0  0  0  0  0  0  0  0  # atno 7974 bound_to 7965
  156.2871  140.2686  156.2154 H   0  0  0  0  0  0  0  0  0  0  0  0  # atno 8008 bound_to 7997
  155.0222  140.0386  157.2460 H   0  0  0  0  0  0  0  0  0  0  0  0  # atno 8009 bound_to 7997
  154.7426  140.2728  155.6365 H   0  0  0  0  0  0  0  0  0  0  0  0  # atno 8010 bound_to 7997
  139.6168  144.0704  152.1895 H   0  0  0  0  0  0  0  0  0  0  0  0  # atno 10167 bound_to 10162
  156.0058  130.5142  150.6193 H   0  0  0  0  0  0  0  0  0  0  0  0  # atno 10718 bound_to 10713
  154.6672  135.2933  154.9790 H   0  0  0  0  0  0  0  0  0  0  0  0  # atno 10763 bound_to 10752
  154.0830  135.6602  153.4844 H   0  0  0  0  0  0  0  0  0  0  0  0  # atno 10764 bound_to 10752
  153.0464  135.5202  154.7650 H   0  0  0  0  0  0  0  0  0  0  0  0  # atno 10765 bound_to 10752
  140.9284  134.1352  157.4256 H   0  0  0  0  0  0  0  0  0  0  0  0  # atno 11005 bound_to 11000
  144.9778  139.3814  143.6277 LP  0  0  0  0  0  0  0  0  0  0  0  0  # atno 17320 bound_to 7965
  146.3379  139.8905  142.8810 LP  0  0  0  0  0  0  0  0  0  0  0  0  # atno 17321 bound_to 7965
  140.0336  144.6062  150.7467 LP  0  0  0  0  0  0  0  0  0  0  0  0  # atno 17342 bound_to 10162
  140.7356  143.2743  151.3791 LP  0  0  0  0  0  0  0  0  0  0  0  0  # atno 17343 bound_to 10162
  157.4011  131.0810  151.1307 LP  0  0  0  0  0  0  0  0  0  0  0  0  # atno 17370 bound_to 10713
  157.1968  130.6377  149.5724 LP  0  0  0  0  0  0  0  0  0  0  0  0  # atno 17371 bound_to 10713
  139.8790  134.9996  156.5965 LP  0  0  0  0  0  0  0  0  0  0  0  0  # atno 17394 bound_to 11000
  140.7895  133.8593  155.8634 LP  0  0  0  0  0  0  0  0  0  0  0  0  # atno 17395 bound_to 11000

$$$$
