AV-unprocessed.smi:3124|AV-procd|sdf|11904|dock1
  -GOLD-   2272017283D 1   1.00000     0.00000
 Structure written by MMmdl.
 24 24  0  0  0  0  0  0  0  0  2 V2000
  150.9239  141.5495  156.6196 C   0  0  0  0  0  0  0  0  0  0  0  0
  150.0421  141.1045  155.4899 C   0  0  0  0  0  0  0  0  0  0  0  0
  148.6352  141.2855  155.3477 C   0  0  0  0  0  0  0  0  0  0  0  0
  148.3353  140.7011  154.1470 C   0  0  0  0  0  0  0  0  0  0  0  0
  147.0474  140.5271  153.4018 C   0  0  0  0  0  0  0  0  0  0  0  0
  146.7105  139.0741  153.0127 C   0  0  2  0  0  0  0  0  0  0  0  0
  146.4683  138.9337  151.5036 C   0  0  0  0  0  0  0  0  0  0  0  0
  145.5365  138.5865  153.7609 N   0  3  0  0  0  0  0  0  0  0  0  0
  149.5250  140.2115  153.6577 N   0  0  0  0  0  0  0  0  0  0  0  0
  150.5734  140.4580  154.4640 N   0  0  0  0  0  0  0  0  0  0  0  0
  149.6362  139.7143  152.7852 H   0  0  0  0  0  0  0  0  0  0  0  0
  150.3424  141.7333  157.5232 H   0  0  0  0  0  0  0  0  0  0  0  0
  151.4458  142.4726  156.3670 H   0  0  0  0  0  0  0  0  0  0  0  0
  151.6750  140.7960  156.8588 H   0  0  0  0  0  0  0  0  0  0  0  0
  147.9538  141.7709  156.0305 H   0  0  0  0  0  0  0  0  0  0  0  0
  146.2302  140.9427  153.9932 H   0  0  0  0  0  0  0  0  0  0  0  0
  147.0944  141.1334  152.4963 H   0  0  0  0  0  0  0  0  0  0  0  0
  147.5544  138.4348  153.2754 H   0  0  0  0  0  0  0  0  0  0  0  0
  147.3439  139.2485  150.9346 H   0  0  0  0  0  0  0  0  0  0  0  0
  145.6242  139.5423  151.1772 H   0  0  0  0  0  0  0  0  0  0  0  0
  146.2574  137.8986  151.2327 H   0  0  0  0  0  0  0  0  0  0  0  0
  145.7089  138.6684  154.7527 H   0  0  0  0  0  0  0  0  0  0  0  0
  145.3695  137.6174  153.5286 H   0  0  0  0  0  0  0  0  0  0  0  0
  144.7260  139.1358  153.5137 H   0  0  0  0  0  0  0  0  0  0  0  0
  1  2  1  0  0  0  0
  1 12  1  0  0  0  0
  1 13  1  0  0  0  0
  1 14  1  0  0  0  0
  2 10  2  0  0  0  0
  2  3  1  0  0  0  0
  3  4  2  0  0  0  0
  3 15  1  0  0  0  0
  4  5  1  0  0  0  0
  4  9  1  0  0  0  0
  5  6  1  0  0  0  0
  5 16  1  0  0  0  0
  5 17  1  0  0  0  0
  6  7  1  0  0  0  0
  6  8  1  0  0  0  0
  6 18  1  0  0  0  0
  7 19  1  0  0  0  0
  7 20  1  0  0  0  0
  7 21  1  0  0  0  0
  8 22  1  0  0  0  0
  8 23  1  0  0  0  0
  8 24  1  0  0  0  0
  9 11  1  0  0  0  0
  9 10  1  0  0  0  0
M  CHG  1   8   1
M  END
> <s_m_source_file>
AV-unprocessed.smi

> <i_m_source_file_index>
3124

> <i_lp_mmshare_version>
43012

> <i_f3d_flags>
0

> <s_epik_input>
W0NIM11jMVtjSF1jKFtuSF1uMSlbQ0gyXVtDQEhdKFtDSDNdKVtOSDJd

> <s_epik_cmdline>
J2VwaWtfcHl0aG9uJywgJy1waCcsICc3LjAnLCAnLXRuJywgJzgnLCAnLW1hJywgJzIwMCcsICctbWV0YWxfYmluZGluZycsICctaW1hZScsICc8aW5maWxlLm1hZT4nLCAnLW9tYWUnLCAnPG91dGZpbGUubWFlPic=

> <r_lp_tautomer_probability>
0.5

> <r_epik_Ionization_Penalty>
0.00227197

> <r_epik_Ionization_Penalty_Charging>
0.00223142

> <r_epik_Ionization_Penalty_Neutral>
4.05538e-05

> <r_epik_State_Penalty>
0.446108

> <r_epik_Charging_Adjusted_Penalty>
0.448339

> <i_epik_Tot_Q>
1

> <i_epik_Tot_abs_Q>
1

> <r_epik_Metal_State_Penalty>
0.444886

> <b_epik_Metal_Only>
0

> <s_lp_Force_Field>
OPLS_2005

> <r_lp_Energy>
4.61412

> <b_lp_Chiralities_Consistent>
1

> <s_lp_Variant>
AV-unprocessed.smi:3124-3

> <Gold.Version>
5.8.1

> <Gold.Id.Protein>
6NUR|6NUR_protein|mol2

> <Gold.PLP.Fitness>
31.4639

> <Gold.PLP.PLP>
-22.4970

> <Gold.PLP.part.hbond>
-3.0000

> <Gold.PLP.part.metal>
0.0000

> <Gold.PLP.part.buried>
-1.9141

> <Gold.PLP.part.nonpolar>
-19.6895

> <Gold.PLP.part.repulsive>
1.0057

> <Gold.PLP.ligand.clash>
0.0000

> <Gold.PLP.ligand.torsion>
0.7622

> <Gold.PLP.Chemscore.Hbond>
3.4960

> <Gold.PLP.Chemscore.CHOScore>
0.0000

> <Gold.PLP.Chemscore.Metal>
0.0000

> <Gold.Chemscore.Hbonds>
donor molecule, donor type, donor heavy atom, donor atom, acceptor molecule, acceptor atom, score
      L1  H     8    24       P1 10175  2.00
      L1  H     9    11       P1  7957  0.78
      P1  H  7989  7998       L1    10  0.89

> <Gold.PLP.Chemscore.Internal.Correction>
0.0033

> <Gold.Rescore>
     Score         DG    S(hbond)    S(metal)    S(lipo)     H(rot)  DE(clash)    DE(int)     intcor
     14.32     -15.38       2.26        0.00      48.56       1.30       0.35       0.72       ----

> <Gold.Chemscore.Fitness>
14.3199

> <Gold.Chemscore.DG>
-15.3848

> <Gold.Chemscore.ZeroCoef>
-5.4800

> <Gold.Chemscore.Hbond>
2.2598

> <Gold.Chemscore.Metal>
0.0000

> <Gold.Chemscore.Lipo>
48.5599

> <Gold.Chemscore.Internal_Hbond>
0.0000

> <Gold.Chemscore.DEClash>
0.3477

> <Gold.Chemscore.DEInternal>
0.7171

> <Gold.Chemscore.Rot>
1.2987

> <Gold.Chemscore.Internal.Correction>
   9.000000E+99

> <Gold.Chemscore.Hbonds>
donor molecule, donor type, donor heavy atom, donor atom, acceptor molecule, acceptor atom, score
      L1  H     8    24       P1 10175  0.96
      L1  H     9    11       P1  7957  0.77
      P1  H  7989  7998       L1    10  0.29

> <Gold.Chemscore.Hbond.Weighted>
-7.5479

> <Gold.Chemscore.Metal.Weighted>
-0.0000

> <Gold.Chemscore.Lipo.Weighted>
-5.6815

> <Gold.Chemscore.Internal_Hbond.Weighted>
0.0000

> <Gold.Chemscore.DEClash.Weighted>
0.3477

> <Gold.Chemscore.DEInternal.Weighted>
0.7171

> <Gold.Chemscore.Rot.Weighted>
3.3246

> <Gold.Chemscore.Internal.Correction.Weighted>
   9.000000E+99

> <Gold.Protein.RotatedTorsions>
[ 6907 6896 6895 6894 ] final   13.37 input  -60.11 | X-H torsion
[ 7974 7965 7964 7962 ] final   14.13 input  175.53 | X-H torsion
[ 8008 7997 7996 7995 ] final  -49.87 input   59.86 | X-H torsion
[ 10167 10162 10161 10158 ] final  120.39 input  -65.29 | X-H torsion
[ 10718 10713 10712 10709 ] final  102.78 input   66.30 | X-H torsion
[ 10763 10752 10751 10750 ] final  -34.89 input  -60.55 | X-H torsion
[ 11005 11000 10999 10996 ] final  108.54 input  -57.11 | X-H torsion

> <Gold.Protein.ActiveResidues>
 VAL166  LYS551  ARG553  GLY616  TRP617  ASP618  TYR619  PRO620  LYS621  CYS622 
 ASP623  PHE694  ASN695  SER759  ASP760  ASP761  ALA762  ILE779  LEU786  VAL792 
 PHE793  MET794  SER795  GLU796  ALA797  LYS798  CYS799  TRP800  GLU811  SER814 

> <Gold.Protein.RotatedAtoms>
  151.7853  135.0750  160.0379 H   0  0  0  0  0  0  0  0  0  0  0  0  # atno 6907 bound_to 6896
  152.3194  133.5833  159.5743 H   0  0  0  0  0  0  0  0  0  0  0  0  # atno 6908 bound_to 6896
  150.7362  133.9949  159.3661 H   0  0  0  0  0  0  0  0  0  0  0  0  # atno 6909 bound_to 6896
  146.2312  139.9087  142.8528 H   0  0  0  0  0  0  0  0  0  0  0  0  # atno 7974 bound_to 7965
  154.4051  140.1286  156.4574 H   0  0  0  0  0  0  0  0  0  0  0  0  # atno 8008 bound_to 7997
  155.7307  140.3491  155.5038 H   0  0  0  0  0  0  0  0  0  0  0  0  # atno 8009 bound_to 7997
  155.9130  140.1039  157.1255 H   0  0  0  0  0  0  0  0  0  0  0  0  # atno 8010 bound_to 7997
  139.5985  144.7049  151.3118 H   0  0  0  0  0  0  0  0  0  0  0  0  # atno 10167 bound_to 10162
  157.6792  131.0762  150.5456 H   0  0  0  0  0  0  0  0  0  0  0  0  # atno 10718 bound_to 10713
  153.8541  135.6846  153.4789 H   0  0  0  0  0  0  0  0  0  0  0  0  # atno 10763 bound_to 10752
  153.1380  135.4669  154.9450 H   0  0  0  0  0  0  0  0  0  0  0  0  # atno 10764 bound_to 10752
  154.7789  135.3262  154.7982 H   0  0  0  0  0  0  0  0  0  0  0  0  # atno 10765 bound_to 10752
  139.8846  134.9433  156.5989 H   0  0  0  0  0  0  0  0  0  0  0  0  # atno 11005 bound_to 11000
  145.2251  140.9951  143.4023 LP  0  0  0  0  0  0  0  0  0  0  0  0  # atno 17320 bound_to 7965
  144.9577  139.4014  143.6371 LP  0  0  0  0  0  0  0  0  0  0  0  0  # atno 17321 bound_to 7965
  140.7231  143.7080  150.7792 LP  0  0  0  0  0  0  0  0  0  0  0  0  # atno 17342 bound_to 10162
  140.0651  143.5116  152.2608 LP  0  0  0  0  0  0  0  0  0  0  0  0  # atno 17343 bound_to 10162
  156.5762  130.4292  149.5997 LP  0  0  0  0  0  0  0  0  0  0  0  0  # atno 17370 bound_to 10713
  156.2699  130.7011  151.1805 LP  0  0  0  0  0  0  0  0  0  0  0  0  # atno 17371 bound_to 10713
  140.7899  133.8591  155.8637 LP  0  0  0  0  0  0  0  0  0  0  0  0  # atno 17394 bound_to 11000
  140.9686  134.1560  157.4595 LP  0  0  0  0  0  0  0  0  0  0  0  0  # atno 17395 bound_to 11000

$$$$
