AV-unprocessed.smi:3281|AV-procd|sdf|12556|dock5
  -GOLD-   2272018473D 1   1.00000     0.00000
 Structure written by MMmdl.
 37 38  0  0  0  0  0  0  0  0  2 V2000
  150.8921  135.3590  155.7262 C   0  0  0  0  0  0  0  0  0  0  0  0
  149.6310  136.1793  155.4357 C   0  0  0  0  0  0  0  0  0  0  0  0
  149.9140  137.6227  155.1788 C   0  0  0  0  0  0  0  0  0  0  0  0
  150.6972  138.1592  154.1867 C   0  0  0  0  0  0  0  0  0  0  0  0
  150.7606  139.5546  154.2096 N   0  0  0  0  0  0  0  0  0  0  0  0
  150.0536  140.0802  155.2122 C   0  0  0  0  0  0  0  0  0  0  0  0
  149.9214  141.5478  155.4444 C   0  0  0  0  0  0  0  0  0  0  0  0
  150.5644  141.9885  156.7653 C   0  0  0  0  0  0  0  0  0  0  0  0
  151.1469  143.3413  156.6439 N   0  3  0  0  0  0  0  0  0  0  0  0
  151.8143  143.8576  157.8602 C   0  0  2  0  0  0  0  0  0  0  0  0
  152.3441  142.7030  158.7399 C   0  0  0  0  0  0  0  0  0  0  0  0
  153.0854  143.1976  159.9935 C   0  0  0  0  0  0  0  0  0  0  0  0
  152.1920  144.0405  160.9130 C   0  0  0  0  0  0  0  0  0  0  0  0
  151.6158  145.5357  160.0668 S   0  0  0  0  0  0  0  0  0  0  0  0
  150.8261  144.7448  158.6391 C   0  0  0  0  0  0  0  0  0  0  0  0
  149.2281  138.8709  156.1873 S   0  0  0  0  0  0  0  0  0  0  0  0
  150.6420  134.3131  155.9053 H   0  0  0  0  0  0  0  0  0  0  0  0
  151.4119  135.7320  156.6091 H   0  0  0  0  0  0  0  0  0  0  0  0
  151.5869  135.3966  154.8867 H   0  0  0  0  0  0  0  0  0  0  0  0
  149.1138  135.7506  154.5767 H   0  0  0  0  0  0  0  0  0  0  0  0
  148.9421  136.0910  156.2762 H   0  0  0  0  0  0  0  0  0  0  0  0
  151.2410  137.6237  153.4224 H   0  0  0  0  0  0  0  0  0  0  0  0
  150.3818  142.0734  154.6070 H   0  0  0  0  0  0  0  0  0  0  0  0
  148.8623  141.8097  155.4344 H   0  0  0  0  0  0  0  0  0  0  0  0
  149.8154  141.9764  157.5572 H   0  0  0  0  0  0  0  0  0  0  0  0
  151.3463  141.2824  157.0484 H   0  0  0  0  0  0  0  0  0  0  0  0
  151.8419  143.3002  155.9120 H   0  0  0  0  0  0  0  0  0  0  0  0
  152.6513  144.4832  157.5452 H   0  0  0  0  0  0  0  0  0  0  0  0
  151.5183  142.0551  159.0374 H   0  0  0  0  0  0  0  0  0  0  0  0
  153.0297  142.0777  158.1687 H   0  0  0  0  0  0  0  0  0  0  0  0
  153.4614  142.3387  160.5500 H   0  0  0  0  0  0  0  0  0  0  0  0
  153.9618  143.7772  159.7001 H   0  0  0  0  0  0  0  0  0  0  0  0
  151.3289  143.4611  161.2427 H   0  0  0  0  0  0  0  0  0  0  0  0
  152.7409  144.3346  161.8079 H   0  0  0  0  0  0  0  0  0  0  0  0
  150.4307  145.5303  157.9943 H   0  0  0  0  0  0  0  0  0  0  0  0
  149.9743  144.1590  158.9870 H   0  0  0  0  0  0  0  0  0  0  0  0
  150.4268  143.9918  156.3638 H   0  0  0  0  0  0  0  0  0  0  0  0
  1  2  1  0  0  0  0
  1 17  1  0  0  0  0
  1 18  1  0  0  0  0
  1 19  1  0  0  0  0
  2  3  1  0  0  0  0
  2 20  1  0  0  0  0
  2 21  1  0  0  0  0
  3 16  1  0  0  0  0
  3  4  2  0  0  0  0
  4  5  1  0  0  0  0
  4 22  1  0  0  0  0
  5  6  2  0  0  0  0
  6  7  1  0  0  0  0
  6 16  1  0  0  0  0
  7  8  1  0  0  0  0
  7 23  1  0  0  0  0
  7 24  1  0  0  0  0
  8  9  1  0  0  0  0
  8 25  1  0  0  0  0
  8 26  1  0  0  0  0
  9 10  1  0  0  0  0
  9 27  1  0  0  0  0
  9 37  1  0  0  0  0
 10 15  1  0  0  0  0
 10 11  1  0  0  0  0
 10 28  1  0  0  0  0
 11 12  1  0  0  0  0
 11 29  1  0  0  0  0
 11 30  1  0  0  0  0
 12 13  1  0  0  0  0
 12 31  1  0  0  0  0
 12 32  1  0  0  0  0
 13 14  1  0  0  0  0
 13 33  1  0  0  0  0
 13 34  1  0  0  0  0
 14 15  1  0  0  0  0
 15 35  1  0  0  0  0
 15 36  1  0  0  0  0
M  CHG  1   9   1
M  END
> <s_m_source_file>
AV-unprocessed.smi

> <i_m_source_file_index>
3281

> <i_lp_mmshare_version>
43012

> <i_f3d_flags>
0

> <s_epik_input>
W0NIM11bQ0gyXWMxW2NIXW5jKHMxKVtDSDJdW0NIMl1bTkhdW0NAQEhdMltDSDJdW0NIMl1bQ0gyXVNbQ0gyXTI=

> <s_epik_cmdline>
J2VwaWtfcHl0aG9uJywgJy1waCcsICc3LjAnLCAnLXRuJywgJzgnLCAnLW1hJywgJzIwMCcsICctbWV0YWxfYmluZGluZycsICctaW1hZScsICc8aW5maWxlLm1hZT4nLCAnLW9tYWUnLCAnPG91dGZpbGUubWFlPic=

> <r_epik_Ionization_Penalty>
0.00827702

> <r_epik_Ionization_Penalty_Charging>
0.00826679

> <r_epik_Ionization_Penalty_Neutral>
1.02314e-05

> <r_epik_State_Penalty>
0.00622064

> <r_epik_Charging_Adjusted_Penalty>
0.0144874

> <i_epik_Tot_Q>
1

> <i_epik_Tot_abs_Q>
1

> <r_epik_Metal_State_Penalty>
0.0062521

> <b_epik_Metal_Only>
0

> <s_lp_Force_Field>
OPLS_2005

> <r_lp_Energy>
-1.10641

> <b_lp_Chiralities_Consistent>
1

> <s_lp_Variant>
AV-unprocessed.smi:3281-1

> <Gold.Version>
5.8.1

> <Gold.Id.Protein>
6NUR|6NUR_protein|mol2

> <Gold.PLP.Fitness>
48.6598

> <Gold.PLP.PLP>
-38.0691

> <Gold.PLP.part.hbond>
-2.0000

> <Gold.PLP.part.metal>
0.0000

> <Gold.PLP.part.buried>
-4.2295

> <Gold.PLP.part.nonpolar>
-33.0665

> <Gold.PLP.part.repulsive>
0.2159

> <Gold.PLP.ligand.clash>
0.0000

> <Gold.PLP.ligand.torsion>
0.7340

> <Gold.PLP.Chemscore.Hbond>
3.0000

> <Gold.PLP.Chemscore.CHOScore>
1.0000

> <Gold.PLP.Chemscore.Metal>
0.0000

> <Gold.Chemscore.Hbonds>
donor molecule, donor type, donor heavy atom, donor atom, acceptor molecule, acceptor atom, score
      L1  H     9    37       P1  8028  2.00
      P1  H  7989  7998       L1     5  1.00
      L1  C     4    22       P1  7949  1.00

> <Gold.PLP.Chemscore.Internal.Correction>
0.0588

> <Gold.Rescore>
     Score         DG    S(hbond)    S(metal)    S(lipo)     H(rot)  DE(clash)    DE(int)     intcor
     21.12     -21.81       1.92        0.00     114.97       1.38       0.02       0.68       ----

> <Gold.Chemscore.Fitness>
21.1166

> <Gold.Chemscore.DG>
-21.8137

> <Gold.Chemscore.ZeroCoef>
-5.4800

> <Gold.Chemscore.Hbond>
1.9183

> <Gold.Chemscore.Metal>
0.0000

> <Gold.Chemscore.Lipo>
114.9657

> <Gold.Chemscore.Internal_Hbond>
0.0000

> <Gold.Chemscore.DEClash>
0.0201

> <Gold.Chemscore.DEInternal>
0.6771

> <Gold.Chemscore.Rot>
1.3767

> <Gold.Chemscore.Internal.Correction>
   9.000000E+99

> <Gold.Chemscore.Hbonds>
donor molecule, donor type, donor heavy atom, donor atom, acceptor molecule, acceptor atom, score
      L1  H     9    37       P1  8028  1.00
      P1  H  7989  7998       L1     5  0.60

> <Gold.Chemscore.Hbond.Weighted>
-6.4071

> <Gold.Chemscore.Metal.Weighted>
-0.0000

> <Gold.Chemscore.Lipo.Weighted>
-13.4510

> <Gold.Chemscore.Internal_Hbond.Weighted>
0.0000

> <Gold.Chemscore.DEClash.Weighted>
0.0201

> <Gold.Chemscore.DEInternal.Weighted>
0.6771

> <Gold.Chemscore.Rot.Weighted>
3.5243

> <Gold.Chemscore.Internal.Correction.Weighted>
   9.000000E+99

> <Gold.Protein.RotatedTorsions>
[ 6907 6896 6895 6894 ] final   20.43 input  -60.11 | X-H torsion
[ 7974 7965 7964 7962 ] final    8.09 input  175.53 | X-H torsion
[ 8008 7997 7996 7995 ] final   47.82 input   59.86 | X-H torsion
[ 10167 10162 10161 10158 ] final -167.48 input  -65.29 | X-H torsion
[ 10718 10713 10712 10709 ] final  142.28 input   66.30 | X-H torsion
[ 10763 10752 10751 10750 ] final   -5.14 input  -60.55 | X-H torsion
[ 11005 11000 10999 10996 ] final   22.44 input  -57.11 | X-H torsion

> <Gold.Protein.ActiveResidues>
 VAL166  LYS551  ARG553  GLY616  TRP617  ASP618  TYR619  PRO620  LYS621  CYS622 
 ASP623  PHE694  ASN695  SER759  ASP760  ASP761  ALA762  ILE779  LEU786  VAL792 
 PHE793  MET794  SER795  GLU796  ALA797  LYS798  CYS799  TRP800  GLU811  SER814 

> <Gold.Protein.RotatedAtoms>
  151.8963  135.0396  160.0502 H   0  0  0  0  0  0  0  0  0  0  0  0  # atno 6907 bound_to 6896
  152.2395  133.5119  159.5270 H   0  0  0  0  0  0  0  0  0  0  0  0  # atno 6908 bound_to 6896
  150.7049  134.1024  159.4013 H   0  0  0  0  0  0  0  0  0  0  0  0  # atno 6909 bound_to 6896
  146.2420  139.9985  142.8418 H   0  0  0  0  0  0  0  0  0  0  0  0  # atno 7974 bound_to 7965
  155.3754  140.3426  155.4244 H   0  0  0  0  0  0  0  0  0  0  0  0  # atno 8008 bound_to 7997
  156.1640  140.1610  156.8598 H   0  0  0  0  0  0  0  0  0  0  0  0  # atno 8009 bound_to 7997
  154.5167  140.0777  156.8076 H   0  0  0  0  0  0  0  0  0  0  0  0  # atno 8010 bound_to 7997
  139.6047  144.0938  152.1780 H   0  0  0  0  0  0  0  0  0  0  0  0  # atno 10167 bound_to 10162
  157.3824  131.0994  151.0726 H   0  0  0  0  0  0  0  0  0  0  0  0  # atno 10718 bound_to 10713
  153.3945  135.7003  153.6470 H   0  0  0  0  0  0  0  0  0  0  0  0  # atno 10763 bound_to 10752
  153.5029  135.3648  155.2549 H   0  0  0  0  0  0  0  0  0  0  0  0  # atno 10764 bound_to 10752
  154.8705  135.4116  154.3268 H   0  0  0  0  0  0  0  0  0  0  0  0  # atno 10765 bound_to 10752
  140.3806  134.1925  155.7664 H   0  0  0  0  0  0  0  0  0  0  0  0  # atno 11005 bound_to 11000
  145.1437  140.9585  143.4473 LP  0  0  0  0  0  0  0  0  0  0  0  0  # atno 17320 bound_to 7965
  145.0271  139.3373  143.6043 LP  0  0  0  0  0  0  0  0  0  0  0  0  # atno 17321 bound_to 7965
  140.0543  144.5908  150.7312 LP  0  0  0  0  0  0  0  0  0  0  0  0  # atno 17342 bound_to 10162
  140.7276  143.2653  151.4067 LP  0  0  0  0  0  0  0  0  0  0  0  0  # atno 17343 bound_to 10162
  157.1790  130.6301  149.5665 LP  0  0  0  0  0  0  0  0  0  0  0  0  # atno 17370 bound_to 10713
  155.9779  130.4760  150.6620 LP  0  0  0  0  0  0  0  0  0  0  0  0  # atno 17371 bound_to 10713
  141.1925  133.8172  157.0838 LP  0  0  0  0  0  0  0  0  0  0  0  0  # atno 17394 bound_to 11000
  140.0482  134.9819  157.1087 LP  0  0  0  0  0  0  0  0  0  0  0  0  # atno 17395 bound_to 11000

$$$$
