AV-unprocessed.smi:1607|AV-procd|sdf|6464|dock6
  -GOLD-   22720 7123D 1   1.00000     0.00000
 Structure written by MMmdl.
 39 40  0  0  0  0  0  0  0  0  2 V2000
  146.5796  133.8565  151.0224 C   0  0  0  0  0  0  0  0  0  0  0  0
  145.2600  134.6304  151.1883 C   0  0  1  0  0  0  0  0  0  0  0  0
  144.6050  134.4069  152.5641 C   0  0  0  0  0  0  0  0  0  0  0  0
  145.3548  135.1651  153.6687 C   0  0  0  0  0  0  0  0  0  0  0  0
  145.5100  136.6518  153.3112 C   0  0  0  0  0  0  0  0  0  0  0  0
  146.1828  136.8192  151.9972 N   0  3  2  0  0  0  0  0  0  0  0  0
  146.4901  138.2407  151.6988 C   0  0  0  0  0  0  0  0  0  0  0  0
  147.1453  138.9621  152.8930 C   0  0  0  0  0  0  0  0  0  0  0  0
  148.5762  138.6900  152.9668 N   0  0  0  0  0  0  0  0  0  0  0  0
  149.2023  138.1569  154.0275 C   0  0  0  0  0  0  0  0  0  0  0  0
  148.6216  137.8526  155.0694 O   0  0  0  0  0  0  0  0  0  0  0  0
  150.7103  137.9336  153.8943 C   0  0  0  0  0  0  0  0  0  0  0  0
  151.4505  138.7817  154.8104 N   0  0  0  0  0  0  0  0  0  0  0  0
  152.4477  138.5034  155.6526 C   0  0  0  0  0  0  0  0  0  0  0  0
  152.8419  139.5791  156.3167 N   0  0  0  0  0  0  0  0  0  0  0  0
  152.0106  140.5729  155.8274 N   0  0  0  0  0  0  0  0  0  0  0  0
  151.1834  140.1059  154.9330 N   0  0  0  0  0  0  0  0  0  0  0  0
  145.4303  136.1378  150.9087 C   0  0  0  0  0  0  0  0  0  0  0  0
  147.3434  134.1971  151.7215 H   0  0  0  0  0  0  0  0  0  0  0  0
  146.9794  133.9774  150.0152 H   0  0  0  0  0  0  0  0  0  0  0  0
  146.4309  132.7890  151.1878 H   0  0  0  0  0  0  0  0  0  0  0  0
  144.5763  134.2338  150.4363 H   0  0  0  0  0  0  0  0  0  0  0  0
  143.5727  134.7580  152.5305 H   0  0  0  0  0  0  0  0  0  0  0  0
  144.5575  133.3429  152.7988 H   0  0  0  0  0  0  0  0  0  0  0  0
  144.8203  135.0653  154.6140 H   0  0  0  0  0  0  0  0  0  0  0  0
  146.3373  134.7194  153.8262 H   0  0  0  0  0  0  0  0  0  0  0  0
  144.5340  137.1393  153.2865 H   0  0  0  0  0  0  0  0  0  0  0  0
  146.0911  137.1442  154.0919 H   0  0  0  0  0  0  0  0  0  0  0  0
  147.1205  138.3059  150.8106 H   0  0  0  0  0  0  0  0  0  0  0  0
  145.5614  138.7581  151.4543 H   0  0  0  0  0  0  0  0  0  0  0  0
  146.9743  140.0383  152.8302 H   0  0  0  0  0  0  0  0  0  0  0  0
  146.7072  138.6340  153.8347 H   0  0  0  0  0  0  0  0  0  0  0  0
  149.1278  138.9109  152.1499 H   0  0  0  0  0  0  0  0  0  0  0  0
  150.9698  136.8934  154.0977 H   0  0  0  0  0  0  0  0  0  0  0  0
  151.0200  138.1487  152.8706 H   0  0  0  0  0  0  0  0  0  0  0  0
  152.8794  137.5215  155.7795 H   0  0  0  0  0  0  0  0  0  0  0  0
  145.9333  136.2691  149.9512 H   0  0  0  0  0  0  0  0  0  0  0  0
  144.4498  136.6064  150.8079 H   0  0  0  0  0  0  0  0  0  0  0  0
  147.0728  136.3484  152.0790 H   0  0  0  0  0  0  0  0  0  0  0  0
  1  2  1  0  0  0  0
  1 19  1  0  0  0  0
  1 20  1  0  0  0  0
  1 21  1  0  0  0  0
  2 18  1  0  0  0  0
  2  3  1  0  0  0  0
  2 22  1  0  0  0  0
  3  4  1  0  0  0  0
  3 23  1  0  0  0  0
  3 24  1  0  0  0  0
  4  5  1  0  0  0  0
  4 25  1  0  0  0  0
  4 26  1  0  0  0  0
  5  6  1  0  0  0  0
  5 27  1  0  0  0  0
  5 28  1  0  0  0  0
  6  7  1  0  0  0  0
  6 18  1  0  0  0  0
  6 39  1  0  0  0  0
  7  8  1  0  0  0  0
  7 29  1  0  0  0  0
  7 30  1  0  0  0  0
  8  9  1  0  0  0  0
  8 31  1  0  0  0  0
  8 32  1  0  0  0  0
  9 10  1  0  0  0  0
  9 33  1  0  0  0  0
 10 11  2  0  0  0  0
 10 12  1  0  0  0  0
 12 13  1  0  0  0  0
 12 34  1  0  0  0  0
 12 35  1  0  0  0  0
 13 17  1  0  0  0  0
 13 14  1  0  0  0  0
 14 15  2  0  0  0  0
 14 36  1  0  0  0  0
 15 16  1  0  0  0  0
 16 17  2  0  0  0  0
 18 37  1  0  0  0  0
 18 38  1  0  0  0  0
M  CHG  1   6   1
M  END
> <s_m_source_file>
AV-unprocessed.smi

> <i_m_source_file_index>
1607

> <i_lp_mmshare_version>
43012

> <i_f3d_flags>
0

> <s_epik_input>
W0NIM11bQ0BASF0xW0NIMl1bQ0gyXVtDSDJdTihbQ0gyXTEpW0NIMl1bQ0gyXVtOSF1DKD1PKVtDSDJdbjJbY0hdbm5uMg==

> <s_epik_cmdline>
J2VwaWtfcHl0aG9uJywgJy1waCcsICc3LjAnLCAnLXRuJywgJzgnLCAnLW1hJywgJzIwMCcsICctbWV0YWxfYmluZGluZycsICctaW1hZScsICc8aW5maWxlLm1hZT4nLCAnLW9tYWUnLCAnPG91dGZpbGUubWFlPic=

> <r_lp_tautomer_probability>
1

> <r_epik_Ionization_Penalty>
0.00268321

> <r_epik_Ionization_Penalty_Charging>
0.00267875

> <r_epik_Ionization_Penalty_Neutral>
4.46125e-06

> <r_epik_State_Penalty>
0.00186642

> <r_epik_Charging_Adjusted_Penalty>
0.00454517

> <i_epik_Tot_Q>
1

> <i_epik_Tot_abs_Q>
1

> <r_epik_Metal_State_Penalty>
-0

> <b_epik_Metal_Only>
0

> <s_lp_Force_Field>
OPLS_2005

> <r_lp_Energy>
22.4706

> <b_lp_Chiralities_Consistent>
1

> <s_lp_Variant>
AV-unprocessed.smi:1607-2

> <Gold.Version>
5.8.1

> <Gold.Id.Protein>
6NUR|6NUR_protein|mol2

> <Gold.PLP.Fitness>
43.9727

> <Gold.PLP.PLP>
-29.5864

> <Gold.PLP.part.hbond>
-5.2147

> <Gold.PLP.part.metal>
0.0000

> <Gold.PLP.part.buried>
-0.1068

> <Gold.PLP.part.nonpolar>
-23.1489

> <Gold.PLP.part.repulsive>
0.2579

> <Gold.PLP.ligand.clash>
0.0000

> <Gold.PLP.ligand.torsion>
0.3306

> <Gold.PLP.Chemscore.Hbond>
5.0000

> <Gold.PLP.Chemscore.CHOScore>
0.0000

> <Gold.PLP.Chemscore.Metal>
0.0000

> <Gold.Chemscore.Hbonds>
donor molecule, donor type, donor heavy atom, donor atom, acceptor molecule, acceptor atom, score
      L1  H     6    39       P1  7948  2.00
      L1  H     9    33       P1  7957  0.96
      P1  H  7989  7998       L1    17  1.00
      P1  H  7997  8009       L1    15  1.00

> <Gold.PLP.Chemscore.Internal.Correction>
0.0475

> <Gold.Rescore>
     Score         DG    S(hbond)    S(metal)    S(lipo)     H(rot)  DE(clash)    DE(int)     intcor
     13.34     -13.63       2.83        0.00      47.79       2.69       0.08       0.22       ----

> <Gold.Chemscore.Fitness>
13.3387

> <Gold.Chemscore.DG>
-13.6301

> <Gold.Chemscore.ZeroCoef>
-5.4800

> <Gold.Chemscore.Hbond>
2.8303

> <Gold.Chemscore.Metal>
0.0000

> <Gold.Chemscore.Lipo>
47.7901

> <Gold.Chemscore.Internal_Hbond>
0.0000

> <Gold.Chemscore.DEClash>
0.0761

> <Gold.Chemscore.DEInternal>
0.2153

> <Gold.Chemscore.Rot>
2.6932

> <Gold.Chemscore.Internal.Correction>
   9.000000E+99

> <Gold.Chemscore.Hbonds>
donor molecule, donor type, donor heavy atom, donor atom, acceptor molecule, acceptor atom, score
      L1  H     6    39       P1  7948  0.97
      L1  H     9    33       P1  7957  0.76
      P1  H  7989  7998       L1    17  0.29
      P1  H  7997  8009       L1    15  0.87

> <Gold.Chemscore.Hbond.Weighted>
-9.4532

> <Gold.Chemscore.Metal.Weighted>
-0.0000

> <Gold.Chemscore.Lipo.Weighted>
-5.5914

> <Gold.Chemscore.Internal_Hbond.Weighted>
0.0000

> <Gold.Chemscore.DEClash.Weighted>
0.0761

> <Gold.Chemscore.DEInternal.Weighted>
0.2153

> <Gold.Chemscore.Rot.Weighted>
6.8945

> <Gold.Chemscore.Internal.Correction.Weighted>
   9.000000E+99

> <Gold.Protein.RotatedTorsions>
[ 6907 6896 6895 6894 ] final  164.19 input  -60.11 | X-H torsion
[ 7974 7965 7964 7962 ] final   41.40 input  175.53 | X-H torsion
[ 8008 7997 7996 7995 ] final -179.12 input   59.86 | X-H torsion
[ 10167 10162 10161 10158 ] final   56.78 input  -65.29 | X-H torsion
[ 10718 10713 10712 10709 ] final  -19.65 input   66.30 | X-H torsion
[ 10763 10752 10751 10750 ] final  -30.44 input  -60.55 | X-H torsion
[ 11005 11000 10999 10996 ] final   39.00 input  -57.11 | X-H torsion

> <Gold.Protein.ActiveResidues>
 VAL166  LYS551  ARG553  GLY616  TRP617  ASP618  TYR619  PRO620  LYS621  CYS622 
 ASP623  PHE694  ASN695  SER759  ASP760  ASP761  ALA762  ILE779  LEU786  VAL792 
 PHE793  MET794  SER795  GLU796  ALA797  LYS798  CYS799  TRP800  GLU811  SER814 

> <Gold.Protein.RotatedAtoms>
  151.9137  133.3567  159.3872 H   0  0  0  0  0  0  0  0  0  0  0  0  # atno 6907 bound_to 6896
  150.7052  134.4706  159.5433 H   0  0  0  0  0  0  0  0  0  0  0  0  # atno 6908 bound_to 6896
  152.2317  134.8315  160.0523 H   0  0  0  0  0  0  0  0  0  0  0  0  # atno 6909 bound_to 6896
  146.0826  139.5420  142.9527 H   0  0  0  0  0  0  0  0  0  0  0  0  # atno 7974 bound_to 7965
  156.0268  140.1273  157.0300 H   0  0  0  0  0  0  0  0  0  0  0  0  # atno 8008 bound_to 7997
  154.4333  140.1057  156.6112 H   0  0  0  0  0  0  0  0  0  0  0  0  # atno 8009 bound_to 7997
  155.5865  140.3469  155.4557 H   0  0  0  0  0  0  0  0  0  0  0  0  # atno 8010 bound_to 7997
  140.2051  144.3947  150.6512 H   0  0  0  0  0  0  0  0  0  0  0  0  # atno 10167 bound_to 10162
  156.5428  130.4682  149.6490 H   0  0  0  0  0  0  0  0  0  0  0  0  # atno 10718 bound_to 10713
  153.7810  135.6905  153.4888 H   0  0  0  0  0  0  0  0  0  0  0  0  # atno 10763 bound_to 10752
  153.1812  135.4506  155.0029 H   0  0  0  0  0  0  0  0  0  0  0  0  # atno 10764 bound_to 10752
  154.8082  135.3366  154.7312 H   0  0  0  0  0  0  0  0  0  0  0  0  # atno 10765 bound_to 10752
  140.2070  134.3801  155.8067 H   0  0  0  0  0  0  0  0  0  0  0  0  # atno 11005 bound_to 11000
  145.6189  141.0326  143.1926 LP  0  0  0  0  0  0  0  0  0  0  0  0  # atno 17320 bound_to 7965
  144.7304  139.7744  143.7349 LP  0  0  0  0  0  0  0  0  0  0  0  0  # atno 17321 bound_to 7965
  140.6363  143.2195  151.6387 LP  0  0  0  0  0  0  0  0  0  0  0  0  # atno 17342 bound_to 10162
  139.5202  144.3231  152.0893 LP  0  0  0  0  0  0  0  0  0  0  0  0  # atno 17343 bound_to 10162
  156.2956  130.7148  151.2008 LP  0  0  0  0  0  0  0  0  0  0  0  0  # atno 17370 bound_to 10713
  157.7402  131.0520  150.5181 LP  0  0  0  0  0  0  0  0  0  0  0  0  # atno 17371 bound_to 10713
  141.2227  133.7123  156.8355 LP  0  0  0  0  0  0  0  0  0  0  0  0  # atno 17394 bound_to 11000
  140.1991  134.8910  157.3149 LP  0  0  0  0  0  0  0  0  0  0  0  0  # atno 17395 bound_to 11000

$$$$
