AV-unprocessed.smi:2666|AV-procd|sdf|10332|dock5
  -GOLD-   2272014353D 1   1.00000     0.00000
 Structure written by MMmdl.
 43 44  0  0  0  0  0  0  0  0  1 V2000
  149.1620  140.6097  157.2524 O   0  0  0  0  0  0  0  0  0  0  0  0
  149.1498  141.7258  156.7342 C   0  0  0  0  0  0  0  0  0  0  0  0
  149.9429  142.7535  157.0818 N   0  0  0  0  0  0  0  0  0  0  0  0
  150.9832  142.7851  158.0496 C   0  0  0  0  0  0  0  0  0  0  0  0
  151.5639  144.0339  158.3526 C   0  0  0  0  0  0  0  0  0  0  0  0
  152.6103  144.0951  159.2924 C   0  0  0  0  0  0  0  0  0  0  0  0
  153.0435  142.8962  159.8905 C   0  0  0  0  0  0  0  0  0  0  0  0
  152.5093  141.6907  159.6025 N   0  0  0  0  0  0  0  0  0  0  0  0
  151.5049  141.6395  158.7009 C   0  0  0  0  0  0  0  0  0  0  0  0
  148.3144  142.0784  155.7456 N   0  0  0  0  0  0  0  0  0  0  0  0
  147.3206  141.2144  155.1037 C   0  0  2  0  0  0  0  0  0  0  0  0
  147.9490  140.5489  153.8518 C   0  0  0  0  0  0  0  0  0  0  0  0
  147.0841  139.4677  153.1734 C   0  0  0  0  0  0  0  0  0  0  0  0
  147.8674  138.5737  152.4093 O   0  0  0  0  0  0  0  0  0  0  0  0
  146.0309  142.0306  154.7943 C   0  0  0  0  0  0  0  0  0  0  0  0
  146.2936  143.1808  153.7872 C   0  0  0  0  0  0  0  0  0  0  0  0
  145.0282  143.9972  153.4815 C   0  0  0  0  0  0  0  0  0  0  0  0
  144.4081  144.5616  154.7649 C   0  0  0  0  0  0  0  0  0  0  0  0
  144.1114  143.4337  155.7604 C   0  0  0  0  0  0  0  0  0  0  0  0
  145.3731  142.6115  156.0708 C   0  0  0  0  0  0  0  0  0  0  0  0
  149.7558  143.6317  156.6206 H   0  0  0  0  0  0  0  0  0  0  0  0
  151.2122  144.9367  157.8746 H   0  0  0  0  0  0  0  0  0  0  0  0
  153.0706  145.0379  159.5482 H   0  0  0  0  0  0  0  0  0  0  0  0
  153.8439  142.9050  160.6156 H   0  0  0  0  0  0  0  0  0  0  0  0
  151.1396  140.6460  158.4946 H   0  0  0  0  0  0  0  0  0  0  0  0
  148.3814  143.0208  155.3902 H   0  0  0  0  0  0  0  0  0  0  0  0
  147.0401  140.4117  155.7880 H   0  0  0  0  0  0  0  0  0  0  0  0
  148.1173  141.3168  153.0985 H   0  0  0  0  0  0  0  0  0  0  0  0
  148.9338  140.1436  154.0884 H   0  0  0  0  0  0  0  0  0  0  0  0
  146.5028  138.9136  153.9113 H   0  0  0  0  0  0  0  0  0  0  0  0
  146.3714  139.9387  152.4959 H   0  0  0  0  0  0  0  0  0  0  0  0
  148.4502  139.0780  151.8621 H   0  0  0  0  0  0  0  0  0  0  0  0
  145.3119  141.3512  154.3336 H   0  0  0  0  0  0  0  0  0  0  0  0
  147.0658  143.8423  154.1825 H   0  0  0  0  0  0  0  0  0  0  0  0
  146.6778  142.7921  152.8445 H   0  0  0  0  0  0  0  0  0  0  0  0
  145.2687  144.8109  152.7968 H   0  0  0  0  0  0  0  0  0  0  0  0
  144.3009  143.3664  152.9690 H   0  0  0  0  0  0  0  0  0  0  0  0
  145.0902  145.2827  155.2173 H   0  0  0  0  0  0  0  0  0  0  0  0
  143.4918  145.1042  154.5303 H   0  0  0  0  0  0  0  0  0  0  0  0
  143.7049  143.8513  156.6820 H   0  0  0  0  0  0  0  0  0  0  0  0
  143.3405  142.7792  155.3521 H   0  0  0  0  0  0  0  0  0  0  0  0
  145.0877  141.8155  156.7568 H   0  0  0  0  0  0  0  0  0  0  0  0
  146.0918  143.2366  156.6030 H   0  0  0  0  0  0  0  0  0  0  0  0
  1  2  2  0  0  0  0
  2  3  1  0  0  0  0
  2 10  1  0  0  0  0
  3  4  1  0  0  0  0
  3 21  1  0  0  0  0
  4  9  1  0  0  0  0
  4  5  2  0  0  0  0
  5  6  1  0  0  0  0
  5 22  1  0  0  0  0
  6  7  2  0  0  0  0
  6 23  1  0  0  0  0
  7  8  1  0  0  0  0
  7 24  1  0  0  0  0
  8  9  2  0  0  0  0
  9 25  1  0  0  0  0
 10 11  1  0  0  0  0
 10 26  1  0  0  0  0
 11 12  1  0  0  0  0
 11 15  1  0  0  0  0
 11 27  1  0  0  0  0
 12 13  1  0  0  0  0
 12 28  1  0  0  0  0
 12 29  1  0  0  0  0
 13 14  1  0  0  0  0
 13 30  1  0  0  0  0
 13 31  1  0  0  0  0
 14 32  1  0  0  0  0
 15 20  1  0  0  0  0
 15 16  1  0  0  0  0
 15 33  1  0  0  0  0
 16 17  1  0  0  0  0
 16 34  1  0  0  0  0
 16 35  1  0  0  0  0
 17 18  1  0  0  0  0
 17 36  1  0  0  0  0
 17 37  1  0  0  0  0
 18 19  1  0  0  0  0
 18 38  1  0  0  0  0
 18 39  1  0  0  0  0
 19 20  1  0  0  0  0
 19 40  1  0  0  0  0
 19 41  1  0  0  0  0
 20 42  1  0  0  0  0
 20 43  1  0  0  0  0
M  END
> <s_m_source_file>
AV-unprocessed.smi

> <i_m_source_file_index>
2666

> <i_lp_mmshare_version>
43012

> <i_f3d_flags>
0

> <s_epik_input>
W2NIXTFuW2NIXVtjSF1bY0hdYzFbTkhdQyg9TylbTkhdW0NASF0oW0NIMl1bQ0gyXVtPSF0pW0NIXTJbQ0gyXVtDSDJdW0NIMl1bQ0gyXVtDSDJdMg==

> <s_epik_cmdline>
J2VwaWtfcHl0aG9uJywgJy1waCcsICc3LjAnLCAnLXRuJywgJzgnLCAnLW1hJywgJzIwMCcsICctbWV0YWxfYmluZGluZycsICctaW1hZScsICc8aW5maWxlLm1hZT4nLCAnLW9tYWUnLCAnPG91dGZpbGUubWFlPic=

> <r_epik_Ionization_Penalty>
0.00500145

> <r_epik_Ionization_Penalty_Charging>
0

> <r_epik_Ionization_Penalty_Neutral>
0.00500145

> <r_epik_State_Penalty>
0.00360517

> <r_epik_Charging_Adjusted_Penalty>
0.00360517

> <i_epik_Tot_Q>
0

> <i_epik_Tot_abs_Q>
0

> <r_epik_Metal_State_Penalty>
-0

> <b_epik_Metal_Only>
0

> <s_lp_Force_Field>
OPLS_2005

> <r_lp_Energy>
19.5826

> <b_lp_Chiralities_Consistent>
1

> <s_lp_Variant>
AV-unprocessed.smi:2666-1

> <Gold.Version>
5.8.1

> <Gold.Id.Protein>
6NUR|6NUR_protein|mol2

> <Gold.PLP.Fitness>
49.4663

> <Gold.PLP.PLP>
-41.4134

> <Gold.PLP.part.hbond>
-3.8418

> <Gold.PLP.part.metal>
0.0000

> <Gold.PLP.part.buried>
-4.5081

> <Gold.PLP.part.nonpolar>
-33.0018

> <Gold.PLP.part.repulsive>
0.1239

> <Gold.PLP.ligand.clash>
0.0000

> <Gold.PLP.ligand.torsion>
0.5040

> <Gold.PLP.Chemscore.Hbond>
3.0000

> <Gold.PLP.Chemscore.CHOScore>
0.0000

> <Gold.PLP.Chemscore.Metal>
0.0000

> <Gold.Chemscore.Hbonds>
donor molecule, donor type, donor heavy atom, donor atom, acceptor molecule, acceptor atom, score
      L1  H     3    21       P1  8028  1.00
      L1  H    10    26       P1  8028  0.99
      L1  H    14    32       P1  7957  1.00

> <Gold.PLP.Chemscore.Internal.Correction>
0.0608

> <Gold.Rescore>
     Score         DG    S(hbond)    S(metal)    S(lipo)     H(rot)  DE(clash)    DE(int)     intcor
     19.67     -21.44       2.90        0.00     102.45       2.23       0.09       1.68       ----

> <Gold.Chemscore.Fitness>
19.6738

> <Gold.Chemscore.DG>
-21.4419

> <Gold.Chemscore.ZeroCoef>
-5.4800

> <Gold.Chemscore.Hbond>
2.8957

> <Gold.Chemscore.Metal>
0.0000

> <Gold.Chemscore.Lipo>
102.4491

> <Gold.Chemscore.Internal_Hbond>
0.0000

> <Gold.Chemscore.DEClash>
0.0925

> <Gold.Chemscore.DEInternal>
1.6757

> <Gold.Chemscore.Rot>
2.2251

> <Gold.Chemscore.Internal.Correction>
   9.000000E+99

> <Gold.Chemscore.Hbonds>
donor molecule, donor type, donor heavy atom, donor atom, acceptor molecule, acceptor atom, score
      L1  H     3    21       P1  8028  0.99
      L1  H    10    26       P1  8028  0.93
      L1  H    14    32       P1  7957  0.95

> <Gold.Chemscore.Hbond.Weighted>
-9.6715

> <Gold.Chemscore.Metal.Weighted>
-0.0000

> <Gold.Chemscore.Lipo.Weighted>
-11.9865

> <Gold.Chemscore.Internal_Hbond.Weighted>
0.0000

> <Gold.Chemscore.DEClash.Weighted>
0.0925

> <Gold.Chemscore.DEInternal.Weighted>
1.6757

> <Gold.Chemscore.Rot.Weighted>
5.6962

> <Gold.Chemscore.Internal.Correction.Weighted>
   9.000000E+99

> <Gold.Protein.RotatedTorsions>
[ 6907 6896 6895 6894 ] final  -39.89 input  -60.11 | X-H torsion
[ 7974 7965 7964 7962 ] final  139.44 input  175.53 | X-H torsion
[ 8008 7997 7996 7995 ] final -175.24 input   59.86 | X-H torsion
[ 10167 10162 10161 10158 ] final  -91.82 input  -65.29 | X-H torsion
[ 10718 10713 10712 10709 ] final -155.86 input   66.30 | X-H torsion
[ 10763 10752 10751 10750 ] final   87.82 input  -60.55 | X-H torsion
[ 11005 11000 10999 10996 ] final   61.53 input  -57.11 | X-H torsion

> <Gold.Protein.ActiveResidues>
 VAL166  LYS551  ARG553  GLY616  TRP617  ASP618  TYR619  PRO620  LYS621  CYS622 
 ASP623  PHE694  ASN695  SER759  ASP760  ASP761  ALA762  ILE779  LEU786  VAL792 
 PHE793  MET794  SER795  GLU796  ALA797  LYS798  CYS799  TRP800  GLU811  SER814 

> <Gold.Protein.RotatedAtoms>
  150.9850  134.9197  159.7865 H   0  0  0  0  0  0  0  0  0  0  0  0  # atno 6907 bound_to 6896
  152.5233  134.3359  159.9210 H   0  0  0  0  0  0  0  0  0  0  0  0  # atno 6908 bound_to 6896
  151.3366  133.3938  159.2702 H   0  0  0  0  0  0  0  0  0  0  0  0  # atno 6909 bound_to 6896
  144.9279  139.5084  143.5632 H   0  0  0  0  0  0  0  0  0  0  0  0  # atno 7974 bound_to 7965
  155.9801  140.1180  157.0734 H   0  0  0  0  0  0  0  0  0  0  0  0  # atno 8008 bound_to 7997
  154.4180  140.1146  156.5492 H   0  0  0  0  0  0  0  0  0  0  0  0  # atno 8009 bound_to 7997
  155.6481  140.3473  155.4741 H   0  0  0  0  0  0  0  0  0  0  0  0  # atno 8010 bound_to 7997
  140.3411  143.2942  151.9834 H   0  0  0  0  0  0  0  0  0  0  0  0  # atno 10167 bound_to 10162
  156.5186  130.8468  151.2674 H   0  0  0  0  0  0  0  0  0  0  0  0  # atno 10718 bound_to 10713
  153.1706  135.4530  154.9897 H   0  0  0  0  0  0  0  0  0  0  0  0  # atno 10763 bound_to 10752
  154.7963  135.3239  154.7661 H   0  0  0  0  0  0  0  0  0  0  0  0  # atno 10764 bound_to 10752
  153.8138  135.6952  153.4892 H   0  0  0  0  0  0  0  0  0  0  0  0  # atno 10765 bound_to 10752
  140.0155  134.6232  155.9717 H   0  0  0  0  0  0  0  0  0  0  0  0  # atno 11005 bound_to 11000
  146.3234  139.8207  142.8927 LP  0  0  0  0  0  0  0  0  0  0  0  0  # atno 17320 bound_to 7965
  145.3190  141.0239  143.3511 LP  0  0  0  0  0  0  0  0  0  0  0  0  # atno 17321 bound_to 7965
  139.4840  144.6156  151.7352 LP  0  0  0  0  0  0  0  0  0  0  0  0  # atno 17342 bound_to 10162
  140.5308  144.0733  150.6053 LP  0  0  0  0  0  0  0  0  0  0  0  0  # atno 17343 bound_to 10162
  157.7440  130.9925  150.2638 LP  0  0  0  0  0  0  0  0  0  0  0  0  # atno 17370 bound_to 10713
  156.3171  130.3780  149.7609 LP  0  0  0  0  0  0  0  0  0  0  0  0  # atno 17371 bound_to 10713
  141.1739  133.6539  156.4756 LP  0  0  0  0  0  0  0  0  0  0  0  0  # atno 17394 bound_to 11000
  140.4479  134.6955  157.5025 LP  0  0  0  0  0  0  0  0  0  0  0  0  # atno 17395 bound_to 11000

$$$$
