AV-unprocessed.smi:1493|AV-procd|sdf|6049|dock8
  -GOLD-   22720 6163D 1   1.00000     0.00000
 Structure written by MMmdl.
 33 33  0  0  0  0  0  0  0  0  2 V2000
  152.1550  144.9404  159.1275 C   0  0  0  0  0  0  0  0  0  0  0  0
  151.5414  144.3134  160.3841 C   0  0  0  0  0  0  0  0  0  0  0  0
  152.4742  143.2834  161.0451 C   0  0  0  0  0  0  0  0  0  0  0  0
  153.0202  142.2221  160.0703 C   0  0  1  0  0  0  0  0  0  0  0  0
  153.7332  141.0834  160.8128 C   0  0  0  0  0  0  0  0  0  0  0  0
  151.9374  141.6654  159.2612 N   0  0  0  0  0  0  0  0  0  0  0  0
  152.0641  140.7369  158.3001 C   0  0  0  0  0  0  0  0  0  0  0  0
  153.1431  140.2323  157.9847 O   0  0  0  0  0  0  0  0  0  0  0  0
  150.7575  140.3347  157.5977 C   0  0  0  0  0  0  0  0  0  0  0  0
  150.9205  139.3022  156.5641 N   0  0  0  0  0  0  0  0  0  0  0  0
  151.3932  138.0208  157.0810 N   0  5  0  0  0  0  0  0  0  0  0  0
  151.5621  136.9815  156.2213 C   0  0  0  0  0  0  0  0  0  0  0  0
  151.9404  135.8704  156.5850 O   0  0  0  0  0  0  0  0  0  0  0  0
  151.2847  137.2066  154.8125 C   0  0  0  0  0  0  0  0  0  0  0  0
  150.8696  138.4064  154.3602 C   0  0  0  0  0  0  0  0  0  0  0  0
  150.6686  139.5465  155.2464 C   0  0  0  0  0  0  0  0  0  0  0  0
  150.2956  140.6470  154.8391 O   0  0  0  0  0  0  0  0  0  0  0  0
  151.4728  145.6656  158.6835 H   0  0  0  0  0  0  0  0  0  0  0  0
  152.3709  144.1825  158.3742 H   0  0  0  0  0  0  0  0  0  0  0  0
  153.0859  145.4581  159.3600 H   0  0  0  0  0  0  0  0  0  0  0  0
  151.2984  145.1070  161.0914 H   0  0  0  0  0  0  0  0  0  0  0  0
  150.5963  143.8361  160.1220 H   0  0  0  0  0  0  0  0  0  0  0  0
  153.3150  143.8118  161.4964 H   0  0  0  0  0  0  0  0  0  0  0  0
  151.9495  142.7921  161.8657 H   0  0  0  0  0  0  0  0  0  0  0  0
  153.7589  142.7075  159.4305 H   0  0  0  0  0  0  0  0  0  0  0  0
  154.5586  141.4646  161.4144 H   0  0  0  0  0  0  0  0  0  0  0  0
  154.1456  140.3562  160.1125 H   0  0  0  0  0  0  0  0  0  0  0  0
  153.0516  140.5547  161.4803 H   0  0  0  0  0  0  0  0  0  0  0  0
  151.0101  142.0206  159.4431 H   0  0  0  0  0  0  0  0  0  0  0  0
  150.0447  139.9939  158.3506 H   0  0  0  0  0  0  0  0  0  0  0  0
  150.3128  141.2323  157.1636 H   0  0  0  0  0  0  0  0  0  0  0  0
  151.4164  136.3942  154.1132 H   0  0  0  0  0  0  0  0  0  0  0  0
  150.6762  138.5290  153.3051 H   0  0  0  0  0  0  0  0  0  0  0  0
  1  2  1  0  0  0  0
  1 18  1  0  0  0  0
  1 19  1  0  0  0  0
  1 20  1  0  0  0  0
  2  3  1  0  0  0  0
  2 21  1  0  0  0  0
  2 22  1  0  0  0  0
  3  4  1  0  0  0  0
  3 23  1  0  0  0  0
  3 24  1  0  0  0  0
  4  5  1  0  0  0  0
  4  6  1  0  0  0  0
  4 25  1  0  0  0  0
  5 26  1  0  0  0  0
  5 27  1  0  0  0  0
  5 28  1  0  0  0  0
  6  7  1  0  0  0  0
  6 29  1  0  0  0  0
  7  8  2  0  0  0  0
  7  9  1  0  0  0  0
  9 30  1  0  0  0  0
  9 31  1  0  0  0  0
  9 10  1  0  0  0  0
 10 11  1  0  0  0  0
 10 16  1  0  0  0  0
 11 12  1  0  0  0  0
 12 13  2  0  0  0  0
 12 14  1  0  0  0  0
 14 32  1  0  0  0  0
 14 15  2  0  0  0  0
 15 33  1  0  0  0  0
 15 16  1  0  0  0  0
 16 17  2  0  0  0  0
M  CHG  1  11  -1
M  END
> <s_m_source_file>
AV-unprocessed.smi

> <i_m_source_file_index>
1493

> <i_lp_mmshare_version>
43012

> <i_f3d_flags>
0

> <s_epik_input>
W0NIM11bQ0gyXVtDSDJdW0NASF0oW0NIM10pW05IXUMoPU8pW0NIMl1uMVtuSF1jKD1PKVtjSF1bY0hdYzE9Tw==

> <s_epik_cmdline>
J2VwaWtfcHl0aG9uJywgJy1waCcsICc3LjAnLCAnLXRuJywgJzgnLCAnLW1hJywgJzIwMCcsICctbWV0YWxfYmluZGluZycsICctaW1hZScsICc8aW5maWxlLm1hZT4nLCAnLW9tYWUnLCAnPG91dGZpbGUubWFlPic=

> <r_lp_tautomer_probability>
1

> <r_epik_Ionization_Penalty>
0.0986298

> <r_epik_Ionization_Penalty_Charging>
0.0986298

> <r_epik_Ionization_Penalty_Neutral>
1.93017e-08

> <r_epik_State_Penalty>
0.0347731

> <r_epik_Charging_Adjusted_Penalty>
0.133403

> <i_epik_Tot_Q>
-1

> <i_epik_Tot_abs_Q>
1

> <r_epik_Metal_State_Penalty>
0.0347731

> <b_epik_Metal_Only>
0

> <s_lp_Force_Field>
OPLS_2005

> <r_lp_Energy>
19.264

> <b_lp_Chiralities_Consistent>
1

> <s_lp_Variant>
AV-unprocessed.smi:1493-2

> <Gold.Version>
5.8.1

> <Gold.Id.Protein>
6NUR|6NUR_protein|mol2

> <Gold.PLP.Fitness>
43.7420

> <Gold.PLP.PLP>
-35.3610

> <Gold.PLP.part.hbond>
-3.0000

> <Gold.PLP.part.metal>
0.0000

> <Gold.PLP.part.buried>
-2.8081

> <Gold.PLP.part.nonpolar>
-29.8958

> <Gold.PLP.part.repulsive>
0.2183

> <Gold.PLP.ligand.clash>
0.0000

> <Gold.PLP.ligand.torsion>
0.1034

> <Gold.PLP.Chemscore.Hbond>
2.8560

> <Gold.PLP.Chemscore.CHOScore>
0.0000

> <Gold.PLP.Chemscore.Metal>
0.0000

> <Gold.Chemscore.Hbonds>
donor molecule, donor type, donor heavy atom, donor atom, acceptor molecule, acceptor atom, score
      P1  H  7989  7998       L1    17  0.81
      P1  H  7997  8009       L1     8  0.94
      P1  H 10752 10764       L1    13  1.00

> <Gold.PLP.Chemscore.Internal.Correction>
0.0197

> <Gold.Rescore>
     Score         DG    S(hbond)    S(metal)    S(lipo)     H(rot)  DE(clash)    DE(int)     intcor
     13.43     -14.88       1.74        0.00      77.53       2.14       0.14       1.31       ----

> <Gold.Chemscore.Fitness>
13.4293

> <Gold.Chemscore.DG>
-14.8810

> <Gold.Chemscore.ZeroCoef>
-5.4800

> <Gold.Chemscore.Hbond>
1.7368

> <Gold.Chemscore.Metal>
0.0000

> <Gold.Chemscore.Lipo>
77.5337

> <Gold.Chemscore.Internal_Hbond>
0.0000

> <Gold.Chemscore.DEClash>
0.1430

> <Gold.Chemscore.DEInternal>
1.3087

> <Gold.Chemscore.Rot>
2.1372

> <Gold.Chemscore.Internal.Correction>
   9.000000E+99

> <Gold.Chemscore.Hbonds>
donor molecule, donor type, donor heavy atom, donor atom, acceptor molecule, acceptor atom, score
      P1  H  7989  7998       L1    17  0.16
      P1  H  7997  8009       L1     8  0.91
      P1  H 10752 10764       L1    13  0.29

> <Gold.Chemscore.Hbond.Weighted>
-5.8008

> <Gold.Chemscore.Metal.Weighted>
-0.0000

> <Gold.Chemscore.Lipo.Weighted>
-9.0714

> <Gold.Chemscore.Internal_Hbond.Weighted>
0.0000

> <Gold.Chemscore.DEClash.Weighted>
0.1430

> <Gold.Chemscore.DEInternal.Weighted>
1.3087

> <Gold.Chemscore.Rot.Weighted>
5.4713

> <Gold.Chemscore.Internal.Correction.Weighted>
   9.000000E+99

> <Gold.Protein.RotatedTorsions>
[ 6907 6896 6895 6894 ] final -112.55 input  -60.11 | X-H torsion
[ 7974 7965 7964 7962 ] final  -38.25 input  175.53 | X-H torsion
[ 8008 7997 7996 7995 ] final  157.74 input   59.86 | X-H torsion
[ 10167 10162 10161 10158 ] final   27.15 input  -65.29 | X-H torsion
[ 10718 10713 10712 10709 ] final  156.34 input   66.30 | X-H torsion
[ 10763 10752 10751 10750 ] final  -20.60 input  -60.55 | X-H torsion
[ 11005 11000 10999 10996 ] final    1.00 input  -57.11 | X-H torsion

> <Gold.Protein.ActiveResidues>
 VAL166  LYS551  ARG553  GLY616  TRP617  ASP618  TYR619  PRO620  LYS621  CYS622 
 ASP623  PHE694  ASN695  SER759  ASP760  ASP761  ALA762  ILE779  LEU786  VAL792 
 PHE793  MET794  SER795  GLU796  ALA797  LYS798  CYS799  TRP800  GLU811  SER814 

> <Gold.Protein.RotatedAtoms>
  150.7766  133.9073  159.3358 H   0  0  0  0  0  0  0  0  0  0  0  0  # atno 6907 bound_to 6896
  151.6946  135.0939  160.0249 H   0  0  0  0  0  0  0  0  0  0  0  0  # atno 6908 bound_to 6896
  152.3804  133.6501  159.6192 H   0  0  0  0  0  0  0  0  0  0  0  0  # atno 6909 bound_to 6896
  146.0503  140.6490  142.9045 H   0  0  0  0  0  0  0  0  0  0  0  0  # atno 7974 bound_to 7965
  156.2345  140.1877  156.7155 H   0  0  0  0  0  0  0  0  0  0  0  0  # atno 8008 bound_to 7997
  154.6082  140.0626  156.9486 H   0  0  0  0  0  0  0  0  0  0  0  0  # atno 8009 bound_to 7997
  155.2060  140.3296  155.4338 H   0  0  0  0  0  0  0  0  0  0  0  0  # atno 8010 bound_to 7997
  140.4962  144.0388  150.6315 H   0  0  0  0  0  0  0  0  0  0  0  0  # atno 10167 bound_to 10162
  157.2063  131.0687  151.1996 H   0  0  0  0  0  0  0  0  0  0  0  0  # atno 10718 bound_to 10713
  153.6229  135.6992  153.5304 H   0  0  0  0  0  0  0  0  0  0  0  0  # atno 10763 bound_to 10752
  153.2923  135.4153  155.1177 H   0  0  0  0  0  0  0  0  0  0  0  0  # atno 10764 bound_to 10752
  154.8539  135.3628  154.5770 H   0  0  0  0  0  0  0  0  0  0  0  0  # atno 10765 bound_to 10752
  140.6203  133.9667  155.8221 H   0  0  0  0  0  0  0  0  0  0  0  0  # atno 11005 bound_to 11000
  144.7119  140.4070  143.7074 LP  0  0  0  0  0  0  0  0  0  0  0  0  # atno 17320 bound_to 7965
  145.6736  139.1604  143.2741 LP  0  0  0  0  0  0  0  0  0  0  0  0  # atno 17321 bound_to 7965
  140.3671  143.2875  152.0320 LP  0  0  0  0  0  0  0  0  0  0  0  0  # atno 17342 bound_to 10162
  139.4862  144.6259  151.7166 LP  0  0  0  0  0  0  0  0  0  0  0  0  # atno 17343 bound_to 10162
  157.3717  130.7184  149.6569 LP  0  0  0  0  0  0  0  0  0  0  0  0  # atno 17370 bound_to 10713
  155.9695  130.4197  150.4387 LP  0  0  0  0  0  0  0  0  0  0  0  0  # atno 17371 bound_to 10713
  141.0747  134.0153  157.3475 LP  0  0  0  0  0  0  0  0  0  0  0  0  # atno 17394 bound_to 11000
  139.9156  135.0196  156.7867 LP  0  0  0  0  0  0  0  0  0  0  0  0  # atno 17395 bound_to 11000

$$$$
