AV-unprocessed.smi:283|AV-procd|sdf|2125|dock8
  -GOLD-   2262021433D 1   1.00000     0.00000
 Structure written by MMmdl.
 48 51  0  0  0  0  0  0  0  0  1 V2000
  149.9761  141.9483  155.9107 C   0  0  0  0  0  0  0  0  0  0  0  0
  151.2856  141.5524  156.6174 C   0  0  2  0  0  0  0  0  0  0  0  0
  151.2391  140.1652  157.0788 N   0  0  0  0  0  0  0  0  0  0  0  0
  151.3300  139.1260  156.2191 C   0  0  0  0  0  0  0  0  0  0  0  0
  151.7860  139.2952  154.9506 N   0  0  0  0  0  0  0  0  0  0  0  0
  151.8639  138.2492  154.1229 C   0  0  0  0  0  0  0  0  0  0  0  0
  151.5438  136.9748  154.3570 N   0  0  0  0  0  0  0  0  0  0  0  0
  151.0905  136.7969  155.6319 C   0  0  0  0  0  0  0  0  0  0  0  0
  150.9582  137.8156  156.6167 C   0  0  0  0  0  0  0  0  0  0  0  0
  150.4696  137.2695  157.7963 N   0  0  0  0  0  0  0  0  0  0  0  0
  150.3219  136.0016  157.5196 C   0  0  0  0  0  0  0  0  0  0  0  0
  150.6655  135.6318  156.2381 N   0  0  0  0  0  0  0  0  0  0  0  0
  150.5948  134.2659  155.6359 C   0  0  2  0  0  0  0  0  0  0  0  0
  149.6639  134.2943  154.5978 O   0  0  0  0  0  0  0  0  0  0  0  0
  148.8727  133.1119  154.6337 C   0  0  2  0  0  0  0  0  0  0  0  0
  147.5294  133.3625  153.9314 C   0  0  0  0  0  0  0  0  0  0  0  0
  147.7324  133.5457  152.5465 O   0  0  0  0  0  0  0  0  0  0  0  0
  148.7390  132.8565  156.1358 C   0  0  1  0  0  0  0  0  0  0  0  0
  148.3583  131.5274  156.4429 O   0  0  0  0  0  0  0  0  0  0  0  0
  150.1185  133.2337  156.6713 C   0  0  1  0  0  0  0  0  0  0  0  0
  150.9990  132.1251  156.7135 O   0  0  0  0  0  0  0  0  0  0  0  0
  151.5833  142.5376  157.7468 C   0  0  0  0  0  0  0  0  0  0  0  0
  151.2237  143.8994  157.6096 C   0  0  0  0  0  0  0  0  0  0  0  0
  151.5013  144.8230  158.6347 C   0  0  0  0  0  0  0  0  0  0  0  0
  152.1484  144.3971  159.8081 C   0  0  0  0  0  0  0  0  0  0  0  0
  152.5214  143.0482  159.9517 C   0  0  0  0  0  0  0  0  0  0  0  0
  152.2468  142.1186  158.9284 C   0  0  0  0  0  0  0  0  0  0  0  0
  152.7479  140.4788  159.1535 Cl  0  0  0  0  0  0  0  0  0  0  0  0
  151.5987  134.0753  155.2532 H   0  0  0  0  0  0  0  0  0  0  0  0
  149.4219  132.2916  154.1672 H   0  0  0  0  0  0  0  0  0  0  0  0
  147.9930  133.5321  156.5545 H   0  0  0  0  0  0  0  0  0  0  0  0
  150.0564  133.6710  157.6689 H   0  0  0  0  0  0  0  0  0  0  0  0
  150.0324  142.9677  155.5278 H   0  0  0  0  0  0  0  0  0  0  0  0
  149.1279  141.8986  156.5941 H   0  0  0  0  0  0  0  0  0  0  0  0
  149.7560  141.2982  155.0645 H   0  0  0  0  0  0  0  0  0  0  0  0
  152.1034  141.6180  155.9009 H   0  0  0  0  0  0  0  0  0  0  0  0
  151.0404  140.0418  158.0611 H   0  0  0  0  0  0  0  0  0  0  0  0
  152.2341  138.4639  153.1315 H   0  0  0  0  0  0  0  0  0  0  0  0
  149.9491  135.2959  158.2479 H   0  0  0  0  0  0  0  0  0  0  0  0
  146.8746  132.4994  154.0532 H   0  0  0  0  0  0  0  0  0  0  0  0
  147.0129  134.2230  154.3582 H   0  0  0  0  0  0  0  0  0  0  0  0
  147.9944  134.4414  152.3974 H   0  0  0  0  0  0  0  0  0  0  0  0
  149.0532  131.1238  156.9403 H   0  0  0  0  0  0  0  0  0  0  0  0
  151.8859  132.4456  156.6539 H   0  0  0  0  0  0  0  0  0  0  0  0
  150.7359  144.2501  156.7122 H   0  0  0  0  0  0  0  0  0  0  0  0
  151.2204  145.8594  158.5189 H   0  0  0  0  0  0  0  0  0  0  0  0
  152.3634  145.1048  160.5951 H   0  0  0  0  0  0  0  0  0  0  0  0
  153.0250  142.7262  160.8513 H   0  0  0  0  0  0  0  0  0  0  0  0
  1  2  1  0  0  0  0
  1 33  1  0  0  0  0
  1 34  1  0  0  0  0
  1 35  1  0  0  0  0
  2  3  1  0  0  0  0
  2 22  1  0  0  0  0
  2 36  1  0  0  0  0
  3  4  1  0  0  0  0
  3 37  1  0  0  0  0
  4  9  1  0  0  0  0
  4  5  2  0  0  0  0
  5  6  1  0  0  0  0
  6  7  2  0  0  0  0
  6 38  1  0  0  0  0
  7  8  1  0  0  0  0
  8 12  1  0  0  0  0
  8  9  2  0  0  0  0
  9 10  1  0  0  0  0
 10 11  2  0  0  0  0
 11 12  1  0  0  0  0
 11 39  1  0  0  0  0
 12 13  1  0  0  0  0
 13 29  1  0  0  0  0
 13 20  1  0  0  0  0
 13 14  1  0  0  0  0
 14 15  1  0  0  0  0
 15 30  1  0  0  0  0
 15 16  1  0  0  0  0
 15 18  1  0  0  0  0
 16 17  1  0  0  0  0
 16 40  1  0  0  0  0
 16 41  1  0  0  0  0
 17 42  1  0  0  0  0
 18 31  1  0  0  0  0
 18 19  1  0  0  0  0
 18 20  1  0  0  0  0
 19 43  1  0  0  0  0
 20 32  1  0  0  0  0
 20 21  1  0  0  0  0
 21 44  1  0  0  0  0
 22 27  1  0  0  0  0
 22 23  2  0  0  0  0
 23 24  1  0  0  0  0
 23 45  1  0  0  0  0
 24 25  2  0  0  0  0
 24 46  1  0  0  0  0
 25 26  1  0  0  0  0
 25 47  1  0  0  0  0
 26 27  2  0  0  0  0
 26 48  1  0  0  0  0
 27 28  1  0  0  0  0
M  END
> <s_m_source_file>
AV-unprocessed.smi

> <i_m_source_file_index>
283

> <i_lp_mmshare_version>
43012

> <i_f3d_flags>
0

> <s_epik_input>
Q2xjMVtjSF1bY0hdW2NIXVtjSF1jMVtDQEhdKFtDSDNdKVtOSF1jKG5bY0hdbjIpYyhjMjMpbltjSF1uM1tDQEBIXTRPW0NASF0oW0NIMl1bT0hdKVtDQEBIXShbT0hdKVtDQEhdNFtPSF0=

> <s_epik_cmdline>
J2VwaWtfcHl0aG9uJywgJy1waCcsICc3LjAnLCAnLXRuJywgJzgnLCAnLW1hJywgJzIwMCcsICctbWV0YWxfYmluZGluZycsICctaW1hZScsICc8aW5maWxlLm1hZT4nLCAnLW9tYWUnLCAnPG91dGZpbGUubWFlPic=

> <r_lp_tautomer_probability>
1

> <r_epik_Ionization_Penalty>
0.000266407

> <r_epik_Ionization_Penalty_Charging>
0

> <r_epik_Ionization_Penalty_Neutral>
0.000266407

> <r_epik_State_Penalty>
-0

> <r_epik_Charging_Adjusted_Penalty>
0

> <i_epik_Tot_Q>
0

> <i_epik_Tot_abs_Q>
0

> <r_epik_Metal_State_Penalty>
-0

> <b_epik_Metal_Only>
0

> <s_epik_Chemistry_Notes>
This compound contains an acetal/aminal-like group ( X-CH(R)-Y where X, Y are N, S, or O) that may be acid/base labile, releasing an aldehyde.

> <s_lp_Force_Field>
OPLS_2005

> <r_lp_Energy>
47.4388

> <b_lp_Chiralities_Consistent>
1

> <s_lp_Variant>
AV-unprocessed.smi:283-1

> <Gold.Version>
5.8.1

> <Gold.Id.Protein>
6NUR|6NUR_protein|mol2

> <Gold.PLP.Fitness>
49.2585

> <Gold.PLP.PLP>
-42.5584

> <Gold.PLP.part.hbond>
-3.0000

> <Gold.PLP.part.metal>
0.0000

> <Gold.PLP.part.buried>
-5.1412

> <Gold.PLP.part.nonpolar>
-34.8019

> <Gold.PLP.part.repulsive>
1.3059

> <Gold.PLP.ligand.clash>
0.0000

> <Gold.PLP.ligand.torsion>
0.9713

> <Gold.PLP.Chemscore.Hbond>
2.8336

> <Gold.PLP.Chemscore.CHOScore>
0.0000

> <Gold.PLP.Chemscore.Metal>
0.0000

> <Gold.Chemscore.Hbonds>
donor molecule, donor type, donor heavy atom, donor atom, acceptor molecule, acceptor atom, score
      L1  H    17    42       P1  7948  0.94
      P1  H  7989  7998       L1     5  0.69
      P1  H 10752 10763       L1     7  1.00

> <Gold.PLP.Chemscore.Internal.Correction>
0.1419

> <Gold.Rescore>
     Score         DG    S(hbond)    S(metal)    S(lipo)     H(rot)  DE(clash)    DE(int)     intcor
     10.40     -12.62       1.48        0.00     108.57       4.10       0.06       2.17       ----

> <Gold.Chemscore.Fitness>
10.3950

> <Gold.Chemscore.DG>
-12.6228

> <Gold.Chemscore.ZeroCoef>
-5.4800

> <Gold.Chemscore.Hbond>
1.4753

> <Gold.Chemscore.Metal>
0.0000

> <Gold.Chemscore.Lipo>
108.5744

> <Gold.Chemscore.Internal_Hbond>
0.0000

> <Gold.Chemscore.DEClash>
0.0580

> <Gold.Chemscore.DEInternal>
2.1697

> <Gold.Chemscore.Rot>
4.0968

> <Gold.Chemscore.Internal.Correction>
   9.000000E+99

> <Gold.Chemscore.Hbonds>
donor molecule, donor type, donor heavy atom, donor atom, acceptor molecule, acceptor atom, score
      L1  H    17    42       P1  7948  0.31
      P1  H  7989  7998       L1     5  0.15
      P1  H 10752 10763       L1     7  0.57

> <Gold.Chemscore.Hbond.Weighted>
-4.9275

> <Gold.Chemscore.Metal.Weighted>
-0.0000

> <Gold.Chemscore.Lipo.Weighted>
-12.7032

> <Gold.Chemscore.Internal_Hbond.Weighted>
0.0000

> <Gold.Chemscore.DEClash.Weighted>
0.0580

> <Gold.Chemscore.DEInternal.Weighted>
2.1697

> <Gold.Chemscore.Rot.Weighted>
10.4879

> <Gold.Chemscore.Internal.Correction.Weighted>
   9.000000E+99

> <Gold.Protein.RotatedTorsions>
[ 6907 6896 6895 6894 ] final  -22.53 input  -60.11 | X-H torsion
[ 7974 7965 7964 7962 ] final   83.88 input  175.53 | X-H torsion
[ 8008 7997 7996 7995 ] final  111.80 input   59.86 | X-H torsion
[ 10167 10162 10161 10158 ] final -127.92 input  -65.29 | X-H torsion
[ 10718 10713 10712 10709 ] final  -68.39 input   66.30 | X-H torsion
[ 10763 10752 10751 10750 ] final   27.20 input  -60.55 | X-H torsion
[ 11005 11000 10999 10996 ] final   98.85 input  -57.11 | X-H torsion

> <Gold.Protein.ActiveResidues>
 VAL166  LYS551  ARG553  GLY616  TRP617  ASP618  TYR619  PRO620  LYS621  CYS622 
 ASP623  PHE694  ASN695  SER759  ASP760  ASP761  ALA762  ILE779  LEU786  VAL792 
 PHE793  MET794  SER795  GLU796  ALA797  LYS798  CYS799  TRP800  GLU811  SER814 

> <Gold.Protein.RotatedAtoms>
  151.2173  135.0504  159.8935 H   0  0  0  0  0  0  0  0  0  0  0  0  # atno 6907 bound_to 6896
  152.5419  134.0679  159.8191 H   0  0  0  0  0  0  0  0  0  0  0  0  # atno 6908 bound_to 6896
  151.0841  133.5319  159.2650 H   0  0  0  0  0  0  0  0  0  0  0  0  # atno 6909 bound_to 6896
  145.6061  139.2360  143.2218 H   0  0  0  0  0  0  0  0  0  0  0  0  # atno 7974 bound_to 7965
  156.2149  140.3012  155.9816 H   0  0  0  0  0  0  0  0  0  0  0  0  # atno 8008 bound_to 7997
  155.2632  140.0430  157.3016 H   0  0  0  0  0  0  0  0  0  0  0  0  # atno 8009 bound_to 7997
  154.5752  140.2359  155.8141 H   0  0  0  0  0  0  0  0  0  0  0  0  # atno 8010 bound_to 7997
  139.9557  143.6005  152.2461 H   0  0  0  0  0  0  0  0  0  0  0  0  # atno 10167 bound_to 10162
  156.0508  130.4294  150.1993 H   0  0  0  0  0  0  0  0  0  0  0  0  # atno 10718 bound_to 10713
  153.0572  135.6542  154.0550 H   0  0  0  0  0  0  0  0  0  0  0  0  # atno 10763 bound_to 10752
  154.0225  135.2918  155.3380 H   0  0  0  0  0  0  0  0  0  0  0  0  # atno 10764 bound_to 10752
  154.6892  135.5289  153.8436 H   0  0  0  0  0  0  0  0  0  0  0  0  # atno 10765 bound_to 10752
  139.8771  134.9068  156.4518 H   0  0  0  0  0  0  0  0  0  0  0  0  # atno 11005 bound_to 11000
  146.1539  140.6885  142.9309 LP  0  0  0  0  0  0  0  0  0  0  0  0  # atno 17320 bound_to 7965
  144.7289  140.4611  143.6952 LP  0  0  0  0  0  0  0  0  0  0  0  0  # atno 17321 bound_to 7965
  139.6593  144.7662  151.1994 LP  0  0  0  0  0  0  0  0  0  0  0  0  # atno 17342 bound_to 10162
  140.7569  143.6036  150.8675 LP  0  0  0  0  0  0  0  0  0  0  0  0  # atno 17343 bound_to 10162
  157.0077  130.9941  151.3374 LP  0  0  0  0  0  0  0  0  0  0  0  0  # atno 17370 bound_to 10713
  157.5432  130.8133  149.8054 LP  0  0  0  0  0  0  0  0  0  0  0  0  # atno 17371 bound_to 10713
  140.8927  133.7837  155.9589 LP  0  0  0  0  0  0  0  0  0  0  0  0  # atno 17394 bound_to 11000
  140.8736  134.2696  157.5178 LP  0  0  0  0  0  0  0  0  0  0  0  0  # atno 17395 bound_to 11000

$$$$
