AV-unprocessed.smi:1389|AV-procd|sdf|5647|dock10
  -GOLD-   22720 5263D 1   1.00000     0.00000
 Structure written by MMmdl.
 51 53  0  0  0  0  0  0  0  0  1 V2000
  151.9872  137.7854  154.1789 C   0  0  0  0  0  0  0  0  0  0  0  0
  150.8325  137.7903  155.2067 C   0  0  1  0  0  0  0  0  0  0  0  0
  150.4995  136.3206  155.5736 C   0  0  0  0  0  0  0  0  0  0  0  0
  149.7737  135.6419  154.5021 N   0  0  0  0  0  0  0  0  0  0  0  0
  149.2802  134.3971  154.5587 C   0  0  0  0  0  0  0  0  0  0  0  0
  149.4276  133.6449  155.5221 O   0  0  0  0  0  0  0  0  0  0  0  0
  148.5860  134.1023  153.4477 N   0  0  0  0  0  0  0  0  0  0  0  0
  147.8850  132.9006  153.1469 C   0  0  0  0  0  0  0  0  0  0  0  0
  148.2632  131.6509  153.6944 C   0  0  0  0  0  0  0  0  0  0  0  0
  147.5356  130.4997  153.3445 C   0  0  0  0  0  0  0  0  0  0  0  0
  146.4592  130.6375  152.4510 C   0  0  0  0  0  0  0  0  0  0  0  0
  146.0974  131.8175  151.9079 N   0  0  0  0  0  0  0  0  0  0  0  0
  146.7899  132.9340  152.2419 C   0  0  0  0  0  0  0  0  0  0  0  0
  146.4069  134.1486  151.6355 N   0  0  0  0  0  0  0  0  0  0  0  0
  145.4871  133.9814  150.5142 C   0  0  0  0  0  0  0  0  0  0  0  0
  144.5566  135.1948  150.5375 C   0  0  0  0  0  0  0  0  0  0  0  0
  144.5214  135.5681  152.0145 C   0  0  0  0  0  0  0  0  0  0  0  0
  145.9461  135.2570  152.4710 C   0  0  0  0  0  0  0  0  0  0  0  0
  151.0882  138.6593  156.3768 N   0  0  0  0  0  0  0  0  0  0  0  0
  152.2006  138.1787  157.2018 C   0  0  0  0  0  0  0  0  0  0  0  0
  152.4766  139.0899  158.4103 C   0  0  0  0  0  0  0  0  0  0  0  0
  152.7346  140.4141  157.9621 O   0  0  0  0  0  0  0  0  0  0  0  0
  151.6519  140.9477  157.2114 C   0  0  0  0  0  0  0  0  0  0  0  0
  151.3696  140.0471  155.9967 C   0  0  0  0  0  0  0  0  0  0  0  0
  151.8228  137.0375  153.4028 H   0  0  0  0  0  0  0  0  0  0  0  0
  152.9439  137.5619  154.6524 H   0  0  0  0  0  0  0  0  0  0  0  0
  152.0816  138.7417  153.6654 H   0  0  0  0  0  0  0  0  0  0  0  0
  149.9577  138.1813  154.6849 H   0  0  0  0  0  0  0  0  0  0  0  0
  151.4027  135.7522  155.7911 H   0  0  0  0  0  0  0  0  0  0  0  0
  149.9341  136.2929  156.5066 H   0  0  0  0  0  0  0  0  0  0  0  0
  149.5932  136.1840  153.6700 H   0  0  0  0  0  0  0  0  0  0  0  0
  148.4541  134.8573  152.7906 H   0  0  0  0  0  0  0  0  0  0  0  0
  149.1051  131.5559  154.3633 H   0  0  0  0  0  0  0  0  0  0  0  0
  147.8003  129.5338  153.7484 H   0  0  0  0  0  0  0  0  0  0  0  0
  145.8780  129.7760  152.1574 H   0  0  0  0  0  0  0  0  0  0  0  0
  146.0259  133.9138  149.5689 H   0  0  0  0  0  0  0  0  0  0  0  0
  144.9084  133.0641  150.6373 H   0  0  0  0  0  0  0  0  0  0  0  0
  144.9960  136.0103  149.9613 H   0  0  0  0  0  0  0  0  0  0  0  0
  143.5702  134.9813  150.1253 H   0  0  0  0  0  0  0  0  0  0  0  0
  144.2369  136.6062  152.1879 H   0  0  0  0  0  0  0  0  0  0  0  0
  143.8138  134.9275  152.5430 H   0  0  0  0  0  0  0  0  0  0  0  0
  145.9937  135.0679  153.5433 H   0  0  0  0  0  0  0  0  0  0  0  0
  146.5936  136.1113  152.2723 H   0  0  0  0  0  0  0  0  0  0  0  0
  151.9888  137.1820  157.5860 H   0  0  0  0  0  0  0  0  0  0  0  0
  153.1041  138.0986  156.5952 H   0  0  0  0  0  0  0  0  0  0  0  0
  151.6285  139.0887  159.0969 H   0  0  0  0  0  0  0  0  0  0  0  0
  153.3406  138.7283  158.9678 H   0  0  0  0  0  0  0  0  0  0  0  0
  150.7665  141.0321  157.8433 H   0  0  0  0  0  0  0  0  0  0  0  0
  151.9087  141.9554  156.8843 H   0  0  0  0  0  0  0  0  0  0  0  0
  152.2230  140.0787  155.3175 H   0  0  0  0  0  0  0  0  0  0  0  0
  150.5246  140.4777  155.4622 H   0  0  0  0  0  0  0  0  0  0  0  0
  1  2  1  0  0  0  0
  1 25  1  0  0  0  0
  1 26  1  0  0  0  0
  1 27  1  0  0  0  0
  2  3  1  0  0  0  0
  2 19  1  0  0  0  0
  2 28  1  0  0  0  0
  3  4  1  0  0  0  0
  3 29  1  0  0  0  0
  3 30  1  0  0  0  0
  4  5  1  0  0  0  0
  4 31  1  0  0  0  0
  5  6  2  0  0  0  0
  5  7  1  0  0  0  0
  7  8  1  0  0  0  0
  7 32  1  0  0  0  0
  8 13  1  0  0  0  0
  8  9  2  0  0  0  0
  9 10  1  0  0  0  0
  9 33  1  0  0  0  0
 10 11  2  0  0  0  0
 10 34  1  0  0  0  0
 11 12  1  0  0  0  0
 11 35  1  0  0  0  0
 12 13  2  0  0  0  0
 13 14  1  0  0  0  0
 14 18  1  0  0  0  0
 14 15  1  0  0  0  0
 15 16  1  0  0  0  0
 15 36  1  0  0  0  0
 15 37  1  0  0  0  0
 16 17  1  0  0  0  0
 16 38  1  0  0  0  0
 16 39  1  0  0  0  0
 17 18  1  0  0  0  0
 17 40  1  0  0  0  0
 17 41  1  0  0  0  0
 18 42  1  0  0  0  0
 18 43  1  0  0  0  0
 19 24  1  0  0  0  0
 19 20  1  0  0  0  0
 20 21  1  0  0  0  0
 20 44  1  0  0  0  0
 20 45  1  0  0  0  0
 21 22  1  0  0  0  0
 21 46  1  0  0  0  0
 21 47  1  0  0  0  0
 22 23  1  0  0  0  0
 23 24  1  0  0  0  0
 23 48  1  0  0  0  0
 23 49  1  0  0  0  0
 24 50  1  0  0  0  0
 24 51  1  0  0  0  0
M  END
> <s_m_source_file>
AV-unprocessed.smi

> <i_m_source_file_index>
1389

> <i_lp_mmshare_version>
43012

> <i_f3d_flags>
0

> <s_epik_input>
W0NIMl0xW0NIMl1PW0NIMl1bQ0gyXU4xW0NASF0oW0NIM10pW0NIMl1bTkhdQyg9TylbTkhdYzJbY0hdW2NIXVtjSF1uYzJOM1tDSDJdW0NIMl1bQ0gyXVtDSDJdMw==

> <s_epik_cmdline>
J2VwaWtfcHl0aG9uJywgJy1waCcsICc3LjAnLCAnLXRuJywgJzgnLCAnLW1hJywgJzIwMCcsICctbWV0YWxfYmluZGluZycsICctaW1hZScsICc8aW5maWxlLm1hZT4nLCAnLW9tYWUnLCAnPG91dGZpbGUubWFlPic=

> <r_lp_tautomer_probability>
1

> <r_epik_Ionization_Penalty>
0.365229

> <r_epik_Ionization_Penalty_Charging>
0

> <r_epik_Ionization_Penalty_Neutral>
0.365229

> <r_epik_State_Penalty>
0.350519

> <r_epik_Charging_Adjusted_Penalty>
0.350519

> <i_epik_Tot_Q>
0

> <i_epik_Tot_abs_Q>
0

> <r_epik_Metal_State_Penalty>
0.33386

> <b_epik_Metal_Only>
0

> <s_lp_Force_Field>
OPLS_2005

> <r_lp_Energy>
61.7302

> <b_lp_Chiralities_Consistent>
1

> <s_lp_Variant>
AV-unprocessed.smi:1389-2

> <Gold.Version>
5.8.1

> <Gold.Id.Protein>
6NUR|6NUR_protein|mol2

> <Gold.PLP.Fitness>
43.1883

> <Gold.PLP.PLP>
-35.4454

> <Gold.PLP.part.hbond>
-3.0837

> <Gold.PLP.part.metal>
0.0000

> <Gold.PLP.part.buried>
-1.2446

> <Gold.PLP.part.nonpolar>
-30.2214

> <Gold.PLP.part.repulsive>
0.3717

> <Gold.PLP.ligand.clash>
0.0000

> <Gold.PLP.ligand.torsion>
0.4853

> <Gold.PLP.Chemscore.Hbond>
2.8482

> <Gold.PLP.Chemscore.CHOScore>
0.0000

> <Gold.PLP.Chemscore.Metal>
0.0000

> <Gold.Chemscore.Hbonds>
donor molecule, donor type, donor heavy atom, donor atom, acceptor molecule, acceptor atom, score
      L1  H     4    31       P1  7948  0.96
      L1  H     7    32       P1  7948  1.00
      P1  H  7997  8008       L1    22  0.77

> <Gold.PLP.Chemscore.Internal.Correction>
0.1690

> <Gold.Rescore>
     Score         DG    S(hbond)    S(metal)    S(lipo)     H(rot)  DE(clash)    DE(int)     intcor
     13.61     -16.34       1.65        0.00      80.19       1.57       0.06       2.67       ----

> <Gold.Chemscore.Fitness>
13.6107

> <Gold.Chemscore.DG>
-16.3397

> <Gold.Chemscore.ZeroCoef>
-5.4800

> <Gold.Chemscore.Hbond>
1.6471

> <Gold.Chemscore.Metal>
0.0000

> <Gold.Chemscore.Lipo>
80.1906

> <Gold.Chemscore.Internal_Hbond>
0.0000

> <Gold.Chemscore.DEClash>
0.0614

> <Gold.Chemscore.DEInternal>
2.6677

> <Gold.Chemscore.Rot>
1.5718

> <Gold.Chemscore.Internal.Correction>
   9.000000E+99

> <Gold.Chemscore.Hbonds>
donor molecule, donor type, donor heavy atom, donor atom, acceptor molecule, acceptor atom, score
      L1  H     4    31       P1  7948  0.46
      L1  H     7    32       P1  7948  0.44
      P1  H  7997  8008       L1    22  0.17

> <Gold.Chemscore.Hbond.Weighted>
-5.5013

> <Gold.Chemscore.Metal.Weighted>
-0.0000

> <Gold.Chemscore.Lipo.Weighted>
-9.3823

> <Gold.Chemscore.Internal_Hbond.Weighted>
0.0000

> <Gold.Chemscore.DEClash.Weighted>
0.0614

> <Gold.Chemscore.DEInternal.Weighted>
2.6677

> <Gold.Chemscore.Rot.Weighted>
4.0239

> <Gold.Chemscore.Internal.Correction.Weighted>
   9.000000E+99

> <Gold.Protein.RotatedTorsions>
[ 6907 6896 6895 6894 ] final  179.36 input  -60.11 | X-H torsion
[ 7974 7965 7964 7962 ] final  -34.96 input  175.53 | X-H torsion
[ 8008 7997 7996 7995 ] final  -73.18 input   59.86 | X-H torsion
[ 10167 10162 10161 10158 ] final  -92.69 input  -65.29 | X-H torsion
[ 10718 10713 10712 10709 ] final  170.44 input   66.30 | X-H torsion
[ 10763 10752 10751 10750 ] final  -15.23 input  -60.55 | X-H torsion
[ 11005 11000 10999 10996 ] final  -86.03 input  -57.11 | X-H torsion

> <Gold.Protein.ActiveResidues>
 VAL166  LYS551  ARG553  GLY616  TRP617  ASP618  TYR619  PRO620  LYS621  CYS622 
 ASP623  PHE694  ASN695  SER759  ASP760  ASP761  ALA762  ILE779  LEU786  VAL792 
 PHE793  MET794  SER795  GLU796  ALA797  LYS798  CYS799  TRP800  GLU811  SER814 

> <Gold.Protein.RotatedAtoms>
  151.6729  133.3313  159.3200 H   0  0  0  0  0  0  0  0  0  0  0  0  # atno 6907 bound_to 6896
  150.7859  134.6847  159.6473 H   0  0  0  0  0  0  0  0  0  0  0  0  # atno 6908 bound_to 6896
  152.3929  134.6416  160.0153 H   0  0  0  0  0  0  0  0  0  0  0  0  # atno 6909 bound_to 6896
  146.0786  140.6102  142.8919 H   0  0  0  0  0  0  0  0  0  0  0  0  # atno 7974 bound_to 7965
  154.5226  140.0784  156.8200 H   0  0  0  0  0  0  0  0  0  0  0  0  # atno 8008 bound_to 7997
  155.3544  140.3414  155.4221 H   0  0  0  0  0  0  0  0  0  0  0  0  # atno 8009 bound_to 7997
  156.1697  140.1615  156.8456 H   0  0  0  0  0  0  0  0  0  0  0  0  # atno 8010 bound_to 7997
  140.3322  143.2988  151.9929 H   0  0  0  0  0  0  0  0  0  0  0  0  # atno 10167 bound_to 10162
  157.0081  131.0196  151.2811 H   0  0  0  0  0  0  0  0  0  0  0  0  # atno 10718 bound_to 10713
  153.5403  135.7013  153.5640 H   0  0  0  0  0  0  0  0  0  0  0  0  # atno 10763 bound_to 10752
  153.3609  135.3970  155.1717 H   0  0  0  0  0  0  0  0  0  0  0  0  # atno 10764 bound_to 10752
  154.8674  135.3788  154.4906 H   0  0  0  0  0  0  0  0  0  0  0  0  # atno 10765 bound_to 10752
  141.1635  133.7431  156.9101 H   0  0  0  0  0  0  0  0  0  0  0  0  # atno 11005 bound_to 11000
  144.7278  140.4579  143.6960 LP  0  0  0  0  0  0  0  0  0  0  0  0  # atno 17320 bound_to 7965
  145.6259  139.1530  143.2996 LP  0  0  0  0  0  0  0  0  0  0  0  0  # atno 17321 bound_to 7965
  139.4854  144.6225  151.7227 LP  0  0  0  0  0  0  0  0  0  0  0  0  # atno 17342 bound_to 10162
  140.5386  144.0615  150.6080 LP  0  0  0  0  0  0  0  0  0  0  0  0  # atno 17343 bound_to 10162
  157.5341  130.8077  149.7951 LP  0  0  0  0  0  0  0  0  0  0  0  0  # atno 17370 bound_to 10713
  156.0146  130.3819  150.2152 LP  0  0  0  0  0  0  0  0  0  0  0  0  # atno 17371 bound_to 10713
  140.1523  134.9222  157.2608 LP  0  0  0  0  0  0  0  0  0  0  0  0  # atno 17394 bound_to 11000
  140.2708  134.3462  155.7374 LP  0  0  0  0  0  0  0  0  0  0  0  0  # atno 17395 bound_to 11000

$$$$
