AV-unprocessed.smi:224|AV-procd|sdf|1714|dock4
  -GOLD-   2262020183D 1   1.00000     0.00000
 Structure written by MMmdl.
 56 59  0  0  0  0  0  0  0  0  2 V2000
  146.0827  136.6422  152.7335 C   0  0  0  0  0  0  0  0  0  0  0  0
  146.2248  138.1312  152.3930 C   0  0  1  0  0  0  0  0  0  0  0  0
  144.9271  138.6545  152.1908 O   0  0  0  0  0  0  0  0  0  0  0  0
  146.9263  138.9097  153.5257 C   0  0  0  0  0  0  0  0  0  0  0  0
  148.2946  138.4155  153.8433 N   0  3  1  0  0  0  0  0  0  0  0  0
  149.2588  139.5303  154.0446 C   0  0  0  0  0  0  0  0  0  0  0  0
  150.6954  139.0033  154.2115 C   0  0  0  0  0  0  0  0  0  0  0  0
  150.7582  137.9913  155.2588 N   0  0  0  0  0  0  0  0  0  0  0  0
  151.1433  138.3013  156.5286 C   0  0  0  0  0  0  0  0  0  0  0  0
  151.4307  137.2658  157.3606 N   0  0  0  0  0  0  0  0  0  0  0  0
  151.8214  137.4849  158.6183 C   0  0  0  0  0  0  0  0  0  0  0  0
  151.9876  138.6480  159.2463 N   0  0  0  0  0  0  0  0  0  0  0  0
  151.6988  139.6981  158.4270 C   0  0  0  0  0  0  0  0  0  0  0  0
  151.2775  139.6194  157.0664 C   0  0  0  0  0  0  0  0  0  0  0  0
  151.0774  140.9055  156.5749 N   0  0  0  0  0  0  0  0  0  0  0  0
  151.3737  141.6905  157.5730 C   0  0  0  0  0  0  0  0  0  0  0  0
  151.7461  141.0479  158.7301 N   0  0  0  0  0  0  0  0  0  0  0  0
  152.1231  141.6735  159.9891 C   0  0  0  0  0  0  0  0  0  0  0  0
  152.2892  143.2086  159.8935 C   0  0  2  0  0  0  0  0  0  0  0  0
  152.7431  143.7025  161.1424 O   0  0  0  0  0  0  0  0  0  0  0  0
  150.9922  143.9242  159.5387 C   0  0  0  0  0  0  0  0  0  0  0  0
  151.4855  145.1777  158.8286 C   0  0  0  0  0  0  0  0  0  0  0  0
  152.5745  144.6986  158.0573 O   0  0  0  0  0  0  0  0  0  0  0  0
  153.2601  143.6908  158.7956 C   0  0  0  0  0  0  0  0  0  0  0  0
  149.8391  136.8712  155.0590 C   0  0  0  0  0  0  0  0  0  0  0  0
  148.3827  137.3613  154.9037 C   0  0  1  0  0  0  0  0  0  0  0  0
  147.7756  137.7931  156.2556 C   0  0  0  0  0  0  0  0  0  0  0  0
  147.0592  136.1800  152.8819 H   0  0  0  0  0  0  0  0  0  0  0  0
  145.5819  136.1007  151.9300 H   0  0  0  0  0  0  0  0  0  0  0  0
  145.5032  136.4946  153.6457 H   0  0  0  0  0  0  0  0  0  0  0  0
  146.7825  138.2073  151.4604 H   0  0  0  0  0  0  0  0  0  0  0  0
  144.7526  138.6948  151.2633 H   0  0  0  0  0  0  0  0  0  0  0  0
  146.9955  139.9569  153.2269 H   0  0  0  0  0  0  0  0  0  0  0  0
  146.3136  138.9035  154.4273 H   0  0  0  0  0  0  0  0  0  0  0  0
  149.2265  140.2044  153.1881 H   0  0  0  0  0  0  0  0  0  0  0  0
  148.9590  140.1175  154.9124 H   0  0  0  0  0  0  0  0  0  0  0  0
  151.0138  138.5338  153.2802 H   0  0  0  0  0  0  0  0  0  0  0  0
  151.4042  139.8122  154.3830 H   0  0  0  0  0  0  0  0  0  0  0  0
  152.0319  136.6024  159.2044 H   0  0  0  0  0  0  0  0  0  0  0  0
  151.3215  142.7670  157.4948 H   0  0  0  0  0  0  0  0  0  0  0  0
  151.3680  141.4240  160.7357 H   0  0  0  0  0  0  0  0  0  0  0  0
  153.0517  141.2150  160.3319 H   0  0  0  0  0  0  0  0  0  0  0  0
  152.5619  143.0522  161.8039 H   0  0  0  0  0  0  0  0  0  0  0  0
  150.4092  143.3261  158.8369 H   0  0  0  0  0  0  0  0  0  0  0  0
  150.3575  144.1385  160.3996 H   0  0  0  0  0  0  0  0  0  0  0  0
  150.7208  145.6390  158.2033 H   0  0  0  0  0  0  0  0  0  0  0  0
  151.8416  145.9199  159.5447 H   0  0  0  0  0  0  0  0  0  0  0  0
  154.1887  144.0889  159.2076 H   0  0  0  0  0  0  0  0  0  0  0  0
  153.5262  142.8938  158.1026 H   0  0  0  0  0  0  0  0  0  0  0  0
  150.1445  136.3561  154.1474 H   0  0  0  0  0  0  0  0  0  0  0  0
  149.9001  136.1246  155.8508 H   0  0  0  0  0  0  0  0  0  0  0  0
  147.8175  136.4948  154.5637 H   0  0  0  0  0  0  0  0  0  0  0  0
  147.9078  137.0104  157.0030 H   0  0  0  0  0  0  0  0  0  0  0  0
  146.7040  137.9759  156.1798 H   0  0  0  0  0  0  0  0  0  0  0  0
  148.2427  138.6961  156.6481 H   0  0  0  0  0  0  0  0  0  0  0  0
  148.6091  137.9614  152.9980 H   0  0  0  0  0  0  0  0  0  0  0  0
  1  2  1  0  0  0  0
  1 28  1  0  0  0  0
  1 29  1  0  0  0  0
  1 30  1  0  0  0  0
  2  3  1  0  0  0  0
  2  4  1  0  0  0  0
  2 31  1  0  0  0  0
  3 32  1  0  0  0  0
  4  5  1  0  0  0  0
  4 33  1  0  0  0  0
  4 34  1  0  0  0  0
  5 26  1  0  0  0  0
  5  6  1  0  0  0  0
  5 56  1  0  0  0  0
  6  7  1  0  0  0  0
  6 35  1  0  0  0  0
  6 36  1  0  0  0  0
  7  8  1  0  0  0  0
  7 37  1  0  0  0  0
  7 38  1  0  0  0  0
  8  9  1  0  0  0  0
  8 25  1  0  0  0  0
  9 14  1  0  0  0  0
  9 10  2  0  0  0  0
 10 11  1  0  0  0  0
 11 12  2  0  0  0  0
 11 39  1  0  0  0  0
 12 13  1  0  0  0  0
 13 17  1  0  0  0  0
 13 14  2  0  0  0  0
 14 15  1  0  0  0  0
 15 16  2  0  0  0  0
 16 17  1  0  0  0  0
 16 40  1  0  0  0  0
 17 18  1  0  0  0  0
 18 19  1  0  0  0  0
 18 41  1  0  0  0  0
 18 42  1  0  0  0  0
 19 24  1  0  0  0  0
 19 20  1  0  0  0  0
 19 21  1  0  0  0  0
 20 43  1  0  0  0  0
 21 22  1  0  0  0  0
 21 44  1  0  0  0  0
 21 45  1  0  0  0  0
 22 23  1  0  0  0  0
 22 46  1  0  0  0  0
 22 47  1  0  0  0  0
 23 24  1  0  0  0  0
 24 48  1  0  0  0  0
 24 49  1  0  0  0  0
 25 26  1  0  0  0  0
 25 50  1  0  0  0  0
 25 51  1  0  0  0  0
 26 27  1  0  0  0  0
 26 52  1  0  0  0  0
 27 53  1  0  0  0  0
 27 54  1  0  0  0  0
 27 55  1  0  0  0  0
M  CHG  1   5   1
M  END
> <s_m_source_file>
AV-unprocessed.smi

> <i_m_source_file_index>
224

> <i_lp_mmshare_version>
43012

> <i_f3d_flags>
0

> <s_epik_input>
W0NIM11bQ0BIXShbT0hdKVtDSDJdTjFbQ0gyXVtDSDJdTihbQ0gyXVtDQEhdMVtDSDNdKWMobltjSF1uMiljKGMyMyluW2NIXW4zW0NIMl1bQ0BAXTQoW09IXSlbQ0gyXVtDSDJdT1tDSDJdNA==

> <s_epik_cmdline>
J2VwaWtfcHl0aG9uJywgJy1waCcsICc3LjAnLCAnLXRuJywgJzgnLCAnLW1hJywgJzIwMCcsICctbWV0YWxfYmluZGluZycsICctaW1hZScsICc8aW5maWxlLm1hZT4nLCAnLW9tYWUnLCAnPG91dGZpbGUubWFlPic=

> <r_lp_tautomer_probability>
1

> <r_epik_Ionization_Penalty>
0.00516958

> <r_epik_Ionization_Penalty_Charging>
0.00509693

> <r_epik_Ionization_Penalty_Neutral>
7.26542e-05

> <r_epik_State_Penalty>
-0

> <r_epik_Charging_Adjusted_Penalty>
0.00509693

> <i_epik_Tot_Q>
1

> <i_epik_Tot_abs_Q>
1

> <r_epik_Metal_State_Penalty>
-0

> <b_epik_Metal_Only>
0

> <s_lp_Force_Field>
OPLS_2005

> <r_lp_Energy>
50.9618

> <b_lp_Chiralities_Consistent>
1

> <s_lp_Variant>
AV-unprocessed.smi:224-8

> <Gold.Version>
5.8.1

> <Gold.Id.Protein>
6NUR|6NUR_protein|mol2

> <Gold.PLP.Fitness>
46.7783

> <Gold.PLP.PLP>
-39.4781

> <Gold.PLP.part.hbond>
-2.5116

> <Gold.PLP.part.metal>
0.0000

> <Gold.PLP.part.buried>
-2.8141

> <Gold.PLP.part.nonpolar>
-33.2826

> <Gold.PLP.part.repulsive>
0.0831

> <Gold.PLP.ligand.clash>
0.0062

> <Gold.PLP.ligand.torsion>
0.9658

> <Gold.PLP.Chemscore.Hbond>
3.0000

> <Gold.PLP.Chemscore.CHOScore>
0.0000

> <Gold.PLP.Chemscore.Metal>
0.0000

> <Gold.Chemscore.Hbonds>
donor molecule, donor type, donor heavy atom, donor atom, acceptor molecule, acceptor atom, score
      L1  H     3    32       P1 10171  1.00
      L1  H     5    56       P1  7948  1.76

> <Gold.PLP.Chemscore.Internal.Correction>
0.2379

> <Gold.Rescore>
     Score         DG    S(hbond)    S(metal)    S(lipo)     H(rot)  DE(clash)    DE(int)     intcor
     12.29     -14.96       2.00        0.00      90.15       3.02       0.01       2.66       ----

> <Gold.Chemscore.Fitness>
12.2917

> <Gold.Chemscore.DG>
-14.9596

> <Gold.Chemscore.ZeroCoef>
-5.4800

> <Gold.Chemscore.Hbond>
1.9975

> <Gold.Chemscore.Metal>
0.0000

> <Gold.Chemscore.Lipo>
90.1454

> <Gold.Chemscore.Internal_Hbond>
0.0000

> <Gold.Chemscore.DEClash>
0.0102

> <Gold.Chemscore.DEInternal>
2.6577

> <Gold.Chemscore.Rot>
3.0231

> <Gold.Chemscore.Internal.Correction>
   9.000000E+99

> <Gold.Chemscore.Hbonds>
donor molecule, donor type, donor heavy atom, donor atom, acceptor molecule, acceptor atom, score
      L1  H     3    32       P1 10171  0.99
      L1  H     5    56       P1  7948  0.82

> <Gold.Chemscore.Hbond.Weighted>
-6.6717

> <Gold.Chemscore.Metal.Weighted>
-0.0000

> <Gold.Chemscore.Lipo.Weighted>
-10.5470

> <Gold.Chemscore.Internal_Hbond.Weighted>
0.0000

> <Gold.Chemscore.DEClash.Weighted>
0.0102

> <Gold.Chemscore.DEInternal.Weighted>
2.6577

> <Gold.Chemscore.Rot.Weighted>
7.7391

> <Gold.Chemscore.Internal.Correction.Weighted>
   9.000000E+99

> <Gold.Protein.RotatedTorsions>
[ 6907 6896 6895 6894 ] final  -11.80 input  -60.11 | X-H torsion
[ 7974 7965 7964 7962 ] final  -52.45 input  175.53 | X-H torsion
[ 8008 7997 7996 7995 ] final  -99.89 input   59.86 | X-H torsion
[ 10167 10162 10161 10158 ] final -148.50 input  -65.29 | X-H torsion
[ 10718 10713 10712 10709 ] final -129.44 input   66.30 | X-H torsion
[ 10763 10752 10751 10750 ] final   91.45 input  -60.55 | X-H torsion
[ 11005 11000 10999 10996 ] final  -38.39 input  -57.11 | X-H torsion

> <Gold.Protein.ActiveResidues>
 VAL166  LYS551  ARG553  GLY616  TRP617  ASP618  TYR619  PRO620  LYS621  CYS622 
 ASP623  PHE694  ASN695  SER759  ASP760  ASP761  ALA762  ILE779  LEU786  VAL792 
 PHE793  MET794  SER795  GLU796  ALA797  LYS798  CYS799  TRP800  GLU811  SER814 

> <Gold.Protein.RotatedAtoms>
  151.3805  135.0939  159.9494 H   0  0  0  0  0  0  0  0  0  0  0  0  # atno 6907 bound_to 6896
  152.5109  133.9077  159.7482 H   0  0  0  0  0  0  0  0  0  0  0  0  # atno 6908 bound_to 6896
  150.9509  133.6495  159.2801 H   0  0  0  0  0  0  0  0  0  0  0  0  # atno 6909 bound_to 6896
  145.9078  140.7941  142.9711 H   0  0  0  0  0  0  0  0  0  0  0  0  # atno 7974 bound_to 7965
  154.8210  140.0444  157.1411 H   0  0  0  0  0  0  0  0  0  0  0  0  # atno 8008 bound_to 7997
  154.9259  140.3033  155.5172 H   0  0  0  0  0  0  0  0  0  0  0  0  # atno 8009 bound_to 7997
  156.2980  140.2332  156.4314 H   0  0  0  0  0  0  0  0  0  0  0  0  # atno 8010 bound_to 7997
  139.7526  143.8495  152.2590 H   0  0  0  0  0  0  0  0  0  0  0  0  # atno 10167 bound_to 10162
  156.2047  130.6880  151.0580 H   0  0  0  0  0  0  0  0  0  0  0  0  # atno 10718 bound_to 10713
  153.2084  135.4397  155.0350 H   0  0  0  0  0  0  0  0  0  0  0  0  # atno 10763 bound_to 10752
  154.8186  135.3327  154.7106 H   0  0  0  0  0  0  0  0  0  0  0  0  # atno 10764 bound_to 10752
  153.7546  135.6996  153.4994 H   0  0  0  0  0  0  0  0  0  0  0  0  # atno 10765 bound_to 10752
  141.0024  133.6949  156.2047 H   0  0  0  0  0  0  0  0  0  0  0  0  # atno 11005 bound_to 11000
  144.6740  140.1778  143.7408 LP  0  0  0  0  0  0  0  0  0  0  0  0  # atno 17320 bound_to 7965
  145.8710  139.2272  143.1661 LP  0  0  0  0  0  0  0  0  0  0  0  0  # atno 17321 bound_to 7965
  139.8478  144.7179  150.9251 LP  0  0  0  0  0  0  0  0  0  0  0  0  # atno 17342 bound_to 10162
  140.7799  143.3926  151.1284 LP  0  0  0  0  0  0  0  0  0  0  0  0  # atno 17343 bound_to 10162
  157.7006  131.0777  150.6833 LP  0  0  0  0  0  0  0  0  0  0  0  0  # atno 17370 bound_to 10713
  156.6891  130.4590  149.5605 LP  0  0  0  0  0  0  0  0  0  0  0  0  # atno 17371 bound_to 10713
  140.6868  134.4709  157.5589 LP  0  0  0  0  0  0  0  0  0  0  0  0  # atno 17394 bound_to 11000
  139.9045  134.8479  156.1759 LP  0  0  0  0  0  0  0  0  0  0  0  0  # atno 17395 bound_to 11000

$$$$
