AV-unprocessed.smi:2518|AV-procd|sdf|9901|dock10
  -GOLD-   2272013543D 1   1.00000     0.00000
 Structure written by MMmdl.
 41 43  0  0  0  0  0  0  0  0  1 V2000
  151.6909  145.6355  159.8825 C   0  0  0  0  0  0  0  0  0  0  0  0
  151.7927  144.2495  159.2800 C   0  0  0  0  0  0  0  0  0  0  0  0
  152.6994  143.3065  159.8032 C   0  0  0  0  0  0  0  0  0  0  0  0
  152.7871  142.0212  159.2349 C   0  0  0  0  0  0  0  0  0  0  0  0
  151.9765  141.6576  158.1400 C   0  0  0  0  0  0  0  0  0  0  0  0
  152.1306  140.3804  157.6452 O   0  0  0  0  0  0  0  0  0  0  0  0
  151.2333  139.9354  156.6360 C   0  0  0  0  0  0  0  0  0  0  0  0
  151.9369  138.8670  155.7852 C   0  0  2  0  0  0  0  0  0  0  0  0
  153.1092  139.4377  155.2359 O   0  0  0  0  0  0  0  0  0  0  0  0
  151.0352  138.3567  154.6434 C   0  0  0  0  0  0  0  0  0  0  0  0
  149.6823  138.8874  154.7200 N   0  0  0  0  0  0  0  0  0  0  0  0
  149.4701  140.2078  154.4828 N   0  0  0  0  0  0  0  0  0  0  0  0
  148.1612  140.3976  154.6346 C   0  0  0  0  0  0  0  0  0  0  0  0
  147.4852  139.1953  154.9792 C   0  0  0  0  0  0  0  0  0  0  0  0
  146.1005  138.8328  155.2608 C   0  0  0  0  0  0  0  0  0  0  0  0
  145.8380  137.5991  155.5584 N   0  0  0  0  0  0  0  0  0  0  0  0
  146.8462  136.6300  155.6115 N   0  0  0  0  0  0  0  0  0  0  0  0
  146.3567  135.2984  155.9663 C   0  0  0  0  0  0  0  0  0  0  0  0
  148.1706  136.8640  155.3549 C   0  0  0  0  0  0  0  0  0  0  0  0
  149.0477  136.0011  155.3911 O   0  0  0  0  0  0  0  0  0  0  0  0
  148.4803  138.2753  155.0187 C   0  0  0  0  0  0  0  0  0  0  0  0
  151.0645  142.6106  157.6202 C   0  0  0  0  0  0  0  0  0  0  0  0
  150.9764  143.8968  158.1875 C   0  0  0  0  0  0  0  0  0  0  0  0
  152.3637  145.7507  160.7330 H   0  0  0  0  0  0  0  0  0  0  0  0
  150.6735  145.8246  160.2255 H   0  0  0  0  0  0  0  0  0  0  0  0
  151.9488  146.3900  159.1390 H   0  0  0  0  0  0  0  0  0  0  0  0
  153.3315  143.5637  160.6405 H   0  0  0  0  0  0  0  0  0  0  0  0
  153.4865  141.3063  159.6428 H   0  0  0  0  0  0  0  0  0  0  0  0
  150.3613  139.4943  157.1219 H   0  0  0  0  0  0  0  0  0  0  0  0
  150.8864  140.7603  156.0104 H   0  0  0  0  0  0  0  0  0  0  0  0
  152.2180  138.0232  156.4168 H   0  0  0  0  0  0  0  0  0  0  0  0
  153.5422  138.7814  154.7113 H   0  0  0  0  0  0  0  0  0  0  0  0
  151.4582  138.6475  153.6807 H   0  0  0  0  0  0  0  0  0  0  0  0
  150.9971  137.2679  154.6360 H   0  0  0  0  0  0  0  0  0  0  0  0
  147.7537  141.3877  154.4935 H   0  0  0  0  0  0  0  0  0  0  0  0
  145.3122  139.5845  155.2208 H   0  0  0  0  0  0  0  0  0  0  0  0
  147.1471  134.5580  156.0950 H   0  0  0  0  0  0  0  0  0  0  0  0
  145.6831  134.9294  155.1920 H   0  0  0  0  0  0  0  0  0  0  0  0
  145.7989  135.3408  156.9027 H   0  0  0  0  0  0  0  0  0  0  0  0
  150.4198  142.3798  156.7859 H   0  0  0  0  0  0  0  0  0  0  0  0
  150.2785  144.6139  157.7804 H   0  0  0  0  0  0  0  0  0  0  0  0
  1  2  1  0  0  0  0
  1 24  1  0  0  0  0
  1 25  1  0  0  0  0
  1 26  1  0  0  0  0
  2 23  1  0  0  0  0
  2  3  2  0  0  0  0
  3  4  1  0  0  0  0
  3 27  1  0  0  0  0
  4  5  2  0  0  0  0
  4 28  1  0  0  0  0
  5  6  1  0  0  0  0
  5 22  1  0  0  0  0
  6  7  1  0  0  0  0
  7  8  1  0  0  0  0
  7 29  1  0  0  0  0
  7 30  1  0  0  0  0
  8  9  1  0  0  0  0
  8 10  1  0  0  0  0
  8 31  1  0  0  0  0
  9 32  1  0  0  0  0
 10 11  1  0  0  0  0
 10 33  1  0  0  0  0
 10 34  1  0  0  0  0
 11 21  1  0  0  0  0
 11 12  1  0  0  0  0
 12 13  2  0  0  0  0
 13 14  1  0  0  0  0
 13 35  1  0  0  0  0
 14 21  2  0  0  0  0
 14 15  1  0  0  0  0
 15 16  2  0  0  0  0
 15 36  1  0  0  0  0
 16 17  1  0  0  0  0
 17 18  1  0  0  0  0
 17 19  1  0  0  0  0
 18 37  1  0  0  0  0
 18 38  1  0  0  0  0
 18 39  1  0  0  0  0
 19 20  2  0  0  0  0
 19 21  1  0  0  0  0
 22 23  2  0  0  0  0
 22 40  1  0  0  0  0
 23 41  1  0  0  0  0
M  END
> <s_m_source_file>
AV-unprocessed.smi

> <i_m_source_file_index>
2518

> <i_lp_mmshare_version>
43012

> <i_f3d_flags>
0

> <s_epik_input>
W0NIM11jMVtjSF1bY0hdYyhbY0hdW2NIXTEpT1tDSDJdW0NASF0oW09IXSlbQ0gyXW4obltjSF0yKWMoYzIzKWMoPU8pbihbQ0gzXSluW2NIXTM=

> <s_epik_cmdline>
J2VwaWtfcHl0aG9uJywgJy1waCcsICc3LjAnLCAnLXRuJywgJzgnLCAnLW1hJywgJzIwMCcsICctbWV0YWxfYmluZGluZycsICctaW1hZScsICc8aW5maWxlLm1hZT4nLCAnLW9tYWUnLCAnPG91dGZpbGUubWFlPic=

> <r_lp_tautomer_probability>
1

> <r_epik_Ionization_Penalty>
2.246e-06

> <r_epik_Ionization_Penalty_Charging>
1.41975e-10

> <r_epik_Ionization_Penalty_Neutral>
2.24586e-06

> <r_epik_State_Penalty>
-0

> <r_epik_Charging_Adjusted_Penalty>
1.41975e-10

> <i_epik_Tot_Q>
0

> <i_epik_Tot_abs_Q>
0

> <r_epik_Metal_State_Penalty>
-0

> <b_epik_Metal_Only>
0

> <s_lp_Force_Field>
OPLS_2005

> <r_lp_Energy>
32.1328

> <b_lp_Chiralities_Consistent>
1

> <s_lp_Variant>
AV-unprocessed.smi:2518-1

> <Gold.Version>
5.8.1

> <Gold.Id.Protein>
6NUR|6NUR_protein|mol2

> <Gold.PLP.Fitness>
47.6842

> <Gold.PLP.PLP>
-41.6073

> <Gold.PLP.part.hbond>
-1.9746

> <Gold.PLP.part.metal>
0.0000

> <Gold.PLP.part.buried>
-4.9432

> <Gold.PLP.part.nonpolar>
-36.9776

> <Gold.PLP.part.repulsive>
1.1066

> <Gold.PLP.ligand.clash>
0.0000

> <Gold.PLP.ligand.torsion>
1.0118

> <Gold.PLP.Chemscore.Hbond>
1.8480

> <Gold.PLP.Chemscore.CHOScore>
0.8442

> <Gold.PLP.Chemscore.Metal>
0.0000

> <Gold.Chemscore.Hbonds>
donor molecule, donor type, donor heavy atom, donor atom, acceptor molecule, acceptor atom, score
      P1  H  7997  8008       L1     9  1.00

> <Gold.PLP.Chemscore.Internal.Correction>
0.0237

> <Gold.Rescore>
     Score         DG    S(hbond)    S(metal)    S(lipo)     H(rot)  DE(clash)    DE(int)     intcor
     16.11     -18.90       1.78        0.00     115.25       2.35       0.36       2.43       ----

> <Gold.Chemscore.Fitness>
16.1122

> <Gold.Chemscore.DG>
-18.8993

> <Gold.Chemscore.ZeroCoef>
-5.4800

> <Gold.Chemscore.Hbond>
1.7811

> <Gold.Chemscore.Metal>
0.0000

> <Gold.Chemscore.Lipo>
115.2484

> <Gold.Chemscore.Internal_Hbond>
0.0000

> <Gold.Chemscore.DEClash>
0.3585

> <Gold.Chemscore.DEInternal>
2.4286

> <Gold.Chemscore.Rot>
2.3490

> <Gold.Chemscore.Internal.Correction>
   9.000000E+99

> <Gold.Chemscore.Hbonds>
donor molecule, donor type, donor heavy atom, donor atom, acceptor molecule, acceptor atom, score
      P1  H  7989  7998       L1    12  0.01
      P1  H  7997  8008       L1     9  0.26

> <Gold.Chemscore.Hbond.Weighted>
-5.9488

> <Gold.Chemscore.Metal.Weighted>
-0.0000

> <Gold.Chemscore.Lipo.Weighted>
-13.4841

> <Gold.Chemscore.Internal_Hbond.Weighted>
0.0000

> <Gold.Chemscore.DEClash.Weighted>
0.3585

> <Gold.Chemscore.DEInternal.Weighted>
2.4286

> <Gold.Chemscore.Rot.Weighted>
6.0136

> <Gold.Chemscore.Internal.Correction.Weighted>
   9.000000E+99

> <Gold.Protein.RotatedTorsions>
[ 6907 6896 6895 6894 ] final  143.72 input  -60.11 | X-H torsion
[ 7974 7965 7964 7962 ] final   47.45 input  175.53 | X-H torsion
[ 8008 7997 7996 7995 ] final  -19.68 input   59.86 | X-H torsion
[ 10167 10162 10161 10158 ] final -106.92 input  -65.29 | X-H torsion
[ 10718 10713 10712 10709 ] final  148.77 input   66.30 | X-H torsion
[ 10763 10752 10751 10750 ] final  -48.44 input  -60.55 | X-H torsion
[ 11005 11000 10999 10996 ] final  141.88 input  -57.11 | X-H torsion

> <Gold.Protein.ActiveResidues>
 VAL166  LYS551  ARG553  GLY616  TRP617  ASP618  TYR619  PRO620  LYS621  CYS622 
 ASP623  PHE694  ASN695  SER759  ASP760  ASP761  ALA762  ILE779  LEU786  VAL792 
 PHE793  MET794  SER795  GLU796  ALA797  LYS798  CYS799  TRP800  GLU811  SER814 

> <Gold.Protein.RotatedAtoms>
  152.2028  133.4853  159.5067 H   0  0  0  0  0  0  0  0  0  0  0  0  # atno 6907 bound_to 6896
  150.6973  134.1568  159.4170 H   0  0  0  0  0  0  0  0  0  0  0  0  # atno 6908 bound_to 6896
  151.9486  135.0179  160.0591 H   0  0  0  0  0  0  0  0  0  0  0  0  # atno 6909 bound_to 6896
  146.0297  139.4748  142.9845 H   0  0  0  0  0  0  0  0  0  0  0  0  # atno 7974 bound_to 7965
  154.4820  140.2082  155.9741 H   0  0  0  0  0  0  0  0  0  0  0  0  # atno 8008 bound_to 7997
  156.1179  140.3218  155.8136 H   0  0  0  0  0  0  0  0  0  0  0  0  # atno 8009 bound_to 7997
  155.4519  140.0517  157.2991 H   0  0  0  0  0  0  0  0  0  0  0  0  # atno 8010 bound_to 7997
  140.1825  143.3955  152.1270 H   0  0  0  0  0  0  0  0  0  0  0  0  # atno 10167 bound_to 10162
  157.3044  131.0876  151.1365 H   0  0  0  0  0  0  0  0  0  0  0  0  # atno 10718 bound_to 10713
  154.0779  135.6595  153.4833 H   0  0  0  0  0  0  0  0  0  0  0  0  # atno 10763 bound_to 10752
  153.0367  135.5173  154.7503 H   0  0  0  0  0  0  0  0  0  0  0  0  # atno 10764 bound_to 10752
  154.6589  135.3012  154.9860 H   0  0  0  0  0  0  0  0  0  0  0  0  # atno 10765 bound_to 10752
  140.0435  134.9293  157.0887 H   0  0  0  0  0  0  0  0  0  0  0  0  # atno 11005 bound_to 11000
  145.7061  141.0121  143.1478 LP  0  0  0  0  0  0  0  0  0  0  0  0  # atno 17320 bound_to 7965
  144.7025  139.8702  143.7440 LP  0  0  0  0  0  0  0  0  0  0  0  0  # atno 17321 bound_to 7965
  139.5290  144.7137  151.5124 LP  0  0  0  0  0  0  0  0  0  0  0  0  # atno 17342 bound_to 10162
  140.6510  143.8697  150.6785 LP  0  0  0  0  0  0  0  0  0  0  0  0  # atno 17343 bound_to 10162
  157.2711  130.6705  149.6020 LP  0  0  0  0  0  0  0  0  0  0  0  0  # atno 17370 bound_to 10713
  155.9673  130.4479  150.5597 LP  0  0  0  0  0  0  0  0  0  0  0  0  # atno 17371 bound_to 10713
  140.4031  134.2061  155.7163 LP  0  0  0  0  0  0  0  0  0  0  0  0  # atno 17394 bound_to 11000
  141.1895  133.8237  157.0954 LP  0  0  0  0  0  0  0  0  0  0  0  0  # atno 17395 bound_to 11000

$$$$
