AV-unprocessed.smi:3171|AV-procd|sdf|12111|dock7
  -GOLD-   2272017553D 1   1.00000     0.00000
 Structure written by MMmdl.
 33 34  0  0  0  0  0  0  0  0  1 V2000
  152.5548  143.8126  161.9833 C   0  0  0  0  0  0  0  0  0  0  0  0
  152.0647  143.0440  160.7689 C   0  0  0  0  0  0  0  0  0  0  0  0
  150.9508  143.5424  160.1898 N   0  0  0  0  0  0  0  0  0  0  0  0
  150.4326  142.9585  159.1084 N   0  0  0  0  0  0  0  0  0  0  0  0
  151.0072  141.8574  158.5663 C   0  0  0  0  0  0  0  0  0  0  0  0
  150.4080  141.3058  157.4179 N   0  0  0  0  0  0  0  0  0  0  0  0
  150.6625  141.8697  156.0971 C   0  0  0  0  0  0  0  0  0  0  0  0
  149.8609  141.1548  154.9974 C   0  0  2  0  0  0  0  0  0  0  0  0
  148.3630  141.4418  155.0532 C   0  0  0  0  0  0  0  0  0  0  0  0
  147.7542  140.2565  154.3227 C   0  0  0  0  0  0  0  0  0  0  0  0
  148.8510  139.1882  154.3724 C   0  0  0  0  0  0  0  0  0  0  0  0
  149.8888  139.7465  155.1673 O   0  0  0  0  0  0  0  0  0  0  0  0
  152.1804  141.2827  159.1217 C   0  0  0  0  0  0  0  0  0  0  0  0
  152.8022  140.1016  158.5265 C   0  0  0  0  0  0  0  0  0  0  0  0
  153.2948  139.1665  158.0552 N   0  0  0  0  0  0  0  0  0  0  0  0
  152.7301  141.8955  160.2761 C   0  0  0  0  0  0  0  0  0  0  0  0
  153.9874  141.3483  160.9477 C   0  0  0  0  0  0  0  0  0  0  0  0
  153.5898  144.1263  161.8448 H   0  0  0  0  0  0  0  0  0  0  0  0
  152.4938  143.1920  162.8773 H   0  0  0  0  0  0  0  0  0  0  0  0
  151.9574  144.7087  162.1570 H   0  0  0  0  0  0  0  0  0  0  0  0
  149.5436  140.7983  157.5395 H   0  0  0  0  0  0  0  0  0  0  0  0
  150.4826  142.9449  156.0778 H   0  0  0  0  0  0  0  0  0  0  0  0
  151.7267  141.7410  155.8987 H   0  0  0  0  0  0  0  0  0  0  0  0
  150.2483  141.4094  154.0086 H   0  0  0  0  0  0  0  0  0  0  0  0
  148.0209  141.4468  156.0892 H   0  0  0  0  0  0  0  0  0  0  0  0
  148.0975  142.3999  154.6058 H   0  0  0  0  0  0  0  0  0  0  0  0
  146.8335  139.9241  154.8033 H   0  0  0  0  0  0  0  0  0  0  0  0
  147.5209  140.5121  153.2885 H   0  0  0  0  0  0  0  0  0  0  0  0
  148.5003  138.2494  154.8018 H   0  0  0  0  0  0  0  0  0  0  0  0
  149.2332  138.9830  153.3716 H   0  0  0  0  0  0  0  0  0  0  0  0
  153.9100  140.2701  161.0928 H   0  0  0  0  0  0  0  0  0  0  0  0
  154.1705  141.7830  161.9288 H   0  0  0  0  0  0  0  0  0  0  0  0
  154.8602  141.5474  160.3254 H   0  0  0  0  0  0  0  0  0  0  0  0
  1  2  1  0  0  0  0
  1 18  1  0  0  0  0
  1 19  1  0  0  0  0
  1 20  1  0  0  0  0
  2 16  1  0  0  0  0
  2  3  2  0  0  0  0
  3  4  1  0  0  0  0
  4  5  2  0  0  0  0
  5  6  1  0  0  0  0
  5 13  1  0  0  0  0
  6  7  1  0  0  0  0
  6 21  1  0  0  0  0
  7  8  1  0  0  0  0
  7 22  1  0  0  0  0
  7 23  1  0  0  0  0
  8 12  1  0  0  0  0
  8  9  1  0  0  0  0
  8 24  1  0  0  0  0
  9 10  1  0  0  0  0
  9 25  1  0  0  0  0
  9 26  1  0  0  0  0
 10 11  1  0  0  0  0
 10 27  1  0  0  0  0
 10 28  1  0  0  0  0
 11 12  1  0  0  0  0
 11 29  1  0  0  0  0
 11 30  1  0  0  0  0
 13 14  1  0  0  0  0
 13 16  2  0  0  0  0
 14 15  3  0  0  0  0
 16 17  1  0  0  0  0
 17 31  1  0  0  0  0
 17 32  1  0  0  0  0
 17 33  1  0  0  0  0
M  END
> <s_m_source_file>
AV-unprocessed.smi

> <i_m_source_file_index>
3171

> <i_lp_mmshare_version>
43012

> <i_f3d_flags>
0

> <s_epik_input>
W0NIM11jMW5uYyhjKEMjTiljMVtDSDNdKVtOSF1bQ0gyXVtDQEBIXTJbQ0gyXVtDSDJdW0NIMl1PMg==

> <s_epik_cmdline>
J2VwaWtfcHl0aG9uJywgJy1waCcsICc3LjAnLCAnLXRuJywgJzgnLCAnLW1hJywgJzIwMCcsICctbWV0YWxfYmluZGluZycsICctaW1hZScsICc8aW5maWxlLm1hZT4nLCAnLW9tYWUnLCAnPG91dGZpbGUubWFlPic=

> <r_lp_tautomer_probability>
1

> <r_epik_Ionization_Penalty>
0.00108228

> <r_epik_Ionization_Penalty_Charging>
0

> <r_epik_Ionization_Penalty_Neutral>
0.00108228

> <r_epik_State_Penalty>
-0

> <r_epik_Charging_Adjusted_Penalty>
0

> <i_epik_Tot_Q>
0

> <i_epik_Tot_abs_Q>
0

> <r_epik_Metal_State_Penalty>
-0

> <b_epik_Metal_Only>
0

> <s_lp_Force_Field>
OPLS_2005

> <r_lp_Energy>
28.7028

> <b_lp_Chiralities_Consistent>
1

> <s_lp_Variant>
AV-unprocessed.smi:3171-1

> <Gold.Version>
5.8.1

> <Gold.Id.Protein>
6NUR|6NUR_protein|mol2

> <Gold.PLP.Fitness>
34.9757

> <Gold.PLP.PLP>
-33.6290

> <Gold.PLP.part.hbond>
-2.3204

> <Gold.PLP.part.metal>
0.0000

> <Gold.PLP.part.buried>
-3.8459

> <Gold.PLP.part.nonpolar>
-27.6802

> <Gold.PLP.part.repulsive>
0.2432

> <Gold.PLP.ligand.clash>
0.0000

> <Gold.PLP.ligand.torsion>
0.8315

> <Gold.PLP.Chemscore.Hbond>
1.0000

> <Gold.PLP.Chemscore.CHOScore>
0.0000

> <Gold.PLP.Chemscore.Metal>
0.0000

> <Gold.Chemscore.Hbonds>
donor molecule, donor type, donor heavy atom, donor atom, acceptor molecule, acceptor atom, score
      P1  H  7997  8010       L1    15  0.95

> <Gold.PLP.Chemscore.Internal.Correction>
0.0097

> <Gold.Rescore>
     Score         DG    S(hbond)    S(metal)    S(lipo)     H(rot)  DE(clash)    DE(int)     intcor
     14.23     -15.14       0.86        0.00      84.55       1.22       0.05       0.86       ----

> <Gold.Chemscore.Fitness>
14.2269

> <Gold.Chemscore.DG>
-15.1427

> <Gold.Chemscore.ZeroCoef>
-5.4800

> <Gold.Chemscore.Hbond>
0.8647

> <Gold.Chemscore.Metal>
0.0000

> <Gold.Chemscore.Lipo>
84.5538

> <Gold.Chemscore.Internal_Hbond>
0.0000

> <Gold.Chemscore.DEClash>
0.0524

> <Gold.Chemscore.DEInternal>
0.8634

> <Gold.Chemscore.Rot>
1.2181

> <Gold.Chemscore.Internal.Correction>
   9.000000E+99

> <Gold.Chemscore.Hbonds>
donor molecule, donor type, donor heavy atom, donor atom, acceptor molecule, acceptor atom, score
      P1  H  7997  8010       L1    15  0.20

> <Gold.Chemscore.Hbond.Weighted>
-2.8881

> <Gold.Chemscore.Metal.Weighted>
-0.0000

> <Gold.Chemscore.Lipo.Weighted>
-9.8928

> <Gold.Chemscore.Internal_Hbond.Weighted>
0.0000

> <Gold.Chemscore.DEClash.Weighted>
0.0524

> <Gold.Chemscore.DEInternal.Weighted>
0.8634

> <Gold.Chemscore.Rot.Weighted>
3.1182

> <Gold.Chemscore.Internal.Correction.Weighted>
   9.000000E+99

> <Gold.Protein.RotatedTorsions>
[ 6907 6896 6895 6894 ] final  -75.42 input  -60.11 | X-H torsion
[ 7974 7965 7964 7962 ] final   17.51 input  175.53 | X-H torsion
[ 8008 7997 7996 7995 ] final   14.45 input   59.86 | X-H torsion
[ 10167 10162 10161 10158 ] final    4.13 input  -65.29 | X-H torsion
[ 10718 10713 10712 10709 ] final -121.90 input   66.30 | X-H torsion
[ 10763 10752 10751 10750 ] final -133.41 input  -60.55 | X-H torsion
[ 11005 11000 10999 10996 ] final   93.53 input  -57.11 | X-H torsion

> <Gold.Protein.ActiveResidues>
 VAL166  LYS551  ARG553  GLY616  TRP617  ASP618  TYR619  PRO620  LYS621  CYS622 
 ASP623  PHE694  ASN695  SER759  ASP760  ASP761  ALA762  ILE779  LEU786  VAL792 
 PHE793  MET794  SER795  GLU796  ALA797  LYS798  CYS799  TRP800  GLU811  SER814 

> <Gold.Protein.RotatedAtoms>
  150.7060  134.4724  159.5431 H   0  0  0  0  0  0  0  0  0  0  0  0  # atno 6907 bound_to 6896
  152.2377  134.8256  160.0474 H   0  0  0  0  0  0  0  0  0  0  0  0  # atno 6908 bound_to 6896
  151.9049  133.3512  159.3880 H   0  0  0  0  0  0  0  0  0  0  0  0  # atno 6909 bound_to 6896
  146.2216  139.8592  142.8608 H   0  0  0  0  0  0  0  0  0  0  0  0  # atno 7974 bound_to 7965
  154.8487  140.2926  155.5612 H   0  0  0  0  0  0  0  0  0  0  0  0  # atno 8008 bound_to 7997
  156.3015  140.2500  156.3374 H   0  0  0  0  0  0  0  0  0  0  0  0  # atno 8009 bound_to 7997
  154.9045  140.0390  157.1901 H   0  0  0  0  0  0  0  0  0  0  0  0  # atno 8010 bound_to 7997
  140.6551  143.7448  150.7639 H   0  0  0  0  0  0  0  0  0  0  0  0  # atno 10167 bound_to 10162
  156.1374  130.6441  150.9718 H   0  0  0  0  0  0  0  0  0  0  0  0  # atno 10718 bound_to 10713
  154.8733  135.3767  154.4568 H   0  0  0  0  0  0  0  0  0  0  0  0  # atno 10763 bound_to 10752
  153.5239  135.7028  153.5722 H   0  0  0  0  0  0  0  0  0  0  0  0  # atno 10764 bound_to 10752
  153.3957  135.3961  155.1919 H   0  0  0  0  0  0  0  0  0  0  0  0  # atno 10765 bound_to 10752
  139.8809  134.8795  156.3731 H   0  0  0  0  0  0  0  0  0  0  0  0  # atno 11005 bound_to 11000
  145.2722  141.0112  143.3765 LP  0  0  0  0  0  0  0  0  0  0  0  0  # atno 17320 bound_to 7965
  144.9215  139.4406  143.6539 LP  0  0  0  0  0  0  0  0  0  0  0  0  # atno 17321 bound_to 7965
  140.1106  143.4702  152.2372 LP  0  0  0  0  0  0  0  0  0  0  0  0  # atno 17342 bound_to 10162
  139.5772  144.7493  151.3734 LP  0  0  0  0  0  0  0  0  0  0  0  0  # atno 17343 bound_to 10162
  157.6545  131.0891  150.7978 LP  0  0  0  0  0  0  0  0  0  0  0  0  # atno 17370 bound_to 10713
  156.8056  130.4935  149.5363 LP  0  0  0  0  0  0  0  0  0  0  0  0  # atno 17371 bound_to 10713
  140.9450  133.7489  156.0197 LP  0  0  0  0  0  0  0  0  0  0  0  0  # atno 17394 bound_to 11000
  140.8174  134.3329  157.5393 LP  0  0  0  0  0  0  0  0  0  0  0  0  # atno 17395 bound_to 11000

$$$$
