AV-unprocessed.smi:906|AV-procd|sdf|4105|dock9
  -GOLD-   22720 2 03D 1   1.00000     0.00000
 Structure written by MMmdl.
 48 49  0  0  0  0  0  0  0  0  2 V2000
  153.1428  142.8544  161.7582 C   0  0  0  0  0  0  0  0  0  0  0  0
  152.4283  142.7522  160.4272 C   0  0  0  0  0  0  0  0  0  0  0  0
  152.2967  143.8779  159.5868 C   0  0  0  0  0  0  0  0  0  0  0  0
  151.6221  143.7235  158.3608 C   0  0  0  0  0  0  0  0  0  0  0  0
  151.1025  142.4561  158.0250 C   0  0  0  0  0  0  0  0  0  0  0  0
  150.3426  142.2383  156.7282 C   0  0  0  0  0  0  0  0  0  0  0  0
  149.8799  140.7833  156.5239 C   0  0  0  0  0  0  0  0  0  0  0  0
  148.6486  140.7034  155.7417 N   0  0  0  0  0  0  0  0  0  0  0  0
  148.5577  140.8046  154.4039 C   0  0  0  0  0  0  0  0  0  0  0  0
  149.5405  140.9997  153.6880 O   0  0  0  0  0  0  0  0  0  0  0  0
  147.3148  140.5859  153.9077 N   0  0  0  0  0  0  0  0  0  0  0  0
  146.9748  140.3981  152.4900 C   0  0  0  0  0  0  0  0  0  0  0  0
  146.6767  138.9080  152.2368 C   0  0  0  0  0  0  0  0  0  0  0  0
  145.6144  138.4021  153.1501 N   0  3  0  0  0  0  0  0  0  0  0  0
  145.2071  136.9942  152.8586 C   0  0  1  0  0  0  0  0  0  0  0  0
  146.1891  135.9418  153.4136 C   0  0  0  0  0  0  0  0  0  0  0  0
  143.7449  136.7191  153.2736 C   0  0  0  0  0  0  0  0  0  0  0  0
  142.9354  137.5974  152.6813 F   0  0  0  0  0  0  0  0  0  0  0  0
  143.3935  135.4957  152.8782 F   0  0  0  0  0  0  0  0  0  0  0  0
  143.5783  136.7994  154.5929 F   0  0  0  0  0  0  0  0  0  0  0  0
  145.8869  138.7157  154.5823 C   0  0  0  0  0  0  0  0  0  0  0  0
  146.1905  140.2124  154.7703 C   0  0  0  0  0  0  0  0  0  0  0  0
  151.2892  141.3954  158.9362 C   0  0  0  0  0  0  0  0  0  0  0  0
  151.9368  141.5336  160.1127 N   0  0  0  0  0  0  0  0  0  0  0  0
  153.5264  143.8612  161.9255 H   0  0  0  0  0  0  0  0  0  0  0  0
  153.9832  142.1605  161.7923 H   0  0  0  0  0  0  0  0  0  0  0  0
  152.4612  142.6096  162.5733 H   0  0  0  0  0  0  0  0  0  0  0  0
  152.7011  144.8375  159.8733 H   0  0  0  0  0  0  0  0  0  0  0  0
  151.4978  144.5665  157.6968 H   0  0  0  0  0  0  0  0  0  0  0  0
  149.4795  142.9049  156.7036 H   0  0  0  0  0  0  0  0  0  0  0  0
  150.9802  142.5397  155.8964 H   0  0  0  0  0  0  0  0  0  0  0  0
  150.6535  140.2267  155.9945 H   0  0  0  0  0  0  0  0  0  0  0  0
  149.7595  140.2887  157.4893 H   0  0  0  0  0  0  0  0  0  0  0  0
  147.8007  140.5162  156.2564 H   0  0  0  0  0  0  0  0  0  0  0  0
  146.0947  140.9987  152.2550 H   0  0  0  0  0  0  0  0  0  0  0  0
  147.7493  140.7353  151.8012 H   0  0  0  0  0  0  0  0  0  0  0  0
  146.3668  138.7768  151.1992 H   0  0  0  0  0  0  0  0  0  0  0  0
  147.5872  138.3230  152.3734 H   0  0  0  0  0  0  0  0  0  0  0  0
  145.2191  136.8907  151.7723 H   0  0  0  0  0  0  0  0  0  0  0  0
  145.9259  134.9450  153.0593 H   0  0  0  0  0  0  0  0  0  0  0  0
  146.1779  135.9071  154.5029 H   0  0  0  0  0  0  0  0  0  0  0  0
  147.2127  136.1372  153.0939 H   0  0  0  0  0  0  0  0  0  0  0  0
  145.0338  138.4468  155.2025 H   0  0  0  0  0  0  0  0  0  0  0  0
  146.7388  138.1356  154.9387 H   0  0  0  0  0  0  0  0  0  0  0  0
  146.3794  140.4286  155.8230 H   0  0  0  0  0  0  0  0  0  0  0  0
  145.3179  140.8091  154.5009 H   0  0  0  0  0  0  0  0  0  0  0  0
  150.9004  140.4114  158.7199 H   0  0  0  0  0  0  0  0  0  0  0  0
  144.8017  138.9534  152.9127 H   0  0  0  0  0  0  0  0  0  0  0  0
  1  2  1  0  0  0  0
  1 25  1  0  0  0  0
  1 26  1  0  0  0  0
  1 27  1  0  0  0  0
  2 24  1  0  0  0  0
  2  3  2  0  0  0  0
  3  4  1  0  0  0  0
  3 28  1  0  0  0  0
  4  5  2  0  0  0  0
  4 29  1  0  0  0  0
  5  6  1  0  0  0  0
  5 23  1  0  0  0  0
  6  7  1  0  0  0  0
  6 30  1  0  0  0  0
  6 31  1  0  0  0  0
  7  8  1  0  0  0  0
  7 32  1  0  0  0  0
  7 33  1  0  0  0  0
  8  9  1  0  0  0  0
  8 34  1  0  0  0  0
  9 10  2  0  0  0  0
  9 11  1  0  0  0  0
 11 22  1  0  0  0  0
 11 12  1  0  0  0  0
 12 13  1  0  0  0  0
 12 35  1  0  0  0  0
 12 36  1  0  0  0  0
 13 14  1  0  0  0  0
 13 37  1  0  0  0  0
 13 38  1  0  0  0  0
 14 15  1  0  0  0  0
 14 21  1  0  0  0  0
 14 48  1  0  0  0  0
 15 16  1  0  0  0  0
 15 17  1  0  0  0  0
 15 39  1  0  0  0  0
 16 40  1  0  0  0  0
 16 41  1  0  0  0  0
 16 42  1  0  0  0  0
 17 18  1  0  0  0  0
 17 19  1  0  0  0  0
 17 20  1  0  0  0  0
 21 22  1  0  0  0  0
 21 43  1  0  0  0  0
 21 44  1  0  0  0  0
 22 45  1  0  0  0  0
 22 46  1  0  0  0  0
 23 24  2  0  0  0  0
 23 47  1  0  0  0  0
M  CHG  1  14   1
M  END
> <s_m_source_file>
AV-unprocessed.smi

> <i_m_source_file_index>
906

> <i_lp_mmshare_version>
43012

> <i_f3d_flags>
0

> <s_epik_input>
W0NIM11jMVtjSF1bY0hdYyhbY0hdbjEpW0NIMl1bQ0gyXVtOSF1DKD1PKU4yW0NIMl1bQ0gyXU4oW0NASF0oW0NIM10pQyhGKShGKUYpW0NIMl1bQ0gyXTI=

> <s_epik_cmdline>
J2VwaWtfcHl0aG9uJywgJy1waCcsICc3LjAnLCAnLXRuJywgJzgnLCAnLW1hJywgJzIwMCcsICctbWV0YWxfYmluZGluZycsICctaW1hZScsICc8aW5maWxlLm1hZT4nLCAnLW9tYWUnLCAnPG91dGZpbGUubWFlPic=

> <r_epik_Ionization_Penalty>
2.02136

> <r_epik_Ionization_Penalty_Charging>
1.96814

> <r_epik_Ionization_Penalty_Neutral>
0.0532286

> <r_epik_State_Penalty>
2.14285

> <r_epik_Charging_Adjusted_Penalty>
4.11098

> <i_epik_Tot_Q>
1

> <i_epik_Tot_abs_Q>
1

> <r_epik_Metal_State_Penalty>
2.1406

> <b_epik_Metal_Only>
0

> <s_lp_Force_Field>
OPLS_2005

> <r_lp_Energy>
51.1917

> <b_lp_Chiralities_Consistent>
1

> <s_lp_Variant>
AV-unprocessed.smi:906-6

> <Gold.Version>
5.8.1

> <Gold.Id.Protein>
6NUR|6NUR_protein|mol2

> <Gold.PLP.Fitness>
45.9110

> <Gold.PLP.PLP>
-38.7334

> <Gold.PLP.part.hbond>
-3.4318

> <Gold.PLP.part.metal>
0.0000

> <Gold.PLP.part.buried>
0.2967

> <Gold.PLP.part.nonpolar>
-37.7503

> <Gold.PLP.part.repulsive>
3.1862

> <Gold.PLP.ligand.clash>
2.2204

> <Gold.PLP.ligand.torsion>
0.7054

> <Gold.PLP.Chemscore.Hbond>
3.3489

> <Gold.PLP.Chemscore.CHOScore>
0.0000

> <Gold.PLP.Chemscore.Metal>
0.0000

> <Gold.Chemscore.Hbonds>
donor molecule, donor type, donor heavy atom, donor atom, acceptor molecule, acceptor atom, score
      L1  H    14    48       P1 10175  2.00
      P1  H  7989  7998       L1    10  0.31
      P1  H  8011  8017       L1    10  0.99

> <Gold.PLP.Chemscore.Internal.Correction>
0.7619

> <Gold.Rescore>
     Score         DG    S(hbond)    S(metal)    S(lipo)     H(rot)  DE(clash)    DE(int)     intcor
     16.18     -20.99       2.24        0.00     103.87       1.62       3.04       1.77       ----

> <Gold.Chemscore.Fitness>
16.1789

> <Gold.Chemscore.DG>
-20.9874

> <Gold.Chemscore.ZeroCoef>
-5.4800

> <Gold.Chemscore.Hbond>
2.2437

> <Gold.Chemscore.Metal>
0.0000

> <Gold.Chemscore.Lipo>
103.8740

> <Gold.Chemscore.Internal_Hbond>
0.0000

> <Gold.Chemscore.DEClash>
3.0404

> <Gold.Chemscore.DEInternal>
1.7681

> <Gold.Chemscore.Rot>
1.6171

> <Gold.Chemscore.Internal.Correction>
   9.000000E+99

> <Gold.Chemscore.Hbonds>
donor molecule, donor type, donor heavy atom, donor atom, acceptor molecule, acceptor atom, score
      L1  H    14    48       P1 10175  0.99
      P1  H  7989  7998       L1    10  0.30
      P1  H  8011  8017       L1    10  0.92

> <Gold.Chemscore.Hbond.Weighted>
-7.4940

> <Gold.Chemscore.Metal.Weighted>
-0.0000

> <Gold.Chemscore.Lipo.Weighted>
-12.1533

> <Gold.Chemscore.Internal_Hbond.Weighted>
0.0000

> <Gold.Chemscore.DEClash.Weighted>
3.0404

> <Gold.Chemscore.DEInternal.Weighted>
1.7681

> <Gold.Chemscore.Rot.Weighted>
4.1398

> <Gold.Chemscore.Internal.Correction.Weighted>
   9.000000E+99

> <Gold.Protein.RotatedTorsions>
[ 6907 6896 6895 6894 ] final   31.58 input  -60.11 | X-H torsion
[ 7974 7965 7964 7962 ] final  102.59 input  175.53 | X-H torsion
[ 8008 7997 7996 7995 ] final  141.52 input   59.86 | X-H torsion
[ 10167 10162 10161 10158 ] final  -96.70 input  -65.29 | X-H torsion
[ 10718 10713 10712 10709 ] final   29.39 input   66.30 | X-H torsion
[ 10763 10752 10751 10750 ] final -169.17 input  -60.55 | X-H torsion
[ 11005 11000 10999 10996 ] final  -25.45 input  -57.11 | X-H torsion

> <Gold.Protein.ActiveResidues>
 VAL166  LYS551  ARG553  GLY616  TRP617  ASP618  TYR619  PRO620  LYS621  CYS622 
 ASP623  PHE694  ASN695  SER759  ASP760  ASP761  ALA762  ILE779  LEU786  VAL792 
 PHE793  MET794  SER795  GLU796  ALA797  LYS798  CYS799  TRP800  GLU811  SER814 

> <Gold.Protein.RotatedAtoms>
  152.0623  134.9587  160.0574 H   0  0  0  0  0  0  0  0  0  0  0  0  # atno 6907 bound_to 6896
  152.0945  133.4213  159.4567 H   0  0  0  0  0  0  0  0  0  0  0  0  # atno 6908 bound_to 6896
  150.6837  134.2752  159.4648 H   0  0  0  0  0  0  0  0  0  0  0  0  # atno 6909 bound_to 6896
  145.3571  139.2426  143.3527 H   0  0  0  0  0  0  0  0  0  0  0  0  # atno 7974 bound_to 7965
  156.2964  140.2313  156.4577 H   0  0  0  0  0  0  0  0  0  0  0  0  # atno 8008 bound_to 7997
  154.8045  140.0446  157.1318 H   0  0  0  0  0  0  0  0  0  0  0  0  # atno 8009 bound_to 7997
  154.9494  140.3040  155.5086 H   0  0  0  0  0  0  0  0  0  0  0  0  # atno 8010 bound_to 7997
  140.2911  143.3221  152.0344 H   0  0  0  0  0  0  0  0  0  0  0  0  # atno 10167 bound_to 10162
  157.2459  130.7091  149.6381 H   0  0  0  0  0  0  0  0  0  0  0  0  # atno 10718 bound_to 10713
  154.6551  135.2917  154.9938 H   0  0  0  0  0  0  0  0  0  0  0  0  # atno 10763 bound_to 10752
  154.1017  135.6575  153.4873 H   0  0  0  0  0  0  0  0  0  0  0  0  # atno 10764 bound_to 10752
  153.0398  135.5244  154.7476 H   0  0  0  0  0  0  0  0  0  0  0  0  # atno 10765 bound_to 10752
  140.8939  133.7569  156.0456 H   0  0  0  0  0  0  0  0  0  0  0  0  # atno 11005 bound_to 11000
  146.2943  140.4198  142.8727 LP  0  0  0  0  0  0  0  0  0  0  0  0  # atno 17320 bound_to 7965
  144.8674  140.7225  143.6068 LP  0  0  0  0  0  0  0  0  0  0  0  0  # atno 17321 bound_to 7965
  139.4938  144.6524  151.6647 LP  0  0  0  0  0  0  0  0  0  0  0  0  # atno 17342 bound_to 10162
  140.5731  144.0075  150.6227 LP  0  0  0  0  0  0  0  0  0  0  0  0  # atno 17343 bound_to 10162
  155.9668  130.4443  150.5456 LP  0  0  0  0  0  0  0  0  0  0  0  0  # atno 17370 bound_to 10713
  157.3329  131.0703  151.1847 LP  0  0  0  0  0  0  0  0  0  0  0  0  # atno 17371 bound_to 10713
  140.8313  134.3175  157.5348 LP  0  0  0  0  0  0  0  0  0  0  0  0  # atno 17394 bound_to 11000
  139.8733  134.9365  156.3661 LP  0  0  0  0  0  0  0  0  0  0  0  0  # atno 17395 bound_to 11000

$$$$
