AV-unprocessed.smi:2926|AV-procd|sdf|11226|dock10
  -GOLD-   2272016113D 1   1.00000     0.00000
 Structure written by MMmdl.
 32 32  0  0  0  0  0  0  0  0  1 V2000
  149.1904  141.3759  154.5585 C   0  0  0  0  0  0  0  0  0  0  0  0
  148.0849  140.8725  153.6087 C   0  0  0  0  0  0  0  0  0  0  0  0
  146.8005  141.6798  153.8769 C   0  0  0  0  0  0  0  0  0  0  0  0
  147.8713  139.3376  153.7299 C   0  0  1  0  0  0  0  0  0  0  0  0
  146.8668  138.7578  152.7102 C   0  0  0  0  0  0  0  0  0  0  0  0
  147.3849  138.8589  151.4005 O   0  0  0  0  0  0  0  0  0  0  0  0
  149.1584  138.6606  153.5235 N   0  0  0  0  0  0  0  0  0  0  0  0
  150.0320  138.0924  154.8995 S   0  0  0  0  0  0  0  0  0  0  0  0
  149.2676  138.4588  156.1021 O   0  0  0  0  0  0  0  0  0  0  0  0
  150.3847  136.6859  154.6531 O   0  0  0  0  0  0  0  0  0  0  0  0
  151.5623  139.1168  154.8469 C   0  0  0  0  0  0  0  0  0  0  0  0
  151.7931  139.7520  156.1890 C   0  0  0  0  0  0  0  0  0  0  0  0
  150.9240  140.6026  156.9274 C   0  0  0  0  0  0  0  0  0  0  0  0
  151.6335  140.8770  158.0609 C   0  0  0  0  0  0  0  0  0  0  0  0
  152.8357  140.2484  158.0328 O   0  0  0  0  0  0  0  0  0  0  0  0
  152.9275  139.5311  156.8346 N   0  0  0  0  0  0  0  0  0  0  0  0
  147.5081  139.1283  154.7376 H   0  0  0  0  0  0  0  0  0  0  0  0
  148.9497  141.1521  155.5984 H   0  0  0  0  0  0  0  0  0  0  0  0
  149.3213  142.4551  154.4743 H   0  0  0  0  0  0  0  0  0  0  0  0
  150.1572  140.9235  154.3367 H   0  0  0  0  0  0  0  0  0  0  0  0
  148.4035  141.0945  152.5891 H   0  0  0  0  0  0  0  0  0  0  0  0
  146.3651  141.4215  154.8427 H   0  0  0  0  0  0  0  0  0  0  0  0
  146.0440  141.5182  153.1103 H   0  0  0  0  0  0  0  0  0  0  0  0
  147.0053  142.7508  153.8843 H   0  0  0  0  0  0  0  0  0  0  0  0
  146.6874  137.6982  152.8801 H   0  0  0  0  0  0  0  0  0  0  0  0
  145.8998  139.2587  152.7713 H   0  0  0  0  0  0  0  0  0  0  0  0
  148.0030  139.5730  151.3749 H   0  0  0  0  0  0  0  0  0  0  0  0
  149.0737  137.9295  152.8176 H   0  0  0  0  0  0  0  0  0  0  0  0
  152.3983  138.4763  154.5677 H   0  0  0  0  0  0  0  0  0  0  0  0
  151.4416  139.8680  154.0655 H   0  0  0  0  0  0  0  0  0  0  0  0
  149.9390  140.9587  156.6640 H   0  0  0  0  0  0  0  0  0  0  0  0
  151.4295  141.4727  158.9381 H   0  0  0  0  0  0  0  0  0  0  0  0
  1  2  1  0  0  0  0
  1 18  1  0  0  0  0
  1 19  1  0  0  0  0
  1 20  1  0  0  0  0
  2  3  1  0  0  0  0
  2  4  1  0  0  0  0
  2 21  1  0  0  0  0
  3 22  1  0  0  0  0
  3 23  1  0  0  0  0
  3 24  1  0  0  0  0
  4 17  1  0  0  0  0
  4  5  1  0  0  0  0
  4  7  1  0  0  0  0
  5  6  1  0  0  0  0
  5 25  1  0  0  0  0
  5 26  1  0  0  0  0
  6 27  1  0  0  0  0
  7  8  1  0  0  0  0
  7 28  1  0  0  0  0
  8  9  2  0  0  0  0
  8 10  2  0  0  0  0
  8 11  1  0  0  0  0
 11 12  1  0  0  0  0
 11 29  1  0  0  0  0
 11 30  1  0  0  0  0
 12 16  2  0  0  0  0
 12 13  1  0  0  0  0
 13 14  2  0  0  0  0
 13 31  1  0  0  0  0
 14 15  1  0  0  0  0
 14 32  1  0  0  0  0
 15 16  1  0  0  0  0
M  END
> <s_m_source_file>
AV-unprocessed.smi

> <i_m_source_file_index>
2926

> <i_lp_mmshare_version>
43012

> <i_f3d_flags>
0

> <s_epik_input>
W0NIM11bQ0hdKFtDSDNdKVtDQEBIXShbQ0gyXVtPSF0pW05IXVMoPU8pKD1PKVtDSDJdYzFbY0hdW2NIXW9uMQ==

> <s_epik_cmdline>
J2VwaWtfcHl0aG9uJywgJy1waCcsICc3LjAnLCAnLXRuJywgJzgnLCAnLW1hJywgJzIwMCcsICctbWV0YWxfYmluZGluZycsICctaW1hZScsICc8aW5maWxlLm1hZT4nLCAnLW9tYWUnLCAnPG91dGZpbGUubWFlPic=

> <r_lp_tautomer_probability>
1

> <r_epik_Ionization_Penalty>
0.000193122

> <r_epik_Ionization_Penalty_Charging>
0

> <r_epik_Ionization_Penalty_Neutral>
0.000193122

> <r_epik_State_Penalty>
-0

> <r_epik_Charging_Adjusted_Penalty>
0

> <i_epik_Tot_Q>
0

> <i_epik_Tot_abs_Q>
0

> <r_epik_Metal_State_Penalty>
0.130256

> <b_epik_Metal_Only>
0

> <s_lp_Force_Field>
OPLS_2005

> <r_lp_Energy>
6.6882

> <b_lp_Chiralities_Consistent>
1

> <s_lp_Variant>
AV-unprocessed.smi:2926-1

> <Gold.Version>
5.8.1

> <Gold.Id.Protein>
6NUR|6NUR_protein|mol2

> <Gold.PLP.Fitness>
41.1360

> <Gold.PLP.PLP>
-31.7788

> <Gold.PLP.part.hbond>
-6.8042

> <Gold.PLP.part.metal>
0.0000

> <Gold.PLP.part.buried>
-0.0818

> <Gold.PLP.part.nonpolar>
-23.9450

> <Gold.PLP.part.repulsive>
0.1942

> <Gold.PLP.ligand.clash>
0.0000

> <Gold.PLP.ligand.torsion>
0.8458

> <Gold.PLP.Chemscore.Hbond>
3.6160

> <Gold.PLP.Chemscore.CHOScore>
0.0000

> <Gold.PLP.Chemscore.Metal>
0.0000

> <Gold.Chemscore.Hbonds>
donor molecule, donor type, donor heavy atom, donor atom, acceptor molecule, acceptor atom, score
      L1  H     6    27       P1  7957  0.93
      L1  H     7    28       P1  7948  1.00
      P1  H  7954  7966       L1     6  0.67
      P1  H  7997  8009       L1    16  0.95

> <Gold.PLP.Chemscore.Internal.Correction>
0.2007

> <Gold.Rescore>
     Score         DG    S(hbond)    S(metal)    S(lipo)     H(rot)  DE(clash)    DE(int)     intcor
     11.64     -14.07       2.83        0.00      57.43       2.96       0.01       2.41       ----

> <Gold.Chemscore.Fitness>
11.6420

> <Gold.Chemscore.DG>
-14.0705

> <Gold.Chemscore.ZeroCoef>
-5.4800

> <Gold.Chemscore.Hbond>
2.8263

> <Gold.Chemscore.Metal>
0.0000

> <Gold.Chemscore.Lipo>
57.4300

> <Gold.Chemscore.Internal_Hbond>
0.0000

> <Gold.Chemscore.DEClash>
0.0149

> <Gold.Chemscore.DEInternal>
2.4137

> <Gold.Chemscore.Rot>
2.9564

> <Gold.Chemscore.Internal.Correction>
   9.000000E+99

> <Gold.Chemscore.Hbonds>
donor molecule, donor type, donor heavy atom, donor atom, acceptor molecule, acceptor atom, score
      L1  H     6    27       P1  7957  0.86
      L1  H     7    28       P1  7948  0.99
      P1  H  7954  7966       L1     6  0.08
      P1  H  7997  8009       L1    16  0.20

> <Gold.Chemscore.Hbond.Weighted>
-9.4397

> <Gold.Chemscore.Metal.Weighted>
-0.0000

> <Gold.Chemscore.Lipo.Weighted>
-6.7193

> <Gold.Chemscore.Internal_Hbond.Weighted>
0.0000

> <Gold.Chemscore.DEClash.Weighted>
0.0149

> <Gold.Chemscore.DEInternal.Weighted>
2.4137

> <Gold.Chemscore.Rot.Weighted>
7.5685

> <Gold.Chemscore.Internal.Correction.Weighted>
   9.000000E+99

> <Gold.Protein.RotatedTorsions>
[ 6907 6896 6895 6894 ] final -168.84 input  -60.11 | X-H torsion
[ 7974 7965 7964 7962 ] final -101.36 input  175.53 | X-H torsion
[ 8008 7997 7996 7995 ] final -157.90 input   59.86 | X-H torsion
[ 10167 10162 10161 10158 ] final  155.85 input  -65.29 | X-H torsion
[ 10718 10713 10712 10709 ] final   99.43 input   66.30 | X-H torsion
[ 10763 10752 10751 10750 ] final  136.50 input  -60.55 | X-H torsion
[ 11005 11000 10999 10996 ] final   17.58 input  -57.11 | X-H torsion

> <Gold.Protein.ActiveResidues>
 VAL166  LYS551  ARG553  GLY616  TRP617  ASP618  TYR619  PRO620  LYS621  CYS622 
 ASP623  PHE694  ASN695  SER759  ASP760  ASP761  ALA762  ILE779  LEU786  VAL792 
 PHE793  MET794  SER795  GLU796  ALA797  LYS798  CYS799  TRP800  GLU811  SER814 

> <Gold.Protein.RotatedAtoms>
  151.4820  133.3544  159.2839 H   0  0  0  0  0  0  0  0  0  0  0  0  # atno 6907 bound_to 6896
  150.8891  134.8295  159.7291 H   0  0  0  0  0  0  0  0  0  0  0  0  # atno 6908 bound_to 6896
  152.4812  134.4727  159.9692 H   0  0  0  0  0  0  0  0  0  0  0  0  # atno 6909 bound_to 6896
  145.2826  140.9330  143.2923 H   0  0  0  0  0  0  0  0  0  0  0  0  # atno 7974 bound_to 7965
  155.7394  140.0812  157.2252 H   0  0  0  0  0  0  0  0  0  0  0  0  # atno 8008 bound_to 7997
  154.4023  140.1580  156.2654 H   0  0  0  0  0  0  0  0  0  0  0  0  # atno 8009 bound_to 7997
  155.9034  140.3408  155.6046 H   0  0  0  0  0  0  0  0  0  0  0  0  # atno 8010 bound_to 7997
  139.4821  144.5061  151.8095 H   0  0  0  0  0  0  0  0  0  0  0  0  # atno 10167 bound_to 10162
  157.6876  131.0669  150.4947 H   0  0  0  0  0  0  0  0  0  0  0  0  # atno 10718 bound_to 10713
  153.8575  135.3071  155.3436 H   0  0  0  0  0  0  0  0  0  0  0  0  # atno 10763 bound_to 10752
  154.7863  135.4807  153.9957 H   0  0  0  0  0  0  0  0  0  0  0  0  # atno 10764 bound_to 10752
  153.1481  135.6837  153.9018 H   0  0  0  0  0  0  0  0  0  0  0  0  # atno 10765 bound_to 10752
  140.4344  134.1387  155.7684 H   0  0  0  0  0  0  0  0  0  0  0  0  # atno 11005 bound_to 11000
  144.9240  139.4377  143.6527 LP  0  0  0  0  0  0  0  0  0  0  0  0  # atno 17320 bound_to 7965
  146.3211  139.8116  142.8944 LP  0  0  0  0  0  0  0  0  0  0  0  0  # atno 17321 bound_to 7965
  140.4559  144.1790  150.5901 LP  0  0  0  0  0  0  0  0  0  0  0  0  # atno 17342 bound_to 10162
  140.4536  143.2477  151.9315 LP  0  0  0  0  0  0  0  0  0  0  0  0  # atno 17343 bound_to 10162
  156.5271  130.4176  149.6220 LP  0  0  0  0  0  0  0  0  0  0  0  0  # atno 17370 bound_to 10713
  156.3102  130.7225  151.2116 LP  0  0  0  0  0  0  0  0  0  0  0  0  # atno 17371 bound_to 10713
  141.1732  133.8567  157.1505 LP  0  0  0  0  0  0  0  0  0  0  0  0  # atno 17394 bound_to 11000
  140.0112  134.9987  157.0400 LP  0  0  0  0  0  0  0  0  0  0  0  0  # atno 17395 bound_to 11000

$$$$
