AV-unprocessed.smi:2476|AV-procd|sdf|9758|dock5
  -GOLD-   2272013403D 1   1.00000     0.00000
 Structure written by MMmdl.
 34 35  0  0  0  0  0  0  0  0  1 V2000
  148.2023  141.7003  154.1361 C   0  0  0  0  0  0  0  0  0  0  0  0
  149.1127  140.7814  154.9441 C   0  0  0  0  0  0  0  0  0  0  0  0
  150.1944  140.4256  154.4780 O   0  0  0  0  0  0  0  0  0  0  0  0
  148.6652  140.4039  156.1512 N   0  0  0  0  0  0  0  0  0  0  0  0
  149.3850  139.5379  157.0794 C   0  0  0  0  0  0  0  0  0  0  0  0
  150.7693  140.0977  157.4555 C   0  0  1  0  0  0  0  0  0  0  0  0
  150.6908  141.3377  158.3720 C   0  0  0  0  0  0  0  0  0  0  0  0
  152.0296  141.7539  158.7701 N   0  0  0  0  0  0  0  0  0  0  0  0
  152.0517  142.9498  159.5031 C   0  0  0  0  0  0  0  0  0  0  0  0
  152.2041  142.8744  160.8481 N   0  0  0  0  0  0  0  0  0  0  0  0
  152.2287  144.0245  161.5555 C   0  0  0  0  0  0  0  0  0  0  0  0
  152.1033  145.2978  160.9662 C   0  0  0  0  0  0  0  0  0  0  0  0
  151.9437  145.3746  159.5695 C   0  0  0  0  0  0  0  0  0  0  0  0
  151.9171  144.1806  158.8229 C   0  0  0  0  0  0  0  0  0  0  0  0
  151.7656  144.2199  157.4770 F   0  0  0  0  0  0  0  0  0  0  0  0
  152.7873  140.6755  159.3910 C   0  0  0  0  0  0  0  0  0  0  0  0
  152.8185  139.4540  158.4579 C   0  0  0  0  0  0  0  0  0  0  0  0
  151.4855  139.0681  158.1348 O   0  0  0  0  0  0  0  0  0  0  0  0
  147.4799  142.2081  154.7763 H   0  0  0  0  0  0  0  0  0  0  0  0
  147.6559  141.1256  153.3882 H   0  0  0  0  0  0  0  0  0  0  0  0
  148.7916  142.4597  153.6216 H   0  0  0  0  0  0  0  0  0  0  0  0
  147.7619  140.7422  156.4498 H   0  0  0  0  0  0  0  0  0  0  0  0
  148.7760  139.4226  157.9765 H   0  0  0  0  0  0  0  0  0  0  0  0
  149.4869  138.5406  156.6481 H   0  0  0  0  0  0  0  0  0  0  0  0
  151.3094  140.3524  156.5416 H   0  0  0  0  0  0  0  0  0  0  0  0
  150.1961  142.1611  157.8554 H   0  0  0  0  0  0  0  0  0  0  0  0
  150.0975  141.1082  159.2583 H   0  0  0  0  0  0  0  0  0  0  0  0
  152.3531  143.9271  162.6240 H   0  0  0  0  0  0  0  0  0  0  0  0
  152.1289  146.1924  161.5706 H   0  0  0  0  0  0  0  0  0  0  0  0
  151.8441  146.3319  159.0797 H   0  0  0  0  0  0  0  0  0  0  0  0
  153.8028  141.0112  159.6043 H   0  0  0  0  0  0  0  0  0  0  0  0
  152.3293  140.4023  160.3428 H   0  0  0  0  0  0  0  0  0  0  0  0
  153.3773  139.6736  157.5466 H   0  0  0  0  0  0  0  0  0  0  0  0
  153.3211  138.6200  158.9473 H   0  0  0  0  0  0  0  0  0  0  0  0
  1  2  1  0  0  0  0
  1 19  1  0  0  0  0
  1 20  1  0  0  0  0
  1 21  1  0  0  0  0
  2  3  2  0  0  0  0
  2  4  1  0  0  0  0
  4  5  1  0  0  0  0
  4 22  1  0  0  0  0
  5  6  1  0  0  0  0
  5 23  1  0  0  0  0
  5 24  1  0  0  0  0
  6 18  1  0  0  0  0
  6  7  1  0  0  0  0
  6 25  1  0  0  0  0
  7  8  1  0  0  0  0
  7 26  1  0  0  0  0
  7 27  1  0  0  0  0
  8  9  1  0  0  0  0
  8 16  1  0  0  0  0
  9 14  1  0  0  0  0
  9 10  2  0  0  0  0
 10 11  1  0  0  0  0
 11 12  2  0  0  0  0
 11 28  1  0  0  0  0
 12 13  1  0  0  0  0
 12 29  1  0  0  0  0
 13 14  2  0  0  0  0
 13 30  1  0  0  0  0
 14 15  1  0  0  0  0
 16 17  1  0  0  0  0
 16 31  1  0  0  0  0
 16 32  1  0  0  0  0
 17 18  1  0  0  0  0
 17 33  1  0  0  0  0
 17 34  1  0  0  0  0
M  END
> <s_m_source_file>
AV-unprocessed.smi

> <i_m_source_file_index>
2476

> <i_lp_mmshare_version>
43012

> <i_f3d_flags>
0

> <s_epik_input>
W0NIM11DKD1PKVtOSF1bQ0gyXVtDQEBIXTFbQ0gyXU4oW0NIMl1bQ0gyXU8xKWMybltjSF1bY0hdW2NIXWMyRg==

> <s_epik_cmdline>
J2VwaWtfcHl0aG9uJywgJy1waCcsICc3LjAnLCAnLXRuJywgJzgnLCAnLW1hJywgJzIwMCcsICctbWV0YWxfYmluZGluZycsICctaW1hZScsICc8aW5maWxlLm1hZT4nLCAnLW9tYWUnLCAnPG91dGZpbGUubWFlPic=

> <r_lp_tautomer_probability>
1

> <r_epik_Ionization_Penalty>
1.69306e-05

> <r_epik_Ionization_Penalty_Charging>
0

> <r_epik_Ionization_Penalty_Neutral>
1.69306e-05

> <r_epik_State_Penalty>
-0

> <r_epik_Charging_Adjusted_Penalty>
0

> <i_epik_Tot_Q>
0

> <i_epik_Tot_abs_Q>
0

> <r_epik_Metal_State_Penalty>
-0

> <b_epik_Metal_Only>
0

> <s_lp_Force_Field>
OPLS_2005

> <r_lp_Energy>
19.3351

> <b_lp_Chiralities_Consistent>
1

> <s_lp_Variant>
AV-unprocessed.smi:2476-2

> <Gold.Version>
5.8.1

> <Gold.Id.Protein>
6NUR|6NUR_protein|mol2

> <Gold.PLP.Fitness>
39.5175

> <Gold.PLP.PLP>
-37.8039

> <Gold.PLP.part.hbond>
-1.0000

> <Gold.PLP.part.metal>
0.0000

> <Gold.PLP.part.buried>
-4.6003

> <Gold.PLP.part.nonpolar>
-32.8470

> <Gold.PLP.part.repulsive>
0.1716

> <Gold.PLP.ligand.clash>
0.0000

> <Gold.PLP.ligand.torsion>
0.6846

> <Gold.PLP.Chemscore.Hbond>
0.9920

> <Gold.PLP.Chemscore.CHOScore>
0.0000

> <Gold.PLP.Chemscore.Metal>
0.0000

> <Gold.Chemscore.Hbonds>
donor molecule, donor type, donor heavy atom, donor atom, acceptor molecule, acceptor atom, score
      P1  H  7989  7998       L1     3  0.94

> <Gold.PLP.Chemscore.Internal.Correction>
0.1068

> <Gold.Rescore>
     Score         DG    S(hbond)    S(metal)    S(lipo)     H(rot)  DE(clash)    DE(int)     intcor
     12.22     -14.30       1.00        0.00      82.12       1.61       0.10       1.99       ----

> <Gold.Chemscore.Fitness>
12.2172

> <Gold.Chemscore.DG>
-14.3046

> <Gold.Chemscore.ZeroCoef>
-5.4800

> <Gold.Chemscore.Hbond>
0.9978

> <Gold.Chemscore.Metal>
0.0000

> <Gold.Chemscore.Lipo>
82.1172

> <Gold.Chemscore.Internal_Hbond>
0.0000

> <Gold.Chemscore.DEClash>
0.0958

> <Gold.Chemscore.DEInternal>
1.9916

> <Gold.Chemscore.Rot>
1.6078

> <Gold.Chemscore.Internal.Correction>
   9.000000E+99

> <Gold.Chemscore.Hbonds>
donor molecule, donor type, donor heavy atom, donor atom, acceptor molecule, acceptor atom, score
      P1  H  7989  7998       L1     3  0.91

> <Gold.Chemscore.Hbond.Weighted>
-3.3327

> <Gold.Chemscore.Metal.Weighted>
-0.0000

> <Gold.Chemscore.Lipo.Weighted>
-9.6077

> <Gold.Chemscore.Internal_Hbond.Weighted>
0.0000

> <Gold.Chemscore.DEClash.Weighted>
0.0958

> <Gold.Chemscore.DEInternal.Weighted>
1.9916

> <Gold.Chemscore.Rot.Weighted>
4.1159

> <Gold.Chemscore.Internal.Correction.Weighted>
   9.000000E+99

> <Gold.Protein.RotatedTorsions>
[ 6907 6896 6895 6894 ] final   91.92 input  -60.11 | X-H torsion
[ 7974 7965 7964 7962 ] final  151.11 input  175.53 | X-H torsion
[ 8008 7997 7996 7995 ] final  129.97 input   59.86 | X-H torsion
[ 10167 10162 10161 10158 ] final   46.64 input  -65.29 | X-H torsion
[ 10718 10713 10712 10709 ] final  -16.41 input   66.30 | X-H torsion
[ 10763 10752 10751 10750 ] final -160.51 input  -60.55 | X-H torsion
[ 11005 11000 10999 10996 ] final  -43.54 input  -57.11 | X-H torsion

> <Gold.Protein.ActiveResidues>
 VAL166  LYS551  ARG553  GLY616  TRP617  ASP618  TYR619  PRO620  LYS621  CYS622 
 ASP623  PHE694  ASN695  SER759  ASP760  ASP761  ALA762  ILE779  LEU786  VAL792 
 PHE793  MET794  SER795  GLU796  ALA797  LYS798  CYS799  TRP800  GLU811  SER814 

> <Gold.Protein.RotatedAtoms>
  152.5451  134.1583  159.8546 H   0  0  0  0  0  0  0  0  0  0  0  0  # atno 6907 bound_to 6896
  151.1603  133.4842  159.2602 H   0  0  0  0  0  0  0  0  0  0  0  0  # atno 6908 bound_to 6896
  151.1380  135.0175  159.8667 H   0  0  0  0  0  0  0  0  0  0  0  0  # atno 6909 bound_to 6896
  144.8315  139.6496  143.6056 H   0  0  0  0  0  0  0  0  0  0  0  0  # atno 7974 bound_to 7965
  156.2946  140.2607  156.2685 H   0  0  0  0  0  0  0  0  0  0  0  0  # atno 8008 bound_to 7997
  154.9718  140.0391  157.2256 H   0  0  0  0  0  0  0  0  0  0  0  0  # atno 8009 bound_to 7997
  154.7852  140.2802  155.6038 H   0  0  0  0  0  0  0  0  0  0  0  0  # atno 8010 bound_to 7997
  140.3118  144.2811  150.6198 H   0  0  0  0  0  0  0  0  0  0  0  0  # atno 10167 bound_to 10162
  156.5880  130.4791  149.6291 H   0  0  0  0  0  0  0  0  0  0  0  0  # atno 10718 bound_to 10713
  154.7384  135.3063  154.8771 H   0  0  0  0  0  0  0  0  0  0  0  0  # atno 10763 bound_to 10752
  153.9593  135.6755  153.4749 H   0  0  0  0  0  0  0  0  0  0  0  0  # atno 10764 bound_to 10752
  153.0985  135.4924  154.8746 H   0  0  0  0  0  0  0  0  0  0  0  0  # atno 10765 bound_to 10752
  141.0390  133.6787  156.2747 H   0  0  0  0  0  0  0  0  0  0  0  0  # atno 11005 bound_to 11000
  146.2618  139.6428  142.9357 LP  0  0  0  0  0  0  0  0  0  0  0  0  # atno 17320 bound_to 7965
  145.4885  141.0438  143.2606 LP  0  0  0  0  0  0  0  0  0  0  0  0  # atno 17321 bound_to 7965
  140.5561  143.2199  151.7844 LP  0  0  0  0  0  0  0  0  0  0  0  0  # atno 17342 bound_to 10162
  139.4892  144.4411  151.9763 LP  0  0  0  0  0  0  0  0  0  0  0  0  # atno 17343 bound_to 10162
  156.2574  130.6942  151.1700 LP  0  0  0  0  0  0  0  0  0  0  0  0  # atno 17370 bound_to 10713
  157.7310  131.0611  150.5696 LP  0  0  0  0  0  0  0  0  0  0  0  0  # atno 17371 bound_to 10713
  140.6268  134.5304  157.5555 LP  0  0  0  0  0  0  0  0  0  0  0  0  # atno 17394 bound_to 11000
  139.9262  134.8052  156.1062 LP  0  0  0  0  0  0  0  0  0  0  0  0  # atno 17395 bound_to 11000

$$$$
