AV-unprocessed.smi:1419|AV-procd|sdf|5784|dock3
  -GOLD-   22720 5433D 1   1.00000     0.00000
 Structure written by MMmdl.
 41 42  0  0  0  0  0  0  0  0  1 V2000
  153.8373  140.5294  161.4854 C   0  0  0  0  0  0  0  0  0  0  0  0
  153.3610  141.4644  160.3655 C   0  0  2  0  0  0  0  0  0  0  0  0
  152.7110  142.7404  160.9419 C   0  0  0  0  0  0  0  0  0  0  0  0
  152.1509  143.6022  159.9166 N   0  0  0  0  0  0  0  0  0  0  0  0
  150.9624  144.3183  159.9777 C   0  0  0  0  0  0  0  0  0  0  0  0
  150.8473  144.9923  158.7831 C   0  0  0  0  0  0  0  0  0  0  0  0
  151.9378  144.6939  157.9695 N   0  0  0  0  0  0  0  0  0  0  0  0
  152.6614  143.8602  158.7049 C   0  0  0  0  0  0  0  0  0  0  0  0
  152.4207  140.7391  159.5121 N   0  0  0  0  0  0  0  0  0  0  0  0
  152.7385  139.8099  158.5932 C   0  0  0  0  0  0  0  0  0  0  0  0
  153.9012  139.4627  158.3828 O   0  0  0  0  0  0  0  0  0  0  0  0
  151.6817  139.3130  157.9044 N   0  0  0  0  0  0  0  0  0  0  0  0
  150.2865  139.7686  157.9711 C   0  0  0  0  0  0  0  0  0  0  0  0
  149.8989  140.4055  156.6205 C   0  0  1  0  0  0  0  0  0  0  0  0
  150.5746  141.7622  156.3549 C   0  0  0  0  0  0  0  0  0  0  0  0
  150.1522  139.4789  155.5592 O   0  0  0  0  0  0  0  0  0  0  0  0
  151.4759  138.9390  155.5074 C   0  0  2  0  0  0  0  0  0  0  0  0
  151.5293  137.9279  154.3570 C   0  0  0  0  0  0  0  0  0  0  0  0
  151.8238  138.2937  156.8631 C   0  0  0  0  0  0  0  0  0  0  0  0
  154.5650  141.0266  162.1273 H   0  0  0  0  0  0  0  0  0  0  0  0
  154.3147  139.6376  161.0777 H   0  0  0  0  0  0  0  0  0  0  0  0
  153.0067  140.2056  162.1139 H   0  0  0  0  0  0  0  0  0  0  0  0
  154.2429  141.7481  159.7887 H   0  0  0  0  0  0  0  0  0  0  0  0
  151.9259  142.4807  161.6539 H   0  0  0  0  0  0  0  0  0  0  0  0
  153.4518  143.3216  161.4924 H   0  0  0  0  0  0  0  0  0  0  0  0
  150.3211  144.2988  160.8464 H   0  0  0  0  0  0  0  0  0  0  0  0
  150.0677  145.6603  158.4479 H   0  0  0  0  0  0  0  0  0  0  0  0
  153.5883  143.4308  158.3546 H   0  0  0  0  0  0  0  0  0  0  0  0
  151.4441  140.9717  159.6186 H   0  0  0  0  0  0  0  0  0  0  0  0
  149.6482  138.9053  158.1649 H   0  0  0  0  0  0  0  0  0  0  0  0
  150.0812  140.4631  158.7855 H   0  0  0  0  0  0  0  0  0  0  0  0
  148.8224  140.5787  156.6278 H   0  0  0  0  0  0  0  0  0  0  0  0
  150.3112  142.4848  157.1277 H   0  0  0  0  0  0  0  0  0  0  0  0
  150.2568  142.1728  155.3965 H   0  0  0  0  0  0  0  0  0  0  0  0
  151.6605  141.6854  156.3385 H   0  0  0  0  0  0  0  0  0  0  0  0
  152.1870  139.7367  155.2900 H   0  0  0  0  0  0  0  0  0  0  0  0
  152.5232  137.4894  154.2656 H   0  0  0  0  0  0  0  0  0  0  0  0
  151.2888  138.4061  153.4072 H   0  0  0  0  0  0  0  0  0  0  0  0
  150.8178  137.1163  154.5112 H   0  0  0  0  0  0  0  0  0  0  0  0
  152.8269  137.8668  156.8243 H   0  0  0  0  0  0  0  0  0  0  0  0
  151.1511  137.4611  157.0743 H   0  0  0  0  0  0  0  0  0  0  0  0
  1  2  1  0  0  0  0
  1 20  1  0  0  0  0
  1 21  1  0  0  0  0
  1 22  1  0  0  0  0
  2  3  1  0  0  0  0
  2  9  1  0  0  0  0
  2 23  1  0  0  0  0
  3  4  1  0  0  0  0
  3 24  1  0  0  0  0
  3 25  1  0  0  0  0
  4  8  1  0  0  0  0
  4  5  1  0  0  0  0
  5  6  2  0  0  0  0
  5 26  1  0  0  0  0
  6  7  1  0  0  0  0
  6 27  1  0  0  0  0
  7  8  2  0  0  0  0
  8 28  1  0  0  0  0
  9 10  1  0  0  0  0
  9 29  1  0  0  0  0
 10 11  2  0  0  0  0
 10 12  1  0  0  0  0
 12 19  1  0  0  0  0
 12 13  1  0  0  0  0
 13 14  1  0  0  0  0
 13 30  1  0  0  0  0
 13 31  1  0  0  0  0
 14 15  1  0  0  0  0
 14 16  1  0  0  0  0
 14 32  1  0  0  0  0
 15 33  1  0  0  0  0
 15 34  1  0  0  0  0
 15 35  1  0  0  0  0
 16 17  1  0  0  0  0
 17 18  1  0  0  0  0
 17 19  1  0  0  0  0
 17 36  1  0  0  0  0
 18 37  1  0  0  0  0
 18 38  1  0  0  0  0
 18 39  1  0  0  0  0
 19 40  1  0  0  0  0
 19 41  1  0  0  0  0
M  END
> <s_m_source_file>
AV-unprocessed.smi

> <i_m_source_file_index>
1419

> <i_lp_mmshare_version>
43012

> <i_f3d_flags>
0

> <s_epik_input>
W2NIXTFuW2NIXVtjSF1uMVtDSDJdW0NAQEhdKFtDSDNdKVtOSF1DKD1PKU4yW0NIMl1bQ0BASF0oW0NIM10pT1tDQEBIXShbQ0gzXSlbQ0gyXTI=

> <s_epik_cmdline>
J2VwaWtfcHl0aG9uJywgJy1waCcsICc3LjAnLCAnLXRuJywgJzgnLCAnLW1hJywgJzIwMCcsICctbWV0YWxfYmluZGluZycsICctaW1hZScsICc8aW5maWxlLm1hZT4nLCAnLW9tYWUnLCAnPG91dGZpbGUubWFlPic=

> <r_lp_tautomer_probability>
1

> <r_epik_Ionization_Penalty>
0.625124

> <r_epik_Ionization_Penalty_Charging>
0.625093

> <r_epik_Ionization_Penalty_Neutral>
3.17415e-05

> <r_epik_State_Penalty>
0.641455

> <r_epik_Charging_Adjusted_Penalty>
1.26655

> <i_epik_Tot_Q>
0

> <i_epik_Tot_abs_Q>
0

> <r_epik_Metal_State_Penalty>
0.307717

> <b_epik_Metal_Only>
0

> <s_lp_Force_Field>
OPLS_2005

> <r_lp_Energy>
30.2714

> <b_lp_Chiralities_Consistent>
1

> <s_lp_Variant>
AV-unprocessed.smi:1419-11

> <Gold.Version>
5.8.1

> <Gold.Id.Protein>
6NUR|6NUR_protein|mol2

> <Gold.PLP.Fitness>
45.8118

> <Gold.PLP.PLP>
-40.9291

> <Gold.PLP.part.hbond>
-0.8238

> <Gold.PLP.part.metal>
0.0000

> <Gold.PLP.part.buried>
-4.6939

> <Gold.PLP.part.nonpolar>
-36.0435

> <Gold.PLP.part.repulsive>
0.2452

> <Gold.PLP.ligand.clash>
0.0000

> <Gold.PLP.ligand.torsion>
0.5540

> <Gold.PLP.Chemscore.Hbond>
0.9913

> <Gold.PLP.Chemscore.CHOScore>
1.0000

> <Gold.PLP.Chemscore.Metal>
0.0000

> <Gold.Chemscore.Hbonds>
donor molecule, donor type, donor heavy atom, donor atom, acceptor molecule, acceptor atom, score
      P1  H  7997  8008       L1    11  1.00
      L1  C     6    27       P1  8029  1.00

> <Gold.PLP.Chemscore.Internal.Correction>
0.0170

> <Gold.Rescore>
     Score         DG    S(hbond)    S(metal)    S(lipo)     H(rot)  DE(clash)    DE(int)     intcor
     14.64     -15.27       0.98        0.00      90.30       1.58       0.01       0.62       ----

> <Gold.Chemscore.Fitness>
14.6408

> <Gold.Chemscore.DG>
-15.2708

> <Gold.Chemscore.ZeroCoef>
-5.4800

> <Gold.Chemscore.Hbond>
0.9768

> <Gold.Chemscore.Metal>
0.0000

> <Gold.Chemscore.Lipo>
90.3012

> <Gold.Chemscore.Internal_Hbond>
0.0000

> <Gold.Chemscore.DEClash>
0.0076

> <Gold.Chemscore.DEInternal>
0.6225

> <Gold.Chemscore.Rot>
1.5769

> <Gold.Chemscore.Internal.Correction>
   9.000000E+99

> <Gold.Chemscore.Hbonds>
donor molecule, donor type, donor heavy atom, donor atom, acceptor molecule, acceptor atom, score
      P1  H  7997  8008       L1    11  0.96

> <Gold.Chemscore.Hbond.Weighted>
-3.2625

> <Gold.Chemscore.Metal.Weighted>
-0.0000

> <Gold.Chemscore.Lipo.Weighted>
-10.5652

> <Gold.Chemscore.Internal_Hbond.Weighted>
0.0000

> <Gold.Chemscore.DEClash.Weighted>
0.0076

> <Gold.Chemscore.DEInternal.Weighted>
0.6225

> <Gold.Chemscore.Rot.Weighted>
4.0369

> <Gold.Chemscore.Internal.Correction.Weighted>
   9.000000E+99

> <Gold.Protein.RotatedTorsions>
[ 6907 6896 6895 6894 ] final -116.39 input  -60.11 | X-H torsion
[ 7974 7965 7964 7962 ] final  130.98 input  175.53 | X-H torsion
[ 8008 7997 7996 7995 ] final -116.45 input   59.86 | X-H torsion
[ 10167 10162 10161 10158 ] final  165.01 input  -65.29 | X-H torsion
[ 10718 10713 10712 10709 ] final  -79.68 input   66.30 | X-H torsion
[ 10763 10752 10751 10750 ] final  176.57 input  -60.55 | X-H torsion
[ 11005 11000 10999 10996 ] final  -81.81 input  -57.11 | X-H torsion

> <Gold.Protein.ActiveResidues>
 VAL166  LYS551  ARG553  GLY616  TRP617  ASP618  TYR619  PRO620  LYS621  CYS622 
 ASP623  PHE694  ASN695  SER759  ASP760  ASP761  ALA762  ILE779  LEU786  VAL792 
 PHE793  MET794  SER795  GLU796  ALA797  LYS798  CYS799  TRP800  GLU811  SER814 

> <Gold.Protein.RotatedAtoms>
  150.8052  133.8524  159.3208 H   0  0  0  0  0  0  0  0  0  0  0  0  # atno 6907 bound_to 6896
  151.6325  135.1019  160.0134 H   0  0  0  0  0  0  0  0  0  0  0  0  # atno 6908 bound_to 6896
  152.4142  133.6972  159.6459 H   0  0  0  0  0  0  0  0  0  0  0  0  # atno 6909 bound_to 6896
  145.0122  139.4210  143.5239 H   0  0  0  0  0  0  0  0  0  0  0  0  # atno 7974 bound_to 7965
  155.0681  140.0393  157.2599 H   0  0  0  0  0  0  0  0  0  0  0  0  # atno 8008 bound_to 7997
  154.7005  140.2672  155.6700 H   0  0  0  0  0  0  0  0  0  0  0  0  # atno 8009 bound_to 7997
  156.2758  140.2741  156.1614 H   0  0  0  0  0  0  0  0  0  0  0  0  # atno 8010 bound_to 7997
  139.4898  144.4176  151.9225 H   0  0  0  0  0  0  0  0  0  0  0  0  # atno 10167 bound_to 10162
  156.0087  130.4552  150.3685 H   0  0  0  0  0  0  0  0  0  0  0  0  # atno 10718 bound_to 10713
  154.4829  135.2775  155.1556 H   0  0  0  0  0  0  0  0  0  0  0  0  # atno 10763 bound_to 10752
  154.3259  135.6200  153.5533 H   0  0  0  0  0  0  0  0  0  0  0  0  # atno 10764 bound_to 10752
  152.9877  135.5754  154.5234 H   0  0  0  0  0  0  0  0  0  0  0  0  # atno 10765 bound_to 10752
  141.1665  133.7214  156.8478 H   0  0  0  0  0  0  0  0  0  0  0  0  # atno 11005 bound_to 11000
  146.3472  139.9572  142.8721 LP  0  0  0  0  0  0  0  0  0  0  0  0  # atno 17320 bound_to 7965
  145.2008  140.9853  143.4157 LP  0  0  0  0  0  0  0  0  0  0  0  0  # atno 17321 bound_to 7965
  140.3619  144.2962  150.5932 LP  0  0  0  0  0  0  0  0  0  0  0  0  # atno 17342 bound_to 10162
  140.5395  143.2226  151.8107 LP  0  0  0  0  0  0  0  0  0  0  0  0  # atno 17343 bound_to 10162
  157.1770  131.0383  151.2767 LP  0  0  0  0  0  0  0  0  0  0  0  0  # atno 17370 bound_to 10713
  157.4179  130.7421  149.6890 LP  0  0  0  0  0  0  0  0  0  0  0  0  # atno 17371 bound_to 10713
  140.1937  134.8947  157.3090 LP  0  0  0  0  0  0  0  0  0  0  0  0  # atno 17394 bound_to 11000
  140.2262  134.3963  155.7542 LP  0  0  0  0  0  0  0  0  0  0  0  0  # atno 17395 bound_to 11000

$$$$
