AV-unprocessed.smi:2198|AV-procd|sdf|8912|dock3
  -GOLD-   2272012133D 1   1.00000     0.00000
 Structure written by MMmdl.
 43 44  0  0  0  0  0  0  0  0  1 V2000
  150.4978  134.4152  155.0374 C   0  0  0  0  0  0  0  0  0  0  0  0
  150.5687  135.9277  155.0264 C   0  0  0  0  0  0  0  0  0  0  0  0
  151.5797  136.5988  154.5814 N   0  0  0  0  0  0  0  0  0  0  0  0
  151.5295  137.9991  154.6226 C   0  0  0  0  0  0  0  0  0  0  0  0
  152.7520  138.7165  154.0761 C   0  0  0  0  0  0  0  0  0  0  0  0
  150.4461  138.6620  155.1233 C   0  0  0  0  0  0  0  0  0  0  0  0
  150.3598  140.1869  155.1798 C   0  0  0  0  0  0  0  0  0  0  0  0
  151.3646  140.8880  156.0977 C   0  0  0  0  0  0  0  0  0  0  0  0
  152.5369  140.5139  156.1485 O   0  0  0  0  0  0  0  0  0  0  0  0
  150.8829  141.9060  156.8266 N   0  0  0  0  0  0  0  0  0  0  0  0
  151.6521  142.6951  157.7838 C   0  0  1  0  0  0  0  0  0  0  0  0
  150.7443  143.7606  158.4237 C   0  0  0  0  0  0  0  0  0  0  0  0
  151.5043  144.5780  159.4792 C   0  0  0  0  0  0  0  0  0  0  0  0
  152.1190  143.6667  160.5532 C   0  0  0  0  0  0  0  0  0  0  0  0
  153.0330  142.5935  159.9309 C   0  0  1  0  0  0  0  0  0  0  0  0
  153.6333  141.6765  161.0064 C   0  0  0  0  0  0  0  0  0  0  0  0
  152.2702  141.7836  158.8642 C   0  0  0  0  0  0  0  0  0  0  0  0
  149.2968  137.8858  155.6277 C   0  0  0  0  0  0  0  0  0  0  0  0
  148.2706  138.3805  156.0914 O   0  0  0  0  0  0  0  0  0  0  0  0
  149.4312  136.5430  155.5465 N   0  0  0  0  0  0  0  0  0  0  0  0
  148.6705  135.9674  155.8773 H   0  0  0  0  0  0  0  0  0  0  0  0
  150.5862  134.0283  154.0219 H   0  0  0  0  0  0  0  0  0  0  0  0
  149.5563  134.0589  155.4576 H   0  0  0  0  0  0  0  0  0  0  0  0
  151.3136  134.0055  155.6330 H   0  0  0  0  0  0  0  0  0  0  0  0
  153.2557  139.2702  154.8687 H   0  0  0  0  0  0  0  0  0  0  0  0
  152.4702  139.4155  153.2886 H   0  0  0  0  0  0  0  0  0  0  0  0
  153.4686  138.0113  153.6536 H   0  0  0  0  0  0  0  0  0  0  0  0
  150.4547  140.6101  154.1790 H   0  0  0  0  0  0  0  0  0  0  0  0
  149.3569  140.4646  155.5045 H   0  0  0  0  0  0  0  0  0  0  0  0
  149.9080  142.1459  156.7186 H   0  0  0  0  0  0  0  0  0  0  0  0
  152.4561  143.2105  157.2546 H   0  0  0  0  0  0  0  0  0  0  0  0
  150.3513  144.4282  157.6558 H   0  0  0  0  0  0  0  0  0  0  0  0
  149.8813  143.2824  158.8898 H   0  0  0  0  0  0  0  0  0  0  0  0
  152.2922  145.1563  158.9950 H   0  0  0  0  0  0  0  0  0  0  0  0
  150.8326  145.2999  159.9444 H   0  0  0  0  0  0  0  0  0  0  0  0
  152.6840  144.2713  161.2634 H   0  0  0  0  0  0  0  0  0  0  0  0
  151.3209  143.1875  161.1224 H   0  0  0  0  0  0  0  0  0  0  0  0
  153.8604  143.1033  159.4351 H   0  0  0  0  0  0  0  0  0  0  0  0
  152.8551  141.1367  161.5466 H   0  0  0  0  0  0  0  0  0  0  0  0
  154.2074  142.2494  161.7352 H   0  0  0  0  0  0  0  0  0  0  0  0
  154.3040  140.9392  160.5646 H   0  0  0  0  0  0  0  0  0  0  0  0
  151.4834  141.1988  159.3437 H   0  0  0  0  0  0  0  0  0  0  0  0
  152.9465  141.0650  158.3993 H   0  0  0  0  0  0  0  0  0  0  0  0
  1  2  1  0  0  0  0
  1 22  1  0  0  0  0
  1 23  1  0  0  0  0
  1 24  1  0  0  0  0
  2 20  1  0  0  0  0
  2  3  2  0  0  0  0
  3  4  1  0  0  0  0
  4  5  1  0  0  0  0
  4  6  2  0  0  0  0
  5 25  1  0  0  0  0
  5 26  1  0  0  0  0
  5 27  1  0  0  0  0
  6  7  1  0  0  0  0
  6 18  1  0  0  0  0
  7  8  1  0  0  0  0
  7 28  1  0  0  0  0
  7 29  1  0  0  0  0
  8  9  2  0  0  0  0
  8 10  1  0  0  0  0
 10 11  1  0  0  0  0
 10 30  1  0  0  0  0
 11 17  1  0  0  0  0
 11 12  1  0  0  0  0
 11 31  1  0  0  0  0
 12 13  1  0  0  0  0
 12 32  1  0  0  0  0
 12 33  1  0  0  0  0
 13 14  1  0  0  0  0
 13 34  1  0  0  0  0
 13 35  1  0  0  0  0
 14 15  1  0  0  0  0
 14 36  1  0  0  0  0
 14 37  1  0  0  0  0
 15 16  1  0  0  0  0
 15 17  1  0  0  0  0
 15 38  1  0  0  0  0
 16 39  1  0  0  0  0
 16 40  1  0  0  0  0
 16 41  1  0  0  0  0
 17 42  1  0  0  0  0
 17 43  1  0  0  0  0
 18 19  2  0  0  0  0
 18 20  1  0  0  0  0
 20 21  1  0  0  0  0
M  END
> <s_m_source_file>
AV-unprocessed.smi

> <i_m_source_file_index>
2198

> <i_lp_mmshare_version>
43012

> <i_f3d_flags>
0

> <s_epik_input>
W0NIM11jMW5jKFtDSDNdKWMoYyg9TylbbkhdMSlbQ0gyXUMoPU8pW05IXVtDQEBIXTJbQ0gyXVtDSDJdW0NIMl1bQ0BASF0oW0NIM10pW0NIMl0y

> <s_epik_cmdline>
J2VwaWtfcHl0aG9uJywgJy1waCcsICc3LjAnLCAnLXRuJywgJzgnLCAnLW1hJywgJzIwMCcsICctbWV0YWxfYmluZGluZycsICctaW1hZScsICc8aW5maWxlLm1hZT4nLCAnLW9tYWUnLCAnPG91dGZpbGUubWFlPic=

> <r_lp_tautomer_probability>
0.839158

> <r_epik_Ionization_Penalty>
0.000372587

> <r_epik_Ionization_Penalty_Charging>
0.000337977

> <r_epik_Ionization_Penalty_Neutral>
3.46101e-05

> <r_epik_State_Penalty>
0.09125

> <r_epik_Charging_Adjusted_Penalty>
0.091588

> <i_epik_Tot_Q>
0

> <i_epik_Tot_abs_Q>
0

> <r_epik_Metal_State_Penalty>
0.25197

> <b_epik_Metal_Only>
0

> <s_lp_Force_Field>
OPLS_2005

> <r_lp_Energy>
10.3452

> <b_lp_Chiralities_Consistent>
1

> <s_lp_Variant>
AV-unprocessed.smi:2198-2

> <Gold.Version>
5.8.1

> <Gold.Id.Protein>
6NUR|6NUR_protein|mol2

> <Gold.PLP.Fitness>
44.1366

> <Gold.PLP.PLP>
-38.6975

> <Gold.PLP.part.hbond>
-2.0000

> <Gold.PLP.part.metal>
0.0000

> <Gold.PLP.part.buried>
-3.1883

> <Gold.PLP.part.nonpolar>
-32.9391

> <Gold.PLP.part.repulsive>
0.2046

> <Gold.PLP.ligand.clash>
0.0000

> <Gold.PLP.ligand.torsion>
0.2834

> <Gold.PLP.Chemscore.Hbond>
2.0000

> <Gold.PLP.Chemscore.CHOScore>
0.0000

> <Gold.PLP.Chemscore.Metal>
0.0000

> <Gold.Chemscore.Hbonds>
donor molecule, donor type, donor heavy atom, donor atom, acceptor molecule, acceptor atom, score
      P1  H  7997  8008       L1     9  0.94
      P1  H 10752 10764       L1     3  1.00

> <Gold.PLP.Chemscore.Internal.Correction>
0.0060

> <Gold.Rescore>
     Score         DG    S(hbond)    S(metal)    S(lipo)     H(rot)  DE(clash)    DE(int)     intcor
     16.17     -20.37       1.85        0.00     106.98       1.48       1.25       2.95       ----

> <Gold.Chemscore.Fitness>
16.1672

> <Gold.Chemscore.DG>
-20.3700

> <Gold.Chemscore.ZeroCoef>
-5.4800

> <Gold.Chemscore.Hbond>
1.8451

> <Gold.Chemscore.Metal>
0.0000

> <Gold.Chemscore.Lipo>
106.9779

> <Gold.Chemscore.Internal_Hbond>
0.0000

> <Gold.Chemscore.DEClash>
1.2495

> <Gold.Chemscore.DEInternal>
2.9533

> <Gold.Chemscore.Rot>
1.4801

> <Gold.Chemscore.Internal.Correction>
   9.000000E+99

> <Gold.Chemscore.Hbonds>
donor molecule, donor type, donor heavy atom, donor atom, acceptor molecule, acceptor atom, score
      P1  H  7997  8008       L1     9  0.91
      P1  H 10752 10764       L1     3  0.70

> <Gold.Chemscore.Hbond.Weighted>
-6.1627

> <Gold.Chemscore.Metal.Weighted>
-0.0000

> <Gold.Chemscore.Lipo.Weighted>
-12.5164

> <Gold.Chemscore.Internal_Hbond.Weighted>
0.0000

> <Gold.Chemscore.DEClash.Weighted>
1.2495

> <Gold.Chemscore.DEInternal.Weighted>
2.9533

> <Gold.Chemscore.Rot.Weighted>
3.7891

> <Gold.Chemscore.Internal.Correction.Weighted>
   9.000000E+99

> <Gold.Protein.RotatedTorsions>
[ 6907 6896 6895 6894 ] final   -9.17 input  -60.11 | X-H torsion
[ 7974 7965 7964 7962 ] final -119.72 input  175.53 | X-H torsion
[ 8008 7997 7996 7995 ] final  -37.90 input   59.86 | X-H torsion
[ 10167 10162 10161 10158 ] final   -7.92 input  -65.29 | X-H torsion
[ 10718 10713 10712 10709 ] final -176.01 input   66.30 | X-H torsion
[ 10763 10752 10751 10750 ] final  -60.68 input  -60.55 | X-H torsion
[ 11005 11000 10999 10996 ] final -169.55 input  -57.11 | X-H torsion

> <Gold.Protein.ActiveResidues>
 VAL166  LYS551  ARG553  GLY616  TRP617  ASP618  TYR619  PRO620  LYS621  CYS622 
 ASP623  PHE694  ASN695  SER759  ASP760  ASP761  ALA762  ILE779  LEU786  VAL792 
 PHE793  MET794  SER795  GLU796  ALA797  LYS798  CYS799  TRP800  GLU811  SER814 

> <Gold.Protein.RotatedAtoms>
  151.4219  135.0999  159.9616 H   0  0  0  0  0  0  0  0  0  0  0  0  # atno 6907 bound_to 6896
  152.4985  133.8699  159.7303 H   0  0  0  0  0  0  0  0  0  0  0  0  # atno 6908 bound_to 6896
  150.9217  133.6815  159.2858 H   0  0  0  0  0  0  0  0  0  0  0  0  # atno 6909 bound_to 6896
  145.0593  140.8278  143.4162 H   0  0  0  0  0  0  0  0  0  0  0  0  # atno 7974 bound_to 7965
  154.4045  140.1592  156.2613 H   0  0  0  0  0  0  0  0  0  0  0  0  # atno 8008 bound_to 7997
  155.9034  140.3432  155.6021 H   0  0  0  0  0  0  0  0  0  0  0  0  # atno 8009 bound_to 7997
  155.7421  140.0794  157.2231 H   0  0  0  0  0  0  0  0  0  0  0  0  # atno 8010 bound_to 7997
  140.7043  143.6027  150.8782 H   0  0  0  0  0  0  0  0  0  0  0  0  # atno 10167 bound_to 10162
  156.8083  130.9577  151.3116 H   0  0  0  0  0  0  0  0  0  0  0  0  # atno 10718 bound_to 10713
  154.2729  135.6287  153.5317 H   0  0  0  0  0  0  0  0  0  0  0  0  # atno 10763 bound_to 10752
  152.9877  135.5614  154.5580 H   0  0  0  0  0  0  0  0  0  0  0  0  # atno 10764 bound_to 10752
  154.5154  135.2879  155.1283 H   0  0  0  0  0  0  0  0  0  0  0  0  # atno 10765 bound_to 10752
  140.5295  134.5630  157.5071 H   0  0  0  0  0  0  0  0  0  0  0  0  # atno 11005 bound_to 11000
  145.1428  139.2561  143.5481 LP  0  0  0  0  0  0  0  0  0  0  0  0  # atno 17320 bound_to 7965
  146.3523  140.1110  142.8604 LP  0  0  0  0  0  0  0  0  0  0  0  0  # atno 17321 bound_to 7965
  139.9751  143.6013  152.2961 LP  0  0  0  0  0  0  0  0  0  0  0  0  # atno 17342 bound_to 10162
  139.6614  144.7662  151.1955 LP  0  0  0  0  0  0  0  0  0  0  0  0  # atno 17343 bound_to 10162
  157.6519  130.8891  149.9650 LP  0  0  0  0  0  0  0  0  0  0  0  0  # atno 17370 bound_to 10713
  156.1060  130.3652  150.0133 LP  0  0  0  0  0  0  0  0  0  0  0  0  # atno 17371 bound_to 10713
  139.9562  134.7531  156.0337 LP  0  0  0  0  0  0  0  0  0  0  0  0  # atno 17394 bound_to 11000
  141.1289  133.6591  156.3411 LP  0  0  0  0  0  0  0  0  0  0  0  0  # atno 17395 bound_to 11000

$$$$
