AV-unprocessed.smi:1579|AV-procd|sdf|6356|dock5
  -GOLD-   22720 6573D 1   1.00000     0.00000
 Structure written by MMmdl.
 47 48  0  0  0  0  0  0  0  0  2 V2000
  147.8512  135.3539  156.3528 C   0  0  0  0  0  0  0  0  0  0  0  0
  148.5590  136.6156  155.9386 C   0  0  0  0  0  0  0  0  0  0  0  0
  147.9054  137.4233  155.1695 N   0  0  0  0  0  0  0  0  0  0  0  0
  148.4621  138.6081  154.7289 N   0  0  0  0  0  0  0  0  0  0  0  0
  147.5742  139.3917  153.8593 C   0  0  0  0  0  0  0  0  0  0  0  0
  147.0221  138.5658  152.6764 C   0  0  2  0  0  0  0  0  0  0  0  0
  146.4392  139.4756  151.7639 O   0  0  0  0  0  0  0  0  0  0  0  0
  145.9606  137.5251  153.0991 C   0  0  0  0  0  0  0  0  0  0  0  0
  146.1226  136.2121  152.4225 N   0  3  2  0  0  0  0  0  0  0  0  0
  145.4336  136.1774  151.1067 C   0  0  0  0  0  0  0  0  0  0  0  0
  145.7200  134.8634  150.3581 C   0  0  0  0  0  0  0  0  0  0  0  0
  145.3476  133.6252  151.1927 C   0  0  2  0  0  0  0  0  0  0  0  0
  143.8273  133.4060  151.2873 C   0  0  0  0  0  0  0  0  0  0  0  0
  146.0232  133.7193  152.5726 C   0  0  0  0  0  0  0  0  0  0  0  0
  145.7308  135.0575  153.2750 C   0  0  0  0  0  0  0  0  0  0  0  0
  149.7139  139.0435  155.0518 C   0  0  0  0  0  0  0  0  0  0  0  0
  150.1659  140.1181  154.6540 O   0  0  0  0  0  0  0  0  0  0  0  0
  150.4495  138.1239  155.9224 C   0  0  0  0  0  0  0  0  0  0  0  0
  151.7647  138.5431  156.2848 C   0  0  0  0  0  0  0  0  0  0  0  0
  152.8317  138.8954  156.5624 N   0  0  0  0  0  0  0  0  0  0  0  0
  149.9143  136.9563  156.3583 C   0  0  0  0  0  0  0  0  0  0  0  0
  150.6361  135.9686  157.2648 C   0  0  0  0  0  0  0  0  0  0  0  0
  148.4092  134.4739  156.0327 H   0  0  0  0  0  0  0  0  0  0  0  0
  146.8528  135.2854  155.9181 H   0  0  0  0  0  0  0  0  0  0  0  0
  147.7416  135.3094  157.4365 H   0  0  0  0  0  0  0  0  0  0  0  0
  146.7532  139.8425  154.4201 H   0  0  0  0  0  0  0  0  0  0  0  0
  148.1443  140.2387  153.4719 H   0  0  0  0  0  0  0  0  0  0  0  0
  147.8595  138.0850  152.1723 H   0  0  0  0  0  0  0  0  0  0  0  0
  145.5944  139.7422  152.0919 H   0  0  0  0  0  0  0  0  0  0  0  0
  145.9853  137.3580  154.1761 H   0  0  0  0  0  0  0  0  0  0  0  0
  144.9737  137.9352  152.8789 H   0  0  0  0  0  0  0  0  0  0  0  0
  144.3606  136.3123  151.2505 H   0  0  0  0  0  0  0  0  0  0  0  0
  145.7742  137.0130  150.4936 H   0  0  0  0  0  0  0  0  0  0  0  0
  145.1890  134.8514  149.4057 H   0  0  0  0  0  0  0  0  0  0  0  0
  146.7820  134.8217  150.1117 H   0  0  0  0  0  0  0  0  0  0  0  0
  145.7546  132.7496  150.6847 H   0  0  0  0  0  0  0  0  0  0  0  0
  143.3202  134.2350  151.7803 H   0  0  0  0  0  0  0  0  0  0  0  0
  143.5978  132.4999  151.8489 H   0  0  0  0  0  0  0  0  0  0  0  0
  143.3869  133.2946  150.2960 H   0  0  0  0  0  0  0  0  0  0  0  0
  145.7092  132.8878  153.2046 H   0  0  0  0  0  0  0  0  0  0  0  0
  147.1021  133.6128  152.4498 H   0  0  0  0  0  0  0  0  0  0  0  0
  146.2761  135.0788  154.2174 H   0  0  0  0  0  0  0  0  0  0  0  0
  144.6724  135.1304  153.5283 H   0  0  0  0  0  0  0  0  0  0  0  0
  151.6386  136.3055  157.5269 H   0  0  0  0  0  0  0  0  0  0  0  0
  150.7351  135.0003  156.7735 H   0  0  0  0  0  0  0  0  0  0  0  0
  150.0850  135.8279  158.1951 H   0  0  0  0  0  0  0  0  0  0  0  0
  147.1076  136.1133  152.2229 H   0  0  0  0  0  0  0  0  0  0  0  0
  1  2  1  0  0  0  0
  1 23  1  0  0  0  0
  1 24  1  0  0  0  0
  1 25  1  0  0  0  0
  2 21  1  0  0  0  0
  2  3  2  0  0  0  0
  3  4  1  0  0  0  0
  4  5  1  0  0  0  0
  4 16  1  0  0  0  0
  5  6  1  0  0  0  0
  5 26  1  0  0  0  0
  5 27  1  0  0  0  0
  6  7  1  0  0  0  0
  6  8  1  0  0  0  0
  6 28  1  0  0  0  0
  7 29  1  0  0  0  0
  8  9  1  0  0  0  0
  8 30  1  0  0  0  0
  8 31  1  0  0  0  0
  9 15  1  0  0  0  0
  9 10  1  0  0  0  0
  9 47  1  0  0  0  0
 10 11  1  0  0  0  0
 10 32  1  0  0  0  0
 10 33  1  0  0  0  0
 11 12  1  0  0  0  0
 11 34  1  0  0  0  0
 11 35  1  0  0  0  0
 12 13  1  0  0  0  0
 12 14  1  0  0  0  0
 12 36  1  0  0  0  0
 13 37  1  0  0  0  0
 13 38  1  0  0  0  0
 13 39  1  0  0  0  0
 14 15  1  0  0  0  0
 14 40  1  0  0  0  0
 14 41  1  0  0  0  0
 15 42  1  0  0  0  0
 15 43  1  0  0  0  0
 16 17  2  0  0  0  0
 16 18  1  0  0  0  0
 18 19  1  0  0  0  0
 18 21  2  0  0  0  0
 19 20  3  0  0  0  0
 21 22  1  0  0  0  0
 22 44  1  0  0  0  0
 22 45  1  0  0  0  0
 22 46  1  0  0  0  0
M  CHG  1   9   1
M  END
> <s_m_source_file>
AV-unprocessed.smi

> <i_m_source_file_index>
1579

> <i_lp_mmshare_version>
43012

> <i_f3d_flags>
0

> <s_epik_input>
TiNDYyhjMVtDSDNdKWMoPU8pbihuYzFbQ0gzXSlbQ0gyXVtDQEhdKFtPSF0pW0NIMl1OMltDSDJdW0NIMl1bQ0hdKFtDSDNdKVtDSDJdW0NIMl0y

> <s_epik_cmdline>
J2VwaWtfcHl0aG9uJywgJy1waCcsICc3LjAnLCAnLXRuJywgJzgnLCAnLW1hJywgJzIwMCcsICctbWV0YWxfYmluZGluZycsICctaW1hZScsICc8aW5maWxlLm1hZT4nLCAnLW9tYWUnLCAnPG91dGZpbGUubWFlPic=

> <r_epik_Ionization_Penalty>
0.00136816

> <r_epik_Ionization_Penalty_Charging>
0.00136813

> <r_epik_Ionization_Penalty_Neutral>
3.19884e-08

> <r_epik_State_Penalty>
0.000910892

> <r_epik_Charging_Adjusted_Penalty>
0.00227902

> <i_epik_Tot_Q>
1

> <i_epik_Tot_abs_Q>
1

> <r_epik_Metal_State_Penalty>
-0

> <b_epik_Metal_Only>
0

> <s_lp_Force_Field>
OPLS_2005

> <r_lp_Energy>
38.3008

> <b_lp_Chiralities_Consistent>
1

> <s_lp_Variant>
AV-unprocessed.smi:1579-3

> <Gold.Version>
5.8.1

> <Gold.Id.Protein>
6NUR|6NUR_protein|mol2

> <Gold.PLP.Fitness>
45.1538

> <Gold.PLP.PLP>
-32.3692

> <Gold.PLP.part.hbond>
-3.9346

> <Gold.PLP.part.metal>
0.0000

> <Gold.PLP.part.buried>
-3.4966

> <Gold.PLP.part.nonpolar>
-25.6637

> <Gold.PLP.part.repulsive>
0.8605

> <Gold.PLP.ligand.clash>
0.0000

> <Gold.PLP.ligand.torsion>
1.1046

> <Gold.PLP.Chemscore.Hbond>
4.9920

> <Gold.PLP.Chemscore.CHOScore>
0.0000

> <Gold.PLP.Chemscore.Metal>
0.0000

> <Gold.Chemscore.Hbonds>
donor molecule, donor type, donor heavy atom, donor atom, acceptor molecule, acceptor atom, score
      L1  H     7    29       P1 10175  0.89
      L1  H     9    47       P1  7948  2.00
      P1  H  7989  7998       L1    17  1.00
      P1  H  7997  8009       L1    20  0.28

> <Gold.PLP.Chemscore.Internal.Correction>
0.0178

> <Gold.Rescore>
     Score         DG    S(hbond)    S(metal)    S(lipo)     H(rot)  DE(clash)    DE(int)     intcor
     17.16     -20.80       3.84        0.00      68.86       2.17       1.44       2.20       ----

> <Gold.Chemscore.Fitness>
17.1587

> <Gold.Chemscore.DG>
-20.7962

> <Gold.Chemscore.ZeroCoef>
-5.4800

> <Gold.Chemscore.Hbond>
3.8378

> <Gold.Chemscore.Metal>
0.0000

> <Gold.Chemscore.Lipo>
68.8626

> <Gold.Chemscore.Internal_Hbond>
0.0000

> <Gold.Chemscore.DEClash>
1.4409

> <Gold.Chemscore.DEInternal>
2.1965

> <Gold.Chemscore.Rot>
2.1715

> <Gold.Chemscore.Internal.Correction>
   9.000000E+99

> <Gold.Chemscore.Hbonds>
donor molecule, donor type, donor heavy atom, donor atom, acceptor molecule, acceptor atom, score
      L1  H     7    29       P1 10175  0.77
      L1  H     9    47       P1  7948  1.00
      P1  H  7989  7998       L1    17  0.94
      P1  H  7997  8009       L1    20  0.28

> <Gold.Chemscore.Hbond.Weighted>
-12.8183

> <Gold.Chemscore.Metal.Weighted>
-0.0000

> <Gold.Chemscore.Lipo.Weighted>
-8.0569

> <Gold.Chemscore.Internal_Hbond.Weighted>
0.0000

> <Gold.Chemscore.DEClash.Weighted>
1.4409

> <Gold.Chemscore.DEInternal.Weighted>
2.1965

> <Gold.Chemscore.Rot.Weighted>
5.5591

> <Gold.Chemscore.Internal.Correction.Weighted>
   9.000000E+99

> <Gold.Protein.RotatedTorsions>
[ 6907 6896 6895 6894 ] final -124.25 input  -60.11 | X-H torsion
[ 7974 7965 7964 7962 ] final  130.58 input  175.53 | X-H torsion
[ 8008 7997 7996 7995 ] final -131.40 input   59.86 | X-H torsion
[ 10167 10162 10161 10158 ] final   -6.45 input  -65.29 | X-H torsion
[ 10718 10713 10712 10709 ] final   44.80 input   66.30 | X-H torsion
[ 10763 10752 10751 10750 ] final  162.21 input  -60.55 | X-H torsion
[ 11005 11000 10999 10996 ] final  -84.77 input  -57.11 | X-H torsion

> <Gold.Protein.ActiveResidues>
 VAL166  LYS551  ARG553  GLY616  TRP617  ASP618  TYR619  PRO620  LYS621  CYS622 
 ASP623  PHE694  ASN695  SER759  ASP760  ASP761  ALA762  ILE779  LEU786  VAL792 
 PHE793  MET794  SER795  GLU796  ALA797  LYS798  CYS799  TRP800  GLU811  SER814 

> <Gold.Protein.RotatedAtoms>
  150.8749  133.7452  159.2949 H   0  0  0  0  0  0  0  0  0  0  0  0  # atno 6907 bound_to 6896
  151.5052  135.1062  159.9849 H   0  0  0  0  0  0  0  0  0  0  0  0  # atno 6908 bound_to 6896
  152.4721  133.8008  159.7007 H   0  0  0  0  0  0  0  0  0  0  0  0  # atno 6909 bound_to 6896
  145.0163  139.4173  143.5219 H   0  0  0  0  0  0  0  0  0  0  0  0  # atno 7974 bound_to 7965
  155.3117  140.0457  157.3035 H   0  0  0  0  0  0  0  0  0  0  0  0  # atno 8008 bound_to 7997
  154.5429  140.2293  155.8577 H   0  0  0  0  0  0  0  0  0  0  0  0  # atno 8009 bound_to 7997
  156.1897  140.3053  155.9315 H   0  0  0  0  0  0  0  0  0  0  0  0  # atno 8010 bound_to 7997
  140.6997  143.6193  150.8628 H   0  0  0  0  0  0  0  0  0  0  0  0  # atno 10167 bound_to 10162
  157.4308  130.8023  149.7601 H   0  0  0  0  0  0  0  0  0  0  0  0  # atno 10718 bound_to 10713
  154.2749  135.2765  155.2722 H   0  0  0  0  0  0  0  0  0  0  0  0  # atno 10763 bound_to 10752
  154.5269  135.5740  153.6730 H   0  0  0  0  0  0  0  0  0  0  0  0  # atno 10764 bound_to 10752
  152.9939  135.6218  154.2905 H   0  0  0  0  0  0  0  0  0  0  0  0  # atno 10765 bound_to 10752
  141.1647  133.7364  156.8917 H   0  0  0  0  0  0  0  0  0  0  0  0  # atno 11005 bound_to 11000
  146.3478  139.9636  142.8714 LP  0  0  0  0  0  0  0  0  0  0  0  0  # atno 17320 bound_to 7965
  145.1955  140.9831  143.4186 LP  0  0  0  0  0  0  0  0  0  0  0  0  # atno 17321 bound_to 7965
  139.9914  143.5843  152.2909 LP  0  0  0  0  0  0  0  0  0  0  0  0  # atno 17342 bound_to 10162
  139.6499  144.7660  151.2168 LP  0  0  0  0  0  0  0  0  0  0  0  0  # atno 17343 bound_to 10162
  155.9912  130.3939  150.2993 LP  0  0  0  0  0  0  0  0  0  0  0  0  # atno 17370 bound_to 10713
  157.1150  131.0231  151.3033 LP  0  0  0  0  0  0  0  0  0  0  0  0  # atno 17371 bound_to 10713
  140.1644  134.9143  157.2755 LP  0  0  0  0  0  0  0  0  0  0  0  0  # atno 17394 bound_to 11000
  140.2574  134.3611  155.7419 LP  0  0  0  0  0  0  0  0  0  0  0  0  # atno 17395 bound_to 11000

$$$$
