AV-unprocessed.smi:1478|AV-procd|sdf|5982|dock7
  -GOLD-   22720 6 73D 1   1.00000     0.00000
 Structure written by MMmdl.
 46 47  0  0  0  0  0  0  0  0  1 V2000
  149.3680  140.1344  157.7164 C   0  0  0  0  0  0  0  0  0  0  0  0
  149.8635  141.4207  158.0446 O   0  0  0  0  0  0  0  0  0  0  0  0
  151.0964  141.7062  157.4061 C   0  0  0  0  0  0  0  0  0  0  0  0
  150.8456  141.8889  155.9016 C   0  0  0  0  0  0  0  0  0  0  0  0
  150.5666  140.6090  155.2424 N   0  0  0  0  0  0  0  0  0  0  0  0
  149.3520  140.5681  154.5777 N   0  0  0  0  0  0  0  0  0  0  0  0
  148.9848  139.4918  153.9598 C   0  0  0  0  0  0  0  0  0  0  0  0
  147.6887  139.4070  153.2305 C   0  0  0  0  0  0  0  0  0  0  0  0
  146.8058  140.2545  153.3735 O   0  0  0  0  0  0  0  0  0  0  0  0
  147.5603  138.3503  152.4073 N   0  0  0  0  0  0  0  0  0  0  0  0
  146.3908  138.0400  151.5856 C   0  0  0  0  0  0  0  0  0  0  0  0
  145.6413  136.7441  152.0096 C   0  0  0  0  0  0  0  0  0  0  0  0
  145.8932  135.7086  150.8786 C   0  0  0  0  0  0  0  0  0  0  0  0
  145.5641  136.0346  149.6243 N   0  0  0  0  0  0  0  0  0  0  0  0
  146.3677  134.6035  151.1376 O   0  0  0  0  0  0  0  0  0  0  0  0
  146.1173  136.2315  153.4000 C   0  0  0  0  0  0  0  0  0  0  0  0
  145.2665  135.0543  153.9179 C   0  0  0  0  0  0  0  0  0  0  0  0
  143.8990  135.4405  153.9870 O   0  0  0  0  0  0  0  0  0  0  0  0
  143.3570  135.8021  152.7220 C   0  0  0  0  0  0  0  0  0  0  0  0
  144.1179  137.0176  152.1564 C   0  0  0  0  0  0  0  0  0  0  0  0
  149.8327  138.3113  153.9541 C   0  0  0  0  0  0  0  0  0  0  0  0
  151.0136  138.3660  154.6082 C   0  0  0  0  0  0  0  0  0  0  0  0
  151.4533  139.5706  155.3136 C   0  0  0  0  0  0  0  0  0  0  0  0
  152.5221  139.6433  155.9193 O   0  0  0  0  0  0  0  0  0  0  0  0
  148.4228  139.9633  158.2313 H   0  0  0  0  0  0  0  0  0  0  0  0
  150.0645  139.3525  158.0229 H   0  0  0  0  0  0  0  0  0  0  0  0
  149.1887  140.0434  156.6444 H   0  0  0  0  0  0  0  0  0  0  0  0
  151.5338  142.6100  157.8332 H   0  0  0  0  0  0  0  0  0  0  0  0
  151.8002  140.8889  157.5717 H   0  0  0  0  0  0  0  0  0  0  0  0
  150.0079  142.5734  155.7556 H   0  0  0  0  0  0  0  0  0  0  0  0
  151.7034  142.3770  155.4354 H   0  0  0  0  0  0  0  0  0  0  0  0
  148.3368  137.7067  152.3495 H   0  0  0  0  0  0  0  0  0  0  0  0
  145.7204  138.8971  151.6644 H   0  0  0  0  0  0  0  0  0  0  0  0
  146.6724  137.9864  150.5319 H   0  0  0  0  0  0  0  0  0  0  0  0
  145.7216  135.3768  148.8746 H   0  0  0  0  0  0  0  0  0  0  0  0
  145.1605  136.9398  149.4311 H   0  0  0  0  0  0  0  0  0  0  0  0
  147.1732  135.9593  153.3847 H   0  0  0  0  0  0  0  0  0  0  0  0
  146.0386  137.0314  154.1359 H   0  0  0  0  0  0  0  0  0  0  0  0
  145.3735  134.1680  153.2916 H   0  0  0  0  0  0  0  0  0  0  0  0
  145.5973  134.7708  154.9170 H   0  0  0  0  0  0  0  0  0  0  0  0
  143.3918  134.9514  152.0401 H   0  0  0  0  0  0  0  0  0  0  0  0
  142.3045  136.0529  152.8540 H   0  0  0  0  0  0  0  0  0  0  0  0
  143.9509  137.8561  152.8330 H   0  0  0  0  0  0  0  0  0  0  0  0
  143.6785  137.3207  151.2051 H   0  0  0  0  0  0  0  0  0  0  0  0
  149.5339  137.4081  153.4419 H   0  0  0  0  0  0  0  0  0  0  0  0
  151.6535  137.4959  154.6121 H   0  0  0  0  0  0  0  0  0  0  0  0
  1  2  1  0  0  0  0
  1 25  1  0  0  0  0
  1 26  1  0  0  0  0
  1 27  1  0  0  0  0
  2  3  1  0  0  0  0
  3  4  1  0  0  0  0
  3 28  1  0  0  0  0
  3 29  1  0  0  0  0
  4  5  1  0  0  0  0
  4 30  1  0  0  0  0
  4 31  1  0  0  0  0
  5 23  1  0  0  0  0
  5  6  1  0  0  0  0
  6  7  2  0  0  0  0
  7  8  1  0  0  0  0
  7 21  1  0  0  0  0
  8  9  2  0  0  0  0
  8 10  1  0  0  0  0
 10 11  1  0  0  0  0
 10 32  1  0  0  0  0
 11 12  1  0  0  0  0
 11 33  1  0  0  0  0
 11 34  1  0  0  0  0
 12 20  1  0  0  0  0
 12 13  1  0  0  0  0
 12 16  1  0  0  0  0
 13 14  1  0  0  0  0
 13 15  2  0  0  0  0
 14 35  1  0  0  0  0
 14 36  1  0  0  0  0
 16 17  1  0  0  0  0
 16 37  1  0  0  0  0
 16 38  1  0  0  0  0
 17 18  1  0  0  0  0
 17 39  1  0  0  0  0
 17 40  1  0  0  0  0
 18 19  1  0  0  0  0
 19 20  1  0  0  0  0
 19 41  1  0  0  0  0
 19 42  1  0  0  0  0
 20 43  1  0  0  0  0
 20 44  1  0  0  0  0
 21 22  2  0  0  0  0
 21 45  1  0  0  0  0
 22 23  1  0  0  0  0
 22 46  1  0  0  0  0
 23 24  2  0  0  0  0
M  END
> <s_m_source_file>
AV-unprocessed.smi

> <i_m_source_file_index>
1478

> <i_lp_mmshare_version>
43012

> <i_f3d_flags>
0

> <s_epik_input>
W0NIM11PW0NIMl1bQ0gyXW4xbmMoW2NIXVtjSF1jMT1PKUMoPU8pW05IXVtDSDJdQzIoQyg9TylbTkgyXSlbQ0gyXVtDSDJdT1tDSDJdW0NIMl0y

> <s_epik_cmdline>
J2VwaWtfcHl0aG9uJywgJy1waCcsICc3LjAnLCAnLXRuJywgJzgnLCAnLW1hJywgJzIwMCcsICctbWV0YWxfYmluZGluZycsICctaW1hZScsICc8aW5maWxlLm1hZT4nLCAnLW9tYWUnLCAnPG91dGZpbGUubWFlPic=

> <r_lp_tautomer_probability>
1

> <r_epik_Ionization_Penalty>
1.88897e-06

> <r_epik_Ionization_Penalty_Charging>
5.89949e-09

> <r_epik_Ionization_Penalty_Neutral>
1.88307e-06

> <r_epik_State_Penalty>
-0

> <r_epik_Charging_Adjusted_Penalty>
5.89949e-09

> <i_epik_Tot_Q>
0

> <i_epik_Tot_abs_Q>
0

> <r_epik_Metal_State_Penalty>
-0

> <b_epik_Metal_Only>
0

> <s_lp_Force_Field>
OPLS_2005

> <r_lp_Energy>
34.3796

> <b_lp_Chiralities_Consistent>
1

> <s_lp_Variant>
AV-unprocessed.smi:1478-1

> <Gold.Version>
5.8.1

> <Gold.Id.Protein>
6NUR|6NUR_protein|mol2

> <Gold.PLP.Fitness>
47.3007

> <Gold.PLP.PLP>
-37.8455

> <Gold.PLP.part.hbond>
-4.9174

> <Gold.PLP.part.metal>
0.0000

> <Gold.PLP.part.buried>
-2.8702

> <Gold.PLP.part.nonpolar>
-31.4281

> <Gold.PLP.part.repulsive>
0.8215

> <Gold.PLP.ligand.clash>
0.0681

> <Gold.PLP.ligand.torsion>
1.2641

> <Gold.PLP.Chemscore.Hbond>
4.0000

> <Gold.PLP.Chemscore.CHOScore>
0.0000

> <Gold.PLP.Chemscore.Metal>
0.0000

> <Gold.Chemscore.Hbonds>
donor molecule, donor type, donor heavy atom, donor atom, acceptor molecule, acceptor atom, score
      L1  H    10    32       P1  7948  1.00
      L1  H    14    35       P1  7921  0.70
      L1  H    14    36       P1 10171  0.83
      P1  H  7997  8009       L1    24  1.00

> <Gold.PLP.Chemscore.Internal.Correction>
0.0515

> <Gold.Rescore>
     Score         DG    S(hbond)    S(metal)    S(lipo)     H(rot)  DE(clash)    DE(int)     intcor
     14.90     -18.95       3.97        0.00      60.64       2.69       1.14       2.91       ----

> <Gold.Chemscore.Fitness>
14.9016

> <Gold.Chemscore.DG>
-18.9506

> <Gold.Chemscore.ZeroCoef>
-5.4800

> <Gold.Chemscore.Hbond>
3.9742

> <Gold.Chemscore.Metal>
0.0000

> <Gold.Chemscore.Lipo>
60.6373

> <Gold.Chemscore.Internal_Hbond>
0.0000

> <Gold.Chemscore.DEClash>
1.1390

> <Gold.Chemscore.DEInternal>
2.9100

> <Gold.Chemscore.Rot>
2.6944

> <Gold.Chemscore.Internal.Correction>
   9.000000E+99

> <Gold.Chemscore.Hbonds>
donor molecule, donor type, donor heavy atom, donor atom, acceptor molecule, acceptor atom, score
      L1  H    10    32       P1  7948  0.94
      L1  H    14    35       P1  7921  0.70
      L1  H    14    36       P1 10171  0.81
      P1  H  7997  8009       L1    24  1.00

> <Gold.Chemscore.Hbond.Weighted>
-13.2737

> <Gold.Chemscore.Metal.Weighted>
-0.0000

> <Gold.Chemscore.Lipo.Weighted>
-7.0946

> <Gold.Chemscore.Internal_Hbond.Weighted>
0.0000

> <Gold.Chemscore.DEClash.Weighted>
1.1390

> <Gold.Chemscore.DEInternal.Weighted>
2.9100

> <Gold.Chemscore.Rot.Weighted>
6.8976

> <Gold.Chemscore.Internal.Correction.Weighted>
   9.000000E+99

> <Gold.Protein.RotatedTorsions>
[ 6907 6896 6895 6894 ] final  -17.52 input  -60.11 | X-H torsion
[ 7974 7965 7964 7962 ] final  179.46 input  175.53 | X-H torsion
[ 8008 7997 7996 7995 ] final -150.95 input   59.86 | X-H torsion
[ 10167 10162 10161 10158 ] final    7.03 input  -65.29 | X-H torsion
[ 10718 10713 10712 10709 ] final  -73.09 input   66.30 | X-H torsion
[ 10763 10752 10751 10750 ] final   18.08 input  -60.55 | X-H torsion
[ 11005 11000 10999 10996 ] final  -82.26 input  -57.11 | X-H torsion

> <Gold.Protein.ActiveResidues>
 VAL166  LYS551  ARG553  GLY616  TRP617  ASP618  TYR619  PRO620  LYS621  CYS622 
 ASP623  PHE694  ASN695  SER759  ASP760  ASP761  ALA762  ILE779  LEU786  VAL792 
 PHE793  MET794  SER795  GLU796  ALA797  LYS798  CYS799  TRP800  GLU811  SER814 

> <Gold.Protein.RotatedAtoms>
  151.2921  135.0745  159.9207 H   0  0  0  0  0  0  0  0  0  0  0  0  # atno 6907 bound_to 6896
  152.5314  133.9921  159.7866 H   0  0  0  0  0  0  0  0  0  0  0  0  # atno 6908 bound_to 6896
  151.0192  133.5841  159.2704 H   0  0  0  0  0  0  0  0  0  0  0  0  # atno 6909 bound_to 6896
  144.7145  140.0552  143.6434 H   0  0  0  0  0  0  0  0  0  0  0  0  # atno 7974 bound_to 7965
  155.6317  140.0692  157.2647 H   0  0  0  0  0  0  0  0  0  0  0  0  # atno 8008 bound_to 7997
  154.4204  140.1766  156.1528 H   0  0  0  0  0  0  0  0  0  0  0  0  # atno 8009 bound_to 7997
  155.9928  140.3343  155.6772 H   0  0  0  0  0  0  0  0  0  0  0  0  # atno 8010 bound_to 7997
  140.6395  143.7808  150.7407 H   0  0  0  0  0  0  0  0  0  0  0  0  # atno 10167 bound_to 10162
  156.0294  130.4386  150.2690 H   0  0  0  0  0  0  0  0  0  0  0  0  # atno 10718 bound_to 10713
  153.1281  135.6734  153.9223 H   0  0  0  0  0  0  0  0  0  0  0  0  # atno 10763 bound_to 10752
  153.8718  135.3069  155.3443 H   0  0  0  0  0  0  0  0  0  0  0  0  # atno 10764 bound_to 10752
  154.7683  135.4952  153.9679 H   0  0  0  0  0  0  0  0  0  0  0  0  # atno 10765 bound_to 10752
  141.1664  133.7236  156.8545 H   0  0  0  0  0  0  0  0  0  0  0  0  # atno 11005 bound_to 11000
  145.9911  139.3015  143.0984 LP  0  0  0  0  0  0  0  0  0  0  0  0  # atno 17320 bound_to 7965
  145.8902  140.9308  143.0556 LP  0  0  0  0  0  0  0  0  0  0  0  0  # atno 17321 bound_to 7965
  140.1436  143.4419  152.2177 LP  0  0  0  0  0  0  0  0  0  0  0  0  # atno 17342 bound_to 10162
  139.5604  144.7402  151.4171 LP  0  0  0  0  0  0  0  0  0  0  0  0  # atno 17343 bound_to 10162
  157.0793  131.0139  151.3162 LP  0  0  0  0  0  0  0  0  0  0  0  0  # atno 17370 bound_to 10713
  157.4939  130.7839  149.7536 LP  0  0  0  0  0  0  0  0  0  0  0  0  # atno 17371 bound_to 10713
  140.1892  134.8978  157.3040 LP  0  0  0  0  0  0  0  0  0  0  0  0  # atno 17394 bound_to 11000
  140.2309  134.3911  155.7522 LP  0  0  0  0  0  0  0  0  0  0  0  0  # atno 17395 bound_to 11000

$$$$
