AV-unprocessed.smi:990|AV-procd|sdf|4326|dock6
  -GOLD-   22720 2233D 1   1.00000     0.00000
 Structure written by MMmdl.
 44 45  0  0  0  0  0  0  0  0  1 V2000
  152.1417  145.1562  159.5722 C   0  0  0  0  0  0  0  0  0  0  0  0
  152.2586  144.7332  158.3044 C   0  0  0  0  0  0  0  0  0  0  0  0
  152.0838  143.2941  157.8604 C   0  0  0  0  0  0  0  0  0  0  0  0
  150.9255  143.1414  156.9881 N   0  0  0  0  0  0  0  0  0  0  0  0
  150.4862  141.9800  156.4818 C   0  0  0  0  0  0  0  0  0  0  0  0
  151.0339  140.8985  156.6933 O   0  0  0  0  0  0  0  0  0  0  0  0
  149.3952  142.1675  155.7187 N   0  0  0  0  0  0  0  0  0  0  0  0
  148.6141  141.2064  155.0197 C   0  0  0  0  0  0  0  0  0  0  0  0
  147.5929  141.6818  154.1739 C   0  0  0  0  0  0  0  0  0  0  0  0
  146.7885  140.7604  153.4775 C   0  0  0  0  0  0  0  0  0  0  0  0
  147.0209  139.3763  153.6487 C   0  0  0  0  0  0  0  0  0  0  0  0
  146.2242  138.4371  152.9605 N   0  0  0  0  0  0  0  0  0  0  0  0
  145.5595  137.4514  153.8097 C   0  0  0  0  0  0  0  0  0  0  0  0
  144.4476  136.7153  153.0390 C   0  0  0  0  0  0  0  0  0  0  0  0
  144.9517  136.1532  151.7710 N   0  0  0  0  0  0  0  0  0  0  0  0
  145.3691  134.4678  151.6698 S   0  0  0  0  0  0  0  0  0  0  0  0
  143.7584  133.5925  151.8223 C   0  0  0  0  0  0  0  0  0  0  0  0
  145.9013  134.2182  150.3215 O   0  0  0  0  0  0  0  0  0  0  0  0
  146.1844  134.1367  152.8485 O   0  0  0  0  0  0  0  0  0  0  0  0
  145.6557  137.1403  150.9302 C   0  0  0  0  0  0  0  0  0  0  0  0
  146.7567  137.8684  151.7232 C   0  0  0  0  0  0  0  0  0  0  0  0
  147.9990  138.9171  154.4668 N   0  0  0  0  0  0  0  0  0  0  0  0
  148.7679  139.8038  155.1341 C   0  0  0  0  0  0  0  0  0  0  0  0
  151.9124  144.4703  160.3745 H   0  0  0  0  0  0  0  0  0  0  0  0
  152.2748  146.1983  159.8235 H   0  0  0  0  0  0  0  0  0  0  0  0
  152.4846  145.4513  157.5292 H   0  0  0  0  0  0  0  0  0  0  0  0
  152.9721  142.9579  157.3245 H   0  0  0  0  0  0  0  0  0  0  0  0
  151.9859  142.6557  158.7399 H   0  0  0  0  0  0  0  0  0  0  0  0
  150.4169  143.9828  156.7590 H   0  0  0  0  0  0  0  0  0  0  0  0
  149.1055  143.1265  155.5955 H   0  0  0  0  0  0  0  0  0  0  0  0
  147.4276  142.7424  154.0530 H   0  0  0  0  0  0  0  0  0  0  0  0
  146.0158  141.1212  152.8148 H   0  0  0  0  0  0  0  0  0  0  0  0
  146.3045  136.7454  154.1745 H   0  0  0  0  0  0  0  0  0  0  0  0
  145.1223  137.9184  154.6915 H   0  0  0  0  0  0  0  0  0  0  0  0
  144.0109  135.9309  153.6564 H   0  0  0  0  0  0  0  0  0  0  0  0
  143.6409  137.4127  152.8099 H   0  0  0  0  0  0  0  0  0  0  0  0
  143.9319  132.5180  151.7676 H   0  0  0  0  0  0  0  0  0  0  0  0
  143.0978  133.8850  151.0081 H   0  0  0  0  0  0  0  0  0  0  0  0
  143.2975  133.8266  152.7802 H   0  0  0  0  0  0  0  0  0  0  0  0
  146.0762  136.6593  150.0476 H   0  0  0  0  0  0  0  0  0  0  0  0
  144.9266  137.8666  150.5689 H   0  0  0  0  0  0  0  0  0  0  0  0
  147.1744  138.6606  151.1005 H   0  0  0  0  0  0  0  0  0  0  0  0
  147.5738  137.1878  151.9604 H   0  0  0  0  0  0  0  0  0  0  0  0
  149.5038  139.3541  155.7808 H   0  0  0  0  0  0  0  0  0  0  0  0
  1  2  2  0  0  0  0
  1 24  1  0  0  0  0
  1 25  1  0  0  0  0
  2  3  1  0  0  0  0
  2 26  1  0  0  0  0
  3  4  1  0  0  0  0
  3 27  1  0  0  0  0
  3 28  1  0  0  0  0
  4  5  1  0  0  0  0
  4 29  1  0  0  0  0
  5  6  2  0  0  0  0
  5  7  1  0  0  0  0
  7  8  1  0  0  0  0
  7 30  1  0  0  0  0
  8 23  1  0  0  0  0
  8  9  2  0  0  0  0
  9 10  1  0  0  0  0
  9 31  1  0  0  0  0
 10 11  2  0  0  0  0
 10 32  1  0  0  0  0
 11 12  1  0  0  0  0
 11 22  1  0  0  0  0
 12 21  1  0  0  0  0
 12 13  1  0  0  0  0
 13 14  1  0  0  0  0
 13 33  1  0  0  0  0
 13 34  1  0  0  0  0
 14 15  1  0  0  0  0
 14 35  1  0  0  0  0
 14 36  1  0  0  0  0
 15 16  1  0  0  0  0
 15 20  1  0  0  0  0
 16 17  1  0  0  0  0
 16 18  2  0  0  0  0
 16 19  2  0  0  0  0
 17 37  1  0  0  0  0
 17 38  1  0  0  0  0
 17 39  1  0  0  0  0
 20 21  1  0  0  0  0
 20 40  1  0  0  0  0
 20 41  1  0  0  0  0
 21 42  1  0  0  0  0
 21 43  1  0  0  0  0
 22 23  2  0  0  0  0
 23 44  1  0  0  0  0
M  END
> <s_m_source_file>
AV-unprocessed.smi

> <i_m_source_file_index>
990

> <i_lp_mmshare_version>
43012

> <i_f3d_flags>
0

> <s_epik_input>
W0NIMl09W0NIXVtDSDJdW05IXUMoPU8pW05IXWMxW2NIXVtjSF1jKG5bY0hdMSlOMltDSDJdW0NIMl1OKFMoPU8pKD1PKVtDSDNdKVtDSDJdW0NIMl0y

> <s_epik_cmdline>
J2VwaWtfcHl0aG9uJywgJy1waCcsICc3LjAnLCAnLXRuJywgJzgnLCAnLW1hJywgJzIwMCcsICctbWV0YWxfYmluZGluZycsICctaW1hZScsICc8aW5maWxlLm1hZT4nLCAnLW9tYWUnLCAnPG91dGZpbGUubWFlPic=

> <r_lp_tautomer_probability>
1

> <r_epik_Ionization_Penalty>
0.151655

> <r_epik_Ionization_Penalty_Charging>
0

> <r_epik_Ionization_Penalty_Neutral>
0.151655

> <r_epik_State_Penalty>
0.140906

> <r_epik_Charging_Adjusted_Penalty>
0.140906

> <i_epik_Tot_Q>
0

> <i_epik_Tot_abs_Q>
0

> <r_epik_Metal_State_Penalty>
0.111889

> <b_epik_Metal_Only>
0

> <s_lp_Force_Field>
OPLS_2005

> <r_lp_Energy>
17.3553

> <b_lp_Chiralities_Consistent>
1

> <s_lp_Variant>
AV-unprocessed.smi:990-1

> <Gold.Version>
5.8.1

> <Gold.Id.Protein>
6NUR|6NUR_protein|mol2

> <Gold.PLP.Fitness>
43.1381

> <Gold.PLP.PLP>
-38.1018

> <Gold.PLP.part.hbond>
-2.0000

> <Gold.PLP.part.metal>
0.0000

> <Gold.PLP.part.buried>
1.7346

> <Gold.PLP.part.nonpolar>
-39.1537

> <Gold.PLP.part.repulsive>
1.7679

> <Gold.PLP.ligand.clash>
0.0000

> <Gold.PLP.ligand.torsion>
1.4636

> <Gold.PLP.Chemscore.Hbond>
1.8640

> <Gold.PLP.Chemscore.CHOScore>
0.0000

> <Gold.PLP.Chemscore.Metal>
0.0000

> <Gold.Chemscore.Hbonds>
donor molecule, donor type, donor heavy atom, donor atom, acceptor molecule, acceptor atom, score
      L1  H     4    29       P1  8028  0.91
      L1  H     7    30       P1  8028  1.00

> <Gold.PLP.Chemscore.Internal.Correction>
2.3714

> <Gold.Rescore>
     Score         DG    S(hbond)    S(metal)    S(lipo)     H(rot)  DE(clash)    DE(int)     intcor
     14.08     -19.07       1.86        0.00      94.27       1.43       2.68       2.31       ----

> <Gold.Chemscore.Fitness>
14.0768

> <Gold.Chemscore.DG>
-19.0659

> <Gold.Chemscore.ZeroCoef>
-5.4800

> <Gold.Chemscore.Hbond>
1.8591

> <Gold.Chemscore.Metal>
0.0000

> <Gold.Chemscore.Lipo>
94.2664

> <Gold.Chemscore.Internal_Hbond>
0.0000

> <Gold.Chemscore.DEClash>
2.6767

> <Gold.Chemscore.DEInternal>
2.3125

> <Gold.Chemscore.Rot>
1.4268

> <Gold.Chemscore.Internal.Correction>
   9.000000E+99

> <Gold.Chemscore.Hbonds>
donor molecule, donor type, donor heavy atom, donor atom, acceptor molecule, acceptor atom, score
      L1  H     4    29       P1  8028  0.84
      L1  H     7    30       P1  8028  0.99

> <Gold.Chemscore.Hbond.Weighted>
-6.2093

> <Gold.Chemscore.Metal.Weighted>
-0.0000

> <Gold.Chemscore.Lipo.Weighted>
-11.0292

> <Gold.Chemscore.Internal_Hbond.Weighted>
0.0000

> <Gold.Chemscore.DEClash.Weighted>
2.6767

> <Gold.Chemscore.DEInternal.Weighted>
2.3125

> <Gold.Chemscore.Rot.Weighted>
3.6526

> <Gold.Chemscore.Internal.Correction.Weighted>
   9.000000E+99

> <Gold.Protein.RotatedTorsions>
[ 6907 6896 6895 6894 ] final  127.42 input  -60.11 | X-H torsion
[ 7974 7965 7964 7962 ] final  -81.18 input  175.53 | X-H torsion
[ 8008 7997 7996 7995 ] final  -72.38 input   59.86 | X-H torsion
[ 10167 10162 10161 10158 ] final -173.90 input  -65.29 | X-H torsion
[ 10718 10713 10712 10709 ] final   41.50 input   66.30 | X-H torsion
[ 10763 10752 10751 10750 ] final  149.63 input  -60.55 | X-H torsion
[ 11005 11000 10999 10996 ] final   99.40 input  -57.11 | X-H torsion

> <Gold.Protein.ActiveResidues>
 VAL166  LYS551  ARG553  GLY616  TRP617  ASP618  TYR619  PRO620  LYS621  CYS622 
 ASP623  PHE694  ASN695  SER759  ASP760  ASP761  ALA762  ILE779  LEU786  VAL792 
 PHE793  MET794  SER795  GLU796  ALA797  LYS798  CYS799  TRP800  GLU811  SER814 

> <Gold.Protein.RotatedAtoms>
  152.3814  133.6551  159.6163 H   0  0  0  0  0  0  0  0  0  0  0  0  # atno 6907 bound_to 6896
  150.7744  133.9108  159.3377 H   0  0  0  0  0  0  0  0  0  0  0  0  # atno 6908 bound_to 6896
  151.6912  135.0947  160.0285 H   0  0  0  0  0  0  0  0  0  0  0  0  # atno 6909 bound_to 6896
  145.5501  140.9498  143.1504 H   0  0  0  0  0  0  0  0  0  0  0  0  # atno 7974 bound_to 7965
  154.5162  140.0798  156.8085 H   0  0  0  0  0  0  0  0  0  0  0  0  # atno 8008 bound_to 7997
  155.3676  140.3421  155.4224 H   0  0  0  0  0  0  0  0  0  0  0  0  # atno 8009 bound_to 7997
  156.1630  140.1594  156.8567 H   0  0  0  0  0  0  0  0  0  0  0  0  # atno 8010 bound_to 7997
  139.5663  144.1748  152.1317 H   0  0  0  0  0  0  0  0  0  0  0  0  # atno 10167 bound_to 10162
  157.3943  130.7824  149.7295 H   0  0  0  0  0  0  0  0  0  0  0  0  # atno 10718 bound_to 10713
  154.0743  135.2864  155.3302 H   0  0  0  0  0  0  0  0  0  0  0  0  # atno 10763 bound_to 10752
  154.6726  135.5294  153.8161 H   0  0  0  0  0  0  0  0  0  0  0  0  # atno 10764 bound_to 10752
  153.0473  135.6561  154.0923 H   0  0  0  0  0  0  0  0  0  0  0  0  # atno 10765 bound_to 10752
  139.8771  134.9094  156.4600 H   0  0  0  0  0  0  0  0  0  0  0  0  # atno 11005 bound_to 11000
  144.7534  139.7137  143.7264 LP  0  0  0  0  0  0  0  0  0  0  0  0  # atno 17320 bound_to 7965
  146.1922  139.5169  142.9797 LP  0  0  0  0  0  0  0  0  0  0  0  0  # atno 17321 bound_to 7965
  140.1272  144.5321  150.6825 LP  0  0  0  0  0  0  0  0  0  0  0  0  # atno 17342 bound_to 10162
  140.6946  143.2396  151.5036 LP  0  0  0  0  0  0  0  0  0  0  0  0  # atno 17343 bound_to 10162
  155.9806  130.4027  150.3518 LP  0  0  0  0  0  0  0  0  0  0  0  0  # atno 17370 bound_to 10713
  157.1638  131.0351  151.2828 LP  0  0  0  0  0  0  0  0  0  0  0  0  # atno 17371 bound_to 10713
  140.8871  133.7875  155.9530 LP  0  0  0  0  0  0  0  0  0  0  0  0  # atno 17394 bound_to 11000
  140.8793  134.2631  157.5152 LP  0  0  0  0  0  0  0  0  0  0  0  0  # atno 17395 bound_to 11000

$$$$
