AV-unprocessed.smi:1049|AV-procd|sdf|4611|dock3
  -GOLD-   22720 3113D 1   1.00000     0.00000
 Structure written by MMmdl.
 41 42  0  0  0  0  0  0  0  0  2 V2000
  145.3131  143.0142  156.0222 C   0  0  0  0  0  0  0  0  0  0  0  0
  146.1891  141.8122  155.6426 C   0  0  1  0  0  0  0  0  0  0  0  0
  145.3355  140.6204  155.1566 C   0  0  0  0  0  0  0  0  0  0  0  0
  146.2069  139.4539  154.6545 C   0  0  0  0  0  0  0  0  0  0  0  0
  147.2516  139.9473  153.6382 C   0  0  0  0  0  0  0  0  0  0  0  0
  148.0581  141.0076  154.2668 N   0  0  0  0  0  0  0  0  0  0  0  0
  149.3459  140.8998  154.6829 C   0  0  0  0  0  0  0  0  0  0  0  0
  150.1132  140.0212  154.2868 O   0  0  0  0  0  0  0  0  0  0  0  0
  149.7297  141.8240  155.5804 N   0  0  0  0  0  0  0  0  0  0  0  0
  151.0582  141.9177  156.1739 C   0  0  0  0  0  0  0  0  0  0  0  0
  150.9909  141.8884  157.7110 C   0  0  0  0  0  0  0  0  0  0  0  0
  151.1961  143.2304  158.3500 C   0  0  0  0  0  0  0  0  0  0  0  0
  150.7201  144.3938  157.8882 N   0  3  0  0  0  0  0  0  0  0  0  0
  151.1127  145.4268  158.6941 C   0  0  0  0  0  0  0  0  0  0  0  0
  151.8780  144.8728  159.6859 C   0  0  0  0  0  0  0  0  0  0  0  0
  151.9246  143.5237  159.4420 N   0  0  0  0  0  0  0  0  0  0  0  0
  152.6388  142.5269  160.2463 C   0  0  0  0  0  0  0  0  0  0  0  0
  153.6733  142.0370  159.5634 F   0  0  0  0  0  0  0  0  0  0  0  0
  153.0499  143.0609  161.3968 F   0  0  0  0  0  0  0  0  0  0  0  0
  147.2376  142.1873  154.5732 C   0  0  0  0  0  0  0  0  0  0  0  0
  144.7486  143.3804  155.1640 H   0  0  0  0  0  0  0  0  0  0  0  0
  145.9198  143.8383  156.3981 H   0  0  0  0  0  0  0  0  0  0  0  0
  144.5989  142.7484  156.8021 H   0  0  0  0  0  0  0  0  0  0  0  0
  146.7240  141.4988  156.5407 H   0  0  0  0  0  0  0  0  0  0  0  0
  144.6777  140.2753  155.9548 H   0  0  0  0  0  0  0  0  0  0  0  0
  144.6860  140.9501  154.3443 H   0  0  0  0  0  0  0  0  0  0  0  0
  146.7125  138.9838  155.4991 H   0  0  0  0  0  0  0  0  0  0  0  0
  145.5770  138.6865  154.2037 H   0  0  0  0  0  0  0  0  0  0  0  0
  147.8352  139.1046  153.2687 H   0  0  0  0  0  0  0  0  0  0  0  0
  146.7503  140.3549  152.7590 H   0  0  0  0  0  0  0  0  0  0  0  0
  149.0505  142.5150  155.8653 H   0  0  0  0  0  0  0  0  0  0  0  0
  151.6881  141.1104  155.7961 H   0  0  0  0  0  0  0  0  0  0  0  0
  151.5130  142.8505  155.8395 H   0  0  0  0  0  0  0  0  0  0  0  0
  150.0214  141.5094  158.0325 H   0  0  0  0  0  0  0  0  0  0  0  0
  151.7554  141.2309  158.1262 H   0  0  0  0  0  0  0  0  0  0  0  0
  150.8287  146.4516  158.5039 H   0  0  0  0  0  0  0  0  0  0  0  0
  152.3853  145.3288  160.5238 H   0  0  0  0  0  0  0  0  0  0  0  0
  151.9678  141.6999  160.4812 H   0  0  0  0  0  0  0  0  0  0  0  0
  146.7430  142.5289  153.6626 H   0  0  0  0  0  0  0  0  0  0  0  0
  147.8352  143.0333  154.9163 H   0  0  0  0  0  0  0  0  0  0  0  0
  150.1495  144.4917  157.0576 H   0  0  0  0  0  0  0  0  0  0  0  0
  1  2  1  0  0  0  0
  1 21  1  0  0  0  0
  1 22  1  0  0  0  0
  1 23  1  0  0  0  0
  2 20  1  0  0  0  0
  2  3  1  0  0  0  0
  2 24  1  0  0  0  0
  3  4  1  0  0  0  0
  3 25  1  0  0  0  0
  3 26  1  0  0  0  0
  4  5  1  0  0  0  0
  4 27  1  0  0  0  0
  4 28  1  0  0  0  0
  5  6  1  0  0  0  0
  5 29  1  0  0  0  0
  5 30  1  0  0  0  0
  6  7  1  0  0  0  0
  6 20  1  0  0  0  0
  7  8  2  0  0  0  0
  7  9  1  0  0  0  0
  9 10  1  0  0  0  0
  9 31  1  0  0  0  0
 10 11  1  0  0  0  0
 10 32  1  0  0  0  0
 10 33  1  0  0  0  0
 11 12  1  0  0  0  0
 11 34  1  0  0  0  0
 11 35  1  0  0  0  0
 12 16  1  0  0  0  0
 12 13  2  0  0  0  0
 13 14  1  0  0  0  0
 13 41  1  0  0  0  0
 14 15  2  0  0  0  0
 14 36  1  0  0  0  0
 15 16  1  0  0  0  0
 15 37  1  0  0  0  0
 16 17  1  0  0  0  0
 17 18  1  0  0  0  0
 17 19  1  0  0  0  0
 17 38  1  0  0  0  0
 20 39  1  0  0  0  0
 20 40  1  0  0  0  0
M  CHG  1  13   1
M  END
> <s_m_source_file>
AV-unprocessed.smi

> <i_m_source_file_index>
1049

> <i_lp_mmshare_version>
43012

> <i_f3d_flags>
0

> <s_epik_input>
W0NIM11bQ0BASF0xW0NIMl1bQ0gyXVtDSDJdTihbQ0gyXTEpQyg9TylbTkhdW0NIMl1bQ0gyXWMybltjSF1bY0hdbjJbQ0hdKEYpRg==

> <s_epik_cmdline>
J2VwaWtfcHl0aG9uJywgJy1waCcsICc3LjAnLCAnLXRuJywgJzgnLCAnLW1hJywgJzIwMCcsICctbWV0YWxfYmluZGluZycsICctaW1hZScsICc8aW5maWxlLm1hZT4nLCAnLW9tYWUnLCAnPG91dGZpbGUubWFlPic=

> <r_lp_tautomer_probability>
1

> <r_epik_Ionization_Penalty>
1.09766

> <r_epik_Ionization_Penalty_Charging>
0

> <r_epik_Ionization_Penalty_Neutral>
1.09766

> <r_epik_State_Penalty>
1.15444

> <r_epik_Charging_Adjusted_Penalty>
1.15444

> <i_epik_Tot_Q>
1

> <i_epik_Tot_abs_Q>
1

> <r_epik_Metal_State_Penalty>
1.24204

> <b_epik_Metal_Only>
0

> <s_lp_Force_Field>
OPLS_2005

> <r_lp_Energy>
35.939

> <b_lp_Chiralities_Consistent>
1

> <s_lp_Variant>
AV-unprocessed.smi:1049-4

> <Gold.Version>
5.8.1

> <Gold.Id.Protein>
6NUR|6NUR_protein|mol2

> <Gold.PLP.Fitness>
53.2896

> <Gold.PLP.PLP>
-45.8169

> <Gold.PLP.part.hbond>
-3.0000

> <Gold.PLP.part.metal>
0.0000

> <Gold.PLP.part.buried>
-2.8153

> <Gold.PLP.part.nonpolar>
-40.1680

> <Gold.PLP.part.repulsive>
0.3386

> <Gold.PLP.ligand.clash>
1.3596

> <Gold.PLP.ligand.torsion>
0.9120

> <Gold.PLP.Chemscore.Hbond>
3.5330

> <Gold.PLP.Chemscore.CHOScore>
0.0000

> <Gold.PLP.Chemscore.Metal>
0.0000

> <Gold.Chemscore.Hbonds>
donor molecule, donor type, donor heavy atom, donor atom, acceptor molecule, acceptor atom, score
      L1  H     9    31       P1  8028  0.38
      L1  H    13    41       P1  8028  2.00
      P1  H  7989  7998       L1     8  1.00

> <Gold.PLP.Chemscore.Internal.Correction>
0.0573

> <Gold.Rescore>
     Score         DG    S(hbond)    S(metal)    S(lipo)     H(rot)  DE(clash)    DE(int)     intcor
     14.13     -15.93       1.75        0.00      74.59       1.61       0.75       1.05       ----

> <Gold.Chemscore.Fitness>
14.1301

> <Gold.Chemscore.DG>
-15.9294

> <Gold.Chemscore.ZeroCoef>
-5.4800

> <Gold.Chemscore.Hbond>
1.7460

> <Gold.Chemscore.Metal>
0.0000

> <Gold.Chemscore.Lipo>
74.5902

> <Gold.Chemscore.Internal_Hbond>
0.0000

> <Gold.Chemscore.DEClash>
0.7484

> <Gold.Chemscore.DEInternal>
1.0509

> <Gold.Chemscore.Rot>
1.6051

> <Gold.Chemscore.Internal.Correction>
   9.000000E+99

> <Gold.Chemscore.Hbonds>
donor molecule, donor type, donor heavy atom, donor atom, acceptor molecule, acceptor atom, score
      L1  H     9    31       P1  8028  0.38
      L1  H    13    41       P1  8028  0.65
      P1  H  7989  7998       L1     8  0.63

> <Gold.Chemscore.Hbond.Weighted>
-5.8316

> <Gold.Chemscore.Metal.Weighted>
-0.0000

> <Gold.Chemscore.Lipo.Weighted>
-8.7271

> <Gold.Chemscore.Internal_Hbond.Weighted>
0.0000

> <Gold.Chemscore.DEClash.Weighted>
0.7484

> <Gold.Chemscore.DEInternal.Weighted>
1.0509

> <Gold.Chemscore.Rot.Weighted>
4.1092

> <Gold.Chemscore.Internal.Correction.Weighted>
   9.000000E+99

> <Gold.Protein.RotatedTorsions>
[ 6907 6896 6895 6894 ] final   10.86 input  -60.11 | X-H torsion
[ 7974 7965 7964 7962 ] final   98.92 input  175.53 | X-H torsion
[ 8008 7997 7996 7995 ] final   18.70 input   59.86 | X-H torsion
[ 10167 10162 10161 10158 ] final   74.02 input  -65.29 | X-H torsion
[ 10718 10713 10712 10709 ] final   -0.29 input   66.30 | X-H torsion
[ 10763 10752 10751 10750 ] final  131.23 input  -60.55 | X-H torsion
[ 11005 11000 10999 10996 ] final  156.89 input  -57.11 | X-H torsion

> <Gold.Protein.ActiveResidues>
 VAL166  LYS551  ARG553  GLY616  TRP617  ASP618  TYR619  PRO620  LYS621  CYS622 
 ASP623  PHE694  ASN695  SER759  ASP760  ASP761  ALA762  ILE779  LEU786  VAL792 
 PHE793  MET794  SER795  GLU796  ALA797  LYS798  CYS799  TRP800  GLU811  SER814 

> <Gold.Protein.RotatedAtoms>
  151.7451  135.0845  160.0321 H   0  0  0  0  0  0  0  0  0  0  0  0  # atno 6907 bound_to 6896
  152.3454  133.6111  159.5914 H   0  0  0  0  0  0  0  0  0  0  0  0  # atno 6908 bound_to 6896
  150.7505  133.9574  159.3546 H   0  0  0  0  0  0  0  0  0  0  0  0  # atno 6909 bound_to 6896
  145.4057  139.2341  143.3275 H   0  0  0  0  0  0  0  0  0  0  0  0  # atno 7974 bound_to 7965
  154.9099  140.3012  155.5272 H   0  0  0  0  0  0  0  0  0  0  0  0  # atno 8008 bound_to 7997
  156.3015  140.2391  156.4072 H   0  0  0  0  0  0  0  0  0  0  0  0  # atno 8009 bound_to 7997
  154.8436  140.0412  157.1546 H   0  0  0  0  0  0  0  0  0  0  0  0  # atno 8010 bound_to 7997
  140.0182  144.5561  150.7603 H   0  0  0  0  0  0  0  0  0  0  0  0  # atno 10167 bound_to 10162
  156.8226  130.5461  149.5695 H   0  0  0  0  0  0  0  0  0  0  0  0  # atno 10718 bound_to 10713
  153.7709  135.3182  155.3352 H   0  0  0  0  0  0  0  0  0  0  0  0  # atno 10763 bound_to 10752
  154.8197  135.4612  154.0745 H   0  0  0  0  0  0  0  0  0  0  0  0  # atno 10764 bound_to 10752
  153.2005  135.6921  153.8322 H   0  0  0  0  0  0  0  0  0  0  0  0  # atno 10765 bound_to 10752
  140.1718  134.8538  157.2699 H   0  0  0  0  0  0  0  0  0  0  0  0  # atno 11005 bound_to 11000
  146.2730  140.4761  142.8807 LP  0  0  0  0  0  0  0  0  0  0  0  0  # atno 17320 bound_to 7965
  144.8343  140.6757  143.6270 LP  0  0  0  0  0  0  0  0  0  0  0  0  # atno 17321 bound_to 7965
  140.7353  143.2740  151.3800 LP  0  0  0  0  0  0  0  0  0  0  0  0  # atno 17342 bound_to 10162
  139.6158  144.1006  152.2344 LP  0  0  0  0  0  0  0  0  0  0  0  0  # atno 17343 bound_to 10162
  156.0980  130.5947  150.9846 LP  0  0  0  0  0  0  0  0  0  0  0  0  # atno 17370 bound_to 10713
  157.6449  131.0905  150.8174 LP  0  0  0  0  0  0  0  0  0  0  0  0  # atno 17371 bound_to 10713
  140.2369  134.3843  155.7497 LP  0  0  0  0  0  0  0  0  0  0  0  0  # atno 17394 bound_to 11000
  141.2218  133.7244  156.8727 LP  0  0  0  0  0  0  0  0  0  0  0  0  # atno 17395 bound_to 11000

$$$$
