AV-unprocessed.smi:588|AV-procd|sdf|3004|dock4
  -GOLD-   2262023513D 1   1.00000     0.00000
 Structure written by MMmdl.
 50 51  0  0  0  0  0  0  0  0  1 V2000
  148.1512  140.3253  154.5030 C   0  0  0  0  0  0  0  0  0  0  0  0
  148.9860  141.1414  155.4947 C   0  0  0  0  0  0  0  0  0  0  0  0
  148.6145  140.8418  156.9565 C   0  0  0  0  0  0  0  0  0  0  0  0
  149.0261  139.5168  157.3763 N   0  0  0  0  0  0  0  0  0  0  0  0
  148.1408  138.5479  157.8577 C   0  0  0  0  0  0  0  0  0  0  0  0
  146.7940  138.8723  157.9300 N   0  0  0  0  0  0  0  0  0  0  0  0
  148.5742  137.3136  158.2523 C   0  0  0  0  0  0  0  0  0  0  0  0
  147.6786  136.3290  158.7070 N   0  0  0  0  0  0  0  0  0  0  0  0
  147.5623  135.1148  157.8850 C   0  0  0  0  0  0  0  0  0  0  0  0
  147.1862  135.4440  156.4316 C   0  0  0  0  0  0  0  0  0  0  0  0
  147.1500  134.2408  155.6837 O   0  0  0  0  0  0  0  0  0  0  0  0
  147.0711  134.4734  154.2883 C   0  0  0  0  0  0  0  0  0  0  0  0
  146.9548  136.4665  159.8500 C   0  0  0  0  0  0  0  0  0  0  0  0
  146.9730  137.5104  160.5050 O   0  0  0  0  0  0  0  0  0  0  0  0
  146.1035  135.2866  160.3826 C   0  0  0  0  0  0  0  0  0  0  0  0
  145.3233  135.6822  161.6581 C   0  0  0  0  0  0  0  0  0  0  0  0
  145.7527  134.7129  162.7655 C   0  0  0  0  0  0  0  0  0  0  0  0
  147.1104  134.1794  162.3209 C   0  0  0  0  0  0  0  0  0  0  0  0
  146.9807  134.0882  160.8015 C   0  0  0  0  0  0  0  0  0  0  0  0
  149.9944  136.9511  158.1512 C   0  0  0  0  0  0  0  0  0  0  0  0
  150.4839  135.8679  158.4683 O   0  0  0  0  0  0  0  0  0  0  0  0
  150.8174  137.9494  157.6365 N   0  0  0  0  0  0  0  0  0  0  0  0
  150.4018  139.2137  157.2340 C   0  0  0  0  0  0  0  0  0  0  0  0
  151.2287  140.0024  156.7749 O   0  0  0  0  0  0  0  0  0  0  0  0
  151.7990  137.7338  157.5393 H   0  0  0  0  0  0  0  0  0  0  0  0
  148.4331  140.5562  153.4757 H   0  0  0  0  0  0  0  0  0  0  0  0
  147.0882  140.5414  154.6132 H   0  0  0  0  0  0  0  0  0  0  0  0
  148.2941  139.2553  154.6557 H   0  0  0  0  0  0  0  0  0  0  0  0
  150.0436  140.9293  155.3338 H   0  0  0  0  0  0  0  0  0  0  0  0
  148.8500  142.2034  155.2874 H   0  0  0  0  0  0  0  0  0  0  0  0
  149.0459  141.5685  157.6473 H   0  0  0  0  0  0  0  0  0  0  0  0
  147.5388  140.9068  157.1175 H   0  0  0  0  0  0  0  0  0  0  0  0
  146.4485  139.7783  157.6466 H   0  0  0  0  0  0  0  0  0  0  0  0
  146.1114  138.2313  158.3084 H   0  0  0  0  0  0  0  0  0  0  0  0
  148.4923  134.5445  157.9140 H   0  0  0  0  0  0  0  0  0  0  0  0
  146.8022  134.4534  158.3037 H   0  0  0  0  0  0  0  0  0  0  0  0
  146.2098  135.9298  156.3970 H   0  0  0  0  0  0  0  0  0  0  0  0
  147.9112  136.1311  155.9928 H   0  0  0  0  0  0  0  0  0  0  0  0
  147.0438  133.5212  153.7586 H   0  0  0  0  0  0  0  0  0  0  0  0
  147.9374  135.0320  153.9319 H   0  0  0  0  0  0  0  0  0  0  0  0
  146.1675  135.0276  154.0313 H   0  0  0  0  0  0  0  0  0  0  0  0
  145.4096  134.9212  159.6267 H   0  0  0  0  0  0  0  0  0  0  0  0
  145.5465  136.7057  161.9649 H   0  0  0  0  0  0  0  0  0  0  0  0
  144.2460  135.6353  161.4958 H   0  0  0  0  0  0  0  0  0  0  0  0
  145.7900  135.1875  163.7464 H   0  0  0  0  0  0  0  0  0  0  0  0
  145.0410  133.8883  162.8243 H   0  0  0  0  0  0  0  0  0  0  0  0
  147.8945  134.8897  162.5868 H   0  0  0  0  0  0  0  0  0  0  0  0
  147.3569  133.2216  162.7801 H   0  0  0  0  0  0  0  0  0  0  0  0
  146.4733  133.1597  160.5361 H   0  0  0  0  0  0  0  0  0  0  0  0
  147.9549  134.0648  160.3105 H   0  0  0  0  0  0  0  0  0  0  0  0
  1  2  1  0  0  0  0
  1 26  1  0  0  0  0
  1 27  1  0  0  0  0
  1 28  1  0  0  0  0
  2  3  1  0  0  0  0
  2 29  1  0  0  0  0
  2 30  1  0  0  0  0
  3  4  1  0  0  0  0
  3 31  1  0  0  0  0
  3 32  1  0  0  0  0
  4 23  1  0  0  0  0
  4  5  1  0  0  0  0
  5  6  1  0  0  0  0
  5  7  2  0  0  0  0
  6 33  1  0  0  0  0
  6 34  1  0  0  0  0
  7  8  1  0  0  0  0
  7 20  1  0  0  0  0
  8  9  1  0  0  0  0
  8 13  1  0  0  0  0
  9 10  1  0  0  0  0
  9 35  1  0  0  0  0
  9 36  1  0  0  0  0
 10 11  1  0  0  0  0
 10 37  1  0  0  0  0
 10 38  1  0  0  0  0
 11 12  1  0  0  0  0
 12 39  1  0  0  0  0
 12 40  1  0  0  0  0
 12 41  1  0  0  0  0
 13 14  2  0  0  0  0
 13 15  1  0  0  0  0
 15 19  1  0  0  0  0
 15 16  1  0  0  0  0
 15 42  1  0  0  0  0
 16 17  1  0  0  0  0
 16 43  1  0  0  0  0
 16 44  1  0  0  0  0
 17 18  1  0  0  0  0
 17 45  1  0  0  0  0
 17 46  1  0  0  0  0
 18 19  1  0  0  0  0
 18 47  1  0  0  0  0
 18 48  1  0  0  0  0
 19 49  1  0  0  0  0
 19 50  1  0  0  0  0
 20 21  2  0  0  0  0
 20 22  1  0  0  0  0
 22 25  1  0  0  0  0
 22 23  1  0  0  0  0
 23 24  2  0  0  0  0
M  END
> <s_m_source_file>
AV-unprocessed.smi

> <i_m_source_file_index>
588

> <i_lp_mmshare_version>
43012

> <i_f3d_flags>
0

> <s_epik_input>
W0NIM11bQ0gyXVtDSDJdbjFjKFtOSDJdKWMoYyg9TylbbkhdYzE9TylOKFtDSDJdW0NIMl1PW0NIM10pQyg9TylbQ0hdMltDSDJdW0NIMl1bQ0gyXVtDSDJdMg==

> <s_epik_cmdline>
J2VwaWtfcHl0aG9uJywgJy1waCcsICc3LjAnLCAnLXRuJywgJzgnLCAnLW1hJywgJzIwMCcsICctbWV0YWxfYmluZGluZycsICctaW1hZScsICc8aW5maWxlLm1hZT4nLCAnLW9tYWUnLCAnPG91dGZpbGUubWFlPic=

> <r_lp_tautomer_probability>
1

> <r_epik_Ionization_Penalty>
2.06963e-05

> <r_epik_Ionization_Penalty_Charging>
5.41733e-06

> <r_epik_Ionization_Penalty_Neutral>
1.52789e-05

> <r_epik_State_Penalty>
-0

> <r_epik_Charging_Adjusted_Penalty>
5.41733e-06

> <i_epik_Tot_Q>
0

> <i_epik_Tot_abs_Q>
0

> <r_epik_Metal_State_Penalty>
-0

> <b_epik_Metal_Only>
0

> <s_epik_Chemistry_Notes>
This compound has an imine and may undergo hydrolysis.

> <s_lp_Force_Field>
OPLS_2005

> <r_lp_Energy>
42.8074

> <b_lp_Chiralities_Consistent>
1

> <s_lp_Variant>
AV-unprocessed.smi:588-1

> <Gold.Version>
5.8.1

> <Gold.Id.Protein>
6NUR|6NUR_protein|mol2

> <Gold.PLP.Fitness>
36.7415

> <Gold.PLP.PLP>
-31.1463

> <Gold.PLP.part.hbond>
-1.8906

> <Gold.PLP.part.metal>
0.0000

> <Gold.PLP.part.buried>
-5.7613

> <Gold.PLP.part.nonpolar>
-24.0571

> <Gold.PLP.part.repulsive>
0.1733

> <Gold.PLP.ligand.clash>
0.0000

> <Gold.PLP.ligand.torsion>
1.3430

> <Gold.PLP.Chemscore.Hbond>
2.0000

> <Gold.PLP.Chemscore.CHOScore>
0.0000

> <Gold.PLP.Chemscore.Metal>
0.0000

> <Gold.Chemscore.Hbonds>
donor molecule, donor type, donor heavy atom, donor atom, acceptor molecule, acceptor atom, score
      P1  H  6896  6907       L1    21  0.67
      P1  H  6934  6947       L1    14  1.00

> <Gold.PLP.Chemscore.Internal.Correction>
2.2813

> <Gold.Rescore>
     Score         DG    S(hbond)    S(metal)    S(lipo)     H(rot)  DE(clash)    DE(int)     intcor
     12.57     -14.37       2.00        0.00      64.22       2.07       0.00       1.80       ----

> <Gold.Chemscore.Fitness>
12.5657

> <Gold.Chemscore.DG>
-14.3692

> <Gold.Chemscore.ZeroCoef>
-5.4800

> <Gold.Chemscore.Hbond>
1.9958

> <Gold.Chemscore.Metal>
0.0000

> <Gold.Chemscore.Lipo>
64.2201

> <Gold.Chemscore.Internal_Hbond>
0.0000

> <Gold.Chemscore.DEClash>
0.0021

> <Gold.Chemscore.DEInternal>
1.8014

> <Gold.Chemscore.Rot>
2.0666

> <Gold.Chemscore.Internal.Correction>
   9.000000E+99

> <Gold.Chemscore.Hbonds>
donor molecule, donor type, donor heavy atom, donor atom, acceptor molecule, acceptor atom, score
      P1  H  6896  6907       L1    21  0.68
      P1  H  6934  6947       L1    14  0.98

> <Gold.Chemscore.Hbond.Weighted>
-6.6660

> <Gold.Chemscore.Metal.Weighted>
-0.0000

> <Gold.Chemscore.Lipo.Weighted>
-7.5138

> <Gold.Chemscore.Internal_Hbond.Weighted>
0.0000

> <Gold.Chemscore.DEClash.Weighted>
0.0021

> <Gold.Chemscore.DEInternal.Weighted>
1.8014

> <Gold.Chemscore.Rot.Weighted>
5.2905

> <Gold.Chemscore.Internal.Correction.Weighted>
   9.000000E+99

> <Gold.Protein.RotatedTorsions>
[ 6907 6896 6895 6894 ] final  -30.03 input  -60.11 | X-H torsion
[ 7974 7965 7964 7962 ] final -115.52 input  175.53 | X-H torsion
[ 8008 7997 7996 7995 ] final   74.71 input   59.86 | X-H torsion
[ 10167 10162 10161 10158 ] final   97.92 input  -65.29 | X-H torsion
[ 10718 10713 10712 10709 ] final    5.78 input   66.30 | X-H torsion
[ 10763 10752 10751 10750 ] final  -63.65 input  -60.55 | X-H torsion
[ 11005 11000 10999 10996 ] final  -32.29 input  -57.11 | X-H torsion

> <Gold.Protein.ActiveResidues>
 VAL166  LYS551  ARG553  GLY616  TRP617  ASP618  TYR619  PRO620  LYS621  CYS622 
 ASP623  PHE694  ASN695  SER759  ASP760  ASP761  ALA762  ILE779  LEU786  VAL792 
 PHE793  MET794  SER795  GLU796  ALA797  LYS798  CYS799  TRP800  GLU811  SER814 

> <Gold.Protein.RotatedAtoms>
  151.1111  135.0027  159.8493 H   0  0  0  0  0  0  0  0  0  0  0  0  # atno 6907 bound_to 6896
  152.5443  134.1835  159.8655 H   0  0  0  0  0  0  0  0  0  0  0  0  # atno 6908 bound_to 6896
  151.1886  133.4637  159.2628 H   0  0  0  0  0  0  0  0  0  0  0  0  # atno 6909 bound_to 6896
  145.1075  140.8590  143.3890 H   0  0  0  0  0  0  0  0  0  0  0  0  # atno 7974 bound_to 7965
  155.8024  140.3476  155.5410 H   0  0  0  0  0  0  0  0  0  0  0  0  # atno 8008 bound_to 7997
  155.8524  140.0958  157.1686 H   0  0  0  0  0  0  0  0  0  0  0  0  # atno 8009 bound_to 7997
  154.4008  140.1374  156.3848 H   0  0  0  0  0  0  0  0  0  0  0  0  # atno 8010 bound_to 7997
  139.7756  144.6907  151.0094 H   0  0  0  0  0  0  0  0  0  0  0  0  # atno 10167 bound_to 10162
  156.9125  130.5761  149.5647 H   0  0  0  0  0  0  0  0  0  0  0  0  # atno 10718 bound_to 10713
  154.3183  135.6201  153.5496 H   0  0  0  0  0  0  0  0  0  0  0  0  # atno 10763 bound_to 10752
  152.9822  135.5718  154.5099 H   0  0  0  0  0  0  0  0  0  0  0  0  # atno 10764 bound_to 10752
  154.4762  135.2861  155.1582 H   0  0  0  0  0  0  0  0  0  0  0  0  # atno 10765 bound_to 10752
  140.9540  133.7204  156.1264 H   0  0  0  0  0  0  0  0  0  0  0  0  # atno 11005 bound_to 11000
  145.0885  139.2907  143.5747 LP  0  0  0  0  0  0  0  0  0  0  0  0  # atno 17320 bound_to 7965
  146.3527  140.0415  142.8642 LP  0  0  0  0  0  0  0  0  0  0  0  0  # atno 17321 bound_to 7965
  140.7816  143.4540  151.0372 LP  0  0  0  0  0  0  0  0  0  0  0  0  # atno 17342 bound_to 10162
  139.8222  143.7804  152.3177 LP  0  0  0  0  0  0  0  0  0  0  0  0  # atno 17343 bound_to 10162
  156.0529  130.5595  150.9029 LP  0  0  0  0  0  0  0  0  0  0  0  0  # atno 17370 bound_to 10713
  157.5958  131.0943  150.9043 LP  0  0  0  0  0  0  0  0  0  0  0  0  # atno 17371 bound_to 10713
  140.7563  134.3989  157.5533 LP  0  0  0  0  0  0  0  0  0  0  0  0  # atno 17394 bound_to 11000
  139.8856  134.8932  156.2632 LP  0  0  0  0  0  0  0  0  0  0  0  0  # atno 17395 bound_to 11000

$$$$
