AV-unprocessed.smi:3112|AV-procd|sdf|11842|dock5
  -GOLD-   2272017223D 1   1.00000     0.00000
 Structure written by MMmdl.
 37 37  0  0  0  0  0  0  0  0  2 V2000
  153.1506  142.7734  159.7507 C   0  0  0  0  0  0  0  0  0  0  0  0
  152.3052  144.0189  159.4512 C   0  0  0  0  0  0  0  0  0  0  0  0
  151.6457  143.9925  158.0600 C   0  0  2  0  0  0  0  0  0  0  0  0
  150.5872  144.9304  158.0368 O   0  0  0  0  0  0  0  0  0  0  0  0
  151.0709  142.6064  157.7229 C   0  0  0  0  0  0  0  0  0  0  0  0
  150.4998  142.5826  156.3591 N   0  3  0  0  0  0  0  0  0  0  0  0
  149.5507  141.4789  156.0855 C   0  0  1  0  0  0  0  0  0  0  0  0
  149.2928  141.3657  154.5678 C   0  0  0  0  0  0  0  0  0  0  0  0
  150.0884  140.1637  156.7083 C   0  0  1  0  0  0  0  0  0  0  0  0
  148.9649  139.2728  157.2714 C   0  0  0  0  0  0  0  0  0  0  0  0
  150.8976  139.4010  155.7652 N   0  0  0  0  0  0  0  0  0  0  0  0
  152.2591  139.1690  155.7831 C   0  0  0  0  0  0  0  0  0  0  0  0
  152.5553  138.3907  154.7013 C   0  0  0  0  0  0  0  0  0  0  0  0
  151.2947  138.1923  154.0726 C   0  0  0  0  0  0  0  0  0  0  0  0
  150.3059  138.7958  154.7120 N   0  0  0  0  0  0  0  0  0  0  0  0
  153.5627  142.8194  160.7591 H   0  0  0  0  0  0  0  0  0  0  0  0
  153.9874  142.6822  159.0577 H   0  0  0  0  0  0  0  0  0  0  0  0
  152.5532  141.8640  159.6780 H   0  0  0  0  0  0  0  0  0  0  0  0
  151.5287  144.0943  160.2135 H   0  0  0  0  0  0  0  0  0  0  0  0
  152.9210  144.9131  159.5574 H   0  0  0  0  0  0  0  0  0  0  0  0
  152.3831  144.2751  157.3069 H   0  0  0  0  0  0  0  0  0  0  0  0
  150.2155  144.9438  157.1674 H   0  0  0  0  0  0  0  0  0  0  0  0
  151.8645  141.8595  157.7734 H   0  0  0  0  0  0  0  0  0  0  0  0
  150.3195  142.3224  158.4599 H   0  0  0  0  0  0  0  0  0  0  0  0
  150.0393  143.4634  156.1781 H   0  0  0  0  0  0  0  0  0  0  0  0
  148.6032  141.7139  156.5733 H   0  0  0  0  0  0  0  0  0  0  0  0
  148.5382  140.6131  154.3393 H   0  0  0  0  0  0  0  0  0  0  0  0
  150.2037  141.0929  154.0337 H   0  0  0  0  0  0  0  0  0  0  0  0
  148.9308  142.3027  154.1457 H   0  0  0  0  0  0  0  0  0  0  0  0
  150.7371  140.4333  157.5446 H   0  0  0  0  0  0  0  0  0  0  0  0
  148.4111  139.7769  158.0635 H   0  0  0  0  0  0  0  0  0  0  0  0
  149.3715  138.3549  157.6974 H   0  0  0  0  0  0  0  0  0  0  0  0
  148.2509  138.9905  156.4971 H   0  0  0  0  0  0  0  0  0  0  0  0
  152.8971  139.5717  156.5559 H   0  0  0  0  0  0  0  0  0  0  0  0
  153.5248  138.0187  154.4045 H   0  0  0  0  0  0  0  0  0  0  0  0
  151.0704  137.6308  153.1775 H   0  0  0  0  0  0  0  0  0  0  0  0
  151.2722  142.4896  155.7152 H   0  0  0  0  0  0  0  0  0  0  0  0
  1  2  1  0  0  0  0
  1 16  1  0  0  0  0
  1 17  1  0  0  0  0
  1 18  1  0  0  0  0
  2  3  1  0  0  0  0
  2 19  1  0  0  0  0
  2 20  1  0  0  0  0
  3  4  1  0  0  0  0
  3  5  1  0  0  0  0
  3 21  1  0  0  0  0
  4 22  1  0  0  0  0
  5  6  1  0  0  0  0
  5 23  1  0  0  0  0
  5 24  1  0  0  0  0
  6  7  1  0  0  0  0
  6 25  1  0  0  0  0
  6 37  1  0  0  0  0
  7  8  1  0  0  0  0
  7  9  1  0  0  0  0
  7 26  1  0  0  0  0
  8 27  1  0  0  0  0
  8 28  1  0  0  0  0
  8 29  1  0  0  0  0
  9 10  1  0  0  0  0
  9 11  1  0  0  0  0
  9 30  1  0  0  0  0
 10 31  1  0  0  0  0
 10 32  1  0  0  0  0
 10 33  1  0  0  0  0
 11 15  1  0  0  0  0
 11 12  1  0  0  0  0
 12 13  2  0  0  0  0
 12 34  1  0  0  0  0
 13 14  1  0  0  0  0
 13 35  1  0  0  0  0
 14 15  2  0  0  0  0
 14 36  1  0  0  0  0
M  CHG  1   6   1
M  END
> <s_m_source_file>
AV-unprocessed.smi

> <i_m_source_file_index>
3112

> <i_lp_mmshare_version>
43012

> <i_f3d_flags>
0

> <s_epik_input>
W0NIM11bQ0gyXVtDQEhdKFtPSF0pW0NIMl1bTkhdW0NASF0oW0NIM10pW0NASF0oW0NIM10pbjFbY0hdW2NIXVtjSF1uMQ==

> <s_epik_cmdline>
J2VwaWtfcHl0aG9uJywgJy1waCcsICc3LjAnLCAnLXRuJywgJzgnLCAnLW1hJywgJzIwMCcsICctbWV0YWxfYmluZGluZycsICctaW1hZScsICc8aW5maWxlLm1hZT4nLCAnLW9tYWUnLCAnPG91dGZpbGUubWFlPic=

> <r_lp_tautomer_probability>
1

> <r_epik_Ionization_Penalty>
0.0154842

> <r_epik_Ionization_Penalty_Charging>
0.0154724

> <r_epik_Ionization_Penalty_Neutral>
1.17979e-05

> <r_epik_State_Penalty>
0.0121607

> <r_epik_Charging_Adjusted_Penalty>
0.0276331

> <i_epik_Tot_Q>
1

> <i_epik_Tot_abs_Q>
1

> <r_epik_Metal_State_Penalty>
0.0121863

> <b_epik_Metal_Only>
0

> <s_lp_Force_Field>
OPLS_2005

> <r_lp_Energy>
13.0446

> <b_lp_Chiralities_Consistent>
1

> <s_lp_Variant>
AV-unprocessed.smi:3112-7

> <Gold.Version>
5.8.1

> <Gold.Id.Protein>
6NUR|6NUR_protein|mol2

> <Gold.PLP.Fitness>
46.0656

> <Gold.PLP.PLP>
-36.3360

> <Gold.PLP.part.hbond>
-3.0000

> <Gold.PLP.part.metal>
0.0000

> <Gold.PLP.part.buried>
-4.3540

> <Gold.PLP.part.nonpolar>
-30.1677

> <Gold.PLP.part.repulsive>
0.2230

> <Gold.PLP.ligand.clash>
0.0000

> <Gold.PLP.ligand.torsion>
1.3199

> <Gold.PLP.Chemscore.Hbond>
2.9500

> <Gold.PLP.Chemscore.CHOScore>
1.1231

> <Gold.PLP.Chemscore.Metal>
0.0000

> <Gold.Chemscore.Hbonds>
donor molecule, donor type, donor heavy atom, donor atom, acceptor molecule, acceptor atom, score
      L1  H     4    22       P1  8028  0.90
      L1  H     6    25       P1  8028  2.00
      L1  C    14    36       P1  7948  0.04
      L1  C    14    36       P1  7949  1.00

> <Gold.PLP.Chemscore.Internal.Correction>
0.1500

> <Gold.Rescore>
     Score         DG    S(hbond)    S(metal)    S(lipo)     H(rot)  DE(clash)    DE(int)     intcor
     10.97     -13.88       1.06        0.00      94.19       2.41       0.05       2.86       ----

> <Gold.Chemscore.Fitness>
10.9665

> <Gold.Chemscore.DG>
-13.8793

> <Gold.Chemscore.ZeroCoef>
-5.4800

> <Gold.Chemscore.Hbond>
1.0618

> <Gold.Chemscore.Metal>
0.0000

> <Gold.Chemscore.Lipo>
94.1854

> <Gold.Chemscore.Internal_Hbond>
0.0000

> <Gold.Chemscore.DEClash>
0.0532

> <Gold.Chemscore.DEInternal>
2.8597

> <Gold.Chemscore.Rot>
2.4089

> <Gold.Chemscore.Internal.Correction>
   9.000000E+99

> <Gold.Chemscore.Hbonds>
donor molecule, donor type, donor heavy atom, donor atom, acceptor molecule, acceptor atom, score
      L1  H     4    22       P1  8028  0.17
      L1  H     6    25       P1  8028  1.00

> <Gold.Chemscore.Hbond.Weighted>
-3.5463

> <Gold.Chemscore.Metal.Weighted>
-0.0000

> <Gold.Chemscore.Lipo.Weighted>
-11.0197

> <Gold.Chemscore.Internal_Hbond.Weighted>
0.0000

> <Gold.Chemscore.DEClash.Weighted>
0.0532

> <Gold.Chemscore.DEInternal.Weighted>
2.8597

> <Gold.Chemscore.Rot.Weighted>
6.1667

> <Gold.Chemscore.Internal.Correction.Weighted>
   9.000000E+99

> <Gold.Protein.RotatedTorsions>
[ 6907 6896 6895 6894 ] final -167.89 input  -60.11 | X-H torsion
[ 7974 7965 7964 7962 ] final  132.76 input  175.53 | X-H torsion
[ 8008 7997 7996 7995 ] final   18.83 input   59.86 | X-H torsion
[ 10167 10162 10161 10158 ] final   92.99 input  -65.29 | X-H torsion
[ 10718 10713 10712 10709 ] final -127.96 input   66.30 | X-H torsion
[ 10763 10752 10751 10750 ] final -139.04 input  -60.55 | X-H torsion
[ 11005 11000 10999 10996 ] final  159.27 input  -57.11 | X-H torsion

> <Gold.Protein.ActiveResidues>
 VAL166  LYS551  ARG553  GLY616  TRP617  ASP618  TYR619  PRO620  LYS621  CYS622 
 ASP623  PHE694  ASN695  SER759  ASP760  ASP761  ALA762  ILE779  LEU786  VAL792 
 PHE793  MET794  SER795  GLU796  ALA797  LYS798  CYS799  TRP800  GLU811  SER814 

> <Gold.Protein.RotatedAtoms>
  151.4668  133.3579  159.2817 H   0  0  0  0  0  0  0  0  0  0  0  0  # atno 6907 bound_to 6896
  150.8988  134.8400  159.7356 H   0  0  0  0  0  0  0  0  0  0  0  0  # atno 6908 bound_to 6896
  152.4867  134.4586  159.9649 H   0  0  0  0  0  0  0  0  0  0  0  0  # atno 6909 bound_to 6896
  144.9935  139.4382  143.5327 H   0  0  0  0  0  0  0  0  0  0  0  0  # atno 7974 bound_to 7965
  154.9117  140.3015  155.5262 H   0  0  0  0  0  0  0  0  0  0  0  0  # atno 8008 bound_to 7997
  156.3014  140.2388  156.4093 H   0  0  0  0  0  0  0  0  0  0  0  0  # atno 8009 bound_to 7997
  154.8418  140.0413  157.1535 H   0  0  0  0  0  0  0  0  0  0  0  0  # atno 8010 bound_to 7997
  139.8223  144.6726  150.9504 H   0  0  0  0  0  0  0  0  0  0  0  0  # atno 10167 bound_to 10162
  156.1906  130.6792  151.0419 H   0  0  0  0  0  0  0  0  0  0  0  0  # atno 10718 bound_to 10713
  154.8620  135.3594  154.5481 H   0  0  0  0  0  0  0  0  0  0  0  0  # atno 10763 bound_to 10752
  153.6101  135.7009  153.5355 H   0  0  0  0  0  0  0  0  0  0  0  0  # atno 10764 bound_to 10752
  153.3217  135.4149  155.1383 H   0  0  0  0  0  0  0  0  0  0  0  0  # atno 10765 bound_to 10752
  140.1945  134.8383  157.2949 H   0  0  0  0  0  0  0  0  0  0  0  0  # atno 11005 bound_to 11000
  146.3437  139.9281  142.8757 LP  0  0  0  0  0  0  0  0  0  0  0  0  # atno 17320 bound_to 7965
  145.2252  140.9951  143.4023 LP  0  0  0  0  0  0  0  0  0  0  0  0  # atno 17321 bound_to 7965
  140.7812  143.4080  151.1039 LP  0  0  0  0  0  0  0  0  0  0  0  0  # atno 17342 bound_to 10162
  139.7740  143.8453  152.3126 LP  0  0  0  0  0  0  0  0  0  0  0  0  # atno 17343 bound_to 10162
  157.6926  131.0805  150.7062 LP  0  0  0  0  0  0  0  0  0  0  0  0  # atno 17370 bound_to 10713
  156.7118  130.4654  149.5545 LP  0  0  0  0  0  0  0  0  0  0  0  0  # atno 17371 bound_to 10713
  140.2122  134.4124  155.7607 LP  0  0  0  0  0  0  0  0  0  0  0  0  # atno 17394 bound_to 11000
  141.2227  133.7124  156.8357 LP  0  0  0  0  0  0  0  0  0  0  0  0  # atno 17395 bound_to 11000

$$$$
