AV-unprocessed.smi:3139|AV-procd|sdf|11957|dock6
  -GOLD-   2272017353D 1   1.00000     0.00000
 Structure written by MMmdl.
 33 33  0  0  0  0  0  0  0  0  2 V2000
  153.7092  141.1808  160.4867 C   0  0  0  0  0  0  0  0  0  0  0  0
  153.0321  141.7713  159.2318 C   0  0  1  0  0  0  0  0  0  0  0  0
  151.9187  140.8707  158.6784 C   0  0  0  0  0  0  0  0  0  0  0  0
  150.7585  141.2765  158.5983 O   0  0  0  0  0  0  0  0  0  0  0  0
  152.3074  139.6556  158.2633 N   0  0  0  0  0  0  0  0  0  0  0  0
  151.4907  138.7005  157.5165 C   0  0  0  0  0  0  0  0  0  0  0  0
  152.1786  138.1928  156.2156 C   0  0  0  0  0  0  0  0  0  0  0  0
  153.6403  137.8131  156.5294 C   0  0  0  0  0  0  0  0  0  0  0  0
  151.4416  136.9398  155.6813 C   0  0  0  0  0  0  0  0  0  0  0  0
  152.1895  139.3128  155.1410 C   0  0  0  0  0  0  0  0  0  0  0  0
  151.0995  139.8020  154.7680 O   0  0  0  0  0  0  0  0  0  0  0  0
  153.3072  139.6731  154.7084 O   0  5  0  0  0  0  0  0  0  0  0  0
  152.5055  143.1163  159.4458 N   0  0  0  0  0  0  0  0  0  0  0  0
  151.9980  143.9843  158.4990 C   0  0  0  0  0  0  0  0  0  0  0  0
  151.5569  145.0979  159.1537 C   0  0  0  0  0  0  0  0  0  0  0  0
  151.8228  144.8119  160.5210 C   0  0  0  0  0  0  0  0  0  0  0  0
  152.3808  143.6252  160.6941 N   0  0  0  0  0  0  0  0  0  0  0  0
  154.1477  140.2057  160.2721 H   0  0  0  0  0  0  0  0  0  0  0  0
  153.0075  141.0509  161.3118 H   0  0  0  0  0  0  0  0  0  0  0  0
  154.5129  141.8301  160.8353 H   0  0  0  0  0  0  0  0  0  0  0  0
  153.8015  141.8517  158.4620 H   0  0  0  0  0  0  0  0  0  0  0  0
  153.2809  139.4116  158.3768 H   0  0  0  0  0  0  0  0  0  0  0  0
  151.2928  137.8614  158.1850 H   0  0  0  0  0  0  0  0  0  0  0  0
  150.5114  139.1228  157.2852 H   0  0  0  0  0  0  0  0  0  0  0  0
  153.6875  137.0062  157.2613 H   0  0  0  0  0  0  0  0  0  0  0  0
  154.1995  138.6551  156.9400 H   0  0  0  0  0  0  0  0  0  0  0  0
  154.1660  137.4739  155.6357 H   0  0  0  0  0  0  0  0  0  0  0  0
  151.3916  136.1606  156.4422 H   0  0  0  0  0  0  0  0  0  0  0  0
  151.9501  136.5123  154.8161 H   0  0  0  0  0  0  0  0  0  0  0  0
  150.4165  137.1627  155.3814 H   0  0  0  0  0  0  0  0  0  0  0  0
  151.9838  143.7355  157.4480 H   0  0  0  0  0  0  0  0  0  0  0  0
  151.1012  145.9761  158.7214 H   0  0  0  0  0  0  0  0  0  0  0  0
  151.6220  145.4241  161.3876 H   0  0  0  0  0  0  0  0  0  0  0  0
  1  2  1  0  0  0  0
  1 18  1  0  0  0  0
  1 19  1  0  0  0  0
  1 20  1  0  0  0  0
  2  3  1  0  0  0  0
  2 13  1  0  0  0  0
  2 21  1  0  0  0  0
  3  4  2  0  0  0  0
  3  5  1  0  0  0  0
  5  6  1  0  0  0  0
  5 22  1  0  0  0  0
  6  7  1  0  0  0  0
  6 23  1  0  0  0  0
  6 24  1  0  0  0  0
  7  8  1  0  0  0  0
  7  9  1  0  0  0  0
  7 10  1  0  0  0  0
  8 25  1  0  0  0  0
  8 26  1  0  0  0  0
  8 27  1  0  0  0  0
  9 28  1  0  0  0  0
  9 29  1  0  0  0  0
  9 30  1  0  0  0  0
 10 11  2  0  0  0  0
 10 12  1  0  0  0  0
 13 17  1  0  0  0  0
 13 14  1  0  0  0  0
 14 15  2  0  0  0  0
 14 31  1  0  0  0  0
 15 16  1  0  0  0  0
 15 32  1  0  0  0  0
 16 17  2  0  0  0  0
 16 33  1  0  0  0  0
M  CHG  1  12  -1
M  END
> <s_m_source_file>
AV-unprocessed.smi

> <i_m_source_file_index>
3139

> <i_lp_mmshare_version>
43012

> <i_f3d_flags>
0

> <s_epik_input>
bjFbY0hdW2NIXVtjSF1uMVtDQEhdKFtDSDNdKUMoPU8pW05IXVtDSDJdQyhbQ0gzXSkoW0NIM10pQyg9TylbT0hd

> <s_epik_cmdline>
J2VwaWtfcHl0aG9uJywgJy1waCcsICc3LjAnLCAnLXRuJywgJzgnLCAnLW1hJywgJzIwMCcsICctbWV0YWxfYmluZGluZycsICctaW1hZScsICc8aW5maWxlLm1hZT4nLCAnLW9tYWUnLCAnPG91dGZpbGUubWFlPic=

> <r_lp_tautomer_probability>
1

> <r_epik_Ionization_Penalty>
0.00184643

> <r_epik_Ionization_Penalty_Charging>
0.00181045

> <r_epik_Ionization_Penalty_Neutral>
3.59763e-05

> <r_epik_State_Penalty>
0.00122842

> <r_epik_Charging_Adjusted_Penalty>
0.00303887

> <i_epik_Tot_Q>
-1

> <i_epik_Tot_abs_Q>
1

> <r_epik_Metal_State_Penalty>
-0

> <b_epik_Metal_Only>
0

> <s_lp_Force_Field>
OPLS_2005

> <r_lp_Energy>
4.69511

> <b_lp_Chiralities_Consistent>
1

> <s_lp_Variant>
AV-unprocessed.smi:3139-2

> <Gold.Version>
5.8.1

> <Gold.Id.Protein>
6NUR|6NUR_protein|mol2

> <Gold.PLP.Fitness>
47.1622

> <Gold.PLP.PLP>
-38.8020

> <Gold.PLP.part.hbond>
-3.0000

> <Gold.PLP.part.metal>
0.0000

> <Gold.PLP.part.buried>
-4.5034

> <Gold.PLP.part.nonpolar>
-30.6433

> <Gold.PLP.part.repulsive>
0.2659

> <Gold.PLP.ligand.clash>
0.0000

> <Gold.PLP.ligand.torsion>
0.3864

> <Gold.PLP.Chemscore.Hbond>
3.0000

> <Gold.PLP.Chemscore.CHOScore>
0.0000

> <Gold.PLP.Chemscore.Metal>
0.0000

> <Gold.Chemscore.Hbonds>
donor molecule, donor type, donor heavy atom, donor atom, acceptor molecule, acceptor atom, score
      P1  H  7989  7998       L1    11  1.00
      P1  H  7997  8010       L1    12  2.00

> <Gold.PLP.Chemscore.Internal.Correction>
0.1331

> <Gold.Rescore>
     Score         DG    S(hbond)    S(metal)    S(lipo)     H(rot)  DE(clash)    DE(int)     intcor
     13.53     -15.16       1.97        0.00      77.39       2.32       0.04       1.58       ----

> <Gold.Chemscore.Fitness>
13.5344

> <Gold.Chemscore.DG>
-15.1574

> <Gold.Chemscore.ZeroCoef>
-5.4800

> <Gold.Chemscore.Hbond>
1.9680

> <Gold.Chemscore.Metal>
0.0000

> <Gold.Chemscore.Lipo>
77.3858

> <Gold.Chemscore.Internal_Hbond>
0.0000

> <Gold.Chemscore.DEClash>
0.0416

> <Gold.Chemscore.DEInternal>
1.5814

> <Gold.Chemscore.Rot>
2.3241

> <Gold.Chemscore.Internal.Correction>
   9.000000E+99

> <Gold.Chemscore.Hbonds>
donor molecule, donor type, donor heavy atom, donor atom, acceptor molecule, acceptor atom, score
      P1  H  7989  7998       L1    11  0.30
      P1  H  7997  8010       L1    12  1.00

> <Gold.Chemscore.Hbond.Weighted>
-6.5730

> <Gold.Chemscore.Metal.Weighted>
-0.0000

> <Gold.Chemscore.Lipo.Weighted>
-9.0541

> <Gold.Chemscore.Internal_Hbond.Weighted>
0.0000

> <Gold.Chemscore.DEClash.Weighted>
0.0416

> <Gold.Chemscore.DEInternal.Weighted>
1.5814

> <Gold.Chemscore.Rot.Weighted>
5.9498

> <Gold.Chemscore.Internal.Correction.Weighted>
   9.000000E+99

> <Gold.Protein.RotatedTorsions>
[ 6907 6896 6895 6894 ] final   27.16 input  -60.11 | X-H torsion
[ 7974 7965 7964 7962 ] final  -90.26 input  175.53 | X-H torsion
[ 8008 7997 7996 7995 ] final  120.35 input   59.86 | X-H torsion
[ 10167 10162 10161 10158 ] final -112.68 input  -65.29 | X-H torsion
[ 10718 10713 10712 10709 ] final   69.62 input   66.30 | X-H torsion
[ 10763 10752 10751 10750 ] final   -4.46 input  -60.55 | X-H torsion
[ 11005 11000 10999 10996 ] final -152.85 input  -57.11 | X-H torsion

> <Gold.Protein.ActiveResidues>
 VAL166  LYS551  ARG553  GLY616  TRP617  ASP618  TYR619  PRO620  LYS621  CYS622 
 ASP623  PHE694  ASN695  SER759  ASP760  ASP761  ALA762  ILE779  LEU786  VAL792 
 PHE793  MET794  SER795  GLU796  ALA797  LYS798  CYS799  TRP800  GLU811  SER814 

> <Gold.Protein.RotatedAtoms>
  151.9982  134.9943  160.0563 H   0  0  0  0  0  0  0  0  0  0  0  0  # atno 6907 bound_to 6896
  152.1544  133.4537  159.4838 H   0  0  0  0  0  0  0  0  0  0  0  0  # atno 6908 bound_to 6896
  150.6879  134.2067  159.4386 H   0  0  0  0  0  0  0  0  0  0  0  0  # atno 6909 bound_to 6896
  145.4289  140.9555  143.2139 H   0  0  0  0  0  0  0  0  0  0  0  0  # atno 7974 bound_to 7965
  156.2638  140.2832  156.1136 H   0  0  0  0  0  0  0  0  0  0  0  0  # atno 8008 bound_to 7997
  155.1231  140.0392  157.2773 H   0  0  0  0  0  0  0  0  0  0  0  0  # atno 8009 bound_to 7997
  154.6656  140.2576  155.7068 H   0  0  0  0  0  0  0  0  0  0  0  0  # atno 8010 bound_to 7997
  140.1201  143.4451  152.1696 H   0  0  0  0  0  0  0  0  0  0  0  0  # atno 10167 bound_to 10162
  157.6356  130.9435  150.0539 H   0  0  0  0  0  0  0  0  0  0  0  0  # atno 10718 bound_to 10713
  153.3852  135.7000  153.6536 H   0  0  0  0  0  0  0  0  0  0  0  0  # atno 10763 bound_to 10752
  153.5131  135.3628  155.2596 H   0  0  0  0  0  0  0  0  0  0  0  0  # atno 10764 bound_to 10752
  154.8697  135.4139  154.3158 H   0  0  0  0  0  0  0  0  0  0  0  0  # atno 10765 bound_to 10752
  140.7145  134.3796  157.5193 H   0  0  0  0  0  0  0  0  0  0  0  0  # atno 11005 bound_to 11000
  144.8196  139.5815  143.6993 LP  0  0  0  0  0  0  0  0  0  0  0  0  # atno 17320 bound_to 7965
  146.2618  139.6427  142.9357 LP  0  0  0  0  0  0  0  0  0  0  0  0  # atno 17321 bound_to 7965
  139.5573  144.7382  151.4256 LP  0  0  0  0  0  0  0  0  0  0  0  0  # atno 17342 bound_to 10162
  140.6877  143.7935  150.7210 LP  0  0  0  0  0  0  0  0  0  0  0  0  # atno 17343 bound_to 10162
  156.1592  130.3643  149.9324 LP  0  0  0  0  0  0  0  0  0  0  0  0  # atno 17370 bound_to 10713
  156.7326  130.9049  151.3627 LP  0  0  0  0  0  0  0  0  0  0  0  0  # atno 17371 bound_to 10713
  139.8863  134.8913  156.2591 LP  0  0  0  0  0  0  0  0  0  0  0  0  # atno 17394 bound_to 11000
  141.0056  133.7125  156.1030 LP  0  0  0  0  0  0  0  0  0  0  0  0  # atno 17395 bound_to 11000

$$$$
