AV-unprocessed.smi:2976|AV-procd|sdf|11363|dock10
  -GOLD-   2272016283D 1   1.00000     0.00000
 Structure written by MMmdl.
 40 41  0  0  0  0  0  0  0  0  1 V2000
  152.8874  143.8722  159.3614 C   0  0  0  0  0  0  0  0  0  0  0  0
  152.0877  142.6707  159.9059 C   0  0  2  0  0  0  0  0  0  0  0  0
  152.9881  141.6996  160.6956 C   0  0  0  0  0  0  0  0  0  0  0  0
  153.9131  140.8890  159.7753 C   0  0  0  0  0  0  0  0  0  0  0  0
  153.1071  140.1292  158.7131 C   0  0  0  0  0  0  0  0  0  0  0  0
  152.1965  141.0671  157.8965 C   0  0  1  0  0  0  0  0  0  0  0  0
  151.4074  140.2526  156.9724 N   0  0  0  0  0  0  0  0  0  0  0  0
  151.8932  139.4567  156.0068 C   0  0  0  0  0  0  0  0  0  0  0  0
  153.0958  139.3335  155.7703 O   0  0  0  0  0  0  0  0  0  0  0  0
  150.8431  138.7090  155.1721 C   0  0  0  0  0  0  0  0  0  0  0  0
  149.6416  139.5061  154.8837 N   0  0  0  0  0  0  0  0  0  0  0  0
  149.9022  140.8371  154.6080 N   0  0  0  0  0  0  0  0  0  0  0  0
  148.9258  141.6299  154.3286 C   0  0  0  0  0  0  0  0  0  0  0  0
  147.5525  141.1786  154.2953 C   0  0  0  0  0  0  0  0  0  0  0  0
  146.2841  142.2895  153.9149 Cl  0  0  0  0  0  0  0  0  0  0  0  0
  147.3075  139.8727  154.5701 C   0  0  0  0  0  0  0  0  0  0  0  0
  145.6898  139.2587  154.5485 Cl  0  0  0  0  0  0  0  0  0  0  0  0
  148.3959  138.9393  154.8930 C   0  0  0  0  0  0  0  0  0  0  0  0
  148.2148  137.7485  155.1504 O   0  0  0  0  0  0  0  0  0  0  0  0
  151.2764  141.9055  158.8256 C   0  0  2  0  0  0  0  0  0  0  0  0
  150.3155  142.8326  158.0547 C   0  0  0  0  0  0  0  0  0  0  0  0
  153.5904  143.5810  158.5817 H   0  0  0  0  0  0  0  0  0  0  0  0
  153.4604  144.3497  160.1567 H   0  0  0  0  0  0  0  0  0  0  0  0
  152.2294  144.6349  158.9454 H   0  0  0  0  0  0  0  0  0  0  0  0
  151.3716  143.0816  160.6191 H   0  0  0  0  0  0  0  0  0  0  0  0
  153.5790  142.2449  161.4322 H   0  0  0  0  0  0  0  0  0  0  0  0
  152.3614  141.0112  161.2641 H   0  0  0  0  0  0  0  0  0  0  0  0
  154.6325  141.5493  159.2906 H   0  0  0  0  0  0  0  0  0  0  0  0
  154.4976  140.1845  160.3673 H   0  0  0  0  0  0  0  0  0  0  0  0
  153.7894  139.5989  158.0472 H   0  0  0  0  0  0  0  0  0  0  0  0
  152.5028  139.3654  159.2048 H   0  0  0  0  0  0  0  0  0  0  0  0
  152.8383  141.7458  157.3325 H   0  0  0  0  0  0  0  0  0  0  0  0
  150.4045  140.2941  157.0828 H   0  0  0  0  0  0  0  0  0  0  0  0
  151.2989  138.3693  154.2399 H   0  0  0  0  0  0  0  0  0  0  0  0
  150.5699  137.8000  155.7110 H   0  0  0  0  0  0  0  0  0  0  0  0
  149.0831  142.6845  154.1027 H   0  0  0  0  0  0  0  0  0  0  0  0
  150.6438  141.1986  159.3652 H   0  0  0  0  0  0  0  0  0  0  0  0
  150.8547  143.4951  157.3774 H   0  0  0  0  0  0  0  0  0  0  0  0
  149.7348  143.4522  158.7383 H   0  0  0  0  0  0  0  0  0  0  0  0
  149.6042  142.2633  157.4565 H   0  0  0  0  0  0  0  0  0  0  0  0
  1  2  1  0  0  0  0
  1 22  1  0  0  0  0
  1 23  1  0  0  0  0
  1 24  1  0  0  0  0
  2 20  1  0  0  0  0
  2  3  1  0  0  0  0
  2 25  1  0  0  0  0
  3  4  1  0  0  0  0
  3 26  1  0  0  0  0
  3 27  1  0  0  0  0
  4  5  1  0  0  0  0
  4 28  1  0  0  0  0
  4 29  1  0  0  0  0
  5  6  1  0  0  0  0
  5 30  1  0  0  0  0
  5 31  1  0  0  0  0
  6  7  1  0  0  0  0
  6 20  1  0  0  0  0
  6 32  1  0  0  0  0
  7  8  1  0  0  0  0
  7 33  1  0  0  0  0
  8  9  2  0  0  0  0
  8 10  1  0  0  0  0
 10 11  1  0  0  0  0
 10 34  1  0  0  0  0
 10 35  1  0  0  0  0
 11 18  1  0  0  0  0
 11 12  1  0  0  0  0
 12 13  2  0  0  0  0
 13 14  1  0  0  0  0
 13 36  1  0  0  0  0
 14 15  1  0  0  0  0
 14 16  2  0  0  0  0
 16 17  1  0  0  0  0
 16 18  1  0  0  0  0
 18 19  2  0  0  0  0
 20 21  1  0  0  0  0
 20 37  1  0  0  0  0
 21 38  1  0  0  0  0
 21 39  1  0  0  0  0
 21 40  1  0  0  0  0
M  END
> <s_m_source_file>
AV-unprocessed.smi

> <i_m_source_file_index>
2976

> <i_lp_mmshare_version>
43012

> <i_f3d_flags>
0

> <s_epik_input>
W0NIM11bQ0BASF0xW0NIMl1bQ0gyXVtDSDJdW0NASF0oW0NASF0xW0NIM10pW05IXUMoPU8pW0NIMl1uMm5bY0hdYyhDbCljKENsKWMyPU8=

> <s_epik_cmdline>
J2VwaWtfcHl0aG9uJywgJy1waCcsICc3LjAnLCAnLXRuJywgJzgnLCAnLW1hJywgJzIwMCcsICctbWV0YWxfYmluZGluZycsICctaW1hZScsICc8aW5maWxlLm1hZT4nLCAnLW9tYWUnLCAnPG91dGZpbGUubWFlPic=

> <r_lp_tautomer_probability>
1

> <r_epik_Ionization_Penalty>
1.90777e-08

> <r_epik_Ionization_Penalty_Charging>
3.07942e-11

> <r_epik_Ionization_Penalty_Neutral>
1.90469e-08

> <r_epik_State_Penalty>
-0

> <r_epik_Charging_Adjusted_Penalty>
3.07942e-11

> <i_epik_Tot_Q>
0

> <i_epik_Tot_abs_Q>
0

> <r_epik_Metal_State_Penalty>
-0

> <b_epik_Metal_Only>
0

> <s_lp_Force_Field>
OPLS_2005

> <r_lp_Energy>
28.556

> <b_lp_Chiralities_Consistent>
1

> <s_lp_Variant>
AV-unprocessed.smi:2976-5

> <Gold.Version>
5.8.1

> <Gold.Id.Protein>
6NUR|6NUR_protein|mol2

> <Gold.PLP.Fitness>
45.0267

> <Gold.PLP.PLP>
-38.1780

> <Gold.PLP.part.hbond>
-2.0000

> <Gold.PLP.part.metal>
0.0000

> <Gold.PLP.part.buried>
-2.6493

> <Gold.PLP.part.nonpolar>
-34.0349

> <Gold.PLP.part.repulsive>
0.2932

> <Gold.PLP.ligand.clash>
0.0000

> <Gold.PLP.ligand.torsion>
0.6098

> <Gold.PLP.Chemscore.Hbond>
1.6880

> <Gold.PLP.Chemscore.CHOScore>
1.0000

> <Gold.PLP.Chemscore.Metal>
0.0000

> <Gold.Chemscore.Hbonds>
donor molecule, donor type, donor heavy atom, donor atom, acceptor molecule, acceptor atom, score
      P1  H  7989  7998       L1    12  0.69
      P1  H  7997  8009       L1     9  1.00
      L1  C    13    36       P1  8028  0.97

> <Gold.PLP.Chemscore.Internal.Correction>
0.0043

> <Gold.Rescore>
     Score         DG    S(hbond)    S(metal)    S(lipo)     H(rot)  DE(clash)    DE(int)     intcor
     19.12     -19.74       1.69        0.00     106.01       1.49       0.27       0.35       ----

> <Gold.Chemscore.Fitness>
19.1191

> <Gold.Chemscore.DG>
-19.7382

> <Gold.Chemscore.ZeroCoef>
-5.4800

> <Gold.Chemscore.Hbond>
1.6949

> <Gold.Chemscore.Metal>
0.0000

> <Gold.Chemscore.Lipo>
106.0075

> <Gold.Chemscore.Internal_Hbond>
0.0000

> <Gold.Chemscore.DEClash>
0.2673

> <Gold.Chemscore.DEInternal>
0.3518

> <Gold.Chemscore.Rot>
1.4866

> <Gold.Chemscore.Internal.Correction>
   9.000000E+99

> <Gold.Chemscore.Hbonds>
donor molecule, donor type, donor heavy atom, donor atom, acceptor molecule, acceptor atom, score
      P1  H  7989  7998       L1    12  0.38
      P1  H  7997  8009       L1     9  0.94

> <Gold.Chemscore.Hbond.Weighted>
-5.6610

> <Gold.Chemscore.Metal.Weighted>
-0.0000

> <Gold.Chemscore.Lipo.Weighted>
-12.4029

> <Gold.Chemscore.Internal_Hbond.Weighted>
0.0000

> <Gold.Chemscore.DEClash.Weighted>
0.2673

> <Gold.Chemscore.DEInternal.Weighted>
0.3518

> <Gold.Chemscore.Rot.Weighted>
3.8057

> <Gold.Chemscore.Internal.Correction.Weighted>
   9.000000E+99

> <Gold.Protein.RotatedTorsions>
[ 6907 6896 6895 6894 ] final  -55.25 input  -60.11 | X-H torsion
[ 7974 7965 7964 7962 ] final  -42.96 input  175.53 | X-H torsion
[ 8008 7997 7996 7995 ] final -153.70 input   59.86 | X-H torsion
[ 10167 10162 10161 10158 ] final  -83.64 input  -65.29 | X-H torsion
[ 10718 10713 10712 10709 ] final   55.19 input   66.30 | X-H torsion
[ 10763 10752 10751 10750 ] final  -63.79 input  -60.55 | X-H torsion
[ 11005 11000 10999 10996 ] final -150.44 input  -57.11 | X-H torsion

> <Gold.Protein.ActiveResidues>
 VAL166  LYS551  ARG553  GLY616  TRP617  ASP618  TYR619  PRO620  LYS621  CYS622 
 ASP623  PHE694  ASN695  SER759  ASP760  ASP761  ALA762  ILE779  LEU786  VAL792 
 PHE793  MET794  SER795  GLU796  ALA797  LYS798  CYS799  TRP800  GLU811  SER814 

> <Gold.Protein.RotatedAtoms>
  150.8268  134.7502  159.6819 H   0  0  0  0  0  0  0  0  0  0  0  0  # atno 6907 bound_to 6896
  152.4378  134.5649  159.9914 H   0  0  0  0  0  0  0  0  0  0  0  0  # atno 6908 bound_to 6896
  151.5820  133.3339  159.3046 H   0  0  0  0  0  0  0  0  0  0  0  0  # atno 6909 bound_to 6896
  146.0065  140.7013  142.9245 H   0  0  0  0  0  0  0  0  0  0  0  0  # atno 7974 bound_to 7965
  155.6749  140.0737  157.2506 H   0  0  0  0  0  0  0  0  0  0  0  0  # atno 8008 bound_to 7997
  154.4116  140.1692  156.1971 H   0  0  0  0  0  0  0  0  0  0  0  0  # atno 8009 bound_to 7997
  155.9584  140.3372  155.6472 H   0  0  0  0  0  0  0  0  0  0  0  0  # atno 8010 bound_to 7997
  140.4207  143.2586  151.8894 H   0  0  0  0  0  0  0  0  0  0  0  0  # atno 10167 bound_to 10162
  157.5323  130.8639  149.8705 H   0  0  0  0  0  0  0  0  0  0  0  0  # atno 10718 bound_to 10713
  154.3203  135.6197  153.5505 H   0  0  0  0  0  0  0  0  0  0  0  0  # atno 10763 bound_to 10752
  152.9820  135.5722  154.5077 H   0  0  0  0  0  0  0  0  0  0  0  0  # atno 10764 bound_to 10752
  154.4744  135.2860  155.1595 H   0  0  0  0  0  0  0  0  0  0  0  0  # atno 10765 bound_to 10752
  140.7402  134.3523  157.5149 H   0  0  0  0  0  0  0  0  0  0  0  0  # atno 11005 bound_to 11000
  144.6937  140.3324  143.7213 LP  0  0  0  0  0  0  0  0  0  0  0  0  # atno 17320 bound_to 7965
  145.7407  139.1763  143.2377 LP  0  0  0  0  0  0  0  0  0  0  0  0  # atno 17321 bound_to 7965
  139.4782  144.5440  151.8486 LP  0  0  0  0  0  0  0  0  0  0  0  0  # atno 17342 bound_to 10162
  140.4537  144.1820  150.5899 LP  0  0  0  0  0  0  0  0  0  0  0  0  # atno 17343 bound_to 10162
  156.0432  130.3734  150.1383 LP  0  0  0  0  0  0  0  0  0  0  0  0  # atno 17370 bound_to 10713
  156.9567  130.9792  151.3487 LP  0  0  0  0  0  0  0  0  0  0  0  0  # atno 17371 bound_to 10713
  139.8808  134.9075  156.2947 LP  0  0  0  0  0  0  0  0  0  0  0  0  # atno 17394 bound_to 11000
  140.9844  133.7247  156.0719 LP  0  0  0  0  0  0  0  0  0  0  0  0  # atno 17395 bound_to 11000

$$$$
