AV-unprocessed.smi:1477|AV-procd|sdf|5981|dock2
  -GOLD-   22720 6 73D 1   1.00000     0.00000
 Structure written by MMmdl.
 33 34  0  0  0  0  0  0  0  0  1 V2000
  151.1500  145.0984  158.4246 C   0  0  0  0  0  0  0  0  0  0  0  0
  151.5446  143.7015  158.6209 N   0  0  0  0  0  0  0  0  0  0  0  0
  151.2109  142.7775  157.6128 C   0  0  0  0  0  0  0  0  0  0  0  0
  151.5232  141.4710  157.6924 C   0  0  0  0  0  0  0  0  0  0  0  0
  151.1409  140.6433  156.6270 N   0  0  0  0  0  0  0  0  0  0  0  0
  151.7608  139.5595  156.1192 C   0  0  0  0  0  0  0  0  0  0  0  0
  152.8175  139.0843  156.5311 O   0  0  0  0  0  0  0  0  0  0  0  0
  151.0728  138.9025  154.9224 C   0  0  0  0  0  0  0  0  0  0  0  0
  150.3943  139.8930  154.1646 O   0  0  0  0  0  0  0  0  0  0  0  0
  148.9853  139.7878  154.2728 C   0  0  0  0  0  0  0  0  0  0  0  0
  148.4161  141.1362  154.6590 C   0  0  0  0  0  0  0  0  0  0  0  0
  146.9266  141.3029  154.8587 C   0  0  0  0  0  0  0  0  0  0  0  0
  147.6021  141.9450  153.6742 C   0  0  0  0  0  0  0  0  0  0  0  0
  152.2409  141.0398  158.8837 C   0  0  0  0  0  0  0  0  0  0  0  0
  152.5645  141.9198  159.8519 C   0  0  0  0  0  0  0  0  0  0  0  0
  152.2138  143.3385  159.7528 C   0  0  0  0  0  0  0  0  0  0  0  0
  152.5041  144.1511  160.6313 O   0  0  0  0  0  0  0  0  0  0  0  0
  150.5916  145.2535  157.5009 H   0  0  0  0  0  0  0  0  0  0  0  0
  152.0303  145.7415  158.3855 H   0  0  0  0  0  0  0  0  0  0  0  0
  150.5177  145.4379  159.2461 H   0  0  0  0  0  0  0  0  0  0  0  0
  150.6824  143.1994  156.7697 H   0  0  0  0  0  0  0  0  0  0  0  0
  150.2701  140.8981  156.1837 H   0  0  0  0  0  0  0  0  0  0  0  0
  151.8245  138.4010  154.3113 H   0  0  0  0  0  0  0  0  0  0  0  0
  150.3676  138.1470  155.2732 H   0  0  0  0  0  0  0  0  0  0  0  0
  148.5499  139.4580  153.3279 H   0  0  0  0  0  0  0  0  0  0  0  0
  148.7179  139.0590  155.0392 H   0  0  0  0  0  0  0  0  0  0  0  0
  149.0476  141.7007  155.3425 H   0  0  0  0  0  0  0  0  0  0  0  0
  146.2889  140.4424  154.6659 H   0  0  0  0  0  0  0  0  0  0  0  0
  146.5985  141.9548  155.6658 H   0  0  0  0  0  0  0  0  0  0  0  0
  147.7253  143.0260  153.6903 H   0  0  0  0  0  0  0  0  0  0  0  0
  147.4139  141.5123  152.6935 H   0  0  0  0  0  0  0  0  0  0  0  0
  152.5401  140.0149  159.0281 H   0  0  0  0  0  0  0  0  0  0  0  0
  153.0993  141.5721  160.7234 H   0  0  0  0  0  0  0  0  0  0  0  0
  1  2  1  0  0  0  0
  1 18  1  0  0  0  0
  1 19  1  0  0  0  0
  1 20  1  0  0  0  0
  2 16  1  0  0  0  0
  2  3  1  0  0  0  0
  3  4  2  0  0  0  0
  3 21  1  0  0  0  0
  4  5  1  0  0  0  0
  4 14  1  0  0  0  0
  5  6  1  0  0  0  0
  5 22  1  0  0  0  0
  6  7  2  0  0  0  0
  6  8  1  0  0  0  0
  8  9  1  0  0  0  0
  8 23  1  0  0  0  0
  8 24  1  0  0  0  0
  9 10  1  0  0  0  0
 10 11  1  0  0  0  0
 10 25  1  0  0  0  0
 10 26  1  0  0  0  0
 11 13  1  0  0  0  0
 11 12  1  0  0  0  0
 11 27  1  0  0  0  0
 12 13  1  0  0  0  0
 12 28  1  0  0  0  0
 12 29  1  0  0  0  0
 13 30  1  0  0  0  0
 13 31  1  0  0  0  0
 14 15  2  0  0  0  0
 14 32  1  0  0  0  0
 15 16  1  0  0  0  0
 15 33  1  0  0  0  0
 16 17  2  0  0  0  0
M  END
> <s_m_source_file>
AV-unprocessed.smi

> <i_m_source_file_index>
1477

> <i_lp_mmshare_version>
43012

> <i_f3d_flags>
0

> <s_epik_input>
Tz1jMVtjSF1bY0hdYyhbY0hdbjFbQ0gzXSlbTkhdQyg9TylbQ0gyXU9bQ0gyXVtDSF0yW0NIMl1bQ0gyXTI=

> <s_epik_cmdline>
J2VwaWtfcHl0aG9uJywgJy1waCcsICc3LjAnLCAnLXRuJywgJzgnLCAnLW1hJywgJzIwMCcsICctbWV0YWxfYmluZGluZycsICctaW1hZScsICc8aW5maWxlLm1hZT4nLCAnLW9tYWUnLCAnPG91dGZpbGUubWFlPic=

> <r_lp_tautomer_probability>
1

> <r_epik_Ionization_Penalty>
2.50647e-06

> <r_epik_Ionization_Penalty_Charging>
2.2009e-06

> <r_epik_Ionization_Penalty_Neutral>
3.05566e-07

> <r_epik_State_Penalty>
-0

> <r_epik_Charging_Adjusted_Penalty>
2.2009e-06

> <i_epik_Tot_Q>
0

> <i_epik_Tot_abs_Q>
0

> <r_epik_Metal_State_Penalty>
-0

> <b_epik_Metal_Only>
0

> <s_lp_Force_Field>
OPLS_2005

> <r_lp_Energy>
27.664

> <b_lp_Chiralities_Consistent>
1

> <s_lp_Variant>
AV-unprocessed.smi:1477-1

> <Gold.Version>
5.8.1

> <Gold.Id.Protein>
6NUR|6NUR_protein|mol2

> <Gold.PLP.Fitness>
44.1643

> <Gold.PLP.PLP>
-38.2174

> <Gold.PLP.part.hbond>
-1.9477

> <Gold.PLP.part.metal>
0.0000

> <Gold.PLP.part.buried>
-4.1338

> <Gold.PLP.part.nonpolar>
-32.0306

> <Gold.PLP.part.repulsive>
0.7837

> <Gold.PLP.ligand.clash>
0.0000

> <Gold.PLP.ligand.torsion>
1.6543

> <Gold.PLP.Chemscore.Hbond>
1.9500

> <Gold.PLP.Chemscore.CHOScore>
0.9437

> <Gold.PLP.Chemscore.Metal>
0.0000

> <Gold.Chemscore.Hbonds>
donor molecule, donor type, donor heavy atom, donor atom, acceptor molecule, acceptor atom, score
      P1  H  7989  7998       L1     9  1.00
      P1  H  7997  8009       L1     7  1.00
      L1  C     3    21       P1  8028  0.84

> <Gold.PLP.Chemscore.Internal.Correction>
0.5744

> <Gold.Rescore>
     Score         DG    S(hbond)    S(metal)    S(lipo)     H(rot)  DE(clash)    DE(int)     intcor
     14.87     -16.69       1.75        0.00      80.51       1.58       0.17       1.66       ----

> <Gold.Chemscore.Fitness>
14.8701

> <Gold.Chemscore.DG>
-16.6942

> <Gold.Chemscore.ZeroCoef>
-5.4800

> <Gold.Chemscore.Hbond>
1.7510

> <Gold.Chemscore.Metal>
0.0000

> <Gold.Chemscore.Lipo>
80.5080

> <Gold.Chemscore.Internal_Hbond>
0.0000

> <Gold.Chemscore.DEClash>
0.1669

> <Gold.Chemscore.DEInternal>
1.6572

> <Gold.Chemscore.Rot>
1.5834

> <Gold.Chemscore.Internal.Correction>
   9.000000E+99

> <Gold.Chemscore.Hbonds>
donor molecule, donor type, donor heavy atom, donor atom, acceptor molecule, acceptor atom, score
      P1  H  7989  7998       L1     9  0.55
      P1  H  7997  8009       L1     7  0.94

> <Gold.Chemscore.Hbond.Weighted>
-5.8484

> <Gold.Chemscore.Metal.Weighted>
-0.0000

> <Gold.Chemscore.Lipo.Weighted>
-9.4194

> <Gold.Chemscore.Internal_Hbond.Weighted>
0.0000

> <Gold.Chemscore.DEClash.Weighted>
0.1669

> <Gold.Chemscore.DEInternal.Weighted>
1.6572

> <Gold.Chemscore.Rot.Weighted>
4.0536

> <Gold.Chemscore.Internal.Correction.Weighted>
   9.000000E+99

> <Gold.Protein.RotatedTorsions>
[ 6907 6896 6895 6894 ] final   43.89 input  -60.11 | X-H torsion
[ 7974 7965 7964 7962 ] final -139.41 input  175.53 | X-H torsion
[ 8008 7997 7996 7995 ] final -160.79 input   59.86 | X-H torsion
[ 10167 10162 10161 10158 ] final -144.90 input  -65.29 | X-H torsion
[ 10718 10713 10712 10709 ] final -121.89 input   66.30 | X-H torsion
[ 10763 10752 10751 10750 ] final  141.61 input  -60.55 | X-H torsion
[ 11005 11000 10999 10996 ] final  -97.47 input  -57.11 | X-H torsion

> <Gold.Protein.ActiveResidues>
 VAL166  LYS551  ARG553  GLY616  TRP617  ASP618  TYR619  PRO620  LYS621  CYS622 
 ASP623  PHE694  ASN695  SER759  ASP760  ASP761  ALA762  ILE779  LEU786  VAL792 
 PHE793  MET794  SER795  GLU796  ALA797  LYS798  CYS799  TRP800  GLU811  SER814 

> <Gold.Protein.RotatedAtoms>
  152.2258  134.8370  160.0479 H   0  0  0  0  0  0  0  0  0  0  0  0  # atno 6907 bound_to 6896
  151.9137  133.3562  159.3880 H   0  0  0  0  0  0  0  0  0  0  0  0  # atno 6908 bound_to 6896
  150.7012  134.4631  159.5434 H   0  0  0  0  0  0  0  0  0  0  0  0  # atno 6909 bound_to 6896
  144.8679  140.6321  143.5286 H   0  0  0  0  0  0  0  0  0  0  0  0  # atno 7974 bound_to 7965
  155.7827  140.0867  157.2051 H   0  0  0  0  0  0  0  0  0  0  0  0  # atno 8008 bound_to 7997
  154.3989  140.1505  156.3128 H   0  0  0  0  0  0  0  0  0  0  0  0  # atno 8009 bound_to 7997
  155.8638  140.3429  155.5777 H   0  0  0  0  0  0  0  0  0  0  0  0  # atno 8010 bound_to 7997
  139.7856  143.8039  152.2644 H   0  0  0  0  0  0  0  0  0  0  0  0  # atno 10167 bound_to 10162
  156.1374  130.6440  150.9717 H   0  0  0  0  0  0  0  0  0  0  0  0  # atno 10718 bound_to 10713
  153.9421  135.2979  155.3442 H   0  0  0  0  0  0  0  0  0  0  0  0  # atno 10763 bound_to 10752
  154.7471  135.4997  153.9227 H   0  0  0  0  0  0  0  0  0  0  0  0  # atno 10764 bound_to 10752
  153.1037  135.6741  153.9733 H   0  0  0  0  0  0  0  0  0  0  0  0  # atno 10765 bound_to 10752
  141.1378  133.8173  157.0711 H   0  0  0  0  0  0  0  0  0  0  0  0  # atno 11005 bound_to 11000
  145.4186  139.1567  143.4086 LP  0  0  0  0  0  0  0  0  0  0  0  0  # atno 17320 bound_to 7965
  146.2909  140.4295  142.8740 LP  0  0  0  0  0  0  0  0  0  0  0  0  # atno 17321 bound_to 7965
  139.8115  144.7334  150.9691 LP  0  0  0  0  0  0  0  0  0  0  0  0  # atno 17342 bound_to 10162
  140.7819  143.4246  151.0788 LP  0  0  0  0  0  0  0  0  0  0  0  0  # atno 17343 bound_to 10162
  157.6544  131.0892  150.7979 LP  0  0  0  0  0  0  0  0  0  0  0  0  # atno 17370 bound_to 10713
  156.8058  130.4936  149.5363 LP  0  0  0  0  0  0  0  0  0  0  0  0  # atno 17371 bound_to 10713
  140.0511  134.9805  157.1137 LP  0  0  0  0  0  0  0  0  0  0  0  0  # atno 17394 bound_to 11000
  140.3989  134.2104  155.7164 LP  0  0  0  0  0  0  0  0  0  0  0  0  # atno 17395 bound_to 11000

$$$$
