AV-unprocessed.smi:20|AV-procd|sdf|119|dock1
  -GOLD-   2262015293D 1   1.00000     0.00000
 Structure written by MMmdl.
 57 61  0  0  0  0  0  0  0  0  1 V2000
  149.7040  131.7745  165.7477 O   0  0  0  0  0  0  0  0  0  0  0  0
  149.0569  132.3385  164.8687 C   0  0  0  0  0  0  0  0  0  0  0  0
  148.1431  131.6128  163.8948 C   0  0  0  0  0  0  0  0  0  0  0  0
  147.8896  132.6643  162.7932 C   0  0  2  0  0  0  0  0  0  0  0  0
  146.4542  132.5740  162.2256 C   0  0  0  0  0  0  0  0  0  0  0  0
  146.2475  133.5443  161.0510 C   0  0  0  0  0  0  0  0  0  0  0  0
  147.3046  133.3196  159.9606 C   0  0  0  0  0  0  0  0  0  0  0  0
  148.6490  133.3901  160.5277 N   0  0  0  0  0  0  0  0  0  0  0  0
  149.6425  133.5941  159.6271 C   0  0  0  0  0  0  0  0  0  0  0  0
  150.3783  132.5423  159.1785 N   0  0  0  0  0  0  0  0  0  0  0  0
  151.3533  132.7340  158.2852 C   0  0  0  0  0  0  0  0  0  0  0  0
  151.7583  133.8747  157.7244 N   0  0  0  0  0  0  0  0  0  0  0  0
  151.0338  134.9359  158.1804 C   0  0  0  0  0  0  0  0  0  0  0  0
  149.9637  134.8835  159.1178 C   0  0  0  0  0  0  0  0  0  0  0  0
  149.4645  136.1618  159.3382 N   0  0  0  0  0  0  0  0  0  0  0  0
  150.1914  136.9250  158.5690 C   0  0  0  0  0  0  0  0  0  0  0  0
  151.1757  136.2753  157.8579 N   0  0  0  0  0  0  0  0  0  0  0  0
  152.1163  136.8840  156.9321 C   0  0  0  0  0  0  0  0  0  0  0  0
  151.6487  138.2241  156.2967 C   0  0  1  0  0  0  0  0  0  0  0  0
  152.8862  138.9918  155.7712 C   0  0  0  0  0  0  0  0  0  0  0  0
  152.5227  140.2405  155.2190 O   0  0  0  0  0  0  0  0  0  0  0  0
  150.5855  138.0473  155.1712 C   0  0  1  0  0  0  0  0  0  0  0  0
  150.9762  137.1460  154.0087 C   0  0  0  0  0  0  0  0  0  0  0  0
  149.6308  136.7960  153.3856 C   0  0  0  0  0  0  0  0  0  0  0  0
  148.7070  136.7651  154.4640 O   0  0  0  0  0  0  0  0  0  0  0  0
  149.2989  137.3400  155.6232 C   0  0  0  0  0  0  0  0  0  0  0  0
  148.9095  132.4735  161.6395 C   0  0  0  0  0  0  0  0  0  0  0  0
  148.1566  133.9998  163.5324 C   0  0  0  0  0  0  0  0  0  0  0  0
  149.0422  133.6470  164.6248 N   0  0  0  0  0  0  0  0  0  0  0  0
  148.6004  130.6977  163.5163 H   0  0  0  0  0  0  0  0  0  0  0  0
  147.2241  131.3442  164.4175 H   0  0  0  0  0  0  0  0  0  0  0  0
  146.2639  131.5559  161.8832 H   0  0  0  0  0  0  0  0  0  0  0  0
  145.7197  132.7745  163.0065 H   0  0  0  0  0  0  0  0  0  0  0  0
  145.2490  133.4167  160.6321 H   0  0  0  0  0  0  0  0  0  0  0  0
  146.3032  134.5738  161.4066 H   0  0  0  0  0  0  0  0  0  0  0  0
  147.1684  132.3367  159.5077 H   0  0  0  0  0  0  0  0  0  0  0  0
  147.1661  134.0510  159.1649 H   0  0  0  0  0  0  0  0  0  0  0  0
  151.8864  131.8465  157.9770 H   0  0  0  0  0  0  0  0  0  0  0  0
  150.0390  137.9929  158.5125 H   0  0  0  0  0  0  0  0  0  0  0  0
  153.0440  137.0276  157.4865 H   0  0  0  0  0  0  0  0  0  0  0  0
  152.3441  136.1642  156.1449 H   0  0  0  0  0  0  0  0  0  0  0  0
  151.2005  138.8428  157.0747 H   0  0  0  0  0  0  0  0  0  0  0  0
  153.6128  139.1475  156.5693 H   0  0  0  0  0  0  0  0  0  0  0  0
  153.3943  138.4424  154.9801 H   0  0  0  0  0  0  0  0  0  0  0  0
  153.1874  140.8734  155.4437 H   0  0  0  0  0  0  0  0  0  0  0  0
  150.3166  139.0272  154.7732 H   0  0  0  0  0  0  0  0  0  0  0  0
  151.6291  137.6251  153.2816 H   0  0  0  0  0  0  0  0  0  0  0  0
  151.4678  136.2420  154.3721 H   0  0  0  0  0  0  0  0  0  0  0  0
  149.3219  137.5741  152.6866 H   0  0  0  0  0  0  0  0  0  0  0  0
  149.6532  135.8467  152.8496 H   0  0  0  0  0  0  0  0  0  0  0  0
  149.5269  136.5324  156.3204 H   0  0  0  0  0  0  0  0  0  0  0  0
  148.5990  138.0184  156.1114 H   0  0  0  0  0  0  0  0  0  0  0  0
  149.9241  132.6204  162.0135 H   0  0  0  0  0  0  0  0  0  0  0  0
  148.8562  131.4511  161.2626 H   0  0  0  0  0  0  0  0  0  0  0  0
  148.6029  134.7630  162.8941 H   0  0  0  0  0  0  0  0  0  0  0  0
  147.2405  134.4145  163.9553 H   0  0  0  0  0  0  0  0  0  0  0  0
  149.5727  134.3314  165.1444 H   0  0  0  0  0  0  0  0  0  0  0  0
  1  2  2  0  0  0  0
  2 29  1  0  0  0  0
  2  3  1  0  0  0  0
  3  4  1  0  0  0  0
  3 30  1  0  0  0  0
  3 31  1  0  0  0  0
  4 27  1  0  0  0  0
  4  5  1  0  0  0  0
  4 28  1  0  0  0  0
  5  6  1  0  0  0  0
  5 32  1  0  0  0  0
  5 33  1  0  0  0  0
  6  7  1  0  0  0  0
  6 34  1  0  0  0  0
  6 35  1  0  0  0  0
  7  8  1  0  0  0  0
  7 36  1  0  0  0  0
  7 37  1  0  0  0  0
  8  9  1  0  0  0  0
  8 27  1  0  0  0  0
  9 14  1  0  0  0  0
  9 10  2  0  0  0  0
 10 11  1  0  0  0  0
 11 12  2  0  0  0  0
 11 38  1  0  0  0  0
 12 13  1  0  0  0  0
 13 17  1  0  0  0  0
 13 14  2  0  0  0  0
 14 15  1  0  0  0  0
 15 16  2  0  0  0  0
 16 17  1  0  0  0  0
 16 39  1  0  0  0  0
 17 18  1  0  0  0  0
 18 19  1  0  0  0  0
 18 40  1  0  0  0  0
 18 41  1  0  0  0  0
 19 20  1  0  0  0  0
 19 22  1  0  0  0  0
 19 42  1  0  0  0  0
 20 21  1  0  0  0  0
 20 43  1  0  0  0  0
 20 44  1  0  0  0  0
 21 45  1  0  0  0  0
 22 26  1  0  0  0  0
 22 23  1  0  0  0  0
 22 46  1  0  0  0  0
 23 24  1  0  0  0  0
 23 47  1  0  0  0  0
 23 48  1  0  0  0  0
 24 25  1  0  0  0  0
 24 49  1  0  0  0  0
 24 50  1  0  0  0  0
 25 26  1  0  0  0  0
 26 51  1  0  0  0  0
 26 52  1  0  0  0  0
 27 53  1  0  0  0  0
 27 54  1  0  0  0  0
 28 29  1  0  0  0  0
 28 55  1  0  0  0  0
 28 56  1  0  0  0  0
 29 57  1  0  0  0  0
M  END
> <s_m_source_file>
AV-unprocessed.smi

> <i_m_source_file_index>
20

> <i_lp_mmshare_version>
43012

> <i_f3d_flags>
0

> <s_epik_input>
W0NIMl0xW05IXUMoPU8pW0NIMl1bQ0BAXTEyW0NIMl1bQ0gyXVtDSDJdTihbQ0gyXTIpYyhuW2NIXW4zKWMoYzM0KW5bY0hdbjRbQ0gyXVtDQEhdKFtDSDJdW09IXSlbQ0BASF01W0NIMl1bQ0gyXU9bQ0gyXTU=

> <s_epik_cmdline>
J2VwaWtfcHl0aG9uJywgJy1waCcsICc3LjAnLCAnLXRuJywgJzgnLCAnLW1hJywgJzIwMCcsICctbWV0YWxfYmluZGluZycsICctaW1hZScsICc8aW5maWxlLm1hZT4nLCAnLW9tYWUnLCAnPG91dGZpbGUubWFlPic=

> <r_lp_tautomer_probability>
1

> <r_epik_Ionization_Penalty>
0.0019697

> <r_epik_Ionization_Penalty_Charging>
0

> <r_epik_Ionization_Penalty_Neutral>
0.0019697

> <r_epik_State_Penalty>
0.00113613

> <r_epik_Charging_Adjusted_Penalty>
0.00113613

> <i_epik_Tot_Q>
0

> <i_epik_Tot_abs_Q>
0

> <r_epik_Metal_State_Penalty>
-0

> <b_epik_Metal_Only>
0

> <s_lp_Force_Field>
OPLS_2005

> <r_lp_Energy>
59.3743

> <b_lp_Chiralities_Consistent>
1

> <s_lp_Variant>
AV-unprocessed.smi:20-7

> <Gold.Version>
5.8.1

> <Gold.Id.Protein>
6NUR|6NUR_protein|mol2

> <Gold.PLP.Fitness>
46.5231

> <Gold.PLP.PLP>
-42.1709

> <Gold.PLP.part.hbond>
-2.0000

> <Gold.PLP.part.metal>
0.0000

> <Gold.PLP.part.buried>
-5.8953

> <Gold.PLP.part.nonpolar>
-34.6615

> <Gold.PLP.part.repulsive>
0.0784

> <Gold.PLP.ligand.clash>
0.0000

> <Gold.PLP.ligand.torsion>
1.0672

> <Gold.PLP.Chemscore.Hbond>
1.9920

> <Gold.PLP.Chemscore.CHOScore>
0.0000

> <Gold.PLP.Chemscore.Metal>
0.0000

> <Gold.Chemscore.Hbonds>
donor molecule, donor type, donor heavy atom, donor atom, acceptor molecule, acceptor atom, score
      P1  H  7989  7998       L1    21  0.51

> <Gold.PLP.Chemscore.Internal.Correction>
0.5106

> <Gold.Rescore>
     Score         DG    S(hbond)    S(metal)    S(lipo)     H(rot)  DE(clash)    DE(int)     intcor
     14.59     -15.67       1.74        0.00      97.52       2.74       0.06       1.01       ----

> <Gold.Chemscore.Fitness>
14.5941

> <Gold.Chemscore.DG>
-15.6666

> <Gold.Chemscore.ZeroCoef>
-5.4800

> <Gold.Chemscore.Hbond>
1.7351

> <Gold.Chemscore.Metal>
0.0000

> <Gold.Chemscore.Lipo>
97.5170

> <Gold.Chemscore.Internal_Hbond>
0.0000

> <Gold.Chemscore.DEClash>
0.0625

> <Gold.Chemscore.DEInternal>
1.0100

> <Gold.Chemscore.Rot>
2.7415

> <Gold.Chemscore.Internal.Correction>
   9.000000E+99

> <Gold.Chemscore.Hbonds>
donor molecule, donor type, donor heavy atom, donor atom, acceptor molecule, acceptor atom, score
      P1  H  7989  7998       L1    21  0.27

> <Gold.Chemscore.Hbond.Weighted>
-5.7953

> <Gold.Chemscore.Metal.Weighted>
-0.0000

> <Gold.Chemscore.Lipo.Weighted>
-11.4095

> <Gold.Chemscore.Internal_Hbond.Weighted>
0.0000

> <Gold.Chemscore.DEClash.Weighted>
0.0625

> <Gold.Chemscore.DEInternal.Weighted>
1.0100

> <Gold.Chemscore.Rot.Weighted>
7.0182

> <Gold.Chemscore.Internal.Correction.Weighted>
   9.000000E+99

> <Gold.Protein.RotatedTorsions>
[ 6907 6896 6895 6894 ] final   62.03 input  -60.11 | X-H torsion
[ 7974 7965 7964 7962 ] final  175.07 input  175.53 | X-H torsion
[ 8008 7997 7996 7995 ] final  -11.84 input   59.86 | X-H torsion
[ 10167 10162 10161 10158 ] final  -73.37 input  -65.29 | X-H torsion
[ 10718 10713 10712 10709 ] final  -18.07 input   66.30 | X-H torsion
[ 10763 10752 10751 10750 ] final  -55.71 input  -60.55 | X-H torsion
[ 11005 11000 10999 10996 ] final -102.07 input  -57.11 | X-H torsion

> <Gold.Protein.ActiveResidues>
 VAL166  LYS551  ARG553  GLY616  TRP617  ASP618  TYR619  PRO620  LYS621  CYS622 
 ASP623  PHE694  ASN695  SER759  ASP760  ASP761  ALA762  ILE779  LEU786  VAL792 
 PHE793  MET794  SER795  GLU796  ALA797  LYS798  CYS799  TRP800  GLU811  SER814 

> <Gold.Protein.RotatedAtoms>
  152.4138  134.6077  160.0016 H   0  0  0  0  0  0  0  0  0  0  0  0  # atno 6907 bound_to 6896
  151.6246  133.3331  159.3103 H   0  0  0  0  0  0  0  0  0  0  0  0  # atno 6908 bound_to 6896
  150.8028  134.7173  159.6682 H   0  0  0  0  0  0  0  0  0  0  0  0  # atno 6909 bound_to 6896
  144.7209  139.9892  143.6439 H   0  0  0  0  0  0  0  0  0  0  0  0  # atno 7974 bound_to 7965
  154.5429  140.2292  155.8611 H   0  0  0  0  0  0  0  0  0  0  0  0  # atno 8008 bound_to 7997
  156.1876  140.3085  155.9230 H   0  0  0  0  0  0  0  0  0  0  0  0  # atno 8009 bound_to 7997
  155.3222  140.0441  157.3030 H   0  0  0  0  0  0  0  0  0  0  0  0  # atno 8010 bound_to 7997
  140.5115  143.2344  151.7584 H   0  0  0  0  0  0  0  0  0  0  0  0  # atno 10167 bound_to 10162
  156.5647  130.4734  149.6390 H   0  0  0  0  0  0  0  0  0  0  0  0  # atno 10718 bound_to 10713
  154.1951  135.6420  153.5071 H   0  0  0  0  0  0  0  0  0  0  0  0  # atno 10763 bound_to 10752
  153.0025  135.5438  154.6374 H   0  0  0  0  0  0  0  0  0  0  0  0  # atno 10764 bound_to 10752
  154.5773  135.2922  155.0741 H   0  0  0  0  0  0  0  0  0  0  0  0  # atno 10765 bound_to 10752
  141.1204  133.8529  157.1313 H   0  0  0  0  0  0  0  0  0  0  0  0  # atno 11005 bound_to 11000
  146.0425  139.3435  143.0688 LP  0  0  0  0  0  0  0  0  0  0  0  0  # atno 17320 bound_to 7965
  145.8317  140.9627  143.0846 LP  0  0  0  0  0  0  0  0  0  0  0  0  # atno 17321 bound_to 7965
  139.4897  144.4383  151.9793 LP  0  0  0  0  0  0  0  0  0  0  0  0  # atno 17342 bound_to 10162
  140.3476  144.3128  150.5955 LP  0  0  0  0  0  0  0  0  0  0  0  0  # atno 17343 bound_to 10162
  156.2768  130.7048  151.1861 LP  0  0  0  0  0  0  0  0  0  0  0  0  # atno 17370 bound_to 10713
  157.7361  131.0565  150.5432 LP  0  0  0  0  0  0  0  0  0  0  0  0  # atno 17371 bound_to 10713
  140.0158  134.9968  157.0489 LP  0  0  0  0  0  0  0  0  0  0  0  0  # atno 17394 bound_to 11000
  140.4523  134.1569  155.7183 LP  0  0  0  0  0  0  0  0  0  0  0  0  # atno 17395 bound_to 11000

$$$$
