AV-unprocessed.smi:2882|AV-procd|sdf|11072|dock4
  -GOLD-   2272015543D 1   1.00000     0.00000
 Structure written by MMmdl.
 28 30  0  0  0  0  0  0  0  0  1 V2000
  154.0744  137.9123  158.0508 N   0  0  0  0  0  0  0  0  0  0  0  0
  153.3159  138.0918  157.1954 C   0  0  0  0  0  0  0  0  0  0  0  0
  152.3597  138.3182  156.1190 C   0  0  0  0  0  0  0  0  0  0  0  0
  152.0027  137.2386  155.3854 N   0  0  0  0  0  0  0  0  0  0  0  0
  151.1219  137.4371  154.3818 C   0  0  0  0  0  0  0  0  0  0  0  0
  150.5928  138.7129  154.1064 C   0  0  0  0  0  0  0  0  0  0  0  0
  150.9428  139.7949  154.8333 N   0  0  0  0  0  0  0  0  0  0  0  0
  151.8295  139.6101  155.8431 C   0  0  0  0  0  0  0  0  0  0  0  0
  152.2035  140.7284  156.6103 N   0  0  0  0  0  0  0  0  0  0  0  0
  151.8624  140.8185  158.0268 C   0  0  1  0  0  0  0  0  0  0  0  0
  153.0607  141.1790  158.9080 C   0  0  0  0  0  0  0  0  0  0  0  0
  152.5330  142.3997  159.6754 C   0  0  1  0  0  0  0  0  0  0  0  0
  152.4877  143.6487  158.7857 C   0  0  0  0  0  0  0  0  0  0  0  0
  151.3057  143.3346  157.8708 C   0  0  0  0  0  0  0  0  0  0  0  0
  150.8715  141.9477  158.3756 C   0  0  2  0  0  0  0  0  0  0  0  0
  151.1515  142.0911  159.7580 O   0  0  0  0  0  0  0  0  0  0  0  0
  150.8376  136.5752  153.7965 H   0  0  0  0  0  0  0  0  0  0  0  0
  149.8879  138.8653  153.3025 H   0  0  0  0  0  0  0  0  0  0  0  0
  152.4411  141.5846  156.1306 H   0  0  0  0  0  0  0  0  0  0  0  0
  151.4608  139.8623  158.3653 H   0  0  0  0  0  0  0  0  0  0  0  0
  153.2861  140.3586  159.5902 H   0  0  0  0  0  0  0  0  0  0  0  0
  153.9677  141.4096  158.3469 H   0  0  0  0  0  0  0  0  0  0  0  0
  153.0176  142.5609  160.6386 H   0  0  0  0  0  0  0  0  0  0  0  0
  152.2859  144.5418  159.3781 H   0  0  0  0  0  0  0  0  0  0  0  0
  153.4184  143.8038  158.2390 H   0  0  0  0  0  0  0  0  0  0  0  0
  150.5077  144.0625  158.0224 H   0  0  0  0  0  0  0  0  0  0  0  0
  151.5705  143.3435  156.8132 H   0  0  0  0  0  0  0  0  0  0  0  0
  149.8308  141.7072  158.1574 H   0  0  0  0  0  0  0  0  0  0  0  0
  1  2  3  0  0  0  0
  2  3  1  0  0  0  0
  3  8  1  0  0  0  0
  3  4  2  0  0  0  0
  4  5  1  0  0  0  0
  5  6  2  0  0  0  0
  5 17  1  0  0  0  0
  6  7  1  0  0  0  0
  6 18  1  0  0  0  0
  7  8  2  0  0  0  0
  8  9  1  0  0  0  0
  9 10  1  0  0  0  0
  9 19  1  0  0  0  0
 10 15  1  0  0  0  0
 10 11  1  0  0  0  0
 10 20  1  0  0  0  0
 11 12  1  0  0  0  0
 11 21  1  0  0  0  0
 11 22  1  0  0  0  0
 12 16  1  0  0  0  0
 12 13  1  0  0  0  0
 12 23  1  0  0  0  0
 13 14  1  0  0  0  0
 13 24  1  0  0  0  0
 13 25  1  0  0  0  0
 14 15  1  0  0  0  0
 14 26  1  0  0  0  0
 14 27  1  0  0  0  0
 15 16  1  0  0  0  0
 15 28  1  0  0  0  0
M  END
> <s_m_source_file>
AV-unprocessed.smi

> <i_m_source_file_index>
2882

> <i_lp_mmshare_version>
43012

> <i_f3d_flags>
0

> <s_epik_input>
TiNDYzFuW2NIXVtjSF1uYzFbTkhdW0NASF0oW0NIMl1bQ0BASF0yMylbQ0BASF0oTzMpW0NIMl1bQ0gyXTI=

> <s_epik_cmdline>
J2VwaWtfcHl0aG9uJywgJy1waCcsICc3LjAnLCAnLXRuJywgJzgnLCAnLW1hJywgJzIwMCcsICctbWV0YWxfYmluZGluZycsICctaW1hZScsICc8aW5maWxlLm1hZT4nLCAnLW9tYWUnLCAnPG91dGZpbGUubWFlPic=

> <r_lp_tautomer_probability>
1

> <r_epik_Ionization_Penalty>
4.95445e-05

> <r_epik_Ionization_Penalty_Charging>
0

> <r_epik_Ionization_Penalty_Neutral>
4.95445e-05

> <r_epik_State_Penalty>
-0

> <r_epik_Charging_Adjusted_Penalty>
0

> <i_epik_Tot_Q>
0

> <i_epik_Tot_abs_Q>
0

> <r_epik_Metal_State_Penalty>
-0

> <b_epik_Metal_Only>
0

> <s_lp_Force_Field>
OPLS_2005

> <r_lp_Energy>
50.4858

> <b_lp_Chiralities_Consistent>
1

> <s_lp_Variant>
AV-unprocessed.smi:2882-2

> <Gold.Version>
5.8.1

> <Gold.Id.Protein>
6NUR|6NUR_protein|mol2

> <Gold.PLP.Fitness>
38.7541

> <Gold.PLP.PLP>
-28.4191

> <Gold.PLP.part.hbond>
-3.1995

> <Gold.PLP.part.metal>
0.0000

> <Gold.PLP.part.buried>
-0.4714

> <Gold.PLP.part.nonpolar>
-23.9419

> <Gold.PLP.part.repulsive>
0.6146

> <Gold.PLP.ligand.clash>
0.0000

> <Gold.PLP.ligand.torsion>
0.6806

> <Gold.PLP.Chemscore.Hbond>
1.9199

> <Gold.PLP.Chemscore.CHOScore>
1.9755

> <Gold.PLP.Chemscore.Metal>
0.0000

> <Gold.Chemscore.Hbonds>
donor molecule, donor type, donor heavy atom, donor atom, acceptor molecule, acceptor atom, score
      P1  H  7989  7998       L1     7  1.00
      P1  H 10752 10764       L1     4  0.90
      L1  C     5    17       P1  7948  0.15
      L1  C     5    17       P1  7949  0.83
      L1  C     6    18       P1  7957  1.00

> <Gold.PLP.Chemscore.Internal.Correction>
0.0100

> <Gold.Rescore>
     Score         DG    S(hbond)    S(metal)    S(lipo)     H(rot)  DE(clash)    DE(int)     intcor
     13.23     -14.41       0.79        0.00      75.72       1.00       0.48       0.69       ----

> <Gold.Chemscore.Fitness>
13.2340

> <Gold.Chemscore.DG>
-14.4052

> <Gold.Chemscore.ZeroCoef>
-5.4800

> <Gold.Chemscore.Hbond>
0.7864

> <Gold.Chemscore.Metal>
0.0000

> <Gold.Chemscore.Lipo>
75.7163

> <Gold.Chemscore.Internal_Hbond>
0.0000

> <Gold.Chemscore.DEClash>
0.4850

> <Gold.Chemscore.DEInternal>
0.6863

> <Gold.Chemscore.Rot>
1.0000

> <Gold.Chemscore.Internal.Correction>
   9.000000E+99

> <Gold.Chemscore.Hbonds>
donor molecule, donor type, donor heavy atom, donor atom, acceptor molecule, acceptor atom, score
      P1  H  7989  7998       L1     7  0.21
      P1  H 10752 10764       L1     4  0.29

> <Gold.Chemscore.Hbond.Weighted>
-2.6264

> <Gold.Chemscore.Metal.Weighted>
-0.0000

> <Gold.Chemscore.Lipo.Weighted>
-8.8588

> <Gold.Chemscore.Internal_Hbond.Weighted>
0.0000

> <Gold.Chemscore.DEClash.Weighted>
0.4850

> <Gold.Chemscore.DEInternal.Weighted>
0.6863

> <Gold.Chemscore.Rot.Weighted>
2.5600

> <Gold.Chemscore.Internal.Correction.Weighted>
   9.000000E+99

> <Gold.Protein.RotatedTorsions>
[ 6907 6896 6895 6894 ] final -112.46 input  -60.11 | X-H torsion
[ 7974 7965 7964 7962 ] final  151.95 input  175.53 | X-H torsion
[ 8008 7997 7996 7995 ] final -127.83 input   59.86 | X-H torsion
[ 10167 10162 10161 10158 ] final -153.79 input  -65.29 | X-H torsion
[ 10718 10713 10712 10709 ] final  112.99 input   66.30 | X-H torsion
[ 10763 10752 10751 10750 ] final  -50.67 input  -60.55 | X-H torsion
[ 11005 11000 10999 10996 ] final  153.46 input  -57.11 | X-H torsion

> <Gold.Protein.ActiveResidues>
 VAL166  LYS551  ARG553  GLY616  TRP617  ASP618  TYR619  PRO620  LYS621  CYS622 
 ASP623  PHE694  ASN695  SER759  ASP760  ASP761  ALA762  ILE779  LEU786  VAL792 
 PHE793  MET794  SER795  GLU796  ALA797  LYS798  CYS799  TRP800  GLU811  SER814 

> <Gold.Protein.RotatedAtoms>
  150.7760  133.9086  159.3362 H   0  0  0  0  0  0  0  0  0  0  0  0  # atno 6907 bound_to 6896
  151.6960  135.0936  160.0252 H   0  0  0  0  0  0  0  0  0  0  0  0  # atno 6908 bound_to 6896
  152.3796  133.6490  159.6186 H   0  0  0  0  0  0  0  0  0  0  0  0  # atno 6909 bound_to 6896
  144.8256  139.6604  143.6081 H   0  0  0  0  0  0  0  0  0  0  0  0  # atno 7974 bound_to 7965
  155.2527  140.0433  157.2988 H   0  0  0  0  0  0  0  0  0  0  0  0  # atno 8008 bound_to 7997
  154.5759  140.2387  155.8093 H   0  0  0  0  0  0  0  0  0  0  0  0  # atno 8009 bound_to 7997
  156.2157  140.2985  155.9843 H   0  0  0  0  0  0  0  0  0  0  0  0  # atno 8010 bound_to 7997
  139.7067  143.9174  152.2451 H   0  0  0  0  0  0  0  0  0  0  0  0  # atno 10167 bound_to 10162
  157.6363  131.0976  150.6975 H   0  0  0  0  0  0  0  0  0  0  0  0  # atno 10718 bound_to 10713
  154.1142  135.6544  153.4891 H   0  0  0  0  0  0  0  0  0  0  0  0  # atno 10763 bound_to 10752
  153.0246  135.5255  154.7161 H   0  0  0  0  0  0  0  0  0  0  0  0  # atno 10764 bound_to 10752
  154.6350  135.2981  155.0141 H   0  0  0  0  0  0  0  0  0  0  0  0  # atno 10765 bound_to 10752
  140.1400  134.8745  157.2318 H   0  0  0  0  0  0  0  0  0  0  0  0  # atno 11005 bound_to 11000
  146.2561  139.6306  142.9393 LP  0  0  0  0  0  0  0  0  0  0  0  0  # atno 17320 bound_to 7965
  145.5007  141.0437  143.2542 LP  0  0  0  0  0  0  0  0  0  0  0  0  # atno 17321 bound_to 7965
  139.9032  144.6900  150.8642 LP  0  0  0  0  0  0  0  0  0  0  0  0  # atno 17342 bound_to 10162
  140.7723  143.3498  151.2037 LP  0  0  0  0  0  0  0  0  0  0  0  0  # atno 17343 bound_to 10162
  156.7306  130.4708  149.5500 LP  0  0  0  0  0  0  0  0  0  0  0  0  # atno 17370 bound_to 10713
  156.1604  130.6370  151.0712 LP  0  0  0  0  0  0  0  0  0  0  0  0  # atno 17371 bound_to 10713
  140.2734  134.3434  155.7366 LP  0  0  0  0  0  0  0  0  0  0  0  0  # atno 17394 bound_to 11000
  141.2184  133.7436  156.9256 LP  0  0  0  0  0  0  0  0  0  0  0  0  # atno 17395 bound_to 11000

$$$$
