AV-unprocessed.smi:216|AV-procd|sdf|1658|dock5
  -GOLD-   2262020 53D 1   1.00000     0.00000
 Structure written by MMmdl.
 65 69  0  0  0  0  0  0  0  0  1 V2000
  142.6886  134.3806  163.3415 C   0  0  0  0  0  0  0  0  0  0  0  0
  143.1927  134.5837  161.8963 C   0  0  2  0  0  0  0  0  0  0  0  0
  142.7458  133.3922  161.0250 C   0  0  0  0  0  0  0  0  0  0  0  0
  143.1229  133.5978  159.5557 C   0  0  0  0  0  0  0  0  0  0  0  0
  144.5498  133.8788  159.4254 N   0  0  0  0  0  0  0  0  0  0  0  0
  145.0828  133.7977  158.1786 C   0  0  0  0  0  0  0  0  0  0  0  0
  145.7733  132.6862  157.8056 N   0  0  0  0  0  0  0  0  0  0  0  0
  146.2989  132.5949  156.5809 C   0  0  0  0  0  0  0  0  0  0  0  0
  146.2532  133.4817  155.5860 N   0  0  0  0  0  0  0  0  0  0  0  0
  145.5616  134.5991  155.9501 C   0  0  0  0  0  0  0  0  0  0  0  0
  144.9544  134.8386  157.2157 C   0  0  0  0  0  0  0  0  0  0  0  0
  144.3633  136.0956  157.2228 N   0  0  0  0  0  0  0  0  0  0  0  0
  144.5954  136.5664  156.0288 C   0  0  0  0  0  0  0  0  0  0  0  0
  145.2958  135.7270  155.1922 N   0  0  0  0  0  0  0  0  0  0  0  0
  145.6915  136.0011  153.8179 C   0  0  0  0  0  0  0  0  0  0  0  0
  144.6493  135.5812  152.7387 C   0  0  0  0  0  0  0  0  0  0  0  0
  143.3222  136.3759  152.9078 C   0  0  0  0  0  0  0  0  0  0  0  0
  143.4694  137.7417  152.5740 O   0  0  0  0  0  0  0  0  0  0  0  0
  145.2746  135.8175  151.3408 C   0  0  0  0  0  0  0  0  0  0  0  0
  144.4653  135.1714  150.2020 C   0  0  0  0  0  0  0  0  0  0  0  0
  144.3210  133.7780  150.4422 O   0  0  0  0  0  0  0  0  0  0  0  0
  143.6044  133.4972  151.6371 C   0  0  0  0  0  0  0  0  0  0  0  0
  144.3601  134.0631  152.8534 C   0  0  0  0  0  0  0  0  0  0  0  0
  145.0188  135.0207  160.2111 C   0  0  0  0  0  0  0  0  0  0  0  0
  144.7268  134.8731  161.7351 C   0  0  0  0  0  0  0  0  0  0  0  0
  145.0878  136.2154  162.4352 C   0  0  0  0  0  0  0  0  0  0  0  0
  146.5943  136.5330  162.4344 C   0  0  0  0  0  0  0  0  0  0  0  0
  147.3973  135.3939  163.0748 C   0  0  0  0  0  0  0  0  0  0  0  0
  147.1086  134.0587  162.3777 C   0  0  0  0  0  0  0  0  0  0  0  0
  145.6013  133.7431  162.3576 C   0  0  0  0  0  0  0  0  0  0  0  0
  143.1103  133.4884  163.8029 H   0  0  0  0  0  0  0  0  0  0  0  0
  141.6055  134.2560  163.3502 H   0  0  0  0  0  0  0  0  0  0  0  0
  142.9036  135.2301  163.9870 H   0  0  0  0  0  0  0  0  0  0  0  0
  142.6653  135.4596  161.5149 H   0  0  0  0  0  0  0  0  0  0  0  0
  143.1895  132.4667  161.3928 H   0  0  0  0  0  0  0  0  0  0  0  0
  141.6661  133.2588  161.0983 H   0  0  0  0  0  0  0  0  0  0  0  0
  142.8611  132.7048  158.9862 H   0  0  0  0  0  0  0  0  0  0  0  0
  142.5509  134.4282  159.1390 H   0  0  0  0  0  0  0  0  0  0  0  0
  146.8313  131.6797  156.3682 H   0  0  0  0  0  0  0  0  0  0  0  0
  144.2565  137.5452  155.7219 H   0  0  0  0  0  0  0  0  0  0  0  0
  145.9065  137.0677  153.7391 H   0  0  0  0  0  0  0  0  0  0  0  0
  146.6434  135.4990  153.6388 H   0  0  0  0  0  0  0  0  0  0  0  0
  142.5284  135.9708  152.2826 H   0  0  0  0  0  0  0  0  0  0  0  0
  142.9558  136.3090  153.9322 H   0  0  0  0  0  0  0  0  0  0  0  0
  143.4989  137.8193  151.6323 H   0  0  0  0  0  0  0  0  0  0  0  0
  145.3996  136.8833  151.1474 H   0  0  0  0  0  0  0  0  0  0  0  0
  146.2795  135.3934  151.3187 H   0  0  0  0  0  0  0  0  0  0  0  0
  143.4876  135.6399  150.0859 H   0  0  0  0  0  0  0  0  0  0  0  0
  144.9881  135.3066  149.2552 H   0  0  0  0  0  0  0  0  0  0  0  0
  142.5914  133.8947  151.5721 H   0  0  0  0  0  0  0  0  0  0  0  0
  143.5067  132.4159  151.7355 H   0  0  0  0  0  0  0  0  0  0  0  0
  145.3027  133.5213  152.9430 H   0  0  0  0  0  0  0  0  0  0  0  0
  143.7972  133.8455  153.7615 H   0  0  0  0  0  0  0  0  0  0  0  0
  146.0790  135.1910  160.0364 H   0  0  0  0  0  0  0  0  0  0  0  0
  144.5133  135.9090  159.8296 H   0  0  0  0  0  0  0  0  0  0  0  0
  144.5430  137.0392  161.9730 H   0  0  0  0  0  0  0  0  0  0  0  0
  144.7706  136.1968  163.4763 H   0  0  0  0  0  0  0  0  0  0  0  0
  146.9473  136.7134  161.4192 H   0  0  0  0  0  0  0  0  0  0  0  0
  146.7735  137.4583  162.9829 H   0  0  0  0  0  0  0  0  0  0  0  0
  148.4635  135.6163  163.0273 H   0  0  0  0  0  0  0  0  0  0  0  0
  147.1425  135.3162  164.1324 H   0  0  0  0  0  0  0  0  0  0  0  0
  147.5050  134.0842  161.3648 H   0  0  0  0  0  0  0  0  0  0  0  0
  147.6431  133.2566  162.8872 H   0  0  0  0  0  0  0  0  0  0  0  0
  145.2983  133.5655  163.3884 H   0  0  0  0  0  0  0  0  0  0  0  0
  145.4454  132.8003  161.8336 H   0  0  0  0  0  0  0  0  0  0  0  0
  1  2  1  0  0  0  0
  1 31  1  0  0  0  0
  1 32  1  0  0  0  0
  1 33  1  0  0  0  0
  2 25  1  0  0  0  0
  2  3  1  0  0  0  0
  2 34  1  0  0  0  0
  3  4  1  0  0  0  0
  3 35  1  0  0  0  0
  3 36  1  0  0  0  0
  4  5  1  0  0  0  0
  4 37  1  0  0  0  0
  4 38  1  0  0  0  0
  5  6  1  0  0  0  0
  5 24  1  0  0  0  0
  6 11  1  0  0  0  0
  6  7  2  0  0  0  0
  7  8  1  0  0  0  0
  8  9  2  0  0  0  0
  8 39  1  0  0  0  0
  9 10  1  0  0  0  0
 10 14  1  0  0  0  0
 10 11  2  0  0  0  0
 11 12  1  0  0  0  0
 12 13  2  0  0  0  0
 13 14  1  0  0  0  0
 13 40  1  0  0  0  0
 14 15  1  0  0  0  0
 15 16  1  0  0  0  0
 15 41  1  0  0  0  0
 15 42  1  0  0  0  0
 16 23  1  0  0  0  0
 16 17  1  0  0  0  0
 16 19  1  0  0  0  0
 17 18  1  0  0  0  0
 17 43  1  0  0  0  0
 17 44  1  0  0  0  0
 18 45  1  0  0  0  0
 19 20  1  0  0  0  0
 19 46  1  0  0  0  0
 19 47  1  0  0  0  0
 20 21  1  0  0  0  0
 20 48  1  0  0  0  0
 20 49  1  0  0  0  0
 21 22  1  0  0  0  0
 22 23  1  0  0  0  0
 22 50  1  0  0  0  0
 22 51  1  0  0  0  0
 23 52  1  0  0  0  0
 23 53  1  0  0  0  0
 24 25  1  0  0  0  0
 24 54  1  0  0  0  0
 24 55  1  0  0  0  0
 25 30  1  0  0  0  0
 25 26  1  0  0  0  0
 26 27  1  0  0  0  0
 26 56  1  0  0  0  0
 26 57  1  0  0  0  0
 27 28  1  0  0  0  0
 27 58  1  0  0  0  0
 27 59  1  0  0  0  0
 28 29  1  0  0  0  0
 28 60  1  0  0  0  0
 28 61  1  0  0  0  0
 29 30  1  0  0  0  0
 29 62  1  0  0  0  0
 29 63  1  0  0  0  0
 30 64  1  0  0  0  0
 30 65  1  0  0  0  0
M  END
> <s_m_source_file>
AV-unprocessed.smi

> <i_m_source_file_index>
216

> <i_lp_mmshare_version>
43012

> <i_f3d_flags>
0

> <s_epik_input>
W0NIMl0xW0NIMl1bQ0gyXVtDSDJdW0NIMl1DMTJbQ0BIXShbQ0gzXSlbQ0gyXVtDSDJdTihbQ0gyXTIpYyhuW2NIXW4zKWMoYzM0KW5bY0hdbjRbQ0gyXUM1KFtDSDJdW09IXSlbQ0gyXVtDSDJdT1tDSDJdW0NIMl01

> <s_epik_cmdline>
J2VwaWtfcHl0aG9uJywgJy1waCcsICc3LjAnLCAnLXRuJywgJzgnLCAnLW1hJywgJzIwMCcsICctbWV0YWxfYmluZGluZycsICctaW1hZScsICc8aW5maWxlLm1hZT4nLCAnLW9tYWUnLCAnPG91dGZpbGUubWFlPic=

> <r_lp_tautomer_probability>
1

> <r_epik_Ionization_Penalty>
0.00291566

> <r_epik_Ionization_Penalty_Charging>
0

> <r_epik_Ionization_Penalty_Neutral>
0.00291566

> <r_epik_State_Penalty>
0.00199166

> <r_epik_Charging_Adjusted_Penalty>
0.00199166

> <i_epik_Tot_Q>
0

> <i_epik_Tot_abs_Q>
0

> <r_epik_Metal_State_Penalty>
-0

> <b_epik_Metal_Only>
0

> <s_lp_Force_Field>
OPLS_2005

> <r_lp_Energy>
50.3698

> <b_lp_Chiralities_Consistent>
1

> <s_lp_Variant>
AV-unprocessed.smi:216-1

> <Gold.Version>
5.8.1

> <Gold.Id.Protein>
6NUR|6NUR_protein|mol2

> <Gold.PLP.Fitness>
42.4915

> <Gold.PLP.PLP>
-40.6230

> <Gold.PLP.part.hbond>
-2.0000

> <Gold.PLP.part.metal>
0.0000

> <Gold.PLP.part.buried>
-6.7442

> <Gold.PLP.part.nonpolar>
-32.8802

> <Gold.PLP.part.repulsive>
0.2605

> <Gold.PLP.ligand.clash>
0.0000

> <Gold.PLP.ligand.torsion>
0.7344

> <Gold.PLP.Chemscore.Hbond>
1.0000

> <Gold.PLP.Chemscore.CHOScore>
0.0000

> <Gold.PLP.Chemscore.Metal>
0.0000

> <Gold.Chemscore.Hbonds>
donor molecule, donor type, donor heavy atom, donor atom, acceptor molecule, acceptor atom, score
      L1  H    18    45       P1 10171  1.00

> <Gold.PLP.Chemscore.Internal.Correction>
0.3372

> <Gold.Rescore>
     Score         DG    S(hbond)    S(metal)    S(lipo)     H(rot)  DE(clash)    DE(int)     intcor
     14.40     -15.11       0.99        0.00     102.16       2.20       0.05       0.67       ----

> <Gold.Chemscore.Fitness>
14.3958

> <Gold.Chemscore.DG>
-15.1142

> <Gold.Chemscore.ZeroCoef>
-5.4800

> <Gold.Chemscore.Hbond>
0.9934

> <Gold.Chemscore.Metal>
0.0000

> <Gold.Chemscore.Lipo>
102.1641

> <Gold.Chemscore.Internal_Hbond>
0.0000

> <Gold.Chemscore.DEClash>
0.0504

> <Gold.Chemscore.DEInternal>
0.6680

> <Gold.Chemscore.Rot>
2.2019

> <Gold.Chemscore.Internal.Correction>
   9.000000E+99

> <Gold.Chemscore.Hbonds>
donor molecule, donor type, donor heavy atom, donor atom, acceptor molecule, acceptor atom, score
      L1  H    18    45       P1 10171  0.89

> <Gold.Chemscore.Hbond.Weighted>
-3.3180

> <Gold.Chemscore.Metal.Weighted>
-0.0000

> <Gold.Chemscore.Lipo.Weighted>
-11.9532

> <Gold.Chemscore.Internal_Hbond.Weighted>
0.0000

> <Gold.Chemscore.DEClash.Weighted>
0.0504

> <Gold.Chemscore.DEInternal.Weighted>
0.6680

> <Gold.Chemscore.Rot.Weighted>
5.6370

> <Gold.Chemscore.Internal.Correction.Weighted>
   9.000000E+99

> <Gold.Protein.RotatedTorsions>
[ 6907 6896 6895 6894 ] final  160.65 input  -60.11 | X-H torsion
[ 7974 7965 7964 7962 ] final   62.48 input  175.53 | X-H torsion
[ 8008 7997 7996 7995 ] final  115.64 input   59.86 | X-H torsion
[ 10167 10162 10161 10158 ] final   43.54 input  -65.29 | X-H torsion
[ 10718 10713 10712 10709 ] final  -48.09 input   66.30 | X-H torsion
[ 10763 10752 10751 10750 ] final  117.45 input  -60.55 | X-H torsion
[ 11005 11000 10999 10996 ] final  140.86 input  -57.11 | X-H torsion

> <Gold.Protein.ActiveResidues>
 VAL166  LYS551  ARG553  GLY616  TRP617  ASP618  TYR619  PRO620  LYS621  CYS622 
 ASP623  PHE694  ASN695  SER759  ASP760  ASP761  ALA762  ILE779  LEU786  VAL792 
 PHE793  MET794  SER795  GLU796  ALA797  LYS798  CYS799  TRP800  GLU811  SER814 

> <Gold.Protein.RotatedAtoms>
  151.9674  133.3714  159.4057 H   0  0  0  0  0  0  0  0  0  0  0  0  # atno 6907 bound_to 6896
  150.6954  134.4176  159.5199 H   0  0  0  0  0  0  0  0  0  0  0  0  # atno 6908 bound_to 6896
  152.1875  134.8701  160.0571 H   0  0  0  0  0  0  0  0  0  0  0  0  # atno 6909 bound_to 6896
  145.8729  139.3390  143.0752 H   0  0  0  0  0  0  0  0  0  0  0  0  # atno 7974 bound_to 7965
  156.2393  140.2934  156.0401 H   0  0  0  0  0  0  0  0  0  0  0  0  # atno 8008 bound_to 7997
  155.1997  140.0409  157.2932 H   0  0  0  0  0  0  0  0  0  0  0  0  # atno 8009 bound_to 7997
  154.6138  140.2458  155.7642 H   0  0  0  0  0  0  0  0  0  0  0  0  # atno 8010 bound_to 7997
  140.3434  144.2442  150.6153 H   0  0  0  0  0  0  0  0  0  0  0  0  # atno 10167 bound_to 10162
  156.2021  130.4156  149.9226 H   0  0  0  0  0  0  0  0  0  0  0  0  # atno 10718 bound_to 10713
  153.5526  135.3536  155.2766 H   0  0  0  0  0  0  0  0  0  0  0  0  # atno 10763 bound_to 10752
  154.8705  135.4117  154.2920 H   0  0  0  0  0  0  0  0  0  0  0  0  # atno 10764 bound_to 10752
  153.3649  135.7061  153.6751 H   0  0  0  0  0  0  0  0  0  0  0  0  # atno 10765 bound_to 10752
  140.0358  134.9329  157.0750 H   0  0  0  0  0  0  0  0  0  0  0  0  # atno 11005 bound_to 11000
  145.9116  140.9176  143.0451 LP  0  0  0  0  0  0  0  0  0  0  0  0  # atno 17320 bound_to 7965
  144.6726  140.1167  143.7452 LP  0  0  0  0  0  0  0  0  0  0  0  0  # atno 17321 bound_to 7965
  140.5288  143.2248  151.8272 LP  0  0  0  0  0  0  0  0  0  0  0  0  # atno 17342 bound_to 10162
  139.4837  144.4747  151.9382 LP  0  0  0  0  0  0  0  0  0  0  0  0  # atno 17343 bound_to 10162
  156.6932  130.8904  151.3591 LP  0  0  0  0  0  0  0  0  0  0  0  0  # atno 17370 bound_to 10713
  157.6992  130.9314  150.0733 LP  0  0  0  0  0  0  0  0  0  0  0  0  # atno 17371 bound_to 10713
  140.4150  134.1941  155.7163 LP  0  0  0  0  0  0  0  0  0  0  0  0  # atno 17394 bound_to 11000
  141.1856  133.8319  157.1097 LP  0  0  0  0  0  0  0  0  0  0  0  0  # atno 17395 bound_to 11000

$$$$
