AV-unprocessed.smi:1353|AV-procd|sdf|5533|dock2
  -GOLD-   22720 5123D 1   1.00000     0.00000
 Structure written by MMmdl.
 40 42  0  0  0  0  0  0  0  0  2 V2000
  152.0207  135.7352  156.2765 O   0  0  0  0  0  0  0  0  0  0  0  0
  150.9782  136.3582  155.5577 C   0  0  0  0  0  0  0  0  0  0  0  0
  151.5231  137.5854  154.8146 C   0  0  0  0  0  0  0  0  0  0  0  0
  150.4492  138.5907  154.5517 C   0  0  0  0  0  0  0  0  0  0  0  0
  149.3296  138.3824  153.8029 N   0  3  0  0  0  0  0  0  0  0  0  0
  148.5523  139.5409  153.7820 C   0  0  0  0  0  0  0  0  0  0  0  0
  147.3407  139.8127  153.1542 C   0  0  0  0  0  0  0  0  0  0  0  0
  146.8132  141.1086  153.3312 C   0  0  0  0  0  0  0  0  0  0  0  0
  147.4852  142.0749  154.1078 C   0  0  0  0  0  0  0  0  0  0  0  0
  148.7118  141.7864  154.7414 C   0  0  0  0  0  0  0  0  0  0  0  0
  149.2270  140.5026  154.5618 C   0  0  0  0  0  0  0  0  0  0  0  0
  150.3892  139.8706  155.0212 N   0  0  0  0  0  0  0  0  0  0  0  0
  151.3291  140.6125  155.8759 C   0  0  0  0  0  0  0  0  0  0  0  0
  150.7164  140.9823  157.2345 C   0  0  0  0  0  0  0  0  0  0  0  0
  151.7533  141.2104  158.1799 O   0  0  0  0  0  0  0  0  0  0  0  0
  151.8370  142.4510  158.7735 C   0  0  0  0  0  0  0  0  0  0  0  0
  151.3598  143.5498  158.0289 C   0  0  0  0  0  0  0  0  0  0  0  0
  151.4062  144.8538  158.5584 C   0  0  0  0  0  0  0  0  0  0  0  0
  151.9324  145.0725  159.8449 C   0  0  0  0  0  0  0  0  0  0  0  0
  152.4112  143.9853  160.5991 C   0  0  0  0  0  0  0  0  0  0  0  0
  152.3655  142.6809  160.0691 C   0  0  0  0  0  0  0  0  0  0  0  0
  151.8012  135.7431  157.1960 H   0  0  0  0  0  0  0  0  0  0  0  0
  150.5514  135.6401  154.8565 H   0  0  0  0  0  0  0  0  0  0  0  0
  150.1896  136.6451  156.2542 H   0  0  0  0  0  0  0  0  0  0  0  0
  152.3203  138.0559  155.3912 H   0  0  0  0  0  0  0  0  0  0  0  0
  151.9631  137.2836  153.8632 H   0  0  0  0  0  0  0  0  0  0  0  0
  146.8253  139.0746  152.5572 H   0  0  0  0  0  0  0  0  0  0  0  0
  145.8755  141.3669  152.8609 H   0  0  0  0  0  0  0  0  0  0  0  0
  147.0518  143.0583  154.2193 H   0  0  0  0  0  0  0  0  0  0  0  0
  149.2200  142.5365  155.3291 H   0  0  0  0  0  0  0  0  0  0  0  0
  152.2389  140.0259  156.0033 H   0  0  0  0  0  0  0  0  0  0  0  0
  151.6220  141.5168  155.3424 H   0  0  0  0  0  0  0  0  0  0  0  0
  150.1040  141.8782  157.1230 H   0  0  0  0  0  0  0  0  0  0  0  0
  150.0698  140.1717  157.5748 H   0  0  0  0  0  0  0  0  0  0  0  0
  150.9539  143.3909  157.0406 H   0  0  0  0  0  0  0  0  0  0  0  0
  151.0373  145.6862  157.9774 H   0  0  0  0  0  0  0  0  0  0  0  0
  151.9683  146.0720  160.2529 H   0  0  0  0  0  0  0  0  0  0  0  0
  152.8144  144.1511  161.5872 H   0  0  0  0  0  0  0  0  0  0  0  0
  152.7414  141.8733  160.6783 H   0  0  0  0  0  0  0  0  0  0  0  0
  149.1172  137.5097  153.3368 H   0  0  0  0  0  0  0  0  0  0  0  0
  1  2  1  0  0  0  0
  1 22  1  0  0  0  0
  2  3  1  0  0  0  0
  2 23  1  0  0  0  0
  2 24  1  0  0  0  0
  3  4  1  0  0  0  0
  3 25  1  0  0  0  0
  3 26  1  0  0  0  0
  4 12  1  0  0  0  0
  4  5  2  0  0  0  0
  5  6  1  0  0  0  0
  5 40  1  0  0  0  0
  6 11  2  0  0  0  0
  6  7  1  0  0  0  0
  7  8  2  0  0  0  0
  7 27  1  0  0  0  0
  8  9  1  0  0  0  0
  8 28  1  0  0  0  0
  9 10  2  0  0  0  0
  9 29  1  0  0  0  0
 10 11  1  0  0  0  0
 10 30  1  0  0  0  0
 11 12  1  0  0  0  0
 12 13  1  0  0  0  0
 13 14  1  0  0  0  0
 13 31  1  0  0  0  0
 13 32  1  0  0  0  0
 14 15  1  0  0  0  0
 14 33  1  0  0  0  0
 14 34  1  0  0  0  0
 15 16  1  0  0  0  0
 16 21  1  0  0  0  0
 16 17  2  0  0  0  0
 17 18  1  0  0  0  0
 17 35  1  0  0  0  0
 18 19  2  0  0  0  0
 18 36  1  0  0  0  0
 19 20  1  0  0  0  0
 19 37  1  0  0  0  0
 20 21  2  0  0  0  0
 20 38  1  0  0  0  0
 21 39  1  0  0  0  0
M  CHG  1   5   1
M  END
> <s_m_source_file>
AV-unprocessed.smi

> <i_m_source_file_index>
1353

> <i_lp_mmshare_version>
43012

> <i_f3d_flags>
0

> <s_epik_input>
W2NIXTFbY0hdW2NIXVtjSF1jKGMxMiluKGMobjIpW0NIMl1bQ0gyXVtPSF0pW0NIMl1bQ0gyXU9jM1tjSF1bY0hdW2NIXVtjSF1bY0hdMw==

> <s_epik_cmdline>
J2VwaWtfcHl0aG9uJywgJy1waCcsICc3LjAnLCAnLXRuJywgJzgnLCAnLW1hJywgJzIwMCcsICctbWV0YWxfYmluZGluZycsICctaW1hZScsICc8aW5maWxlLm1hZT4nLCAnLW9tYWUnLCAnPG91dGZpbGUubWFlPic=

> <r_lp_tautomer_probability>
1

> <r_epik_Ionization_Penalty>
0.670741

> <r_epik_Ionization_Penalty_Charging>
0.67074

> <r_epik_Ionization_Penalty_Neutral>
5.89567e-08

> <r_epik_State_Penalty>
0.690909

> <r_epik_Charging_Adjusted_Penalty>
1.36165

> <i_epik_Tot_Q>
1

> <i_epik_Tot_abs_Q>
1

> <r_epik_Metal_State_Penalty>
4.56272

> <b_epik_Metal_Only>
0

> <s_lp_Force_Field>
OPLS_2005

> <r_lp_Energy>
21.0146

> <b_lp_Chiralities_Consistent>
1

> <s_lp_Variant>
AV-unprocessed.smi:1353-2

> <Gold.Version>
5.8.1

> <Gold.Id.Protein>
6NUR|6NUR_protein|mol2

> <Gold.PLP.Fitness>
57.4594

> <Gold.PLP.PLP>
-50.3828

> <Gold.PLP.part.hbond>
-2.6915

> <Gold.PLP.part.metal>
0.0000

> <Gold.PLP.part.buried>
-0.2124

> <Gold.PLP.part.nonpolar>
-47.6448

> <Gold.PLP.part.repulsive>
0.0477

> <Gold.PLP.ligand.clash>
0.0000

> <Gold.PLP.ligand.torsion>
1.0299

> <Gold.PLP.Chemscore.Hbond>
3.0000

> <Gold.PLP.Chemscore.CHOScore>
0.0000

> <Gold.PLP.Chemscore.Metal>
0.0000

> <Gold.Chemscore.Hbonds>
donor molecule, donor type, donor heavy atom, donor atom, acceptor molecule, acceptor atom, score
      L1  H     5    40       P1  7948  2.00
      P1  H 10752 10764       L1     1  1.00

> <Gold.PLP.Chemscore.Internal.Correction>
0.1363

> <Gold.Rescore>
     Score         DG    S(hbond)    S(metal)    S(lipo)     H(rot)  DE(clash)    DE(int)     intcor
     19.68     -22.08       1.89        0.00     140.20       2.39       1.38       1.02       ----

> <Gold.Chemscore.Fitness>
19.6839

> <Gold.Chemscore.DG>
-22.0780

> <Gold.Chemscore.ZeroCoef>
-5.4800

> <Gold.Chemscore.Hbond>
1.8938

> <Gold.Chemscore.Metal>
0.0000

> <Gold.Chemscore.Lipo>
140.2014

> <Gold.Chemscore.Internal_Hbond>
0.0000

> <Gold.Chemscore.DEClash>
1.3768

> <Gold.Chemscore.DEInternal>
1.0174

> <Gold.Chemscore.Rot>
2.3948

> <Gold.Chemscore.Internal.Correction>
   9.000000E+99

> <Gold.Chemscore.Hbonds>
donor molecule, donor type, donor heavy atom, donor atom, acceptor molecule, acceptor atom, score
      L1  H     5    40       P1  7948  0.98
      P1  H 10752 10764       L1     1  0.50

> <Gold.Chemscore.Hbond.Weighted>
-6.3253

> <Gold.Chemscore.Metal.Weighted>
-0.0000

> <Gold.Chemscore.Lipo.Weighted>
-16.4036

> <Gold.Chemscore.Internal_Hbond.Weighted>
0.0000

> <Gold.Chemscore.DEClash.Weighted>
1.3768

> <Gold.Chemscore.DEInternal.Weighted>
1.0174

> <Gold.Chemscore.Rot.Weighted>
6.1308

> <Gold.Chemscore.Internal.Correction.Weighted>
   9.000000E+99

> <Gold.Protein.RotatedTorsions>
[ 6907 6896 6895 6894 ] final    4.55 input  -60.11 | X-H torsion
[ 7974 7965 7964 7962 ] final  121.39 input  175.53 | X-H torsion
[ 8008 7997 7996 7995 ] final   76.60 input   59.86 | X-H torsion
[ 10167 10162 10161 10158 ] final  -50.76 input  -65.29 | X-H torsion
[ 10718 10713 10712 10709 ] final -134.02 input   66.30 | X-H torsion
[ 10763 10752 10751 10750 ] final  -22.07 input  -60.55 | X-H torsion
[ 11005 11000 10999 10996 ] final -115.15 input  -57.11 | X-H torsion

> <Gold.Protein.ActiveResidues>
 VAL166  LYS551  ARG553  GLY616  TRP617  ASP618  TYR619  PRO620  LYS621  CYS622 
 ASP623  PHE694  ASN695  SER759  ASP760  ASP761  ALA762  ILE779  LEU786  VAL792 
 PHE793  MET794  SER795  GLU796  ALA797  LYS798  CYS799  TRP800  GLU811  SER814 

> <Gold.Protein.RotatedAtoms>
  151.6431  135.1010  160.0145 H   0  0  0  0  0  0  0  0  0  0  0  0  # atno 6907 bound_to 6896
  152.4043  133.6861  159.6351 H   0  0  0  0  0  0  0  0  0  0  0  0  # atno 6908 bound_to 6896
  150.7939  133.8654  159.3284 H   0  0  0  0  0  0  0  0  0  0  0  0  # atno 6909 bound_to 6896
  145.1199  139.3396  143.4720 H   0  0  0  0  0  0  0  0  0  0  0  0  # atno 7974 bound_to 7965
  155.8297  140.3466  155.5564 H   0  0  0  0  0  0  0  0  0  0  0  0  # atno 8008 bound_to 7997
  155.8255  140.0919  157.1843 H   0  0  0  0  0  0  0  0  0  0  0  0  # atno 8009 bound_to 7997
  154.4004  140.1422  156.3539 H   0  0  0  0  0  0  0  0  0  0  0  0  # atno 8010 bound_to 7997
  140.6622  143.2645  151.4406 H   0  0  0  0  0  0  0  0  0  0  0  0  # atno 10167 bound_to 10162
  156.2511  130.7153  151.1053 H   0  0  0  0  0  0  0  0  0  0  0  0  # atno 10718 bound_to 10713
  153.6461  135.6983  153.5225 H   0  0  0  0  0  0  0  0  0  0  0  0  # atno 10763 bound_to 10752
  153.2743  135.4205  155.1017 H   0  0  0  0  0  0  0  0  0  0  0  0  # atno 10764 bound_to 10752
  154.8488  135.3586  154.6006 H   0  0  0  0  0  0  0  0  0  0  0  0  # atno 10765 bound_to 10752
  141.0506  133.9693  157.2843 H   0  0  0  0  0  0  0  0  0  0  0  0  # atno 11005 bound_to 11000
  146.3521  140.1153  142.8602 LP  0  0  0  0  0  0  0  0  0  0  0  0  # atno 17320 bound_to 7965
  145.0752  140.9183  143.4858 LP  0  0  0  0  0  0  0  0  0  0  0  0  # atno 17321 bound_to 7965
  139.5859  144.1606  152.2028 LP  0  0  0  0  0  0  0  0  0  0  0  0  # atno 17342 bound_to 10162
  140.0945  144.5592  150.7031 LP  0  0  0  0  0  0  0  0  0  0  0  0  # atno 17343 bound_to 10162
  157.7214  131.0678  150.6117 LP  0  0  0  0  0  0  0  0  0  0  0  0  # atno 17370 bound_to 10713
  156.6197  130.4402  149.5827 LP  0  0  0  0  0  0  0  0  0  0  0  0  # atno 17371 bound_to 10713
  139.9347  135.0197  156.8517 LP  0  0  0  0  0  0  0  0  0  0  0  0  # atno 17394 bound_to 11000
  140.6063  134.0125  155.7558 LP  0  0  0  0  0  0  0  0  0  0  0  0  # atno 17395 bound_to 11000

$$$$
