AV-unprocessed.smi:437|AV-procd|sdf|2559|dock9
  -GOLD-   2262022523D 1   1.00000     0.00000
 Structure written by MMmdl.
 48 49  0  0  0  0  0  0  0  0  1 V2000
  147.3541  138.9252  153.6766 C   0  0  0  0  0  0  0  0  0  0  0  0
  148.7009  139.0069  154.3435 C   0  0  0  0  0  0  0  0  0  0  0  0
  149.4346  137.9438  154.3005 N   0  0  0  0  0  0  0  0  0  0  0  0
  150.6852  137.9084  154.8863 N   0  0  0  0  0  0  0  0  0  0  0  0
  151.3712  136.6146  154.7550 C   0  0  0  0  0  0  0  0  0  0  0  0
  150.4561  135.4137  155.0411 C   0  0  0  0  0  0  0  0  0  0  0  0
  150.6760  134.6842  156.0117 O   0  0  0  0  0  0  0  0  0  0  0  0
  149.4365  135.2566  154.1726 N   0  0  0  0  0  0  0  0  0  0  0  0
  148.4882  134.3001  154.1832 C   0  0  0  0  0  0  0  0  0  0  0  0
  148.2848  133.4986  155.0978 O   0  0  0  0  0  0  0  0  0  0  0  0
  147.7693  134.3253  153.0513 N   0  0  0  0  0  0  0  0  0  0  0  0
  146.7305  133.3645  152.6842 C   0  0  2  0  0  0  0  0  0  0  0  0
  147.3364  131.9471  152.6147 C   0  0  0  0  0  0  0  0  0  0  0  0
  146.2985  130.9076  152.1677 C   0  0  0  0  0  0  0  0  0  0  0  0
  145.6704  131.3006  150.8240 C   0  0  0  0  0  0  0  0  0  0  0  0
  145.0492  132.7037  150.8956 C   0  0  0  0  0  0  0  0  0  0  0  0
  146.0764  133.7655  151.3381 C   0  0  1  0  0  0  0  0  0  0  0  0
  145.4242  135.1589  151.3922 C   0  0  0  0  0  0  0  0  0  0  0  0
  151.2672  138.9556  155.5388 C   0  0  0  0  0  0  0  0  0  0  0  0
  152.3903  138.8815  156.0400 O   0  0  0  0  0  0  0  0  0  0  0  0
  150.4303  140.1566  155.5841 C   0  0  0  0  0  0  0  0  0  0  0  0
  150.9978  141.2736  156.2676 C   0  0  0  0  0  0  0  0  0  0  0  0
  151.4541  142.1707  156.8395 N   0  0  0  0  0  0  0  0  0  0  0  0
  149.1989  140.2022  155.0166 C   0  0  0  0  0  0  0  0  0  0  0  0
  148.2912  141.4244  155.0363 C   0  0  0  0  0  0  0  0  0  0  0  0
  147.2949  139.6213  152.8397 H   0  0  0  0  0  0  0  0  0  0  0  0
  146.5576  139.1707  154.3795 H   0  0  0  0  0  0  0  0  0  0  0  0
  147.1521  137.9256  153.2885 H   0  0  0  0  0  0  0  0  0  0  0  0
  151.7712  136.5014  153.7458 H   0  0  0  0  0  0  0  0  0  0  0  0
  152.2384  136.5804  155.4173 H   0  0  0  0  0  0  0  0  0  0  0  0
  149.3762  135.9378  153.4307 H   0  0  0  0  0  0  0  0  0  0  0  0
  147.9419  135.0731  152.3958 H   0  0  0  0  0  0  0  0  0  0  0  0
  145.9506  133.3691  153.4485 H   0  0  0  0  0  0  0  0  0  0  0  0
  148.1769  131.9380  151.9191 H   0  0  0  0  0  0  0  0  0  0  0  0
  147.7394  131.6629  153.5877 H   0  0  0  0  0  0  0  0  0  0  0  0
  146.7657  129.9256  152.0874 H   0  0  0  0  0  0  0  0  0  0  0  0
  145.5191  130.8191  152.9256 H   0  0  0  0  0  0  0  0  0  0  0  0
  146.4304  131.2750  150.0421 H   0  0  0  0  0  0  0  0  0  0  0  0
  144.9103  130.5715  150.5416 H   0  0  0  0  0  0  0  0  0  0  0  0
  144.6376  132.9671  149.9209 H   0  0  0  0  0  0  0  0  0  0  0  0
  144.2087  132.6920  151.5910 H   0  0  0  0  0  0  0  0  0  0  0  0
  146.8592  133.8009  150.5785 H   0  0  0  0  0  0  0  0  0  0  0  0
  144.6493  135.2026  152.1581 H   0  0  0  0  0  0  0  0  0  0  0  0
  144.9617  135.4118  150.4377 H   0  0  0  0  0  0  0  0  0  0  0  0
  146.1537  135.9383  151.6126 H   0  0  0  0  0  0  0  0  0  0  0  0
  148.7797  142.2943  155.4741 H   0  0  0  0  0  0  0  0  0  0  0  0
  147.3930  141.2212  155.6202 H   0  0  0  0  0  0  0  0  0  0  0  0
  147.9895  141.6979  154.0248 H   0  0  0  0  0  0  0  0  0  0  0  0
  1  2  1  0  0  0  0
  1 26  1  0  0  0  0
  1 27  1  0  0  0  0
  1 28  1  0  0  0  0
  2 24  1  0  0  0  0
  2  3  2  0  0  0  0
  3  4  1  0  0  0  0
  4  5  1  0  0  0  0
  4 19  1  0  0  0  0
  5  6  1  0  0  0  0
  5 29  1  0  0  0  0
  5 30  1  0  0  0  0
  6  7  2  0  0  0  0
  6  8  1  0  0  0  0
  8  9  1  0  0  0  0
  8 31  1  0  0  0  0
  9 10  2  0  0  0  0
  9 11  1  0  0  0  0
 11 12  1  0  0  0  0
 11 32  1  0  0  0  0
 12 17  1  0  0  0  0
 12 13  1  0  0  0  0
 12 33  1  0  0  0  0
 13 14  1  0  0  0  0
 13 34  1  0  0  0  0
 13 35  1  0  0  0  0
 14 15  1  0  0  0  0
 14 36  1  0  0  0  0
 14 37  1  0  0  0  0
 15 16  1  0  0  0  0
 15 38  1  0  0  0  0
 15 39  1  0  0  0  0
 16 17  1  0  0  0  0
 16 40  1  0  0  0  0
 16 41  1  0  0  0  0
 17 18  1  0  0  0  0
 17 42  1  0  0  0  0
 18 43  1  0  0  0  0
 18 44  1  0  0  0  0
 18 45  1  0  0  0  0
 19 20  2  0  0  0  0
 19 21  1  0  0  0  0
 21 22  1  0  0  0  0
 21 24  2  0  0  0  0
 22 23  3  0  0  0  0
 24 25  1  0  0  0  0
 25 46  1  0  0  0  0
 25 47  1  0  0  0  0
 25 48  1  0  0  0  0
M  END
> <s_m_source_file>
AV-unprocessed.smi

> <i_m_source_file_index>
437

> <i_lp_mmshare_version>
43012

> <i_f3d_flags>
0

> <s_epik_input>
TiNDYyhjMVtDSDNdKWMoPU8pbihuYzFbQ0gzXSlbQ0gyXUMoPU8pW05IXUMoPU8pW05IXVtDQEBIXTJbQ0gyXVtDSDJdW0NIMl1bQ0gyXVtDQEhdMltDSDNd

> <s_epik_cmdline>
J2VwaWtfcHl0aG9uJywgJy1waCcsICc3LjAnLCAnLXRuJywgJzgnLCAnLW1hJywgJzIwMCcsICctbWV0YWxfYmluZGluZycsICctaW1hZScsICc8aW5maWxlLm1hZT4nLCAnLW9tYWUnLCAnPG91dGZpbGUubWFlPic=

> <r_lp_tautomer_probability>
1

> <r_epik_Ionization_Penalty>
3.27035e-05

> <r_epik_Ionization_Penalty_Charging>
1.6965e-11

> <r_epik_Ionization_Penalty_Neutral>
3.27035e-05

> <r_epik_State_Penalty>
-0

> <r_epik_Charging_Adjusted_Penalty>
1.6965e-11

> <i_epik_Tot_Q>
0

> <i_epik_Tot_abs_Q>
0

> <r_epik_Metal_State_Penalty>
-0

> <b_epik_Metal_Only>
0

> <s_lp_Force_Field>
OPLS_2005

> <r_lp_Energy>
27.1353

> <b_lp_Chiralities_Consistent>
1

> <s_lp_Variant>
AV-unprocessed.smi:437-1

> <Gold.Version>
5.8.1

> <Gold.Id.Protein>
6NUR|6NUR_protein|mol2

> <Gold.PLP.Fitness>
45.0963

> <Gold.PLP.PLP>
-39.6099

> <Gold.PLP.part.hbond>
-2.0000

> <Gold.PLP.part.metal>
0.0000

> <Gold.PLP.part.buried>
-5.9561

> <Gold.PLP.part.nonpolar>
-33.7371

> <Gold.PLP.part.repulsive>
1.2167

> <Gold.PLP.ligand.clash>
0.0000

> <Gold.PLP.ligand.torsion>
0.2564

> <Gold.PLP.Chemscore.Hbond>
1.9920

> <Gold.PLP.Chemscore.CHOScore>
0.0000

> <Gold.PLP.Chemscore.Metal>
0.0000

> <Gold.Chemscore.Hbonds>
donor molecule, donor type, donor heavy atom, donor atom, acceptor molecule, acceptor atom, score
      L1  H     8    31       P1  7948  0.93
      L1  H    11    32       P1  7948  0.96
      P1  H  7997  8008       L1    20  0.10

> <Gold.PLP.Chemscore.Internal.Correction>
0.0232

> <Gold.Rescore>
     Score         DG    S(hbond)    S(metal)    S(lipo)     H(rot)  DE(clash)    DE(int)     intcor
     15.95     -17.61       1.82        0.00      86.08       1.57       0.02       1.65       ----

> <Gold.Chemscore.Fitness>
15.9465

> <Gold.Chemscore.DG>
-17.6121

> <Gold.Chemscore.ZeroCoef>
-5.4800

> <Gold.Chemscore.Hbond>
1.8171

> <Gold.Chemscore.Metal>
0.0000

> <Gold.Chemscore.Lipo>
86.0755

> <Gold.Chemscore.Internal_Hbond>
0.0000

> <Gold.Chemscore.DEClash>
0.0197

> <Gold.Chemscore.DEInternal>
1.6459

> <Gold.Chemscore.Rot>
1.5656

> <Gold.Chemscore.Internal.Correction>
   9.000000E+99

> <Gold.Chemscore.Hbonds>
donor molecule, donor type, donor heavy atom, donor atom, acceptor molecule, acceptor atom, score
      L1  H     8    31       P1  7948  0.44
      L1  H    11    32       P1  7948  0.82
      P1  H  7997  8008       L1    20  0.12

> <Gold.Chemscore.Hbond.Weighted>
-6.0691

> <Gold.Chemscore.Metal.Weighted>
-0.0000

> <Gold.Chemscore.Lipo.Weighted>
-10.0708

> <Gold.Chemscore.Internal_Hbond.Weighted>
0.0000

> <Gold.Chemscore.DEClash.Weighted>
0.0197

> <Gold.Chemscore.DEInternal.Weighted>
1.6459

> <Gold.Chemscore.Rot.Weighted>
4.0079

> <Gold.Chemscore.Internal.Correction.Weighted>
   9.000000E+99

> <Gold.Protein.RotatedTorsions>
[ 6907 6896 6895 6894 ] final  115.30 input  -60.11 | X-H torsion
[ 7974 7965 7964 7962 ] final -171.68 input  175.53 | X-H torsion
[ 8008 7997 7996 7995 ] final  -61.35 input   59.86 | X-H torsion
[ 10167 10162 10161 10158 ] final -144.95 input  -65.29 | X-H torsion
[ 10718 10713 10712 10709 ] final   53.45 input   66.30 | X-H torsion
[ 10763 10752 10751 10750 ] final  138.75 input  -60.55 | X-H torsion
[ 11005 11000 10999 10996 ] final -171.96 input  -57.11 | X-H torsion

> <Gold.Protein.ActiveResidues>
 VAL166  LYS551  ARG553  GLY616  TRP617  ASP618  TYR619  PRO620  LYS621  CYS622 
 ASP623  PHE694  ASN695  SER759  ASP760  ASP761  ALA762  ILE779  LEU786  VAL792 
 PHE793  MET794  SER795  GLU796  ALA797  LYS798  CYS799  TRP800  GLU811  SER814 

> <Gold.Protein.RotatedAtoms>
  152.4750  133.8117  159.7006 H   0  0  0  0  0  0  0  0  0  0  0  0  # atno 6907 bound_to 6896
  150.8761  133.7427  159.2952 H   0  0  0  0  0  0  0  0  0  0  0  0  # atno 6908 bound_to 6896
  151.4946  135.1062  159.9865 H   0  0  0  0  0  0  0  0  0  0  0  0  # atno 6909 bound_to 6896
  144.7154  140.1886  143.6351 H   0  0  0  0  0  0  0  0  0  0  0  0  # atno 7974 bound_to 7965
  154.4443  140.1019  156.6416 H   0  0  0  0  0  0  0  0  0  0  0  0  # atno 8008 bound_to 7997
  155.5495  140.3485  155.4446 H   0  0  0  0  0  0  0  0  0  0  0  0  # atno 8009 bound_to 7997
  156.0539  140.1310  157.0008 H   0  0  0  0  0  0  0  0  0  0  0  0  # atno 8010 bound_to 7997
  139.7851  143.8045  152.2643 H   0  0  0  0  0  0  0  0  0  0  0  0  # atno 10167 bound_to 10162
  157.5168  130.8538  149.8506 H   0  0  0  0  0  0  0  0  0  0  0  0  # atno 10718 bound_to 10713
  153.8948  135.3029  155.3448 H   0  0  0  0  0  0  0  0  0  0  0  0  # atno 10763 bound_to 10752
  154.7699  135.4891  153.9631 H   0  0  0  0  0  0  0  0  0  0  0  0  # atno 10764 bound_to 10752
  153.1277  135.6797  153.9328 H   0  0  0  0  0  0  0  0  0  0  0  0  # atno 10765 bound_to 10752
  140.5023  134.5881  157.4992 H   0  0  0  0  0  0  0  0  0  0  0  0  # atno 11005 bound_to 11000
  145.8789  139.2312  143.1617 LP  0  0  0  0  0  0  0  0  0  0  0  0  # atno 17320 bound_to 7965
  146.0014  140.8517  143.0017 LP  0  0  0  0  0  0  0  0  0  0  0  0  # atno 17321 bound_to 7965
  139.8119  144.7332  150.9686 LP  0  0  0  0  0  0  0  0  0  0  0  0  # atno 17342 bound_to 10162
  140.7819  143.4242  151.0794 LP  0  0  0  0  0  0  0  0  0  0  0  0  # atno 17343 bound_to 10162
  156.0326  130.3760  150.1647 LP  0  0  0  0  0  0  0  0  0  0  0  0  # atno 17370 bound_to 10713
  156.9836  130.9871  151.3431 LP  0  0  0  0  0  0  0  0  0  0  0  0  # atno 17371 bound_to 10713
  139.9706  134.7299  156.0049 LP  0  0  0  0  0  0  0  0  0  0  0  0  # atno 17394 bound_to 11000
  141.1429  133.6561  156.3782 LP  0  0  0  0  0  0  0  0  0  0  0  0  # atno 17395 bound_to 11000

$$$$
