AV-unprocessed.smi:583|AV-procd|sdf|2997|dock9
  -GOLD-   2262023503D 1   1.00000     0.00000
 Structure written by MMmdl.
 35 36  0  0  0  0  0  0  0  0  1 V2000
  149.6484  136.2373  159.0468 O   0  0  0  0  0  0  0  0  0  0  0  0
  148.5985  136.8188  158.7765 C   0  0  0  0  0  0  0  0  0  0  0  0
  147.2680  136.0594  158.9199 C   0  0  0  0  0  0  0  0  0  0  0  0
  147.1088  135.3111  160.1803 N   0  0  0  0  0  0  0  0  0  0  0  0
  146.8188  133.9362  160.0756 C   0  0  0  0  0  0  0  0  0  0  0  0
  146.6626  133.1364  161.1480 C   0  0  0  0  0  0  0  0  0  0  0  0
  146.3004  131.6663  161.0040 C   0  0  0  0  0  0  0  0  0  0  0  0
  145.1606  131.5468  160.3247 F   0  0  0  0  0  0  0  0  0  0  0  0
  147.2492  131.0003  160.3454 F   0  0  0  0  0  0  0  0  0  0  0  0
  146.1351  131.0917  162.1964 F   0  0  0  0  0  0  0  0  0  0  0  0
  146.7724  133.7704  162.4471 C   0  0  0  0  0  0  0  0  0  0  0  0
  147.0451  135.0845  162.5649 C   0  0  0  0  0  0  0  0  0  0  0  0
  147.2412  135.9353  161.3892 C   0  0  0  0  0  0  0  0  0  0  0  0
  147.5122  137.1323  161.4843 O   0  0  0  0  0  0  0  0  0  0  0  0
  148.5631  138.0965  158.3611 N   0  0  0  0  0  0  0  0  0  0  0  0
  149.7280  138.9528  158.1680 C   0  0  2  0  0  0  0  0  0  0  0  0
  149.3332  140.3954  157.7912 C   0  0  0  0  0  0  0  0  0  0  0  0
  150.5706  141.1166  157.2436 C   0  0  0  0  0  0  0  0  0  0  0  0
  151.5984  139.8279  156.4423 S   0  0  0  0  0  0  0  0  0  0  0  0
  151.4537  139.9189  154.9816 O   0  0  0  0  0  0  0  0  0  0  0  0
  152.9273  139.8186  157.0729 O   0  0  0  0  0  0  0  0  0  0  0  0
  150.6240  138.4006  157.0512 C   0  0  0  0  0  0  0  0  0  0  0  0
  146.4503  136.7716  158.7957 H   0  0  0  0  0  0  0  0  0  0  0  0
  147.1761  135.3817  158.0701 H   0  0  0  0  0  0  0  0  0  0  0  0
  146.7356  133.5714  159.0618 H   0  0  0  0  0  0  0  0  0  0  0  0
  146.6382  133.1811  163.3424 H   0  0  0  0  0  0  0  0  0  0  0  0
  147.1224  135.5226  163.5493 H   0  0  0  0  0  0  0  0  0  0  0  0
  147.6608  138.5027  158.1602 H   0  0  0  0  0  0  0  0  0  0  0  0
  150.3163  138.9825  159.0871 H   0  0  0  0  0  0  0  0  0  0  0  0
  148.5724  140.3660  157.0096 H   0  0  0  0  0  0  0  0  0  0  0  0
  148.9005  140.9342  158.6349 H   0  0  0  0  0  0  0  0  0  0  0  0
  150.3245  141.9022  156.5291 H   0  0  0  0  0  0  0  0  0  0  0  0
  151.1529  141.5536  158.0551 H   0  0  0  0  0  0  0  0  0  0  0  0
  151.2899  137.6069  157.3901 H   0  0  0  0  0  0  0  0  0  0  0  0
  150.0315  138.0255  156.2159 H   0  0  0  0  0  0  0  0  0  0  0  0
  1  2  2  0  0  0  0
  2  3  1  0  0  0  0
  2 15  1  0  0  0  0
  3  4  1  0  0  0  0
  3 23  1  0  0  0  0
  3 24  1  0  0  0  0
  4 13  1  0  0  0  0
  4  5  1  0  0  0  0
  5  6  2  0  0  0  0
  5 25  1  0  0  0  0
  6  7  1  0  0  0  0
  6 11  1  0  0  0  0
  7  8  1  0  0  0  0
  7  9  1  0  0  0  0
  7 10  1  0  0  0  0
 11 12  2  0  0  0  0
 11 26  1  0  0  0  0
 12 13  1  0  0  0  0
 12 27  1  0  0  0  0
 13 14  2  0  0  0  0
 15 16  1  0  0  0  0
 15 28  1  0  0  0  0
 16 22  1  0  0  0  0
 16 17  1  0  0  0  0
 16 29  1  0  0  0  0
 17 18  1  0  0  0  0
 17 30  1  0  0  0  0
 17 31  1  0  0  0  0
 18 19  1  0  0  0  0
 18 32  1  0  0  0  0
 18 33  1  0  0  0  0
 19 20  2  0  0  0  0
 19 21  2  0  0  0  0
 19 22  1  0  0  0  0
 22 34  1  0  0  0  0
 22 35  1  0  0  0  0
M  END
> <s_m_source_file>
AV-unprocessed.smi

> <i_m_source_file_index>
583

> <i_lp_mmshare_version>
43012

> <i_f3d_flags>
0

> <s_epik_input>
Tz1TMSg9TylbQ0gyXVtDSDJdW0NASF0oW0NIMl0xKVtOSF1DKD1PKVtDSDJdbjJbY0hdYyhDKEYpKEYpRilbY0hdW2NIXWMyPU8=

> <s_epik_cmdline>
J2VwaWtfcHl0aG9uJywgJy1waCcsICc3LjAnLCAnLXRuJywgJzgnLCAnLW1hJywgJzIwMCcsICctbWV0YWxfYmluZGluZycsICctaW1hZScsICc8aW5maWxlLm1hZT4nLCAnLW9tYWUnLCAnPG91dGZpbGUubWFlPic=

> <r_lp_tautomer_probability>
1

> <r_epik_Ionization_Penalty>
1.22016e-07

> <r_epik_Ionization_Penalty_Charging>
1.48237e-08

> <r_epik_Ionization_Penalty_Neutral>
1.07193e-07

> <r_epik_State_Penalty>
-0

> <r_epik_Charging_Adjusted_Penalty>
1.48237e-08

> <i_epik_Tot_Q>
0

> <i_epik_Tot_abs_Q>
0

> <r_epik_Metal_State_Penalty>
-0

> <b_epik_Metal_Only>
0

> <s_lp_Force_Field>
OPLS_2005

> <r_lp_Energy>
16.6381

> <b_lp_Chiralities_Consistent>
1

> <s_lp_Variant>
AV-unprocessed.smi:583-1

> <Gold.Version>
5.8.1

> <Gold.Id.Protein>
6NUR|6NUR_protein|mol2

> <Gold.PLP.Fitness>
43.3018

> <Gold.PLP.PLP>
-29.2777

> <Gold.PLP.part.hbond>
-4.9297

> <Gold.PLP.part.metal>
0.0000

> <Gold.PLP.part.buried>
-3.7872

> <Gold.PLP.part.nonpolar>
-20.4534

> <Gold.PLP.part.repulsive>
0.2013

> <Gold.PLP.ligand.clash>
0.0000

> <Gold.PLP.ligand.torsion>
0.2036

> <Gold.PLP.Chemscore.Hbond>
4.7993

> <Gold.PLP.Chemscore.CHOScore>
0.0000

> <Gold.PLP.Chemscore.Metal>
0.0000

> <Gold.Chemscore.Hbonds>
donor molecule, donor type, donor heavy atom, donor atom, acceptor molecule, acceptor atom, score
      P1  H  6896  6907       L1     1  1.00
      P1  H  6931  6943       L1    14  0.98
      P1  H  6934  6947       L1    14  0.86
      P1  H  7989  7998       L1    20  1.00
      P1  H  7997  8008       L1    21  1.00

> <Gold.PLP.Chemscore.Internal.Correction>
0.0335

> <Gold.Rescore>
     Score         DG    S(hbond)    S(metal)    S(lipo)     H(rot)  DE(clash)    DE(int)     intcor
     20.63     -22.85       4.75        0.00      50.78       1.73       0.96       1.26       ----

> <Gold.Chemscore.Fitness>
20.6307

> <Gold.Chemscore.DG>
-22.8477

> <Gold.Chemscore.ZeroCoef>
-5.4800

> <Gold.Chemscore.Hbond>
4.7480

> <Gold.Chemscore.Metal>
0.0000

> <Gold.Chemscore.Lipo>
50.7847

> <Gold.Chemscore.Internal_Hbond>
0.0000

> <Gold.Chemscore.DEClash>
0.9586

> <Gold.Chemscore.DEInternal>
1.2584

> <Gold.Chemscore.Rot>
1.7314

> <Gold.Chemscore.Internal.Correction>
   9.000000E+99

> <Gold.Chemscore.Hbonds>
donor molecule, donor type, donor heavy atom, donor atom, acceptor molecule, acceptor atom, score
      P1  H  6896  6907       L1     1  0.99
      P1  H  6931  6943       L1    14  0.93
      P1  H  6934  6947       L1    14  0.82
      P1  H  7989  7998       L1    20  0.99
      P1  H  7997  8008       L1    21  0.93

> <Gold.Chemscore.Hbond.Weighted>
-15.8583

> <Gold.Chemscore.Metal.Weighted>
-0.0000

> <Gold.Chemscore.Lipo.Weighted>
-5.9418

> <Gold.Chemscore.Internal_Hbond.Weighted>
0.0000

> <Gold.Chemscore.DEClash.Weighted>
0.9586

> <Gold.Chemscore.DEInternal.Weighted>
1.2584

> <Gold.Chemscore.Rot.Weighted>
4.4324

> <Gold.Chemscore.Internal.Correction.Weighted>
   9.000000E+99

> <Gold.Protein.RotatedTorsions>
[ 6907 6896 6895 6894 ] final  -55.56 input  -60.11 | X-H torsion
[ 7974 7965 7964 7962 ] final  -18.31 input  175.53 | X-H torsion
[ 8008 7997 7996 7995 ] final  -57.03 input   59.86 | X-H torsion
[ 10167 10162 10161 10158 ] final  -39.12 input  -65.29 | X-H torsion
[ 10718 10713 10712 10709 ] final  179.52 input   66.30 | X-H torsion
[ 10763 10752 10751 10750 ] final  111.39 input  -60.55 | X-H torsion
[ 11005 11000 10999 10996 ] final -114.75 input  -57.11 | X-H torsion

> <Gold.Protein.ActiveResidues>
 VAL166  LYS551  ARG553  GLY616  TRP617  ASP618  TYR619  PRO620  LYS621  CYS622 
 ASP623  PHE694  ASN695  SER759  ASP760  ASP761  ALA762  ILE779  LEU786  VAL792 
 PHE793  MET794  SER795  GLU796  ALA797  LYS798  CYS799  TRP800  GLU811  SER814 

> <Gold.Protein.RotatedAtoms>
  150.8241  134.7463  159.6797 H   0  0  0  0  0  0  0  0  0  0  0  0  # atno 6907 bound_to 6896
  152.4354  134.5694  159.9926 H   0  0  0  0  0  0  0  0  0  0  0  0  # atno 6908 bound_to 6896
  151.5871  133.3333  159.3056 H   0  0  0  0  0  0  0  0  0  0  0  0  # atno 6909 bound_to 6896
  146.1898  140.3903  142.8462 H   0  0  0  0  0  0  0  0  0  0  0  0  # atno 7974 bound_to 7965
  154.4252  140.1116  156.5732 H   0  0  0  0  0  0  0  0  0  0  0  0  # atno 8008 bound_to 7997
  155.6190  140.3495  155.4627 H   0  0  0  0  0  0  0  0  0  0  0  0  # atno 8009 bound_to 7997
  156.0039  140.1205  157.0510 H   0  0  0  0  0  0  0  0  0  0  0  0  # atno 8010 bound_to 7997
  140.7073  143.3234  151.2738 H   0  0  0  0  0  0  0  0  0  0  0  0  # atno 10167 bound_to 10162
  156.8746  130.9795  151.3069 H   0  0  0  0  0  0  0  0  0  0  0  0  # atno 10718 bound_to 10713
  153.4627  135.3718  155.2347 H   0  0  0  0  0  0  0  0  0  0  0  0  # atno 10763 bound_to 10752
  154.8757  135.3912  154.3906 H   0  0  0  0  0  0  0  0  0  0  0  0  # atno 10764 bound_to 10752
  153.4482  135.7085  153.6190 H   0  0  0  0  0  0  0  0  0  0  0  0  # atno 10765 bound_to 10752
  141.0532  133.9654  157.2800 H   0  0  0  0  0  0  0  0  0  0  0  0  # atno 11005 bound_to 11000
  144.8466  140.6938  143.6195 LP  0  0  0  0  0  0  0  0  0  0  0  0  # atno 17320 bound_to 7965
  145.3826  139.1633  143.4272 LP  0  0  0  0  0  0  0  0  0  0  0  0  # atno 17321 bound_to 7965
  139.6695  144.0046  152.2744 LP  0  0  0  0  0  0  0  0  0  0  0  0  # atno 17342 bound_to 10162
  139.9639  144.6539  150.8053 LP  0  0  0  0  0  0  0  0  0  0  0  0  # atno 17343 bound_to 10162
  157.6176  130.8630  149.9054 LP  0  0  0  0  0  0  0  0  0  0  0  0  # atno 17370 bound_to 10713
  156.0709  130.3685  150.0778 LP  0  0  0  0  0  0  0  0  0  0  0  0  # atno 17371 bound_to 10713
  139.9368  135.0195  156.8580 LP  0  0  0  0  0  0  0  0  0  0  0  0  # atno 17394 bound_to 11000
  140.6015  134.0167  155.7539 LP  0  0  0  0  0  0  0  0  0  0  0  0  # atno 17395 bound_to 11000

$$$$
