AV-unprocessed.smi:2710|AV-procd|sdf|10469|dock4
  -GOLD-   2272014513D 1   1.00000     0.00000
 Structure written by MMmdl.
 53 54  0  0  0  0  0  0  0  0  2 V2000
  148.0488  142.3422  158.1929 C   0  0  0  0  0  0  0  0  0  0  0  0
  146.8255  142.4056  157.2632 C   0  0  0  0  0  0  0  0  0  0  0  0
  147.1635  142.2423  155.8187 N   0  3  1  0  0  0  0  0  0  0  0  0
  147.9297  140.9877  155.5665 C   0  0  0  0  0  0  0  0  0  0  0  0
  148.3953  140.8754  154.1065 C   0  0  0  0  0  0  0  0  0  0  0  0
  147.2208  140.9672  153.1265 C   0  0  1  0  0  0  0  0  0  0  0  0
  146.3766  139.7738  153.2069 N   0  0  0  0  0  0  0  0  0  0  0  0
  146.4038  138.7330  152.3615 C   0  0  0  0  0  0  0  0  0  0  0  0
  147.1529  138.6634  151.3881 O   0  0  0  0  0  0  0  0  0  0  0  0
  145.5288  137.7837  152.7342 N   0  0  0  0  0  0  0  0  0  0  0  0
  145.2539  136.5457  152.0942 C   0  0  0  0  0  0  0  0  0  0  0  0
  146.0981  136.1087  151.0538 C   0  0  0  0  0  0  0  0  0  0  0  0
  145.9004  134.9357  150.4169 N   0  0  0  0  0  0  0  0  0  0  0  0
  144.8665  134.1820  150.8135 C   0  0  0  0  0  0  0  0  0  0  0  0
  144.6751  132.8430  150.0786 C   0  0  0  0  0  0  0  0  0  0  0  0
  143.5571  131.9808  150.7149 C   0  0  0  0  0  0  0  0  0  0  0  0
  145.9799  132.0234  150.1402 C   0  0  0  0  0  0  0  0  0  0  0  0
  144.2692  133.1051  148.6135 C   0  0  0  0  0  0  0  0  0  0  0  0
  144.0161  134.4929  151.8007 N   0  0  0  0  0  0  0  0  0  0  0  0
  144.2007  135.6661  152.4424 C   0  0  0  0  0  0  0  0  0  0  0  0
  146.4116  142.2370  153.4226 C   0  0  0  0  0  0  0  0  0  0  0  0
  145.9806  142.3571  154.9032 C   0  0  2  0  0  0  0  0  0  0  0  0
  145.2015  143.6774  155.0779 C   0  0  0  0  0  0  0  0  0  0  0  0
  147.7705  142.6351  159.2056 H   0  0  0  0  0  0  0  0  0  0  0  0
  148.8354  143.0203  157.8606 H   0  0  0  0  0  0  0  0  0  0  0  0
  148.4678  141.3389  158.2619 H   0  0  0  0  0  0  0  0  0  0  0  0
  146.0839  141.6621  157.5589 H   0  0  0  0  0  0  0  0  0  0  0  0
  146.3745  143.3799  157.4374 H   0  0  0  0  0  0  0  0  0  0  0  0
  148.8182  140.9469  156.1939 H   0  0  0  0  0  0  0  0  0  0  0  0
  147.3174  140.1260  155.8369 H   0  0  0  0  0  0  0  0  0  0  0  0
  149.1041  141.6775  153.8952 H   0  0  0  0  0  0  0  0  0  0  0  0
  148.9400  139.9423  153.9562 H   0  0  0  0  0  0  0  0  0  0  0  0
  147.6302  141.0602  152.1191 H   0  0  0  0  0  0  0  0  0  0  0  0
  145.7254  139.7314  153.9770 H   0  0  0  0  0  0  0  0  0  0  0  0
  145.0395  137.9406  153.6033 H   0  0  0  0  0  0  0  0  0  0  0  0
  146.9372  136.7046  150.7256 H   0  0  0  0  0  0  0  0  0  0  0  0
  143.4301  131.0387  150.1805 H   0  0  0  0  0  0  0  0  0  0  0  0
  142.5937  132.4921  150.6963 H   0  0  0  0  0  0  0  0  0  0  0  0
  143.7820  131.7308  151.7527 H   0  0  0  0  0  0  0  0  0  0  0  0
  146.2767  131.8308  151.1718 H   0  0  0  0  0  0  0  0  0  0  0  0
  146.8052  132.5428  149.6526 H   0  0  0  0  0  0  0  0  0  0  0  0
  145.8682  131.0589  149.6439 H   0  0  0  0  0  0  0  0  0  0  0  0
  144.1047  132.1724  148.0729 H   0  0  0  0  0  0  0  0  0  0  0  0
  145.0388  133.6577  148.0735 H   0  0  0  0  0  0  0  0  0  0  0  0
  143.3475  133.6855  148.5572 H   0  0  0  0  0  0  0  0  0  0  0  0
  143.5093  135.8713  153.2447 H   0  0  0  0  0  0  0  0  0  0  0  0
  147.0151  143.1061  153.1559 H   0  0  0  0  0  0  0  0  0  0  0  0
  145.5372  142.2702  152.7709 H   0  0  0  0  0  0  0  0  0  0  0  0
  145.3000  141.5354  155.1317 H   0  0  0  0  0  0  0  0  0  0  0  0
  144.4563  143.7968  154.2906 H   0  0  0  0  0  0  0  0  0  0  0  0
  145.8656  144.5412  155.0328 H   0  0  0  0  0  0  0  0  0  0  0  0
  144.6515  143.7155  156.0175 H   0  0  0  0  0  0  0  0  0  0  0  0
  147.7776  143.0089  155.5828 H   0  0  0  0  0  0  0  0  0  0  0  0
  1  2  1  0  0  0  0
  1 24  1  0  0  0  0
  1 25  1  0  0  0  0
  1 26  1  0  0  0  0
  2  3  1  0  0  0  0
  2 27  1  0  0  0  0
  2 28  1  0  0  0  0
  3 22  1  0  0  0  0
  3  4  1  0  0  0  0
  3 53  1  0  0  0  0
  4  5  1  0  0  0  0
  4 29  1  0  0  0  0
  4 30  1  0  0  0  0
  5  6  1  0  0  0  0
  5 31  1  0  0  0  0
  5 32  1  0  0  0  0
  6  7  1  0  0  0  0
  6 21  1  0  0  0  0
  6 33  1  0  0  0  0
  7  8  1  0  0  0  0
  7 34  1  0  0  0  0
  8  9  2  0  0  0  0
  8 10  1  0  0  0  0
 10 11  1  0  0  0  0
 10 35  1  0  0  0  0
 11 20  1  0  0  0  0
 11 12  2  0  0  0  0
 12 13  1  0  0  0  0
 12 36  1  0  0  0  0
 13 14  2  0  0  0  0
 14 15  1  0  0  0  0
 14 19  1  0  0  0  0
 15 16  1  0  0  0  0
 15 17  1  0  0  0  0
 15 18  1  0  0  0  0
 16 37  1  0  0  0  0
 16 38  1  0  0  0  0
 16 39  1  0  0  0  0
 17 40  1  0  0  0  0
 17 41  1  0  0  0  0
 17 42  1  0  0  0  0
 18 43  1  0  0  0  0
 18 44  1  0  0  0  0
 18 45  1  0  0  0  0
 19 20  2  0  0  0  0
 20 46  1  0  0  0  0
 21 22  1  0  0  0  0
 21 47  1  0  0  0  0
 21 48  1  0  0  0  0
 22 23  1  0  0  0  0
 22 49  1  0  0  0  0
 23 50  1  0  0  0  0
 23 51  1  0  0  0  0
 23 52  1  0  0  0  0
M  CHG  1   3   1
M  END
> <s_m_source_file>
AV-unprocessed.smi

> <i_m_source_file_index>
2710

> <i_lp_mmshare_version>
43012

> <i_f3d_flags>
0

> <s_epik_input>
W0NIM11bQ0gyXU4xW0NIMl1bQ0gyXVtDQEhdKFtDSDJdW0NASF0xW0NIM10pW05IXUMoPU8pW05IXWMyW2NIXW5jKEMoW0NIM10pKFtDSDNdKVtDSDNdKW5bY0hdMg==

> <s_epik_cmdline>
J2VwaWtfcHl0aG9uJywgJy1waCcsICc3LjAnLCAnLXRuJywgJzgnLCAnLW1hJywgJzIwMCcsICctbWV0YWxfYmluZGluZycsICctaW1hZScsICc8aW5maWxlLm1hZT4nLCAnLW9tYWUnLCAnPG91dGZpbGUubWFlPic=

> <r_lp_tautomer_probability>
1

> <r_epik_Ionization_Penalty>
0.00396003

> <r_epik_Ionization_Penalty_Charging>
0.0039379

> <r_epik_Ionization_Penalty_Neutral>
2.21316e-05

> <r_epik_State_Penalty>
0.00281651

> <r_epik_Charging_Adjusted_Penalty>
0.00675441

> <i_epik_Tot_Q>
1

> <i_epik_Tot_abs_Q>
1

> <r_epik_Metal_State_Penalty>
-0

> <b_epik_Metal_Only>
0

> <s_lp_Force_Field>
OPLS_2005

> <r_lp_Energy>
19.7949

> <b_lp_Chiralities_Consistent>
1

> <s_lp_Variant>
AV-unprocessed.smi:2710-6

> <Gold.Version>
5.8.1

> <Gold.Id.Protein>
6NUR|6NUR_protein|mol2

> <Gold.PLP.Fitness>
47.6084

> <Gold.PLP.PLP>
-37.0511

> <Gold.PLP.part.hbond>
-3.7211

> <Gold.PLP.part.metal>
0.0000

> <Gold.PLP.part.buried>
-3.7239

> <Gold.PLP.part.nonpolar>
-33.1301

> <Gold.PLP.part.repulsive>
4.3401

> <Gold.PLP.ligand.clash>
0.0000

> <Gold.PLP.ligand.torsion>
0.4036

> <Gold.PLP.Chemscore.Hbond>
3.0000

> <Gold.PLP.Chemscore.CHOScore>
0.7773

> <Gold.PLP.Chemscore.Metal>
0.0000

> <Gold.Chemscore.Hbonds>
donor molecule, donor type, donor heavy atom, donor atom, acceptor molecule, acceptor atom, score
      L1  H     3    53       P1  8028  2.00
      P1  H  7954  7966       L1     9  1.00
      L1  C    12    36       P1  7948  0.70

> <Gold.PLP.Chemscore.Internal.Correction>
0.0327

> <Gold.Rescore>
     Score         DG    S(hbond)    S(metal)    S(lipo)     H(rot)  DE(clash)    DE(int)     intcor
     14.20     -19.39       1.70        0.00      98.92       1.31       3.48       1.71       ----

> <Gold.Chemscore.Fitness>
14.1998

> <Gold.Chemscore.DG>
-19.3882

> <Gold.Chemscore.ZeroCoef>
-5.4800

> <Gold.Chemscore.Hbond>
1.7017

> <Gold.Chemscore.Metal>
0.0000

> <Gold.Chemscore.Lipo>
98.9182

> <Gold.Chemscore.Internal_Hbond>
0.0000

> <Gold.Chemscore.DEClash>
3.4789

> <Gold.Chemscore.DEInternal>
1.7094

> <Gold.Chemscore.Rot>
1.3081

> <Gold.Chemscore.Internal.Correction>
   9.000000E+99

> <Gold.Chemscore.Hbonds>
donor molecule, donor type, donor heavy atom, donor atom, acceptor molecule, acceptor atom, score
      L1  H     3    53       P1  8028  0.53
      P1  H  7954  7966       L1     9  0.95

> <Gold.Chemscore.Hbond.Weighted>
-5.6836

> <Gold.Chemscore.Metal.Weighted>
-0.0000

> <Gold.Chemscore.Lipo.Weighted>
-11.5734

> <Gold.Chemscore.Internal_Hbond.Weighted>
0.0000

> <Gold.Chemscore.DEClash.Weighted>
3.4789

> <Gold.Chemscore.DEInternal.Weighted>
1.7094

> <Gold.Chemscore.Rot.Weighted>
3.3488

> <Gold.Chemscore.Internal.Correction.Weighted>
   9.000000E+99

> <Gold.Protein.RotatedTorsions>
[ 6907 6896 6895 6894 ] final  -41.28 input  -60.11 | X-H torsion
[ 7974 7965 7964 7962 ] final  -90.01 input  175.53 | X-H torsion
[ 8008 7997 7996 7995 ] final -111.54 input   59.86 | X-H torsion
[ 10167 10162 10161 10158 ] final  -82.92 input  -65.29 | X-H torsion
[ 10718 10713 10712 10709 ] final   28.42 input   66.30 | X-H torsion
[ 10763 10752 10751 10750 ] final   34.11 input  -60.55 | X-H torsion
[ 11005 11000 10999 10996 ] final  100.92 input  -57.11 | X-H torsion

> <Gold.Protein.ActiveResidues>
 VAL166  LYS551  ARG553  GLY616  TRP617  ASP618  TYR619  PRO620  LYS621  CYS622 
 ASP623  PHE694  ASN695  SER759  ASP760  ASP761  ALA762  ILE779  LEU786  VAL792 
 PHE793  MET794  SER795  GLU796  ALA797  LYS798  CYS799  TRP800  GLU811  SER814 

> <Gold.Protein.RotatedAtoms>
  150.9686  134.9062  159.7773 H   0  0  0  0  0  0  0  0  0  0  0  0  # atno 6907 bound_to 6896
  152.5182  134.3573  159.9282 H   0  0  0  0  0  0  0  0  0  0  0  0  # atno 6908 bound_to 6896
  151.3583  133.3858  159.2722 H   0  0  0  0  0  0  0  0  0  0  0  0  # atno 6909 bound_to 6896
  145.4322  140.9556  143.2122 H   0  0  0  0  0  0  0  0  0  0  0  0  # atno 7974 bound_to 7965
  154.9914  140.0395  157.2321 H   0  0  0  0  0  0  0  0  0  0  0  0  # atno 8008 bound_to 7997
  154.7625  140.2787  155.6180 H   0  0  0  0  0  0  0  0  0  0  0  0  # atno 8009 bound_to 7997
  156.2906  140.2626  156.2407 H   0  0  0  0  0  0  0  0  0  0  0  0  # atno 8010 bound_to 7997
  140.4275  143.2561  151.8805 H   0  0  0  0  0  0  0  0  0  0  0  0  # atno 10167 bound_to 10162
  157.2332  130.7034  149.6323 H   0  0  0  0  0  0  0  0  0  0  0  0  # atno 10718 bound_to 10713
  153.0179  135.6369  154.1617 H   0  0  0  0  0  0  0  0  0  0  0  0  # atno 10763 bound_to 10752
  154.1354  135.2838  155.3176 H   0  0  0  0  0  0  0  0  0  0  0  0  # atno 10764 bound_to 10752
  154.6163  135.5539  153.7589 H   0  0  0  0  0  0  0  0  0  0  0  0  # atno 10765 bound_to 10752
  139.8772  134.9161  156.4828 H   0  0  0  0  0  0  0  0  0  0  0  0  # atno 11005 bound_to 11000
  144.8175  139.5850  143.7001 LP  0  0  0  0  0  0  0  0  0  0  0  0  # atno 17320 bound_to 7965
  146.2601  139.6391  142.9368 LP  0  0  0  0  0  0  0  0  0  0  0  0  # atno 17321 bound_to 7965
  139.4784  144.5371  151.8583 LP  0  0  0  0  0  0  0  0  0  0  0  0  # atno 17342 bound_to 10162
  140.4465  144.1915  150.5894 LP  0  0  0  0  0  0  0  0  0  0  0  0  # atno 17343 bound_to 10162
  155.9674  130.4482  150.5610 LP  0  0  0  0  0  0  0  0  0  0  0  0  # atno 17370 bound_to 10713
  157.3456  131.0724  151.1754 LP  0  0  0  0  0  0  0  0  0  0  0  0  # atno 17371 bound_to 10713
  140.8715  133.7985  155.9369 LP  0  0  0  0  0  0  0  0  0  0  0  0  # atno 17394 bound_to 11000
  140.8948  134.2451  157.5075 LP  0  0  0  0  0  0  0  0  0  0  0  0  # atno 17395 bound_to 11000

$$$$
