AV-unprocessed.smi:283|AV-procd|sdf|2129|dock1
  -GOLD-   2262021443D 1   1.00000     0.00000
 Structure written by MMmdl.
 48 51  0  0  0  0  0  0  0  0  1 V2000
  154.2047  140.4097  159.8008 C   0  0  0  0  0  0  0  0  0  0  0  0
  152.7493  140.4815  159.3194 C   0  0  2  0  0  0  0  0  0  0  0  0
  152.5851  139.6579  158.1232 N   0  0  0  0  0  0  0  0  0  0  0  0
  151.8099  138.5510  158.1373 C   0  0  0  0  0  0  0  0  0  0  0  0
  151.3893  138.1478  159.3598 N   0  0  0  0  0  0  0  0  0  0  0  0
  150.6372  137.0508  159.4825 C   0  0  0  0  0  0  0  0  0  0  0  0
  150.1958  136.2311  158.5271 N   0  0  0  0  0  0  0  0  0  0  0  0
  150.6007  136.6391  157.2893 C   0  0  0  0  0  0  0  0  0  0  0  0
  151.4025  137.7819  157.0072 C   0  0  0  0  0  0  0  0  0  0  0  0
  151.5976  137.8742  155.6347 N   0  0  0  0  0  0  0  0  0  0  0  0
  150.9707  136.8402  155.1462 C   0  0  0  0  0  0  0  0  0  0  0  0
  150.3264  136.0475  156.0737 N   0  0  0  0  0  0  0  0  0  0  0  0
  149.5412  134.7825  155.8778 C   0  0  2  0  0  0  0  0  0  0  0  0
  150.0893  133.8127  156.7173 O   0  0  0  0  0  0  0  0  0  0  0  0
  151.0037  133.0044  155.9866 C   0  0  1  0  0  0  0  0  0  0  0  0
  151.2894  131.6816  156.7207 C   0  0  0  0  0  0  0  0  0  0  0  0
  151.2991  131.8930  158.1165 O   0  0  0  0  0  0  0  0  0  0  0  0
  150.3021  132.8759  154.6264 C   0  0  1  0  0  0  0  0  0  0  0  0
  149.3475  131.8266  154.6551 O   0  0  0  0  0  0  0  0  0  0  0  0
  149.6620  134.2552  154.4346 C   0  0  1  0  0  0  0  0  0  0  0  0
  148.4172  134.1975  153.7633 O   0  0  0  0  0  0  0  0  0  0  0  0
  152.3141  141.9411  159.1576 C   0  0  0  0  0  0  0  0  0  0  0  0
  151.8133  142.3944  157.9146 C   0  0  0  0  0  0  0  0  0  0  0  0
  151.4028  143.7302  157.7489 C   0  0  0  0  0  0  0  0  0  0  0  0
  151.4980  144.6326  158.8231 C   0  0  0  0  0  0  0  0  0  0  0  0
  152.0095  144.1979  160.0595 C   0  0  0  0  0  0  0  0  0  0  0  0
  152.4215  142.8611  160.2313 C   0  0  0  0  0  0  0  0  0  0  0  0
  153.0556  142.3881  161.7689 Cl  0  0  0  0  0  0  0  0  0  0  0  0
  148.5203  135.0201  156.1778 H   0  0  0  0  0  0  0  0  0  0  0  0
  151.9366  133.5505  155.8451 H   0  0  0  0  0  0  0  0  0  0  0  0
  151.0157  132.6542  153.8322 H   0  0  0  0  0  0  0  0  0  0  0  0
  150.3259  134.8949  153.8538 H   0  0  0  0  0  0  0  0  0  0  0  0
  154.3332  140.9441  160.7426 H   0  0  0  0  0  0  0  0  0  0  0  0
  154.8866  140.8506  159.0727 H   0  0  0  0  0  0  0  0  0  0  0  0
  154.5141  139.3771  159.9657 H   0  0  0  0  0  0  0  0  0  0  0  0
  152.1410  140.0133  160.0911 H   0  0  0  0  0  0  0  0  0  0  0  0
  152.8398  140.1155  157.2602 H   0  0  0  0  0  0  0  0  0  0  0  0
  150.3499  136.7914  160.4908 H   0  0  0  0  0  0  0  0  0  0  0  0
  150.9620  136.6412  154.0852 H   0  0  0  0  0  0  0  0  0  0  0  0
  150.5590  130.9144  156.4619 H   0  0  0  0  0  0  0  0  0  0  0  0
  152.2734  131.3027  156.4421 H   0  0  0  0  0  0  0  0  0  0  0  0
  150.4114  131.8393  158.4359 H   0  0  0  0  0  0  0  0  0  0  0  0
  148.8381  131.9071  155.4471 H   0  0  0  0  0  0  0  0  0  0  0  0
  148.4996  134.6515  152.9384 H   0  0  0  0  0  0  0  0  0  0  0  0
  151.7369  141.7164  157.0773 H   0  0  0  0  0  0  0  0  0  0  0  0
  151.0163  144.0620  156.7966 H   0  0  0  0  0  0  0  0  0  0  0  0
  151.1841  145.6584  158.6972 H   0  0  0  0  0  0  0  0  0  0  0  0
  152.0885  144.8956  160.8802 H   0  0  0  0  0  0  0  0  0  0  0  0
  1  2  1  0  0  0  0
  1 33  1  0  0  0  0
  1 34  1  0  0  0  0
  1 35  1  0  0  0  0
  2  3  1  0  0  0  0
  2 22  1  0  0  0  0
  2 36  1  0  0  0  0
  3  4  1  0  0  0  0
  3 37  1  0  0  0  0
  4  9  1  0  0  0  0
  4  5  2  0  0  0  0
  5  6  1  0  0  0  0
  6  7  2  0  0  0  0
  6 38  1  0  0  0  0
  7  8  1  0  0  0  0
  8 12  1  0  0  0  0
  8  9  2  0  0  0  0
  9 10  1  0  0  0  0
 10 11  2  0  0  0  0
 11 12  1  0  0  0  0
 11 39  1  0  0  0  0
 12 13  1  0  0  0  0
 13 29  1  0  0  0  0
 13 20  1  0  0  0  0
 13 14  1  0  0  0  0
 14 15  1  0  0  0  0
 15 30  1  0  0  0  0
 15 16  1  0  0  0  0
 15 18  1  0  0  0  0
 16 17  1  0  0  0  0
 16 40  1  0  0  0  0
 16 41  1  0  0  0  0
 17 42  1  0  0  0  0
 18 31  1  0  0  0  0
 18 19  1  0  0  0  0
 18 20  1  0  0  0  0
 19 43  1  0  0  0  0
 20 32  1  0  0  0  0
 20 21  1  0  0  0  0
 21 44  1  0  0  0  0
 22 27  1  0  0  0  0
 22 23  2  0  0  0  0
 23 24  1  0  0  0  0
 23 45  1  0  0  0  0
 24 25  2  0  0  0  0
 24 46  1  0  0  0  0
 25 26  1  0  0  0  0
 25 47  1  0  0  0  0
 26 27  2  0  0  0  0
 26 48  1  0  0  0  0
 27 28  1  0  0  0  0
M  END
> <s_m_source_file>
AV-unprocessed.smi

> <i_m_source_file_index>
283

> <i_lp_mmshare_version>
43012

> <i_f3d_flags>
0

> <s_epik_input>
Q2xjMVtjSF1bY0hdW2NIXVtjSF1jMVtDQEhdKFtDSDNdKVtOSF1jKG5bY0hdbjIpYyhjMjMpbltjSF1uM1tDQEBIXTRPW0NASF0oW0NIMl1bT0hdKVtDQEBIXShbT0hdKVtDQEhdNFtPSF0=

> <s_epik_cmdline>
J2VwaWtfcHl0aG9uJywgJy1waCcsICc3LjAnLCAnLXRuJywgJzgnLCAnLW1hJywgJzIwMCcsICctbWV0YWxfYmluZGluZycsICctaW1hZScsICc8aW5maWxlLm1hZT4nLCAnLW9tYWUnLCAnPG91dGZpbGUubWFlPic=

> <r_lp_tautomer_probability>
1

> <r_epik_Ionization_Penalty>
0.000266407

> <r_epik_Ionization_Penalty_Charging>
0

> <r_epik_Ionization_Penalty_Neutral>
0.000266407

> <r_epik_State_Penalty>
-0

> <r_epik_Charging_Adjusted_Penalty>
0

> <i_epik_Tot_Q>
0

> <i_epik_Tot_abs_Q>
0

> <r_epik_Metal_State_Penalty>
-0

> <b_epik_Metal_Only>
0

> <s_epik_Chemistry_Notes>
This compound contains an acetal/aminal-like group ( X-CH(R)-Y where X, Y are N, S, or O) that may be acid/base labile, releasing an aldehyde.

> <s_lp_Force_Field>
OPLS_2005

> <r_lp_Energy>
46.6771

> <b_lp_Chiralities_Consistent>
1

> <s_lp_Variant>
AV-unprocessed.smi:283-5

> <Gold.Version>
5.8.1

> <Gold.Id.Protein>
6NUR|6NUR_protein|mol2

> <Gold.PLP.Fitness>
54.0558

> <Gold.PLP.PLP>
-46.2552

> <Gold.PLP.part.hbond>
-3.0000

> <Gold.PLP.part.metal>
0.0000

> <Gold.PLP.part.buried>
-6.8964

> <Gold.PLP.part.nonpolar>
-36.7726

> <Gold.PLP.part.repulsive>
0.1159

> <Gold.PLP.ligand.clash>
0.0000

> <Gold.PLP.ligand.torsion>
0.5144

> <Gold.PLP.Chemscore.Hbond>
2.3365

> <Gold.PLP.Chemscore.CHOScore>
0.5609

> <Gold.PLP.Chemscore.Metal>
0.0000

> <Gold.Chemscore.Hbonds>
donor molecule, donor type, donor heavy atom, donor atom, acceptor molecule, acceptor atom, score
      L1  H    21    44       P1  7948  1.00
      P1  H  6896  6907       L1     7  0.52
      P1  H  6896  6909       L1    17  0.72
      L1  C    11    39       P1  7949  0.62

> <Gold.PLP.Chemscore.Internal.Correction>
0.1369

> <Gold.Rescore>
     Score         DG    S(hbond)    S(metal)    S(lipo)     H(rot)  DE(clash)    DE(int)     intcor
     12.73     -15.25       1.80        0.00     121.64       4.10       0.08       2.43       ----

> <Gold.Chemscore.Fitness>
12.7295

> <Gold.Chemscore.DG>
-15.2468

> <Gold.Chemscore.ZeroCoef>
-5.4800

> <Gold.Chemscore.Hbond>
1.8032

> <Gold.Chemscore.Metal>
0.0000

> <Gold.Chemscore.Lipo>
121.6429

> <Gold.Chemscore.Internal_Hbond>
0.0000

> <Gold.Chemscore.DEClash>
0.0828

> <Gold.Chemscore.DEInternal>
2.4345

> <Gold.Chemscore.Rot>
4.0968

> <Gold.Chemscore.Internal.Correction>
   9.000000E+99

> <Gold.Chemscore.Hbonds>
donor molecule, donor type, donor heavy atom, donor atom, acceptor molecule, acceptor atom, score
      L1  H    21    44       P1  7948  0.33
      P1  H  6896  6907       L1     7  0.04
      P1  H  6896  6909       L1    17  0.09

> <Gold.Chemscore.Hbond.Weighted>
-6.0225

> <Gold.Chemscore.Metal.Weighted>
-0.0000

> <Gold.Chemscore.Lipo.Weighted>
-14.2322

> <Gold.Chemscore.Internal_Hbond.Weighted>
0.0000

> <Gold.Chemscore.DEClash.Weighted>
0.0828

> <Gold.Chemscore.DEInternal.Weighted>
2.4345

> <Gold.Chemscore.Rot.Weighted>
10.4879

> <Gold.Chemscore.Internal.Correction.Weighted>
   9.000000E+99

> <Gold.Protein.RotatedTorsions>
[ 6907 6896 6895 6894 ] final  -70.59 input  -60.11 | X-H torsion
[ 7974 7965 7964 7962 ] final  -45.17 input  175.53 | X-H torsion
[ 8008 7997 7996 7995 ] final  -41.70 input   59.86 | X-H torsion
[ 10167 10162 10161 10158 ] final   88.25 input  -65.29 | X-H torsion
[ 10718 10713 10712 10709 ] final -113.43 input   66.30 | X-H torsion
[ 10763 10752 10751 10750 ] final  -61.96 input  -60.55 | X-H torsion
[ 11005 11000 10999 10996 ] final -168.22 input  -57.11 | X-H torsion

> <Gold.Protein.ActiveResidues>
 VAL166  LYS551  ARG553  GLY616  TRP617  ASP618  TYR619  PRO620  LYS621  CYS622 
 ASP623  PHE694  ASN695  SER759  ASP760  ASP761  ALA762  ILE779  LEU786  VAL792 
 PHE793  MET794  SER795  GLU796  ALA797  LYS798  CYS799  TRP800  GLU811  SER814 

> <Gold.Protein.RotatedAtoms>
  150.7251  134.5431  159.5756 H   0  0  0  0  0  0  0  0  0  0  0  0  # atno 6907 bound_to 6896
  152.2937  134.7689  160.0381 H   0  0  0  0  0  0  0  0  0  0  0  0  # atno 6908 bound_to 6896
  151.8294  133.3371  159.3645 H   0  0  0  0  0  0  0  0  0  0  0  0  # atno 6909 bound_to 6896
  145.9848  140.7245  142.9346 H   0  0  0  0  0  0  0  0  0  0  0  0  # atno 7974 bound_to 7965
  154.4002  140.1492  156.3234 H   0  0  0  0  0  0  0  0  0  0  0  0  # atno 8008 bound_to 7997
  155.8508  140.3458  155.5671 H   0  0  0  0  0  0  0  0  0  0  0  0  # atno 8009 bound_to 7997
  155.7986  140.0867  157.1960 H   0  0  0  0  0  0  0  0  0  0  0  0  # atno 8010 bound_to 7997
  139.8691  144.6502  150.8970 H   0  0  0  0  0  0  0  0  0  0  0  0  # atno 10167 bound_to 10162
  156.0766  130.5973  150.8641 H   0  0  0  0  0  0  0  0  0  0  0  0  # atno 10718 bound_to 10713
  154.2925  135.6250  153.5391 H   0  0  0  0  0  0  0  0  0  0  0  0  # atno 10763 bound_to 10752
  152.9850  135.5659  154.5374 H   0  0  0  0  0  0  0  0  0  0  0  0  # atno 10764 bound_to 10752
  154.4987  135.2871  155.1414 H   0  0  0  0  0  0  0  0  0  0  0  0  # atno 10765 bound_to 10752
  140.5444  134.5490  157.5107 H   0  0  0  0  0  0  0  0  0  0  0  0  # atno 11005 bound_to 11000
  144.6871  140.2969  143.7269 LP  0  0  0  0  0  0  0  0  0  0  0  0  # atno 17320 bound_to 7965
  145.7717  139.1859  143.2208 LP  0  0  0  0  0  0  0  0  0  0  0  0  # atno 17321 bound_to 7965
  140.7763  143.3679  151.1705 LP  0  0  0  0  0  0  0  0  0  0  0  0  # atno 17342 bound_to 10162
  139.7301  143.9087  152.3016 LP  0  0  0  0  0  0  0  0  0  0  0  0  # atno 17343 bound_to 10162
  157.5864  131.0945  150.9189 LP  0  0  0  0  0  0  0  0  0  0  0  0  # atno 17370 bound_to 10713
  156.9373  130.5372  149.5279 LP  0  0  0  0  0  0  0  0  0  0  0  0  # atno 17371 bound_to 10713
  139.9487  134.7656  156.0500 LP  0  0  0  0  0  0  0  0  0  0  0  0  # atno 17394 bound_to 11000
  141.1208  133.6613  156.3210 LP  0  0  0  0  0  0  0  0  0  0  0  0  # atno 17395 bound_to 11000

$$$$
