AV-unprocessed.smi:1218|AV-procd|sdf|5111|dock4
  -GOLD-   22720 4163D 1   1.00000     0.00000
 Structure written by MMmdl.
 44 45  0  0  0  0  0  0  0  0  1 V2000
  152.5643  142.8901  160.2911 C   0  0  0  0  0  0  0  0  0  0  0  0
  152.2190  143.4850  158.9165 C   0  0  0  0  0  0  0  0  0  0  0  0
  151.6759  144.9132  159.0699 C   0  0  0  0  0  0  0  0  0  0  0  0
  151.2092  142.6033  158.1504 C   0  0  0  0  0  0  0  0  0  0  0  0
  151.6991  141.2898  157.7279 N   0  0  0  0  0  0  0  0  0  0  0  0
  151.3635  140.9827  156.3391 C   0  0  0  0  0  0  0  0  0  0  0  0
  151.8488  139.5828  155.9276 C   0  0  0  0  0  0  0  0  0  0  0  0
  151.3057  138.6124  156.8151 O   0  0  0  0  0  0  0  0  0  0  0  0
  151.6687  138.8374  158.1754 C   0  0  2  0  0  0  0  0  0  0  0  0
  151.0560  137.7294  159.0484 C   0  0  0  0  0  0  0  0  0  0  0  0
  149.6275  137.9415  159.2570 N   0  0  0  0  0  0  0  0  0  0  0  0
  148.6961  136.9749  159.2827 C   0  0  0  0  0  0  0  0  0  0  0  0
  148.9486  135.7824  159.1122 O   0  0  0  0  0  0  0  0  0  0  0  0
  147.2571  137.4175  159.5529 C   0  0  0  0  0  0  0  0  0  0  0  0
  146.8125  137.0051  160.8730 N   0  0  0  0  0  0  0  0  0  0  0  0
  146.5828  135.7273  161.3400 C   0  0  0  0  0  0  0  0  0  0  0  0
  146.1810  135.8360  162.6403 C   0  0  0  0  0  0  0  0  0  0  0  0
  146.1991  137.2379  162.8837 C   0  0  0  0  0  0  0  0  0  0  0  0
  146.5768  137.9352  161.8245 N   0  0  0  0  0  0  0  0  0  0  0  0
  151.1673  140.2363  158.5867 C   0  0  0  0  0  0  0  0  0  0  0  0
  151.6754  142.7926  160.9152 H   0  0  0  0  0  0  0  0  0  0  0  0
  153.2773  143.5199  160.8241 H   0  0  0  0  0  0  0  0  0  0  0  0
  153.0130  141.9014  160.1937 H   0  0  0  0  0  0  0  0  0  0  0  0
  153.1403  143.5644  158.3408 H   0  0  0  0  0  0  0  0  0  0  0  0
  150.7490  144.9259  159.6442 H   0  0  0  0  0  0  0  0  0  0  0  0
  151.4717  145.3624  158.0975 H   0  0  0  0  0  0  0  0  0  0  0  0
  152.3939  145.5544  159.5820 H   0  0  0  0  0  0  0  0  0  0  0  0
  150.3369  142.4665  158.7914 H   0  0  0  0  0  0  0  0  0  0  0  0
  150.8479  143.1468  157.2758 H   0  0  0  0  0  0  0  0  0  0  0  0
  150.2836  141.0452  156.1965 H   0  0  0  0  0  0  0  0  0  0  0  0
  151.8118  141.7134  155.6674 H   0  0  0  0  0  0  0  0  0  0  0  0
  151.5297  139.3542  154.9107 H   0  0  0  0  0  0  0  0  0  0  0  0
  152.9385  139.5305  155.9413 H   0  0  0  0  0  0  0  0  0  0  0  0
  152.7562  138.8021  158.2666 H   0  0  0  0  0  0  0  0  0  0  0  0
  151.1750  136.7653  158.5535 H   0  0  0  0  0  0  0  0  0  0  0  0
  151.5852  137.6519  159.9998 H   0  0  0  0  0  0  0  0  0  0  0  0
  149.3241  138.8933  159.4052 H   0  0  0  0  0  0  0  0  0  0  0  0
  147.1815  138.5035  159.4846 H   0  0  0  0  0  0  0  0  0  0  0  0
  146.5934  137.0017  158.7929 H   0  0  0  0  0  0  0  0  0  0  0  0
  146.7221  134.8582  160.7138 H   0  0  0  0  0  0  0  0  0  0  0  0
  145.9161  135.0363  163.3155 H   0  0  0  0  0  0  0  0  0  0  0  0
  145.9515  137.7660  163.7928 H   0  0  0  0  0  0  0  0  0  0  0  0
  151.4524  140.4288  159.6217 H   0  0  0  0  0  0  0  0  0  0  0  0
  150.0766  140.2529  158.5565 H   0  0  0  0  0  0  0  0  0  0  0  0
  1  2  1  0  0  0  0
  1 21  1  0  0  0  0
  1 22  1  0  0  0  0
  1 23  1  0  0  0  0
  2  3  1  0  0  0  0
  2  4  1  0  0  0  0
  2 24  1  0  0  0  0
  3 25  1  0  0  0  0
  3 26  1  0  0  0  0
  3 27  1  0  0  0  0
  4  5  1  0  0  0  0
  4 28  1  0  0  0  0
  4 29  1  0  0  0  0
  5 20  1  0  0  0  0
  5  6  1  0  0  0  0
  6  7  1  0  0  0  0
  6 30  1  0  0  0  0
  6 31  1  0  0  0  0
  7  8  1  0  0  0  0
  7 32  1  0  0  0  0
  7 33  1  0  0  0  0
  8  9  1  0  0  0  0
  9 10  1  0  0  0  0
  9 20  1  0  0  0  0
  9 34  1  0  0  0  0
 10 11  1  0  0  0  0
 10 35  1  0  0  0  0
 10 36  1  0  0  0  0
 11 12  1  0  0  0  0
 11 37  1  0  0  0  0
 12 13  2  0  0  0  0
 12 14  1  0  0  0  0
 14 15  1  0  0  0  0
 14 38  1  0  0  0  0
 14 39  1  0  0  0  0
 15 19  1  0  0  0  0
 15 16  1  0  0  0  0
 16 17  2  0  0  0  0
 16 40  1  0  0  0  0
 17 18  1  0  0  0  0
 17 41  1  0  0  0  0
 18 19  2  0  0  0  0
 18 42  1  0  0  0  0
 20 43  1  0  0  0  0
 20 44  1  0  0  0  0
M  END
> <s_m_source_file>
AV-unprocessed.smi

> <i_m_source_file_index>
1218

> <i_lp_mmshare_version>
43012

> <i_f3d_flags>
0

> <s_epik_input>
W0NIM11bQ0hdKFtDSDNdKVtDSDJdTjFbQ0gyXVtDSDJdT1tDQEhdKFtDSDJdMSlbQ0gyXVtOSF1DKD1PKVtDSDJdbjJbY0hdW2NIXVtjSF1uMg==

> <s_epik_cmdline>
J2VwaWtfcHl0aG9uJywgJy1waCcsICc3LjAnLCAnLXRuJywgJzgnLCAnLW1hJywgJzIwMCcsICctbWV0YWxfYmluZGluZycsICctaW1hZScsICc8aW5maWxlLm1hZT4nLCAnLW9tYWUnLCAnPG91dGZpbGUubWFlPic=

> <r_lp_tautomer_probability>
1

> <r_epik_Ionization_Penalty>
1.10621

> <r_epik_Ionization_Penalty_Charging>
0

> <r_epik_Ionization_Penalty_Neutral>
1.10621

> <r_epik_State_Penalty>
1.16377

> <r_epik_Charging_Adjusted_Penalty>
1.16377

> <i_epik_Tot_Q>
0

> <i_epik_Tot_abs_Q>
0

> <r_epik_Metal_State_Penalty>
1.16377

> <b_epik_Metal_Only>
0

> <s_lp_Force_Field>
OPLS_2005

> <r_lp_Energy>
24.8608

> <b_lp_Chiralities_Consistent>
1

> <s_lp_Variant>
AV-unprocessed.smi:1218-6

> <Gold.Version>
5.8.1

> <Gold.Id.Protein>
6NUR|6NUR_protein|mol2

> <Gold.PLP.Fitness>
50.2811

> <Gold.PLP.PLP>
-44.5683

> <Gold.PLP.part.hbond>
-3.0000

> <Gold.PLP.part.metal>
0.0000

> <Gold.PLP.part.buried>
-4.5301

> <Gold.PLP.part.nonpolar>
-36.0187

> <Gold.PLP.part.repulsive>
0.2045

> <Gold.PLP.ligand.clash>
0.0000

> <Gold.PLP.ligand.torsion>
1.1264

> <Gold.PLP.Chemscore.Hbond>
2.6377

> <Gold.PLP.Chemscore.CHOScore>
0.0000

> <Gold.PLP.Chemscore.Metal>
0.0000

> <Gold.Chemscore.Hbonds>
donor molecule, donor type, donor heavy atom, donor atom, acceptor molecule, acceptor atom, score
      P1  H  6896  6909       L1    13  0.57
      P1  H  6934  6947       L1    19  0.42

> <Gold.PLP.Chemscore.Internal.Correction>
0.0526

> <Gold.Rescore>
     Score         DG    S(hbond)    S(metal)    S(lipo)     H(rot)  DE(clash)    DE(int)     intcor
     18.53     -19.95       2.22        0.00     101.67       1.90       0.21       1.21       ----

> <Gold.Chemscore.Fitness>
18.5329

> <Gold.Chemscore.DG>
-19.9464

> <Gold.Chemscore.ZeroCoef>
-5.4800

> <Gold.Chemscore.Hbond>
2.2240

> <Gold.Chemscore.Metal>
0.0000

> <Gold.Chemscore.Lipo>
101.6651

> <Gold.Chemscore.Internal_Hbond>
0.0000

> <Gold.Chemscore.DEClash>
0.2061

> <Gold.Chemscore.DEInternal>
1.2073

> <Gold.Chemscore.Rot>
1.8970

> <Gold.Chemscore.Internal.Correction>
   9.000000E+99

> <Gold.Chemscore.Hbonds>
donor molecule, donor type, donor heavy atom, donor atom, acceptor molecule, acceptor atom, score
      P1  H  6896  6909       L1    13  0.55
      P1  H  6934  6947       L1    19  0.03

> <Gold.Chemscore.Hbond.Weighted>
-7.4280

> <Gold.Chemscore.Metal.Weighted>
-0.0000

> <Gold.Chemscore.Lipo.Weighted>
-11.8948

> <Gold.Chemscore.Internal_Hbond.Weighted>
0.0000

> <Gold.Chemscore.DEClash.Weighted>
0.2061

> <Gold.Chemscore.DEInternal.Weighted>
1.2073

> <Gold.Chemscore.Rot.Weighted>
4.8564

> <Gold.Chemscore.Internal.Correction.Weighted>
   9.000000E+99

> <Gold.Protein.RotatedTorsions>
[ 6907 6896 6895 6894 ] final   37.72 input  -60.11 | X-H torsion
[ 7974 7965 7964 7962 ] final  -64.98 input  175.53 | X-H torsion
[ 8008 7997 7996 7995 ] final  139.25 input   59.86 | X-H torsion
[ 10167 10162 10161 10158 ] final  -57.92 input  -65.29 | X-H torsion
[ 10718 10713 10712 10709 ] final  128.20 input   66.30 | X-H torsion
[ 10763 10752 10751 10750 ] final  -83.34 input  -60.55 | X-H torsion
[ 11005 11000 10999 10996 ] final -126.48 input  -57.11 | X-H torsion

> <Gold.Protein.ActiveResidues>
 VAL166  LYS551  ARG553  GLY616  TRP617  ASP618  TYR619  PRO620  LYS621  CYS622 
 ASP623  PHE694  ASN695  SER759  ASP760  ASP761  ALA762  ILE779  LEU786  VAL792 
 PHE793  MET794  SER795  GLU796  ALA797  LYS798  CYS799  TRP800  GLU811  SER814 

> <Gold.Protein.RotatedAtoms>
  152.1469  134.9019  160.0550 H   0  0  0  0  0  0  0  0  0  0  0  0  # atno 6907 bound_to 6896
  152.0066  133.3840  159.4211 H   0  0  0  0  0  0  0  0  0  0  0  0  # atno 6908 bound_to 6896
  150.6871  134.3698  159.5031 H   0  0  0  0  0  0  0  0  0  0  0  0  # atno 6909 bound_to 6896
  145.7599  140.8866  143.0435 H   0  0  0  0  0  0  0  0  0  0  0  0  # atno 7974 bound_to 7965
  156.2991  140.2372  156.4206 H   0  0  0  0  0  0  0  0  0  0  0  0  # atno 8008 bound_to 7997
  154.8359  140.0430  157.1528 H   0  0  0  0  0  0  0  0  0  0  0  0  # atno 8009 bound_to 7997
  154.9157  140.2996  155.5246 H   0  0  0  0  0  0  0  0  0  0  0  0  # atno 8010 bound_to 7997
  140.6229  143.2426  151.5437 H   0  0  0  0  0  0  0  0  0  0  0  0  # atno 10167 bound_to 10162
  157.5265  131.1098  150.9074 H   0  0  0  0  0  0  0  0  0  0  0  0  # atno 10718 bound_to 10713
  154.5865  135.5559  153.7236 H   0  0  0  0  0  0  0  0  0  0  0  0  # atno 10763 bound_to 10752
  153.0101  135.6333  154.1909 H   0  0  0  0  0  0  0  0  0  0  0  0  # atno 10764 bound_to 10752
  154.1849  135.2885  155.3020 H   0  0  0  0  0  0  0  0  0  0  0  0  # atno 10765 bound_to 10752
  140.9678  134.0847  157.3901 H   0  0  0  0  0  0  0  0  0  0  0  0  # atno 11005 bound_to 11000
  144.6832  139.9709  143.7482 LP  0  0  0  0  0  0  0  0  0  0  0  0  # atno 17320 bound_to 7965
  146.0274  139.3304  143.0776 LP  0  0  0  0  0  0  0  0  0  0  0  0  # atno 17321 bound_to 7965
  139.5454  144.2535  152.1432 LP  0  0  0  0  0  0  0  0  0  0  0  0  # atno 17342 bound_to 10162
  140.1760  144.4890  150.6554 LP  0  0  0  0  0  0  0  0  0  0  0  0  # atno 17343 bound_to 10162
  156.9668  130.5476  149.5288 LP  0  0  0  0  0  0  0  0  0  0  0  0  # atno 17370 bound_to 10713
  156.0391  130.5475  150.8727 LP  0  0  0  0  0  0  0  0  0  0  0  0  # atno 17371 bound_to 10713
  139.8901  135.0109  156.6716 LP  0  0  0  0  0  0  0  0  0  0  0  0  # atno 17394 bound_to 11000
  140.7373  133.9007  155.8253 LP  0  0  0  0  0  0  0  0  0  0  0  0  # atno 17395 bound_to 11000

$$$$
