AV-unprocessed.smi:926|AV-procd|sdf|4185|dock9
  -GOLD-   22720 2 93D 1   1.00000     0.00000
 Structure written by MMmdl.
 37 39  0  0  0  0  0  0  0  0  1 V2000
  149.7090  141.4491  154.0166 O   0  0  0  0  0  0  0  0  0  0  0  0
  149.4649  140.4520  154.6958 C   0  0  0  0  0  0  0  0  0  0  0  0
  149.1976  139.1109  154.0123 C   0  0  0  0  0  0  0  0  0  0  0  0
  150.1426  138.1055  154.4581 N   0  0  0  0  0  0  0  0  0  0  0  0
  151.4682  138.0261  154.3231 C   0  0  0  0  0  0  0  0  0  0  0  0
  151.9510  136.9253  154.8791 N   0  0  0  0  0  0  0  0  0  0  0  0
  150.8195  136.3042  155.3813 N   0  0  0  0  0  0  0  0  0  0  0  0
  149.7433  136.9992  155.1336 N   0  0  0  0  0  0  0  0  0  0  0  0
  149.4111  140.4638  156.0366 N   0  0  0  0  0  0  0  0  0  0  0  0
  149.6349  141.6366  156.8737 C   0  0  0  0  0  0  0  0  0  0  0  0
  151.0594  141.6528  157.4550 C   0  0  0  0  0  0  0  0  0  0  0  0
  151.1466  142.3786  158.8121 C   0  0  2  0  0  0  0  0  0  0  0  0
  150.4295  143.7491  158.8358 C   0  0  0  0  0  0  0  0  0  0  0  0
  151.5326  144.7140  159.3068 C   0  0  1  0  0  0  0  0  0  0  0  0
  151.8665  144.4352  160.7841 C   0  0  0  0  0  0  0  0  0  0  0  0
  152.6261  143.0970  160.7126 C   0  0  0  0  0  0  0  0  0  0  0  0
  152.5904  142.7666  159.2080 C   0  0  2  0  0  0  0  0  0  0  0  0
  152.7551  144.1531  158.5923 C   0  0  0  0  0  0  0  0  0  0  0  0
  148.1878  138.7737  154.2505 H   0  0  0  0  0  0  0  0  0  0  0  0
  149.2566  139.2079  152.9267 H   0  0  0  0  0  0  0  0  0  0  0  0
  152.0727  138.7670  153.8207 H   0  0  0  0  0  0  0  0  0  0  0  0
  149.1995  139.5982  156.5117 H   0  0  0  0  0  0  0  0  0  0  0  0
  149.4686  142.5209  156.2586 H   0  0  0  0  0  0  0  0  0  0  0  0
  148.8942  141.6749  157.6744 H   0  0  0  0  0  0  0  0  0  0  0  0
  151.4002  140.6249  157.5862 H   0  0  0  0  0  0  0  0  0  0  0  0
  151.7436  142.1084  156.7386 H   0  0  0  0  0  0  0  0  0  0  0  0
  150.7263  141.7214  159.5749 H   0  0  0  0  0  0  0  0  0  0  0  0
  150.0837  144.0362  157.8420 H   0  0  0  0  0  0  0  0  0  0  0  0
  149.5643  143.7525  159.4997 H   0  0  0  0  0  0  0  0  0  0  0  0
  151.3159  145.7616  159.0966 H   0  0  0  0  0  0  0  0  0  0  0  0
  152.5060  145.2180  161.1941 H   0  0  0  0  0  0  0  0  0  0  0  0
  150.9714  144.3736  161.4041 H   0  0  0  0  0  0  0  0  0  0  0  0
  153.6538  143.2221  161.0557 H   0  0  0  0  0  0  0  0  0  0  0  0
  152.1644  142.3205  161.3237 H   0  0  0  0  0  0  0  0  0  0  0  0
  153.3446  142.0371  158.9103 H   0  0  0  0  0  0  0  0  0  0  0  0
  152.6652  144.1642  157.5052 H   0  0  0  0  0  0  0  0  0  0  0  0
  153.6862  144.6461  158.8775 H   0  0  0  0  0  0  0  0  0  0  0  0
  1  2  2  0  0  0  0
  2  3  1  0  0  0  0
  2  9  1  0  0  0  0
  3  4  1  0  0  0  0
  3 19  1  0  0  0  0
  3 20  1  0  0  0  0
  4  8  1  0  0  0  0
  4  5  1  0  0  0  0
  5  6  2  0  0  0  0
  5 21  1  0  0  0  0
  6  7  1  0  0  0  0
  7  8  2  0  0  0  0
  9 10  1  0  0  0  0
  9 22  1  0  0  0  0
 10 11  1  0  0  0  0
 10 23  1  0  0  0  0
 10 24  1  0  0  0  0
 11 12  1  0  0  0  0
 11 25  1  0  0  0  0
 11 26  1  0  0  0  0
 12 17  1  0  0  0  0
 12 13  1  0  0  0  0
 12 27  1  0  0  0  0
 13 14  1  0  0  0  0
 13 28  1  0  0  0  0
 13 29  1  0  0  0  0
 14 18  1  0  0  0  0
 14 15  1  0  0  0  0
 14 30  1  0  0  0  0
 15 16  1  0  0  0  0
 15 31  1  0  0  0  0
 15 32  1  0  0  0  0
 16 17  1  0  0  0  0
 16 33  1  0  0  0  0
 16 34  1  0  0  0  0
 17 18  1  0  0  0  0
 17 35  1  0  0  0  0
 18 36  1  0  0  0  0
 18 37  1  0  0  0  0
M  END
> <s_m_source_file>
AV-unprocessed.smi

> <i_m_source_file_index>
926

> <i_lp_mmshare_version>
43012

> <i_f3d_flags>
0

> <s_epik_input>
bjFubltjSF1uMVtDSDJdQyg9TylbTkhdW0NIMl1bQ0gyXVtDQEhdKFtDSDJdW0NASF0yMylbQ0BIXShbQ0gyXTMpW0NIMl1bQ0gyXTI=

> <s_epik_cmdline>
J2VwaWtfcHl0aG9uJywgJy1waCcsICc3LjAnLCAnLXRuJywgJzgnLCAnLW1hJywgJzIwMCcsICctbWV0YWxfYmluZGluZycsICctaW1hZScsICc8aW5maWxlLm1hZT4nLCAnLW9tYWUnLCAnPG91dGZpbGUubWFlPic=

> <r_lp_tautomer_probability>
1

> <r_epik_Ionization_Penalty>
4.22645e-07

> <r_epik_Ionization_Penalty_Charging>
0

> <r_epik_Ionization_Penalty_Neutral>
4.22645e-07

> <r_epik_State_Penalty>
-0

> <r_epik_Charging_Adjusted_Penalty>
0

> <i_epik_Tot_Q>
0

> <i_epik_Tot_abs_Q>
0

> <r_epik_Metal_State_Penalty>
-0

> <b_epik_Metal_Only>
0

> <s_lp_Force_Field>
OPLS_2005

> <r_lp_Energy>
50.9279

> <b_lp_Chiralities_Consistent>
1

> <s_lp_Variant>
AV-unprocessed.smi:926-3

> <Gold.Version>
5.8.1

> <Gold.Id.Protein>
6NUR|6NUR_protein|mol2

> <Gold.PLP.Fitness>
46.6394

> <Gold.PLP.PLP>
-41.5295

> <Gold.PLP.part.hbond>
-3.0000

> <Gold.PLP.part.metal>
0.0000

> <Gold.PLP.part.buried>
-4.8898

> <Gold.PLP.part.nonpolar>
-35.3195

> <Gold.PLP.part.repulsive>
0.6879

> <Gold.PLP.ligand.clash>
0.0000

> <Gold.PLP.ligand.torsion>
0.4425

> <Gold.PLP.Chemscore.Hbond>
1.9833

> <Gold.PLP.Chemscore.CHOScore>
0.0000

> <Gold.PLP.Chemscore.Metal>
0.0000

> <Gold.Chemscore.Hbonds>
donor molecule, donor type, donor heavy atom, donor atom, acceptor molecule, acceptor atom, score
      P1  H  7989  7998       L1     1  0.20
      P1  H  8011  8017       L1     1  0.67
      P1  H 10752 10763       L1     6  0.99

> <Gold.PLP.Chemscore.Internal.Correction>
0.0449

> <Gold.Rescore>
     Score         DG    S(hbond)    S(metal)    S(lipo)     H(rot)  DE(clash)    DE(int)     intcor
     16.24     -17.18       1.91        0.00     101.16       2.54       0.45       0.49       ----

> <Gold.Chemscore.Fitness>
16.2414

> <Gold.Chemscore.DG>
-17.1809

> <Gold.Chemscore.ZeroCoef>
-5.4800

> <Gold.Chemscore.Hbond>
1.9091

> <Gold.Chemscore.Metal>
0.0000

> <Gold.Chemscore.Lipo>
101.1630

> <Gold.Chemscore.Internal_Hbond>
0.0000

> <Gold.Chemscore.DEClash>
0.4479

> <Gold.Chemscore.DEInternal>
0.4916

> <Gold.Chemscore.Rot>
2.5436

> <Gold.Chemscore.Internal.Correction>
   9.000000E+99

> <Gold.Chemscore.Hbonds>
donor molecule, donor type, donor heavy atom, donor atom, acceptor molecule, acceptor atom, score
      P1  H  7989  7998       L1     1  0.03
      P1  H  8011  8017       L1     1  0.65
      P1  H 10752 10763       L1     6  0.28

> <Gold.Chemscore.Hbond.Weighted>
-6.3765

> <Gold.Chemscore.Metal.Weighted>
-0.0000

> <Gold.Chemscore.Lipo.Weighted>
-11.8361

> <Gold.Chemscore.Internal_Hbond.Weighted>
0.0000

> <Gold.Chemscore.DEClash.Weighted>
0.4479

> <Gold.Chemscore.DEInternal.Weighted>
0.4916

> <Gold.Chemscore.Rot.Weighted>
6.5117

> <Gold.Chemscore.Internal.Correction.Weighted>
   9.000000E+99

> <Gold.Protein.RotatedTorsions>
[ 6907 6896 6895 6894 ] final -179.26 input  -60.11 | X-H torsion
[ 7974 7965 7964 7962 ] final  -64.09 input  175.53 | X-H torsion
[ 8008 7997 7996 7995 ] final -116.60 input   59.86 | X-H torsion
[ 10167 10162 10161 10158 ] final  179.34 input  -65.29 | X-H torsion
[ 10718 10713 10712 10709 ] final  -12.49 input   66.30 | X-H torsion
[ 10763 10752 10751 10750 ] final   63.15 input  -60.55 | X-H torsion
[ 11005 11000 10999 10996 ] final   39.44 input  -57.11 | X-H torsion

> <Gold.Protein.ActiveResidues>
 VAL166  LYS551  ARG553  GLY616  TRP617  ASP618  TYR619  PRO620  LYS621  CYS622 
 ASP623  PHE694  ASN695  SER759  ASP760  ASP761  ALA762  ILE779  LEU786  VAL792 
 PHE793  MET794  SER795  GLU796  ALA797  LYS798  CYS799  TRP800  GLU811  SER814 

> <Gold.Protein.RotatedAtoms>
  151.6505  133.3321  159.3150 H   0  0  0  0  0  0  0  0  0  0  0  0  # atno 6907 bound_to 6896
  150.7963  134.7028  159.6569 H   0  0  0  0  0  0  0  0  0  0  0  0  # atno 6908 bound_to 6896
  152.4050  134.6227  160.0106 H   0  0  0  0  0  0  0  0  0  0  0  0  # atno 6909 bound_to 6896
  145.7710  140.8813  143.0380 H   0  0  0  0  0  0  0  0  0  0  0  0  # atno 7974 bound_to 7965
  155.0704  140.0393  157.2606 H   0  0  0  0  0  0  0  0  0  0  0  0  # atno 8008 bound_to 7997
  154.6987  140.2668  155.6716 H   0  0  0  0  0  0  0  0  0  0  0  0  # atno 8009 bound_to 7997
  156.2753  140.2745  156.1590 H   0  0  0  0  0  0  0  0  0  0  0  0  # atno 8010 bound_to 7997
  139.5332  144.2573  152.0736 H   0  0  0  0  0  0  0  0  0  0  0  0  # atno 10167 bound_to 10162
  156.6438  130.4935  149.6085 H   0  0  0  0  0  0  0  0  0  0  0  0  # atno 10718 bound_to 10713
  153.0008  135.5439  154.6307 H   0  0  0  0  0  0  0  0  0  0  0  0  # atno 10763 bound_to 10752
  154.5585  135.2832  155.0944 H   0  0  0  0  0  0  0  0  0  0  0  0  # atno 10764 bound_to 10752
  154.2156  135.6460  153.5181 H   0  0  0  0  0  0  0  0  0  0  0  0  # atno 10765 bound_to 10752
  140.2027  134.3850  155.8088 H   0  0  0  0  0  0  0  0  0  0  0  0  # atno 11005 bound_to 11000
  144.6813  139.9855  143.7484 LP  0  0  0  0  0  0  0  0  0  0  0  0  # atno 17320 bound_to 7965
  146.0170  139.3218  143.0836 LP  0  0  0  0  0  0  0  0  0  0  0  0  # atno 17321 bound_to 7965
  140.2039  144.4630  150.6418 LP  0  0  0  0  0  0  0  0  0  0  0  0  # atno 17342 bound_to 10162
  140.6523  143.2228  151.6048 LP  0  0  0  0  0  0  0  0  0  0  0  0  # atno 17343 bound_to 10162
  156.2138  130.6695  151.1297 LP  0  0  0  0  0  0  0  0  0  0  0  0  # atno 17370 bound_to 10713
  157.7162  131.0708  150.6316 LP  0  0  0  0  0  0  0  0  0  0  0  0  # atno 17371 bound_to 10713
  141.2227  133.7102  156.8285 LP  0  0  0  0  0  0  0  0  0  0  0  0  # atno 17394 bound_to 11000
  140.2036  134.8879  157.3197 LP  0  0  0  0  0  0  0  0  0  0  0  0  # atno 17395 bound_to 11000

$$$$
