AV-unprocessed.smi:1430|AV-procd|sdf|5827|dock3
  -GOLD-   22720 5483D 1   1.00000     0.00000
 Structure written by MMmdl.
 47 48  0  0  0  0  0  0  0  0  2 V2000
  154.3000  140.7232  161.7603 C   0  0  0  0  0  0  0  0  0  0  0  0
  153.7922  142.0293  161.5124 O   0  0  0  0  0  0  0  0  0  0  0  0
  152.9680  142.2159  160.4216 C   0  0  0  0  0  0  0  0  0  0  0  0
  152.5043  143.5166  160.1422 C   0  0  0  0  0  0  0  0  0  0  0  0
  151.6628  143.7166  159.0312 C   0  0  0  0  0  0  0  0  0  0  0  0
  151.3159  142.6052  158.2261 C   0  0  0  0  0  0  0  0  0  0  0  0
  150.4624  142.6699  157.0911 N   0  0  0  0  0  0  0  0  0  0  0  0
  150.1432  141.6936  156.2248 C   0  0  0  0  0  0  0  0  0  0  0  0
  150.5185  140.5243  156.2958 O   0  0  0  0  0  0  0  0  0  0  0  0
  149.3432  142.1516  155.2515 N   0  0  0  0  0  0  0  0  0  0  0  0
  148.8036  141.3520  154.1529 C   0  0  0  0  0  0  0  0  0  0  0  0
  147.5749  141.9905  153.4662 C   0  0  0  0  0  0  0  0  0  0  0  0
  146.6797  142.7011  154.4135 N   0  3  1  0  0  0  0  0  0  0  0  0
  145.7011  143.5798  153.7350 C   0  0  0  0  0  0  0  0  0  0  0  0
  144.9062  144.3903  154.7743 C   0  0  1  0  0  0  0  0  0  0  0  0
  143.8180  145.2500  154.1222 C   0  0  0  0  0  0  0  0  0  0  0  0
  144.2740  143.4993  155.6906 O   0  0  0  0  0  0  0  0  0  0  0  0
  145.1585  142.6146  156.3800 C   0  0  2  0  0  0  0  0  0  0  0  0
  146.0150  143.3451  157.4298 C   0  0  0  0  0  0  0  0  0  0  0  0
  145.9915  141.8023  155.3699 C   0  0  0  0  0  0  0  0  0  0  0  0
  151.8225  141.3430  158.5994 C   0  0  0  0  0  0  0  0  0  0  0  0
  152.6292  141.1444  159.6628 N   0  0  0  0  0  0  0  0  0  0  0  0
  154.9287  140.7435  162.6504 H   0  0  0  0  0  0  0  0  0  0  0  0
  154.9135  140.3698  160.9303 H   0  0  0  0  0  0  0  0  0  0  0  0
  153.4950  140.0095  161.9410 H   0  0  0  0  0  0  0  0  0  0  0  0
  152.7866  144.3471  160.7722 H   0  0  0  0  0  0  0  0  0  0  0  0
  151.2937  144.7104  158.8322 H   0  0  0  0  0  0  0  0  0  0  0  0
  150.0060  143.5590  156.9472 H   0  0  0  0  0  0  0  0  0  0  0  0
  149.0721  143.1239  155.2802 H   0  0  0  0  0  0  0  0  0  0  0  0
  149.5866  141.1596  153.4178 H   0  0  0  0  0  0  0  0  0  0  0  0
  148.5309  140.3792  154.5621 H   0  0  0  0  0  0  0  0  0  0  0  0
  147.9355  142.7061  152.7263 H   0  0  0  0  0  0  0  0  0  0  0  0
  147.0142  141.2389  152.9087 H   0  0  0  0  0  0  0  0  0  0  0  0
  146.2224  144.2622  153.0622 H   0  0  0  0  0  0  0  0  0  0  0  0
  145.0290  142.9756  153.1232 H   0  0  0  0  0  0  0  0  0  0  0  0
  145.5817  145.0543  155.3144 H   0  0  0  0  0  0  0  0  0  0  0  0
  144.2487  145.9577  153.4132 H   0  0  0  0  0  0  0  0  0  0  0  0
  143.2722  145.8234  154.8719 H   0  0  0  0  0  0  0  0  0  0  0  0
  143.0969  144.6341  153.5838 H   0  0  0  0  0  0  0  0  0  0  0  0
  144.5227  141.9153  156.9238 H   0  0  0  0  0  0  0  0  0  0  0  0
  146.5819  142.6319  158.0287 H   0  0  0  0  0  0  0  0  0  0  0  0
  145.3877  143.9201  158.1111 H   0  0  0  0  0  0  0  0  0  0  0  0
  146.7333  144.0287  156.9775 H   0  0  0  0  0  0  0  0  0  0  0  0
  145.3406  141.1240  154.8161 H   0  0  0  0  0  0  0  0  0  0  0  0
  146.7125  141.1820  155.9024 H   0  0  0  0  0  0  0  0  0  0  0  0
  151.5757  140.4618  158.0252 H   0  0  0  0  0  0  0  0  0  0  0  0
  147.2740  143.3107  154.9571 H   0  0  0  0  0  0  0  0  0  0  0  0
  1  2  1  0  0  0  0
  1 23  1  0  0  0  0
  1 24  1  0  0  0  0
  1 25  1  0  0  0  0
  2  3  1  0  0  0  0
  3 22  1  0  0  0  0
  3  4  2  0  0  0  0
  4  5  1  0  0  0  0
  4 26  1  0  0  0  0
  5  6  2  0  0  0  0
  5 27  1  0  0  0  0
  6  7  1  0  0  0  0
  6 21  1  0  0  0  0
  7  8  1  0  0  0  0
  7 28  1  0  0  0  0
  8  9  2  0  0  0  0
  8 10  1  0  0  0  0
 10 11  1  0  0  0  0
 10 29  1  0  0  0  0
 11 12  1  0  0  0  0
 11 30  1  0  0  0  0
 11 31  1  0  0  0  0
 12 13  1  0  0  0  0
 12 32  1  0  0  0  0
 12 33  1  0  0  0  0
 13 20  1  0  0  0  0
 13 14  1  0  0  0  0
 13 47  1  0  0  0  0
 14 15  1  0  0  0  0
 14 34  1  0  0  0  0
 14 35  1  0  0  0  0
 15 16  1  0  0  0  0
 15 17  1  0  0  0  0
 15 36  1  0  0  0  0
 16 37  1  0  0  0  0
 16 38  1  0  0  0  0
 16 39  1  0  0  0  0
 17 18  1  0  0  0  0
 18 19  1  0  0  0  0
 18 20  1  0  0  0  0
 18 40  1  0  0  0  0
 19 41  1  0  0  0  0
 19 42  1  0  0  0  0
 19 43  1  0  0  0  0
 20 44  1  0  0  0  0
 20 45  1  0  0  0  0
 21 22  2  0  0  0  0
 21 46  1  0  0  0  0
M  CHG  1  13   1
M  END
> <s_m_source_file>
AV-unprocessed.smi

> <i_m_source_file_index>
1430

> <i_lp_mmshare_version>
43012

> <i_f3d_flags>
0

> <s_epik_input>
W0NIM11PYzFbY0hdW2NIXWMoW2NIXW4xKVtOSF1DKD1PKVtOSF1bQ0gyXVtDSDJdTjJbQ0gyXVtDQEBIXShbQ0gzXSlPW0NAQEhdKFtDSDNdKVtDSDJdMg==

> <s_epik_cmdline>
J2VwaWtfcHl0aG9uJywgJy1waCcsICc3LjAnLCAnLXRuJywgJzgnLCAnLW1hJywgJzIwMCcsICctbWV0YWxfYmluZGluZycsICctaW1hZScsICc8aW5maWxlLm1hZT4nLCAnLW9tYWUnLCAnPG91dGZpbGUubWFlPic=

> <r_lp_tautomer_probability>
1

> <r_epik_Ionization_Penalty>
0.602607

> <r_epik_Ionization_Penalty_Charging>
0.602531

> <r_epik_Ionization_Penalty_Neutral>
7.66983e-05

> <r_epik_State_Penalty>
0.617039

> <r_epik_Charging_Adjusted_Penalty>
1.21957

> <i_epik_Tot_Q>
1

> <i_epik_Tot_abs_Q>
1

> <r_epik_Metal_State_Penalty>
0.617043

> <b_epik_Metal_Only>
0

> <s_lp_Force_Field>
OPLS_2005

> <r_lp_Energy>
27.5675

> <b_lp_Chiralities_Consistent>
1

> <s_lp_Variant>
AV-unprocessed.smi:1430-6

> <Gold.Version>
5.8.1

> <Gold.Id.Protein>
6NUR|6NUR_protein|mol2

> <Gold.PLP.Fitness>
48.7111

> <Gold.PLP.PLP>
-41.3601

> <Gold.PLP.part.hbond>
-2.9675

> <Gold.PLP.part.metal>
0.0000

> <Gold.PLP.part.buried>
-5.8957

> <Gold.PLP.part.nonpolar>
-31.4182

> <Gold.PLP.part.repulsive>
0.4537

> <Gold.PLP.ligand.clash>
0.0000

> <Gold.PLP.ligand.torsion>
0.3320

> <Gold.PLP.Chemscore.Hbond>
2.6546

> <Gold.PLP.Chemscore.CHOScore>
0.0000

> <Gold.PLP.Chemscore.Metal>
0.0000

> <Gold.Chemscore.Hbonds>
donor molecule, donor type, donor heavy atom, donor atom, acceptor molecule, acceptor atom, score
      L1  H     7    28       P1  8028  0.89
      L1  H    10    29       P1  8028  1.00
      L1  H    13    47       P1  8028  0.91

> <Gold.PLP.Chemscore.Internal.Correction>
0.0510

> <Gold.Rescore>
     Score         DG    S(hbond)    S(metal)    S(lipo)     H(rot)  DE(clash)    DE(int)     intcor
     16.05     -17.84       1.97        0.00      87.83       1.76       0.03       1.76       ----

> <Gold.Chemscore.Fitness>
16.0459

> <Gold.Chemscore.DG>
-17.8363

> <Gold.Chemscore.ZeroCoef>
-5.4800

> <Gold.Chemscore.Hbond>
1.9724

> <Gold.Chemscore.Metal>
0.0000

> <Gold.Chemscore.Lipo>
87.8259

> <Gold.Chemscore.Internal_Hbond>
0.0000

> <Gold.Chemscore.DEClash>
0.0339

> <Gold.Chemscore.DEInternal>
1.7566

> <Gold.Chemscore.Rot>
1.7606

> <Gold.Chemscore.Internal.Correction>
   9.000000E+99

> <Gold.Chemscore.Hbonds>
donor molecule, donor type, donor heavy atom, donor atom, acceptor molecule, acceptor atom, score
      L1  H     7    28       P1  8028  0.81
      L1  H    10    29       P1  8028  1.00
      L1  H    13    47       P1  8028  0.07

> <Gold.Chemscore.Hbond.Weighted>
-6.5879

> <Gold.Chemscore.Metal.Weighted>
-0.0000

> <Gold.Chemscore.Lipo.Weighted>
-10.2756

> <Gold.Chemscore.Internal_Hbond.Weighted>
0.0000

> <Gold.Chemscore.DEClash.Weighted>
0.0339

> <Gold.Chemscore.DEInternal.Weighted>
1.7566

> <Gold.Chemscore.Rot.Weighted>
4.5072

> <Gold.Chemscore.Internal.Correction.Weighted>
   9.000000E+99

> <Gold.Protein.RotatedTorsions>
[ 6907 6896 6895 6894 ] final  -39.87 input  -60.11 | X-H torsion
[ 7974 7965 7964 7962 ] final  -94.44 input  175.53 | X-H torsion
[ 8008 7997 7996 7995 ] final -165.13 input   59.86 | X-H torsion
[ 10167 10162 10161 10158 ] final  -10.91 input  -65.29 | X-H torsion
[ 10718 10713 10712 10709 ] final  100.93 input   66.30 | X-H torsion
[ 10763 10752 10751 10750 ] final  -79.45 input  -60.55 | X-H torsion
[ 11005 11000 10999 10996 ] final  110.75 input  -57.11 | X-H torsion

> <Gold.Protein.ActiveResidues>
 VAL166  LYS551  ARG553  GLY616  TRP617  ASP618  TYR619  PRO620  LYS621  CYS622 
 ASP623  PHE694  ASN695  SER759  ASP760  ASP761  ALA762  ILE779  LEU786  VAL792 
 PHE793  MET794  SER795  GLU796  ALA797  LYS798  CYS799  TRP800  GLU811  SER814 

> <Gold.Protein.RotatedAtoms>
  150.9852  134.9199  159.7867 H   0  0  0  0  0  0  0  0  0  0  0  0  # atno 6907 bound_to 6896
  152.5234  134.3356  159.9208 H   0  0  0  0  0  0  0  0  0  0  0  0  # atno 6908 bound_to 6896
  151.3363  133.3939  159.2701 H   0  0  0  0  0  0  0  0  0  0  0  0  # atno 6909 bound_to 6896
  145.3732  140.9508  143.2435 H   0  0  0  0  0  0  0  0  0  0  0  0  # atno 7974 bound_to 7965
  155.8454  140.0955  157.1708 H   0  0  0  0  0  0  0  0  0  0  0  0  # atno 8008 bound_to 7997
  154.3983  140.1393  156.3841 H   0  0  0  0  0  0  0  0  0  0  0  0  # atno 8009 bound_to 7997
  155.8019  140.3452  155.5410 H   0  0  0  0  0  0  0  0  0  0  0  0  # atno 8010 bound_to 7997
  140.7126  143.5696  150.9106 H   0  0  0  0  0  0  0  0  0  0  0  0  # atno 10167 bound_to 10162
  157.6842  131.0712  150.5175 H   0  0  0  0  0  0  0  0  0  0  0  0  # atno 10718 bound_to 10713
  154.5388  135.5695  153.6822 H   0  0  0  0  0  0  0  0  0  0  0  0  # atno 10763 bound_to 10752
  152.9958  135.6223  154.2530 H   0  0  0  0  0  0  0  0  0  0  0  0  # atno 10764 bound_to 10752
  154.2460  135.2861  155.2815 H   0  0  0  0  0  0  0  0  0  0  0  0  # atno 10765 bound_to 10752
  139.8888  134.9491  156.6326 H   0  0  0  0  0  0  0  0  0  0  0  0  # atno 11005 bound_to 11000
  144.8561  139.5248  143.6834 LP  0  0  0  0  0  0  0  0  0  0  0  0  # atno 17320 bound_to 7965
  146.2876  139.7047  142.9184 LP  0  0  0  0  0  0  0  0  0  0  0  0  # atno 17321 bound_to 7965
  139.9422  143.6368  152.3051 LP  0  0  0  0  0  0  0  0  0  0  0  0  # atno 17342 bound_to 10162
  139.6857  144.7652  151.1528 LP  0  0  0  0  0  0  0  0  0  0  0  0  # atno 17343 bound_to 10162
  156.5490  130.4227  149.6117 LP  0  0  0  0  0  0  0  0  0  0  0  0  # atno 17370 bound_to 10713
  156.2919  130.7129  151.1980 LP  0  0  0  0  0  0  0  0  0  0  0  0  # atno 17371 bound_to 10713
  140.7655  133.8782  155.8451 LP  0  0  0  0  0  0  0  0  0  0  0  0  # atno 17394 bound_to 11000
  140.9886  134.1309  157.4429 LP  0  0  0  0  0  0  0  0  0  0  0  0  # atno 17395 bound_to 11000

$$$$
