AV-unprocessed.smi:1770|AV-procd|sdf|7155|dock2
  -GOLD-   22720 8393D 1   1.00000     0.00000
 Structure written by MMmdl.
 37 38  0  0  0  0  0  0  0  0  1 V2000
  157.1462  140.6491  159.4118 C   0  0  0  0  0  0  0  0  0  0  0  0
  155.9956  139.8451  159.2223 O   0  0  0  0  0  0  0  0  0  0  0  0
  155.1786  139.7803  160.3841 C   0  0  0  0  0  0  0  0  0  0  0  0
  154.2968  141.0293  160.4831 C   0  0  0  0  0  0  0  0  0  0  0  0
  154.3136  141.6873  161.5221 O   0  0  0  0  0  0  0  0  0  0  0  0
  153.5738  141.3374  159.3903 N   0  0  0  0  0  0  0  0  0  0  0  0
  152.6810  142.4234  159.1549 C   0  0  0  0  0  0  0  0  0  0  0  0
  152.7931  143.6794  159.8007 C   0  0  0  0  0  0  0  0  0  0  0  0
  151.8671  144.6932  159.4960 C   0  0  0  0  0  0  0  0  0  0  0  0
  150.8562  144.4166  158.5592 C   0  0  0  0  0  0  0  0  0  0  0  0
  150.7252  143.2228  157.9468 N   0  0  0  0  0  0  0  0  0  0  0  0
  151.6106  142.2387  158.2376 C   0  0  0  0  0  0  0  0  0  0  0  0
  151.4263  140.9961  157.5989 N   0  0  0  0  0  0  0  0  0  0  0  0
  150.4553  140.1298  158.2647 C   0  0  0  0  0  0  0  0  0  0  0  0
  150.5802  138.6834  157.7569 C   0  0  0  0  0  0  0  0  0  0  0  0
  150.4689  138.6267  156.2245 C   0  0  0  0  0  0  0  0  0  0  0  0
  151.4886  139.5801  155.5795 C   0  0  0  0  0  0  0  0  0  0  0  0
  151.3415  141.0058  156.1391 C   0  0  0  0  0  0  0  0  0  0  0  0
  157.7367  140.6647  158.4957 H   0  0  0  0  0  0  0  0  0  0  0  0
  157.7746  140.2557  160.2117 H   0  0  0  0  0  0  0  0  0  0  0  0
  156.8731  141.6769  159.6541 H   0  0  0  0  0  0  0  0  0  0  0  0
  154.5434  138.8939  160.3490 H   0  0  0  0  0  0  0  0  0  0  0  0
  155.7975  139.7142  161.2801 H   0  0  0  0  0  0  0  0  0  0  0  0
  153.7232  140.7330  158.5949 H   0  0  0  0  0  0  0  0  0  0  0  0
  153.5599  143.8874  160.5296 H   0  0  0  0  0  0  0  0  0  0  0  0
  151.9304  145.6606  159.9716 H   0  0  0  0  0  0  0  0  0  0  0  0
  150.1285  145.1713  158.2999 H   0  0  0  0  0  0  0  0  0  0  0  0
  150.5903  140.1522  159.3464 H   0  0  0  0  0  0  0  0  0  0  0  0
  149.4521  140.5089  158.0662 H   0  0  0  0  0  0  0  0  0  0  0  0
  151.5400  138.2698  158.0703 H   0  0  0  0  0  0  0  0  0  0  0  0
  149.8104  138.0598  158.2121 H   0  0  0  0  0  0  0  0  0  0  0  0
  150.6298  137.6074  155.8723 H   0  0  0  0  0  0  0  0  0  0  0  0
  149.4602  138.9076  155.9195 H   0  0  0  0  0  0  0  0  0  0  0  0
  152.4991  139.2168  155.7714 H   0  0  0  0  0  0  0  0  0  0  0  0
  151.3628  139.5886  154.4966 H   0  0  0  0  0  0  0  0  0  0  0  0
  150.3823  141.4259  155.8336 H   0  0  0  0  0  0  0  0  0  0  0  0
  152.1215  141.6474  155.7271 H   0  0  0  0  0  0  0  0  0  0  0  0
  1  2  1  0  0  0  0
  1 19  1  0  0  0  0
  1 20  1  0  0  0  0
  1 21  1  0  0  0  0
  2  3  1  0  0  0  0
  3  4  1  0  0  0  0
  3 22  1  0  0  0  0
  3 23  1  0  0  0  0
  4  5  2  0  0  0  0
  4  6  1  0  0  0  0
  6  7  1  0  0  0  0
  6 24  1  0  0  0  0
  7 12  1  0  0  0  0
  7  8  2  0  0  0  0
  8  9  1  0  0  0  0
  8 25  1  0  0  0  0
  9 10  2  0  0  0  0
  9 26  1  0  0  0  0
 10 11  1  0  0  0  0
 10 27  1  0  0  0  0
 11 12  2  0  0  0  0
 12 13  1  0  0  0  0
 13 18  1  0  0  0  0
 13 14  1  0  0  0  0
 14 15  1  0  0  0  0
 14 28  1  0  0  0  0
 14 29  1  0  0  0  0
 15 16  1  0  0  0  0
 15 30  1  0  0  0  0
 15 31  1  0  0  0  0
 16 17  1  0  0  0  0
 16 32  1  0  0  0  0
 16 33  1  0  0  0  0
 17 18  1  0  0  0  0
 17 34  1  0  0  0  0
 17 35  1  0  0  0  0
 18 36  1  0  0  0  0
 18 37  1  0  0  0  0
M  END
> <s_m_source_file>
AV-unprocessed.smi

> <i_m_source_file_index>
1770

> <i_lp_mmshare_version>
43012

> <i_f3d_flags>
0

> <s_epik_input>
W0NIM11PW0NIMl1DKD1PKVtOSF1jMVtjSF1bY0hdW2NIXW5jMU4yW0NIMl1bQ0gyXVtDSDJdW0NIMl1bQ0gyXTI=

> <s_epik_cmdline>
J2VwaWtfcHl0aG9uJywgJy1waCcsICc3LjAnLCAnLXRuJywgJzgnLCAnLW1hJywgJzIwMCcsICctbWV0YWxfYmluZGluZycsICctaW1hZScsICc8aW5maWxlLm1hZT4nLCAnLW9tYWUnLCAnPG91dGZpbGUubWFlPic=

> <r_lp_tautomer_probability>
1

> <r_epik_Ionization_Penalty>
0.0272113

> <r_epik_Ionization_Penalty_Charging>
0

> <r_epik_Ionization_Penalty_Neutral>
0.0272113

> <r_epik_State_Penalty>
0.0213264

> <r_epik_Charging_Adjusted_Penalty>
0.0213264

> <i_epik_Tot_Q>
0

> <i_epik_Tot_abs_Q>
0

> <r_epik_Metal_State_Penalty>
0.0203232

> <b_epik_Metal_Only>
0

> <s_lp_Force_Field>
OPLS_2005

> <r_lp_Energy>
23.4593

> <b_lp_Chiralities_Consistent>
1

> <s_lp_Variant>
AV-unprocessed.smi:1770-1

> <Gold.Version>
5.8.1

> <Gold.Id.Protein>
6NUR|6NUR_protein|mol2

> <Gold.PLP.Fitness>
39.3013

> <Gold.PLP.PLP>
-34.3483

> <Gold.PLP.part.hbond>
-2.0000

> <Gold.PLP.part.metal>
0.0000

> <Gold.PLP.part.buried>
-4.9242

> <Gold.PLP.part.nonpolar>
-28.2079

> <Gold.PLP.part.repulsive>
0.2416

> <Gold.PLP.ligand.clash>
0.0000

> <Gold.PLP.ligand.torsion>
0.6999

> <Gold.PLP.Chemscore.Hbond>
1.0000

> <Gold.PLP.Chemscore.CHOScore>
1.0151

> <Gold.PLP.Chemscore.Metal>
0.0000

> <Gold.Chemscore.Hbonds>
donor molecule, donor type, donor heavy atom, donor atom, acceptor molecule, acceptor atom, score
      P1  H  7997  8009       L1     2  1.00
      L1  C    10    27       P1  8028  0.01
      L1  C    10    27       P1  8029  0.93

> <Gold.PLP.Chemscore.Internal.Correction>
0.3075

> <Gold.Rescore>
     Score         DG    S(hbond)    S(metal)    S(lipo)     H(rot)  DE(clash)    DE(int)     intcor
     13.70     -15.03       0.94        0.00      85.22       1.39       0.64       0.70       ----

> <Gold.Chemscore.Fitness>
13.6952

> <Gold.Chemscore.DG>
-15.0336

> <Gold.Chemscore.ZeroCoef>
-5.4800

> <Gold.Chemscore.Hbond>
0.9432

> <Gold.Chemscore.Metal>
0.0000

> <Gold.Chemscore.Lipo>
85.2234

> <Gold.Chemscore.Internal_Hbond>
0.0000

> <Gold.Chemscore.DEClash>
0.6419

> <Gold.Chemscore.DEInternal>
0.6964

> <Gold.Chemscore.Rot>
1.3937

> <Gold.Chemscore.Internal.Correction>
   9.000000E+99

> <Gold.Chemscore.Hbonds>
donor molecule, donor type, donor heavy atom, donor atom, acceptor molecule, acceptor atom, score
      P1  H  7997  8009       L1     2  0.39

> <Gold.Chemscore.Hbond.Weighted>
-3.1502

> <Gold.Chemscore.Metal.Weighted>
-0.0000

> <Gold.Chemscore.Lipo.Weighted>
-9.9711

> <Gold.Chemscore.Internal_Hbond.Weighted>
0.0000

> <Gold.Chemscore.DEClash.Weighted>
0.6419

> <Gold.Chemscore.DEInternal.Weighted>
0.6964

> <Gold.Chemscore.Rot.Weighted>
3.5678

> <Gold.Chemscore.Internal.Correction.Weighted>
   9.000000E+99

> <Gold.Protein.RotatedTorsions>
[ 6907 6896 6895 6894 ] final   87.08 input  -60.11 | X-H torsion
[ 7974 7965 7964 7962 ] final  -24.33 input  175.53 | X-H torsion
[ 8008 7997 7996 7995 ] final   91.09 input   59.86 | X-H torsion
[ 10167 10162 10161 10158 ] final  112.36 input  -65.29 | X-H torsion
[ 10718 10713 10712 10709 ] final -122.16 input   66.30 | X-H torsion
[ 10763 10752 10751 10750 ] final -164.16 input  -60.55 | X-H torsion
[ 11005 11000 10999 10996 ] final -157.15 input  -57.11 | X-H torsion

> <Gold.Protein.ActiveResidues>
 VAL166  LYS551  ARG553  GLY616  TRP617  ASP618  TYR619  PRO620  LYS621  CYS622 
 ASP623  PHE694  ASN695  SER759  ASP760  ASP761  ALA762  ILE779  LEU786  VAL792 
 PHE793  MET794  SER795  GLU796  ALA797  LYS798  CYS799  TRP800  GLU811  SER814 

> <Gold.Protein.RotatedAtoms>
  152.5405  134.2332  159.8832 H   0  0  0  0  0  0  0  0  0  0  0  0  # atno 6907 bound_to 6896
  151.2303  133.4447  159.2611 H   0  0  0  0  0  0  0  0  0  0  0  0  # atno 6908 bound_to 6896
  151.0722  134.9819  159.8370 H   0  0  0  0  0  0  0  0  0  0  0  0  # atno 6909 bound_to 6896
  146.1561  140.4737  142.8591 H   0  0  0  0  0  0  0  0  0  0  0  0  # atno 7974 bound_to 7965
  156.0197  140.3342  155.7025 H   0  0  0  0  0  0  0  0  0  0  0  0  # atno 8008 bound_to 7997
  155.6041  140.0658  157.2742 H   0  0  0  0  0  0  0  0  0  0  0  0  # atno 8009 bound_to 7997
  154.4311  140.1805  156.1191 H   0  0  0  0  0  0  0  0  0  0  0  0  # atno 8010 bound_to 7997
  139.6541  144.7129  151.1990 H   0  0  0  0  0  0  0  0  0  0  0  0  # atno 10167 bound_to 10162
  156.1395  130.6455  150.9749 H   0  0  0  0  0  0  0  0  0  0  0  0  # atno 10718 bound_to 10713
  154.7055  135.2996  154.9277 H   0  0  0  0  0  0  0  0  0  0  0  0  # atno 10763 bound_to 10752
  154.0196  135.6684  153.4775 H   0  0  0  0  0  0  0  0  0  0  0  0  # atno 10764 bound_to 10752
  153.0713  135.5059  154.8223 H   0  0  0  0  0  0  0  0  0  0  0  0  # atno 10765 bound_to 10752
  140.6677  134.4280  157.5232 H   0  0  0  0  0  0  0  0  0  0  0  0  # atno 11005 bound_to 11000
  144.7966  140.6133  143.6506 LP  0  0  0  0  0  0  0  0  0  0  0  0  # atno 17320 bound_to 7965
  145.4704  139.1504  143.3817 LP  0  0  0  0  0  0  0  0  0  0  0  0  # atno 17321 bound_to 7965
  140.7551  143.6100  150.8614 LP  0  0  0  0  0  0  0  0  0  0  0  0  # atno 17342 bound_to 10162
  139.9752  143.6013  152.2961 LP  0  0  0  0  0  0  0  0  0  0  0  0  # atno 17343 bound_to 10162
  157.6563  131.0889  150.7939 LP  0  0  0  0  0  0  0  0  0  0  0  0  # atno 17370 bound_to 10713
  156.8016  130.4923  149.5369 LP  0  0  0  0  0  0  0  0  0  0  0  0  # atno 17371 bound_to 10713
  139.8992  134.8597  156.1971 LP  0  0  0  0  0  0  0  0  0  0  0  0  # atno 17394 bound_to 11000
  141.0416  133.6935  156.1608 LP  0  0  0  0  0  0  0  0  0  0  0  0  # atno 17395 bound_to 11000

$$$$
