AV-unprocessed.smi:3335|AV-procd|sdf|12852|dock4
  -GOLD-   2272019243D 1   1.00000     0.00000
 Structure written by MMmdl.
 46 47  0  0  0  0  0  0  0  0  1 V2000
  153.4577  143.1183  163.8912 C   0  0  0  0  0  0  0  0  0  0  0  0
  153.1093  143.0578  162.4320 C   0  0  0  0  0  0  0  0  0  0  0  0
  152.4859  144.0616  161.6376 C   0  0  0  0  0  0  0  0  0  0  0  0
  152.3176  143.6902  160.3794 N   0  0  0  0  0  0  0  0  0  0  0  0
  152.8284  142.4396  160.3222 N   0  0  0  0  0  0  0  0  0  0  0  0
  152.8164  141.6950  159.0689 C   0  0  1  0  0  0  0  0  0  0  0  0
  153.6007  140.3782  159.2339 C   0  0  0  0  0  0  0  0  0  0  0  0
  151.3763  141.4664  158.5343 C   0  0  1  0  0  0  0  0  0  0  0  0
  150.5181  142.7496  158.5242 C   0  0  0  0  0  0  0  0  0  0  0  0
  151.4790  140.9565  157.1648 N   0  0  0  0  0  0  0  0  0  0  0  0
  150.2548  140.3364  156.6202 C   0  0  1  0  0  0  0  0  0  0  0  0
  149.3102  141.4365  156.1122 C   0  0  0  0  0  0  0  0  0  0  0  0
  150.5392  139.3289  155.4832 C   0  0  0  0  0  0  0  0  0  0  0  0
  150.9491  139.7559  154.4021 O   0  0  0  0  0  0  0  0  0  0  0  0
  150.3355  138.0106  155.6952 N   0  0  0  0  0  0  0  0  0  0  0  0
  149.8290  137.4745  156.9577 C   0  0  0  0  0  0  0  0  0  0  0  0
  149.5347  135.9973  156.6968 C   0  0  0  0  0  0  0  0  0  0  0  0
  150.4626  135.6320  155.5472 C   0  0  0  0  0  0  0  0  0  0  0  0
  150.5919  136.9274  154.7458 C   0  0  0  0  0  0  0  0  0  0  0  0
  153.3105  142.0346  161.5496 C   0  0  0  0  0  0  0  0  0  0  0  0
  153.2405  144.0969  164.3203 H   0  0  0  0  0  0  0  0  0  0  0  0
  154.5166  142.9218  164.0598 H   0  0  0  0  0  0  0  0  0  0  0  0
  152.8977  142.3826  164.4685 H   0  0  0  0  0  0  0  0  0  0  0  0
  152.1519  145.0441  161.9370 H   0  0  0  0  0  0  0  0  0  0  0  0
  153.3531  142.3087  158.3431 H   0  0  0  0  0  0  0  0  0  0  0  0
  153.7180  139.8592  158.2827 H   0  0  0  0  0  0  0  0  0  0  0  0
  153.0983  139.6963  159.9208 H   0  0  0  0  0  0  0  0  0  0  0  0
  154.6014  140.5659  159.6247 H   0  0  0  0  0  0  0  0  0  0  0  0
  150.8948  140.7383  159.1874 H   0  0  0  0  0  0  0  0  0  0  0  0
  150.3807  143.1497  159.5285 H   0  0  0  0  0  0  0  0  0  0  0  0
  149.5197  142.5702  158.1268 H   0  0  0  0  0  0  0  0  0  0  0  0
  150.9808  143.5292  157.9184 H   0  0  0  0  0  0  0  0  0  0  0  0
  152.2558  140.3128  157.1108 H   0  0  0  0  0  0  0  0  0  0  0  0
  149.7507  139.8334  157.4428 H   0  0  0  0  0  0  0  0  0  0  0  0
  148.3776  141.0173  155.7329 H   0  0  0  0  0  0  0  0  0  0  0  0
  149.7650  142.0160  155.3076 H   0  0  0  0  0  0  0  0  0  0  0  0
  149.0523  142.1295  156.9136 H   0  0  0  0  0  0  0  0  0  0  0  0
  150.5986  137.5821  157.7237 H   0  0  0  0  0  0  0  0  0  0  0  0
  148.9358  138.0012  157.2982 H   0  0  0  0  0  0  0  0  0  0  0  0
  149.6859  135.3734  157.5781 H   0  0  0  0  0  0  0  0  0  0  0  0
  148.4977  135.8810  156.3791 H   0  0  0  0  0  0  0  0  0  0  0  0
  151.4388  135.3483  155.9424 H   0  0  0  0  0  0  0  0  0  0  0  0
  150.0899  134.8002  154.9490 H   0  0  0  0  0  0  0  0  0  0  0  0
  149.8410  136.9613  153.9551 H   0  0  0  0  0  0  0  0  0  0  0  0
  151.5785  137.0028  154.2865 H   0  0  0  0  0  0  0  0  0  0  0  0
  153.7542  141.0605  161.6928 H   0  0  0  0  0  0  0  0  0  0  0  0
  1  2  1  0  0  0  0
  1 21  1  0  0  0  0
  1 22  1  0  0  0  0
  1 23  1  0  0  0  0
  2 20  2  0  0  0  0
  2  3  1  0  0  0  0
  3  4  2  0  0  0  0
  3 24  1  0  0  0  0
  4  5  1  0  0  0  0
  5  6  1  0  0  0  0
  5 20  1  0  0  0  0
  6  7  1  0  0  0  0
  6  8  1  0  0  0  0
  6 25  1  0  0  0  0
  7 26  1  0  0  0  0
  7 27  1  0  0  0  0
  7 28  1  0  0  0  0
  8  9  1  0  0  0  0
  8 10  1  0  0  0  0
  8 29  1  0  0  0  0
  9 30  1  0  0  0  0
  9 31  1  0  0  0  0
  9 32  1  0  0  0  0
 10 11  1  0  0  0  0
 10 33  1  0  0  0  0
 11 12  1  0  0  0  0
 11 13  1  0  0  0  0
 11 34  1  0  0  0  0
 12 35  1  0  0  0  0
 12 36  1  0  0  0  0
 12 37  1  0  0  0  0
 13 14  2  0  0  0  0
 13 15  1  0  0  0  0
 15 19  1  0  0  0  0
 15 16  1  0  0  0  0
 16 17  1  0  0  0  0
 16 38  1  0  0  0  0
 16 39  1  0  0  0  0
 17 18  1  0  0  0  0
 17 40  1  0  0  0  0
 17 41  1  0  0  0  0
 18 19  1  0  0  0  0
 18 42  1  0  0  0  0
 18 43  1  0  0  0  0
 19 44  1  0  0  0  0
 19 45  1  0  0  0  0
 20 46  1  0  0  0  0
M  END
> <s_m_source_file>
AV-unprocessed.smi

> <i_m_source_file_index>
3335

> <i_lp_mmshare_version>
43012

> <i_f3d_flags>
0

> <s_epik_input>
W0NIM11jMVtjSF1ubihbY0hdMSlbQ0BIXShbQ0gzXSlbQ0BIXShbQ0gzXSlbTkhdW0NASF0oW0NIM10pQyg9TylOMltDSDJdW0NIMl1bQ0gyXVtDSDJdMg==

> <s_epik_cmdline>
J2VwaWtfcHl0aG9uJywgJy1waCcsICc3LjAnLCAnLXRuJywgJzgnLCAnLW1hJywgJzIwMCcsICctbWV0YWxfYmluZGluZycsICctaW1hZScsICc8aW5maWxlLm1hZT4nLCAnLW9tYWUnLCAnPG91dGZpbGUubWFlPic=

> <r_lp_tautomer_probability>
1

> <r_epik_Ionization_Penalty>
0.918803

> <r_epik_Ionization_Penalty_Charging>
0

> <r_epik_Ionization_Penalty_Neutral>
0.918803

> <r_epik_State_Penalty>
0.958258

> <r_epik_Charging_Adjusted_Penalty>
0.958258

> <i_epik_Tot_Q>
0

> <i_epik_Tot_abs_Q>
0

> <r_epik_Metal_State_Penalty>
0.956786

> <b_epik_Metal_Only>
0

> <s_lp_Force_Field>
OPLS_2005

> <r_lp_Energy>
36.4187

> <b_lp_Chiralities_Consistent>
1

> <s_lp_Variant>
AV-unprocessed.smi:3335-16

> <Gold.Version>
5.8.1

> <Gold.Id.Protein>
6NUR|6NUR_protein|mol2

> <Gold.PLP.Fitness>
39.8923

> <Gold.PLP.PLP>
-37.9347

> <Gold.PLP.part.hbond>
-1.0000

> <Gold.PLP.part.metal>
0.0000

> <Gold.PLP.part.buried>
-5.0552

> <Gold.PLP.part.nonpolar>
-30.9551

> <Gold.PLP.part.repulsive>
0.1711

> <Gold.PLP.ligand.clash>
0.0000

> <Gold.PLP.ligand.torsion>
0.5972

> <Gold.PLP.Chemscore.Hbond>
1.0000

> <Gold.PLP.Chemscore.CHOScore>
0.0000

> <Gold.PLP.Chemscore.Metal>
0.0000

> <Gold.Chemscore.Hbonds>
donor molecule, donor type, donor heavy atom, donor atom, acceptor molecule, acceptor atom, score
      P1  H  7989  7998       L1    14  1.00

> <Gold.PLP.Chemscore.Internal.Correction>
0.1520

> <Gold.Rescore>
     Score         DG    S(hbond)    S(metal)    S(lipo)     H(rot)  DE(clash)    DE(int)     intcor
     14.51     -16.70       1.00        0.00     102.80       1.62       0.05       2.14       ----

> <Gold.Chemscore.Fitness>
14.5135

> <Gold.Chemscore.DG>
-16.6991

> <Gold.Chemscore.ZeroCoef>
-5.4800

> <Gold.Chemscore.Hbond>
0.9999

> <Gold.Chemscore.Metal>
0.0000

> <Gold.Chemscore.Lipo>
102.7996

> <Gold.Chemscore.Internal_Hbond>
0.0000

> <Gold.Chemscore.DEClash>
0.0472

> <Gold.Chemscore.DEInternal>
2.1385

> <Gold.Chemscore.Rot>
1.6204

> <Gold.Chemscore.Internal.Correction>
   9.000000E+99

> <Gold.Chemscore.Hbonds>
donor molecule, donor type, donor heavy atom, donor atom, acceptor molecule, acceptor atom, score
      P1  H  7989  7998       L1    14  0.98

> <Gold.Chemscore.Hbond.Weighted>
-3.3398

> <Gold.Chemscore.Metal.Weighted>
-0.0000

> <Gold.Chemscore.Lipo.Weighted>
-12.0276

> <Gold.Chemscore.Internal_Hbond.Weighted>
0.0000

> <Gold.Chemscore.DEClash.Weighted>
0.0472

> <Gold.Chemscore.DEInternal.Weighted>
2.1385

> <Gold.Chemscore.Rot.Weighted>
4.1482

> <Gold.Chemscore.Internal.Correction.Weighted>
   9.000000E+99

> <Gold.Protein.RotatedTorsions>
[ 6907 6896 6895 6894 ] final   29.01 input  -60.11 | X-H torsion
[ 7974 7965 7964 7962 ] final -162.98 input  175.53 | X-H torsion
[ 8008 7997 7996 7995 ] final  -89.59 input   59.86 | X-H torsion
[ 10167 10162 10161 10158 ] final    4.00 input  -65.29 | X-H torsion
[ 10718 10713 10712 10709 ] final   90.94 input   66.30 | X-H torsion
[ 10763 10752 10751 10750 ] final  -18.50 input  -60.55 | X-H torsion
[ 11005 11000 10999 10996 ] final  -22.21 input  -57.11 | X-H torsion

> <Gold.Protein.ActiveResidues>
 VAL166  LYS551  ARG553  GLY616  TRP617  ASP618  TYR619  PRO620  LYS621  CYS622 
 ASP623  PHE694  ASN695  SER759  ASP760  ASP761  ALA762  ILE779  LEU786  VAL792 
 PHE793  MET794  SER795  GLU796  ALA797  LYS798  CYS799  TRP800  GLU811  SER814 

> <Gold.Protein.RotatedAtoms>
  152.0254  134.9799  160.0571 H   0  0  0  0  0  0  0  0  0  0  0  0  # atno 6907 bound_to 6896
  152.1297  133.4396  159.4723 H   0  0  0  0  0  0  0  0  0  0  0  0  # atno 6908 bound_to 6896
  150.6855  134.2354  159.4494 H   0  0  0  0  0  0  0  0  0  0  0  0  # atno 6909 bound_to 6896
  144.7340  140.3174  143.6177 H   0  0  0  0  0  0  0  0  0  0  0  0  # atno 7974 bound_to 7965
  154.6885  140.0540  157.0339 H   0  0  0  0  0  0  0  0  0  0  0  0  # atno 8008 bound_to 7997
  155.0851  140.3213  155.4571 H   0  0  0  0  0  0  0  0  0  0  0  0  # atno 8009 bound_to 7997
  156.2720  140.2058  156.5978 H   0  0  0  0  0  0  0  0  0  0  0  0  # atno 8010 bound_to 7997
  140.6557  143.7433  150.7650 H   0  0  0  0  0  0  0  0  0  0  0  0  # atno 10167 bound_to 10162
  157.6960  131.0389  150.3654 H   0  0  0  0  0  0  0  0  0  0  0  0  # atno 10718 bound_to 10713
  153.5903  135.7002  153.5426 H   0  0  0  0  0  0  0  0  0  0  0  0  # atno 10763 bound_to 10752
  153.3184  135.4081  155.1396 H   0  0  0  0  0  0  0  0  0  0  0  0  # atno 10764 bound_to 10752
  154.8602  135.3689  154.5434 H   0  0  0  0  0  0  0  0  0  0  0  0  # atno 10765 bound_to 10752
  140.8635  133.7771  156.0103 H   0  0  0  0  0  0  0  0  0  0  0  0  # atno 11005 bound_to 11000
  145.7604  139.1823  143.2270 LP  0  0  0  0  0  0  0  0  0  0  0  0  # atno 17320 bound_to 7965
  146.0991  140.7565  142.9558 LP  0  0  0  0  0  0  0  0  0  0  0  0  # atno 17321 bound_to 7965
  140.1092  143.4715  152.2380 LP  0  0  0  0  0  0  0  0  0  0  0  0  # atno 17342 bound_to 10162
  139.5779  144.7496  151.3715 LP  0  0  0  0  0  0  0  0  0  0  0  0  # atno 17343 bound_to 10162
  156.4085  130.3929  149.6908 LP  0  0  0  0  0  0  0  0  0  0  0  0  # atno 17370 bound_to 10713
  156.4201  130.7764  151.2781 LP  0  0  0  0  0  0  0  0  0  0  0  0  # atno 17371 bound_to 10713
  140.8655  134.2789  157.5215 LP  0  0  0  0  0  0  0  0  0  0  0  0  # atno 17394 bound_to 11000
  139.8708  134.9540  156.4163 LP  0  0  0  0  0  0  0  0  0  0  0  0  # atno 17395 bound_to 11000

$$$$
