AV-unprocessed.smi:533|AV-procd|sdf|2855|dock7
  -GOLD-   2262023343D 1   1.00000     0.00000
 Structure written by MMmdl.
 35 36  0  0  0  0  0  0  0  0  2 V2000
  152.6308  142.2244  160.7242 C   0  0  0  0  0  0  0  0  0  0  0  0
  151.7853  143.1800  159.8776 C   0  0  0  0  0  0  0  0  0  0  0  0
  151.4642  142.6064  158.5853 N   0  0  0  0  0  0  0  0  0  0  0  0
  151.6792  141.3401  158.0554 C   0  0  0  0  0  0  0  0  0  0  0  0
  152.2778  140.3420  158.7066 N   0  0  0  0  0  0  0  0  0  0  0  0
  152.2592  139.3189  157.7689 C   0  0  0  0  0  0  0  0  0  0  0  0
  151.6683  139.7163  156.6096 C   0  0  0  0  0  0  0  0  0  0  0  0
  151.5162  138.8446  155.4244 C   0  0  0  0  0  0  0  0  0  0  0  0
  150.9840  139.2555  154.3954 O   0  0  0  0  0  0  0  0  0  0  0  0
  152.0289  137.5911  155.6375 N   0  5  0  0  0  0  0  0  0  0  0  0
  152.6306  137.1451  156.7951 C   0  0  0  0  0  0  0  0  0  0  0  0
  153.0630  135.9968  156.8941 O   0  0  0  0  0  0  0  0  0  0  0  0
  152.7553  137.9918  157.8674 N   0  0  0  0  0  0  0  0  0  0  0  0
  153.3821  137.5947  159.1320 C   0  0  0  0  0  0  0  0  0  0  0  0
  151.2766  141.0458  156.7944 N   0  0  0  0  0  0  0  0  0  0  0  0
  150.5974  141.9389  155.8586 C   0  0  0  0  0  0  0  0  0  0  0  0
  149.2802  141.3435  155.3393 C   0  0  0  0  0  0  0  0  0  0  0  0
  148.9479  141.9165  154.0855 O   0  0  0  0  0  0  0  0  0  0  0  0
  147.5883  141.7249  153.7398 C   0  0  0  0  0  0  0  0  0  0  0  0
  152.8651  142.6700  161.6912 H   0  0  0  0  0  0  0  0  0  0  0  0
  153.5738  141.9892  160.2300 H   0  0  0  0  0  0  0  0  0  0  0  0
  152.1033  141.2879  160.9088 H   0  0  0  0  0  0  0  0  0  0  0  0
  150.8568  143.4208  160.3963 H   0  0  0  0  0  0  0  0  0  0  0  0
  152.3196  144.1180  159.7240 H   0  0  0  0  0  0  0  0  0  0  0  0
  151.0066  143.2503  157.9568 H   0  0  0  0  0  0  0  0  0  0  0  0
  153.7289  136.5614  159.1588 H   0  0  0  0  0  0  0  0  0  0  0  0
  152.6742  137.7193  159.9521 H   0  0  0  0  0  0  0  0  0  0  0  0
  154.2437  138.2314  159.3341 H   0  0  0  0  0  0  0  0  0  0  0  0
  150.4231  142.9035  156.3317 H   0  0  0  0  0  0  0  0  0  0  0  0
  151.2637  142.1482  155.0215 H   0  0  0  0  0  0  0  0  0  0  0  0
  149.3796  140.2617  155.2407 H   0  0  0  0  0  0  0  0  0  0  0  0
  148.4794  141.5319  156.0561 H   0  0  0  0  0  0  0  0  0  0  0  0
  147.3909  142.1801  152.7694 H   0  0  0  0  0  0  0  0  0  0  0  0
  146.9263  142.1902  154.4711 H   0  0  0  0  0  0  0  0  0  0  0  0
  147.3447  140.6640  153.6701 H   0  0  0  0  0  0  0  0  0  0  0  0
  1  2  1  0  0  0  0
  1 20  1  0  0  0  0
  1 21  1  0  0  0  0
  1 22  1  0  0  0  0
  2  3  1  0  0  0  0
  2 23  1  0  0  0  0
  2 24  1  0  0  0  0
  3  4  1  0  0  0  0
  3 25  1  0  0  0  0
  4 15  1  0  0  0  0
  4  5  2  0  0  0  0
  5  6  1  0  0  0  0
  6 13  1  0  0  0  0
  6  7  2  0  0  0  0
  7  8  1  0  0  0  0
  7 15  1  0  0  0  0
  8  9  2  0  0  0  0
  8 10  1  0  0  0  0
 10 11  1  0  0  0  0
 11 12  2  0  0  0  0
 11 13  1  0  0  0  0
 13 14  1  0  0  0  0
 14 26  1  0  0  0  0
 14 27  1  0  0  0  0
 14 28  1  0  0  0  0
 15 16  1  0  0  0  0
 16 17  1  0  0  0  0
 16 29  1  0  0  0  0
 16 30  1  0  0  0  0
 17 18  1  0  0  0  0
 17 31  1  0  0  0  0
 17 32  1  0  0  0  0
 18 19  1  0  0  0  0
 19 33  1  0  0  0  0
 19 34  1  0  0  0  0
 19 35  1  0  0  0  0
M  CHG  1  10  -1
M  END
> <s_m_source_file>
AV-unprocessed.smi

> <i_m_source_file_index>
533

> <i_lp_mmshare_version>
43012

> <i_f3d_flags>
0

> <s_epik_input>
W0NIM11bQ0gyXVtOSF1jKG4xKW4oW0NIMl1bQ0gyXU9bQ0gzXSljKGMxMiljKD1PKVtuSF1jKD1PKW4yW0NIM10=

> <s_epik_cmdline>
J2VwaWtfcHl0aG9uJywgJy1waCcsICc3LjAnLCAnLXRuJywgJzgnLCAnLW1hJywgJzIwMCcsICctbWV0YWxfYmluZGluZycsICctaW1hZScsICc8aW5maWxlLm1hZT4nLCAnLW9tYWUnLCAnPG91dGZpbGUubWFlPic=

> <r_lp_tautomer_probability>
1

> <r_epik_Ionization_Penalty>
5.85583

> <r_epik_Ionization_Penalty_Charging>
1.37787e-08

> <r_epik_Ionization_Penalty_Neutral>
5.85583

> <r_epik_State_Penalty>
5.8557

> <r_epik_Charging_Adjusted_Penalty>
5.8557

> <i_epik_Tot_Q>
-1

> <i_epik_Tot_abs_Q>
1

> <r_epik_Metal_State_Penalty>
1.82051

> <b_epik_Metal_Only>
1

> <s_lp_Force_Field>
OPLS_2005

> <r_lp_Energy>
24.2596

> <b_lp_Chiralities_Consistent>
1

> <s_lp_Variant>
AV-unprocessed.smi:533-2

> <Gold.Version>
5.8.1

> <Gold.Id.Protein>
6NUR|6NUR_protein|mol2

> <Gold.PLP.Fitness>
39.2061

> <Gold.PLP.PLP>
-32.3178

> <Gold.PLP.part.hbond>
-3.3964

> <Gold.PLP.part.metal>
0.0000

> <Gold.PLP.part.buried>
-5.7549

> <Gold.PLP.part.nonpolar>
-22.9248

> <Gold.PLP.part.repulsive>
0.4190

> <Gold.PLP.ligand.clash>
0.0000

> <Gold.PLP.ligand.torsion>
0.2525

> <Gold.PLP.Chemscore.Hbond>
2.4640

> <Gold.PLP.Chemscore.CHOScore>
0.0000

> <Gold.PLP.Chemscore.Metal>
0.0000

> <Gold.Chemscore.Hbonds>
donor molecule, donor type, donor heavy atom, donor atom, acceptor molecule, acceptor atom, score
      P1  H  7989  7998       L1     9  1.00
      P1  H  8011  8017       L1    18  0.45
      P1  H 10752 10763       L1    12  1.00

> <Gold.PLP.Chemscore.Internal.Correction>
0.0013

> <Gold.Rescore>
     Score         DG    S(hbond)    S(metal)    S(lipo)     H(rot)  DE(clash)    DE(int)     intcor
     11.10     -14.06       2.15        0.00      52.02       1.83       0.00       2.96       ----

> <Gold.Chemscore.Fitness>
11.0992

> <Gold.Chemscore.DG>
-14.0584

> <Gold.Chemscore.ZeroCoef>
-5.4800

> <Gold.Chemscore.Hbond>
2.1522

> <Gold.Chemscore.Metal>
0.0000

> <Gold.Chemscore.Lipo>
52.0157

> <Gold.Chemscore.Internal_Hbond>
0.0000

> <Gold.Chemscore.DEClash>
0.0029

> <Gold.Chemscore.DEInternal>
2.9563

> <Gold.Chemscore.Rot>
1.8342

> <Gold.Chemscore.Internal.Correction>
   9.000000E+99

> <Gold.Chemscore.Hbonds>
donor molecule, donor type, donor heavy atom, donor atom, acceptor molecule, acceptor atom, score
      P1  H  7989  7998       L1     9  0.97
      P1  H  8011  8017       L1    18  0.18
      P1  H 10752 10763       L1    12  0.82

> <Gold.Chemscore.Hbond.Weighted>
-7.1882

> <Gold.Chemscore.Metal.Weighted>
-0.0000

> <Gold.Chemscore.Lipo.Weighted>
-6.0858

> <Gold.Chemscore.Internal_Hbond.Weighted>
0.0000

> <Gold.Chemscore.DEClash.Weighted>
0.0029

> <Gold.Chemscore.DEInternal.Weighted>
2.9563

> <Gold.Chemscore.Rot.Weighted>
4.6957

> <Gold.Chemscore.Internal.Correction.Weighted>
   9.000000E+99

> <Gold.Protein.RotatedTorsions>
[ 6907 6896 6895 6894 ] final  120.81 input  -60.11 | X-H torsion
[ 7974 7965 7964 7962 ] final  -54.61 input  175.53 | X-H torsion
[ 8008 7997 7996 7995 ] final -149.65 input   59.86 | X-H torsion
[ 10167 10162 10161 10158 ] final   30.49 input  -65.29 | X-H torsion
[ 10718 10713 10712 10709 ] final  -49.36 input   66.30 | X-H torsion
[ 10763 10752 10751 10750 ] final  122.13 input  -60.55 | X-H torsion
[ 11005 11000 10999 10996 ] final   -7.76 input  -57.11 | X-H torsion

> <Gold.Protein.ActiveResidues>
 VAL166  LYS551  ARG553  GLY616  TRP617  ASP618  TYR619  PRO620  LYS621  CYS622 
 ASP623  PHE694  ASN695  SER759  ASP760  ASP761  ALA762  ILE779  LEU786  VAL792 
 PHE793  MET794  SER795  GLU796  ALA797  LYS798  CYS799  TRP800  GLU811  SER814 

> <Gold.Protein.RotatedAtoms>
  152.4370  133.7378  159.6623 H   0  0  0  0  0  0  0  0  0  0  0  0  # atno 6907 bound_to 6896
  150.8255  133.8169  159.3126 H   0  0  0  0  0  0  0  0  0  0  0  0  # atno 6908 bound_to 6896
  151.5838  135.1059  160.0075 H   0  0  0  0  0  0  0  0  0  0  0  0  # atno 6909 bound_to 6896
  145.8836  140.8125  142.9827 H   0  0  0  0  0  0  0  0  0  0  0  0  # atno 7974 bound_to 7965
  155.6110  140.0671  157.2706 H   0  0  0  0  0  0  0  0  0  0  0  0  # atno 8008 bound_to 7997
  154.4253  140.1801  156.1320 H   0  0  0  0  0  0  0  0  0  0  0  0  # atno 8009 bound_to 7997
  156.0085  140.3329  155.6920 H   0  0  0  0  0  0  0  0  0  0  0  0  # atno 8010 bound_to 7997
  140.4673  144.0816  150.6228 H   0  0  0  0  0  0  0  0  0  0  0  0  # atno 10167 bound_to 10162
  156.1901  130.4152  149.9384 H   0  0  0  0  0  0  0  0  0  0  0  0  # atno 10718 bound_to 10713
  153.6250  135.3406  155.3023 H   0  0  0  0  0  0  0  0  0  0  0  0  # atno 10763 bound_to 10752
  154.8592  135.4282  154.2167 H   0  0  0  0  0  0  0  0  0  0  0  0  # atno 10764 bound_to 10752
  153.3049  135.7027  153.7242 H   0  0  0  0  0  0  0  0  0  0  0  0  # atno 10765 bound_to 10752
  140.7162  133.8867  155.8787 H   0  0  0  0  0  0  0  0  0  0  0  0  # atno 11005 bound_to 11000
  144.6728  140.1421  143.7436 LP  0  0  0  0  0  0  0  0  0  0  0  0  # atno 17320 bound_to 7965
  145.8994  139.2421  143.1503 LP  0  0  0  0  0  0  0  0  0  0  0  0  # atno 17321 bound_to 7965
  140.4020  143.2699  151.9936 LP  0  0  0  0  0  0  0  0  0  0  0  0  # atno 17342 bound_to 10162
  139.4814  144.5989  151.7641 LP  0  0  0  0  0  0  0  0  0  0  0  0  # atno 17343 bound_to 10162
  156.7127  130.8976  151.3611 LP  0  0  0  0  0  0  0  0  0  0  0  0  # atno 17370 bound_to 10713
  157.6923  130.9246  150.0548 LP  0  0  0  0  0  0  0  0  0  0  0  0  # atno 17371 bound_to 10713
  141.0042  134.1109  157.4287 LP  0  0  0  0  0  0  0  0  0  0  0  0  # atno 17394 bound_to 11000
  139.8859  135.0077  156.6465 LP  0  0  0  0  0  0  0  0  0  0  0  0  # atno 17395 bound_to 11000

$$$$
