AV-unprocessed.smi:1015|AV-procd|sdf|4435|dock3
  -GOLD-   22720 2393D 1   1.00000     0.00000
 Structure written by MMmdl.
 43 44  0  0  0  0  0  0  0  0  2 V2000
  152.2434  142.9052  159.7416 C   0  0  0  0  0  0  0  0  0  0  0  0
  150.9277  142.4447  159.4879 O   0  0  0  0  0  0  0  0  0  0  0  0
  150.6255  142.3966  158.1034 C   0  0  0  0  0  0  0  0  0  0  0  0
  149.1520  141.9970  157.9299 C   0  0  0  0  0  0  0  0  0  0  0  0
  148.6861  142.1344  156.5263 N   0  3  2  0  0  0  0  0  0  0  0  0
  147.2575  141.7579  156.3703 C   0  0  0  0  0  0  0  0  0  0  0  0
  146.7569  142.0295  154.9390 C   0  0  0  0  0  0  0  0  0  0  0  0
  147.6193  141.3257  153.8747 C   0  0  2  0  0  0  0  0  0  0  0  0
  147.3543  139.8020  153.8259 C   0  0  0  0  0  0  0  0  0  0  0  0
  148.5788  139.0449  153.5884 N   0  0  0  0  0  0  0  0  0  0  0  0
  149.2855  138.3938  154.5263 C   0  0  0  0  0  0  0  0  0  0  0  0
  148.9322  138.2975  155.7012 O   0  0  0  0  0  0  0  0  0  0  0  0
  150.6159  137.7909  154.0775 C   0  0  0  0  0  0  0  0  0  0  0  0
  151.6759  138.1673  154.9939 N   0  0  0  0  0  0  0  0  0  0  0  0
  152.1587  139.3647  155.3329 C   0  0  0  0  0  0  0  0  0  0  0  0
  153.1166  139.2660  156.2418 N   0  0  0  0  0  0  0  0  0  0  0  0
  153.2097  137.9006  156.4540 N   0  0  0  0  0  0  0  0  0  0  0  0
  152.3566  137.2435  155.7174 N   0  0  0  0  0  0  0  0  0  0  0  0
  149.0958  141.7132  154.1040 C   0  0  0  0  0  0  0  0  0  0  0  0
  149.5506  141.4269  155.5449 C   0  0  0  0  0  0  0  0  0  0  0  0
  152.4259  142.9195  160.8160 H   0  0  0  0  0  0  0  0  0  0  0  0
  152.3863  143.9181  159.3627 H   0  0  0  0  0  0  0  0  0  0  0  0
  152.9863  142.2515  159.2826 H   0  0  0  0  0  0  0  0  0  0  0  0
  150.8417  143.3531  157.6270 H   0  0  0  0  0  0  0  0  0  0  0  0
  151.2602  141.6518  157.6206 H   0  0  0  0  0  0  0  0  0  0  0  0
  148.9908  140.9732  158.2705 H   0  0  0  0  0  0  0  0  0  0  0  0
  148.5525  142.6341  158.5815 H   0  0  0  0  0  0  0  0  0  0  0  0
  147.1246  140.7076  156.6324 H   0  0  0  0  0  0  0  0  0  0  0  0
  146.6503  142.3328  157.0705 H   0  0  0  0  0  0  0  0  0  0  0  0
  145.7140  141.7251  154.8435 H   0  0  0  0  0  0  0  0  0  0  0  0
  146.7736  143.1053  154.7582 H   0  0  0  0  0  0  0  0  0  0  0  0
  147.3256  141.7236  152.9021 H   0  0  0  0  0  0  0  0  0  0  0  0
  146.8535  139.4599  154.7320 H   0  0  0  0  0  0  0  0  0  0  0  0
  146.6700  139.5784  153.0070 H   0  0  0  0  0  0  0  0  0  0  0  0
  148.9446  139.0602  152.6472 H   0  0  0  0  0  0  0  0  0  0  0  0
  150.5442  136.7027  154.0369 H   0  0  0  0  0  0  0  0  0  0  0  0
  150.8707  138.1378  153.0753 H   0  0  0  0  0  0  0  0  0  0  0  0
  151.8042  140.3004  154.9260 H   0  0  0  0  0  0  0  0  0  0  0  0
  149.7523  141.2095  153.3948 H   0  0  0  0  0  0  0  0  0  0  0  0
  149.2173  142.7788  153.9045 H   0  0  0  0  0  0  0  0  0  0  0  0
  150.5860  141.7474  155.6514 H   0  0  0  0  0  0  0  0  0  0  0  0
  149.5351  140.3550  155.7456 H   0  0  0  0  0  0  0  0  0  0  0  0
  148.7402  143.1194  156.3079 H   0  0  0  0  0  0  0  0  0  0  0  0
  1  2  1  0  0  0  0
  1 21  1  0  0  0  0
  1 22  1  0  0  0  0
  1 23  1  0  0  0  0
  2  3  1  0  0  0  0
  3  4  1  0  0  0  0
  3 24  1  0  0  0  0
  3 25  1  0  0  0  0
  4  5  1  0  0  0  0
  4 26  1  0  0  0  0
  4 27  1  0  0  0  0
  5 20  1  0  0  0  0
  5  6  1  0  0  0  0
  5 43  1  0  0  0  0
  6  7  1  0  0  0  0
  6 28  1  0  0  0  0
  6 29  1  0  0  0  0
  7  8  1  0  0  0  0
  7 30  1  0  0  0  0
  7 31  1  0  0  0  0
  8  9  1  0  0  0  0
  8 19  1  0  0  0  0
  8 32  1  0  0  0  0
  9 10  1  0  0  0  0
  9 33  1  0  0  0  0
  9 34  1  0  0  0  0
 10 11  1  0  0  0  0
 10 35  1  0  0  0  0
 11 12  2  0  0  0  0
 11 13  1  0  0  0  0
 13 14  1  0  0  0  0
 13 36  1  0  0  0  0
 13 37  1  0  0  0  0
 14 18  1  0  0  0  0
 14 15  1  0  0  0  0
 15 16  2  0  0  0  0
 15 38  1  0  0  0  0
 16 17  1  0  0  0  0
 17 18  2  0  0  0  0
 19 20  1  0  0  0  0
 19 39  1  0  0  0  0
 19 40  1  0  0  0  0
 20 41  1  0  0  0  0
 20 42  1  0  0  0  0
M  CHG  1   5   1
M  END
> <s_m_source_file>
AV-unprocessed.smi

> <i_m_source_file_index>
1015

> <i_lp_mmshare_version>
43012

> <i_f3d_flags>
0

> <s_epik_input>
W0NIM11PW0NIMl1bQ0gyXU4xW0NIMl1bQ0gyXVtDSF0oW0NIMl1bQ0gyXTEpW0NIMl1bTkhdQyg9TylbQ0gyXW4yW2NIXW5ubjI=

> <s_epik_cmdline>
J2VwaWtfcHl0aG9uJywgJy1waCcsICc3LjAnLCAnLXRuJywgJzgnLCAnLW1hJywgJzIwMCcsICctbWV0YWxfYmluZGluZycsICctaW1hZScsICc8aW5maWxlLm1hZT4nLCAnLW9tYWUnLCAnPG91dGZpbGUubWFlPic=

> <r_lp_tautomer_probability>
1

> <r_epik_Ionization_Penalty>
0.0104119

> <r_epik_Ionization_Penalty_Charging>
0.0104107

> <r_epik_Ionization_Penalty_Neutral>
1.19574e-06

> <r_epik_State_Penalty>
0.00795975

> <r_epik_Charging_Adjusted_Penalty>
0.0183705

> <i_epik_Tot_Q>
1

> <i_epik_Tot_abs_Q>
1

> <r_epik_Metal_State_Penalty>
0.00795975

> <b_epik_Metal_Only>
0

> <s_lp_Force_Field>
OPLS_2005

> <r_lp_Energy>
22.9597

> <b_lp_Chiralities_Consistent>
1

> <s_lp_Variant>
AV-unprocessed.smi:1015-2

> <Gold.Version>
5.8.1

> <Gold.Id.Protein>
6NUR|6NUR_protein|mol2

> <Gold.PLP.Fitness>
46.3900

> <Gold.PLP.PLP>
-33.7247

> <Gold.PLP.part.hbond>
-5.0352

> <Gold.PLP.part.metal>
0.0000

> <Gold.PLP.part.buried>
-0.8489

> <Gold.PLP.part.nonpolar>
-28.5787

> <Gold.PLP.part.repulsive>
0.1263

> <Gold.PLP.ligand.clash>
0.0000

> <Gold.PLP.ligand.torsion>
0.8492

> <Gold.PLP.Chemscore.Hbond>
4.7680

> <Gold.PLP.Chemscore.CHOScore>
0.0000

> <Gold.PLP.Chemscore.Metal>
0.0000

> <Gold.Chemscore.Hbonds>
donor molecule, donor type, donor heavy atom, donor atom, acceptor molecule, acceptor atom, score
      L1  H     5    43       P1  8028  2.00
      L1  H    10    35       P1  7957  1.00
      P1  H  7997  8008       L1    16  1.00
      P1  H 10752 10764       L1    18  0.77

> <Gold.PLP.Chemscore.Internal.Correction>
0.0597

> <Gold.Rescore>
     Score         DG    S(hbond)    S(metal)    S(lipo)     H(rot)  DE(clash)    DE(int)     intcor
     14.92     -17.07       3.60        0.00      66.04       3.19       1.28       0.86       ----

> <Gold.Chemscore.Fitness>
14.9209

> <Gold.Chemscore.DG>
-17.0651

> <Gold.Chemscore.ZeroCoef>
-5.4800

> <Gold.Chemscore.Hbond>
3.6024

> <Gold.Chemscore.Metal>
0.0000

> <Gold.Chemscore.Lipo>
66.0402

> <Gold.Chemscore.Internal_Hbond>
0.0000

> <Gold.Chemscore.DEClash>
1.2846

> <Gold.Chemscore.DEInternal>
0.8596

> <Gold.Chemscore.Rot>
3.1928

> <Gold.Chemscore.Internal.Correction>
   9.000000E+99

> <Gold.Chemscore.Hbonds>
donor molecule, donor type, donor heavy atom, donor atom, acceptor molecule, acceptor atom, score
      L1  H     5    43       P1  8028  0.97
      L1  H    10    35       P1  7957  0.95
      P1  H  7997  8008       L1    16  0.89
      P1  H 10752 10764       L1    18  0.65

> <Gold.Chemscore.Hbond.Weighted>
-12.0320

> <Gold.Chemscore.Metal.Weighted>
-0.0000

> <Gold.Chemscore.Lipo.Weighted>
-7.7267

> <Gold.Chemscore.Internal_Hbond.Weighted>
0.0000

> <Gold.Chemscore.DEClash.Weighted>
1.2846

> <Gold.Chemscore.DEInternal.Weighted>
0.8596

> <Gold.Chemscore.Rot.Weighted>
8.1737

> <Gold.Chemscore.Internal.Correction.Weighted>
   9.000000E+99

> <Gold.Protein.RotatedTorsions>
[ 6907 6896 6895 6894 ] final  -43.08 input  -60.11 | X-H torsion
[ 7974 7965 7964 7962 ] final  -49.20 input  175.53 | X-H torsion
[ 8008 7997 7996 7995 ] final  -30.12 input   59.86 | X-H torsion
[ 10167 10162 10161 10158 ] final -133.81 input  -65.29 | X-H torsion
[ 10718 10713 10712 10709 ] final  -63.78 input   66.30 | X-H torsion
[ 10763 10752 10751 10750 ] final  -50.16 input  -60.55 | X-H torsion
[ 11005 11000 10999 10996 ] final   76.87 input  -57.11 | X-H torsion

> <Gold.Protein.ActiveResidues>
 VAL166  LYS551  ARG553  GLY616  TRP617  ASP618  TYR619  PRO620  LYS621  CYS622 
 ASP623  PHE694  ASN695  SER759  ASP760  ASP761  ALA762  ILE779  LEU786  VAL792 
 PHE793  MET794  SER795  GLU796  ALA797  LYS798  CYS799  TRP800  GLU811  SER814 

> <Gold.Protein.RotatedAtoms>
  150.9480  134.8883  159.7653 H   0  0  0  0  0  0  0  0  0  0  0  0  # atno 6907 bound_to 6896
  152.5108  134.3847  159.9373 H   0  0  0  0  0  0  0  0  0  0  0  0  # atno 6908 bound_to 6896
  151.3864  133.3763  159.2751 H   0  0  0  0  0  0  0  0  0  0  0  0  # atno 6909 bound_to 6896
  145.9431  140.7643  142.9542 H   0  0  0  0  0  0  0  0  0  0  0  0  # atno 7974 bound_to 7965
  154.4263  140.1800  156.1356 H   0  0  0  0  0  0  0  0  0  0  0  0  # atno 8008 bound_to 7997
  156.0032  140.3358  155.6842 H   0  0  0  0  0  0  0  0  0  0  0  0  # atno 8009 bound_to 7997
  155.6213  140.0660  157.2668 H   0  0  0  0  0  0  0  0  0  0  0  0  # atno 8010 bound_to 7997
  139.8945  143.6682  152.2606 H   0  0  0  0  0  0  0  0  0  0  0  0  # atno 10167 bound_to 10162
  156.0769  130.4225  150.1326 H   0  0  0  0  0  0  0  0  0  0  0  0  # atno 10718 bound_to 10713
  154.1058  135.6556  153.4876 H   0  0  0  0  0  0  0  0  0  0  0  0  # atno 10763 bound_to 10752
  153.0273  135.5236  154.7241 H   0  0  0  0  0  0  0  0  0  0  0  0  # atno 10764 bound_to 10752
  154.6406  135.2988  155.0077 H   0  0  0  0  0  0  0  0  0  0  0  0  # atno 10765 bound_to 10752
  139.9279  134.7637  156.1451 H   0  0  0  0  0  0  0  0  0  0  0  0  # atno 11005 bound_to 11000
  144.6782  140.2312  143.7355 LP  0  0  0  0  0  0  0  0  0  0  0  0  # atno 17320 bound_to 7965
  145.8273  139.2070  143.1903 LP  0  0  0  0  0  0  0  0  0  0  0  0  # atno 17321 bound_to 7965
  139.7080  144.7625  151.1160 LP  0  0  0  0  0  0  0  0  0  0  0  0  # atno 17342 bound_to 10162
  140.7720  143.5368  150.9358 LP  0  0  0  0  0  0  0  0  0  0  0  0  # atno 17343 bound_to 10162
  156.9366  130.9731  151.3524 LP  0  0  0  0  0  0  0  0  0  0  0  0  # atno 17370 bound_to 10713
  157.5869  130.8416  149.8602 LP  0  0  0  0  0  0  0  0  0  0  0  0  # atno 17371 bound_to 10713
  141.0849  133.6738  156.2414 LP  0  0  0  0  0  0  0  0  0  0  0  0  # atno 17394 bound_to 11000
  140.6284  134.5289  157.5556 LP  0  0  0  0  0  0  0  0  0  0  0  0  # atno 17395 bound_to 11000

$$$$
