AV-unprocessed.smi:2909|AV-procd|sdf|11171|dock7
  -GOLD-   2272016 63D 1   1.00000     0.00000
 Structure written by MMmdl.
 44 45  0  0  0  0  0  0  0  0  1 V2000
  154.3596  137.2277  164.6849 C   0  0  0  0  0  0  0  0  0  0  0  0
  154.5170  136.8651  163.2475 C   0  0  0  0  0  0  0  0  0  0  0  0
  153.8133  137.2404  162.1380 C   0  0  0  0  0  0  0  0  0  0  0  0
  154.4578  136.5591  161.0626 C   0  0  0  0  0  0  0  0  0  0  0  0
  154.1111  136.5995  159.5982 C   0  0  0  0  0  0  0  0  0  0  0  0
  154.1452  138.0415  159.0915 C   0  0  0  0  0  0  0  0  0  0  0  0
  154.9146  138.3573  158.1839 O   0  0  0  0  0  0  0  0  0  0  0  0
  153.3112  138.9068  159.6901 N   0  0  0  0  0  0  0  0  0  0  0  0
  153.2079  140.3292  159.3816 C   0  0  2  0  0  0  0  0  0  0  0  0
  153.5985  141.1771  160.6042 C   0  0  0  0  0  0  0  0  0  0  0  0
  153.4287  142.6790  160.3275 C   0  0  0  0  0  0  0  0  0  0  0  0
  151.9931  143.0453  159.8755 C   0  0  1  0  0  0  0  0  0  0  0  0
  151.8380  144.5663  159.5782 C   0  0  0  0  0  0  0  0  0  0  0  0
  150.3643  145.0148  159.5271 C   0  0  0  0  0  0  0  0  0  0  0  0
  152.5297  144.9931  158.2689 C   0  0  0  0  0  0  0  0  0  0  0  0
  151.6045  142.1633  158.6628 C   0  0  0  0  0  0  0  0  0  0  0  0
  151.7733  140.6623  158.9470 C   0  0  0  0  0  0  0  0  0  0  0  0
  155.4754  135.8162  161.4755 N   0  0  0  0  0  0  0  0  0  0  0  0
  155.5032  136.0134  162.8062 N   0  0  0  0  0  0  0  0  0  0  0  0
  156.1921  135.5654  163.3938 H   0  0  0  0  0  0  0  0  0  0  0  0
  153.3390  137.5484  164.8954 H   0  0  0  0  0  0  0  0  0  0  0  0
  155.0316  138.0429  164.9528 H   0  0  0  0  0  0  0  0  0  0  0  0
  154.5839  136.3776  165.3298 H   0  0  0  0  0  0  0  0  0  0  0  0
  152.9647  137.9072  162.0976 H   0  0  0  0  0  0  0  0  0  0  0  0
  154.8083  135.9966  159.0145 H   0  0  0  0  0  0  0  0  0  0  0  0
  153.1209  136.1747  159.4297 H   0  0  0  0  0  0  0  0  0  0  0  0
  152.7167  138.5576  160.4279 H   0  0  0  0  0  0  0  0  0  0  0  0
  153.8790  140.5665  158.5538 H   0  0  0  0  0  0  0  0  0  0  0  0
  152.9847  140.8956  161.4610 H   0  0  0  0  0  0  0  0  0  0  0  0
  154.6324  140.9748  160.8869 H   0  0  0  0  0  0  0  0  0  0  0  0
  153.6953  143.2141  161.2378 H   0  0  0  0  0  0  0  0  0  0  0  0
  154.1443  142.9892  159.5650 H   0  0  0  0  0  0  0  0  0  0  0  0
  151.3155  142.7963  160.6937 H   0  0  0  0  0  0  0  0  0  0  0  0
  152.3150  145.1196  160.3883 H   0  0  0  0  0  0  0  0  0  0  0  0
  149.7967  144.4307  158.8021 H   0  0  0  0  0  0  0  0  0  0  0  0
  150.2822  146.0640  159.2414 H   0  0  0  0  0  0  0  0  0  0  0  0
  149.8734  144.9221  160.4952 H   0  0  0  0  0  0  0  0  0  0  0  0
  152.1750  144.4045  157.4223 H   0  0  0  0  0  0  0  0  0  0  0  0
  153.6125  144.8885  158.3250 H   0  0  0  0  0  0  0  0  0  0  0  0
  152.3347  146.0424  158.0451 H   0  0  0  0  0  0  0  0  0  0  0  0
  150.5661  142.3309  158.3805 H   0  0  0  0  0  0  0  0  0  0  0  0
  152.2096  142.4395  157.7982 H   0  0  0  0  0  0  0  0  0  0  0  0
  151.5120  140.0904  158.0557 H   0  0  0  0  0  0  0  0  0  0  0  0
  151.0697  140.3610  159.7246 H   0  0  0  0  0  0  0  0  0  0  0  0
  1  2  1  0  0  0  0
  1 21  1  0  0  0  0
  1 22  1  0  0  0  0
  1 23  1  0  0  0  0
  2 19  1  0  0  0  0
  2  3  2  0  0  0  0
  3  4  1  0  0  0  0
  3 24  1  0  0  0  0
  4  5  1  0  0  0  0
  4 18  2  0  0  0  0
  5  6  1  0  0  0  0
  5 25  1  0  0  0  0
  5 26  1  0  0  0  0
  6  7  2  0  0  0  0
  6  8  1  0  0  0  0
  8  9  1  0  0  0  0
  8 27  1  0  0  0  0
  9 17  1  0  0  0  0
  9 10  1  0  0  0  0
  9 28  1  0  0  0  0
 10 11  1  0  0  0  0
 10 29  1  0  0  0  0
 10 30  1  0  0  0  0
 11 12  1  0  0  0  0
 11 31  1  0  0  0  0
 11 32  1  0  0  0  0
 12 13  1  0  0  0  0
 12 16  1  0  0  0  0
 12 33  1  0  0  0  0
 13 14  1  0  0  0  0
 13 15  1  0  0  0  0
 13 34  1  0  0  0  0
 14 35  1  0  0  0  0
 14 36  1  0  0  0  0
 14 37  1  0  0  0  0
 15 38  1  0  0  0  0
 15 39  1  0  0  0  0
 15 40  1  0  0  0  0
 16 17  1  0  0  0  0
 16 41  1  0  0  0  0
 16 42  1  0  0  0  0
 17 43  1  0  0  0  0
 17 44  1  0  0  0  0
 18 19  1  0  0  0  0
 19 20  1  0  0  0  0
M  END
> <s_m_source_file>
AV-unprocessed.smi

> <i_m_source_file_index>
2909

> <i_lp_mmshare_version>
43012

> <i_f3d_flags>
0

> <s_epik_input>
W0NIM11jMVtjSF1jKG5bbkhdMSlbQ0gyXUMoPU8pW05IXVtDQEBIXTJbQ0gyXVtDSDJdW0NAQEhdKFtDSF0oW0NIM10pW0NIM10pW0NIMl1bQ0gyXTI=

> <s_epik_cmdline>
J2VwaWtfcHl0aG9uJywgJy1waCcsICc3LjAnLCAnLXRuJywgJzgnLCAnLW1hJywgJzIwMCcsICctbWV0YWxfYmluZGluZycsICctaW1hZScsICc8aW5maWxlLm1hZT4nLCAnLW9tYWUnLCAnPG91dGZpbGUubWFlPic=

> <r_lp_tautomer_probability>
0.5

> <r_epik_Ionization_Penalty>
9.34828e-05

> <r_epik_Ionization_Penalty_Charging>
0

> <r_epik_Ionization_Penalty_Neutral>
9.34828e-05

> <r_epik_State_Penalty>
0.41068

> <r_epik_Charging_Adjusted_Penalty>
0.41068

> <i_epik_Tot_Q>
0

> <i_epik_Tot_abs_Q>
0

> <r_epik_Metal_State_Penalty>
0.4107

> <b_epik_Metal_Only>
0

> <s_lp_Force_Field>
OPLS_2005

> <r_lp_Energy>
11.82

> <b_lp_Chiralities_Consistent>
1

> <s_lp_Variant>
AV-unprocessed.smi:2909-1

> <Gold.Version>
5.8.1

> <Gold.Id.Protein>
6NUR|6NUR_protein|mol2

> <Gold.PLP.Fitness>
45.2881

> <Gold.PLP.PLP>
-42.8584

> <Gold.PLP.part.hbond>
-1.0000

> <Gold.PLP.part.metal>
0.0000

> <Gold.PLP.part.buried>
-5.4949

> <Gold.PLP.part.nonpolar>
-36.3439

> <Gold.PLP.part.repulsive>
0.0744

> <Gold.PLP.ligand.clash>
0.0000

> <Gold.PLP.ligand.torsion>
0.1865

> <Gold.PLP.Chemscore.Hbond>
0.9280

> <Gold.PLP.Chemscore.CHOScore>
0.0000

> <Gold.PLP.Chemscore.Metal>
0.0000

> <Gold.Chemscore.Hbonds>
donor molecule, donor type, donor heavy atom, donor atom, acceptor molecule, acceptor atom, score
      P1  H  7997  8009       L1     7  0.96

> <Gold.PLP.Chemscore.Internal.Correction>
0.0187

> <Gold.Rescore>
     Score         DG    S(hbond)    S(metal)    S(lipo)     H(rot)  DE(clash)    DE(int)     intcor
     19.58     -19.91       0.93        0.00     129.60       1.50       0.23       0.10       ----

> <Gold.Chemscore.Fitness>
19.5812

> <Gold.Chemscore.DG>
-19.9097

> <Gold.Chemscore.ZeroCoef>
-5.4800

> <Gold.Chemscore.Hbond>
0.9308

> <Gold.Chemscore.Metal>
0.0000

> <Gold.Chemscore.Lipo>
129.6048

> <Gold.Chemscore.Internal_Hbond>
0.0000

> <Gold.Chemscore.DEClash>
0.2273

> <Gold.Chemscore.DEInternal>
0.1012

> <Gold.Chemscore.Rot>
1.5011

> <Gold.Chemscore.Internal.Correction>
   9.000000E+99

> <Gold.Chemscore.Hbonds>
donor molecule, donor type, donor heavy atom, donor atom, acceptor molecule, acceptor atom, score
      P1  H  7997  8009       L1     7  0.92

> <Gold.Chemscore.Hbond.Weighted>
-3.1089

> <Gold.Chemscore.Metal.Weighted>
-0.0000

> <Gold.Chemscore.Lipo.Weighted>
-15.1638

> <Gold.Chemscore.Internal_Hbond.Weighted>
0.0000

> <Gold.Chemscore.DEClash.Weighted>
0.2273

> <Gold.Chemscore.DEInternal.Weighted>
0.1012

> <Gold.Chemscore.Rot.Weighted>
3.8429

> <Gold.Chemscore.Internal.Correction.Weighted>
   9.000000E+99

> <Gold.Protein.RotatedTorsions>
[ 6907 6896 6895 6894 ] final   49.41 input  -60.11 | X-H torsion
[ 7974 7965 7964 7962 ] final  -88.34 input  175.53 | X-H torsion
[ 8008 7997 7996 7995 ] final  121.93 input   59.86 | X-H torsion
[ 10167 10162 10161 10158 ] final  107.79 input  -65.29 | X-H torsion
[ 10718 10713 10712 10709 ] final -115.41 input   66.30 | X-H torsion
[ 10763 10752 10751 10750 ] final   56.21 input  -60.55 | X-H torsion
[ 11005 11000 10999 10996 ] final  158.70 input  -57.11 | X-H torsion

> <Gold.Protein.ActiveResidues>
 VAL166  LYS551  ARG553  GLY616  TRP617  ASP618  TYR619  PRO620  LYS621  CYS622 
 ASP623  PHE694  ASN695  SER759  ASP760  ASP761  ALA762  ILE779  LEU786  VAL792 
 PHE793  MET794  SER795  GLU796  ALA797  LYS798  CYS799  TRP800  GLU811  SER814 

> <Gold.Protein.RotatedAtoms>
  152.2905  134.7727  160.0378 H   0  0  0  0  0  0  0  0  0  0  0  0  # atno 6907 bound_to 6896
  151.8274  133.3398  159.3611 H   0  0  0  0  0  0  0  0  0  0  0  0  # atno 6908 bound_to 6896
  150.7228  134.5444  159.5808 H   0  0  0  0  0  0  0  0  0  0  0  0  # atno 6909 bound_to 6896
  145.4545  140.9561  143.2004 H   0  0  0  0  0  0  0  0  0  0  0  0  # atno 7974 bound_to 7965
  156.2707  140.2797  156.1386 H   0  0  0  0  0  0  0  0  0  0  0  0  # atno 8008 bound_to 7997
  155.0978  140.0389  157.2705 H   0  0  0  0  0  0  0  0  0  0  0  0  # atno 8009 bound_to 7997
  154.6839  140.2614  155.6886 H   0  0  0  0  0  0  0  0  0  0  0  0  # atno 8010 bound_to 7997
  139.6898  144.7109  151.1368 H   0  0  0  0  0  0  0  0  0  0  0  0  # atno 10167 bound_to 10162
  156.0894  130.6079  150.8902 H   0  0  0  0  0  0  0  0  0  0  0  0  # atno 10718 bound_to 10713
  152.9828  135.5684  154.5193 H   0  0  0  0  0  0  0  0  0  0  0  0  # atno 10763 bound_to 10752
  154.4683  135.2784  155.1663 H   0  0  0  0  0  0  0  0  0  0  0  0  # atno 10764 bound_to 10752
  154.3222  135.6266  153.5566 H   0  0  0  0  0  0  0  0  0  0  0  0  # atno 10765 bound_to 10752
  140.1890  134.8421  157.2890 H   0  0  0  0  0  0  0  0  0  0  0  0  # atno 11005 bound_to 11000
  144.8041  139.6085  143.7059 LP  0  0  0  0  0  0  0  0  0  0  0  0  # atno 17320 bound_to 7965
  146.2486  139.6150  142.9443 LP  0  0  0  0  0  0  0  0  0  0  0  0  # atno 17321 bound_to 7965
  140.7679  143.5575  150.9135 LP  0  0  0  0  0  0  0  0  0  0  0  0  # atno 17342 bound_to 10162
  139.9252  143.6558  152.3088 LP  0  0  0  0  0  0  0  0  0  0  0  0  # atno 17343 bound_to 10162
  157.6038  131.0940  150.8914 LP  0  0  0  0  0  0  0  0  0  0  0  0  # atno 17370 bound_to 10713
  156.9066  130.5265  149.5281 LP  0  0  0  0  0  0  0  0  0  0  0  0  # atno 17371 bound_to 10713
  140.2181  134.4057  155.7579 LP  0  0  0  0  0  0  0  0  0  0  0  0  # atno 17394 bound_to 11000
  141.2226  133.7152  156.8446 LP  0  0  0  0  0  0  0  0  0  0  0  0  # atno 17395 bound_to 11000

$$$$
