AV-unprocessed.smi:873|AV-procd|sdf|4016|dock1
  -GOLD-   22720 1503D 1   1.00000     0.00000
 Structure written by MMmdl.
 45 48  0  0  0  0  0  0  0  0  1 V2000
  154.7592  142.8103  164.8955 O   0  0  0  0  0  0  0  0  0  0  0  0
  155.0379  141.6841  164.4855 C   0  0  0  0  0  0  0  0  0  0  0  0
  154.6953  141.1825  163.2865 N   0  0  0  0  0  0  0  0  0  0  0  0
  154.0055  141.8152  162.2167 C   0  0  0  0  0  0  0  0  0  0  0  0
  154.1999  141.5492  160.8381 C   0  0  0  0  0  0  0  0  0  0  0  0
  153.4864  142.1876  159.8852 N   0  0  0  0  0  0  0  0  0  0  0  0
  152.5771  143.0742  160.2988 C   0  0  0  0  0  0  0  0  0  0  0  0
  151.8167  143.8039  159.2351 C   0  0  0  0  0  0  0  0  0  0  0  0
  152.5378  144.6624  158.2155 C   0  0  0  0  0  0  0  0  0  0  0  0
  151.6888  145.3134  159.2715 C   0  0  0  0  0  0  0  0  0  0  0  0
  152.3128  143.4115  161.5639 N   0  0  0  0  0  0  0  0  0  0  0  0
  153.0211  142.7782  162.5230 C   0  0  0  0  0  0  0  0  0  0  0  0
  155.7262  140.7857  165.2037 N   0  0  0  0  0  0  0  0  0  0  0  0
  156.2471  141.0031  166.5502 C   0  0  0  0  0  0  0  0  0  0  0  0
  157.0574  139.7863  167.0320 C   0  0  0  0  0  0  0  0  0  0  0  0
  157.4763  139.9493  168.5037 C   0  0  0  0  0  0  0  0  0  0  0  0
  156.2960  140.1248  169.3504 N   0  0  0  0  0  0  0  0  0  0  0  0
  156.7238  140.2348  170.7356 C   0  0  0  0  0  0  0  0  0  0  0  0
  156.2722  139.1582  171.6960 C   0  0  0  0  0  0  0  0  0  0  0  0
  155.6664  140.5388  171.7724 C   0  0  0  0  0  0  0  0  0  0  0  0
  155.5930  141.3516  168.9752 C   0  0  0  0  0  0  0  0  0  0  0  0
  155.0859  141.2509  167.5258 C   0  0  0  0  0  0  0  0  0  0  0  0
  154.9507  140.2197  163.1226 H   0  0  0  0  0  0  0  0  0  0  0  0
  154.9083  140.8236  160.4717 H   0  0  0  0  0  0  0  0  0  0  0  0
  150.9566  143.2287  158.8978 H   0  0  0  0  0  0  0  0  0  0  0  0
  153.6172  144.7646  158.3088 H   0  0  0  0  0  0  0  0  0  0  0  0
  152.1567  144.6577  157.1965 H   0  0  0  0  0  0  0  0  0  0  0  0
  150.7386  145.7425  158.9613 H   0  0  0  0  0  0  0  0  0  0  0  0
  152.2047  145.8492  160.0660 H   0  0  0  0  0  0  0  0  0  0  0  0
  152.7990  143.0451  163.5459 H   0  0  0  0  0  0  0  0  0  0  0  0
  155.9074  139.8839  164.7882 H   0  0  0  0  0  0  0  0  0  0  0  0
  156.8908  141.8850  166.5508 H   0  0  0  0  0  0  0  0  0  0  0  0
  156.4659  138.8759  166.9227 H   0  0  0  0  0  0  0  0  0  0  0  0
  157.9447  139.6543  166.4119 H   0  0  0  0  0  0  0  0  0  0  0  0
  158.0251  139.0632  168.8250 H   0  0  0  0  0  0  0  0  0  0  0  0
  158.1500  140.8010  168.6139 H   0  0  0  0  0  0  0  0  0  0  0  0
  157.7070  140.6551  170.9418 H   0  0  0  0  0  0  0  0  0  0  0  0
  155.6460  138.3570  171.3076 H   0  0  0  0  0  0  0  0  0  0  0  0
  156.9634  138.8682  172.4846 H   0  0  0  0  0  0  0  0  0  0  0  0
  155.9544  141.1691  172.6113 H   0  0  0  0  0  0  0  0  0  0  0  0
  154.6379  140.6540  171.4347 H   0  0  0  0  0  0  0  0  0  0  0  0
  154.7464  141.5051  169.6455 H   0  0  0  0  0  0  0  0  0  0  0  0
  156.2516  142.2144  169.0881 H   0  0  0  0  0  0  0  0  0  0  0  0
  154.5591  142.1664  167.2553 H   0  0  0  0  0  0  0  0  0  0  0  0
  154.3571  140.4416  167.4545 H   0  0  0  0  0  0  0  0  0  0  0  0
  1  2  2  0  0  0  0
  2  3  1  0  0  0  0
  2 13  1  0  0  0  0
  3  4  1  0  0  0  0
  3 23  1  0  0  0  0
  4 12  1  0  0  0  0
  4  5  2  0  0  0  0
  5  6  1  0  0  0  0
  5 24  1  0  0  0  0
  6  7  2  0  0  0  0
  7  8  1  0  0  0  0
  7 11  1  0  0  0  0
  8 10  1  0  0  0  0
  8  9  1  0  0  0  0
  8 25  1  0  0  0  0
  9 10  1  0  0  0  0
  9 26  1  0  0  0  0
  9 27  1  0  0  0  0
 10 28  1  0  0  0  0
 10 29  1  0  0  0  0
 11 12  2  0  0  0  0
 12 30  1  0  0  0  0
 13 14  1  0  0  0  0
 13 31  1  0  0  0  0
 14 22  1  0  0  0  0
 14 15  1  0  0  0  0
 14 32  1  0  0  0  0
 15 16  1  0  0  0  0
 15 33  1  0  0  0  0
 15 34  1  0  0  0  0
 16 17  1  0  0  0  0
 16 35  1  0  0  0  0
 16 36  1  0  0  0  0
 17 18  1  0  0  0  0
 17 21  1  0  0  0  0
 18 20  1  0  0  0  0
 18 19  1  0  0  0  0
 18 37  1  0  0  0  0
 19 20  1  0  0  0  0
 19 38  1  0  0  0  0
 19 39  1  0  0  0  0
 20 40  1  0  0  0  0
 20 41  1  0  0  0  0
 21 22  1  0  0  0  0
 21 42  1  0  0  0  0
 21 43  1  0  0  0  0
 22 44  1  0  0  0  0
 22 45  1  0  0  0  0
M  END
> <s_m_source_file>
AV-unprocessed.smi

> <i_m_source_file_index>
873

> <i_lp_mmshare_version>
43012

> <i_f3d_flags>
0

> <s_epik_input>
W0NIMl0xW0NIMl1bQ0hdMU4oW0NIMl1bQ0gyXTIpW0NIMl1bQ0gyXVtDSF0yW05IXUMoPU8pW05IXWMzW2NIXW5jKG5bY0hdMylbQ0hdNFtDSDJdW0NIMl00

> <s_epik_cmdline>
J2VwaWtfcHl0aG9uJywgJy1waCcsICc3LjAnLCAnLXRuJywgJzgnLCAnLW1hJywgJzIwMCcsICctbWV0YWxfYmluZGluZycsICctaW1hZScsICc8aW5maWxlLm1hZT4nLCAnLW9tYWUnLCAnPG91dGZpbGUubWFlPic=

> <r_lp_tautomer_probability>
1

> <r_epik_Ionization_Penalty>
0.990889

> <r_epik_Ionization_Penalty_Charging>
0

> <r_epik_Ionization_Penalty_Neutral>
0.990889

> <r_epik_State_Penalty>
1.03856

> <r_epik_Charging_Adjusted_Penalty>
1.03856

> <i_epik_Tot_Q>
0

> <i_epik_Tot_abs_Q>
0

> <r_epik_Metal_State_Penalty>
1.03856

> <b_epik_Metal_Only>
0

> <s_lp_Force_Field>
OPLS_2005

> <r_lp_Energy>
20.0784

> <b_lp_Chiralities_Consistent>
1

> <s_lp_Variant>
AV-unprocessed.smi:873-3

> <Gold.Version>
5.8.1

> <Gold.Id.Protein>
6NUR|6NUR_protein|mol2

> <Gold.PLP.Fitness>
44.8706

> <Gold.PLP.PLP>
-45.7745

> <Gold.PLP.part.hbond>
-1.7940

> <Gold.PLP.part.metal>
0.0000

> <Gold.PLP.part.buried>
-6.1123

> <Gold.PLP.part.nonpolar>
-37.8809

> <Gold.PLP.part.repulsive>
0.2493

> <Gold.PLP.ligand.clash>
0.0000

> <Gold.PLP.ligand.torsion>
1.1059

> <Gold.PLP.Chemscore.Hbond>
0.0000

> <Gold.PLP.Chemscore.CHOScore>
0.0000

> <Gold.PLP.Chemscore.Metal>
0.0000

> <Gold.PLP.Chemscore.Internal.Correction>
1.3079

> <Gold.Rescore>
     Score         DG    S(hbond)    S(metal)    S(lipo)     H(rot)  DE(clash)    DE(int)     intcor
     11.96     -14.76       0.00        0.00     108.40       1.33       0.34       2.46       ----

> <Gold.Chemscore.Fitness>
11.9623

> <Gold.Chemscore.DG>
-14.7554

> <Gold.Chemscore.ZeroCoef>
-5.4800

> <Gold.Chemscore.Hbond>
0.0000

> <Gold.Chemscore.Metal>
0.0000

> <Gold.Chemscore.Lipo>
108.4001

> <Gold.Chemscore.Internal_Hbond>
0.0000

> <Gold.Chemscore.DEClash>
0.3364

> <Gold.Chemscore.DEInternal>
2.4567

> <Gold.Chemscore.Rot>
1.3310

> <Gold.Chemscore.Internal.Correction>
   9.000000E+99

> <Gold.Chemscore.Hbond.Weighted>
-0.0000

> <Gold.Chemscore.Metal.Weighted>
-0.0000

> <Gold.Chemscore.Lipo.Weighted>
-12.6828

> <Gold.Chemscore.Internal_Hbond.Weighted>
0.0000

> <Gold.Chemscore.DEClash.Weighted>
0.3364

> <Gold.Chemscore.DEInternal.Weighted>
2.4567

> <Gold.Chemscore.Rot.Weighted>
3.4075

> <Gold.Chemscore.Internal.Correction.Weighted>
   9.000000E+99

> <Gold.Protein.RotatedTorsions>
[ 6907 6896 6895 6894 ] final  165.20 input  -60.11 | X-H torsion
[ 7974 7965 7964 7962 ] final  -34.97 input  175.53 | X-H torsion
[ 8008 7997 7996 7995 ] final -110.28 input   59.86 | X-H torsion
[ 10167 10162 10161 10158 ] final  124.23 input  -65.29 | X-H torsion
[ 10718 10713 10712 10709 ] final  -83.56 input   66.30 | X-H torsion
[ 10763 10752 10751 10750 ] final  -59.84 input  -60.55 | X-H torsion
[ 11005 11000 10999 10996 ] final  -89.86 input  -57.11 | X-H torsion

> <Gold.Protein.ActiveResidues>
 VAL166  LYS551  ARG553  GLY616  TRP617  ASP618  TYR619  PRO620  LYS621  CYS622 
 ASP623  PHE694  ASN695  SER759  ASP760  ASP761  ALA762  ILE779  LEU786  VAL792 
 PHE793  MET794  SER795  GLU796  ALA797  LYS798  CYS799  TRP800  GLU811  SER814 

> <Gold.Protein.RotatedAtoms>
  151.8980  133.3531  159.3820 H   0  0  0  0  0  0  0  0  0  0  0  0  # atno 6907 bound_to 6896
  150.7087  134.4856  159.5501 H   0  0  0  0  0  0  0  0  0  0  0  0  # atno 6908 bound_to 6896
  152.2439  134.8201  160.0507 H   0  0  0  0  0  0  0  0  0  0  0  0  # atno 6909 bound_to 6896
  146.0785  140.6103  142.8919 H   0  0  0  0  0  0  0  0  0  0  0  0  # atno 7974 bound_to 7965
  154.9721  140.0397  157.2239 H   0  0  0  0  0  0  0  0  0  0  0  0  # atno 8008 bound_to 7997
  154.7791  140.2815  155.6055 H   0  0  0  0  0  0  0  0  0  0  0  0  # atno 8009 bound_to 7997
  156.2933  140.2595  156.2612 H   0  0  0  0  0  0  0  0  0  0  0  0  # atno 8010 bound_to 7997
  139.5753  144.6960  151.3669 H   0  0  0  0  0  0  0  0  0  0  0  0  # atno 10167 bound_to 10162
  156.0017  130.4669  150.4276 H   0  0  0  0  0  0  0  0  0  0  0  0  # atno 10718 bound_to 10713
  154.2600  135.6310  153.5271 H   0  0  0  0  0  0  0  0  0  0  0  0  # atno 10763 bound_to 10752
  152.9897  135.5585  154.5714 H   0  0  0  0  0  0  0  0  0  0  0  0  # atno 10764 bound_to 10752
  154.5261  135.2885  155.1196 H   0  0  0  0  0  0  0  0  0  0  0  0  # atno 10765 bound_to 10752
  141.1577  133.7656  156.9655 H   0  0  0  0  0  0  0  0  0  0  0  0  # atno 11005 bound_to 11000
  144.7277  140.4577  143.6961 LP  0  0  0  0  0  0  0  0  0  0  0  0  # atno 17320 bound_to 7965
  145.6262  139.1530  143.2995 LP  0  0  0  0  0  0  0  0  0  0  0  0  # atno 17321 bound_to 7965
  140.7036  143.7570  150.7444 LP  0  0  0  0  0  0  0  0  0  0  0  0  # atno 17342 bound_to 10162
  140.1087  143.4719  152.2382 LP  0  0  0  0  0  0  0  0  0  0  0  0  # atno 17343 bound_to 10162
  157.2327  131.0507  151.2483 LP  0  0  0  0  0  0  0  0  0  0  0  0  # atno 17370 bound_to 10713
  157.3696  130.7174  149.6556 LP  0  0  0  0  0  0  0  0  0  0  0  0  # atno 17371 bound_to 10713
  140.1164  134.9444  157.2141 LP  0  0  0  0  0  0  0  0  0  0  0  0  # atno 17394 bound_to 11000
  140.3127  134.3005  155.7263 LP  0  0  0  0  0  0  0  0  0  0  0  0  # atno 17395 bound_to 11000

$$$$
