AV-unprocessed.smi:963|AV-procd|sdf|4276|dock8
  -GOLD-   22720 2183D 1   1.00000     0.00000
 Structure written by MMmdl.
 36 37  0  0  0  0  0  0  0  0  1 V2000
  153.5123  142.0516  162.2351 C   0  0  0  0  0  0  0  0  0  0  0  0
  152.5693  143.2165  161.9150 C   0  0  0  0  0  0  0  0  0  0  0  0
  152.0401  143.1520  160.5124 C   0  0  0  0  0  0  0  0  0  0  0  0
  151.8070  141.9046  159.9248 N   0  0  0  0  0  0  0  0  0  0  0  0
  151.3486  142.0005  158.6752 C   0  0  0  0  0  0  0  0  0  0  0  0
  150.9792  140.8208  157.8399 C   0  0  0  0  0  0  0  0  0  0  0  0
  150.9628  141.1497  156.3412 C   0  0  0  0  0  0  0  0  0  0  0  0
  149.6205  141.5266  155.9131 N   0  0  0  0  0  0  0  0  0  0  0  0
  149.1324  141.4029  154.6688 C   0  0  0  0  0  0  0  0  0  0  0  0
  149.7796  140.9739  153.7140 O   0  0  0  0  0  0  0  0  0  0  0  0
  147.8815  141.8762  154.5496 N   0  0  0  0  0  0  0  0  0  0  0  0
  146.8652  142.1486  155.5619 C   0  0  0  0  0  0  0  0  0  0  0  0
  145.8940  142.3405  154.3994 C   0  0  0  0  0  0  0  0  0  0  0  0
  146.9063  141.6461  153.4910 C   0  0  0  0  0  0  0  0  0  0  0  0
  151.1520  143.6623  158.1373 S   0  0  0  0  0  0  0  0  0  0  0  0
  151.7474  144.2103  159.6834 C   0  0  0  0  0  0  0  0  0  0  0  0
  151.8826  145.6679  159.9756 C   0  0  0  0  0  0  0  0  0  0  0  0
  153.8810  142.1207  163.2585 H   0  0  0  0  0  0  0  0  0  0  0  0
  154.3755  142.0514  161.5689 H   0  0  0  0  0  0  0  0  0  0  0  0
  153.0049  141.0924  162.1278 H   0  0  0  0  0  0  0  0  0  0  0  0
  151.7418  143.2120  162.6254 H   0  0  0  0  0  0  0  0  0  0  0  0
  153.0932  144.1582  162.0793 H   0  0  0  0  0  0  0  0  0  0  0  0
  151.6896  140.0181  158.0405 H   0  0  0  0  0  0  0  0  0  0  0  0
  150.0004  140.4593  158.1582 H   0  0  0  0  0  0  0  0  0  0  0  0
  151.6340  141.9835  156.1333 H   0  0  0  0  0  0  0  0  0  0  0  0
  151.3391  140.2959  155.7753 H   0  0  0  0  0  0  0  0  0  0  0  0
  149.0141  141.9207  156.6173 H   0  0  0  0  0  0  0  0  0  0  0  0
  146.6302  141.2891  156.1920 H   0  0  0  0  0  0  0  0  0  0  0  0
  147.0322  143.0527  156.1482 H   0  0  0  0  0  0  0  0  0  0  0  0
  144.9472  141.8106  154.5088 H   0  0  0  0  0  0  0  0  0  0  0  0
  145.7436  143.3901  154.1414 H   0  0  0  0  0  0  0  0  0  0  0  0
  147.1055  142.1822  152.5624 H   0  0  0  0  0  0  0  0  0  0  0  0
  146.6877  140.5916  153.3155 H   0  0  0  0  0  0  0  0  0  0  0  0
  152.8563  145.8872  160.4141 H   0  0  0  0  0  0  0  0  0  0  0  0
  151.1139  145.9937  160.6766 H   0  0  0  0  0  0  0  0  0  0  0  0
  151.7835  146.2630  159.0675 H   0  0  0  0  0  0  0  0  0  0  0  0
  1  2  1  0  0  0  0
  1 18  1  0  0  0  0
  1 19  1  0  0  0  0
  1 20  1  0  0  0  0
  2  3  1  0  0  0  0
  2 21  1  0  0  0  0
  2 22  1  0  0  0  0
  3 16  2  0  0  0  0
  3  4  1  0  0  0  0
  4  5  2  0  0  0  0
  5  6  1  0  0  0  0
  5 15  1  0  0  0  0
  6  7  1  0  0  0  0
  6 23  1  0  0  0  0
  6 24  1  0  0  0  0
  7  8  1  0  0  0  0
  7 25  1  0  0  0  0
  7 26  1  0  0  0  0
  8  9  1  0  0  0  0
  8 27  1  0  0  0  0
  9 10  2  0  0  0  0
  9 11  1  0  0  0  0
 11 14  1  0  0  0  0
 11 12  1  0  0  0  0
 12 13  1  0  0  0  0
 12 28  1  0  0  0  0
 12 29  1  0  0  0  0
 13 14  1  0  0  0  0
 13 30  1  0  0  0  0
 13 31  1  0  0  0  0
 14 32  1  0  0  0  0
 14 33  1  0  0  0  0
 15 16  1  0  0  0  0
 16 17  1  0  0  0  0
 17 34  1  0  0  0  0
 17 35  1  0  0  0  0
 17 36  1  0  0  0  0
M  END
> <s_m_source_file>
AV-unprocessed.smi

> <i_m_source_file_index>
963

> <i_lp_mmshare_version>
43012

> <i_f3d_flags>
0

> <s_epik_input>
W0NIM11bQ0gyXWMxbmMoc2MxW0NIM10pW0NIMl1bQ0gyXVtOSF1DKD1PKU4yW0NIMl1bQ0gyXVtDSDJdMg==

> <s_epik_cmdline>
J2VwaWtfcHl0aG9uJywgJy1waCcsICc3LjAnLCAnLXRuJywgJzgnLCAnLW1hJywgJzIwMCcsICctbWV0YWxfYmluZGluZycsICctaW1hZScsICc8aW5maWxlLm1hZT4nLCAnLW9tYWUnLCAnPG91dGZpbGUubWFlPic=

> <r_epik_Ionization_Penalty>
0.00446738

> <r_epik_Ionization_Penalty_Charging>
0

> <r_epik_Ionization_Penalty_Neutral>
0.00446738

> <r_epik_State_Penalty>
0.00317617

> <r_epik_Charging_Adjusted_Penalty>
0.00317617

> <i_epik_Tot_Q>
0

> <i_epik_Tot_abs_Q>
0

> <r_epik_Metal_State_Penalty>
-0

> <b_epik_Metal_Only>
0

> <s_lp_Force_Field>
OPLS_2005

> <r_lp_Energy>
11.733

> <b_lp_Chiralities_Consistent>
1

> <s_lp_Variant>
AV-unprocessed.smi:963-1

> <Gold.Version>
5.8.1

> <Gold.Id.Protein>
6NUR|6NUR_protein|mol2

> <Gold.PLP.Fitness>
44.8409

> <Gold.PLP.PLP>
-42.8899

> <Gold.PLP.part.hbond>
-2.2915

> <Gold.PLP.part.metal>
0.0000

> <Gold.PLP.part.buried>
-5.3338

> <Gold.PLP.part.nonpolar>
-38.1439

> <Gold.PLP.part.repulsive>
2.8019

> <Gold.PLP.ligand.clash>
0.0000

> <Gold.PLP.ligand.torsion>
1.2090

> <Gold.PLP.Chemscore.Hbond>
1.3600

> <Gold.PLP.Chemscore.CHOScore>
0.0000

> <Gold.PLP.Chemscore.Metal>
0.0000

> <Gold.Chemscore.Hbonds>
donor molecule, donor type, donor heavy atom, donor atom, acceptor molecule, acceptor atom, score
      P1  H  7989  7998       L1    10  0.35
      P1  H  8011  8017       L1    10  0.96

> <Gold.PLP.Chemscore.Internal.Correction>
0.2890

> <Gold.Rescore>
     Score         DG    S(hbond)    S(metal)    S(lipo)     H(rot)  DE(clash)    DE(int)     intcor
     15.61     -18.00       1.12        0.00     107.22       1.48       1.35       1.04       ----

> <Gold.Chemscore.Fitness>
15.6098

> <Gold.Chemscore.DG>
-17.9962

> <Gold.Chemscore.ZeroCoef>
-5.4800

> <Gold.Chemscore.Hbond>
1.1227

> <Gold.Chemscore.Metal>
0.0000

> <Gold.Chemscore.Lipo>
107.2153

> <Gold.Chemscore.Internal_Hbond>
0.0000

> <Gold.Chemscore.DEClash>
1.3475

> <Gold.Chemscore.DEInternal>
1.0388

> <Gold.Chemscore.Rot>
1.4758

> <Gold.Chemscore.Internal.Correction>
   9.000000E+99

> <Gold.Chemscore.Hbonds>
donor molecule, donor type, donor heavy atom, donor atom, acceptor molecule, acceptor atom, score
      P1  H  7989  7998       L1    10  0.36
      P1  H  8011  8017       L1    10  0.54

> <Gold.Chemscore.Hbond.Weighted>
-3.7500

> <Gold.Chemscore.Metal.Weighted>
-0.0000

> <Gold.Chemscore.Lipo.Weighted>
-12.5442

> <Gold.Chemscore.Internal_Hbond.Weighted>
0.0000

> <Gold.Chemscore.DEClash.Weighted>
1.3475

> <Gold.Chemscore.DEInternal.Weighted>
1.0388

> <Gold.Chemscore.Rot.Weighted>
3.7780

> <Gold.Chemscore.Internal.Correction.Weighted>
   9.000000E+99

> <Gold.Protein.RotatedTorsions>
[ 6907 6896 6895 6894 ] final  169.07 input  -60.11 | X-H torsion
[ 7974 7965 7964 7962 ] final   50.93 input  175.53 | X-H torsion
[ 8008 7997 7996 7995 ] final   69.33 input   59.86 | X-H torsion
[ 10167 10162 10161 10158 ] final  118.28 input  -65.29 | X-H torsion
[ 10718 10713 10712 10709 ] final -162.69 input   66.30 | X-H torsion
[ 10763 10752 10751 10750 ] final -119.12 input  -60.55 | X-H torsion
[ 11005 11000 10999 10996 ] final   72.64 input  -57.11 | X-H torsion

> <Gold.Protein.ActiveResidues>
 VAL166  LYS551  ARG553  GLY616  TRP617  ASP618  TYR619  PRO620  LYS621  CYS622 
 ASP623  PHE694  ASN695  SER759  ASP760  ASP761  ALA762  ILE779  LEU786  VAL792 
 PHE793  MET794  SER795  GLU796  ALA797  LYS798  CYS799  TRP800  GLU811  SER814 

> <Gold.Protein.RotatedAtoms>
  151.8376  133.3418  159.3632 H   0  0  0  0  0  0  0  0  0  0  0  0  # atno 6907 bound_to 6896
  150.7244  134.5422  159.5762 H   0  0  0  0  0  0  0  0  0  0  0  0  # atno 6908 bound_to 6896
  152.2889  134.7745  160.0433 H   0  0  0  0  0  0  0  0  0  0  0  0  # atno 6909 bound_to 6896
  145.9964  139.4392  143.0042 H   0  0  0  0  0  0  0  0  0  0  0  0  # atno 7974 bound_to 7965
  155.7220  140.3493  155.5020 H   0  0  0  0  0  0  0  0  0  0  0  0  # atno 8008 bound_to 7997
  155.9261  140.1076  157.1190 H   0  0  0  0  0  0  0  0  0  0  0  0  # atno 8009 bound_to 7997
  154.4077  140.1240  156.4729 H   0  0  0  0  0  0  0  0  0  0  0  0  # atno 8010 bound_to 7997
  139.6122  144.7084  151.2819 H   0  0  0  0  0  0  0  0  0  0  0  0  # atno 10167 bound_to 10162
  156.6141  130.8863  151.2943 H   0  0  0  0  0  0  0  0  0  0  0  0  # atno 10718 bound_to 10713
  154.8608  135.4249  154.2248 H   0  0  0  0  0  0  0  0  0  0  0  0  # atno 10763 bound_to 10752
  153.3245  135.6984  153.7007 H   0  0  0  0  0  0  0  0  0  0  0  0  # atno 10764 bound_to 10752
  153.6048  135.3530  155.2931 H   0  0  0  0  0  0  0  0  0  0  0  0  # atno 10765 bound_to 10752
  139.9481  134.7277  156.0930 H   0  0  0  0  0  0  0  0  0  0  0  0  # atno 11005 bound_to 11000
  145.7554  140.9956  143.1228 LP  0  0  0  0  0  0  0  0  0  0  0  0  # atno 17320 bound_to 7965
  144.6905  139.9265  143.7470 LP  0  0  0  0  0  0  0  0  0  0  0  0  # atno 17321 bound_to 7965
  140.7327  143.6817  150.7996 LP  0  0  0  0  0  0  0  0  0  0  0  0  # atno 17342 bound_to 10162
  140.0413  143.5343  152.2716 LP  0  0  0  0  0  0  0  0  0  0  0  0  # atno 17343 bound_to 10162
  157.7246  130.9605  150.1580 LP  0  0  0  0  0  0  0  0  0  0  0  0  # atno 17370 bound_to 10713
  156.2365  130.3687  149.8385 LP  0  0  0  0  0  0  0  0  0  0  0  0  # atno 17371 bound_to 10713
  141.1136  133.6635  156.3040 LP  0  0  0  0  0  0  0  0  0  0  0  0  # atno 17394 bound_to 11000
  140.5786  134.5768  157.5474 LP  0  0  0  0  0  0  0  0  0  0  0  0  # atno 17395 bound_to 11000

$$$$
