AV-unprocessed.smi:2607|AV-procd|sdf|10203|dock4
  -GOLD-   2272014213D 1   1.00000     0.00000
 Structure written by MMmdl.
 21 22  0  0  0  0  0  0  0  0  2 V2000
  153.1030  138.7391  154.4591 C   0  0  0  0  0  0  0  0  0  0  0  0
  152.0047  138.7644  155.5420 C   0  0  2  0  0  0  0  0  0  0  0  0
  150.7165  139.4172  155.0013 C   0  0  0  0  0  0  0  0  0  0  0  0
  149.8034  138.7328  154.1564 C   0  0  0  0  0  0  0  0  0  0  0  0
  148.6714  139.3129  153.6978 N   0  0  0  0  0  0  0  0  0  0  0  0
  148.4428  140.5857  154.0856 C   0  0  0  0  0  0  0  0  0  0  0  0
  149.3375  141.2745  154.9289 C   0  0  0  0  0  0  0  0  0  0  0  0
  150.4675  140.6950  155.3879 N   0  0  0  0  0  0  0  0  0  0  0  0
  152.5336  139.4186  156.7341 N   0  5  0  0  0  0  0  0  0  0  0  0
  152.4912  138.5538  157.7740 C   0  0  0  0  0  0  0  0  0  0  0  0
  152.8285  138.7587  158.9378 O   0  0  0  0  0  0  0  0  0  0  0  0
  152.0181  137.3692  157.3801 N   0  0  0  0  0  0  0  0  0  0  0  0
  151.7274  137.3620  156.0831 C   0  0  0  0  0  0  0  0  0  0  0  0
  151.3267  136.4018  155.4249 O   0  0  0  0  0  0  0  0  0  0  0  0
  152.7788  138.1938  153.5721 H   0  0  0  0  0  0  0  0  0  0  0  0
  154.0156  138.2605  154.8181 H   0  0  0  0  0  0  0  0  0  0  0  0
  153.3643  139.7496  154.1431 H   0  0  0  0  0  0  0  0  0  0  0  0
  149.9641  137.7133  153.8396 H   0  0  0  0  0  0  0  0  0  0  0  0
  147.5409  141.0565  153.7237 H   0  0  0  0  0  0  0  0  0  0  0  0
  149.1460  142.2916  155.2367 H   0  0  0  0  0  0  0  0  0  0  0  0
  151.9178  136.5705  157.9884 H   0  0  0  0  0  0  0  0  0  0  0  0
  1  2  1  0  0  0  0
  1 15  1  0  0  0  0
  1 16  1  0  0  0  0
  1 17  1  0  0  0  0
  2 13  1  0  0  0  0
  2  3  1  0  0  0  0
  2  9  1  0  0  0  0
  3  8  1  0  0  0  0
  3  4  2  0  0  0  0
  4  5  1  0  0  0  0
  4 18  1  0  0  0  0
  5  6  2  0  0  0  0
  6  7  1  0  0  0  0
  6 19  1  0  0  0  0
  7  8  2  0  0  0  0
  7 20  1  0  0  0  0
  9 10  1  0  0  0  0
 10 11  2  0  0  0  0
 10 12  1  0  0  0  0
 12 13  1  0  0  0  0
 12 21  1  0  0  0  0
 13 14  2  0  0  0  0
M  CHG  1   9  -1
M  END
> <s_m_source_file>
AV-unprocessed.smi

> <i_m_source_file_index>
2607

> <i_lp_mmshare_version>
43012

> <i_f3d_flags>
0

> <s_epik_input>
Tz1DMVtOSF1DKD1PKVtOSF1bQ0BAXTEoW0NIM10pYzJbY0hdbltjSF1bY0hdbjI=

> <s_epik_cmdline>
J2VwaWtfcHl0aG9uJywgJy1waCcsICc3LjAnLCAnLXRuJywgJzgnLCAnLW1hJywgJzIwMCcsICctbWV0YWxfYmluZGluZycsICctaW1hZScsICc8aW5maWxlLm1hZT4nLCAnLW9tYWUnLCAnPG91dGZpbGUubWFlPic=

> <r_lp_tautomer_probability>
1

> <r_epik_Ionization_Penalty>
4.70687

> <r_epik_Ionization_Penalty_Charging>
4.70687

> <r_epik_Ionization_Penalty_Neutral>
2.29475e-06

> <r_epik_State_Penalty>
4.73416

> <r_epik_Charging_Adjusted_Penalty>
9.44103

> <i_epik_Tot_Q>
-1

> <i_epik_Tot_abs_Q>
1

> <r_epik_Metal_State_Penalty>
1.2389

> <b_epik_Metal_Only>
1

> <s_lp_Force_Field>
OPLS_2005

> <r_lp_Energy>
21.97

> <b_lp_Chiralities_Consistent>
1

> <s_lp_Variant>
AV-unprocessed.smi:2607-6

> <Gold.Version>
5.8.1

> <Gold.Id.Protein>
6NUR|6NUR_protein|mol2

> <Gold.PLP.Fitness>
33.8883

> <Gold.PLP.PLP>
-21.1477

> <Gold.PLP.part.hbond>
-3.0000

> <Gold.PLP.part.metal>
0.0000

> <Gold.PLP.part.buried>
-3.8723

> <Gold.PLP.part.nonpolar>
-16.3794

> <Gold.PLP.part.repulsive>
2.1887

> <Gold.PLP.ligand.clash>
0.0000

> <Gold.PLP.ligand.torsion>
0.6815

> <Gold.PLP.Chemscore.Hbond>
3.0000

> <Gold.PLP.Chemscore.CHOScore>
1.6832

> <Gold.PLP.Chemscore.Metal>
0.0000

> <Gold.Chemscore.Hbonds>
donor molecule, donor type, donor heavy atom, donor atom, acceptor molecule, acceptor atom, score
      P1  H  7997  8010       L1     9  2.00
      P1  H 10752 10765       L1    14  1.00
      L1  C     4    18       P1  7948  0.74
      L1  C     7    20       P1  8028  1.00

> <Gold.PLP.Chemscore.Internal.Correction>
0.0541

> <Gold.Rescore>
     Score         DG    S(hbond)    S(metal)    S(lipo)     H(rot)  DE(clash)    DE(int)     intcor
     12.12     -13.40       1.59        0.00      44.06       1.00       0.00       1.27       ----

> <Gold.Chemscore.Fitness>
12.1232

> <Gold.Chemscore.DG>
-13.4010

> <Gold.Chemscore.ZeroCoef>
-5.4800

> <Gold.Chemscore.Hbond>
1.5946

> <Gold.Chemscore.Metal>
0.0000

> <Gold.Chemscore.Lipo>
44.0595

> <Gold.Chemscore.Internal_Hbond>
0.0000

> <Gold.Chemscore.DEClash>
0.0038

> <Gold.Chemscore.DEInternal>
1.2740

> <Gold.Chemscore.Rot>
1.0000

> <Gold.Chemscore.Internal.Correction>
   9.000000E+99

> <Gold.Chemscore.Hbonds>
donor molecule, donor type, donor heavy atom, donor atom, acceptor molecule, acceptor atom, score
      P1  H  7997  8010       L1     9  0.55
      P1  H 10752 10765       L1    14  0.49

> <Gold.Chemscore.Hbond.Weighted>
-5.3261

> <Gold.Chemscore.Metal.Weighted>
-0.0000

> <Gold.Chemscore.Lipo.Weighted>
-5.1550

> <Gold.Chemscore.Internal_Hbond.Weighted>
0.0000

> <Gold.Chemscore.DEClash.Weighted>
0.0038

> <Gold.Chemscore.DEInternal.Weighted>
1.2740

> <Gold.Chemscore.Rot.Weighted>
2.5600

> <Gold.Chemscore.Internal.Correction.Weighted>
   9.000000E+99

> <Gold.Protein.RotatedTorsions>
[ 6907 6896 6895 6894 ] final   71.81 input  -60.11 | X-H torsion
[ 7974 7965 7964 7962 ] final  -10.22 input  175.53 | X-H torsion
[ 8008 7997 7996 7995 ] final   60.67 input   59.86 | X-H torsion
[ 10167 10162 10161 10158 ] final   30.33 input  -65.29 | X-H torsion
[ 10718 10713 10712 10709 ] final  120.20 input   66.30 | X-H torsion
[ 10763 10752 10751 10750 ] final -174.82 input  -60.55 | X-H torsion
[ 11005 11000 10999 10996 ] final  158.48 input  -57.11 | X-H torsion

> <Gold.Protein.ActiveResidues>
 VAL166  LYS551  ARG553  GLY616  TRP617  ASP618  TYR619  PRO620  LYS621  CYS622 
 ASP623  PHE694  ASN695  SER759  ASP760  ASP761  ALA762  ILE779  LEU786  VAL792 
 PHE793  MET794  SER795  GLU796  ALA797  LYS798  CYS799  TRP800  GLU811  SER814 

> <Gold.Protein.RotatedAtoms>
  152.4832  134.4664  159.9621 H   0  0  0  0  0  0  0  0  0  0  0  0  # atno 6907 bound_to 6896
  151.4666  133.3573  159.2825 H   0  0  0  0  0  0  0  0  0  0  0  0  # atno 6908 bound_to 6896
  150.8921  134.8351  159.7361 H   0  0  0  0  0  0  0  0  0  0  0  0  # atno 6909 bound_to 6896
  146.2227  140.2732  142.8358 H   0  0  0  0  0  0  0  0  0  0  0  0  # atno 7974 bound_to 7965
  155.5861  140.3492  155.4553 H   0  0  0  0  0  0  0  0  0  0  0  0  # atno 8008 bound_to 7997
  156.0337  140.1280  157.0256 H   0  0  0  0  0  0  0  0  0  0  0  0  # atno 8009 bound_to 7997
  154.4362  140.1038  156.6122 H   0  0  0  0  0  0  0  0  0  0  0  0  # atno 8010 bound_to 7997
  140.4687  144.0795  150.6231 H   0  0  0  0  0  0  0  0  0  0  0  0  # atno 10167 bound_to 10162
  157.5907  131.1064  150.8003 H   0  0  0  0  0  0  0  0  0  0  0  0  # atno 10718 bound_to 10713
  154.5917  135.2845  155.0629 H   0  0  0  0  0  0  0  0  0  0  0  0  # atno 10763 bound_to 10752
  154.1927  135.6438  153.5068 H   0  0  0  0  0  0  0  0  0  0  0  0  # atno 10764 bound_to 10752
  153.0123  135.5450  154.6605 H   0  0  0  0  0  0  0  0  0  0  0  0  # atno 10765 bound_to 10752
  140.1869  134.8435  157.2868 H   0  0  0  0  0  0  0  0  0  0  0  0  # atno 11005 bound_to 11000
  144.9252  140.7913  143.5723 LP  0  0  0  0  0  0  0  0  0  0  0  0  # atno 17320 bound_to 7965
  145.2671  139.1969  143.4861 LP  0  0  0  0  0  0  0  0  0  0  0  0  # atno 17321 bound_to 7965
  140.4004  143.2707  151.9955 LP  0  0  0  0  0  0  0  0  0  0  0  0  # atno 17342 bound_to 10162
  139.4815  144.6002  151.7618 LP  0  0  0  0  0  0  0  0  0  0  0  0  # atno 17343 bound_to 10162
  156.8426  130.5053  149.5319 LP  0  0  0  0  0  0  0  0  0  0  0  0  # atno 17370 bound_to 10713
  156.0962  130.5934  150.9817 LP  0  0  0  0  0  0  0  0  0  0  0  0  # atno 17371 bound_to 10713
  140.2203  134.4031  155.7569 LP  0  0  0  0  0  0  0  0  0  0  0  0  # atno 17394 bound_to 11000
  141.2225  133.7163  156.8480 LP  0  0  0  0  0  0  0  0  0  0  0  0  # atno 17395 bound_to 11000

$$$$
