AV-unprocessed.smi:1176|AV-procd|sdf|4952|dock2
  -GOLD-   22720 3543D 1   1.00000     0.00000
 Structure written by MMmdl.
 50 51  0  0  0  0  0  0  0  0  2 V2000
  144.8950  133.0992  150.9384 C   0  0  0  0  0  0  0  0  0  0  0  0
  145.8555  134.1925  151.4297 C   0  0  0  0  0  0  0  0  0  0  0  0
  146.4392  133.8164  152.8019 C   0  0  0  0  0  0  0  0  0  0  0  0
  145.1444  135.5629  151.4625 C   0  0  0  0  0  0  0  0  0  0  0  0
  146.0298  136.6712  151.9062 N   0  3  2  0  0  0  0  0  0  0  0  0
  145.8247  137.0126  153.3380 C   0  0  0  0  0  0  0  0  0  0  0  0
  146.8396  138.0657  153.8136 C   0  0  0  0  0  0  0  0  0  0  0  0
  146.7728  139.3327  152.9423 C   0  0  1  0  0  0  0  0  0  0  0  0
  147.7941  140.2975  153.3381 N   0  0  0  0  0  0  0  0  0  0  0  0
  147.7125  141.1149  154.3990 C   0  0  0  0  0  0  0  0  0  0  0  0
  146.7598  141.1117  155.1798 O   0  0  0  0  0  0  0  0  0  0  0  0
  148.9012  142.0617  154.6141 C   0  0  0  0  0  0  0  0  0  0  0  0
  149.9403  141.4902  155.4804 N   0  0  0  0  0  0  0  0  0  0  0  0
  150.2934  142.1412  156.6484 C   0  0  0  0  0  0  0  0  0  0  0  0
  151.2528  141.6957  157.4887 C   0  0  0  0  0  0  0  0  0  0  0  0
  151.9858  140.4681  157.2042 C   0  0  0  0  0  0  0  0  0  0  0  0
  152.8835  140.0381  157.9296 O   0  0  0  0  0  0  0  0  0  0  0  0
  151.5924  139.8117  156.0135 N   0  0  0  0  0  0  0  0  0  0  0  0
  152.2855  138.5952  155.6432 C   0  0  0  0  0  0  0  0  0  0  0  0
  150.6011  140.2933  155.1286 C   0  0  0  0  0  0  0  0  0  0  0  0
  150.3190  139.7071  154.0805 O   0  0  0  0  0  0  0  0  0  0  0  0
  146.9608  138.9463  151.4672 C   0  0  0  0  0  0  0  0  0  0  0  0
  145.9408  137.8776  151.0402 C   0  0  0  0  0  0  0  0  0  0  0  0
  144.0414  132.9892  151.6081 H   0  0  0  0  0  0  0  0  0  0  0  0
  145.3964  132.1327  150.8775 H   0  0  0  0  0  0  0  0  0  0  0  0
  144.5102  133.3300  149.9447 H   0  0  0  0  0  0  0  0  0  0  0  0
  146.6774  134.2294  150.7153 H   0  0  0  0  0  0  0  0  0  0  0  0
  145.6601  133.7597  153.5628 H   0  0  0  0  0  0  0  0  0  0  0  0
  147.1791  134.5443  153.1356 H   0  0  0  0  0  0  0  0  0  0  0  0
  146.9351  132.8458  152.7637 H   0  0  0  0  0  0  0  0  0  0  0  0
  144.7308  135.8070  150.4826 H   0  0  0  0  0  0  0  0  0  0  0  0
  144.2909  135.4848  152.1379 H   0  0  0  0  0  0  0  0  0  0  0  0
  144.8067  137.3772  153.4844 H   0  0  0  0  0  0  0  0  0  0  0  0
  145.9318  136.1160  153.9498 H   0  0  0  0  0  0  0  0  0  0  0  0
  146.6448  138.3131  154.8578 H   0  0  0  0  0  0  0  0  0  0  0  0
  147.8449  137.6430  153.7790 H   0  0  0  0  0  0  0  0  0  0  0  0
  145.7884  139.7922  153.0532 H   0  0  0  0  0  0  0  0  0  0  0  0
  148.6146  140.3630  152.7530 H   0  0  0  0  0  0  0  0  0  0  0  0
  149.3226  142.3062  153.6381 H   0  0  0  0  0  0  0  0  0  0  0  0
  148.5500  143.0087  155.0285 H   0  0  0  0  0  0  0  0  0  0  0  0
  149.7829  143.0590  156.9017 H   0  0  0  0  0  0  0  0  0  0  0  0
  151.4845  142.2574  158.3818 H   0  0  0  0  0  0  0  0  0  0  0  0
  151.5840  137.9187  155.1525 H   0  0  0  0  0  0  0  0  0  0  0  0
  152.6645  138.0954  156.5353 H   0  0  0  0  0  0  0  0  0  0  0  0
  153.0968  138.8846  154.9740 H   0  0  0  0  0  0  0  0  0  0  0  0
  146.8566  139.8277  150.8331 H   0  0  0  0  0  0  0  0  0  0  0  0
  147.9714  138.5668  151.3067 H   0  0  0  0  0  0  0  0  0  0  0  0
  146.1257  137.6143  149.9997 H   0  0  0  0  0  0  0  0  0  0  0  0
  144.9301  138.2868  151.0863 H   0  0  0  0  0  0  0  0  0  0  0  0
  146.9757  136.3242  151.8348 H   0  0  0  0  0  0  0  0  0  0  0  0
  1  2  1  0  0  0  0
  1 24  1  0  0  0  0
  1 25  1  0  0  0  0
  1 26  1  0  0  0  0
  2  3  1  0  0  0  0
  2  4  1  0  0  0  0
  2 27  1  0  0  0  0
  3 28  1  0  0  0  0
  3 29  1  0  0  0  0
  3 30  1  0  0  0  0
  4  5  1  0  0  0  0
  4 31  1  0  0  0  0
  4 32  1  0  0  0  0
  5 23  1  0  0  0  0
  5  6  1  0  0  0  0
  5 50  1  0  0  0  0
  6  7  1  0  0  0  0
  6 33  1  0  0  0  0
  6 34  1  0  0  0  0
  7  8  1  0  0  0  0
  7 35  1  0  0  0  0
  7 36  1  0  0  0  0
  8  9  1  0  0  0  0
  8 22  1  0  0  0  0
  8 37  1  0  0  0  0
  9 10  1  0  0  0  0
  9 38  1  0  0  0  0
 10 11  2  0  0  0  0
 10 12  1  0  0  0  0
 12 13  1  0  0  0  0
 12 39  1  0  0  0  0
 12 40  1  0  0  0  0
 13 20  1  0  0  0  0
 13 14  1  0  0  0  0
 14 15  2  0  0  0  0
 14 41  1  0  0  0  0
 15 16  1  0  0  0  0
 15 42  1  0  0  0  0
 16 17  2  0  0  0  0
 16 18  1  0  0  0  0
 18 19  1  0  0  0  0
 18 20  1  0  0  0  0
 19 43  1  0  0  0  0
 19 44  1  0  0  0  0
 19 45  1  0  0  0  0
 20 21  2  0  0  0  0
 22 23  1  0  0  0  0
 22 46  1  0  0  0  0
 22 47  1  0  0  0  0
 23 48  1  0  0  0  0
 23 49  1  0  0  0  0
M  CHG  1   5   1
M  END
> <s_m_source_file>
AV-unprocessed.smi

> <i_m_source_file_index>
1176

> <i_lp_mmshare_version>
43012

> <i_f3d_flags>
0

> <s_epik_input>
W0NIM11bQ0hdKFtDSDNdKVtDSDJdTjFbQ0gyXVtDSDJdW0NIXShbQ0gyXVtDSDJdMSlbTkhdQyg9TylbQ0gyXW4yW2NIXVtjSF1jKD1PKW4oW0NIM10pYzI9Tw==

> <s_epik_cmdline>
J2VwaWtfcHl0aG9uJywgJy1waCcsICc3LjAnLCAnLXRuJywgJzgnLCAnLW1hJywgJzIwMCcsICctbWV0YWxfYmluZGluZycsICctaW1hZScsICc8aW5maWxlLm1hZT4nLCAnLW9tYWUnLCAnPG91dGZpbGUubWFlPic=

> <r_lp_tautomer_probability>
1

> <r_epik_Ionization_Penalty>
0.00401429

> <r_epik_Ionization_Penalty_Charging>
0.00401425

> <r_epik_Ionization_Penalty_Neutral>
4.29561e-08

> <r_epik_State_Penalty>
0.00287487

> <r_epik_Charging_Adjusted_Penalty>
0.00688912

> <i_epik_Tot_Q>
1

> <i_epik_Tot_abs_Q>
1

> <r_epik_Metal_State_Penalty>
-0

> <b_epik_Metal_Only>
0

> <s_lp_Force_Field>
OPLS_2005

> <r_lp_Energy>
26.9025

> <b_lp_Chiralities_Consistent>
1

> <s_lp_Variant>
AV-unprocessed.smi:1176-1

> <Gold.Version>
5.8.1

> <Gold.Id.Protein>
6NUR|6NUR_protein|mol2

> <Gold.PLP.Fitness>
52.0924

> <Gold.PLP.PLP>
-39.1929

> <Gold.PLP.part.hbond>
-4.0000

> <Gold.PLP.part.metal>
0.0000

> <Gold.PLP.part.buried>
5.9879

> <Gold.PLP.part.nonpolar>
-42.2688

> <Gold.PLP.part.repulsive>
1.0078

> <Gold.PLP.ligand.clash>
0.0000

> <Gold.PLP.ligand.torsion>
1.2504

> <Gold.PLP.Chemscore.Hbond>
4.1000

> <Gold.PLP.Chemscore.CHOScore>
0.9889

> <Gold.PLP.Chemscore.Metal>
0.0000

> <Gold.Chemscore.Hbonds>
donor molecule, donor type, donor heavy atom, donor atom, acceptor molecule, acceptor atom, score
      L1  H     5    50       P1  7948  2.00
      L1  H     9    38       P1  7957  1.00
      P1  H  7997  8009       L1    17  1.00
      L1  C    14    41       P1  8028  1.00

> <Gold.PLP.Chemscore.Internal.Correction>
0.1335

> <Gold.Rescore>
     Score         DG    S(hbond)    S(metal)    S(lipo)     H(rot)  DE(clash)    DE(int)     intcor
     13.92     -20.23       2.90        0.00      85.36       1.92       2.07       4.24       ----

> <Gold.Chemscore.Fitness>
13.9211

> <Gold.Chemscore.DG>
-20.2316

> <Gold.Chemscore.ZeroCoef>
-5.4800

> <Gold.Chemscore.Hbond>
2.8979

> <Gold.Chemscore.Metal>
0.0000

> <Gold.Chemscore.Lipo>
85.3611

> <Gold.Chemscore.Internal_Hbond>
0.0000

> <Gold.Chemscore.DEClash>
2.0667

> <Gold.Chemscore.DEInternal>
4.2437

> <Gold.Chemscore.Rot>
1.9198

> <Gold.Chemscore.Internal.Correction>
   9.000000E+99

> <Gold.Chemscore.Hbonds>
donor molecule, donor type, donor heavy atom, donor atom, acceptor molecule, acceptor atom, score
      L1  H     5    50       P1  7948  0.99
      L1  H     9    38       P1  7957  0.97
      P1  H  7997  8009       L1    17  0.77

> <Gold.Chemscore.Hbond.Weighted>
-9.6790

> <Gold.Chemscore.Metal.Weighted>
-0.0000

> <Gold.Chemscore.Lipo.Weighted>
-9.9872

> <Gold.Chemscore.Internal_Hbond.Weighted>
0.0000

> <Gold.Chemscore.DEClash.Weighted>
2.0667

> <Gold.Chemscore.DEInternal.Weighted>
4.2437

> <Gold.Chemscore.Rot.Weighted>
4.9147

> <Gold.Chemscore.Internal.Correction.Weighted>
   9.000000E+99

> <Gold.Protein.RotatedTorsions>
[ 6907 6896 6895 6894 ] final  -17.51 input  -60.11 | X-H torsion
[ 7974 7965 7964 7962 ] final  162.60 input  175.53 | X-H torsion
[ 8008 7997 7996 7995 ] final  153.52 input   59.86 | X-H torsion
[ 10167 10162 10161 10158 ] final    2.12 input  -65.29 | X-H torsion
[ 10718 10713 10712 10709 ] final  127.36 input   66.30 | X-H torsion
[ 10763 10752 10751 10750 ] final   42.24 input  -60.55 | X-H torsion
[ 11005 11000 10999 10996 ] final  176.62 input  -57.11 | X-H torsion

> <Gold.Protein.ActiveResidues>
 VAL166  LYS551  ARG553  GLY616  TRP617  ASP618  TYR619  PRO620  LYS621  CYS622 
 ASP623  PHE694  ASN695  SER759  ASP760  ASP761  ALA762  ILE779  LEU786  VAL792 
 PHE793  MET794  SER795  GLU796  ALA797  LYS798  CYS799  TRP800  GLU811  SER814 

> <Gold.Protein.RotatedAtoms>
  151.2922  135.0745  159.9208 H   0  0  0  0  0  0  0  0  0  0  0  0  # atno 6907 bound_to 6896
  152.5314  133.9919  159.7865 H   0  0  0  0  0  0  0  0  0  0  0  0  # atno 6908 bound_to 6896
  151.0191  133.5842  159.2704 H   0  0  0  0  0  0  0  0  0  0  0  0  # atno 6909 bound_to 6896
  144.7629  139.8063  143.6326 H   0  0  0  0  0  0  0  0  0  0  0  0  # atno 7974 bound_to 7965
  156.2577  140.1991  156.6503 H   0  0  0  0  0  0  0  0  0  0  0  0  # atno 8008 bound_to 7997
  154.6541  140.0568  157.0014 H   0  0  0  0  0  0  0  0  0  0  0  0  # atno 8009 bound_to 7997
  155.1373  140.3239  155.4463 H   0  0  0  0  0  0  0  0  0  0  0  0  # atno 8010 bound_to 7997
  140.6650  143.7202  150.7810 H   0  0  0  0  0  0  0  0  0  0  0  0  # atno 10167 bound_to 10162
  157.5340  131.1098  150.8965 H   0  0  0  0  0  0  0  0  0  0  0  0  # atno 10718 bound_to 10713
  152.9888  135.6138  154.2917 H   0  0  0  0  0  0  0  0  0  0  0  0  # atno 10763 bound_to 10752
  154.2641  135.2781  155.2767 H   0  0  0  0  0  0  0  0  0  0  0  0  # atno 10764 bound_to 10752
  154.5180  135.5823  153.6714 H   0  0  0  0  0  0  0  0  0  0  0  0  # atno 10765 bound_to 10752
  140.3751  134.6996  157.4416 H   0  0  0  0  0  0  0  0  0  0  0  0  # atno 11005 bound_to 11000
  146.1709  139.4860  142.9928 LP  0  0  0  0  0  0  0  0  0  0  0  0  # atno 17320 bound_to 7965
  145.6562  141.0251  143.1734 LP  0  0  0  0  0  0  0  0  0  0  0  0  # atno 17321 bound_to 7965
  140.0878  143.4907  152.2495 LP  0  0  0  0  0  0  0  0  0  0  0  0  # atno 17342 bound_to 10162
  139.5896  144.7545  151.3433 LP  0  0  0  0  0  0  0  0  0  0  0  0  # atno 17343 bound_to 10162
  156.9537  130.5429  149.5283 LP  0  0  0  0  0  0  0  0  0  0  0  0  # atno 17370 bound_to 10713
  156.0444  130.5522  150.8846 LP  0  0  0  0  0  0  0  0  0  0  0  0  # atno 17371 bound_to 10713
  140.0522  134.6115  155.8848 LP  0  0  0  0  0  0  0  0  0  0  0  0  # atno 17394 bound_to 11000
  141.1942  133.6582  156.5583 LP  0  0  0  0  0  0  0  0  0  0  0  0  # atno 17395 bound_to 11000

$$$$
