AV-unprocessed.smi:1242|AV-procd|sdf|5217|dock6
  -GOLD-   22720 4313D 1   1.00000     0.00000
 Structure written by MMmdl.
 39 40  0  0  0  0  0  0  0  0  1 V2000
  150.5925  141.1041  157.9120 O   0  0  0  0  0  0  0  0  0  0  0  0
  150.5842  142.1333  157.2355 C   0  0  0  0  0  0  0  0  0  0  0  0
  151.3632  143.3755  157.6885 C   0  0  0  0  0  0  0  0  0  0  0  0
  151.9096  143.2469  159.0496 N   0  0  0  0  0  0  0  0  0  0  0  0
  152.7655  142.1560  159.2994 C   0  0  0  0  0  0  0  0  0  0  0  0
  153.3436  141.9370  160.4960 C   0  0  0  0  0  0  0  0  0  0  0  0
  154.2238  140.7233  160.7502 C   0  0  0  0  0  0  0  0  0  0  0  0
  155.3473  140.7873  160.0352 F   0  0  0  0  0  0  0  0  0  0  0  0
  154.5529  140.6272  162.0390 F   0  0  0  0  0  0  0  0  0  0  0  0
  153.5744  139.6127  160.4041 F   0  0  0  0  0  0  0  0  0  0  0  0
  153.0140  142.8733  161.5526 C   0  0  0  0  0  0  0  0  0  0  0  0
  152.1932  143.9186  161.3320 C   0  0  0  0  0  0  0  0  0  0  0  0
  151.5924  144.1579  160.0180 C   0  0  0  0  0  0  0  0  0  0  0  0
  150.8487  145.1152  159.8020 O   0  0  0  0  0  0  0  0  0  0  0  0
  149.8977  142.2537  156.0879 N   0  0  0  0  0  0  0  0  0  0  0  0
  149.1053  141.1960  155.4563 C   0  0  1  0  0  0  0  0  0  0  0  0
  148.3634  141.8234  154.2539 C   0  0  0  0  0  0  0  0  0  0  0  0
  147.1140  141.0388  153.8170 C   0  0  0  0  0  0  0  0  0  0  0  0
  147.3903  139.6317  153.2662 C   0  0  0  0  0  0  0  0  0  0  0  0
  148.0303  138.6808  154.2916 C   0  0  0  0  0  0  0  0  0  0  0  0
  149.4539  138.9383  154.4641 N   0  0  0  0  0  0  0  0  0  0  0  0
  150.0182  140.0536  154.9516 C   0  0  0  0  0  0  0  0  0  0  0  0
  151.2436  140.1635  154.9908 O   0  0  0  0  0  0  0  0  0  0  0  0
  152.1682  143.5822  156.9805 H   0  0  0  0  0  0  0  0  0  0  0  0
  150.6966  144.2363  157.6204 H   0  0  0  0  0  0  0  0  0  0  0  0
  152.9277  141.5084  158.4499 H   0  0  0  0  0  0  0  0  0  0  0  0
  153.4369  142.7379  162.5370 H   0  0  0  0  0  0  0  0  0  0  0  0
  151.9724  144.5983  162.1420 H   0  0  0  0  0  0  0  0  0  0  0  0
  149.9498  143.1343  155.5971 H   0  0  0  0  0  0  0  0  0  0  0  0
  148.3867  140.8094  156.1813 H   0  0  0  0  0  0  0  0  0  0  0  0
  148.0293  142.8258  154.5264 H   0  0  0  0  0  0  0  0  0  0  0  0
  149.0378  141.9625  153.4071 H   0  0  0  0  0  0  0  0  0  0  0  0
  146.4191  140.9700  154.6547 H   0  0  0  0  0  0  0  0  0  0  0  0
  146.5951  141.6136  153.0492 H   0  0  0  0  0  0  0  0  0  0  0  0
  146.4408  139.2027  152.9443 H   0  0  0  0  0  0  0  0  0  0  0  0
  148.0092  139.6919  152.3700 H   0  0  0  0  0  0  0  0  0  0  0  0
  147.5128  138.7265  155.2509 H   0  0  0  0  0  0  0  0  0  0  0  0
  147.9311  137.6540  153.9387 H   0  0  0  0  0  0  0  0  0  0  0  0
  150.0785  138.2075  154.1549 H   0  0  0  0  0  0  0  0  0  0  0  0
  1  2  2  0  0  0  0
  2  3  1  0  0  0  0
  2 15  1  0  0  0  0
  3  4  1  0  0  0  0
  3 24  1  0  0  0  0
  3 25  1  0  0  0  0
  4 13  1  0  0  0  0
  4  5  1  0  0  0  0
  5  6  2  0  0  0  0
  5 26  1  0  0  0  0
  6  7  1  0  0  0  0
  6 11  1  0  0  0  0
  7  8  1  0  0  0  0
  7  9  1  0  0  0  0
  7 10  1  0  0  0  0
 11 12  2  0  0  0  0
 11 27  1  0  0  0  0
 12 13  1  0  0  0  0
 12 28  1  0  0  0  0
 13 14  2  0  0  0  0
 15 16  1  0  0  0  0
 15 29  1  0  0  0  0
 16 22  1  0  0  0  0
 16 17  1  0  0  0  0
 16 30  1  0  0  0  0
 17 18  1  0  0  0  0
 17 31  1  0  0  0  0
 17 32  1  0  0  0  0
 18 19  1  0  0  0  0
 18 33  1  0  0  0  0
 18 34  1  0  0  0  0
 19 20  1  0  0  0  0
 19 35  1  0  0  0  0
 19 36  1  0  0  0  0
 20 21  1  0  0  0  0
 20 37  1  0  0  0  0
 20 38  1  0  0  0  0
 21 22  1  0  0  0  0
 21 39  1  0  0  0  0
 22 23  2  0  0  0  0
M  END
> <s_m_source_file>
AV-unprocessed.smi

> <i_m_source_file_index>
1242

> <i_lp_mmshare_version>
43012

> <i_f3d_flags>
0

> <s_epik_input>
Tz1jMVtjSF1bY0hdYyhDKEYpKEYpRilbY0hdbjFbQ0gyXUMoPU8pW05IXVtDQEBIXTJbQ0gyXVtDSDJdW0NIMl1bQ0gyXVtOSF1DMj1P

> <s_epik_cmdline>
J2VwaWtfcHl0aG9uJywgJy1waCcsICc3LjAnLCAnLXRuJywgJzgnLCAnLW1hJywgJzIwMCcsICctbWV0YWxfYmluZGluZycsICctaW1hZScsICc8aW5maWxlLm1hZT4nLCAnLW9tYWUnLCAnPG91dGZpbGUubWFlPic=

> <r_lp_tautomer_probability>
1

> <r_epik_Ionization_Penalty>
6.92876e-08

> <r_epik_Ionization_Penalty_Charging>
1.59659e-08

> <r_epik_Ionization_Penalty_Neutral>
5.33217e-08

> <r_epik_State_Penalty>
-0

> <r_epik_Charging_Adjusted_Penalty>
1.59659e-08

> <i_epik_Tot_Q>
0

> <i_epik_Tot_abs_Q>
0

> <r_epik_Metal_State_Penalty>
-0

> <b_epik_Metal_Only>
0

> <s_lp_Force_Field>
OPLS_2005

> <r_lp_Energy>
23.3592

> <b_lp_Chiralities_Consistent>
1

> <s_lp_Variant>
AV-unprocessed.smi:1242-2

> <Gold.Version>
5.8.1

> <Gold.Id.Protein>
6NUR|6NUR_protein|mol2

> <Gold.PLP.Fitness>
56.7067

> <Gold.PLP.PLP>
-52.0026

> <Gold.PLP.part.hbond>
-2.0000

> <Gold.PLP.part.metal>
0.0000

> <Gold.PLP.part.buried>
-4.2991

> <Gold.PLP.part.nonpolar>
-46.2600

> <Gold.PLP.part.repulsive>
0.4007

> <Gold.PLP.ligand.clash>
0.0000

> <Gold.PLP.ligand.torsion>
0.2212

> <Gold.PLP.Chemscore.Hbond>
1.7040

> <Gold.PLP.Chemscore.CHOScore>
0.0000

> <Gold.PLP.Chemscore.Metal>
0.0000

> <Gold.Chemscore.Hbonds>
donor molecule, donor type, donor heavy atom, donor atom, acceptor molecule, acceptor atom, score
      L1  H    15    29       P1  8028  0.67
      P1  H  7989  7998       L1    23  1.00

> <Gold.PLP.Chemscore.Internal.Correction>
0.0345

> <Gold.Rescore>
     Score         DG    S(hbond)    S(metal)    S(lipo)     H(rot)  DE(clash)    DE(int)     intcor
     16.54     -18.18       1.93        0.00      90.98       1.72       0.01       1.62       ----

> <Gold.Chemscore.Fitness>
16.5432

> <Gold.Chemscore.DG>
-18.1751

> <Gold.Chemscore.ZeroCoef>
-5.4800

> <Gold.Chemscore.Hbond>
1.9332

> <Gold.Chemscore.Metal>
0.0000

> <Gold.Chemscore.Lipo>
90.9789

> <Gold.Chemscore.Internal_Hbond>
0.0000

> <Gold.Chemscore.DEClash>
0.0102

> <Gold.Chemscore.DEInternal>
1.6217

> <Gold.Chemscore.Rot>
1.7212

> <Gold.Chemscore.Internal.Correction>
   9.000000E+99

> <Gold.Chemscore.Hbonds>
donor molecule, donor type, donor heavy atom, donor atom, acceptor molecule, acceptor atom, score
      L1  H    15    29       P1  8028  0.68
      P1  H  7989  7998       L1    23  0.44

> <Gold.Chemscore.Hbond.Weighted>
-6.4569

> <Gold.Chemscore.Metal.Weighted>
-0.0000

> <Gold.Chemscore.Lipo.Weighted>
-10.6445

> <Gold.Chemscore.Internal_Hbond.Weighted>
0.0000

> <Gold.Chemscore.DEClash.Weighted>
0.0102

> <Gold.Chemscore.DEInternal.Weighted>
1.6217

> <Gold.Chemscore.Rot.Weighted>
4.4062

> <Gold.Chemscore.Internal.Correction.Weighted>
   9.000000E+99

> <Gold.Protein.RotatedTorsions>
[ 6907 6896 6895 6894 ] final  -74.41 input  -60.11 | X-H torsion
[ 7974 7965 7964 7962 ] final  159.98 input  175.53 | X-H torsion
[ 8008 7997 7996 7995 ] final    4.47 input   59.86 | X-H torsion
[ 10167 10162 10161 10158 ] final   43.91 input  -65.29 | X-H torsion
[ 10718 10713 10712 10709 ] final -154.79 input   66.30 | X-H torsion
[ 10763 10752 10751 10750 ] final -170.19 input  -60.55 | X-H torsion
[ 11005 11000 10999 10996 ] final   55.97 input  -57.11 | X-H torsion

> <Gold.Protein.ActiveResidues>
 VAL166  LYS551  ARG553  GLY616  TRP617  ASP618  TYR619  PRO620  LYS621  CYS622 
 ASP623  PHE694  ASN695  SER759  ASP760  ASP761  ALA762  ILE779  LEU786  VAL792 
 PHE793  MET794  SER795  GLU796  ALA797  LYS798  CYS799  TRP800  GLU811  SER814 

> <Gold.Protein.RotatedAtoms>
  150.7094  134.4873  159.5498 H   0  0  0  0  0  0  0  0  0  0  0  0  # atno 6907 bound_to 6896
  152.2498  134.8141  160.0457 H   0  0  0  0  0  0  0  0  0  0  0  0  # atno 6908 bound_to 6896
  151.8893  133.3477  159.3829 H   0  0  0  0  0  0  0  0  0  0  0  0  # atno 6909 bound_to 6896
  144.7761  139.7693  143.6278 H   0  0  0  0  0  0  0  0  0  0  0  0  # atno 7974 bound_to 7965
  154.7163  140.2703  155.6583 H   0  0  0  0  0  0  0  0  0  0  0  0  # atno 8008 bound_to 7997
  156.2810  140.2743  156.1745 H   0  0  0  0  0  0  0  0  0  0  0  0  # atno 8009 bound_to 7997
  155.0567  140.0371  157.2552 H   0  0  0  0  0  0  0  0  0  0  0  0  # atno 8010 bound_to 7997
  140.3396  144.2486  150.6157 H   0  0  0  0  0  0  0  0  0  0  0  0  # atno 10167 bound_to 10162
  156.5040  130.8404  151.2620 H   0  0  0  0  0  0  0  0  0  0  0  0  # atno 10718 bound_to 10713
  154.6442  135.2902  155.0066 H   0  0  0  0  0  0  0  0  0  0  0  0  # atno 10763 bound_to 10752
  154.1182  135.6552  153.4902 H   0  0  0  0  0  0  0  0  0  0  0  0  # atno 10764 bound_to 10752
  153.0342  135.5281  154.7322 H   0  0  0  0  0  0  0  0  0  0  0  0  # atno 10765 bound_to 10752
  140.0565  134.5662  155.9201 H   0  0  0  0  0  0  0  0  0  0  0  0  # atno 11005 bound_to 11000
  146.1941  139.5197  142.9786 LP  0  0  0  0  0  0  0  0  0  0  0  0  # atno 17320 bound_to 7965
  145.6182  141.0327  143.1929 LP  0  0  0  0  0  0  0  0  0  0  0  0  # atno 17321 bound_to 7965
  140.5321  143.2241  151.8222 LP  0  0  0  0  0  0  0  0  0  0  0  0  # atno 17342 bound_to 10162
  139.4842  144.4707  151.9428 LP  0  0  0  0  0  0  0  0  0  0  0  0  # atno 17343 bound_to 10162
  157.7459  130.9972  150.2807 LP  0  0  0  0  0  0  0  0  0  0  0  0  # atno 17370 bound_to 10713
  156.3305  130.3799  149.7495 LP  0  0  0  0  0  0  0  0  0  0  0  0  # atno 17371 bound_to 10713
  141.1954  133.6587  156.5643 LP  0  0  0  0  0  0  0  0  0  0  0  0  # atno 17394 bound_to 11000
  140.3836  134.7502  157.4677 LP  0  0  0  0  0  0  0  0  0  0  0  0  # atno 17395 bound_to 11000

$$$$
