AV-unprocessed.smi:2408|AV-procd|sdf|9521|dock1
  -GOLD-   2272013153D 1   1.00000     0.00000
 Structure written by MMmdl.
 48 50  0  0  0  0  0  0  0  0  2 V2000
  144.7306  135.7786  151.3789 C   0  0  0  0  0  0  0  0  0  0  0  0
  144.8129  134.2877  151.1061 C   0  0  0  0  0  0  0  0  0  0  0  0
  143.8111  133.7281  150.3901 N   0  3  0  0  0  0  0  0  0  0  0  0
  143.7676  132.4145  150.0816 C   0  0  0  0  0  0  0  0  0  0  0  0
  144.7973  131.5594  150.5187 C   0  0  0  0  0  0  0  0  0  0  0  0
  145.8646  132.0960  151.2673 C   0  0  0  0  0  0  0  0  0  0  0  0
  145.8880  133.4837  151.5590 C   0  0  0  0  0  0  0  0  0  0  0  0
  146.9232  134.0903  152.3227 N   0  0  0  0  0  0  0  0  0  0  0  0
  147.5740  133.5757  153.3795 C   0  0  0  0  0  0  0  0  0  0  0  0
  147.3571  132.4680  153.8699 O   0  0  0  0  0  0  0  0  0  0  0  0
  148.5286  134.4147  153.8194 N   0  0  0  0  0  0  0  0  0  0  0  0
  149.4760  134.2036  154.9302 C   0  0  0  0  0  0  0  0  0  0  0  0
  150.4291  135.4129  155.1556 C   0  0  0  0  0  0  0  0  0  0  0  0
  151.2670  135.3768  156.0578 O   0  0  0  0  0  0  0  0  0  0  0  0
  150.2918  136.4845  154.3573 N   0  0  0  0  0  0  0  0  0  0  0  0
  151.0984  137.6923  154.4342 C   0  0  0  0  0  0  0  0  0  0  0  0
  150.5223  138.7529  155.3483 C   0  0  0  0  0  0  0  0  0  0  0  0
  150.0398  140.0696  154.7871 C   0  0  0  0  0  0  0  0  0  0  0  0
  151.2828  140.0241  155.6436 C   0  0  0  0  0  0  0  0  0  0  0  0
  148.6606  133.9715  156.2251 C   0  0  0  0  0  0  0  0  0  0  0  0
  149.4312  132.9340  157.0389 C   0  0  0  0  0  0  0  0  0  0  0  0
  150.0023  131.9950  155.9849 C   0  0  0  0  0  0  0  0  0  0  0  0
  150.2653  132.8685  154.7511 C   0  0  0  0  0  0  0  0  0  0  0  0
  145.6057  136.2874  150.9732 H   0  0  0  0  0  0  0  0  0  0  0  0
  144.6895  135.9663  152.4521 H   0  0  0  0  0  0  0  0  0  0  0  0
  143.8425  136.2191  150.9238 H   0  0  0  0  0  0  0  0  0  0  0  0
  142.9140  132.0895  149.5049 H   0  0  0  0  0  0  0  0  0  0  0  0
  144.7685  130.5043  150.2878 H   0  0  0  0  0  0  0  0  0  0  0  0
  146.6407  131.4318  151.6168 H   0  0  0  0  0  0  0  0  0  0  0  0
  147.2730  134.9681  151.9672 H   0  0  0  0  0  0  0  0  0  0  0  0
  148.6206  135.2960  153.3360 H   0  0  0  0  0  0  0  0  0  0  0  0
  149.5815  136.4535  153.6407 H   0  0  0  0  0  0  0  0  0  0  0  0
  152.1032  137.4304  154.7690 H   0  0  0  0  0  0  0  0  0  0  0  0
  151.1981  138.1230  153.4367 H   0  0  0  0  0  0  0  0  0  0  0  0
  149.9291  138.3481  156.1665 H   0  0  0  0  0  0  0  0  0  0  0  0
  150.1719  140.2470  153.7214 H   0  0  0  0  0  0  0  0  0  0  0  0
  149.1427  140.5032  155.2244 H   0  0  0  0  0  0  0  0  0  0  0  0
  151.2144  140.4264  156.6522 H   0  0  0  0  0  0  0  0  0  0  0  0
  152.2405  140.1693  155.1474 H   0  0  0  0  0  0  0  0  0  0  0  0
  148.4882  134.8838  156.7992 H   0  0  0  0  0  0  0  0  0  0  0  0
  147.6759  133.5649  155.9876 H   0  0  0  0  0  0  0  0  0  0  0  0
  150.2424  133.4162  157.5856 H   0  0  0  0  0  0  0  0  0  0  0  0
  148.8026  132.4174  157.7647 H   0  0  0  0  0  0  0  0  0  0  0  0
  150.8994  131.4801  156.3305 H   0  0  0  0  0  0  0  0  0  0  0  0
  149.2607  131.2337  155.7390 H   0  0  0  0  0  0  0  0  0  0  0  0
  149.9667  132.3181  153.8584 H   0  0  0  0  0  0  0  0  0  0  0  0
  151.3372  133.0400  154.6428 H   0  0  0  0  0  0  0  0  0  0  0  0
  143.0512  134.3273  150.0673 H   0  0  0  0  0  0  0  0  0  0  0  0
  1  2  1  0  0  0  0
  1 24  1  0  0  0  0
  1 25  1  0  0  0  0
  1 26  1  0  0  0  0
  2  7  1  0  0  0  0
  2  3  2  0  0  0  0
  3  4  1  0  0  0  0
  3 48  1  0  0  0  0
  4  5  2  0  0  0  0
  4 27  1  0  0  0  0
  5  6  1  0  0  0  0
  5 28  1  0  0  0  0
  6  7  2  0  0  0  0
  6 29  1  0  0  0  0
  7  8  1  0  0  0  0
  8  9  1  0  0  0  0
  8 30  1  0  0  0  0
  9 10  2  0  0  0  0
  9 11  1  0  0  0  0
 11 12  1  0  0  0  0
 11 31  1  0  0  0  0
 12 23  1  0  0  0  0
 12 13  1  0  0  0  0
 12 20  1  0  0  0  0
 13 14  2  0  0  0  0
 13 15  1  0  0  0  0
 15 16  1  0  0  0  0
 15 32  1  0  0  0  0
 16 17  1  0  0  0  0
 16 33  1  0  0  0  0
 16 34  1  0  0  0  0
 17 19  1  0  0  0  0
 17 18  1  0  0  0  0
 17 35  1  0  0  0  0
 18 19  1  0  0  0  0
 18 36  1  0  0  0  0
 18 37  1  0  0  0  0
 19 38  1  0  0  0  0
 19 39  1  0  0  0  0
 20 21  1  0  0  0  0
 20 40  1  0  0  0  0
 20 41  1  0  0  0  0
 21 22  1  0  0  0  0
 21 42  1  0  0  0  0
 21 43  1  0  0  0  0
 22 23  1  0  0  0  0
 22 44  1  0  0  0  0
 22 45  1  0  0  0  0
 23 46  1  0  0  0  0
 23 47  1  0  0  0  0
M  CHG  1   3   1
M  END
> <s_m_source_file>
AV-unprocessed.smi

> <i_m_source_file_index>
2408

> <i_lp_mmshare_version>
43012

> <i_f3d_flags>
0

> <s_epik_input>
W0NIM11jMW5bY0hdW2NIXVtjSF1jMVtOSF1DKD1PKVtOSF1DMihbQ0gyXVtDSDJdW0NIMl1bQ0gyXTIpQyg9TylbTkhdW0NIMl1bQ0hdM1tDSDJdW0NIMl0z

> <s_epik_cmdline>
J2VwaWtfcHl0aG9uJywgJy1waCcsICc3LjAnLCAnLXRuJywgJzgnLCAnLW1hJywgJzIwMCcsICctbWV0YWxfYmluZGluZycsICctaW1hZScsICc8aW5maWxlLm1hZT4nLCAnLW9tYWUnLCAnPG91dGZpbGUubWFlPic=

> <r_epik_Ionization_Penalty>
2.1018

> <r_epik_Ionization_Penalty_Charging>
2.10178

> <r_epik_Ionization_Penalty_Neutral>
1.99712e-05

> <r_epik_State_Penalty>
2.23801

> <r_epik_Charging_Adjusted_Penalty>
4.33979

> <i_epik_Tot_Q>
1

> <i_epik_Tot_abs_Q>
1

> <r_epik_Metal_State_Penalty>
2.25493

> <b_epik_Metal_Only>
0

> <s_lp_Force_Field>
OPLS_2005

> <r_lp_Energy>
38.4503

> <b_lp_Chiralities_Consistent>
1

> <s_lp_Variant>
AV-unprocessed.smi:2408-2

> <Gold.Version>
5.8.1

> <Gold.Id.Protein>
6NUR|6NUR_protein|mol2

> <Gold.PLP.Fitness>
56.1256

> <Gold.PLP.PLP>
-41.0797

> <Gold.PLP.part.hbond>
-6.0000

> <Gold.PLP.part.metal>
0.0000

> <Gold.PLP.part.buried>
-4.3868

> <Gold.PLP.part.nonpolar>
-30.9754

> <Gold.PLP.part.repulsive>
0.1850

> <Gold.PLP.ligand.clash>
0.0000

> <Gold.PLP.ligand.torsion>
0.8976

> <Gold.PLP.Chemscore.Hbond>
5.3982

> <Gold.PLP.Chemscore.CHOScore>
0.0000

> <Gold.PLP.Chemscore.Metal>
0.0000

> <Gold.Chemscore.Hbonds>
donor molecule, donor type, donor heavy atom, donor atom, acceptor molecule, acceptor atom, score
      L1  H     3    48       P1 10186  1.51
      L1  H     8    30       P1  7948  0.82
      L1  H    11    31       P1  7948  0.99
      L1  H    15    32       P1  7948  1.00
      P1  H 10752 10763       L1    14  0.81

> <Gold.PLP.Chemscore.Internal.Correction>
0.6464

> <Gold.Rescore>
     Score         DG    S(hbond)    S(metal)    S(lipo)     H(rot)  DE(clash)    DE(int)     intcor
     22.58     -25.44       3.95        0.00      93.57       1.63       0.04       2.81       ----

> <Gold.Chemscore.Fitness>
22.5815

> <Gold.Chemscore.DG>
-25.4359

> <Gold.Chemscore.ZeroCoef>
-5.4800

> <Gold.Chemscore.Hbond>
3.9455

> <Gold.Chemscore.Metal>
0.0000

> <Gold.Chemscore.Lipo>
93.5666

> <Gold.Chemscore.Internal_Hbond>
0.0000

> <Gold.Chemscore.DEClash>
0.0436

> <Gold.Chemscore.DEInternal>
2.8108

> <Gold.Chemscore.Rot>
1.6286

> <Gold.Chemscore.Internal.Correction>
   9.000000E+99

> <Gold.Chemscore.Hbonds>
donor molecule, donor type, donor heavy atom, donor atom, acceptor molecule, acceptor atom, score
      L1  H     3    48       P1 10186  0.67
      L1  H     8    30       P1  7948  0.74
      L1  H    11    31       P1  7948  0.82
      L1  H    15    32       P1  7948  0.63
      P1  H 10752 10763       L1    14  0.23

> <Gold.Chemscore.Hbond.Weighted>
-13.1779

> <Gold.Chemscore.Metal.Weighted>
-0.0000

> <Gold.Chemscore.Lipo.Weighted>
-10.9473

> <Gold.Chemscore.Internal_Hbond.Weighted>
0.0000

> <Gold.Chemscore.DEClash.Weighted>
0.0436

> <Gold.Chemscore.DEInternal.Weighted>
2.8108

> <Gold.Chemscore.Rot.Weighted>
4.1692

> <Gold.Chemscore.Internal.Correction.Weighted>
   9.000000E+99

> <Gold.Protein.RotatedTorsions>
[ 6907 6896 6895 6894 ] final   94.62 input  -60.11 | X-H torsion
[ 7974 7965 7964 7962 ] final  -90.66 input  175.53 | X-H torsion
[ 8008 7997 7996 7995 ] final  -29.48 input   59.86 | X-H torsion
[ 10167 10162 10161 10158 ] final  176.38 input  -65.29 | X-H torsion
[ 10718 10713 10712 10709 ] final -121.91 input   66.30 | X-H torsion
[ 10763 10752 10751 10750 ] final   82.48 input  -60.55 | X-H torsion
[ 11005 11000 10999 10996 ] final  162.77 input  -57.11 | X-H torsion

> <Gold.Protein.ActiveResidues>
 VAL166  LYS551  ARG553  GLY616  TRP617  ASP618  TYR619  PRO620  LYS621  CYS622 
 ASP623  PHE694  ASN695  SER759  ASP760  ASP761  ALA762  ILE779  LEU786  VAL792 
 PHE793  MET794  SER795  GLU796  ALA797  LYS798  CYS799  TRP800  GLU811  SER814 

> <Gold.Protein.RotatedAtoms>
  152.5448  134.1166  159.8380 H   0  0  0  0  0  0  0  0  0  0  0  0  # atno 6907 bound_to 6896
  151.1226  133.5086  159.2609 H   0  0  0  0  0  0  0  0  0  0  0  0  # atno 6908 bound_to 6896
  151.1762  135.0350  159.8827 H   0  0  0  0  0  0  0  0  0  0  0  0  # atno 6909 bound_to 6896
  145.4235  140.9552  143.2167 H   0  0  0  0  0  0  0  0  0  0  0  0  # atno 7974 bound_to 7965
  154.4288  140.1817  156.1254 H   0  0  0  0  0  0  0  0  0  0  0  0  # atno 8008 bound_to 7997
  156.0110  140.3350  155.6915 H   0  0  0  0  0  0  0  0  0  0  0  0  # atno 8009 bound_to 7997
  155.6111  140.0650  157.2696 H   0  0  0  0  0  0  0  0  0  0  0  0  # atno 8010 bound_to 7997
  139.5212  144.2922  152.0453 H   0  0  0  0  0  0  0  0  0  0  0  0  # atno 10167 bound_to 10162
  156.1375  130.6441  150.9719 H   0  0  0  0  0  0  0  0  0  0  0  0  # atno 10718 bound_to 10713
  153.1207  135.4726  154.9190 H   0  0  0  0  0  0  0  0  0  0  0  0  # atno 10763 bound_to 10752
  154.7572  135.3121  154.8450 H   0  0  0  0  0  0  0  0  0  0  0  0  # atno 10764 bound_to 10752
  153.9015  135.6874  153.4809 H   0  0  0  0  0  0  0  0  0  0  0  0  # atno 10765 bound_to 10752
  140.2290  134.8138  157.3298 H   0  0  0  0  0  0  0  0  0  0  0  0  # atno 11005 bound_to 11000
  144.8229  139.5760  143.6978 LP  0  0  0  0  0  0  0  0  0  0  0  0  # atno 17320 bound_to 7965
  146.2644  139.6485  142.9339 LP  0  0  0  0  0  0  0  0  0  0  0  0  # atno 17321 bound_to 7965
  140.2373  144.4306  150.6275 LP  0  0  0  0  0  0  0  0  0  0  0  0  # atno 17342 bound_to 10162
  140.6315  143.2188  151.6486 LP  0  0  0  0  0  0  0  0  0  0  0  0  # atno 17343 bound_to 10162
  157.6546  131.0891  150.7976 LP  0  0  0  0  0  0  0  0  0  0  0  0  # atno 17370 bound_to 10713
  156.8055  130.4935  149.5363 LP  0  0  0  0  0  0  0  0  0  0  0  0  # atno 17371 bound_to 10713
  140.1770  134.4537  155.7796 LP  0  0  0  0  0  0  0  0  0  0  0  0  # atno 17394 bound_to 11000
  141.2219  133.6966  156.7804 LP  0  0  0  0  0  0  0  0  0  0  0  0  # atno 17395 bound_to 11000

$$$$
