AV-unprocessed.smi:2379|AV-procd|sdf|9453|dock6
  -GOLD-   2272013 83D 1   1.00000     0.00000
 Structure written by MMmdl.
 53 55  0  0  0  0  0  0  0  0  2 V2000
  154.6095  140.5036  160.3269 C   0  0  0  0  0  0  0  0  0  0  0  0
  153.4711  141.3829  159.8540 C   0  0  0  0  0  0  0  0  0  0  0  0
  153.2529  142.6497  160.4284 C   0  0  0  0  0  0  0  0  0  0  0  0
  152.1793  143.4229  159.9454 C   0  0  0  0  0  0  0  0  0  0  0  0
  151.8885  144.7936  160.5194 C   0  0  0  0  0  0  0  0  0  0  0  0
  151.3530  143.0036  158.9631 N   0  0  0  0  0  0  0  0  0  0  0  0
  151.5539  141.7856  158.4020 C   0  0  0  0  0  0  0  0  0  0  0  0
  150.7481  141.2587  157.3577 N   0  0  0  0  0  0  0  0  0  0  0  0
  151.1405  140.5416  156.2899 C   0  0  0  0  0  0  0  0  0  0  0  0
  152.3059  140.2621  156.0079 O   0  0  0  0  0  0  0  0  0  0  0  0
  150.0909  140.1612  155.5462 N   0  0  0  0  0  0  0  0  0  0  0  0
  150.1692  139.3875  154.3068 C   0  0  2  0  0  0  0  0  0  0  0  0
  148.7612  138.9880  153.8323 C   0  0  0  0  0  0  0  0  0  0  0  0
  148.1347  137.8983  154.7229 C   0  0  0  0  0  0  0  0  0  0  0  0
  149.0169  136.7058  154.8233 N   0  3  2  0  0  0  0  0  0  0  0  0
  148.3800  135.5827  155.5602 C   0  0  0  0  0  0  0  0  0  0  0  0
  149.2413  134.3037  155.5459 C   0  0  2  0  0  0  0  0  0  0  0  0
  149.5327  133.7948  154.1475 C   0  0  0  0  0  0  0  0  0  0  0  0
  149.9663  132.3586  154.4162 C   0  0  0  0  0  0  0  0  0  0  0  0
  149.1965  131.9360  155.5356 O   0  0  0  0  0  0  0  0  0  0  0  0
  148.5997  133.0618  156.1718 C   0  0  0  0  0  0  0  0  0  0  0  0
  150.3569  137.0689  155.3543 C   0  0  0  0  0  0  0  0  0  0  0  0
  151.0366  138.1224  154.4641 C   0  0  0  0  0  0  0  0  0  0  0  0
  152.6113  140.9489  158.8247 C   0  0  0  0  0  0  0  0  0  0  0  0
  154.9560  140.8073  161.3152 H   0  0  0  0  0  0  0  0  0  0  0  0
  155.4485  140.5688  159.6340 H   0  0  0  0  0  0  0  0  0  0  0  0
  154.2910  139.4625  160.3856 H   0  0  0  0  0  0  0  0  0  0  0  0
  153.8912  143.0192  161.2178 H   0  0  0  0  0  0  0  0  0  0  0  0
  152.7589  145.1925  161.0413 H   0  0  0  0  0  0  0  0  0  0  0  0
  151.0604  144.7378  161.2259 H   0  0  0  0  0  0  0  0  0  0  0  0
  151.6193  145.4941  159.7281 H   0  0  0  0  0  0  0  0  0  0  0  0
  149.7593  141.4426  157.4397 H   0  0  0  0  0  0  0  0  0  0  0  0
  149.1705  140.4433  155.8504 H   0  0  0  0  0  0  0  0  0  0  0  0
  150.6157  140.0287  153.5445 H   0  0  0  0  0  0  0  0  0  0  0  0
  148.1110  139.8630  153.7958 H   0  0  0  0  0  0  0  0  0  0  0  0
  148.8229  138.6161  152.8086 H   0  0  0  0  0  0  0  0  0  0  0  0
  147.9352  138.2897  155.7217 H   0  0  0  0  0  0  0  0  0  0  0  0
  147.1722  137.6092  154.2988 H   0  0  0  0  0  0  0  0  0  0  0  0
  148.1231  135.8816  156.5778 H   0  0  0  0  0  0  0  0  0  0  0  0
  147.4323  135.3354  155.0796 H   0  0  0  0  0  0  0  0  0  0  0  0
  150.1953  134.4987  156.0391 H   0  0  0  0  0  0  0  0  0  0  0  0
  148.6265  133.8033  153.5397 H   0  0  0  0  0  0  0  0  0  0  0  0
  150.2964  134.3756  153.6293 H   0  0  0  0  0  0  0  0  0  0  0  0
  149.8139  131.7062  153.5562 H   0  0  0  0  0  0  0  0  0  0  0  0
  151.0224  132.3237  154.6867 H   0  0  0  0  0  0  0  0  0  0  0  0
  148.7472  133.0185  157.2510 H   0  0  0  0  0  0  0  0  0  0  0  0
  147.5275  133.0345  155.9727 H   0  0  0  0  0  0  0  0  0  0  0  0
  150.2588  137.4432  156.3745 H   0  0  0  0  0  0  0  0  0  0  0  0
  150.9969  136.1907  155.4076 H   0  0  0  0  0  0  0  0  0  0  0  0
  151.2187  137.6902  153.4793 H   0  0  0  0  0  0  0  0  0  0  0  0
  152.0194  138.3718  154.8653 H   0  0  0  0  0  0  0  0  0  0  0  0
  152.7625  139.9816  158.3675 H   0  0  0  0  0  0  0  0  0  0  0  0
  149.1521  136.3818  153.8762 H   0  0  0  0  0  0  0  0  0  0  0  0
  1  2  1  0  0  0  0
  1 25  1  0  0  0  0
  1 26  1  0  0  0  0
  1 27  1  0  0  0  0
  2 24  1  0  0  0  0
  2  3  2  0  0  0  0
  3  4  1  0  0  0  0
  3 28  1  0  0  0  0
  4  5  1  0  0  0  0
  4  6  2  0  0  0  0
  5 29  1  0  0  0  0
  5 30  1  0  0  0  0
  5 31  1  0  0  0  0
  6  7  1  0  0  0  0
  7  8  1  0  0  0  0
  7 24  2  0  0  0  0
  8  9  1  0  0  0  0
  8 32  1  0  0  0  0
  9 10  2  0  0  0  0
  9 11  1  0  0  0  0
 11 12  1  0  0  0  0
 11 33  1  0  0  0  0
 12 23  1  0  0  0  0
 12 13  1  0  0  0  0
 12 34  1  0  0  0  0
 13 14  1  0  0  0  0
 13 35  1  0  0  0  0
 13 36  1  0  0  0  0
 14 15  1  0  0  0  0
 14 37  1  0  0  0  0
 14 38  1  0  0  0  0
 15 16  1  0  0  0  0
 15 22  1  0  0  0  0
 15 53  1  0  0  0  0
 16 17  1  0  0  0  0
 16 39  1  0  0  0  0
 16 40  1  0  0  0  0
 17 21  1  0  0  0  0
 17 18  1  0  0  0  0
 17 41  1  0  0  0  0
 18 19  1  0  0  0  0
 18 42  1  0  0  0  0
 18 43  1  0  0  0  0
 19 20  1  0  0  0  0
 19 44  1  0  0  0  0
 19 45  1  0  0  0  0
 20 21  1  0  0  0  0
 21 46  1  0  0  0  0
 21 47  1  0  0  0  0
 22 23  1  0  0  0  0
 22 48  1  0  0  0  0
 22 49  1  0  0  0  0
 23 50  1  0  0  0  0
 23 51  1  0  0  0  0
 24 52  1  0  0  0  0
M  CHG  1  15   1
M  END
> <s_m_source_file>
AV-unprocessed.smi

> <i_m_source_file_index>
2379

> <i_lp_mmshare_version>
43012

> <i_f3d_flags>
0

> <s_epik_input>
W0NIM11jMVtjSF1jKFtDSDNdKW5jKFtjSF0xKVtOSF1DKD1PKVtOSF1bQ0hdMltDSDJdW0NIMl1OKFtDSDJdW0NIMl0yKVtDSDJdW0NAQEhdM1tDSDJdW0NIMl1PW0NIMl0z

> <s_epik_cmdline>
J2VwaWtfcHl0aG9uJywgJy1waCcsICc3LjAnLCAnLXRuJywgJzgnLCAnLW1hJywgJzIwMCcsICctbWV0YWxfYmluZGluZycsICctaW1hZScsICc8aW5maWxlLm1hZT4nLCAnLW9tYWUnLCAnPG91dGZpbGUubWFlPic=

> <r_epik_Ionization_Penalty>
0.00766556

> <r_epik_Ionization_Penalty_Charging>
0.00747775

> <r_epik_Ionization_Penalty_Neutral>
0.00018781

> <r_epik_State_Penalty>
0.00558817

> <r_epik_Charging_Adjusted_Penalty>
0.0130659

> <i_epik_Tot_Q>
1

> <i_epik_Tot_abs_Q>
1

> <r_epik_Metal_State_Penalty>
-0

> <b_epik_Metal_Only>
0

> <s_lp_Force_Field>
OPLS_2005

> <r_lp_Energy>
34.3762

> <b_lp_Chiralities_Consistent>
1

> <s_lp_Variant>
AV-unprocessed.smi:2379-3

> <Gold.Version>
5.8.1

> <Gold.Id.Protein>
6NUR|6NUR_protein|mol2

> <Gold.PLP.Fitness>
49.9979

> <Gold.PLP.PLP>
-41.7101

> <Gold.PLP.part.hbond>
-2.0000

> <Gold.PLP.part.metal>
0.0000

> <Gold.PLP.part.buried>
-3.0032

> <Gold.PLP.part.nonpolar>
-37.0229

> <Gold.PLP.part.repulsive>
0.1466

> <Gold.PLP.ligand.clash>
0.0000

> <Gold.PLP.ligand.torsion>
0.3776

> <Gold.PLP.Chemscore.Hbond>
3.0000

> <Gold.PLP.Chemscore.CHOScore>
0.0000

> <Gold.PLP.Chemscore.Metal>
0.0000

> <Gold.Chemscore.Hbonds>
donor molecule, donor type, donor heavy atom, donor atom, acceptor molecule, acceptor atom, score
      L1  H    15    53       P1  7948  2.00
      P1  H  7997  8010       L1    10  0.96

> <Gold.PLP.Chemscore.Internal.Correction>
0.0430

> <Gold.Rescore>
     Score         DG    S(hbond)    S(metal)    S(lipo)     H(rot)  DE(clash)    DE(int)     intcor
     17.53     -21.08       1.79        0.00     112.34       1.37       0.73       2.82       ----

> <Gold.Chemscore.Fitness>
17.5341

> <Gold.Chemscore.DG>
-21.0836

> <Gold.Chemscore.ZeroCoef>
-5.4800

> <Gold.Chemscore.Hbond>
1.7886

> <Gold.Chemscore.Metal>
0.0000

> <Gold.Chemscore.Lipo>
112.3354

> <Gold.Chemscore.Internal_Hbond>
0.0000

> <Gold.Chemscore.DEClash>
0.7314

> <Gold.Chemscore.DEInternal>
2.8181

> <Gold.Chemscore.Rot>
1.3725

> <Gold.Chemscore.Internal.Correction>
   9.000000E+99

> <Gold.Chemscore.Hbonds>
donor molecule, donor type, donor heavy atom, donor atom, acceptor molecule, acceptor atom, score
      L1  H    15    53       P1  7948  0.92
      P1  H  7997  8010       L1    10  0.90

> <Gold.Chemscore.Hbond.Weighted>
-5.9739

> <Gold.Chemscore.Metal.Weighted>
-0.0000

> <Gold.Chemscore.Lipo.Weighted>
-13.1432

> <Gold.Chemscore.Internal_Hbond.Weighted>
0.0000

> <Gold.Chemscore.DEClash.Weighted>
0.7314

> <Gold.Chemscore.DEInternal.Weighted>
2.8181

> <Gold.Chemscore.Rot.Weighted>
3.5136

> <Gold.Chemscore.Internal.Correction.Weighted>
   9.000000E+99

> <Gold.Protein.RotatedTorsions>
[ 6907 6896 6895 6894 ] final   74.62 input  -60.11 | X-H torsion
[ 7974 7965 7964 7962 ] final  -42.26 input  175.53 | X-H torsion
[ 8008 7997 7996 7995 ] final   83.49 input   59.86 | X-H torsion
[ 10167 10162 10161 10158 ] final -123.17 input  -65.29 | X-H torsion
[ 10718 10713 10712 10709 ] final   50.75 input   66.30 | X-H torsion
[ 10763 10752 10751 10750 ] final   16.67 input  -60.55 | X-H torsion
[ 11005 11000 10999 10996 ] final  130.63 input  -57.11 | X-H torsion

> <Gold.Protein.ActiveResidues>
 VAL166  LYS551  ARG553  GLY616  TRP617  ASP618  TYR619  PRO620  LYS621  CYS622 
 ASP623  PHE694  ASN695  SER759  ASP760  ASP761  ALA762  ILE779  LEU786  VAL792 
 PHE793  MET794  SER795  GLU796  ALA797  LYS798  CYS799  TRP800  GLU811  SER814 

> <Gold.Protein.RotatedAtoms>
  152.4985  134.4244  159.9491 H   0  0  0  0  0  0  0  0  0  0  0  0  # atno 6907 bound_to 6896
  151.4218  133.3690  159.2765 H   0  0  0  0  0  0  0  0  0  0  0  0  # atno 6908 bound_to 6896
  150.9217  134.8657  159.7553 H   0  0  0  0  0  0  0  0  0  0  0  0  # atno 6909 bound_to 6896
  146.0133  140.6938  142.9214 H   0  0  0  0  0  0  0  0  0  0  0  0  # atno 7974 bound_to 7965
  155.9246  140.3419  155.6200 H   0  0  0  0  0  0  0  0  0  0  0  0  # atno 8008 bound_to 7997
  155.7231  140.0786  157.2340 H   0  0  0  0  0  0  0  0  0  0  0  0  # atno 8009 bound_to 7997
  154.4075  140.1602  156.2412 H   0  0  0  0  0  0  0  0  0  0  0  0  # atno 8010 bound_to 7997
  140.0064  143.5487  152.2282 H   0  0  0  0  0  0  0  0  0  0  0  0  # atno 10167 bound_to 10162
  157.4915  130.8379  149.8208 H   0  0  0  0  0  0  0  0  0  0  0  0  # atno 10718 bound_to 10713
  153.1409  135.6760  153.9028 H   0  0  0  0  0  0  0  0  0  0  0  0  # atno 10763 bound_to 10752
  153.8485  135.3096  155.3432 H   0  0  0  0  0  0  0  0  0  0  0  0  # atno 10764 bound_to 10752
  154.7787  135.4900  153.9882 H   0  0  0  0  0  0  0  0  0  0  0  0  # atno 10765 bound_to 10752
  139.9683  134.9584  156.9322 H   0  0  0  0  0  0  0  0  0  0  0  0  # atno 11005 bound_to 11000
  144.6961  140.3437  143.7194 LP  0  0  0  0  0  0  0  0  0  0  0  0  # atno 17320 bound_to 7965
  145.7308  139.1735  143.2431 LP  0  0  0  0  0  0  0  0  0  0  0  0  # atno 17321 bound_to 7965
  139.6236  144.7633  151.2687 LP  0  0  0  0  0  0  0  0  0  0  0  0  # atno 17342 bound_to 10162
  140.7399  143.6604  150.8169 LP  0  0  0  0  0  0  0  0  0  0  0  0  # atno 17343 bound_to 10162
  156.0176  130.3807  150.2061 LP  0  0  0  0  0  0  0  0  0  0  0  0  # atno 17370 bound_to 10713
  157.0250  130.9990  151.3329 LP  0  0  0  0  0  0  0  0  0  0  0  0  # atno 17371 bound_to 10713
  140.5348  134.0778  155.7325 LP  0  0  0  0  0  0  0  0  0  0  0  0  # atno 17394 bound_to 11000
  141.1363  133.9216  157.2426 LP  0  0  0  0  0  0  0  0  0  0  0  0  # atno 17395 bound_to 11000

$$$$
