AV-unprocessed.smi:2818|AV-procd|sdf|10849|dock2
  -GOLD-   2272015293D 1   1.00000     0.00000
 Structure written by MMmdl.
 25 26  0  0  0  0  0  0  0  0  2 V2000
  151.9158  137.3902  154.4924 O   0  0  0  0  0  0  0  0  0  0  0  0
  152.3339  138.4550  154.9997 C   0  0  0  0  0  0  0  0  0  0  0  0
  153.5524  138.6812  155.1728 O   0  5  0  0  0  0  0  0  0  0  0  0
  151.3357  139.4995  155.4166 C   0  0  0  0  0  0  0  0  0  0  0  0
  150.1471  139.7056  154.6809 C   0  0  0  0  0  0  0  0  0  0  0  0
  149.2463  140.6962  155.1153 C   0  0  0  0  0  0  0  0  0  0  0  0
  149.4567  141.4654  156.2035 N   0  0  0  0  0  0  0  0  0  0  0  0
  150.5952  141.2708  156.9140 C   0  0  0  0  0  0  0  0  0  0  0  0
  150.8301  142.0472  158.0317 O   0  0  0  0  0  0  0  0  0  0  0  0
  152.0542  142.7761  158.1404 C   0  0  1  0  0  0  0  0  0  0  0  0
  151.9144  144.1719  157.5463 C   0  0  0  0  0  0  0  0  0  0  0  0
  151.3913  144.9783  158.7251 C   0  0  0  0  0  0  0  0  0  0  0  0
  152.1339  144.4615  159.8161 O   0  0  0  0  0  0  0  0  0  0  0  0
  152.3056  143.0598  159.6292 C   0  0  0  0  0  0  0  0  0  0  0  0
  151.5571  140.3049  156.5569 C   0  0  0  0  0  0  0  0  0  0  0  0
  149.9225  139.1211  153.8007 H   0  0  0  0  0  0  0  0  0  0  0  0
  148.3302  140.8758  154.5725 H   0  0  0  0  0  0  0  0  0  0  0  0
  152.8922  142.2224  157.7137 H   0  0  0  0  0  0  0  0  0  0  0  0
  152.8948  144.5482  157.2515 H   0  0  0  0  0  0  0  0  0  0  0  0
  151.2599  144.2203  156.6756 H   0  0  0  0  0  0  0  0  0  0  0  0
  151.5436  146.0511  158.6053 H   0  0  0  0  0  0  0  0  0  0  0  0
  150.3276  144.7931  158.8839 H   0  0  0  0  0  0  0  0  0  0  0  0
  151.6104  142.5105  160.2655 H   0  0  0  0  0  0  0  0  0  0  0  0
  153.3171  142.7806  159.9256 H   0  0  0  0  0  0  0  0  0  0  0  0
  152.4486  140.1895  157.1562 H   0  0  0  0  0  0  0  0  0  0  0  0
  1  2  2  0  0  0  0
  2  3  1  0  0  0  0
  2  4  1  0  0  0  0
  4 15  1  0  0  0  0
  4  5  2  0  0  0  0
  5  6  1  0  0  0  0
  5 16  1  0  0  0  0
  6  7  2  0  0  0  0
  6 17  1  0  0  0  0
  7  8  1  0  0  0  0
  8  9  1  0  0  0  0
  8 15  2  0  0  0  0
  9 10  1  0  0  0  0
 10 14  1  0  0  0  0
 10 11  1  0  0  0  0
 10 18  1  0  0  0  0
 11 12  1  0  0  0  0
 11 19  1  0  0  0  0
 11 20  1  0  0  0  0
 12 13  1  0  0  0  0
 12 21  1  0  0  0  0
 12 22  1  0  0  0  0
 13 14  1  0  0  0  0
 14 23  1  0  0  0  0
 14 24  1  0  0  0  0
 15 25  1  0  0  0  0
M  CHG  1   3  -1
M  END
> <s_m_source_file>
AV-unprocessed.smi

> <i_m_source_file_index>
2818

> <i_lp_mmshare_version>
43012

> <i_f3d_flags>
0

> <s_epik_input>
Tz1DKFtPSF0pYzFbY0hdW2NIXW5jKFtjSF0xKU9bQ0BASF0yW0NIMl1bQ0gyXU9bQ0gyXTI=

> <s_epik_cmdline>
J2VwaWtfcHl0aG9uJywgJy1waCcsICc3LjAnLCAnLXRuJywgJzgnLCAnLW1hJywgJzIwMCcsICctbWV0YWxfYmluZGluZycsICctaW1hZScsICc8aW5maWxlLm1hZT4nLCAnLW9tYWUnLCAnPG91dGZpbGUubWFlPic=

> <r_lp_tautomer_probability>
1

> <r_epik_Ionization_Penalty>
0.000147497

> <r_epik_Ionization_Penalty_Charging>
0.00010957

> <r_epik_Ionization_Penalty_Neutral>
3.79274e-05

> <r_epik_State_Penalty>
-0

> <r_epik_Charging_Adjusted_Penalty>
0.00010957

> <i_epik_Tot_Q>
-1

> <i_epik_Tot_abs_Q>
1

> <r_epik_Metal_State_Penalty>
-0

> <b_epik_Metal_Only>
0

> <s_lp_Force_Field>
OPLS_2005

> <r_lp_Energy>
14.7061

> <b_lp_Chiralities_Consistent>
1

> <s_lp_Variant>
AV-unprocessed.smi:2818-2

> <Gold.Version>
5.8.1

> <Gold.Id.Protein>
6NUR|6NUR_protein|mol2

> <Gold.PLP.Fitness>
43.2916

> <Gold.PLP.PLP>
-33.6595

> <Gold.PLP.part.hbond>
-2.0000

> <Gold.PLP.part.metal>
0.0000

> <Gold.PLP.part.buried>
-5.2081

> <Gold.PLP.part.nonpolar>
-27.3057

> <Gold.PLP.part.repulsive>
0.3165

> <Gold.PLP.ligand.clash>
0.0000

> <Gold.PLP.ligand.torsion>
0.8326

> <Gold.PLP.Chemscore.Hbond>
3.7603

> <Gold.PLP.Chemscore.CHOScore>
0.0000

> <Gold.PLP.Chemscore.Metal>
0.0000

> <Gold.Chemscore.Hbonds>
donor molecule, donor type, donor heavy atom, donor atom, acceptor molecule, acceptor atom, score
      P1  H  7997  8008       L1     3  1.79
      P1  H 10752 10765       L1     1  1.86

> <Gold.PLP.Chemscore.Internal.Correction>
0.0163

> <Gold.Rescore>
     Score         DG    S(hbond)    S(metal)    S(lipo)     H(rot)  DE(clash)    DE(int)     intcor
     16.08     -16.75       1.82        0.00      72.47       1.28       0.06       0.61       ----

> <Gold.Chemscore.Fitness>
16.0806

> <Gold.Chemscore.DG>
-16.7513

> <Gold.Chemscore.ZeroCoef>
-5.4800

> <Gold.Chemscore.Hbond>
1.8162

> <Gold.Chemscore.Metal>
0.0000

> <Gold.Chemscore.Lipo>
72.4715

> <Gold.Chemscore.Internal_Hbond>
0.0000

> <Gold.Chemscore.DEClash>
0.0589

> <Gold.Chemscore.DEInternal>
0.6118

> <Gold.Chemscore.Rot>
1.2788

> <Gold.Chemscore.Internal.Correction>
   9.000000E+99

> <Gold.Chemscore.Hbonds>
donor molecule, donor type, donor heavy atom, donor atom, acceptor molecule, acceptor atom, score
      P1  H  7997  8008       L1     3  0.86
      P1  H 10752 10765       L1     1  0.85

> <Gold.Chemscore.Hbond.Weighted>
-6.0660

> <Gold.Chemscore.Metal.Weighted>
-0.0000

> <Gold.Chemscore.Lipo.Weighted>
-8.4792

> <Gold.Chemscore.Internal_Hbond.Weighted>
0.0000

> <Gold.Chemscore.DEClash.Weighted>
0.0589

> <Gold.Chemscore.DEInternal.Weighted>
0.6118

> <Gold.Chemscore.Rot.Weighted>
3.2738

> <Gold.Chemscore.Internal.Correction.Weighted>
   9.000000E+99

> <Gold.Protein.RotatedTorsions>
[ 6907 6896 6895 6894 ] final  156.07 input  -60.11 | X-H torsion
[ 7974 7965 7964 7962 ] final   -0.52 input  175.53 | X-H torsion
[ 8008 7997 7996 7995 ] final   -9.68 input   59.86 | X-H torsion
[ 10167 10162 10161 10158 ] final   38.63 input  -65.29 | X-H torsion
[ 10718 10713 10712 10709 ] final    8.16 input   66.30 | X-H torsion
[ 10763 10752 10751 10750 ] final  157.30 input  -60.55 | X-H torsion
[ 11005 11000 10999 10996 ] final   98.43 input  -57.11 | X-H torsion

> <Gold.Protein.ActiveResidues>
 VAL166  LYS551  ARG553  GLY616  TRP617  ASP618  TYR619  PRO620  LYS621  CYS622 
 ASP623  PHE694  ASN695  SER759  ASP760  ASP761  ALA762  ILE779  LEU786  VAL792 
 PHE793  MET794  SER795  GLU796  ALA797  LYS798  CYS799  TRP800  GLU811  SER814 

> <Gold.Protein.RotatedAtoms>
  152.0350  133.3953  159.4312 H   0  0  0  0  0  0  0  0  0  0  0  0  # atno 6907 bound_to 6896
  150.6879  134.3478  159.4905 H   0  0  0  0  0  0  0  0  0  0  0  0  # atno 6908 bound_to 6896
  152.1270  134.9163  160.0611 H   0  0  0  0  0  0  0  0  0  0  0  0  # atno 6909 bound_to 6896
  146.2426  140.1282  142.8338 H   0  0  0  0  0  0  0  0  0  0  0  0  # atno 7974 bound_to 7965
  154.5625  140.2349  155.8314 H   0  0  0  0  0  0  0  0  0  0  0  0  # atno 8008 bound_to 7997
  156.2041  140.3044  155.9548 H   0  0  0  0  0  0  0  0  0  0  0  0  # atno 8009 bound_to 7997
  155.2863  140.0424  157.3010 H   0  0  0  0  0  0  0  0  0  0  0  0  # atno 8010 bound_to 7997
  140.3918  144.1843  150.6131 H   0  0  0  0  0  0  0  0  0  0  0  0  # atno 10167 bound_to 10162
  156.9475  130.5884  149.5655 H   0  0  0  0  0  0  0  0  0  0  0  0  # atno 10718 bound_to 10713
  154.1980  135.2791  155.3000 H   0  0  0  0  0  0  0  0  0  0  0  0  # atno 10763 bound_to 10752
  154.5877  135.5570  153.7250 H   0  0  0  0  0  0  0  0  0  0  0  0  # atno 10764 bound_to 10752
  153.0095  135.6360  154.2118 H   0  0  0  0  0  0  0  0  0  0  0  0  # atno 10765 bound_to 10752
  139.8772  134.9049  156.4455 H   0  0  0  0  0  0  0  0  0  0  0  0  # atno 11005 bound_to 11000
  145.0348  140.8899  143.5088 LP  0  0  0  0  0  0  0  0  0  0  0  0  # atno 17320 bound_to 7965
  145.1353  139.2606  143.5518 LP  0  0  0  0  0  0  0  0  0  0  0  0  # atno 17321 bound_to 7965
  140.4832  143.2372  151.8925 LP  0  0  0  0  0  0  0  0  0  0  0  0  # atno 17342 bound_to 10162
  139.4788  144.5247  151.8752 LP  0  0  0  0  0  0  0  0  0  0  0  0  # atno 17343 bound_to 10162
  156.0377  130.5463  150.8694 LP  0  0  0  0  0  0  0  0  0  0  0  0  # atno 17370 bound_to 10713
  157.5744  131.0946  150.9369 LP  0  0  0  0  0  0  0  0  0  0  0  0  # atno 17371 bound_to 10713
  140.8969  133.7808  155.9635 LP  0  0  0  0  0  0  0  0  0  0  0  0  # atno 17394 bound_to 11000
  140.8693  134.2745  157.5198 LP  0  0  0  0  0  0  0  0  0  0  0  0  # atno 17395 bound_to 11000

$$$$
