AV-unprocessed.smi:1006|AV-procd|sdf|4394|dock2
  -GOLD-   22720 2323D 1   1.00000     0.00000
 Structure written by MMmdl.
 46 48  0  0  0  0  0  0  0  0  2 V2000
  150.0692  131.5950  157.7472 C   0  0  0  0  0  0  0  0  0  0  0  0
  150.0289  132.7476  156.7666 C   0  0  0  0  0  0  0  0  0  0  0  0
  149.2441  132.6930  155.5937 C   0  0  0  0  0  0  0  0  0  0  0  0
  149.2869  133.8306  154.7604 C   0  0  0  0  0  0  0  0  0  0  0  0
  148.5494  133.8775  153.5803 N   0  0  0  0  0  0  0  0  0  0  0  0
  150.0341  134.9121  155.0696 N   0  0  0  0  0  0  0  0  0  0  0  0
  150.7351  134.8413  156.2038 C   0  0  0  0  0  0  0  0  0  0  0  0
  151.6876  136.2760  156.6272 S   0  0  0  0  0  0  0  0  0  0  0  0
  150.9735  137.4382  155.4328 C   0  0  0  0  0  0  0  0  0  0  0  0
  151.7326  138.7768  155.3746 C   0  0  2  0  0  0  0  0  0  0  0  0
  153.0207  138.5651  154.8338 O   0  0  0  0  0  0  0  0  0  0  0  0
  151.9026  139.4566  156.7486 C   0  0  0  0  0  0  0  0  0  0  0  0
  151.3857  140.8322  156.7757 N   0  0  0  0  0  0  0  0  0  0  0  0
  150.6128  141.4832  155.8646 C   0  0  0  0  0  0  0  0  0  0  0  0
  150.3851  142.7384  156.3408 N   0  3  0  0  0  0  0  0  0  0  0  0
  151.0208  142.8918  157.5745 C   0  0  0  0  0  0  0  0  0  0  0  0
  151.0735  143.9765  158.4418 C   0  0  0  0  0  0  0  0  0  0  0  0
  151.8041  143.8096  159.6399 C   0  0  0  0  0  0  0  0  0  0  0  0
  151.8765  144.9736  160.6135 C   0  0  0  0  0  0  0  0  0  0  0  0
  152.4545  142.5831  159.9331 C   0  0  0  0  0  0  0  0  0  0  0  0
  153.2282  142.4099  161.2290 C   0  0  0  0  0  0  0  0  0  0  0  0
  152.3964  141.4950  159.0336 C   0  0  0  0  0  0  0  0  0  0  0  0
  151.6685  141.6738  157.8590 C   0  0  0  0  0  0  0  0  0  0  0  0
  150.7779  133.8300  157.0733 N   0  0  0  0  0  0  0  0  0  0  0  0
  149.4278  130.7766  157.4193 H   0  0  0  0  0  0  0  0  0  0  0  0
  149.7288  131.9215  158.7303 H   0  0  0  0  0  0  0  0  0  0  0  0
  151.0861  131.2138  157.8433 H   0  0  0  0  0  0  0  0  0  0  0  0
  148.6458  131.8277  155.3478 H   0  0  0  0  0  0  0  0  0  0  0  0
  147.9681  133.1042  153.2909 H   0  0  0  0  0  0  0  0  0  0  0  0
  148.6523  134.6422  152.9291 H   0  0  0  0  0  0  0  0  0  0  0  0
  150.9951  136.9483  154.4598 H   0  0  0  0  0  0  0  0  0  0  0  0
  149.9251  137.6023  155.6845 H   0  0  0  0  0  0  0  0  0  0  0  0
  151.2007  139.4576  154.7085 H   0  0  0  0  0  0  0  0  0  0  0  0
  153.5043  139.3759  154.8756 H   0  0  0  0  0  0  0  0  0  0  0  0
  151.4255  138.8772  157.5394 H   0  0  0  0  0  0  0  0  0  0  0  0
  152.9610  139.5096  157.0075 H   0  0  0  0  0  0  0  0  0  0  0  0
  150.2430  141.0757  154.9346 H   0  0  0  0  0  0  0  0  0  0  0  0
  150.5726  144.9058  158.2132 H   0  0  0  0  0  0  0  0  0  0  0  0
  152.9135  145.2511  160.8043 H   0  0  0  0  0  0  0  0  0  0  0  0
  151.4077  144.7080  161.5617 H   0  0  0  0  0  0  0  0  0  0  0  0
  151.3644  145.8535  160.2223 H   0  0  0  0  0  0  0  0  0  0  0  0
  153.6389  141.4035  161.3172 H   0  0  0  0  0  0  0  0  0  0  0  0
  152.5794  142.5792  162.0886 H   0  0  0  0  0  0  0  0  0  0  0  0
  154.0587  143.1145  161.2761 H   0  0  0  0  0  0  0  0  0  0  0  0
  152.8904  140.5622  159.2617 H   0  0  0  0  0  0  0  0  0  0  0  0
  149.8319  143.4355  155.8589 H   0  0  0  0  0  0  0  0  0  0  0  0
  1  2  1  0  0  0  0
  1 25  1  0  0  0  0
  1 26  1  0  0  0  0
  1 27  1  0  0  0  0
  2 24  1  0  0  0  0
  2  3  2  0  0  0  0
  3  4  1  0  0  0  0
  3 28  1  0  0  0  0
  4  5  1  0  0  0  0
  4  6  2  0  0  0  0
  5 29  1  0  0  0  0
  5 30  1  0  0  0  0
  6  7  1  0  0  0  0
  7  8  1  0  0  0  0
  7 24  2  0  0  0  0
  8  9  1  0  0  0  0
  9 10  1  0  0  0  0
  9 31  1  0  0  0  0
  9 32  1  0  0  0  0
 10 11  1  0  0  0  0
 10 12  1  0  0  0  0
 10 33  1  0  0  0  0
 11 34  1  0  0  0  0
 12 13  1  0  0  0  0
 12 35  1  0  0  0  0
 12 36  1  0  0  0  0
 13 23  1  0  0  0  0
 13 14  1  0  0  0  0
 14 15  2  0  0  0  0
 14 37  1  0  0  0  0
 15 16  1  0  0  0  0
 15 46  1  0  0  0  0
 16 23  2  0  0  0  0
 16 17  1  0  0  0  0
 17 18  2  0  0  0  0
 17 38  1  0  0  0  0
 18 19  1  0  0  0  0
 18 20  1  0  0  0  0
 19 39  1  0  0  0  0
 19 40  1  0  0  0  0
 19 41  1  0  0  0  0
 20 21  1  0  0  0  0
 20 22  2  0  0  0  0
 21 42  1  0  0  0  0
 21 43  1  0  0  0  0
 21 44  1  0  0  0  0
 22 23  1  0  0  0  0
 22 45  1  0  0  0  0
M  CHG  1  15   1
M  END
> <s_m_source_file>
AV-unprocessed.smi

> <i_m_source_file_index>
1006

> <i_lp_mmshare_version>
43012

> <i_f3d_flags>
0

> <s_epik_input>
W0NIM11jMVtjSF1jKFtOSDJdKW5jKG4xKVNbQ0gyXVtDQEhdKFtPSF0pW0NIMl1uKFtjSF1uMiljKGMyMylbY0hdYyhbQ0gzXSljKFtjSF0zKVtDSDNd

> <s_epik_cmdline>
J2VwaWtfcHl0aG9uJywgJy1waCcsICc3LjAnLCAnLXRuJywgJzgnLCAnLW1hJywgJzIwMCcsICctbWV0YWxfYmluZGluZycsICctaW1hZScsICc8aW5maWxlLm1hZT4nLCAnLW9tYWUnLCAnPG91dGZpbGUubWFlPic=

> <r_epik_Ionization_Penalty>
1.4378

> <r_epik_Ionization_Penalty_Charging>
1.06724

> <r_epik_Ionization_Penalty_Neutral>
0.370564

> <r_epik_State_Penalty>
1.48666

> <r_epik_Charging_Adjusted_Penalty>
2.5539

> <i_epik_Tot_Q>
1

> <i_epik_Tot_abs_Q>
1

> <r_epik_Metal_State_Penalty>
1.38026

> <b_epik_Metal_Only>
0

> <s_lp_Force_Field>
OPLS_2005

> <r_lp_Energy>
8.71661

> <b_lp_Chiralities_Consistent>
1

> <s_lp_Variant>
AV-unprocessed.smi:1006-5

> <Gold.Version>
5.8.1

> <Gold.Id.Protein>
6NUR|6NUR_protein|mol2

> <Gold.PLP.Fitness>
55.6627

> <Gold.PLP.PLP>
-47.1918

> <Gold.PLP.part.hbond>
-3.0000

> <Gold.PLP.part.metal>
0.0000

> <Gold.PLP.part.buried>
-8.1461

> <Gold.PLP.part.nonpolar>
-37.9569

> <Gold.PLP.part.repulsive>
0.2289

> <Gold.PLP.ligand.clash>
0.0000

> <Gold.PLP.ligand.torsion>
1.0506

> <Gold.PLP.Chemscore.Hbond>
3.5023

> <Gold.PLP.Chemscore.CHOScore>
0.0000

> <Gold.PLP.Chemscore.Metal>
0.0000

> <Gold.Chemscore.Hbonds>
donor molecule, donor type, donor heavy atom, donor atom, acceptor molecule, acceptor atom, score
      L1  H     5    30       P1  7948  0.90
      L1  H    15    46       P1  8028  2.00
      P1  H  6896  6908       L1    24  0.47

> <Gold.PLP.Chemscore.Internal.Correction>
0.0652

> <Gold.Rescore>
     Score         DG    S(hbond)    S(metal)    S(lipo)     H(rot)  DE(clash)    DE(int)     intcor
     18.94     -19.93       2.63        0.00     111.51       2.89       0.01       0.98       ----

> <Gold.Chemscore.Fitness>
18.9377

> <Gold.Chemscore.DG>
-19.9256

> <Gold.Chemscore.ZeroCoef>
-5.4800

> <Gold.Chemscore.Hbond>
2.6346

> <Gold.Chemscore.Metal>
0.0000

> <Gold.Chemscore.Lipo>
111.5122

> <Gold.Chemscore.Internal_Hbond>
0.0000

> <Gold.Chemscore.DEClash>
0.0115

> <Gold.Chemscore.DEInternal>
0.9763

> <Gold.Chemscore.Rot>
2.8910

> <Gold.Chemscore.Internal.Correction>
   9.000000E+99

> <Gold.Chemscore.Hbonds>
donor molecule, donor type, donor heavy atom, donor atom, acceptor molecule, acceptor atom, score
      L1  H     5    30       P1  7948  0.18
      L1  H    15    46       P1  8028  0.98
      P1  H  6896  6908       L1    24  0.16

> <Gold.Chemscore.Hbond.Weighted>
-8.7996

> <Gold.Chemscore.Metal.Weighted>
-0.0000

> <Gold.Chemscore.Lipo.Weighted>
-13.0469

> <Gold.Chemscore.Internal_Hbond.Weighted>
0.0000

> <Gold.Chemscore.DEClash.Weighted>
0.0115

> <Gold.Chemscore.DEInternal.Weighted>
0.9763

> <Gold.Chemscore.Rot.Weighted>
7.4009

> <Gold.Chemscore.Internal.Correction.Weighted>
   9.000000E+99

> <Gold.Protein.RotatedTorsions>
[ 6907 6896 6895 6894 ] final  107.65 input  -60.11 | X-H torsion
[ 7974 7965 7964 7962 ] final  -56.44 input  175.53 | X-H torsion
[ 8008 7997 7996 7995 ] final  -93.60 input   59.86 | X-H torsion
[ 10167 10162 10161 10158 ] final -111.25 input  -65.29 | X-H torsion
[ 10718 10713 10712 10709 ] final   -1.73 input   66.30 | X-H torsion
[ 10763 10752 10751 10750 ] final  163.89 input  -60.55 | X-H torsion
[ 11005 11000 10999 10996 ] final   99.02 input  -57.11 | X-H torsion

> <Gold.Protein.ActiveResidues>
 VAL166  LYS551  ARG553  GLY616  TRP617  ASP618  TYR619  PRO620  LYS621  CYS622 
 ASP623  PHE694  ASN695  SER759  ASP760  ASP761  ALA762  ILE779  LEU786  VAL792 
 PHE793  MET794  SER795  GLU796  ALA797  LYS798  CYS799  TRP800  GLU811  SER814 

> <Gold.Protein.RotatedAtoms>
  152.5146  133.9204  159.7531 H   0  0  0  0  0  0  0  0  0  0  0  0  # atno 6907 bound_to 6896
  150.9577  133.6471  159.2767 H   0  0  0  0  0  0  0  0  0  0  0  0  # atno 6908 bound_to 6896
  151.3727  135.0930  159.9523 H   0  0  0  0  0  0  0  0  0  0  0  0  # atno 6909 bound_to 6896
  145.8626  140.8274  142.9929 H   0  0  0  0  0  0  0  0  0  0  0  0  # atno 7974 bound_to 7965
  154.7377  140.0497  157.0784 H   0  0  0  0  0  0  0  0  0  0  0  0  # atno 8008 bound_to 7997
  155.0218  140.3148  155.4771 H   0  0  0  0  0  0  0  0  0  0  0  0  # atno 8009 bound_to 7997
  156.2857  140.2165  156.5337 H   0  0  0  0  0  0  0  0  0  0  0  0  # atno 8010 bound_to 7997
  140.1356  143.4323  152.1597 H   0  0  0  0  0  0  0  0  0  0  0  0  # atno 10167 bound_to 10162
  156.8013  130.5394  149.5721 H   0  0  0  0  0  0  0  0  0  0  0  0  # atno 10718 bound_to 10713
  154.3005  135.2759  155.2613 H   0  0  0  0  0  0  0  0  0  0  0  0  # atno 10763 bound_to 10752
  154.5052  135.5797  153.6565 H   0  0  0  0  0  0  0  0  0  0  0  0  # atno 10764 bound_to 10752
  152.9901  135.6167  154.3176 H   0  0  0  0  0  0  0  0  0  0  0  0  # atno 10765 bound_to 10752
  139.8771  134.9076  156.4543 H   0  0  0  0  0  0  0  0  0  0  0  0  # atno 11005 bound_to 11000
  144.6726  140.1119  143.7455 LP  0  0  0  0  0  0  0  0  0  0  0  0  # atno 17320 bound_to 7965
  145.9230  139.2558  143.1370 LP  0  0  0  0  0  0  0  0  0  0  0  0  # atno 17321 bound_to 7965
  139.5497  144.7328  151.4472 LP  0  0  0  0  0  0  0  0  0  0  0  0  # atno 17342 bound_to 10162
  140.6791  143.8123  150.7097 LP  0  0  0  0  0  0  0  0  0  0  0  0  # atno 17343 bound_to 10162
  156.1100  130.6033  151.0031 LP  0  0  0  0  0  0  0  0  0  0  0  0  # atno 17370 bound_to 10713
  157.6552  131.0890  150.7962 LP  0  0  0  0  0  0  0  0  0  0  0  0  # atno 17371 bound_to 10713
  140.8909  133.7849  155.9571 LP  0  0  0  0  0  0  0  0  0  0  0  0  # atno 17394 bound_to 11000
  140.8754  134.2676  157.5170 LP  0  0  0  0  0  0  0  0  0  0  0  0  # atno 17395 bound_to 11000

$$$$
