AV-unprocessed.smi:837|AV-procd|sdf|3897|dock1
  -GOLD-   22720 1353D 1   1.00000     0.00000
 Structure written by MMmdl.
 50 52  0  0  0  0  0  0  0  0  2 V2000
  149.4865  141.0094  154.5089 C   0  0  0  0  0  0  0  0  0  0  0  0
  150.4318  141.1060  155.7248 C   0  0  1  0  0  0  0  0  0  0  0  0
  149.7230  141.7881  156.9151 C   0  0  0  0  0  0  0  0  0  0  0  0
  150.6740  141.9835  158.1060 C   0  0  0  0  0  0  0  0  0  0  0  0
  151.3001  140.6540  158.5496 C   0  0  0  0  0  0  0  0  0  0  0  0
  152.0134  139.9563  157.3777 C   0  0  0  0  0  0  0  0  0  0  0  0
  151.1000  139.7573  156.1414 C   0  0  2  0  0  0  0  0  0  0  0  0
  151.8763  139.1964  155.0491 N   0  0  0  0  0  0  0  0  0  0  0  0
  151.4680  137.9756  154.6828 C   0  0  0  0  0  0  0  0  0  0  0  0
  151.9795  137.2928  153.7962 O   0  0  0  0  0  0  0  0  0  0  0  0
  150.4164  137.6347  155.4479 N   0  0  0  0  0  0  0  0  0  0  0  0
  149.7133  136.3490  155.3534 C   0  0  0  0  0  0  0  0  0  0  0  0
  148.2035  136.5123  155.1324 C   0  0  0  0  0  0  0  0  0  0  0  0
  147.5384  137.2628  155.8474 O   0  0  0  0  0  0  0  0  0  0  0  0
  147.6752  135.7960  154.1290 N   0  0  0  0  0  0  0  0  0  0  0  0
  146.2623  135.7752  153.7606 C   0  0  0  0  0  0  0  0  0  0  0  0
  146.0087  136.1849  152.2947 C   0  0  0  0  0  0  0  0  0  0  0  0
  145.4440  135.0658  151.4357 C   0  0  0  0  0  0  0  0  0  0  0  0
  146.1383  133.8427  151.2996 C   0  0  0  0  0  0  0  0  0  0  0  0
  145.5955  132.8255  150.4878 C   0  0  0  0  0  0  0  0  0  0  0  0
  144.3676  133.0518  149.8335 C   0  0  0  0  0  0  0  0  0  0  0  0
  143.7303  134.2329  149.9898 N   0  3  0  0  0  0  0  0  0  0  0  0
  144.2181  135.2331  150.7564 C   0  0  0  0  0  0  0  0  0  0  0  0
  150.1208  138.5968  156.3330 C   0  0  0  0  0  0  0  0  0  0  0  0
  149.2198  138.5723  157.1717 O   0  0  0  0  0  0  0  0  0  0  0  0
  148.6123  140.3942  154.7228 H   0  0  0  0  0  0  0  0  0  0  0  0
  149.9897  140.5859  153.6398 H   0  0  0  0  0  0  0  0  0  0  0  0
  149.1247  141.9966  154.2206 H   0  0  0  0  0  0  0  0  0  0  0  0
  151.2406  141.7730  155.4214 H   0  0  0  0  0  0  0  0  0  0  0  0
  149.3353  142.7594  156.6061 H   0  0  0  0  0  0  0  0  0  0  0  0
  148.8567  141.2049  157.2282 H   0  0  0  0  0  0  0  0  0  0  0  0
  151.4636  142.6836  157.8302 H   0  0  0  0  0  0  0  0  0  0  0  0
  150.1368  142.4372  158.9392 H   0  0  0  0  0  0  0  0  0  0  0  0
  152.0101  140.8334  159.3574 H   0  0  0  0  0  0  0  0  0  0  0  0
  150.5296  140.0043  158.9646 H   0  0  0  0  0  0  0  0  0  0  0  0
  152.8815  140.5516  157.0906 H   0  0  0  0  0  0  0  0  0  0  0  0
  152.4103  138.9983  157.7177 H   0  0  0  0  0  0  0  0  0  0  0  0
  152.6529  139.6852  154.6281 H   0  0  0  0  0  0  0  0  0  0  0  0
  150.1191  135.7485  154.5376 H   0  0  0  0  0  0  0  0  0  0  0  0
  149.8895  135.7713  156.2628 H   0  0  0  0  0  0  0  0  0  0  0  0
  148.2971  135.2160  153.5842 H   0  0  0  0  0  0  0  0  0  0  0  0
  145.8375  134.7901  153.9599 H   0  0  0  0  0  0  0  0  0  0  0  0
  145.7476  136.4714  154.4233 H   0  0  0  0  0  0  0  0  0  0  0  0
  145.3242  137.0334  152.2621 H   0  0  0  0  0  0  0  0  0  0  0  0
  146.9386  136.5378  151.8478 H   0  0  0  0  0  0  0  0  0  0  0  0
  147.0812  133.6868  151.8038 H   0  0  0  0  0  0  0  0  0  0  0  0
  146.1167  131.8869  150.3676 H   0  0  0  0  0  0  0  0  0  0  0  0
  143.8804  132.3297  149.1944 H   0  0  0  0  0  0  0  0  0  0  0  0
  143.6182  136.1306  150.8005 H   0  0  0  0  0  0  0  0  0  0  0  0
  142.8423  134.3757  149.5079 H   0  0  0  0  0  0  0  0  0  0  0  0
  1  2  1  0  0  0  0
  1 26  1  0  0  0  0
  1 27  1  0  0  0  0
  1 28  1  0  0  0  0
  2  7  1  0  0  0  0
  2  3  1  0  0  0  0
  2 29  1  0  0  0  0
  3  4  1  0  0  0  0
  3 30  1  0  0  0  0
  3 31  1  0  0  0  0
  4  5  1  0  0  0  0
  4 32  1  0  0  0  0
  4 33  1  0  0  0  0
  5  6  1  0  0  0  0
  5 34  1  0  0  0  0
  5 35  1  0  0  0  0
  6  7  1  0  0  0  0
  6 36  1  0  0  0  0
  6 37  1  0  0  0  0
  7 24  1  0  0  0  0
  7  8  1  0  0  0  0
  8  9  1  0  0  0  0
  8 38  1  0  0  0  0
  9 10  2  0  0  0  0
  9 11  1  0  0  0  0
 11 12  1  0  0  0  0
 11 24  1  0  0  0  0
 12 13  1  0  0  0  0
 12 39  1  0  0  0  0
 12 40  1  0  0  0  0
 13 14  2  0  0  0  0
 13 15  1  0  0  0  0
 15 16  1  0  0  0  0
 15 41  1  0  0  0  0
 16 17  1  0  0  0  0
 16 42  1  0  0  0  0
 16 43  1  0  0  0  0
 17 18  1  0  0  0  0
 17 44  1  0  0  0  0
 17 45  1  0  0  0  0
 18 23  1  0  0  0  0
 18 19  2  0  0  0  0
 19 20  1  0  0  0  0
 19 46  1  0  0  0  0
 20 21  2  0  0  0  0
 20 47  1  0  0  0  0
 21 22  1  0  0  0  0
 21 48  1  0  0  0  0
 22 23  2  0  0  0  0
 22 50  1  0  0  0  0
 23 49  1  0  0  0  0
 24 25  2  0  0  0  0
M  CHG  1  22   1
M  END
> <s_m_source_file>
AV-unprocessed.smi

> <i_m_source_file_index>
837

> <i_lp_mmshare_version>
43012

> <i_f3d_flags>
0

> <s_epik_input>
W0NIMl0xW0NIMl1bQ0gyXVtDSDJdW0NAQEhdKFtDSDNdKVtDQEBdMTJbTkhdQyg9TylOKEMyPU8pW0NIMl1DKD1PKVtOSF1bQ0gyXVtDSDJdYzNbY0hdW2NIXVtjSF1uW2NIXTM=

> <s_epik_cmdline>
J2VwaWtfcHl0aG9uJywgJy1waCcsICc3LjAnLCAnLXRuJywgJzgnLCAnLW1hJywgJzIwMCcsICctbWV0YWxfYmluZGluZycsICctaW1hZScsICc8aW5maWxlLm1hZT4nLCAnLW9tYWUnLCAnPG91dGZpbGUubWFlPic=

> <r_lp_tautomer_probability>
1

> <r_epik_Ionization_Penalty>
2.28139

> <r_epik_Ionization_Penalty_Charging>
2.28135

> <r_epik_Ionization_Penalty_Neutral>
4.65525e-05

> <r_epik_State_Penalty>
2.43066

> <r_epik_Charging_Adjusted_Penalty>
4.71201

> <i_epik_Tot_Q>
1

> <i_epik_Tot_abs_Q>
1

> <r_epik_Metal_State_Penalty>
2.4646

> <b_epik_Metal_Only>
0

> <s_lp_Force_Field>
OPLS_2005

> <r_lp_Energy>
25.3405

> <b_lp_Chiralities_Consistent>
1

> <s_lp_Variant>
AV-unprocessed.smi:837-6

> <Gold.Version>
5.8.1

> <Gold.Id.Protein>
6NUR|6NUR_protein|mol2

> <Gold.PLP.Fitness>
44.7196

> <Gold.PLP.PLP>
-36.0329

> <Gold.PLP.part.hbond>
-3.0000

> <Gold.PLP.part.metal>
0.0000

> <Gold.PLP.part.buried>
-3.8769

> <Gold.PLP.part.nonpolar>
-31.3961

> <Gold.PLP.part.repulsive>
2.4936

> <Gold.PLP.ligand.clash>
0.0000

> <Gold.PLP.ligand.torsion>
0.4959

> <Gold.PLP.Chemscore.Hbond>
3.2145

> <Gold.PLP.Chemscore.CHOScore>
0.0000

> <Gold.PLP.Chemscore.Metal>
0.0000

> <Gold.Chemscore.Hbonds>
donor molecule, donor type, donor heavy atom, donor atom, acceptor molecule, acceptor atom, score
      L1  H    15    41       P1  7948  0.21
      L1  H    22    50       P1 10186  2.00
      P1  H 10752 10763       L1    10  1.00

> <Gold.PLP.Chemscore.Internal.Correction>
0.0350

> <Gold.Rescore>
     Score         DG    S(hbond)    S(metal)    S(lipo)     H(rot)  DE(clash)    DE(int)     intcor
     11.98     -16.94       1.95        0.00      85.19       1.96       1.49       3.46       ----

> <Gold.Chemscore.Fitness>
11.9848

> <Gold.Chemscore.DG>
-16.9406

> <Gold.Chemscore.ZeroCoef>
-5.4800

> <Gold.Chemscore.Hbond>
1.9522

> <Gold.Chemscore.Metal>
0.0000

> <Gold.Chemscore.Lipo>
85.1931

> <Gold.Chemscore.Internal_Hbond>
0.0000

> <Gold.Chemscore.DEClash>
1.4930

> <Gold.Chemscore.DEInternal>
3.4629

> <Gold.Chemscore.Rot>
1.9638

> <Gold.Chemscore.Internal.Correction>
   9.000000E+99

> <Gold.Chemscore.Hbonds>
donor molecule, donor type, donor heavy atom, donor atom, acceptor molecule, acceptor atom, score
      L1  H    15    41       P1  7948  0.20
      L1  H    22    50       P1 10186  0.94
      P1  H 10752 10763       L1    10  0.97

> <Gold.Chemscore.Hbond.Weighted>
-6.5204

> <Gold.Chemscore.Metal.Weighted>
-0.0000

> <Gold.Chemscore.Lipo.Weighted>
-9.9676

> <Gold.Chemscore.Internal_Hbond.Weighted>
0.0000

> <Gold.Chemscore.DEClash.Weighted>
1.4930

> <Gold.Chemscore.DEInternal.Weighted>
3.4629

> <Gold.Chemscore.Rot.Weighted>
5.0274

> <Gold.Chemscore.Internal.Correction.Weighted>
   9.000000E+99

> <Gold.Protein.RotatedTorsions>
[ 6907 6896 6895 6894 ] final  139.11 input  -60.11 | X-H torsion
[ 7974 7965 7964 7962 ] final  141.33 input  175.53 | X-H torsion
[ 8008 7997 7996 7995 ] final  156.83 input   59.86 | X-H torsion
[ 10167 10162 10161 10158 ] final   60.36 input  -65.29 | X-H torsion
[ 10718 10713 10712 10709 ] final    6.14 input   66.30 | X-H torsion
[ 10763 10752 10751 10750 ] final   23.53 input  -60.55 | X-H torsion
[ 11005 11000 10999 10996 ] final  -44.66 input  -57.11 | X-H torsion

> <Gold.Protein.ActiveResidues>
 VAL166  LYS551  ARG553  GLY616  TRP617  ASP618  TYR619  PRO620  LYS621  CYS622 
 ASP623  PHE694  ASN695  SER759  ASP760  ASP761  ALA762  ILE779  LEU786  VAL792 
 PHE793  MET794  SER795  GLU796  ALA797  LYS798  CYS799  TRP800  GLU811  SER814 

> <Gold.Protein.RotatedAtoms>
  152.2587  133.5278  159.5368 H   0  0  0  0  0  0  0  0  0  0  0  0  # atno 6907 bound_to 6896
  150.7118  134.0859  159.3923 H   0  0  0  0  0  0  0  0  0  0  0  0  # atno 6908 bound_to 6896
  151.8777  135.0465  160.0536 H   0  0  0  0  0  0  0  0  0  0  0  0  # atno 6909 bound_to 6896
  144.9106  139.5298  143.5710 H   0  0  0  0  0  0  0  0  0  0  0  0  # atno 7974 bound_to 7965
  156.2399  140.1901  156.7016 H   0  0  0  0  0  0  0  0  0  0  0  0  # atno 8008 bound_to 7997
  154.6178  140.0613  156.9603 H   0  0  0  0  0  0  0  0  0  0  0  0  # atno 8009 bound_to 7997
  155.1911  140.3284  155.4361 H   0  0  0  0  0  0  0  0  0  0  0  0  # atno 8010 bound_to 7997
  140.1664  144.4319  150.6683 H   0  0  0  0  0  0  0  0  0  0  0  0  # atno 10167 bound_to 10162
  156.9177  130.5779  149.5647 H   0  0  0  0  0  0  0  0  0  0  0  0  # atno 10718 bound_to 10713
  153.0831  135.6625  154.0004 H   0  0  0  0  0  0  0  0  0  0  0  0  # atno 10763 bound_to 10752
  153.9621  135.2973  155.3434 H   0  0  0  0  0  0  0  0  0  0  0  0  # atno 10764 bound_to 10752
  154.7234  135.5154  153.8920 H   0  0  0  0  0  0  0  0  0  0  0  0  # atno 10765 bound_to 10752
  141.0465  133.6759  156.2904 H   0  0  0  0  0  0  0  0  0  0  0  0  # atno 11005 bound_to 11000
  146.3156  139.7909  142.8986 LP  0  0  0  0  0  0  0  0  0  0  0  0  # atno 17320 bound_to 7965
  145.3460  141.0298  143.3365 LP  0  0  0  0  0  0  0  0  0  0  0  0  # atno 17321 bound_to 7965
  140.6610  143.2252  151.5856 LP  0  0  0  0  0  0  0  0  0  0  0  0  # atno 17342 bound_to 10162
  139.5357  144.2787  152.1247 LP  0  0  0  0  0  0  0  0  0  0  0  0  # atno 17343 bound_to 10162
  156.0506  130.5575  150.8979 LP  0  0  0  0  0  0  0  0  0  0  0  0  # atno 17370 bound_to 10713
  157.5927  131.0944  150.9092 LP  0  0  0  0  0  0  0  0  0  0  0  0  # atno 17371 bound_to 10713
  140.6137  134.5433  157.5537 LP  0  0  0  0  0  0  0  0  0  0  0  0  # atno 17394 bound_to 11000
  139.9316  134.7953  156.0916 LP  0  0  0  0  0  0  0  0  0  0  0  0  # atno 17395 bound_to 11000

$$$$
