AV-unprocessed.smi:2108|AV-procd|sdf|8605|dock9
  -GOLD-   2272011343D 1   1.00000     0.00000
 Structure written by MMmdl.
 34 35  0  0  0  0  0  0  0  0  2 V2000
  150.7716  140.4136  155.0086 O   0  0  0  0  0  0  0  0  0  0  0  0
  151.7460  139.9527  156.0113 S   0  0  0  0  0  0  0  0  0  0  0  0
  153.0856  139.5660  155.5387 O   0  0  0  0  0  0  0  0  0  0  0  0
  151.7608  140.8786  157.3414 N   0  5  0  0  0  0  0  0  0  0  0  0
  152.1496  140.2828  158.6073 C   0  0  0  0  0  0  0  0  0  0  0  0
  153.2391  141.1458  159.2794 C   0  0  0  0  0  0  0  0  0  0  0  0
  152.7679  142.5365  159.6927 C   0  0  0  0  0  0  0  0  0  0  0  0
  152.4619  143.5129  158.7168 C   0  0  0  0  0  0  0  0  0  0  0  0
  152.0225  144.7805  159.1445 C   0  0  0  0  0  0  0  0  0  0  0  0
  151.8989  145.0259  160.5253 C   0  0  0  0  0  0  0  0  0  0  0  0
  152.2210  143.9875  161.4211 C   0  0  0  0  0  0  0  0  0  0  0  0
  152.6425  142.7686  161.0225 N   0  0  0  0  0  0  0  0  0  0  0  0
  151.0687  138.5276  156.7378 N   0  0  0  0  0  0  0  0  0  0  0  0
  151.0717  137.2830  155.9421 C   0  0  0  0  0  0  0  0  0  0  0  0
  150.6669  136.0738  156.7999 C   0  0  0  0  0  0  0  0  0  0  0  0
  149.4181  136.3162  157.4290 O   0  0  0  0  0  0  0  0  0  0  0  0
  149.4926  137.4256  158.3105 C   0  0  0  0  0  0  0  0  0  0  0  0
  149.8384  138.7031  157.5285 C   0  0  0  0  0  0  0  0  0  0  0  0
  151.2990  140.1952  159.2839 H   0  0  0  0  0  0  0  0  0  0  0  0
  152.5304  139.2700  158.4709 H   0  0  0  0  0  0  0  0  0  0  0  0
  153.6225  140.6330  160.1629 H   0  0  0  0  0  0  0  0  0  0  0  0
  154.0895  141.2559  158.6044 H   0  0  0  0  0  0  0  0  0  0  0  0
  152.5668  143.2955  157.6638 H   0  0  0  0  0  0  0  0  0  0  0  0
  151.7840  145.5508  158.4262 H   0  0  0  0  0  0  0  0  0  0  0  0
  151.5642  145.9861  160.8892 H   0  0  0  0  0  0  0  0  0  0  0  0
  152.1360  144.1395  162.4868 H   0  0  0  0  0  0  0  0  0  0  0  0
  150.3775  137.3977  155.1088 H   0  0  0  0  0  0  0  0  0  0  0  0
  152.0566  137.1071  155.5107 H   0  0  0  0  0  0  0  0  0  0  0  0
  150.5787  135.1856  156.1741 H   0  0  0  0  0  0  0  0  0  0  0  0
  151.4307  135.8579  157.5487 H   0  0  0  0  0  0  0  0  0  0  0  0
  148.5313  137.5437  158.8106 H   0  0  0  0  0  0  0  0  0  0  0  0
  150.2327  137.2365  159.0898 H   0  0  0  0  0  0  0  0  0  0  0  0
  149.9591  139.5320  158.2255 H   0  0  0  0  0  0  0  0  0  0  0  0
  149.0221  138.9659  156.8547 H   0  0  0  0  0  0  0  0  0  0  0  0
  1  2  2  0  0  0  0
  2  3  2  0  0  0  0
  2  4  1  0  0  0  0
  2 13  1  0  0  0  0
  4  5  1  0  0  0  0
  5  6  1  0  0  0  0
  5 19  1  0  0  0  0
  5 20  1  0  0  0  0
  6  7  1  0  0  0  0
  6 21  1  0  0  0  0
  6 22  1  0  0  0  0
  7 12  1  0  0  0  0
  7  8  2  0  0  0  0
  8  9  1  0  0  0  0
  8 23  1  0  0  0  0
  9 10  2  0  0  0  0
  9 24  1  0  0  0  0
 10 11  1  0  0  0  0
 10 25  1  0  0  0  0
 11 12  2  0  0  0  0
 11 26  1  0  0  0  0
 13 18  1  0  0  0  0
 13 14  1  0  0  0  0
 14 15  1  0  0  0  0
 14 27  1  0  0  0  0
 14 28  1  0  0  0  0
 15 16  1  0  0  0  0
 15 29  1  0  0  0  0
 15 30  1  0  0  0  0
 16 17  1  0  0  0  0
 17 18  1  0  0  0  0
 17 31  1  0  0  0  0
 17 32  1  0  0  0  0
 18 33  1  0  0  0  0
 18 34  1  0  0  0  0
M  CHG  1   4  -1
M  END
> <s_m_source_file>
AV-unprocessed.smi

> <i_m_source_file_index>
2108

> <i_lp_mmshare_version>
43012

> <i_f3d_flags>
0

> <s_epik_input>
W0NIMl0xW0NIMl1PW0NIMl1bQ0gyXU4xUyg9TykoPU8pW05IXVtDSDJdW0NIMl1jMltjSF1bY0hdW2NIXVtjSF1uMg==

> <s_epik_cmdline>
J2VwaWtfcHl0aG9uJywgJy1waCcsICc3LjAnLCAnLXRuJywgJzgnLCAnLW1hJywgJzIwMCcsICctbWV0YWxfYmluZGluZycsICctaW1hZScsICc8aW5maWxlLm1hZT4nLCAnLW9tYWUnLCAnPG91dGZpbGUubWFlPic=

> <r_epik_Ionization_Penalty>
1.27779

> <r_epik_Ionization_Penalty_Charging>
1.20871

> <r_epik_Ionization_Penalty_Neutral>
0.0690773

> <r_epik_State_Penalty>
1.64557

> <r_epik_Charging_Adjusted_Penalty>
2.85428

> <i_epik_Tot_Q>
-1

> <i_epik_Tot_abs_Q>
1

> <r_epik_Metal_State_Penalty>
0.643506

> <b_epik_Metal_Only>
0

> <s_lp_Force_Field>
OPLS_2005

> <r_lp_Energy>
7.47044

> <b_lp_Chiralities_Consistent>
1

> <s_lp_Variant>
AV-unprocessed.smi:2108-2

> <Gold.Version>
5.8.1

> <Gold.Id.Protein>
6NUR|6NUR_protein|mol2

> <Gold.PLP.Fitness>
42.0350

> <Gold.PLP.PLP>
-36.5079

> <Gold.PLP.part.hbond>
-2.0000

> <Gold.PLP.part.metal>
0.0000

> <Gold.PLP.part.buried>
-6.5813

> <Gold.PLP.part.nonpolar>
-27.9170

> <Gold.PLP.part.repulsive>
0.1035

> <Gold.PLP.ligand.clash>
0.0000

> <Gold.PLP.ligand.torsion>
0.9975

> <Gold.PLP.Chemscore.Hbond>
2.0000

> <Gold.PLP.Chemscore.CHOScore>
0.0000

> <Gold.PLP.Chemscore.Metal>
0.0000

> <Gold.Chemscore.Hbonds>
donor molecule, donor type, donor heavy atom, donor atom, acceptor molecule, acceptor atom, score
      P1  H  7989  7998       L1     1  1.00
      P1  H  7997  8008       L1     3  1.00

> <Gold.PLP.Chemscore.Internal.Correction>
1.5221

> <Gold.Rescore>
     Score         DG    S(hbond)    S(metal)    S(lipo)     H(rot)  DE(clash)    DE(int)     intcor
     17.35     -18.41       1.94        0.00      89.31       1.56       0.01       1.05       ----

> <Gold.Chemscore.Fitness>
17.3507

> <Gold.Chemscore.DG>
-18.4115

> <Gold.Chemscore.ZeroCoef>
-5.4800

> <Gold.Chemscore.Hbond>
1.9412

> <Gold.Chemscore.Metal>
0.0000

> <Gold.Chemscore.Lipo>
89.3087

> <Gold.Chemscore.Internal_Hbond>
0.0000

> <Gold.Chemscore.DEClash>
0.0060

> <Gold.Chemscore.DEInternal>
1.0549

> <Gold.Chemscore.Rot>
1.5630

> <Gold.Chemscore.Internal.Correction>
   9.000000E+99

> <Gold.Chemscore.Hbonds>
donor molecule, donor type, donor heavy atom, donor atom, acceptor molecule, acceptor atom, score
      P1  H  7989  7998       L1     1  0.73
      P1  H  7997  8008       L1     3  0.92

> <Gold.Chemscore.Hbond.Weighted>
-6.4837

> <Gold.Chemscore.Metal.Weighted>
-0.0000

> <Gold.Chemscore.Lipo.Weighted>
-10.4491

> <Gold.Chemscore.Internal_Hbond.Weighted>
0.0000

> <Gold.Chemscore.DEClash.Weighted>
0.0060

> <Gold.Chemscore.DEInternal.Weighted>
1.0549

> <Gold.Chemscore.Rot.Weighted>
4.0013

> <Gold.Chemscore.Internal.Correction.Weighted>
   9.000000E+99

> <Gold.Protein.RotatedTorsions>
[ 6907 6896 6895 6894 ] final  136.67 input  -60.11 | X-H torsion
[ 7974 7965 7964 7962 ] final -101.47 input  175.53 | X-H torsion
[ 8008 7997 7996 7995 ] final  -35.52 input   59.86 | X-H torsion
[ 10167 10162 10161 10158 ] final  -63.41 input  -65.29 | X-H torsion
[ 10718 10713 10712 10709 ] final   66.84 input   66.30 | X-H torsion
[ 10763 10752 10751 10750 ] final  -88.51 input  -60.55 | X-H torsion
[ 11005 11000 10999 10996 ] final  -12.32 input  -57.11 | X-H torsion

> <Gold.Protein.ActiveResidues>
 VAL166  LYS551  ARG553  GLY616  TRP617  ASP618  TYR619  PRO620  LYS621  CYS622 
 ASP623  PHE694  ASN695  SER759  ASP760  ASP761  ALA762  ILE779  LEU786  VAL792 
 PHE793  MET794  SER795  GLU796  ALA797  LYS798  CYS799  TRP800  GLU811  SER814 

> <Gold.Protein.RotatedAtoms>
  152.2868  133.5522  159.5531 H   0  0  0  0  0  0  0  0  0  0  0  0  # atno 6907 bound_to 6896
  150.7218  134.0486  159.3799 H   0  0  0  0  0  0  0  0  0  0  0  0  # atno 6908 bound_to 6896
  151.8394  135.0595  160.0497 H   0  0  0  0  0  0  0  0  0  0  0  0  # atno 6909 bound_to 6896
  145.2811  140.9327  143.2931 H   0  0  0  0  0  0  0  0  0  0  0  0  # atno 7974 bound_to 7965
  154.4093  140.1655  156.2226 H   0  0  0  0  0  0  0  0  0  0  0  0  # atno 8008 bound_to 7997
  155.9351  140.3412  155.6258 H   0  0  0  0  0  0  0  0  0  0  0  0  # atno 8009 bound_to 7997
  155.7059  140.0750  157.2382 H   0  0  0  0  0  0  0  0  0  0  0  0  # atno 8010 bound_to 7997
  140.5873  143.2336  151.6216 H   0  0  0  0  0  0  0  0  0  0  0  0  # atno 10167 bound_to 10162
  157.6194  130.9289  150.0163 H   0  0  0  0  0  0  0  0  0  0  0  0  # atno 10718 bound_to 10713
  154.6453  135.5374  153.7838 H   0  0  0  0  0  0  0  0  0  0  0  0  # atno 10763 bound_to 10752
  153.0356  135.6469  154.1098 H   0  0  0  0  0  0  0  0  0  0  0  0  # atno 10764 bound_to 10752
  154.1019  135.2932  155.3229 H   0  0  0  0  0  0  0  0  0  0  0  0  # atno 10765 bound_to 10752
  140.7644  133.8488  155.9153 H   0  0  0  0  0  0  0  0  0  0  0  0  # atno 11005 bound_to 11000
  144.9252  139.4364  143.6522 LP  0  0  0  0  0  0  0  0  0  0  0  0  # atno 17320 bound_to 7965
  146.3216  139.8134  142.8941 LP  0  0  0  0  0  0  0  0  0  0  0  0  # atno 17321 bound_to 7965
  139.5205  144.3220  152.0902 LP  0  0  0  0  0  0  0  0  0  0  0  0  # atno 17342 bound_to 10162
  140.2379  144.4300  150.6272 LP  0  0  0  0  0  0  0  0  0  0  0  0  # atno 17343 bound_to 10162
  156.1332  130.3643  149.9699 LP  0  0  0  0  0  0  0  0  0  0  0  0  # atno 17370 bound_to 10713
  156.7756  130.9202  151.3645 LP  0  0  0  0  0  0  0  0  0  0  0  0  # atno 17371 bound_to 10713
  140.9632  134.1628  157.4637 LP  0  0  0  0  0  0  0  0  0  0  0  0  # atno 17394 bound_to 11000
  139.8765  134.9952  156.5733 LP  0  0  0  0  0  0  0  0  0  0  0  0  # atno 17395 bound_to 11000

$$$$
