AV-unprocessed.smi:1829|AV-procd|sdf|7431|dock6
  -GOLD-   22720 9113D 1   1.00000     0.00000
 Structure written by MMmdl.
 46 48  0  0  0  0  0  0  0  0  2 V2000
  144.7330  144.3556  154.1391 C   0  0  0  0  0  0  0  0  0  0  0  0
  144.6534  143.1327  155.0658 C   0  0  0  0  0  0  0  0  0  0  0  0
  143.9502  143.4682  156.3908 C   0  0  0  0  0  0  0  0  0  0  0  0
  146.0283  142.5176  155.2932 C   0  0  0  0  0  0  0  0  0  0  0  0
  146.8417  142.1780  154.1913 C   0  0  0  0  0  0  0  0  0  0  0  0
  148.1211  141.6257  154.3941 C   0  0  0  0  0  0  0  0  0  0  0  0
  148.6016  141.4036  155.7029 C   0  0  0  0  0  0  0  0  0  0  0  0
  150.0018  140.8538  155.9397 C   0  0  1  0  0  0  0  0  0  0  0  0
  150.4980  140.1372  154.8281 O   0  0  0  0  0  0  0  0  0  0  0  0
  151.0178  141.9582  156.2986 C   0  0  0  0  0  0  0  0  0  0  0  0
  151.6219  141.7614  157.6270 N   0  0  0  0  0  0  0  0  0  0  0  0
  152.0938  140.6241  158.2152 C   0  0  0  0  0  0  0  0  0  0  0  0
  152.1292  139.2527  157.6255 C   0  0  0  0  0  0  0  0  0  0  0  0
  153.0459  139.1540  156.5586 O   0  0  0  0  0  0  0  0  0  0  0  0
  152.5417  140.9665  159.4556 N   0  3  0  0  0  0  0  0  0  0  0  0
  152.3536  142.3326  159.6664 C   0  0  0  0  0  0  0  0  0  0  0  0
  152.6443  143.1316  160.7678 C   0  0  0  0  0  0  0  0  0  0  0  0
  152.3179  144.4994  160.6614 C   0  0  0  0  0  0  0  0  0  0  0  0
  151.7298  145.0245  159.4928 C   0  0  0  0  0  0  0  0  0  0  0  0
  151.4459  144.2056  158.3806 C   0  0  0  0  0  0  0  0  0  0  0  0
  151.7669  142.8525  158.4942 C   0  0  0  0  0  0  0  0  0  0  0  0
  147.7843  141.7334  156.8045 C   0  0  0  0  0  0  0  0  0  0  0  0
  146.5077  142.2902  156.6015 C   0  0  0  0  0  0  0  0  0  0  0  0
  145.1842  144.0925  153.1818 H   0  0  0  0  0  0  0  0  0  0  0  0
  145.3283  145.1562  154.5793 H   0  0  0  0  0  0  0  0  0  0  0  0
  143.7398  144.7569  153.9348 H   0  0  0  0  0  0  0  0  0  0  0  0
  144.0379  142.3875  154.5599 H   0  0  0  0  0  0  0  0  0  0  0  0
  143.8543  142.5812  157.0178 H   0  0  0  0  0  0  0  0  0  0  0  0
  142.9460  143.8545  156.2139 H   0  0  0  0  0  0  0  0  0  0  0  0
  144.4956  144.2217  156.9596 H   0  0  0  0  0  0  0  0  0  0  0  0
  146.4917  142.3468  153.1835 H   0  0  0  0  0  0  0  0  0  0  0  0
  148.7357  141.3866  153.5386 H   0  0  0  0  0  0  0  0  0  0  0  0
  149.9510  140.1373  156.7606 H   0  0  0  0  0  0  0  0  0  0  0  0
  150.8424  139.3112  155.1313 H   0  0  0  0  0  0  0  0  0  0  0  0
  151.8374  141.9572  155.5787 H   0  0  0  0  0  0  0  0  0  0  0  0
  150.5695  142.9502  156.2414 H   0  0  0  0  0  0  0  0  0  0  0  0
  152.4041  138.5346  158.3985 H   0  0  0  0  0  0  0  0  0  0  0  0
  151.1372  138.9747  157.2700 H   0  0  0  0  0  0  0  0  0  0  0  0
  152.6973  138.5539  155.9169 H   0  0  0  0  0  0  0  0  0  0  0  0
  153.0947  142.7312  161.6643 H   0  0  0  0  0  0  0  0  0  0  0  0
  152.5224  145.1587  161.4927 H   0  0  0  0  0  0  0  0  0  0  0  0
  151.4904  146.0770  159.4478 H   0  0  0  0  0  0  0  0  0  0  0  0
  150.9918  144.6219  157.4941 H   0  0  0  0  0  0  0  0  0  0  0  0
  148.1421  141.5773  157.8117 H   0  0  0  0  0  0  0  0  0  0  0  0
  145.9007  142.5481  157.4568 H   0  0  0  0  0  0  0  0  0  0  0  0
  152.9490  140.3090  160.1080 H   0  0  0  0  0  0  0  0  0  0  0  0
  1  2  1  0  0  0  0
  1 24  1  0  0  0  0
  1 25  1  0  0  0  0
  1 26  1  0  0  0  0
  2  3  1  0  0  0  0
  2  4  1  0  0  0  0
  2 27  1  0  0  0  0
  3 28  1  0  0  0  0
  3 29  1  0  0  0  0
  3 30  1  0  0  0  0
  4 23  1  0  0  0  0
  4  5  2  0  0  0  0
  5  6  1  0  0  0  0
  5 31  1  0  0  0  0
  6  7  2  0  0  0  0
  6 32  1  0  0  0  0
  7  8  1  0  0  0  0
  7 22  1  0  0  0  0
  8  9  1  0  0  0  0
  8 10  1  0  0  0  0
  8 33  1  0  0  0  0
  9 34  1  0  0  0  0
 10 11  1  0  0  0  0
 10 35  1  0  0  0  0
 10 36  1  0  0  0  0
 11 21  1  0  0  0  0
 11 12  1  0  0  0  0
 12 13  1  0  0  0  0
 12 15  2  0  0  0  0
 13 14  1  0  0  0  0
 13 37  1  0  0  0  0
 13 38  1  0  0  0  0
 14 39  1  0  0  0  0
 15 16  1  0  0  0  0
 15 46  1  0  0  0  0
 16 21  2  0  0  0  0
 16 17  1  0  0  0  0
 17 18  2  0  0  0  0
 17 40  1  0  0  0  0
 18 19  1  0  0  0  0
 18 41  1  0  0  0  0
 19 20  2  0  0  0  0
 19 42  1  0  0  0  0
 20 21  1  0  0  0  0
 20 43  1  0  0  0  0
 22 23  2  0  0  0  0
 22 44  1  0  0  0  0
 23 45  1  0  0  0  0
M  CHG  1  15   1
M  END
> <s_m_source_file>
AV-unprocessed.smi

> <i_m_source_file_index>
1829

> <i_lp_mmshare_version>
43012

> <i_f3d_flags>
0

> <s_epik_input>
W0NIM11bQ0hdKFtDSDNdKWMxW2NIXVtjSF1jKFtjSF1bY0hdMSlbQ0BIXShbT0hdKVtDSDJdbihjKG4yKVtDSDJdW09IXSljKGMyMylbY0hdW2NIXVtjSF1bY0hdMw==

> <s_epik_cmdline>
J2VwaWtfcHl0aG9uJywgJy1waCcsICc3LjAnLCAnLXRuJywgJzgnLCAnLW1hJywgJzIwMCcsICctbWV0YWxfYmluZGluZycsICctaW1hZScsICc8aW5maWxlLm1hZT4nLCAnLW9tYWUnLCAnPG91dGZpbGUubWFlPic=

> <r_epik_Ionization_Penalty>
1.35642

> <r_epik_Ionization_Penalty_Charging>
1.35557

> <r_epik_Ionization_Penalty_Neutral>
0.000856322

> <r_epik_State_Penalty>
1.43401

> <r_epik_Charging_Adjusted_Penalty>
2.78958

> <i_epik_Tot_Q>
1

> <i_epik_Tot_abs_Q>
1

> <r_epik_Metal_State_Penalty>
5.47166

> <b_epik_Metal_Only>
0

> <s_lp_Force_Field>
OPLS_2005

> <r_lp_Energy>
15.3906

> <b_lp_Chiralities_Consistent>
1

> <s_lp_Variant>
AV-unprocessed.smi:1829-4

> <Gold.Version>
5.8.1

> <Gold.Id.Protein>
6NUR|6NUR_protein|mol2

> <Gold.PLP.Fitness>
55.2634

> <Gold.PLP.PLP>
-52.5331

> <Gold.PLP.part.hbond>
-2.0000

> <Gold.PLP.part.metal>
0.0000

> <Gold.PLP.part.buried>
-6.5578

> <Gold.PLP.part.nonpolar>
-42.9522

> <Gold.PLP.part.repulsive>
0.1331

> <Gold.PLP.ligand.clash>
0.0000

> <Gold.PLP.ligand.torsion>
1.6795

> <Gold.PLP.Chemscore.Hbond>
2.0000

> <Gold.PLP.Chemscore.CHOScore>
0.0000

> <Gold.PLP.Chemscore.Metal>
0.0000

> <Gold.Chemscore.Hbonds>
donor molecule, donor type, donor heavy atom, donor atom, acceptor molecule, acceptor atom, score
      P1  H  7989  7998       L1     9  1.00
      P1  H  7997  8009       L1    14  1.00

> <Gold.PLP.Chemscore.Internal.Correction>
0.0893

> <Gold.Rescore>
     Score         DG    S(hbond)    S(metal)    S(lipo)     H(rot)  DE(clash)    DE(int)     intcor
     19.09     -21.28       1.96        0.00     139.35       2.75       0.55       1.64       ----

> <Gold.Chemscore.Fitness>
19.0896

> <Gold.Chemscore.DG>
-21.2760

> <Gold.Chemscore.ZeroCoef>
-5.4800

> <Gold.Chemscore.Hbond>
1.9596

> <Gold.Chemscore.Metal>
0.0000

> <Gold.Chemscore.Lipo>
139.3481

> <Gold.Chemscore.Internal_Hbond>
0.0000

> <Gold.Chemscore.DEClash>
0.5493

> <Gold.Chemscore.DEInternal>
1.6371

> <Gold.Chemscore.Rot>
2.7550

> <Gold.Chemscore.Internal.Correction>
   9.000000E+99

> <Gold.Chemscore.Hbonds>
donor molecule, donor type, donor heavy atom, donor atom, acceptor molecule, acceptor atom, score
      P1  H  7989  7998       L1     9  0.78
      P1  H  7997  8009       L1    14  0.98

> <Gold.Chemscore.Hbond.Weighted>
-6.5450

> <Gold.Chemscore.Metal.Weighted>
-0.0000

> <Gold.Chemscore.Lipo.Weighted>
-16.3037

> <Gold.Chemscore.Internal_Hbond.Weighted>
0.0000

> <Gold.Chemscore.DEClash.Weighted>
0.5493

> <Gold.Chemscore.DEInternal.Weighted>
1.6371

> <Gold.Chemscore.Rot.Weighted>
7.0527

> <Gold.Chemscore.Internal.Correction.Weighted>
   9.000000E+99

> <Gold.Protein.RotatedTorsions>
[ 6907 6896 6895 6894 ] final   93.02 input  -60.11 | X-H torsion
[ 7974 7965 7964 7962 ] final   41.86 input  175.53 | X-H torsion
[ 8008 7997 7996 7995 ] final -164.21 input   59.86 | X-H torsion
[ 10167 10162 10161 10158 ] final    1.20 input  -65.29 | X-H torsion
[ 10718 10713 10712 10709 ] final  101.96 input   66.30 | X-H torsion
[ 10763 10752 10751 10750 ] final  165.17 input  -60.55 | X-H torsion
[ 11005 11000 10999 10996 ] final   97.82 input  -57.11 | X-H torsion

> <Gold.Protein.ActiveResidues>
 VAL166  LYS551  ARG553  GLY616  TRP617  ASP618  TYR619  PRO620  LYS621  CYS622 
 ASP623  PHE694  ASN695  SER759  ASP760  ASP761  ALA762  ILE779  LEU786  VAL792 
 PHE793  MET794  SER795  GLU796  ALA797  LYS798  CYS799  TRP800  GLU811  SER814 

> <Gold.Protein.RotatedAtoms>
  152.5453  134.1413  159.8479 H   0  0  0  0  0  0  0  0  0  0  0  0  # atno 6907 bound_to 6896
  151.1449  133.4939  159.2603 H   0  0  0  0  0  0  0  0  0  0  0  0  # atno 6908 bound_to 6896
  151.1534  135.0249  159.8733 H   0  0  0  0  0  0  0  0  0  0  0  0  # atno 6909 bound_to 6896
  146.0789  139.5367  142.9550 H   0  0  0  0  0  0  0  0  0  0  0  0  # atno 7974 bound_to 7965
  155.8323  140.0935  157.1785 H   0  0  0  0  0  0  0  0  0  0  0  0  # atno 8008 bound_to 7997
  154.3980  140.1416  156.3690 H   0  0  0  0  0  0  0  0  0  0  0  0  # atno 8009 bound_to 7997
  155.8153  140.3448  155.5484 H   0  0  0  0  0  0  0  0  0  0  0  0  # atno 8010 bound_to 7997
  140.6694  143.7091  150.7891 H   0  0  0  0  0  0  0  0  0  0  0  0  # atno 10167 bound_to 10162
  157.6815  131.0740  150.5331 H   0  0  0  0  0  0  0  0  0  0  0  0  # atno 10718 bound_to 10713
  154.3200  135.2756  155.2524 H   0  0  0  0  0  0  0  0  0  0  0  0  # atno 10763 bound_to 10752
  154.4882  135.5840  153.6443 H   0  0  0  0  0  0  0  0  0  0  0  0  # atno 10764 bound_to 10752
  152.9878  135.6128  154.3384 H   0  0  0  0  0  0  0  0  0  0  0  0  # atno 10765 bound_to 10752
  139.8774  134.9019  156.4364 H   0  0  0  0  0  0  0  0  0  0  0  0  # atno 11005 bound_to 11000
  145.6255  141.0314  143.1891 LP  0  0  0  0  0  0  0  0  0  0  0  0  # atno 17320 bound_to 7965
  144.7280  139.7815  143.7358 LP  0  0  0  0  0  0  0  0  0  0  0  0  # atno 17321 bound_to 7965
  140.0774  143.5002  152.2548 LP  0  0  0  0  0  0  0  0  0  0  0  0  # atno 17342 bound_to 10162
  139.5955  144.7565  151.3296 LP  0  0  0  0  0  0  0  0  0  0  0  0  # atno 17343 bound_to 10162
  156.5640  130.4263  149.6049 LP  0  0  0  0  0  0  0  0  0  0  0  0  # atno 17370 bound_to 10713
  156.2797  130.7063  151.1884 LP  0  0  0  0  0  0  0  0  0  0  0  0  # atno 17371 bound_to 10713
  140.9030  133.7766  155.9702 LP  0  0  0  0  0  0  0  0  0  0  0  0  # atno 17394 bound_to 11000
  140.8630  134.2818  157.5226 LP  0  0  0  0  0  0  0  0  0  0  0  0  # atno 17395 bound_to 11000

$$$$
