AV-unprocessed.smi:662|AV-procd|sdf|3244|dock4
  -GOLD-   22720 0193D 1   1.00000     0.00000
 Structure written by MMmdl.
 34 35  0  0  0  0  0  0  0  0  2 V2000
  143.9816  135.8702  152.0708 O   0  0  0  0  0  0  0  0  0  0  0  0
  145.1662  135.7234  151.7672 C   0  0  0  0  0  0  0  0  0  0  0  0
  146.1205  136.6153  152.0754 N   0  0  0  0  0  0  0  0  0  0  0  0
  145.8937  137.8617  152.7979 C   0  0  0  0  0  0  0  0  0  0  0  0
  146.7193  139.0154  152.2063 C   0  0  0  0  0  0  0  0  0  0  0  0
  147.4281  139.8034  153.2558 C   0  0  0  0  0  0  0  0  0  0  0  0
  148.3486  139.2805  154.0696 N   0  0  0  0  0  0  0  0  0  0  0  0
  148.8472  140.2078  154.9911 C   0  0  0  0  0  0  0  0  0  0  0  0
  149.9016  139.7883  155.9744 C   0  0  0  0  0  0  0  0  0  0  0  0
  150.3846  140.8306  156.6510 F   0  0  0  0  0  0  0  0  0  0  0  0
  149.4128  138.9245  156.8638 F   0  0  0  0  0  0  0  0  0  0  0  0
  150.9267  139.2007  155.3581 F   0  0  0  0  0  0  0  0  0  0  0  0
  148.2704  141.4489  154.8683 C   0  0  0  0  0  0  0  0  0  0  0  0
  147.0840  141.4950  153.5933 S   0  0  0  0  0  0  0  0  0  0  0  0
  145.6243  134.4687  151.0150 C   0  0  1  0  0  0  0  0  0  0  0  0
  145.3082  133.1973  151.8140 C   0  0  0  0  0  0  0  0  0  0  0  0
  145.1802  132.1307  150.7367 C   0  0  0  0  0  0  0  0  0  0  0  0
  144.5768  132.8840  149.5500 C   0  0  0  0  0  0  0  0  0  0  0  0
  144.9151  134.3119  149.7262 N   0  3  0  0  0  0  0  0  0  0  0  0
  147.0705  136.4180  151.7945 H   0  0  0  0  0  0  0  0  0  0  0  0
  144.8309  138.0995  152.7430 H   0  0  0  0  0  0  0  0  0  0  0  0
  146.1262  137.7280  153.8560 H   0  0  0  0  0  0  0  0  0  0  0  0
  147.4601  138.6320  151.5029 H   0  0  0  0  0  0  0  0  0  0  0  0
  146.0741  139.6894  151.6418 H   0  0  0  0  0  0  0  0  0  0  0  0
  148.4703  142.3355  155.4516 H   0  0  0  0  0  0  0  0  0  0  0  0
  146.6937  134.5227  150.8045 H   0  0  0  0  0  0  0  0  0  0  0  0
  146.0794  132.9579  152.5471 H   0  0  0  0  0  0  0  0  0  0  0  0
  144.3591  133.2905  152.3456 H   0  0  0  0  0  0  0  0  0  0  0  0
  146.1715  131.7604  150.4711 H   0  0  0  0  0  0  0  0  0  0  0  0
  144.5775  131.2777  151.0500 H   0  0  0  0  0  0  0  0  0  0  0  0
  144.9469  132.5060  148.5965 H   0  0  0  0  0  0  0  0  0  0  0  0
  143.4906  132.7874  149.5498 H   0  0  0  0  0  0  0  0  0  0  0  0
  144.0585  134.8470  149.7630 H   0  0  0  0  0  0  0  0  0  0  0  0
  145.4956  134.6444  148.9698 H   0  0  0  0  0  0  0  0  0  0  0  0
  1  2  2  0  0  0  0
  2  3  1  0  0  0  0
  2 15  1  0  0  0  0
  3  4  1  0  0  0  0
  3 20  1  0  0  0  0
  4  5  1  0  0  0  0
  4 21  1  0  0  0  0
  4 22  1  0  0  0  0
  5  6  1  0  0  0  0
  5 23  1  0  0  0  0
  5 24  1  0  0  0  0
  6 14  1  0  0  0  0
  6  7  2  0  0  0  0
  7  8  1  0  0  0  0
  8  9  1  0  0  0  0
  8 13  2  0  0  0  0
  9 10  1  0  0  0  0
  9 11  1  0  0  0  0
  9 12  1  0  0  0  0
 13 14  1  0  0  0  0
 13 25  1  0  0  0  0
 15 19  1  0  0  0  0
 15 16  1  0  0  0  0
 15 26  1  0  0  0  0
 16 17  1  0  0  0  0
 16 27  1  0  0  0  0
 16 28  1  0  0  0  0
 17 18  1  0  0  0  0
 17 29  1  0  0  0  0
 17 30  1  0  0  0  0
 18 19  1  0  0  0  0
 18 31  1  0  0  0  0
 18 32  1  0  0  0  0
 19 33  1  0  0  0  0
 19 34  1  0  0  0  0
M  CHG  1  19   1
M  END
> <s_m_source_file>
AV-unprocessed.smi

> <i_m_source_file_index>
662

> <i_lp_mmshare_version>
43012

> <i_f3d_flags>
0

> <s_epik_input>
W05IXTFbQ0gyXVtDSDJdW0NIMl1bQ0BIXTFDKD1PKVtOSF1bQ0gyXVtDSDJdYzJuYyhDKEYpKEYpRilbY0hdczI=

> <s_epik_cmdline>
J2VwaWtfcHl0aG9uJywgJy1waCcsICc3LjAnLCAnLXRuJywgJzgnLCAnLW1hJywgJzIwMCcsICctbWV0YWxfYmluZGluZycsICctaW1hZScsICc8aW5maWxlLm1hZT4nLCAnLW9tYWUnLCAnPG91dGZpbGUubWFlPic=

> <r_epik_Ionization_Penalty>
0.0382401

> <r_epik_Ionization_Penalty_Charging>
0.0382382

> <r_epik_Ionization_Penalty_Neutral>
1.85239e-06

> <r_epik_State_Penalty>
0.0320549

> <r_epik_Charging_Adjusted_Penalty>
0.0702931

> <i_epik_Tot_Q>
1

> <i_epik_Tot_abs_Q>
1

> <r_epik_Metal_State_Penalty>
0.0320549

> <b_epik_Metal_Only>
0

> <s_lp_Force_Field>
OPLS_2005

> <r_lp_Energy>
5.09297

> <b_lp_Chiralities_Consistent>
1

> <s_lp_Variant>
AV-unprocessed.smi:662-2

> <Gold.Version>
5.8.1

> <Gold.Id.Protein>
6NUR|6NUR_protein|mol2

> <Gold.PLP.Fitness>
44.7872

> <Gold.PLP.PLP>
-37.1581

> <Gold.PLP.part.hbond>
-2.0000

> <Gold.PLP.part.metal>
0.0000

> <Gold.PLP.part.buried>
-2.3748

> <Gold.PLP.part.nonpolar>
-33.1806

> <Gold.PLP.part.repulsive>
1.8940

> <Gold.PLP.ligand.clash>
0.0000

> <Gold.PLP.ligand.torsion>
0.6919

> <Gold.PLP.Chemscore.Hbond>
1.9920

> <Gold.PLP.Chemscore.CHOScore>
1.0000

> <Gold.PLP.Chemscore.Metal>
0.0000

> <Gold.Chemscore.Hbonds>
donor molecule, donor type, donor heavy atom, donor atom, acceptor molecule, acceptor atom, score
      L1  H     3    20       P1  7948  1.00
      L1  H    19    34       P1  7921  0.89
      L1  C    13    25       P1  8028  1.00

> <Gold.PLP.Chemscore.Internal.Correction>
0.0369

> <Gold.Rescore>
     Score         DG    S(hbond)    S(metal)    S(lipo)     H(rot)  DE(clash)    DE(int)     intcor
     15.34     -15.96       1.96        0.00      76.78       1.97       0.17       0.45       ----

> <Gold.Chemscore.Fitness>
15.3385

> <Gold.Chemscore.DG>
-15.9593

> <Gold.Chemscore.ZeroCoef>
-5.4800

> <Gold.Chemscore.Hbond>
1.9576

> <Gold.Chemscore.Metal>
0.0000

> <Gold.Chemscore.Lipo>
76.7797

> <Gold.Chemscore.Internal_Hbond>
0.0000

> <Gold.Chemscore.DEClash>
0.1742

> <Gold.Chemscore.DEInternal>
0.4466

> <Gold.Chemscore.Rot>
1.9697

> <Gold.Chemscore.Internal.Correction>
   9.000000E+99

> <Gold.Chemscore.Hbonds>
donor molecule, donor type, donor heavy atom, donor atom, acceptor molecule, acceptor atom, score
      L1  H     3    20       P1  7948  1.00
      L1  H    19    34       P1  7921  0.87

> <Gold.Chemscore.Hbond.Weighted>
-6.5385

> <Gold.Chemscore.Metal.Weighted>
-0.0000

> <Gold.Chemscore.Lipo.Weighted>
-8.9832

> <Gold.Chemscore.Internal_Hbond.Weighted>
0.0000

> <Gold.Chemscore.DEClash.Weighted>
0.1742

> <Gold.Chemscore.DEInternal.Weighted>
0.4466

> <Gold.Chemscore.Rot.Weighted>
5.0424

> <Gold.Chemscore.Internal.Correction.Weighted>
   9.000000E+99

> <Gold.Protein.RotatedTorsions>
[ 6907 6896 6895 6894 ] final -147.69 input  -60.11 | X-H torsion
[ 7974 7965 7964 7962 ] final  126.43 input  175.53 | X-H torsion
[ 8008 7997 7996 7995 ] final  -89.47 input   59.86 | X-H torsion
[ 10167 10162 10161 10158 ] final -142.61 input  -65.29 | X-H torsion
[ 10718 10713 10712 10709 ] final  106.79 input   66.30 | X-H torsion
[ 10763 10752 10751 10750 ] final -167.37 input  -60.55 | X-H torsion
[ 11005 11000 10999 10996 ] final -144.33 input  -57.11 | X-H torsion

> <Gold.Protein.ActiveResidues>
 VAL166  LYS551  ARG553  GLY616  TRP617  ASP618  TYR619  PRO620  LYS621  CYS622 
 ASP623  PHE694  ASN695  SER759  ASP760  ASP761  ALA762  ILE779  LEU786  VAL792 
 PHE793  MET794  SER795  GLU796  ALA797  LYS798  CYS799  TRP800  GLU811  SER814 

> <Gold.Protein.RotatedAtoms>
  151.1593  133.4856  159.2594 H   0  0  0  0  0  0  0  0  0  0  0  0  # atno 6907 bound_to 6896
  151.1471  135.0209  159.8662 H   0  0  0  0  0  0  0  0  0  0  0  0  # atno 6908 bound_to 6896
  152.5463  134.1480  159.8560 H   0  0  0  0  0  0  0  0  0  0  0  0  # atno 6909 bound_to 6896
  145.0619  139.3799  143.5002 H   0  0  0  0  0  0  0  0  0  0  0  0  # atno 7974 bound_to 7965
  154.6870  140.0541  157.0325 H   0  0  0  0  0  0  0  0  0  0  0  0  # atno 8008 bound_to 7997
  155.0870  140.3215  155.4566 H   0  0  0  0  0  0  0  0  0  0  0  0  # atno 8009 bound_to 7997
  156.2715  140.2055  156.5998 H   0  0  0  0  0  0  0  0  0  0  0  0  # atno 8010 bound_to 7997
  139.8072  143.7753  152.2661 H   0  0  0  0  0  0  0  0  0  0  0  0  # atno 10167 bound_to 10162
  157.6654  131.0858  150.6059 H   0  0  0  0  0  0  0  0  0  0  0  0  # atno 10718 bound_to 10713
  154.6738  135.2943  154.9706 H   0  0  0  0  0  0  0  0  0  0  0  0  # atno 10763 bound_to 10752
  154.0724  135.6616  153.4830 H   0  0  0  0  0  0  0  0  0  0  0  0  # atno 10764 bound_to 10752
  153.0503  135.5178  154.7747 H   0  0  0  0  0  0  0  0  0  0  0  0  # atno 10765 bound_to 10752
  140.8036  134.2828  157.4969 H   0  0  0  0  0  0  0  0  0  0  0  0  # atno 11005 bound_to 11000
  146.3525  140.0321  142.8649 LP  0  0  0  0  0  0  0  0  0  0  0  0  # atno 17320 bound_to 7965
  145.1399  140.9565  143.4495 LP  0  0  0  0  0  0  0  0  0  0  0  0  # atno 17321 bound_to 7965
  139.7890  144.7417  150.9981 LP  0  0  0  0  0  0  0  0  0  0  0  0  # atno 17342 bound_to 10162
  140.7819  143.4461  151.0480 LP  0  0  0  0  0  0  0  0  0  0  0  0  # atno 17343 bound_to 10162
  156.6360  130.4445  149.5769 LP  0  0  0  0  0  0  0  0  0  0  0  0  # atno 17370 bound_to 10713
  156.2245  130.6757  151.1402 LP  0  0  0  0  0  0  0  0  0  0  0  0  # atno 17371 bound_to 10713
  139.8719  134.9443  156.3878 LP  0  0  0  0  0  0  0  0  0  0  0  0  # atno 17394 bound_to 11000
  140.9270  133.7605  155.9977 LP  0  0  0  0  0  0  0  0  0  0  0  0  # atno 17395 bound_to 11000

$$$$
