AV-unprocessed.smi:1680|AV-procd|sdf|6738|dock10
  -GOLD-   22720 7493D 1   1.00000     0.00000
 Structure written by MMmdl.
 39 40  0  0  0  0  0  0  0  0  2 V2000
  146.5970  142.3381  156.6763 C   0  0  0  0  0  0  0  0  0  0  0  0
  147.5925  141.2275  156.3339 C   0  0  0  0  0  0  0  0  0  0  0  0
  147.9695  140.4880  157.2428 O   0  0  0  0  0  0  0  0  0  0  0  0
  148.0227  141.0924  155.0564 N   0  0  0  0  0  0  0  0  0  0  0  0
  147.5506  141.8753  153.9103 C   0  0  0  0  0  0  0  0  0  0  0  0
  146.7620  140.9513  152.9645 C   0  0  0  0  0  0  0  0  0  0  0  0
  147.5726  139.7750  152.5469 N   0  3  0  0  0  0  0  0  0  0  0  0
  146.8264  138.8820  151.6254 C   0  0  0  0  0  0  0  0  0  0  0  0
  146.0524  137.7771  152.3709 C   0  0  0  0  0  0  0  0  0  0  0  0
  144.6837  138.1859  152.6660 N   0  0  0  0  0  0  0  0  0  0  0  0
  143.7057  137.3561  153.0575 C   0  0  0  0  0  0  0  0  0  0  0  0
  143.8687  136.1444  153.2040 O   0  0  0  0  0  0  0  0  0  0  0  0
  142.5521  138.0177  153.2565 N   0  0  0  0  0  0  0  0  0  0  0  0
  141.2935  137.4912  153.6511 C   0  0  0  0  0  0  0  0  0  0  0  0
  141.1435  136.3182  154.2860 N   0  0  0  0  0  0  0  0  0  0  0  0
  139.8093  136.0384  154.5517 N   0  0  0  0  0  0  0  0  0  0  0  0
  139.0069  137.0101  154.1078 C   0  0  0  0  0  0  0  0  0  0  0  0
  139.8029  138.3629  153.3228 S   0  0  0  0  0  0  0  0  0  0  0  0
  148.1833  139.0586  153.7014 C   0  0  0  0  0  0  0  0  0  0  0  0
  148.9350  140.0265  154.6335 C   0  0  0  0  0  0  0  0  0  0  0  0
  145.6694  142.2139  156.1165 H   0  0  0  0  0  0  0  0  0  0  0  0
  147.0192  143.3183  156.4527 H   0  0  0  0  0  0  0  0  0  0  0  0
  146.3495  142.3179  157.7384 H   0  0  0  0  0  0  0  0  0  0  0  0
  146.9342  142.7298  154.1860 H   0  0  0  0  0  0  0  0  0  0  0  0
  148.4121  142.2943  153.3885 H   0  0  0  0  0  0  0  0  0  0  0  0
  145.8523  140.6058  153.4586 H   0  0  0  0  0  0  0  0  0  0  0  0
  146.4515  141.5139  152.0832 H   0  0  0  0  0  0  0  0  0  0  0  0
  146.1536  139.4722  151.0011 H   0  0  0  0  0  0  0  0  0  0  0  0
  147.5377  138.4083  150.9473 H   0  0  0  0  0  0  0  0  0  0  0  0
  146.0468  136.8539  151.7888 H   0  0  0  0  0  0  0  0  0  0  0  0
  146.5297  137.5427  153.3214 H   0  0  0  0  0  0  0  0  0  0  0  0
  144.4688  139.1682  152.5726 H   0  0  0  0  0  0  0  0  0  0  0  0
  142.5722  139.0141  153.0973 H   0  0  0  0  0  0  0  0  0  0  0  0
  137.9386  136.9296  154.2430 H   0  0  0  0  0  0  0  0  0  0  0  0
  147.4018  138.5425  154.2615 H   0  0  0  0  0  0  0  0  0  0  0  0
  148.8775  138.2962  153.3496 H   0  0  0  0  0  0  0  0  0  0  0  0
  149.7834  140.4690  154.1093 H   0  0  0  0  0  0  0  0  0  0  0  0
  149.3608  139.4738  155.4721 H   0  0  0  0  0  0  0  0  0  0  0  0
  148.3396  140.1553  152.0108 H   0  0  0  0  0  0  0  0  0  0  0  0
  1  2  1  0  0  0  0
  1 21  1  0  0  0  0
  1 22  1  0  0  0  0
  1 23  1  0  0  0  0
  2  3  2  0  0  0  0
  2  4  1  0  0  0  0
  4 20  1  0  0  0  0
  4  5  1  0  0  0  0
  5  6  1  0  0  0  0
  5 24  1  0  0  0  0
  5 25  1  0  0  0  0
  6  7  1  0  0  0  0
  6 26  1  0  0  0  0
  6 27  1  0  0  0  0
  7  8  1  0  0  0  0
  7 19  1  0  0  0  0
  7 39  1  0  0  0  0
  8  9  1  0  0  0  0
  8 28  1  0  0  0  0
  8 29  1  0  0  0  0
  9 10  1  0  0  0  0
  9 30  1  0  0  0  0
  9 31  1  0  0  0  0
 10 11  1  0  0  0  0
 10 32  1  0  0  0  0
 11 12  2  0  0  0  0
 11 13  1  0  0  0  0
 13 14  1  0  0  0  0
 13 33  1  0  0  0  0
 14 18  1  0  0  0  0
 14 15  2  0  0  0  0
 15 16  1  0  0  0  0
 16 17  2  0  0  0  0
 17 18  1  0  0  0  0
 17 34  1  0  0  0  0
 19 20  1  0  0  0  0
 19 35  1  0  0  0  0
 19 36  1  0  0  0  0
 20 37  1  0  0  0  0
 20 38  1  0  0  0  0
M  CHG  1   7   1
M  END
> <s_m_source_file>
AV-unprocessed.smi

> <i_m_source_file_index>
1680

> <i_lp_mmshare_version>
43012

> <i_f3d_flags>
0

> <s_epik_input>
W0NIM11DKD1PKU4xW0NIMl1bQ0gyXU4oW0NIMl1bQ0gyXTEpW0NIMl1bQ0gyXVtOSF1DKD1PKVtOSF1jMm5uW2NIXXMy

> <s_epik_cmdline>
J2VwaWtfcHl0aG9uJywgJy1waCcsICc3LjAnLCAnLXRuJywgJzgnLCAnLW1hJywgJzIwMCcsICctbWV0YWxfYmluZGluZycsICctaW1hZScsICc8aW5maWxlLm1hZT4nLCAnLW9tYWUnLCAnPG91dGZpbGUubWFlPic=

> <r_lp_tautomer_probability>
1

> <r_epik_Ionization_Penalty>
0.679071

> <r_epik_Ionization_Penalty_Charging>
0.67523

> <r_epik_Ionization_Penalty_Neutral>
0.00384089

> <r_epik_State_Penalty>
0.695776

> <r_epik_Charging_Adjusted_Penalty>
1.37101

> <i_epik_Tot_Q>
1

> <i_epik_Tot_abs_Q>
1

> <r_epik_Metal_State_Penalty>
1.03363

> <b_epik_Metal_Only>
0

> <s_lp_Force_Field>
OPLS_2005

> <r_lp_Energy>
38.3378

> <b_lp_Chiralities_Consistent>
1

> <s_lp_Variant>
AV-unprocessed.smi:1680-2

> <Gold.Version>
5.8.1

> <Gold.Id.Protein>
6NUR|6NUR_protein|mol2

> <Gold.PLP.Fitness>
44.5930

> <Gold.PLP.PLP>
-34.1465

> <Gold.PLP.part.hbond>
-5.4424

> <Gold.PLP.part.metal>
0.0000

> <Gold.PLP.part.buried>
-2.2194

> <Gold.PLP.part.nonpolar>
-27.5848

> <Gold.PLP.part.repulsive>
0.4096

> <Gold.PLP.ligand.clash>
0.0000

> <Gold.PLP.ligand.torsion>
0.7102

> <Gold.PLP.Chemscore.Hbond>
3.9440

> <Gold.PLP.Chemscore.CHOScore>
0.0000

> <Gold.PLP.Chemscore.Metal>
0.0000

> <Gold.Chemscore.Hbonds>
donor molecule, donor type, donor heavy atom, donor atom, acceptor molecule, acceptor atom, score
      L1  H     7    39       P1  7957  0.96
      L1  H    10    32       P1 10175  0.96
      L1  H    13    33       P1 10175  0.91
      P1  H 11000 11005       L1    16  0.90

> <Gold.PLP.Chemscore.Internal.Correction>
0.0349

> <Gold.Rescore>
     Score         DG    S(hbond)    S(metal)    S(lipo)     H(rot)  DE(clash)    DE(int)     intcor
     16.59     -17.89       2.90        0.00      63.19       1.83       0.39       0.91       ----

> <Gold.Chemscore.Fitness>
16.5858

> <Gold.Chemscore.DG>
-17.8869

> <Gold.Chemscore.ZeroCoef>
-5.4800

> <Gold.Chemscore.Hbond>
2.9016

> <Gold.Chemscore.Metal>
0.0000

> <Gold.Chemscore.Lipo>
63.1906

> <Gold.Chemscore.Internal_Hbond>
0.0000

> <Gold.Chemscore.DEClash>
0.3890

> <Gold.Chemscore.DEInternal>
0.9121

> <Gold.Chemscore.Rot>
1.8272

> <Gold.Chemscore.Internal.Correction>
   9.000000E+99

> <Gold.Chemscore.Hbonds>
donor molecule, donor type, donor heavy atom, donor atom, acceptor molecule, acceptor atom, score
      L1  H     7    39       P1  7957  0.89
      L1  H    10    32       P1 10175  0.91
      L1  H    13    33       P1 10175  0.88
      P1  H 11000 11005       L1    16  0.17

> <Gold.Chemscore.Hbond.Weighted>
-9.6912

> <Gold.Chemscore.Metal.Weighted>
-0.0000

> <Gold.Chemscore.Lipo.Weighted>
-7.3933

> <Gold.Chemscore.Internal_Hbond.Weighted>
0.0000

> <Gold.Chemscore.DEClash.Weighted>
0.3890

> <Gold.Chemscore.DEInternal.Weighted>
0.9121

> <Gold.Chemscore.Rot.Weighted>
4.6776

> <Gold.Chemscore.Internal.Correction.Weighted>
   9.000000E+99

> <Gold.Protein.RotatedTorsions>
[ 6907 6896 6895 6894 ] final  -76.12 input  -60.11 | X-H torsion
[ 7974 7965 7964 7962 ] final  -71.95 input  175.53 | X-H torsion
[ 8008 7997 7996 7995 ] final   86.96 input   59.86 | X-H torsion
[ 10167 10162 10161 10158 ] final  -85.29 input  -65.29 | X-H torsion
[ 10718 10713 10712 10709 ] final  104.96 input   66.30 | X-H torsion
[ 10763 10752 10751 10750 ] final  -10.47 input  -60.55 | X-H torsion
[ 11005 11000 10999 10996 ] final   49.85 input  -57.11 | X-H torsion

> <Gold.Protein.ActiveResidues>
 VAL166  LYS551  ARG553  GLY616  TRP617  ASP618  TYR619  PRO620  LYS621  CYS622 
 ASP623  PHE694  ASN695  SER759  ASP760  ASP761  ALA762  ILE779  LEU786  VAL792 
 PHE793  MET794  SER795  GLU796  ALA797  LYS798  CYS799  TRP800  GLU811  SER814 

> <Gold.Protein.RotatedAtoms>
  150.7037  134.4619  159.5384 H   0  0  0  0  0  0  0  0  0  0  0  0  # atno 6907 bound_to 6896
  152.2292  134.8336  160.0485 H   0  0  0  0  0  0  0  0  0  0  0  0  # atno 6908 bound_to 6896
  151.9158  133.3537  159.3916 H   0  0  0  0  0  0  0  0  0  0  0  0  # atno 6909 bound_to 6896
  145.6714  140.9220  143.0881 H   0  0  0  0  0  0  0  0  0  0  0  0  # atno 7974 bound_to 7965
  155.9693  140.3387  155.6561 H   0  0  0  0  0  0  0  0  0  0  0  0  # atno 8008 bound_to 7997
  155.6695  140.0725  157.2543 H   0  0  0  0  0  0  0  0  0  0  0  0  # atno 8009 bound_to 7997
  154.4162  140.1694  156.1851 H   0  0  0  0  0  0  0  0  0  0  0  0  # atno 8010 bound_to 7997
  140.4051  143.2646  151.9091 H   0  0  0  0  0  0  0  0  0  0  0  0  # atno 10167 bound_to 10162
  157.6722  131.0816  150.5785 H   0  0  0  0  0  0  0  0  0  0  0  0  # atno 10718 bound_to 10713
  153.4696  135.7016  153.6001 H   0  0  0  0  0  0  0  0  0  0  0  0  # atno 10763 bound_to 10752
  153.4260  135.3814  155.2141 H   0  0  0  0  0  0  0  0  0  0  0  0  # atno 10764 bound_to 10752
  154.8725  135.3939  154.4133 H   0  0  0  0  0  0  0  0  0  0  0  0  # atno 10765 bound_to 10752
  140.1068  134.5008  155.8713 H   0  0  0  0  0  0  0  0  0  0  0  0  # atno 11005 bound_to 11000
  144.7056  139.8577  143.7431 LP  0  0  0  0  0  0  0  0  0  0  0  0  # atno 17320 bound_to 7965
  146.1042  139.4040  143.0328 LP  0  0  0  0  0  0  0  0  0  0  0  0  # atno 17321 bound_to 7965
  139.4783  144.5594  151.8263 LP  0  0  0  0  0  0  0  0  0  0  0  0  # atno 17342 bound_to 10162
  140.4698  144.1603  150.5916 LP  0  0  0  0  0  0  0  0  0  0  0  0  # atno 17343 bound_to 10162
  156.6086  130.4374  149.5868 LP  0  0  0  0  0  0  0  0  0  0  0  0  # atno 17370 bound_to 10713
  156.2448  130.6873  151.1590 LP  0  0  0  0  0  0  0  0  0  0  0  0  # atno 17371 bound_to 10713
  141.2120  133.6714  156.6626 LP  0  0  0  0  0  0  0  0  0  0  0  0  # atno 17394 bound_to 11000
  140.3145  134.8059  157.4203 LP  0  0  0  0  0  0  0  0  0  0  0  0  # atno 17395 bound_to 11000

$$$$
