AV-unprocessed.smi:1260|AV-procd|sdf|5299|dock3
  -GOLD-   22720 4413D 1   1.00000     0.00000
 Structure written by MMmdl.
 37 39  0  0  0  0  0  0  0  0  2 V2000
  150.3098  140.4228  157.6877 O   0  0  0  0  0  0  0  0  0  0  0  0
  150.8601  141.0901  156.8116 C   0  0  0  0  0  0  0  0  0  0  0  0
  151.2107  140.4642  155.4584 C   0  0  0  0  0  0  0  0  0  0  0  0
  152.0436  139.2844  155.6081 N   0  0  0  0  0  0  0  0  0  0  0  0
  151.7856  138.0910  156.1473 C   0  0  0  0  0  0  0  0  0  0  0  0
  152.8357  137.2870  156.0808 N   0  0  0  0  0  0  0  0  0  0  0  0
  153.7905  138.0681  155.4512 N   0  0  0  0  0  0  0  0  0  0  0  0
  153.3258  139.2540  155.1673 N   0  0  0  0  0  0  0  0  0  0  0  0
  151.1955  142.3788  156.9766 N   0  0  0  0  0  0  0  0  0  0  0  0
  150.9436  143.1555  158.1879 C   0  0  2  0  0  0  0  0  0  0  0  0
  151.5183  144.5653  158.1336 C   0  0  0  0  0  0  0  0  0  0  0  0
  151.5638  144.9800  159.6081 C   0  0  0  0  0  0  0  0  0  0  0  0
  151.6687  143.7317  160.4037 N   0  3  2  0  0  0  0  0  0  0  0  0
  152.8288  143.7034  161.3344 C   0  0  0  0  0  0  0  0  0  0  0  0
  153.1119  142.2728  161.8158 C   0  0  0  0  0  0  0  0  0  0  0  0
  153.4825  141.3468  160.6418 C   0  0  0  0  0  0  0  0  0  0  0  0
  152.9231  141.8477  159.2960 C   0  0  0  0  0  0  0  0  0  0  0  0
  151.5660  142.5727  159.4718 C   0  0  2  0  0  0  0  0  0  0  0  0
  150.3042  140.1785  154.9228 H   0  0  0  0  0  0  0  0  0  0  0  0
  151.7315  141.2000  154.8440 H   0  0  0  0  0  0  0  0  0  0  0  0
  150.8377  137.8145  156.5852 H   0  0  0  0  0  0  0  0  0  0  0  0
  151.6518  142.8543  156.2113 H   0  0  0  0  0  0  0  0  0  0  0  0
  149.8644  143.2441  158.3311 H   0  0  0  0  0  0  0  0  0  0  0  0
  152.5295  144.5464  157.7245 H   0  0  0  0  0  0  0  0  0  0  0  0
  150.9213  145.2445  157.5241 H   0  0  0  0  0  0  0  0  0  0  0  0
  152.3765  145.6820  159.8005 H   0  0  0  0  0  0  0  0  0  0  0  0
  150.6343  145.4772  159.8874 H   0  0  0  0  0  0  0  0  0  0  0  0
  153.7191  144.0960  160.8399 H   0  0  0  0  0  0  0  0  0  0  0  0
  152.6224  144.3606  162.1797 H   0  0  0  0  0  0  0  0  0  0  0  0
  153.9093  142.2701  162.5595 H   0  0  0  0  0  0  0  0  0  0  0  0
  152.2247  141.8862  162.3194 H   0  0  0  0  0  0  0  0  0  0  0  0
  154.5666  141.2575  160.5625 H   0  0  0  0  0  0  0  0  0  0  0  0
  153.1110  140.3430  160.8512 H   0  0  0  0  0  0  0  0  0  0  0  0
  153.6405  142.5310  158.8394 H   0  0  0  0  0  0  0  0  0  0  0  0
  152.8345  141.0020  158.6139 H   0  0  0  0  0  0  0  0  0  0  0  0
  150.8669  141.8554  159.9048 H   0  0  0  0  0  0  0  0  0  0  0  0
  150.8387  143.6933  160.9783 H   0  0  0  0  0  0  0  0  0  0  0  0
  1  2  2  0  0  0  0
  2  3  1  0  0  0  0
  2  9  1  0  0  0  0
  3  4  1  0  0  0  0
  3 19  1  0  0  0  0
  3 20  1  0  0  0  0
  4  8  1  0  0  0  0
  4  5  1  0  0  0  0
  5  6  2  0  0  0  0
  5 21  1  0  0  0  0
  6  7  1  0  0  0  0
  7  8  2  0  0  0  0
  9 10  1  0  0  0  0
  9 22  1  0  0  0  0
 10 18  1  0  0  0  0
 10 11  1  0  0  0  0
 10 23  1  0  0  0  0
 11 12  1  0  0  0  0
 11 24  1  0  0  0  0
 11 25  1  0  0  0  0
 12 13  1  0  0  0  0
 12 26  1  0  0  0  0
 12 27  1  0  0  0  0
 13 18  1  0  0  0  0
 13 14  1  0  0  0  0
 13 37  1  0  0  0  0
 14 15  1  0  0  0  0
 14 28  1  0  0  0  0
 14 29  1  0  0  0  0
 15 16  1  0  0  0  0
 15 30  1  0  0  0  0
 15 31  1  0  0  0  0
 16 17  1  0  0  0  0
 16 32  1  0  0  0  0
 16 33  1  0  0  0  0
 17 18  1  0  0  0  0
 17 34  1  0  0  0  0
 17 35  1  0  0  0  0
 18 36  1  0  0  0  0
M  CHG  1  13   1
M  END
> <s_m_source_file>
AV-unprocessed.smi

> <i_m_source_file_index>
1260

> <i_lp_mmshare_version>
43012

> <i_f3d_flags>
0

> <s_epik_input>
bjFubltjSF1uMVtDSDJdQyg9TylbTkhdW0NASF0oW0NIMl1bQ0gyXTIpW0NAQEhdKE4yMylbQ0gyXVtDSDJdW0NIMl1bQ0gyXTM=

> <s_epik_cmdline>
J2VwaWtfcHl0aG9uJywgJy1waCcsICc3LjAnLCAnLXRuJywgJzgnLCAnLW1hJywgJzIwMCcsICctbWV0YWxfYmluZGluZycsICctaW1hZScsICc8aW5maWxlLm1hZT4nLCAnLW9tYWUnLCAnPG91dGZpbGUubWFlPic=

> <r_lp_tautomer_probability>
1

> <r_epik_Ionization_Penalty>
0.00234324

> <r_epik_Ionization_Penalty_Charging>
0.00233897

> <r_epik_Ionization_Penalty_Neutral>
4.26861e-06

> <r_epik_State_Penalty>
0.00161477

> <r_epik_Charging_Adjusted_Penalty>
0.00395374

> <i_epik_Tot_Q>
1

> <i_epik_Tot_abs_Q>
1

> <r_epik_Metal_State_Penalty>
-0

> <b_epik_Metal_Only>
0

> <s_lp_Force_Field>
OPLS_2005

> <r_lp_Energy>
44.1786

> <b_lp_Chiralities_Consistent>
1

> <s_lp_Variant>
AV-unprocessed.smi:1260-7

> <Gold.Version>
5.8.1

> <Gold.Id.Protein>
6NUR|6NUR_protein|mol2

> <Gold.PLP.Fitness>
43.6631

> <Gold.PLP.PLP>
-39.2292

> <Gold.PLP.part.hbond>
-3.7941

> <Gold.PLP.part.metal>
0.0000

> <Gold.PLP.part.buried>
-4.2178

> <Gold.PLP.part.nonpolar>
-30.2459

> <Gold.PLP.part.repulsive>
0.1377

> <Gold.PLP.ligand.clash>
0.0000

> <Gold.PLP.ligand.torsion>
0.0641

> <Gold.PLP.Chemscore.Hbond>
1.5200

> <Gold.PLP.Chemscore.CHOScore>
0.0000

> <Gold.PLP.Chemscore.Metal>
0.0000

> <Gold.Chemscore.Hbonds>
donor molecule, donor type, donor heavy atom, donor atom, acceptor molecule, acceptor atom, score
      P1  H  7997  8010       L1     8  0.95
      P1  H 10752 10765       L1     6  0.52

> <Gold.PLP.Chemscore.Internal.Correction>
0.0021

> <Gold.Rescore>
     Score         DG    S(hbond)    S(metal)    S(lipo)     H(rot)  DE(clash)    DE(int)     intcor
     14.67     -14.79       0.96        0.00      95.40       1.98       0.09       0.02       ----

> <Gold.Chemscore.Fitness>
14.6707

> <Gold.Chemscore.DG>
-14.7856

> <Gold.Chemscore.ZeroCoef>
-5.4800

> <Gold.Chemscore.Hbond>
0.9586

> <Gold.Chemscore.Metal>
0.0000

> <Gold.Chemscore.Lipo>
95.3994

> <Gold.Chemscore.Internal_Hbond>
0.0000

> <Gold.Chemscore.DEClash>
0.0938

> <Gold.Chemscore.DEInternal>
0.0210

> <Gold.Chemscore.Rot>
1.9757

> <Gold.Chemscore.Internal.Correction>
   9.000000E+99

> <Gold.Chemscore.Hbonds>
donor molecule, donor type, donor heavy atom, donor atom, acceptor molecule, acceptor atom, score
      P1  H  7997  8010       L1     8  0.21
      P1  H 10752 10765       L1     6  0.10

> <Gold.Chemscore.Hbond.Weighted>
-3.2016

> <Gold.Chemscore.Metal.Weighted>
-0.0000

> <Gold.Chemscore.Lipo.Weighted>
-11.1617

> <Gold.Chemscore.Internal_Hbond.Weighted>
0.0000

> <Gold.Chemscore.DEClash.Weighted>
0.0938

> <Gold.Chemscore.DEInternal.Weighted>
0.0210

> <Gold.Chemscore.Rot.Weighted>
5.0578

> <Gold.Chemscore.Internal.Correction.Weighted>
   9.000000E+99

> <Gold.Protein.RotatedTorsions>
[ 6907 6896 6895 6894 ] final  -89.57 input  -60.11 | X-H torsion
[ 7974 7965 7964 7962 ] final  104.77 input  175.53 | X-H torsion
[ 8008 7997 7996 7995 ] final   99.14 input   59.86 | X-H torsion
[ 10167 10162 10161 10158 ] final   30.98 input  -65.29 | X-H torsion
[ 10718 10713 10712 10709 ] final  -82.01 input   66.30 | X-H torsion
[ 10763 10752 10751 10750 ] final -151.05 input  -60.55 | X-H torsion
[ 11005 11000 10999 10996 ] final  -83.25 input  -57.11 | X-H torsion

> <Gold.Protein.ActiveResidues>
 VAL166  LYS551  ARG553  GLY616  TRP617  ASP618  TYR619  PRO620  LYS621  CYS622 
 ASP623  PHE694  ASN695  SER759  ASP760  ASP761  ALA762  ILE779  LEU786  VAL792 
 PHE793  MET794  SER795  GLU796  ALA797  LYS798  CYS799  TRP800  GLU811  SER814 

> <Gold.Protein.RotatedAtoms>
  150.6875  134.2566  159.4532 H   0  0  0  0  0  0  0  0  0  0  0  0  # atno 6907 bound_to 6896
  152.0500  134.9657  160.0584 H   0  0  0  0  0  0  0  0  0  0  0  0  # atno 6908 bound_to 6896
  152.1125  133.4274  159.4674 H   0  0  0  0  0  0  0  0  0  0  0  0  # atno 6909 bound_to 6896
  145.3284  139.2493  143.3674 H   0  0  0  0  0  0  0  0  0  0  0  0  # atno 7974 bound_to 7965
  156.1075  140.3233  155.8026 H   0  0  0  0  0  0  0  0  0  0  0  0  # atno 8008 bound_to 7997
  155.4731  140.0548  157.2994 H   0  0  0  0  0  0  0  0  0  0  0  0  # atno 8009 bound_to 7997
  154.4737  140.2023  155.9945 H   0  0  0  0  0  0  0  0  0  0  0  0  # atno 8010 bound_to 7997
  140.4630  144.0878  150.6217 H   0  0  0  0  0  0  0  0  0  0  0  0  # atno 10167 bound_to 10162
  156.0040  130.4621  150.4039 H   0  0  0  0  0  0  0  0  0  0  0  0  # atno 10718 bound_to 10713
  154.8082  135.3269  154.7376 H   0  0  0  0  0  0  0  0  0  0  0  0  # atno 10763 bound_to 10752
  153.8030  135.6902  153.4857 H   0  0  0  0  0  0  0  0  0  0  0  0  # atno 10764 bound_to 10752
  153.1841  135.4575  155.0012 H   0  0  0  0  0  0  0  0  0  0  0  0  # atno 10765 bound_to 10752
  141.1659  133.7285  156.8692 H   0  0  0  0  0  0  0  0  0  0  0  0  # atno 11005 bound_to 11000
  146.3055  140.3857  142.8689 LP  0  0  0  0  0  0  0  0  0  0  0  0  # atno 17320 bound_to 7965
  144.8883  140.7491  143.5943 LP  0  0  0  0  0  0  0  0  0  0  0  0  # atno 17321 bound_to 7965
  140.4070  143.2675  151.9879 LP  0  0  0  0  0  0  0  0  0  0  0  0  # atno 17342 bound_to 10162
  139.4808  144.5948  151.7709 LP  0  0  0  0  0  0  0  0  0  0  0  0  # atno 17343 bound_to 10162
  157.2106  131.0459  151.2601 LP  0  0  0  0  0  0  0  0  0  0  0  0  # atno 17370 bound_to 10713
  157.3892  130.7273  149.6685 LP  0  0  0  0  0  0  0  0  0  0  0  0  # atno 17371 bound_to 10713
  140.1793  134.9044  157.2929 LP  0  0  0  0  0  0  0  0  0  0  0  0  # atno 17394 bound_to 11000
  140.2413  134.3792  155.7479 LP  0  0  0  0  0  0  0  0  0  0  0  0  # atno 17395 bound_to 11000

$$$$
