AV-unprocessed.smi:1697|AV-procd|sdf|6810|dock9
  -GOLD-   22720 7583D 1   1.00000     0.00000
 Structure written by MMmdl.
 55 57  0  0  0  0  0  0  0  0  3 V2000
  149.2570  141.7559  158.1459 C   0  0  0  0  0  0  0  0  0  0  0  0
  147.8415  141.4817  157.6343 C   0  0  0  0  0  0  0  0  0  0  0  0
  147.8384  141.5912  156.2184 O   0  0  0  0  0  0  0  0  0  0  0  0
  146.5499  141.7710  155.6413 C   0  0  2  0  0  0  0  0  0  0  0  0
  145.7552  140.4521  155.6191 C   0  0  0  0  0  0  0  0  0  0  0  0
  146.4179  139.4123  154.6999 C   0  0  0  0  0  0  0  0  0  0  0  0
  146.5721  139.9390  153.3172 N   0  3  2  0  0  0  0  0  0  0  0  0
  147.0935  138.9326  152.3556 C   0  0  0  0  0  0  0  0  0  0  0  0
  146.0024  137.9734  151.8375 C   0  0  1  0  0  0  0  0  0  0  0  0
  146.3528  137.5364  150.5389 O   0  0  0  0  0  0  0  0  0  0  0  0
  145.8402  136.7450  152.7542 C   0  0  0  0  0  0  0  0  0  0  0  0
  145.0700  135.6625  152.1267 N   0  0  0  0  0  0  0  0  0  0  0  0
  143.9045  135.7064  151.4250 C   0  0  0  0  0  0  0  0  0  0  0  0
  143.6028  134.4315  151.0518 N   0  3  0  0  0  0  0  0  0  0  0  0
  144.5927  133.5624  151.5163 C   0  0  0  0  0  0  0  0  0  0  0  0
  144.7301  132.1850  151.3904 C   0  0  0  0  0  0  0  0  0  0  0  0
  145.8675  131.5928  151.9850 C   0  0  0  0  0  0  0  0  0  0  0  0
  146.0475  130.0890  151.8667 C   0  0  0  0  0  0  0  0  0  0  0  0
  146.8229  132.3806  152.6782 C   0  0  0  0  0  0  0  0  0  0  0  0
  148.0419  131.7336  153.3137 C   0  0  0  0  0  0  0  0  0  0  0  0
  146.6658  133.7803  152.7944 C   0  0  0  0  0  0  0  0  0  0  0  0
  145.5386  134.3467  152.2044 C   0  0  0  0  0  0  0  0  0  0  0  0
  147.3679  141.1938  153.2999 C   0  0  0  0  0  0  0  0  0  0  0  0
  146.7395  142.2718  154.2015 C   0  0  0  0  0  0  0  0  0  0  0  0
  149.2993  141.6822  159.2328 H   0  0  0  0  0  0  0  0  0  0  0  0
  149.5882  142.7560  157.8657 H   0  0  0  0  0  0  0  0  0  0  0  0
  149.9673  141.0389  157.7336 H   0  0  0  0  0  0  0  0  0  0  0  0
  147.5273  140.4873  157.9502 H   0  0  0  0  0  0  0  0  0  0  0  0
  147.1462  142.2012  158.0689 H   0  0  0  0  0  0  0  0  0  0  0  0
  146.0003  142.5297  156.2011 H   0  0  0  0  0  0  0  0  0  0  0  0
  145.6424  140.0450  156.6232 H   0  0  0  0  0  0  0  0  0  0  0  0
  144.7430  140.6494  155.2634 H   0  0  0  0  0  0  0  0  0  0  0  0
  147.3952  139.1303  155.0955 H   0  0  0  0  0  0  0  0  0  0  0  0
  145.8075  138.5107  154.7021 H   0  0  0  0  0  0  0  0  0  0  0  0
  147.5394  139.4397  151.4983 H   0  0  0  0  0  0  0  0  0  0  0  0
  147.9012  138.3723  152.8294 H   0  0  0  0  0  0  0  0  0  0  0  0
  145.0444  138.4868  151.7727 H   0  0  0  0  0  0  0  0  0  0  0  0
  145.6716  137.8010  149.9388 H   0  0  0  0  0  0  0  0  0  0  0  0
  146.8160  136.3397  153.0265 H   0  0  0  0  0  0  0  0  0  0  0  0
  145.3471  137.0169  153.6884 H   0  0  0  0  0  0  0  0  0  0  0  0
  143.3225  136.5905  151.2065 H   0  0  0  0  0  0  0  0  0  0  0  0
  143.9992  131.5914  150.8606 H   0  0  0  0  0  0  0  0  0  0  0  0
  146.0320  129.6236  152.8526 H   0  0  0  0  0  0  0  0  0  0  0  0
  146.9968  129.8520  151.3859 H   0  0  0  0  0  0  0  0  0  0  0  0
  145.2529  129.6375  151.2718 H   0  0  0  0  0  0  0  0  0  0  0  0
  148.6640  132.4694  153.8242 H   0  0  0  0  0  0  0  0  0  0  0  0
  148.6563  131.2472  152.5555 H   0  0  0  0  0  0  0  0  0  0  0  0
  147.7406  130.9860  154.0477 H   0  0  0  0  0  0  0  0  0  0  0  0
  147.3935  134.3800  153.3206 H   0  0  0  0  0  0  0  0  0  0  0  0
  148.3895  140.9818  153.6196 H   0  0  0  0  0  0  0  0  0  0  0  0
  147.4291  141.5771  152.2806 H   0  0  0  0  0  0  0  0  0  0  0  0
  145.7730  142.5666  153.7905 H   0  0  0  0  0  0  0  0  0  0  0  0
  147.3593  143.1692  154.1973 H   0  0  0  0  0  0  0  0  0  0  0  0
  145.6492  140.1876  152.9895 H   0  0  0  0  0  0  0  0  0  0  0  0
  142.7823  134.1767  150.5165 H   0  0  0  0  0  0  0  0  0  0  0  0
  1  2  1  0  0  0  0
  1 25  1  0  0  0  0
  1 26  1  0  0  0  0
  1 27  1  0  0  0  0
  2  3  1  0  0  0  0
  2 28  1  0  0  0  0
  2 29  1  0  0  0  0
  3  4  1  0  0  0  0
  4 24  1  0  0  0  0
  4  5  1  0  0  0  0
  4 30  1  0  0  0  0
  5  6  1  0  0  0  0
  5 31  1  0  0  0  0
  5 32  1  0  0  0  0
  6  7  1  0  0  0  0
  6 33  1  0  0  0  0
  6 34  1  0  0  0  0
  7  8  1  0  0  0  0
  7 23  1  0  0  0  0
  7 54  1  0  0  0  0
  8  9  1  0  0  0  0
  8 35  1  0  0  0  0
  8 36  1  0  0  0  0
  9 10  1  0  0  0  0
  9 11  1  0  0  0  0
  9 37  1  0  0  0  0
 10 38  1  0  0  0  0
 11 12  1  0  0  0  0
 11 39  1  0  0  0  0
 11 40  1  0  0  0  0
 12 22  1  0  0  0  0
 12 13  1  0  0  0  0
 13 14  2  0  0  0  0
 13 41  1  0  0  0  0
 14 15  1  0  0  0  0
 14 55  1  0  0  0  0
 15 22  2  0  0  0  0
 15 16  1  0  0  0  0
 16 17  2  0  0  0  0
 16 42  1  0  0  0  0
 17 18  1  0  0  0  0
 17 19  1  0  0  0  0
 18 43  1  0  0  0  0
 18 44  1  0  0  0  0
 18 45  1  0  0  0  0
 19 20  1  0  0  0  0
 19 21  2  0  0  0  0
 20 46  1  0  0  0  0
 20 47  1  0  0  0  0
 20 48  1  0  0  0  0
 21 22  1  0  0  0  0
 21 49  1  0  0  0  0
 23 24  1  0  0  0  0
 23 50  1  0  0  0  0
 23 51  1  0  0  0  0
 24 52  1  0  0  0  0
 24 53  1  0  0  0  0
M  CHG  1   7   1
M  CHG  1  14   1
M  END
> <s_m_source_file>
AV-unprocessed.smi

> <i_m_source_file_index>
1697

> <i_lp_mmshare_version>
43012

> <i_f3d_flags>
0

> <s_epik_input>
W0NIM11bQ0gyXU9bQ0hdMVtDSDJdW0NIMl1OKFtDSDJdW0NIMl0xKVtDSDJdW0NASF0oW09IXSlbQ0gyXW4oW2NIXW4yKWMoYzIzKVtjSF1jKFtDSDNdKWMoW2NIXTMpW0NIM10=

> <s_epik_cmdline>
J2VwaWtfcHl0aG9uJywgJy1waCcsICc3LjAnLCAnLXRuJywgJzgnLCAnLW1hJywgJzIwMCcsICctbWV0YWxfYmluZGluZycsICctaW1hZScsICc8aW5maWxlLm1hZT4nLCAnLW9tYWUnLCAnPG91dGZpbGUubWFlPic=

> <r_epik_Ionization_Penalty>
1.20016

> <r_epik_Ionization_Penalty_Charging>
1.20016

> <r_epik_Ionization_Penalty_Neutral>
1.70998e-06

> <r_epik_State_Penalty>
1.27959

> <r_epik_Charging_Adjusted_Penalty>
2.47975

> <i_epik_Tot_Q>
2

> <i_epik_Tot_abs_Q>
2

> <r_epik_Metal_State_Penalty>
5.29682

> <b_epik_Metal_Only>
0

> <s_lp_Force_Field>
OPLS_2005

> <r_lp_Energy>
32.2175

> <b_lp_Chiralities_Consistent>
1

> <s_lp_Variant>
AV-unprocessed.smi:1697-8

> <Gold.Version>
5.8.1

> <Gold.Id.Protein>
6NUR|6NUR_protein|mol2

> <Gold.PLP.Fitness>
59.3330

> <Gold.PLP.PLP>
-41.1985

> <Gold.PLP.part.hbond>
-4.3380

> <Gold.PLP.part.metal>
0.0000

> <Gold.PLP.part.buried>
-3.1522

> <Gold.PLP.part.nonpolar>
-33.9640

> <Gold.PLP.part.repulsive>
0.1241

> <Gold.PLP.ligand.clash>
0.0000

> <Gold.PLP.ligand.torsion>
1.0972

> <Gold.PLP.Chemscore.Hbond>
5.7585

> <Gold.PLP.Chemscore.CHOScore>
1.0000

> <Gold.PLP.Chemscore.Metal>
0.0000

> <Gold.Chemscore.Hbonds>
donor molecule, donor type, donor heavy atom, donor atom, acceptor molecule, acceptor atom, score
      L1  H     7    54       P1 10175  1.89
      L1  H    10    38       P1 10171  0.91
      L1  H    14    55       P1 10186  2.00
      P1  H  7954  7966       L1    10  0.94
      L1  C    13    41       P1 10171  1.00

> <Gold.PLP.Chemscore.Internal.Correction>
0.0534

> <Gold.Rescore>
     Score         DG    S(hbond)    S(metal)    S(lipo)     H(rot)  DE(clash)    DE(int)     intcor
     20.11     -22.66       3.54        0.00      97.26       2.35       1.44       1.11       ----

> <Gold.Chemscore.Fitness>
20.1078

> <Gold.Chemscore.DG>
-22.6610

> <Gold.Chemscore.ZeroCoef>
-5.4800

> <Gold.Chemscore.Hbond>
3.5357

> <Gold.Chemscore.Metal>
0.0000

> <Gold.Chemscore.Lipo>
97.2624

> <Gold.Chemscore.Internal_Hbond>
0.0000

> <Gold.Chemscore.DEClash>
1.4409

> <Gold.Chemscore.DEInternal>
1.1123

> <Gold.Chemscore.Rot>
2.3468

> <Gold.Chemscore.Internal.Correction>
   9.000000E+99

> <Gold.Chemscore.Hbonds>
donor molecule, donor type, donor heavy atom, donor atom, acceptor molecule, acceptor atom, score
      L1  H     7    54       P1 10175  0.88
      L1  H    10    38       P1 10171  0.89
      L1  H    14    55       P1 10186  0.72
      P1  H  7954  7966       L1    10  0.78

> <Gold.Chemscore.Hbond.Weighted>
-11.8091

> <Gold.Chemscore.Metal.Weighted>
-0.0000

> <Gold.Chemscore.Lipo.Weighted>
-11.3797

> <Gold.Chemscore.Internal_Hbond.Weighted>
0.0000

> <Gold.Chemscore.DEClash.Weighted>
1.4409

> <Gold.Chemscore.DEInternal.Weighted>
1.1123

> <Gold.Chemscore.Rot.Weighted>
6.0077

> <Gold.Chemscore.Internal.Correction.Weighted>
   9.000000E+99

> <Gold.Protein.RotatedTorsions>
[ 6907 6896 6895 6894 ] final   54.99 input  -60.11 | X-H torsion
[ 7974 7965 7964 7962 ] final -130.85 input  175.53 | X-H torsion
[ 8008 7997 7996 7995 ] final   52.09 input   59.86 | X-H torsion
[ 10167 10162 10161 10158 ] final  156.75 input  -65.29 | X-H torsion
[ 10718 10713 10712 10709 ] final -173.21 input   66.30 | X-H torsion
[ 10763 10752 10751 10750 ] final  112.81 input  -60.55 | X-H torsion
[ 11005 11000 10999 10996 ] final  105.41 input  -57.11 | X-H torsion

> <Gold.Protein.ActiveResidues>
 VAL166  LYS551  ARG553  GLY616  TRP617  ASP618  TYR619  PRO620  LYS621  CYS622 
 ASP623  PHE694  ASN695  SER759  ASP760  ASP761  ALA762  ILE779  LEU786  VAL792 
 PHE793  MET794  SER795  GLU796  ALA797  LYS798  CYS799  TRP800  GLU811  SER814 

> <Gold.Protein.RotatedAtoms>
  152.3495  134.7026  160.0240 H   0  0  0  0  0  0  0  0  0  0  0  0  # atno 6907 bound_to 6896
  151.7384  133.3315  159.3367 H   0  0  0  0  0  0  0  0  0  0  0  0  # atno 6908 bound_to 6896
  150.7530  134.6233  159.6192 H   0  0  0  0  0  0  0  0  0  0  0  0  # atno 6909 bound_to 6896
  144.9435  140.7265  143.4832 H   0  0  0  0  0  0  0  0  0  0  0  0  # atno 7974 bound_to 7965
  155.4461  140.3456  155.4295 H   0  0  0  0  0  0  0  0  0  0  0  0  # atno 8008 bound_to 7997
  156.1249  140.1497  156.9181 H   0  0  0  0  0  0  0  0  0  0  0  0  # atno 8009 bound_to 7997
  154.4851  140.0858  156.7446 H   0  0  0  0  0  0  0  0  0  0  0  0  # atno 8010 bound_to 7997
  139.4821  144.4980  151.8210 H   0  0  0  0  0  0  0  0  0  0  0  0  # atno 10167 bound_to 10162
  156.7670  130.9434  151.3119 H   0  0  0  0  0  0  0  0  0  0  0  0  # atno 10718 bound_to 10713
  153.4833  135.3674  155.2454 H   0  0  0  0  0  0  0  0  0  0  0  0  # atno 10763 bound_to 10752
  154.8754  135.3959  154.3674 H   0  0  0  0  0  0  0  0  0  0  0  0  # atno 10764 bound_to 10752
  153.4281  135.7082  153.6314 H   0  0  0  0  0  0  0  0  0  0  0  0  # atno 10765 bound_to 10752
  139.8802  134.9335  156.5510 H   0  0  0  0  0  0  0  0  0  0  0  0  # atno 11005 bound_to 11000
  145.2954  139.1869  143.4718 LP  0  0  0  0  0  0  0  0  0  0  0  0  # atno 17320 bound_to 7965
  146.3294  140.2938  142.8617 LP  0  0  0  0  0  0  0  0  0  0  0  0  # atno 17321 bound_to 7965
  140.4471  144.1907  150.5895 LP  0  0  0  0  0  0  0  0  0  0  0  0  # atno 17342 bound_to 10162
  140.4624  143.2444  151.9202 LP  0  0  0  0  0  0  0  0  0  0  0  0  # atno 17343 bound_to 10162
  157.6708  130.9050  150.0037 LP  0  0  0  0  0  0  0  0  0  0  0  0  # atno 17370 bound_to 10713
  156.1302  130.3643  149.9744 LP  0  0  0  0  0  0  0  0  0  0  0  0  # atno 17371 bound_to 10713
  140.8240  133.8331  155.8922 LP  0  0  0  0  0  0  0  0  0  0  0  0  # atno 17394 bound_to 11000
  140.9391  134.1923  157.4810 LP  0  0  0  0  0  0  0  0  0  0  0  0  # atno 17395 bound_to 11000

$$$$
