AV-unprocessed.smi:1005|AV-procd|sdf|4384|dock8
  -GOLD-   22720 2313D 1   1.00000     0.00000
 Structure written by MMmdl.
 58 60  0  0  0  0  0  0  0  0  4 V2000
  153.2319  142.7695  161.1390 C   0  0  0  0  0  0  0  0  0  0  0  0
  152.4805  142.4662  159.8538 C   0  0  0  0  0  0  0  0  0  0  0  0
  152.4351  141.1294  159.3983 C   0  0  0  0  0  0  0  0  0  0  0  0
  151.7440  140.8845  158.2175 C   0  0  0  0  0  0  0  0  0  0  0  0
  151.5233  139.6967  157.5177 N   0  3  0  0  0  0  0  0  0  0  0  0
  150.7852  139.9556  156.4033 C   0  0  0  0  0  0  0  0  0  0  0  0
  150.5343  141.2932  156.3774 N   0  0  0  0  0  0  0  0  0  0  0  0
  149.7814  142.0875  155.3947 C   0  0  0  0  0  0  0  0  0  0  0  0
  148.8872  141.2244  154.4819 C   0  0  2  0  0  0  0  0  0  0  0  0
  149.6851  140.5764  153.5100 O   0  0  0  0  0  0  0  0  0  0  0  0
  147.8228  142.0743  153.7584 C   0  0  0  0  0  0  0  0  0  0  0  0
  146.8807  142.7402  154.6948 N   0  3  2  0  0  0  0  0  0  0  0  0
  146.3327  141.8067  155.7065 C   0  0  0  0  0  0  0  0  0  0  0  0
  145.4250  142.5592  156.6923 C   0  0  0  0  0  0  0  0  0  0  0  0
  144.3878  143.2172  155.9747 O   0  0  0  0  0  0  0  0  0  0  0  0
  144.8902  144.1878  155.0614 C   0  0  2  0  0  0  0  0  0  0  0  0
  143.6865  144.8845  154.3990 C   0  0  0  0  0  0  0  0  0  0  0  0
  143.0025  145.8394  155.3088 N   0  3  0  0  0  0  0  0  0  0  0  0
  143.8595  146.9744  155.7233 C   0  0  0  0  0  0  0  0  0  0  0  0
  141.7128  146.3096  154.7563 C   0  0  0  0  0  0  0  0  0  0  0  0
  145.7792  143.4737  154.0226 C   0  0  0  0  0  0  0  0  0  0  0  0
  151.1093  141.9133  157.4943 C   0  0  0  0  0  0  0  0  0  0  0  0
  151.1419  143.2356  157.9314 C   0  0  0  0  0  0  0  0  0  0  0  0
  151.8403  143.5054  159.1302 C   0  0  0  0  0  0  0  0  0  0  0  0
  151.8940  144.9393  159.6296 C   0  0  0  0  0  0  0  0  0  0  0  0
  153.7042  141.8751  161.5462 H   0  0  0  0  0  0  0  0  0  0  0  0
  152.5520  143.1619  161.8954 H   0  0  0  0  0  0  0  0  0  0  0  0
  154.0156  143.5065  160.9612 H   0  0  0  0  0  0  0  0  0  0  0  0
  152.9189  140.3327  159.9445 H   0  0  0  0  0  0  0  0  0  0  0  0
  150.4582  139.2293  155.6729 H   0  0  0  0  0  0  0  0  0  0  0  0
  149.1648  142.7890  155.9582 H   0  0  0  0  0  0  0  0  0  0  0  0
  150.4766  142.6942  154.8139 H   0  0  0  0  0  0  0  0  0  0  0  0
  148.4111  140.4592  155.0941 H   0  0  0  0  0  0  0  0  0  0  0  0
  149.1163  140.0987  152.9248 H   0  0  0  0  0  0  0  0  0  0  0  0
  148.2970  142.8271  153.1267 H   0  0  0  0  0  0  0  0  0  0  0  0
  147.2622  141.4225  153.0860 H   0  0  0  0  0  0  0  0  0  0  0  0
  145.7706  141.0149  155.2084 H   0  0  0  0  0  0  0  0  0  0  0  0
  147.1469  141.3281  156.2522 H   0  0  0  0  0  0  0  0  0  0  0  0
  144.9777  141.8609  157.4000 H   0  0  0  0  0  0  0  0  0  0  0  0
  145.9969  143.2822  157.2763 H   0  0  0  0  0  0  0  0  0  0  0  0
  145.4964  144.9173  155.5993 H   0  0  0  0  0  0  0  0  0  0  0  0
  143.9953  145.4083  153.4929 H   0  0  0  0  0  0  0  0  0  0  0  0
  142.9809  144.1153  154.0808 H   0  0  0  0  0  0  0  0  0  0  0  0
  144.1643  147.5690  154.8612 H   0  0  0  0  0  0  0  0  0  0  0  0
  144.7571  146.6339  156.2377 H   0  0  0  0  0  0  0  0  0  0  0  0
  143.3225  147.6280  156.4115 H   0  0  0  0  0  0  0  0  0  0  0  0
  141.8638  146.8711  153.8333 H   0  0  0  0  0  0  0  0  0  0  0  0
  141.1994  146.9555  155.4695 H   0  0  0  0  0  0  0  0  0  0  0  0
  141.0521  145.4687  154.5422 H   0  0  0  0  0  0  0  0  0  0  0  0
  146.1829  144.2116  153.3305 H   0  0  0  0  0  0  0  0  0  0  0  0
  145.1839  142.7750  153.4325 H   0  0  0  0  0  0  0  0  0  0  0  0
  150.6597  144.0301  157.3812 H   0  0  0  0  0  0  0  0  0  0  0  0
  151.3026  145.6046  159.0000 H   0  0  0  0  0  0  0  0  0  0  0  0
  152.9210  145.3050  159.6295 H   0  0  0  0  0  0  0  0  0  0  0  0
  151.5012  145.0081  160.6443 H   0  0  0  0  0  0  0  0  0  0  0  0
  142.7713  145.3236  156.1463 H   0  0  0  0  0  0  0  0  0  0  0  0
  147.4263  143.4205  155.2053 H   0  0  0  0  0  0  0  0  0  0  0  0
  151.8491  138.7752  157.7805 H   0  0  0  0  0  0  0  0  0  0  0  0
  1  2  1  0  0  0  0
  1 26  1  0  0  0  0
  1 27  1  0  0  0  0
  1 28  1  0  0  0  0
  2 24  1  0  0  0  0
  2  3  2  0  0  0  0
  3  4  1  0  0  0  0
  3 29  1  0  0  0  0
  4 22  2  0  0  0  0
  4  5  1  0  0  0  0
  5  6  2  0  0  0  0
  5 58  1  0  0  0  0
  6  7  1  0  0  0  0
  6 30  1  0  0  0  0
  7  8  1  0  0  0  0
  7 22  1  0  0  0  0
  8  9  1  0  0  0  0
  8 31  1  0  0  0  0
  8 32  1  0  0  0  0
  9 10  1  0  0  0  0
  9 11  1  0  0  0  0
  9 33  1  0  0  0  0
 10 34  1  0  0  0  0
 11 12  1  0  0  0  0
 11 35  1  0  0  0  0
 11 36  1  0  0  0  0
 12 21  1  0  0  0  0
 12 13  1  0  0  0  0
 12 57  1  0  0  0  0
 13 14  1  0  0  0  0
 13 37  1  0  0  0  0
 13 38  1  0  0  0  0
 14 15  1  0  0  0  0
 14 39  1  0  0  0  0
 14 40  1  0  0  0  0
 15 16  1  0  0  0  0
 16 17  1  0  0  0  0
 16 21  1  0  0  0  0
 16 41  1  0  0  0  0
 17 18  1  0  0  0  0
 17 42  1  0  0  0  0
 17 43  1  0  0  0  0
 18 19  1  0  0  0  0
 18 20  1  0  0  0  0
 18 56  1  0  0  0  0
 19 44  1  0  0  0  0
 19 45  1  0  0  0  0
 19 46  1  0  0  0  0
 20 47  1  0  0  0  0
 20 48  1  0  0  0  0
 20 49  1  0  0  0  0
 21 50  1  0  0  0  0
 21 51  1  0  0  0  0
 22 23  1  0  0  0  0
 23 24  2  0  0  0  0
 23 52  1  0  0  0  0
 24 25  1  0  0  0  0
 25 53  1  0  0  0  0
 25 54  1  0  0  0  0
 25 55  1  0  0  0  0
M  CHG  1   5   1
M  CHG  1  12   1
M  CHG  1  18   1
M  END
> <s_m_source_file>
AV-unprocessed.smi

> <i_m_source_file_index>
1005

> <i_lp_mmshare_version>
43012

> <i_f3d_flags>
0

> <s_epik_input>
W0NIM11jKFtjSF0xKWMoW0NIM10pW2NIXWMoYzEyKW4oW2NIXW4yKVtDSDJdW0NASF0oW09IXSlbQ0gyXU4zW0NIMl1bQ0gyXU9bQ0BIXShbQ0gyXTMpW0NIMl1OKFtDSDNdKVtDSDNd

> <s_epik_cmdline>
J2VwaWtfcHl0aG9uJywgJy1waCcsICc3LjAnLCAnLXRuJywgJzgnLCAnLW1hJywgJzIwMCcsICctbWV0YWxfYmluZGluZycsICctaW1hZScsICc8aW5maWxlLm1hZT4nLCAnLW9tYWUnLCAnPG91dGZpbGUubWFlPic=

> <r_epik_Ionization_Penalty>
2.30802

> <r_epik_Ionization_Penalty_Charging>
2.30798

> <r_epik_Ionization_Penalty_Neutral>
3.4851e-05

> <r_epik_State_Penalty>
2.52618

> <r_epik_Charging_Adjusted_Penalty>
4.83416

> <i_epik_Tot_Q>
3

> <i_epik_Tot_abs_Q>
3

> <r_epik_Metal_State_Penalty>
6.53149

> <b_epik_Metal_Only>
0

> <s_lp_Force_Field>
OPLS_2005

> <r_lp_Energy>
42.4593

> <b_lp_Chiralities_Consistent>
1

> <s_lp_Variant>
AV-unprocessed.smi:1005-23

> <Gold.Version>
5.8.1

> <Gold.Id.Protein>
6NUR|6NUR_protein|mol2

> <Gold.PLP.Fitness>
58.7765

> <Gold.PLP.PLP>
-51.6576

> <Gold.PLP.part.hbond>
-3.2632

> <Gold.PLP.part.metal>
0.0000

> <Gold.PLP.part.buried>
-5.2760

> <Gold.PLP.part.nonpolar>
-43.0782

> <Gold.PLP.part.repulsive>
0.2825

> <Gold.PLP.ligand.clash>
0.0000

> <Gold.PLP.ligand.torsion>
0.5143

> <Gold.PLP.Chemscore.Hbond>
2.6611

> <Gold.PLP.Chemscore.CHOScore>
0.0000

> <Gold.PLP.Chemscore.Metal>
0.0000

> <Gold.Chemscore.Hbonds>
donor molecule, donor type, donor heavy atom, donor atom, acceptor molecule, acceptor atom, score
      L1  H    10    34       P1  7957  0.34
      L1  H    12    57       P1  8028  1.50
      P1  H  7989  7998       L1    10  0.43
      P1  H  8011  8017       L1    10  0.29

> <Gold.PLP.Chemscore.Internal.Correction>
0.1643

> <Gold.Rescore>
     Score         DG    S(hbond)    S(metal)    S(lipo)     H(rot)  DE(clash)    DE(int)     intcor
     17.89     -19.67       1.40        0.00     137.31       2.56       1.24       0.54       ----

> <Gold.Chemscore.Fitness>
17.8932

> <Gold.Chemscore.DG>
-19.6693

> <Gold.Chemscore.ZeroCoef>
-5.4800

> <Gold.Chemscore.Hbond>
1.3980

> <Gold.Chemscore.Metal>
0.0000

> <Gold.Chemscore.Lipo>
137.3071

> <Gold.Chemscore.Internal_Hbond>
0.0000

> <Gold.Chemscore.DEClash>
1.2405

> <Gold.Chemscore.DEInternal>
0.5356

> <Gold.Chemscore.Rot>
2.5566

> <Gold.Chemscore.Internal.Correction>
   9.000000E+99

> <Gold.Chemscore.Hbonds>
donor molecule, donor type, donor heavy atom, donor atom, acceptor molecule, acceptor atom, score
      L1  H    10    34       P1  7957  0.34
      L1  H    12    57       P1  8028  0.09
      P1  H  7989  7998       L1    10  0.43

> <Gold.Chemscore.Hbond.Weighted>
-4.6693

> <Gold.Chemscore.Metal.Weighted>
-0.0000

> <Gold.Chemscore.Lipo.Weighted>
-16.0649

> <Gold.Chemscore.Internal_Hbond.Weighted>
0.0000

> <Gold.Chemscore.DEClash.Weighted>
1.2405

> <Gold.Chemscore.DEInternal.Weighted>
0.5356

> <Gold.Chemscore.Rot.Weighted>
6.5450

> <Gold.Chemscore.Internal.Correction.Weighted>
   9.000000E+99

> <Gold.Protein.RotatedTorsions>
[ 6907 6896 6895 6894 ] final -141.05 input  -60.11 | X-H torsion
[ 7974 7965 7964 7962 ] final   -9.13 input  175.53 | X-H torsion
[ 8008 7997 7996 7995 ] final   85.73 input   59.86 | X-H torsion
[ 10167 10162 10161 10158 ] final  157.35 input  -65.29 | X-H torsion
[ 10718 10713 10712 10709 ] final -123.47 input   66.30 | X-H torsion
[ 10763 10752 10751 10750 ] final  -94.52 input  -60.55 | X-H torsion
[ 11005 11000 10999 10996 ] final  -15.20 input  -57.11 | X-H torsion

> <Gold.Protein.ActiveResidues>
 VAL166  LYS551  ARG553  GLY616  TRP617  ASP618  TYR619  PRO620  LYS621  CYS622 
 ASP623  PHE694  ASN695  SER759  ASP760  ASP761  ALA762  ILE779  LEU786  VAL792 
 PHE793  MET794  SER795  GLU796  ALA797  LYS798  CYS799  TRP800  GLU811  SER814 

> <Gold.Protein.RotatedAtoms>
  151.0687  133.5484  159.2628 H   0  0  0  0  0  0  0  0  0  0  0  0  # atno 6907 bound_to 6896
  151.2431  135.0595  159.9043 H   0  0  0  0  0  0  0  0  0  0  0  0  # atno 6908 bound_to 6896
  152.5408  134.0459  159.8142 H   0  0  0  0  0  0  0  0  0  0  0  0  # atno 6909 bound_to 6896
  146.2261  140.2570  142.8350 H   0  0  0  0  0  0  0  0  0  0  0  0  # atno 7974 bound_to 7965
  155.9537  140.3399  155.6430 H   0  0  0  0  0  0  0  0  0  0  0  0  # atno 8008 bound_to 7997
  155.6887  140.0746  157.2475 H   0  0  0  0  0  0  0  0  0  0  0  0  # atno 8009 bound_to 7997
  154.4127  140.1661  156.2050 H   0  0  0  0  0  0  0  0  0  0  0  0  # atno 8010 bound_to 7997
  139.4823  144.4926  151.8286 H   0  0  0  0  0  0  0  0  0  0  0  0  # atno 10167 bound_to 10162
  156.1505  130.6531  150.9906 H   0  0  0  0  0  0  0  0  0  0  0  0  # atno 10718 bound_to 10713
  154.7063  135.5154  153.8600 H   0  0  0  0  0  0  0  0  0  0  0  0  # atno 10763 bound_to 10752
  153.0744  135.6611  154.0187 H   0  0  0  0  0  0  0  0  0  0  0  0  # atno 10764 bound_to 10752
  154.0037  135.3008  155.3379 H   0  0  0  0  0  0  0  0  0  0  0  0  # atno 10765 bound_to 10752
  140.7942  133.8264  155.9408 H   0  0  0  0  0  0  0  0  0  0  0  0  # atno 11005 bound_to 11000
  144.9368  140.8035  143.5655 LP  0  0  0  0  0  0  0  0  0  0  0  0  # atno 17320 bound_to 7965
  145.2518  139.2028  143.4938 LP  0  0  0  0  0  0  0  0  0  0  0  0  # atno 17321 bound_to 7965
  140.4411  144.1985  150.5891 LP  0  0  0  0  0  0  0  0  0  0  0  0  # atno 17342 bound_to 10162
  140.4682  143.2423  151.9126 LP  0  0  0  0  0  0  0  0  0  0  0  0  # atno 17343 bound_to 10162
  157.6653  131.0873  150.7743 LP  0  0  0  0  0  0  0  0  0  0  0  0  # atno 17370 bound_to 10713
  156.7812  130.4860  149.5401 LP  0  0  0  0  0  0  0  0  0  0  0  0  # atno 17371 bound_to 10713
  140.9359  134.1962  157.4831 LP  0  0  0  0  0  0  0  0  0  0  0  0  # atno 17394 bound_to 11000
  139.8728  134.9852  156.5272 LP  0  0  0  0  0  0  0  0  0  0  0  0  # atno 17395 bound_to 11000

$$$$
