AV-unprocessed.smi:2191|AV-procd|sdf|8892|dock7
  -GOLD-   2272012 93D 1   1.00000     0.00000
 Structure written by MMmdl.
 36 38  0  0  0  0  0  0  0  0  1 V2000
  146.3484  138.0880  150.6234 O   0  0  0  0  0  0  0  0  0  0  0  0
  146.0878  137.8941  152.0000 C   0  0  2  0  0  0  0  0  0  0  0  0
  146.8792  138.9451  152.7940 C   0  0  0  0  0  0  0  0  0  0  0  0
  148.0046  138.3162  153.3926 O   0  0  0  0  0  0  0  0  0  0  0  0
  149.0263  139.1137  153.8625 C   0  0  0  0  0  0  0  0  0  0  0  0
  150.3249  138.5638  153.8461 C   0  0  0  0  0  0  0  0  0  0  0  0
  151.4291  139.3073  154.3053 C   0  0  0  0  0  0  0  0  0  0  0  0
  151.2438  140.6156  154.7887 C   0  0  0  0  0  0  0  0  0  0  0  0
  149.9534  141.1767  154.8125 C   0  0  0  0  0  0  0  0  0  0  0  0
  148.8491  140.4330  154.3521 C   0  0  0  0  0  0  0  0  0  0  0  0
  146.4879  136.4582  152.3916 C   0  0  0  0  0  0  0  0  0  0  0  0
  145.7128  135.4497  151.6902 N   0  0  0  0  0  0  0  0  0  0  0  0
  144.5954  135.6474  150.9646 C   0  0  0  0  0  0  0  0  0  0  0  0
  144.0358  134.5795  150.4032 N   0  0  0  0  0  0  0  0  0  0  0  0
  144.8891  133.5694  150.8132 C   0  0  0  0  0  0  0  0  0  0  0  0
  144.8544  132.1798  150.5574 C   0  0  0  0  0  0  0  0  0  0  0  0
  145.8453  131.3299  151.0916 C   0  0  0  0  0  0  0  0  0  0  0  0
  146.8854  131.8550  151.8860 C   0  0  0  0  0  0  0  0  0  0  0  0
  146.9420  133.2364  152.1530 C   0  0  0  0  0  0  0  0  0  0  0  0
  145.9496  134.0809  151.6208 C   0  0  0  0  0  0  0  0  0  0  0  0
  145.5218  138.1594  150.1705 H   0  0  0  0  0  0  0  0  0  0  0  0
  145.0199  138.0251  152.1801 H   0  0  0  0  0  0  0  0  0  0  0  0
  147.2399  139.7173  152.1125 H   0  0  0  0  0  0  0  0  0  0  0  0
  146.2415  139.4269  153.5376 H   0  0  0  0  0  0  0  0  0  0  0  0
  150.4760  137.5599  153.4766 H   0  0  0  0  0  0  0  0  0  0  0  0
  152.4178  138.8734  154.2865 H   0  0  0  0  0  0  0  0  0  0  0  0
  152.0895  141.1876  155.1408 H   0  0  0  0  0  0  0  0  0  0  0  0
  149.8097  142.1805  155.1843 H   0  0  0  0  0  0  0  0  0  0  0  0
  147.8758  140.8984  154.3853 H   0  0  0  0  0  0  0  0  0  0  0  0
  147.5465  136.2894  152.1905 H   0  0  0  0  0  0  0  0  0  0  0  0
  146.3480  136.3073  153.4630 H   0  0  0  0  0  0  0  0  0  0  0  0
  144.1693  136.6324  150.8413 H   0  0  0  0  0  0  0  0  0  0  0  0
  144.0628  131.7667  149.9498 H   0  0  0  0  0  0  0  0  0  0  0  0
  145.8071  130.2694  150.8904 H   0  0  0  0  0  0  0  0  0  0  0  0
  147.6408  131.1967  152.2898 H   0  0  0  0  0  0  0  0  0  0  0  0
  147.7388  133.6424  152.7582 H   0  0  0  0  0  0  0  0  0  0  0  0
  1  2  1  0  0  0  0
  1 21  1  0  0  0  0
  2  3  1  0  0  0  0
  2 11  1  0  0  0  0
  2 22  1  0  0  0  0
  3  4  1  0  0  0  0
  3 23  1  0  0  0  0
  3 24  1  0  0  0  0
  4  5  1  0  0  0  0
  5 10  1  0  0  0  0
  5  6  2  0  0  0  0
  6  7  1  0  0  0  0
  6 25  1  0  0  0  0
  7  8  2  0  0  0  0
  7 26  1  0  0  0  0
  8  9  1  0  0  0  0
  8 27  1  0  0  0  0
  9 10  2  0  0  0  0
  9 28  1  0  0  0  0
 10 29  1  0  0  0  0
 11 12  1  0  0  0  0
 11 30  1  0  0  0  0
 11 31  1  0  0  0  0
 12 20  1  0  0  0  0
 12 13  1  0  0  0  0
 13 14  2  0  0  0  0
 13 32  1  0  0  0  0
 14 15  1  0  0  0  0
 15 20  2  0  0  0  0
 15 16  1  0  0  0  0
 16 17  2  0  0  0  0
 16 33  1  0  0  0  0
 17 18  1  0  0  0  0
 17 34  1  0  0  0  0
 18 19  2  0  0  0  0
 18 35  1  0  0  0  0
 19 20  1  0  0  0  0
 19 36  1  0  0  0  0
M  END
> <s_m_source_file>
AV-unprocessed.smi

> <i_m_source_file_index>
2191

> <i_lp_mmshare_version>
43012

> <i_f3d_flags>
0

> <s_epik_input>
W2NIXTFbY0hdW2NIXVtjSF1jKGMxMiluKFtjSF1uMilbQ0gyXVtDQEhdKFtPSF0pW0NIMl1PYzNbY0hdW2NIXVtjSF1bY0hdW2NIXTM=

> <s_epik_cmdline>
J2VwaWtfcHl0aG9uJywgJy1waCcsICc3LjAnLCAnLXRuJywgJzgnLCAnLW1hJywgJzIwMCcsICctbWV0YWxfYmluZGluZycsICctaW1hZScsICc8aW5maWxlLm1hZT4nLCAnLW9tYWUnLCAnPG91dGZpbGUubWFlPic=

> <r_lp_tautomer_probability>
1

> <r_epik_Ionization_Penalty>
0.0640132

> <r_epik_Ionization_Penalty_Charging>
0

> <r_epik_Ionization_Penalty_Neutral>
0.0640132

> <r_epik_State_Penalty>
0.0557325

> <r_epik_Charging_Adjusted_Penalty>
0.0557325

> <i_epik_Tot_Q>
0

> <i_epik_Tot_abs_Q>
0

> <r_epik_Metal_State_Penalty>
5.8435e-05

> <b_epik_Metal_Only>
0

> <s_lp_Force_Field>
OPLS_2005

> <r_lp_Energy>
16.2786

> <b_lp_Chiralities_Consistent>
1

> <s_lp_Variant>
AV-unprocessed.smi:2191-1

> <Gold.Version>
5.8.1

> <Gold.Id.Protein>
6NUR|6NUR_protein|mol2

> <Gold.PLP.Fitness>
44.2219

> <Gold.PLP.PLP>
-37.6293

> <Gold.PLP.part.hbond>
-2.5613

> <Gold.PLP.part.metal>
0.0000

> <Gold.PLP.part.buried>
-0.8057

> <Gold.PLP.part.nonpolar>
-37.0443

> <Gold.PLP.part.repulsive>
1.3268

> <Gold.PLP.ligand.clash>
0.0000

> <Gold.PLP.ligand.torsion>
1.2048

> <Gold.PLP.Chemscore.Hbond>
1.9920

> <Gold.PLP.Chemscore.CHOScore>
1.0000

> <Gold.PLP.Chemscore.Metal>
0.0000

> <Gold.Chemscore.Hbonds>
donor molecule, donor type, donor heavy atom, donor atom, acceptor molecule, acceptor atom, score
      L1  H     1    21       P1 10171  1.00
      P1  H  7954  7966       L1     1  0.94
      L1  C    13    32       P1 10171  1.00

> <Gold.PLP.Chemscore.Internal.Correction>
0.0261

> <Gold.Rescore>
     Score         DG    S(hbond)    S(metal)    S(lipo)     H(rot)  DE(clash)    DE(int)     intcor
     13.63     -17.04       1.89        0.00      93.39       2.22       1.91       1.50       ----

> <Gold.Chemscore.Fitness>
13.6258

> <Gold.Chemscore.DG>
-17.0371

> <Gold.Chemscore.ZeroCoef>
-5.4800

> <Gold.Chemscore.Hbond>
1.8904

> <Gold.Chemscore.Metal>
0.0000

> <Gold.Chemscore.Lipo>
93.3894

> <Gold.Chemscore.Internal_Hbond>
0.0000

> <Gold.Chemscore.DEClash>
1.9102

> <Gold.Chemscore.DEInternal>
1.5011

> <Gold.Chemscore.Rot>
2.2200

> <Gold.Chemscore.Internal.Correction>
   9.000000E+99

> <Gold.Chemscore.Hbonds>
donor molecule, donor type, donor heavy atom, donor atom, acceptor molecule, acceptor atom, score
      L1  H     1    21       P1 10171  1.00
      P1  H  7954  7966       L1     1  0.89

> <Gold.Chemscore.Hbond.Weighted>
-6.3138

> <Gold.Chemscore.Metal.Weighted>
-0.0000

> <Gold.Chemscore.Lipo.Weighted>
-10.9266

> <Gold.Chemscore.Internal_Hbond.Weighted>
0.0000

> <Gold.Chemscore.DEClash.Weighted>
1.9102

> <Gold.Chemscore.DEInternal.Weighted>
1.5011

> <Gold.Chemscore.Rot.Weighted>
5.6832

> <Gold.Chemscore.Internal.Correction.Weighted>
   9.000000E+99

> <Gold.Protein.RotatedTorsions>
[ 6907 6896 6895 6894 ] final   81.24 input  -60.11 | X-H torsion
[ 7974 7965 7964 7962 ] final -177.92 input  175.53 | X-H torsion
[ 8008 7997 7996 7995 ] final   24.10 input   59.86 | X-H torsion
[ 10167 10162 10161 10158 ] final -169.10 input  -65.29 | X-H torsion
[ 10718 10713 10712 10709 ] final -163.56 input   66.30 | X-H torsion
[ 10763 10752 10751 10750 ] final   46.95 input  -60.55 | X-H torsion
[ 11005 11000 10999 10996 ] final  -77.04 input  -57.11 | X-H torsion

> <Gold.Protein.ActiveResidues>
 VAL166  LYS551  ARG553  GLY616  TRP617  ASP618  TYR619  PRO620  LYS621  CYS622 
 ASP623  PHE694  ASN695  SER759  ASP760  ASP761  ALA762  ILE779  LEU786  VAL792 
 PHE793  MET794  SER795  GLU796  ALA797  LYS798  CYS799  TRP800  GLU811  SER814 

> <Gold.Protein.RotatedAtoms>
  152.5262  134.3234  159.9156 H   0  0  0  0  0  0  0  0  0  0  0  0  # atno 6907 bound_to 6896
  151.3184  133.4044  159.2660 H   0  0  0  0  0  0  0  0  0  0  0  0  # atno 6908 bound_to 6896
  150.9980  134.9316  159.7995 H   0  0  0  0  0  0  0  0  0  0  0  0  # atno 6909 bound_to 6896
  144.7129  140.0947  143.6419 H   0  0  0  0  0  0  0  0  0  0  0  0  # atno 7974 bound_to 7965
  154.9910  140.3114  155.4906 H   0  0  0  0  0  0  0  0  0  0  0  0  # atno 8008 bound_to 7997
  156.2939  140.2249  156.4955 H   0  0  0  0  0  0  0  0  0  0  0  0  # atno 8009 bound_to 7997
  154.7703  140.0453  157.1034 H   0  0  0  0  0  0  0  0  0  0  0  0  # atno 8010 bound_to 7997
  139.5944  144.1144  152.1672 H   0  0  0  0  0  0  0  0  0  0  0  0  # atno 10167 bound_to 10162
  156.6264  130.8911  151.2968 H   0  0  0  0  0  0  0  0  0  0  0  0  # atno 10718 bound_to 10713
  152.9805  135.5992  154.3683 H   0  0  0  0  0  0  0  0  0  0  0  0  # atno 10763 bound_to 10752
  154.3359  135.2768  155.2450 H   0  0  0  0  0  0  0  0  0  0  0  0  # atno 10764 bound_to 10752
  154.4553  135.5979  153.6274 H   0  0  0  0  0  0  0  0  0  0  0  0  # atno 10765 bound_to 10752
  141.1658  133.7007  156.7760 H   0  0  0  0  0  0  0  0  0  0  0  0  # atno 11005 bound_to 11000
  145.9590  139.2787  143.1167 LP  0  0  0  0  0  0  0  0  0  0  0  0  # atno 17320 bound_to 7965
  145.9241  140.9094  143.0390 LP  0  0  0  0  0  0  0  0  0  0  0  0  # atno 17321 bound_to 7965
  140.0726  144.5767  150.7180 LP  0  0  0  0  0  0  0  0  0  0  0  0  # atno 17342 bound_to 10162
  140.7199  143.2579  151.4311 LP  0  0  0  0  0  0  0  0  0  0  0  0  # atno 17343 bound_to 10162
  157.7213  130.9562  150.1449 LP  0  0  0  0  0  0  0  0  0  0  0  0  # atno 17370 bound_to 10713
  156.2270  130.3679  149.8489 LP  0  0  0  0  0  0  0  0  0  0  0  0  # atno 17371 bound_to 10713
  140.2429  134.8599  157.3592 LP  0  0  0  0  0  0  0  0  0  0  0  0  # atno 17394 bound_to 11000
  140.1778  134.4528  155.7791 LP  0  0  0  0  0  0  0  0  0  0  0  0  # atno 17395 bound_to 11000

$$$$
