AV-unprocessed.smi:2780|AV-procd|sdf|10715|dock6
  -GOLD-   2272015153D 1   1.00000     0.00000
 Structure written by MMmdl.
 47 49  0  0  0  0  0  0  0  0  2 V2000
  148.8478  130.5483  154.9512 C   0  0  0  0  0  0  0  0  0  0  0  0
  147.9109  130.5963  153.7559 C   0  0  0  0  0  0  0  0  0  0  0  0
  147.5392  129.4510  153.1525 C   0  0  0  0  0  0  0  0  0  0  0  0
  146.5567  129.3706  152.0073 C   0  0  0  0  0  0  0  0  0  0  0  0
  145.6778  130.6221  151.9491 C   0  0  0  0  0  0  0  0  0  0  0  0
  146.5230  131.9050  152.0085 C   0  0  1  0  0  0  0  0  0  0  0  0
  145.6029  133.1315  151.8513 C   0  0  0  0  0  0  0  0  0  0  0  0
  147.4001  131.9778  153.2968 C   0  0  2  0  0  0  0  0  0  0  0  0
  148.5474  133.0041  153.1029 C   0  0  0  0  0  0  0  0  0  0  0  0
  148.2430  134.3231  153.6941 N   0  3  0  0  0  0  0  0  0  0  0  0
  148.9279  134.5822  154.9757 C   0  0  0  0  0  0  0  0  0  0  0  0
  149.5372  135.9924  155.0168 C   0  0  0  0  0  0  0  0  0  0  0  0
  149.8154  136.4368  156.3732 N   0  0  0  0  0  0  0  0  0  0  0  0
  149.1934  136.0815  157.5087 C   0  0  0  0  0  0  0  0  0  0  0  0
  149.6462  136.6768  158.6107 N   0  0  0  0  0  0  0  0  0  0  0  0
  150.6485  137.5146  158.1655 N   0  0  0  0  0  0  0  0  0  0  0  0
  150.7127  137.3292  156.8419 C   0  0  0  0  0  0  0  0  0  0  0  0
  151.6496  138.0742  155.9452 C   0  0  0  0  0  0  0  0  0  0  0  0
  151.6654  139.5864  155.9331 C   0  0  0  0  0  0  0  0  0  0  0  0
  151.1519  138.8334  154.7345 C   0  0  0  0  0  0  0  0  0  0  0  0
  148.4205  131.0941  155.7917 H   0  0  0  0  0  0  0  0  0  0  0  0
  149.8198  130.9750  154.7052 H   0  0  0  0  0  0  0  0  0  0  0  0
  149.0187  129.5224  155.2798 H   0  0  0  0  0  0  0  0  0  0  0  0
  147.9392  128.5069  153.4936 H   0  0  0  0  0  0  0  0  0  0  0  0
  147.1122  129.2406  151.0780 H   0  0  0  0  0  0  0  0  0  0  0  0
  145.9308  128.4867  152.1339 H   0  0  0  0  0  0  0  0  0  0  0  0
  145.0785  130.5999  151.0380 H   0  0  0  0  0  0  0  0  0  0  0  0
  144.9732  130.6109  152.7818 H   0  0  0  0  0  0  0  0  0  0  0  0
  147.1913  131.8805  151.1459 H   0  0  0  0  0  0  0  0  0  0  0  0
  144.9132  133.2180  152.6916 H   0  0  0  0  0  0  0  0  0  0  0  0
  145.0040  133.0547  150.9432 H   0  0  0  0  0  0  0  0  0  0  0  0
  146.1590  134.0649  151.7832 H   0  0  0  0  0  0  0  0  0  0  0  0
  146.7568  132.3319  154.1040 H   0  0  0  0  0  0  0  0  0  0  0  0
  149.4687  132.6100  153.5343 H   0  0  0  0  0  0  0  0  0  0  0  0
  148.7535  133.1722  152.0471 H   0  0  0  0  0  0  0  0  0  0  0  0
  148.5095  135.0391  153.0332 H   0  0  0  0  0  0  0  0  0  0  0  0
  148.2043  134.4767  155.7850 H   0  0  0  0  0  0  0  0  0  0  0  0
  149.6999  133.8292  155.1406 H   0  0  0  0  0  0  0  0  0  0  0  0
  150.4482  136.0337  154.4194 H   0  0  0  0  0  0  0  0  0  0  0  0
  148.8426  136.7050  154.5708 H   0  0  0  0  0  0  0  0  0  0  0  0
  148.3828  135.3678  157.5307 H   0  0  0  0  0  0  0  0  0  0  0  0
  152.6000  137.5507  155.8594 H   0  0  0  0  0  0  0  0  0  0  0  0
  150.9267  140.1106  156.5355 H   0  0  0  0  0  0  0  0  0  0  0  0
  152.6318  140.0782  155.8438 H   0  0  0  0  0  0  0  0  0  0  0  0
  151.7763  138.8207  153.8435 H   0  0  0  0  0  0  0  0  0  0  0  0
  150.0795  138.8570  154.5509 H   0  0  0  0  0  0  0  0  0  0  0  0
  147.2465  134.3803  153.8480 H   0  0  0  0  0  0  0  0  0  0  0  0
  1  2  1  0  0  0  0
  1 21  1  0  0  0  0
  1 22  1  0  0  0  0
  1 23  1  0  0  0  0
  2  8  1  0  0  0  0
  2  3  2  0  0  0  0
  3  4  1  0  0  0  0
  3 24  1  0  0  0  0
  4  5  1  0  0  0  0
  4 25  1  0  0  0  0
  4 26  1  0  0  0  0
  5  6  1  0  0  0  0
  5 27  1  0  0  0  0
  5 28  1  0  0  0  0
  6  7  1  0  0  0  0
  6  8  1  0  0  0  0
  6 29  1  0  0  0  0
  7 30  1  0  0  0  0
  7 31  1  0  0  0  0
  7 32  1  0  0  0  0
  8  9  1  0  0  0  0
  8 33  1  0  0  0  0
  9 10  1  0  0  0  0
  9 34  1  0  0  0  0
  9 35  1  0  0  0  0
 10 11  1  0  0  0  0
 10 36  1  0  0  0  0
 10 47  1  0  0  0  0
 11 12  1  0  0  0  0
 11 37  1  0  0  0  0
 11 38  1  0  0  0  0
 12 13  1  0  0  0  0
 12 39  1  0  0  0  0
 12 40  1  0  0  0  0
 13 17  1  0  0  0  0
 13 14  1  0  0  0  0
 14 15  2  0  0  0  0
 14 41  1  0  0  0  0
 15 16  1  0  0  0  0
 16 17  2  0  0  0  0
 17 18  1  0  0  0  0
 18 20  1  0  0  0  0
 18 19  1  0  0  0  0
 18 42  1  0  0  0  0
 19 20  1  0  0  0  0
 19 43  1  0  0  0  0
 19 44  1  0  0  0  0
 20 45  1  0  0  0  0
 20 46  1  0  0  0  0
M  CHG  1  10   1
M  END
> <s_m_source_file>
AV-unprocessed.smi

> <i_m_source_file_index>
2780

> <i_lp_mmshare_version>
43012

> <i_f3d_flags>
0

> <s_epik_input>
W0NIM11DMT1bQ0hdW0NIMl1bQ0gyXVtDQEBIXShbQ0gzXSlbQ0BIXTFbQ0gyXVtOSF1bQ0gyXVtDSDJdbjJbY0hdbm5jMltDSF0zW0NIMl1bQ0gyXTM=

> <s_epik_cmdline>
J2VwaWtfcHl0aG9uJywgJy1waCcsICc3LjAnLCAnLXRuJywgJzgnLCAnLW1hJywgJzIwMCcsICctbWV0YWxfYmluZGluZycsICctaW1hZScsICc8aW5maWxlLm1hZT4nLCAnLW9tYWUnLCAnPG91dGZpbGUubWFlPic=

> <r_lp_tautomer_probability>
1

> <r_epik_Ionization_Penalty>
0.00176214

> <r_epik_Ionization_Penalty_Charging>
0.00175191

> <r_epik_Ionization_Penalty_Neutral>
1.02377e-05

> <r_epik_State_Penalty>
-0

> <r_epik_Charging_Adjusted_Penalty>
0.00175191

> <i_epik_Tot_Q>
1

> <i_epik_Tot_abs_Q>
1

> <r_epik_Metal_State_Penalty>
-0

> <b_epik_Metal_Only>
0

> <s_lp_Force_Field>
OPLS_2005

> <r_lp_Energy>
22.3616

> <b_lp_Chiralities_Consistent>
1

> <s_lp_Variant>
AV-unprocessed.smi:2780-3

> <Gold.Version>
5.8.1

> <Gold.Id.Protein>
6NUR|6NUR_protein|mol2

> <Gold.PLP.Fitness>
39.8844

> <Gold.PLP.PLP>
-34.1559

> <Gold.PLP.part.hbond>
-2.0000

> <Gold.PLP.part.metal>
0.0000

> <Gold.PLP.part.buried>
-2.7670

> <Gold.PLP.part.nonpolar>
-29.1455

> <Gold.PLP.part.repulsive>
0.0000

> <Gold.PLP.ligand.clash>
0.0000

> <Gold.PLP.ligand.torsion>
1.7364

> <Gold.PLP.Chemscore.Hbond>
2.9760

> <Gold.PLP.Chemscore.CHOScore>
0.0000

> <Gold.PLP.Chemscore.Metal>
0.0000

> <Gold.Chemscore.Hbonds>
donor molecule, donor type, donor heavy atom, donor atom, acceptor molecule, acceptor atom, score
      L1  H    10    36       P1  7948  2.00

> <Gold.PLP.Chemscore.Internal.Correction>
0.2734

> <Gold.Rescore>
     Score         DG    S(hbond)    S(metal)    S(lipo)     H(rot)  DE(clash)    DE(int)     intcor
     14.62     -16.32       1.74        0.00      86.18       1.98       0.00       1.70       ----

> <Gold.Chemscore.Fitness>
14.6176

> <Gold.Chemscore.DG>
-16.3184

> <Gold.Chemscore.ZeroCoef>
-5.4800

> <Gold.Chemscore.Hbond>
1.7437

> <Gold.Chemscore.Metal>
0.0000

> <Gold.Chemscore.Lipo>
86.1801

> <Gold.Chemscore.Internal_Hbond>
0.0000

> <Gold.Chemscore.DEClash>
0.0046

> <Gold.Chemscore.DEInternal>
1.6962

> <Gold.Chemscore.Rot>
1.9799

> <Gold.Chemscore.Internal.Correction>
   9.000000E+99

> <Gold.Chemscore.Hbonds>
donor molecule, donor type, donor heavy atom, donor atom, acceptor molecule, acceptor atom, score
      L1  H    10    36       P1  7948  0.70
      P1  H  6896  6908       L1    15  0.01

> <Gold.Chemscore.Hbond.Weighted>
-5.8239

> <Gold.Chemscore.Metal.Weighted>
-0.0000

> <Gold.Chemscore.Lipo.Weighted>
-10.0831

> <Gold.Chemscore.Internal_Hbond.Weighted>
0.0000

> <Gold.Chemscore.DEClash.Weighted>
0.0046

> <Gold.Chemscore.DEInternal.Weighted>
1.6962

> <Gold.Chemscore.Rot.Weighted>
5.0685

> <Gold.Chemscore.Internal.Correction.Weighted>
   9.000000E+99

> <Gold.Protein.RotatedTorsions>
[ 6907 6896 6895 6894 ] final -161.71 input  -60.11 | X-H torsion
[ 7974 7965 7964 7962 ] final  -51.01 input  175.53 | X-H torsion
[ 8008 7997 7996 7995 ] final -172.90 input   59.86 | X-H torsion
[ 10167 10162 10161 10158 ] final  -89.60 input  -65.29 | X-H torsion
[ 10718 10713 10712 10709 ] final   36.85 input   66.30 | X-H torsion
[ 10763 10752 10751 10750 ] final -106.37 input  -60.55 | X-H torsion
[ 11005 11000 10999 10996 ] final  128.90 input  -57.11 | X-H torsion

> <Gold.Protein.ActiveResidues>
 VAL166  LYS551  ARG553  GLY616  TRP617  ASP618  TYR619  PRO620  LYS621  CYS622 
 ASP623  PHE694  ASN695  SER759  ASP760  ASP761  ALA762  ILE779  LEU786  VAL792 
 PHE793  MET794  SER795  GLU796  ALA797  LYS798  CYS799  TRP800  GLU811  SER814 

> <Gold.Protein.RotatedAtoms>
  151.3689  133.3862  159.2697 H   0  0  0  0  0  0  0  0  0  0  0  0  # atno 6907 bound_to 6896
  150.9666  134.9047  159.7773 H   0  0  0  0  0  0  0  0  0  0  0  0  # atno 6908 bound_to 6896
  152.5169  134.3650  159.9350 H   0  0  0  0  0  0  0  0  0  0  0  0  # atno 6909 bound_to 6896
  145.9236  140.7812  142.9635 H   0  0  0  0  0  0  0  0  0  0  0  0  # atno 7974 bound_to 7965
  155.9505  140.1125  157.0981 H   0  0  0  0  0  0  0  0  0  0  0  0  # atno 8008 bound_to 7997
  154.4108  140.1201  156.5112 H   0  0  0  0  0  0  0  0  0  0  0  0  # atno 8009 bound_to 7997
  155.6848  140.3473  155.4872 H   0  0  0  0  0  0  0  0  0  0  0  0  # atno 8010 bound_to 7997
  140.3632  143.2831  151.9589 H   0  0  0  0  0  0  0  0  0  0  0  0  # atno 10167 bound_to 10162
  157.3398  130.7542  149.6904 H   0  0  0  0  0  0  0  0  0  0  0  0  # atno 10718 bound_to 10713
  154.8007  135.4714  154.0270 H   0  0  0  0  0  0  0  0  0  0  0  0  # atno 10763 bound_to 10752
  153.1777  135.6835  153.8527 H   0  0  0  0  0  0  0  0  0  0  0  0  # atno 10764 bound_to 10752
  153.8088  135.3220  155.3376 H   0  0  0  0  0  0  0  0  0  0  0  0  # atno 10765 bound_to 10752
  139.9586  134.9607  156.9070 H   0  0  0  0  0  0  0  0  0  0  0  0  # atno 11005 bound_to 11000
  144.6756  140.2014  143.7386 LP  0  0  0  0  0  0  0  0  0  0  0  0  # atno 17320 bound_to 7965
  145.8518  139.2179  143.1767 LP  0  0  0  0  0  0  0  0  0  0  0  0  # atno 17321 bound_to 7965
  139.4812  144.5974  151.7666 LP  0  0  0  0  0  0  0  0  0  0  0  0  # atno 17342 bound_to 10162
  140.5106  144.1030  150.5994 LP  0  0  0  0  0  0  0  0  0  0  0  0  # atno 17343 bound_to 10162
  155.9706  130.4171  150.4262 LP  0  0  0  0  0  0  0  0  0  0  0  0  # atno 17370 bound_to 10713
  157.2308  131.0503  151.2493 LP  0  0  0  0  0  0  0  0  0  0  0  0  # atno 17371 bound_to 10713
  140.5552  134.0588  155.7381 LP  0  0  0  0  0  0  0  0  0  0  0  0  # atno 17394 bound_to 11000
  141.1260  133.9381  157.2633 LP  0  0  0  0  0  0  0  0  0  0  0  0  # atno 17395 bound_to 11000

$$$$
