AV-unprocessed.smi:3056|AV-procd|sdf|11650|dock1
  -GOLD-   2272017 43D 1   1.00000     0.00000
 Structure written by MMmdl.
 48 49  0  0  0  0  0  0  0  0  2 V2000
  139.5773  136.8539  153.7395 C   0  0  0  0  0  0  0  0  0  0  0  0
  141.0277  136.6062  153.4401 C   0  0  0  0  0  0  0  0  0  0  0  0
  142.0347  137.5652  153.1359 C   0  0  0  0  0  0  0  0  0  0  0  0
  143.2163  137.0150  152.9096 N   0  0  0  0  0  0  0  0  0  0  0  0
  143.0138  135.6897  153.0765 N   0  0  0  0  0  0  0  0  0  0  0  0
  144.1177  134.7608  152.8640 C   0  0  1  0  0  0  0  0  0  0  0  0
  143.8430  133.9039  151.6131 C   0  0  0  0  0  0  0  0  0  0  0  0
  145.4817  135.5042  152.8187 C   0  0  2  0  0  0  0  0  0  0  0  0
  145.6021  136.4359  151.6005 C   0  0  0  0  0  0  0  0  0  0  0  0
  146.6094  134.5396  152.7780 N   0  3  0  0  0  0  0  0  0  0  0  0
  147.0028  133.9412  154.0757 C   0  0  0  0  0  0  0  0  0  0  0  0
  148.4708  133.4850  154.1250 C   0  0  0  0  0  0  0  0  0  0  0  0
  148.9029  132.7692  153.2199 O   0  0  0  0  0  0  0  0  0  0  0  0
  149.2420  133.8757  155.1675 N   0  0  0  0  0  0  0  0  0  0  0  0
  148.7999  134.6653  156.3210 C   0  0  0  0  0  0  0  0  0  0  0  0
  148.8803  133.7713  157.5707 C   0  0  0  0  0  0  0  0  0  0  0  0
  150.2129  133.2893  157.7305 O   0  0  0  0  0  0  0  0  0  0  0  0
  150.6887  132.5453  156.6091 C   0  0  2  0  0  0  0  0  0  0  0  0
  152.1129  132.0704  156.9167 C   0  0  0  0  0  0  0  0  0  0  0  0
  150.6276  133.4353  155.3510 C   0  0  0  0  0  0  0  0  0  0  0  0
  141.6961  135.4161  153.3874 C   0  0  0  0  0  0  0  0  0  0  0  0
  139.3745  137.9102  153.9179 H   0  0  0  0  0  0  0  0  0  0  0  0
  139.2507  136.3109  154.6266 H   0  0  0  0  0  0  0  0  0  0  0  0
  138.9375  136.5389  152.9151 H   0  0  0  0  0  0  0  0  0  0  0  0
  141.9406  138.6391  153.0665 H   0  0  0  0  0  0  0  0  0  0  0  0
  144.1347  134.0769  153.7149 H   0  0  0  0  0  0  0  0  0  0  0  0
  144.5404  133.0704  151.5347 H   0  0  0  0  0  0  0  0  0  0  0  0
  143.9210  134.4907  150.6976 H   0  0  0  0  0  0  0  0  0  0  0  0
  142.8415  133.4729  151.6475 H   0  0  0  0  0  0  0  0  0  0  0  0
  145.5761  136.1258  153.7107 H   0  0  0  0  0  0  0  0  0  0  0  0
  144.8768  137.2482  151.6388 H   0  0  0  0  0  0  0  0  0  0  0  0
  145.4506  135.8929  150.6669 H   0  0  0  0  0  0  0  0  0  0  0  0
  146.5886  136.8985  151.5576 H   0  0  0  0  0  0  0  0  0  0  0  0
  146.3525  133.7952  152.1452 H   0  0  0  0  0  0  0  0  0  0  0  0
  146.7985  134.6373  154.8880 H   0  0  0  0  0  0  0  0  0  0  0  0
  146.3699  133.0671  154.2315 H   0  0  0  0  0  0  0  0  0  0  0  0
  149.4558  135.5294  156.4377 H   0  0  0  0  0  0  0  0  0  0  0  0
  147.7937  135.0694  156.2238 H   0  0  0  0  0  0  0  0  0  0  0  0
  148.6009  134.3374  158.4593 H   0  0  0  0  0  0  0  0  0  0  0  0
  148.1867  132.9325  157.4937 H   0  0  0  0  0  0  0  0  0  0  0  0
  150.0524  131.6696  156.4695 H   0  0  0  0  0  0  0  0  0  0  0  0
  152.5203  131.4898  156.0887 H   0  0  0  0  0  0  0  0  0  0  0  0
  152.1293  131.4382  157.8048 H   0  0  0  0  0  0  0  0  0  0  0  0
  152.7805  132.9137  157.0956 H   0  0  0  0  0  0  0  0  0  0  0  0
  151.0154  132.8895  154.4898 H   0  0  0  0  0  0  0  0  0  0  0  0
  151.2724  134.3076  155.4696 H   0  0  0  0  0  0  0  0  0  0  0  0
  141.3429  134.4068  153.5394 H   0  0  0  0  0  0  0  0  0  0  0  0
  147.4207  135.0115  152.4048 H   0  0  0  0  0  0  0  0  0  0  0  0
  1  2  1  0  0  0  0
  1 22  1  0  0  0  0
  1 23  1  0  0  0  0
  1 24  1  0  0  0  0
  2 21  2  0  0  0  0
  2  3  1  0  0  0  0
  3  4  2  0  0  0  0
  3 25  1  0  0  0  0
  4  5  1  0  0  0  0
  5  6  1  0  0  0  0
  5 21  1  0  0  0  0
  6  7  1  0  0  0  0
  6  8  1  0  0  0  0
  6 26  1  0  0  0  0
  7 27  1  0  0  0  0
  7 28  1  0  0  0  0
  7 29  1  0  0  0  0
  8  9  1  0  0  0  0
  8 10  1  0  0  0  0
  8 30  1  0  0  0  0
  9 31  1  0  0  0  0
  9 32  1  0  0  0  0
  9 33  1  0  0  0  0
 10 11  1  0  0  0  0
 10 34  1  0  0  0  0
 10 48  1  0  0  0  0
 11 12  1  0  0  0  0
 11 35  1  0  0  0  0
 11 36  1  0  0  0  0
 12 13  2  0  0  0  0
 12 14  1  0  0  0  0
 14 20  1  0  0  0  0
 14 15  1  0  0  0  0
 15 16  1  0  0  0  0
 15 37  1  0  0  0  0
 15 38  1  0  0  0  0
 16 17  1  0  0  0  0
 16 39  1  0  0  0  0
 16 40  1  0  0  0  0
 17 18  1  0  0  0  0
 18 19  1  0  0  0  0
 18 20  1  0  0  0  0
 18 41  1  0  0  0  0
 19 42  1  0  0  0  0
 19 43  1  0  0  0  0
 19 44  1  0  0  0  0
 20 45  1  0  0  0  0
 20 46  1  0  0  0  0
 21 47  1  0  0  0  0
M  CHG  1  10   1
M  END
> <s_m_source_file>
AV-unprocessed.smi

> <i_m_source_file_index>
3056

> <i_lp_mmshare_version>
43012

> <i_f3d_flags>
0

> <s_epik_input>
W0NIM11jMVtjSF1ubihbY0hdMSlbQ0BIXShbQ0gzXSlbQ0BIXShbQ0gzXSlbTkhdW0NIMl1DKD1PKU4yW0NIMl1bQ0gyXU9bQ0BASF0oW0NIM10pW0NIMl0y

> <s_epik_cmdline>
J2VwaWtfcHl0aG9uJywgJy1waCcsICc3LjAnLCAnLXRuJywgJzgnLCAnLW1hJywgJzIwMCcsICctbWV0YWxfYmluZGluZycsICctaW1hZScsICc8aW5maWxlLm1hZT4nLCAnLW9tYWUnLCAnPG91dGZpbGUubWFlPic=

> <r_lp_tautomer_probability>
1

> <r_epik_Ionization_Penalty>
0.233715

> <r_epik_Ionization_Penalty_Charging>
0.233698

> <r_epik_Ionization_Penalty_Neutral>
1.68157e-05

> <r_epik_State_Penalty>
0.225221

> <r_epik_Charging_Adjusted_Penalty>
0.458919

> <i_epik_Tot_Q>
1

> <i_epik_Tot_abs_Q>
1

> <r_epik_Metal_State_Penalty>
0.225535

> <b_epik_Metal_Only>
0

> <s_lp_Force_Field>
OPLS_2005

> <r_lp_Energy>
28.2676

> <b_lp_Chiralities_Consistent>
1

> <s_lp_Variant>
AV-unprocessed.smi:3056-6

> <Gold.Version>
5.8.1

> <Gold.Id.Protein>
6NUR|6NUR_protein|mol2

> <Gold.PLP.Fitness>
43.5731

> <Gold.PLP.PLP>
-32.7210

> <Gold.PLP.part.hbond>
-2.0000

> <Gold.PLP.part.metal>
0.0000

> <Gold.PLP.part.buried>
-7.2400

> <Gold.PLP.part.nonpolar>
-23.6543

> <Gold.PLP.part.repulsive>
0.3614

> <Gold.PLP.ligand.clash>
0.0000

> <Gold.PLP.ligand.torsion>
0.6810

> <Gold.PLP.Chemscore.Hbond>
3.0000

> <Gold.PLP.Chemscore.CHOScore>
0.9945

> <Gold.PLP.Chemscore.Metal>
0.0000

> <Gold.Chemscore.Hbonds>
donor molecule, donor type, donor heavy atom, donor atom, acceptor molecule, acceptor atom, score
      L1  H    10    48       P1  7948  2.00
      P1  H  6896  6909       L1    17  0.98
      L1  C     3    25       P1 10175  1.00

> <Gold.PLP.Chemscore.Internal.Correction>
0.2304

> <Gold.Rescore>
     Score         DG    S(hbond)    S(metal)    S(lipo)     H(rot)  DE(clash)    DE(int)     intcor
     13.60     -15.44       1.98        0.00      66.45       1.74       0.01       1.83       ----

> <Gold.Chemscore.Fitness>
13.5963

> <Gold.Chemscore.DG>
-15.4350

> <Gold.Chemscore.ZeroCoef>
-5.4800

> <Gold.Chemscore.Hbond>
1.9828

> <Gold.Chemscore.Metal>
0.0000

> <Gold.Chemscore.Lipo>
66.4541

> <Gold.Chemscore.Internal_Hbond>
0.0000

> <Gold.Chemscore.DEClash>
0.0126

> <Gold.Chemscore.DEInternal>
1.8261

> <Gold.Chemscore.Rot>
1.7354

> <Gold.Chemscore.Internal.Correction>
   9.000000E+99

> <Gold.Chemscore.Hbonds>
donor molecule, donor type, donor heavy atom, donor atom, acceptor molecule, acceptor atom, score
      L1  H    10    48       P1  7948  0.95
      P1  H  6896  6909       L1    17  0.92

> <Gold.Chemscore.Hbond.Weighted>
-6.6225

> <Gold.Chemscore.Metal.Weighted>
-0.0000

> <Gold.Chemscore.Lipo.Weighted>
-7.7751

> <Gold.Chemscore.Internal_Hbond.Weighted>
0.0000

> <Gold.Chemscore.DEClash.Weighted>
0.0126

> <Gold.Chemscore.DEInternal.Weighted>
1.8261

> <Gold.Chemscore.Rot.Weighted>
4.4426

> <Gold.Chemscore.Internal.Correction.Weighted>
   9.000000E+99

> <Gold.Protein.RotatedTorsions>
[ 6907 6896 6895 6894 ] final  -27.46 input  -60.11 | X-H torsion
[ 7974 7965 7964 7962 ] final   46.75 input  175.53 | X-H torsion
[ 8008 7997 7996 7995 ] final -156.04 input   59.86 | X-H torsion
[ 10167 10162 10161 10158 ] final  118.48 input  -65.29 | X-H torsion
[ 10718 10713 10712 10709 ] final  161.74 input   66.30 | X-H torsion
[ 10763 10752 10751 10750 ] final  131.67 input  -60.55 | X-H torsion
[ 11005 11000 10999 10996 ] final   65.28 input  -57.11 | X-H torsion

> <Gold.Protein.ActiveResidues>
 VAL166  LYS551  ARG553  GLY616  TRP617  ASP618  TYR619  PRO620  LYS621  CYS622 
 ASP623  PHE694  ASN695  SER759  ASP760  ASP761  ALA762  ILE779  LEU786  VAL792 
 PHE793  MET794  SER795  GLU796  ALA797  LYS798  CYS799  TRP800  GLU811  SER814 

> <Gold.Protein.RotatedAtoms>
  151.1465  135.0206  159.8648 H   0  0  0  0  0  0  0  0  0  0  0  0  # atno 6907 bound_to 6896
  152.5453  134.1438  159.8500 H   0  0  0  0  0  0  0  0  0  0  0  0  # atno 6908 bound_to 6896
  151.1519  133.4856  159.2628 H   0  0  0  0  0  0  0  0  0  0  0  0  # atno 6909 bound_to 6896
  146.0361  139.4822  142.9807 H   0  0  0  0  0  0  0  0  0  0  0  0  # atno 7974 bound_to 7965
  155.7112  140.0778  157.2370 H   0  0  0  0  0  0  0  0  0  0  0  0  # atno 8008 bound_to 7997
  154.4058  140.1630  156.2351 H   0  0  0  0  0  0  0  0  0  0  0  0  # atno 8009 bound_to 7997
  155.9281  140.3393  155.6230 H   0  0  0  0  0  0  0  0  0  0  0  0  # atno 8010 bound_to 7997
  139.6109  144.7081  151.2847 H   0  0  0  0  0  0  0  0  0  0  0  0  # atno 10167 bound_to 10162
  157.1323  131.0520  151.2365 H   0  0  0  0  0  0  0  0  0  0  0  0  # atno 10718 bound_to 10713
  153.7781  135.3172  155.3362 H   0  0  0  0  0  0  0  0  0  0  0  0  # atno 10763 bound_to 10752
  154.8171  135.4628  154.0678 H   0  0  0  0  0  0  0  0  0  0  0  0  # atno 10764 bound_to 10752
  153.1958  135.6915  153.8379 H   0  0  0  0  0  0  0  0  0  0  0  0  # atno 10765 bound_to 10752
  139.9904  134.6600  156.0101 H   0  0  0  0  0  0  0  0  0  0  0  0  # atno 11005 bound_to 11000
  145.6962  141.0150  143.1529 LP  0  0  0  0  0  0  0  0  0  0  0  0  # atno 17320 bound_to 7965
  144.7052  139.8590  143.7432 LP  0  0  0  0  0  0  0  0  0  0  0  0  # atno 17321 bound_to 7965
  140.7318  143.6841  150.7976 LP  0  0  0  0  0  0  0  0  0  0  0  0  # atno 17342 bound_to 10162
  140.0436  143.5321  152.2706 LP  0  0  0  0  0  0  0  0  0  0  0  0  # atno 17343 bound_to 10162
  157.4381  130.7528  149.7046 LP  0  0  0  0  0  0  0  0  0  0  0  0  # atno 17370 bound_to 10713
  155.9805  130.4028  150.3524 LP  0  0  0  0  0  0  0  0  0  0  0  0  # atno 17371 bound_to 10713
  141.1561  133.6543  156.4166 LP  0  0  0  0  0  0  0  0  0  0  0  0  # atno 17394 bound_to 11000
  140.4919  134.6567  157.5214 LP  0  0  0  0  0  0  0  0  0  0  0  0  # atno 17395 bound_to 11000

$$$$
