AV-unprocessed.smi:866|AV-procd|sdf|3992|dock4
  -GOLD-   22720 1473D 1   1.00000     0.00000
 Structure written by MMmdl.
 34 34  0  0  0  0  0  0  0  0  2 V2000
  152.1390  145.2310  159.0313 C   0  0  0  0  0  0  0  0  0  0  0  0
  151.8026  143.7715  158.9237 C   0  0  0  0  0  0  0  0  0  0  0  0
  152.4185  142.6796  159.5988 C   0  0  0  0  0  0  0  0  0  0  0  0
  151.8846  141.5116  159.2807 N   0  0  0  0  0  0  0  0  0  0  0  0
  150.9144  141.8148  158.3931 N   0  0  0  0  0  0  0  0  0  0  0  0
  150.1068  140.7546  157.8218 C   0  0  0  0  0  0  0  0  0  0  0  0
  148.9461  141.3121  156.9856 C   0  0  0  0  0  0  0  0  0  0  0  0
  149.4463  141.9608  155.7563 N   0  3  0  0  0  0  0  0  0  0  0  0
  149.1072  141.2672  154.4903 C   0  0  2  0  0  0  0  0  0  0  0  0
  147.7280  141.7103  153.9726 C   0  0  0  0  0  0  0  0  0  0  0  0
  149.1491  139.7325  154.6789 C   0  0  0  0  0  0  0  0  0  0  0  0
  150.4927  139.0748  154.3326 C   0  0  0  0  0  0  0  0  0  0  0  0
  150.4407  137.9610  153.5986 N   0  0  0  0  0  0  0  0  0  0  0  0
  151.5587  139.5543  154.7149 O   0  0  0  0  0  0  0  0  0  0  0  0
  150.8399  143.1719  158.1620 C   0  0  0  0  0  0  0  0  0  0  0  0
  152.9315  145.4124  159.7576 H   0  0  0  0  0  0  0  0  0  0  0  0
  151.2770  145.8207  159.3434 H   0  0  0  0  0  0  0  0  0  0  0  0
  152.4790  145.6362  158.0779 H   0  0  0  0  0  0  0  0  0  0  0  0
  153.2342  142.7015  160.3065 H   0  0  0  0  0  0  0  0  0  0  0  0
  150.7506  140.1205  157.2102 H   0  0  0  0  0  0  0  0  0  0  0  0
  149.7266  140.1327  158.6332 H   0  0  0  0  0  0  0  0  0  0  0  0
  148.2598  140.5056  156.7275 H   0  0  0  0  0  0  0  0  0  0  0  0
  148.3834  142.0418  157.5697 H   0  0  0  0  0  0  0  0  0  0  0  0
  149.0255  142.8786  155.7164 H   0  0  0  0  0  0  0  0  0  0  0  0
  149.8532  141.5364  153.7403 H   0  0  0  0  0  0  0  0  0  0  0  0
  147.4713  141.1868  153.0510 H   0  0  0  0  0  0  0  0  0  0  0  0
  147.7008  142.7768  153.7500 H   0  0  0  0  0  0  0  0  0  0  0  0
  146.9438  141.5005  154.7009 H   0  0  0  0  0  0  0  0  0  0  0  0
  148.8907  139.4804  155.7086 H   0  0  0  0  0  0  0  0  0  0  0  0
  148.3880  139.2689  154.0496 H   0  0  0  0  0  0  0  0  0  0  0  0
  151.2914  137.4785  153.3467 H   0  0  0  0  0  0  0  0  0  0  0  0
  149.5457  137.5973  153.3032 H   0  0  0  0  0  0  0  0  0  0  0  0
  150.1171  143.5956  157.4804 H   0  0  0  0  0  0  0  0  0  0  0  0
  150.4484  142.0697  155.8165 H   0  0  0  0  0  0  0  0  0  0  0  0
  1  2  1  0  0  0  0
  1 16  1  0  0  0  0
  1 17  1  0  0  0  0
  1 18  1  0  0  0  0
  2 15  2  0  0  0  0
  2  3  1  0  0  0  0
  3  4  2  0  0  0  0
  3 19  1  0  0  0  0
  4  5  1  0  0  0  0
  5  6  1  0  0  0  0
  5 15  1  0  0  0  0
  6  7  1  0  0  0  0
  6 20  1  0  0  0  0
  6 21  1  0  0  0  0
  7  8  1  0  0  0  0
  7 22  1  0  0  0  0
  7 23  1  0  0  0  0
  8  9  1  0  0  0  0
  8 24  1  0  0  0  0
  8 34  1  0  0  0  0
  9 10  1  0  0  0  0
  9 11  1  0  0  0  0
  9 25  1  0  0  0  0
 10 26  1  0  0  0  0
 10 27  1  0  0  0  0
 10 28  1  0  0  0  0
 11 12  1  0  0  0  0
 11 29  1  0  0  0  0
 11 30  1  0  0  0  0
 12 13  1  0  0  0  0
 12 14  2  0  0  0  0
 13 31  1  0  0  0  0
 13 32  1  0  0  0  0
 15 33  1  0  0  0  0
M  CHG  1   8   1
M  END
> <s_m_source_file>
AV-unprocessed.smi

> <i_m_source_file_index>
866

> <i_lp_mmshare_version>
43012

> <i_f3d_flags>
0

> <s_epik_input>
W0NIM11jMVtjSF1ubihbY0hdMSlbQ0gyXVtDSDJdW05IXVtDQEhdKFtDSDNdKVtDSDJdQyg9TylbTkgyXQ==

> <s_epik_cmdline>
J2VwaWtfcHl0aG9uJywgJy1waCcsICc3LjAnLCAnLXRuJywgJzgnLCAnLW1hJywgJzIwMCcsICctbWV0YWxfYmluZGluZycsICctaW1hZScsICc8aW5maWxlLm1hZT4nLCAnLW9tYWUnLCAnPG91dGZpbGUubWFlPic=

> <r_lp_tautomer_probability>
1

> <r_epik_Ionization_Penalty>
0.0061413

> <r_epik_Ionization_Penalty_Charging>
0.00613574

> <r_epik_Ionization_Penalty_Neutral>
5.56035e-06

> <r_epik_State_Penalty>
0.00452343

> <r_epik_Charging_Adjusted_Penalty>
0.0106592

> <i_epik_Tot_Q>
1

> <i_epik_Tot_abs_Q>
1

> <r_epik_Metal_State_Penalty>
-0

> <b_epik_Metal_Only>
0

> <s_lp_Force_Field>
OPLS_2005

> <r_lp_Energy>
1.4749

> <b_lp_Chiralities_Consistent>
1

> <s_lp_Variant>
AV-unprocessed.smi:866-1

> <Gold.Version>
5.8.1

> <Gold.Id.Protein>
6NUR|6NUR_protein|mol2

> <Gold.PLP.Fitness>
46.8348

> <Gold.PLP.PLP>
-35.5868

> <Gold.PLP.part.hbond>
-4.0813

> <Gold.PLP.part.metal>
0.0000

> <Gold.PLP.part.buried>
-5.3175

> <Gold.PLP.part.nonpolar>
-27.3411

> <Gold.PLP.part.repulsive>
0.2909

> <Gold.PLP.ligand.clash>
0.0000

> <Gold.PLP.ligand.torsion>
1.3596

> <Gold.PLP.Chemscore.Hbond>
3.6257

> <Gold.PLP.Chemscore.CHOScore>
1.0000

> <Gold.PLP.Chemscore.Metal>
0.0000

> <Gold.Chemscore.Hbonds>
donor molecule, donor type, donor heavy atom, donor atom, acceptor molecule, acceptor atom, score
      L1  H     8    24       P1  8028  2.00
      L1  H    13    31       P1  7949  0.04
      L1  H    13    32       P1  7948  0.64
      P1  H  7989  7998       L1    14  0.85
      L1  C    15    33       P1  8028  1.00

> <Gold.PLP.Chemscore.Internal.Correction>
0.0899

> <Gold.Rescore>
     Score         DG    S(hbond)    S(metal)    S(lipo)     H(rot)  DE(clash)    DE(int)     intcor
     13.87     -15.56       2.42        0.00      77.75       2.77       0.35       1.34       ----

> <Gold.Chemscore.Fitness>
13.8729

> <Gold.Chemscore.DG>
-15.5626

> <Gold.Chemscore.ZeroCoef>
-5.4800

> <Gold.Chemscore.Hbond>
2.4213

> <Gold.Chemscore.Metal>
0.0000

> <Gold.Chemscore.Lipo>
77.7498

> <Gold.Chemscore.Internal_Hbond>
0.0000

> <Gold.Chemscore.DEClash>
0.3486

> <Gold.Chemscore.DEInternal>
1.3411

> <Gold.Chemscore.Rot>
2.7740

> <Gold.Chemscore.Internal.Correction>
   9.000000E+99

> <Gold.Chemscore.Hbonds>
donor molecule, donor type, donor heavy atom, donor atom, acceptor molecule, acceptor atom, score
      L1  H     8    24       P1  8028  1.00
      L1  H    13    31       P1  7949  0.03
      L1  H    13    32       P1  7948  0.52
      P1  H  7989  7998       L1    14  0.15

> <Gold.Chemscore.Hbond.Weighted>
-8.0873

> <Gold.Chemscore.Metal.Weighted>
-0.0000

> <Gold.Chemscore.Lipo.Weighted>
-9.0967

> <Gold.Chemscore.Internal_Hbond.Weighted>
0.0000

> <Gold.Chemscore.DEClash.Weighted>
0.3486

> <Gold.Chemscore.DEInternal.Weighted>
1.3411

> <Gold.Chemscore.Rot.Weighted>
7.1014

> <Gold.Chemscore.Internal.Correction.Weighted>
   9.000000E+99

> <Gold.Protein.RotatedTorsions>
[ 6907 6896 6895 6894 ] final  -24.42 input  -60.11 | X-H torsion
[ 7974 7965 7964 7962 ] final  -11.63 input  175.53 | X-H torsion
[ 8008 7997 7996 7995 ] final  -68.72 input   59.86 | X-H torsion
[ 10167 10162 10161 10158 ] final   48.33 input  -65.29 | X-H torsion
[ 10718 10713 10712 10709 ] final    0.36 input   66.30 | X-H torsion
[ 10763 10752 10751 10750 ] final  114.63 input  -60.55 | X-H torsion
[ 11005 11000 10999 10996 ] final  -20.67 input  -57.11 | X-H torsion

> <Gold.Protein.ActiveResidues>
 VAL166  LYS551  ARG553  GLY616  TRP617  ASP618  TYR619  PRO620  LYS621  CYS622 
 ASP623  PHE694  ASN695  SER759  ASP760  ASP761  ALA762  ILE779  LEU786  VAL792 
 PHE793  MET794  SER795  GLU796  ALA797  LYS798  CYS799  TRP800  GLU811  SER814 

> <Gold.Protein.RotatedAtoms>
  151.1898  135.0397  159.8827 H   0  0  0  0  0  0  0  0  0  0  0  0  # atno 6907 bound_to 6896
  152.5440  134.0969  159.8311 H   0  0  0  0  0  0  0  0  0  0  0  0  # atno 6908 bound_to 6896
  151.1096  133.5136  159.2638 H   0  0  0  0  0  0  0  0  0  0  0  0  # atno 6909 bound_to 6896
  146.2181  140.2939  142.8370 H   0  0  0  0  0  0  0  0  0  0  0  0  # atno 7974 bound_to 7965
  154.4887  140.0867  156.7546 H   0  0  0  0  0  0  0  0  0  0  0  0  # atno 8008 bound_to 7997
  155.4284  140.3449  155.4259 H   0  0  0  0  0  0  0  0  0  0  0  0  # atno 8009 bound_to 7997
  156.1299  140.1498  156.9069 H   0  0  0  0  0  0  0  0  0  0  0  0  # atno 8010 bound_to 7997
  140.2943  144.3009  150.6233 H   0  0  0  0  0  0  0  0  0  0  0  0  # atno 10167 bound_to 10162
  156.8323  130.5493  149.5685 H   0  0  0  0  0  0  0  0  0  0  0  0  # atno 10718 bound_to 10713
  153.5101  135.3619  155.2582 H   0  0  0  0  0  0  0  0  0  0  0  0  # atno 10763 bound_to 10752
  154.8742  135.4021  154.3378 H   0  0  0  0  0  0  0  0  0  0  0  0  # atno 10764 bound_to 10752
  153.4030  135.7075  153.6479 H   0  0  0  0  0  0  0  0  0  0  0  0  # atno 10765 bound_to 10752
  140.8487  133.7873  155.9941 H   0  0  0  0  0  0  0  0  0  0  0  0  # atno 11005 bound_to 11000
  144.9107  140.7753  143.5809 LP  0  0  0  0  0  0  0  0  0  0  0  0  # atno 17320 bound_to 7965
  145.2869  139.1897  143.4761 LP  0  0  0  0  0  0  0  0  0  0  0  0  # atno 17321 bound_to 7965
  140.5705  143.2181  151.7607 LP  0  0  0  0  0  0  0  0  0  0  0  0  # atno 17342 bound_to 10162
  139.4930  144.4223  151.9964 LP  0  0  0  0  0  0  0  0  0  0  0  0  # atno 17343 bound_to 10162
  156.0927  130.5908  150.9761 LP  0  0  0  0  0  0  0  0  0  0  0  0  # atno 17370 bound_to 10713
  157.6400  131.0911  150.8270 LP  0  0  0  0  0  0  0  0  0  0  0  0  # atno 17371 bound_to 10713
  140.8814  134.2606  157.5142 LP  0  0  0  0  0  0  0  0  0  0  0  0  # atno 17394 bound_to 11000
  139.8704  134.9617  156.4405 LP  0  0  0  0  0  0  0  0  0  0  0  0  # atno 17395 bound_to 11000

$$$$
