AV-unprocessed.smi:1436|AV-procd|sdf|5861|dock3
  -GOLD-   22720 5533D 1   1.00000     0.00000
 Structure written by MMmdl.
 44 45  0  0  0  0  0  0  0  0  2 V2000
  148.8454  137.2160  159.0353 C   0  0  0  0  0  0  0  0  0  0  0  0
  148.1343  136.3977  160.0745 C   0  0  0  0  0  0  0  0  0  0  0  0
  147.7972  136.9582  161.2229 N   0  0  0  0  0  0  0  0  0  0  0  0
  147.1459  135.9634  161.9582 O   0  0  0  0  0  0  0  0  0  0  0  0
  147.1090  134.8310  161.2117 C   0  0  0  0  0  0  0  0  0  0  0  0
  146.4275  133.6544  161.8241 C   0  0  0  0  0  0  0  0  0  0  0  0
  147.7191  135.0361  160.0042 C   0  0  0  0  0  0  0  0  0  0  0  0
  147.8910  134.0692  158.8595 C   0  0  0  0  0  0  0  0  0  0  0  0
  147.6052  134.8106  157.5568 C   0  0  0  0  0  0  0  0  0  0  0  0
  146.9457  135.8491  157.5714 O   0  0  0  0  0  0  0  0  0  0  0  0
  148.1688  134.2999  156.4504 N   0  0  0  0  0  0  0  0  0  0  0  0
  148.2203  134.9434  155.1386 C   0  0  2  0  0  0  0  0  0  0  0  0
  148.9694  136.2775  155.2552 C   0  0  0  0  0  0  0  0  0  0  0  0
  146.7923  135.1398  154.5782 C   0  0  0  0  0  0  0  0  0  0  0  0
  146.7250  134.9987  153.1003 N   0  3  0  0  0  0  0  0  0  0  0  0
  146.6607  133.5890  152.6495 C   0  0  0  0  0  0  0  0  0  0  0  0
  146.6701  133.5197  151.1123 C   0  0  0  0  0  0  0  0  0  0  0  0
  145.5956  134.2903  150.5880 O   0  0  0  0  0  0  0  0  0  0  0  0
  145.6985  135.6622  150.9484 C   0  0  0  0  0  0  0  0  0  0  0  0
  145.6395  135.7942  152.4787 C   0  0  0  0  0  0  0  0  0  0  0  0
  148.1410  137.6082  158.3014 H   0  0  0  0  0  0  0  0  0  0  0  0
  149.5842  136.6185  158.5013 H   0  0  0  0  0  0  0  0  0  0  0  0
  149.3688  138.0634  159.4797 H   0  0  0  0  0  0  0  0  0  0  0  0
  145.3497  133.8122  161.8642 H   0  0  0  0  0  0  0  0  0  0  0  0
  146.7839  133.4859  162.8405 H   0  0  0  0  0  0  0  0  0  0  0  0
  146.6134  132.7481  161.2483 H   0  0  0  0  0  0  0  0  0  0  0  0
  148.8978  133.6511  158.8308 H   0  0  0  0  0  0  0  0  0  0  0  0
  147.2126  133.2196  158.9445 H   0  0  0  0  0  0  0  0  0  0  0  0
  148.6755  133.4313  156.5450 H   0  0  0  0  0  0  0  0  0  0  0  0
  148.7892  134.3199  154.4473 H   0  0  0  0  0  0  0  0  0  0  0  0
  149.0426  136.7713  154.2857 H   0  0  0  0  0  0  0  0  0  0  0  0
  149.9847  136.1271  155.6240 H   0  0  0  0  0  0  0  0  0  0  0  0
  148.4644  136.9609  155.9391 H   0  0  0  0  0  0  0  0  0  0  0  0
  146.1470  134.3849  155.0306 H   0  0  0  0  0  0  0  0  0  0  0  0
  146.3853  136.1061  154.8792 H   0  0  0  0  0  0  0  0  0  0  0  0
  147.5129  133.0340  153.0437 H   0  0  0  0  0  0  0  0  0  0  0  0
  145.7578  133.1190  153.0424 H   0  0  0  0  0  0  0  0  0  0  0  0
  147.6164  133.8830  150.7112 H   0  0  0  0  0  0  0  0  0  0  0  0
  146.5609  132.4869  150.7812 H   0  0  0  0  0  0  0  0  0  0  0  0
  146.6237  136.0882  150.5561 H   0  0  0  0  0  0  0  0  0  0  0  0
  144.8751  136.2112  150.4911 H   0  0  0  0  0  0  0  0  0  0  0  0
  144.6722  135.4490  152.8469 H   0  0  0  0  0  0  0  0  0  0  0  0
  145.7299  136.8440  152.7560 H   0  0  0  0  0  0  0  0  0  0  0  0
  147.5959  135.3652  152.7427 H   0  0  0  0  0  0  0  0  0  0  0  0
  1  2  1  0  0  0  0
  1 21  1  0  0  0  0
  1 22  1  0  0  0  0
  1 23  1  0  0  0  0
  2  7  1  0  0  0  0
  2  3  2  0  0  0  0
  3  4  1  0  0  0  0
  4  5  1  0  0  0  0
  5  6  1  0  0  0  0
  5  7  2  0  0  0  0
  6 24  1  0  0  0  0
  6 25  1  0  0  0  0
  6 26  1  0  0  0  0
  7  8  1  0  0  0  0
  8  9  1  0  0  0  0
  8 27  1  0  0  0  0
  8 28  1  0  0  0  0
  9 10  2  0  0  0  0
  9 11  1  0  0  0  0
 11 12  1  0  0  0  0
 11 29  1  0  0  0  0
 12 13  1  0  0  0  0
 12 14  1  0  0  0  0
 12 30  1  0  0  0  0
 13 31  1  0  0  0  0
 13 32  1  0  0  0  0
 13 33  1  0  0  0  0
 14 15  1  0  0  0  0
 14 34  1  0  0  0  0
 14 35  1  0  0  0  0
 15 20  1  0  0  0  0
 15 16  1  0  0  0  0
 15 44  1  0  0  0  0
 16 17  1  0  0  0  0
 16 36  1  0  0  0  0
 16 37  1  0  0  0  0
 17 18  1  0  0  0  0
 17 38  1  0  0  0  0
 17 39  1  0  0  0  0
 18 19  1  0  0  0  0
 19 20  1  0  0  0  0
 19 40  1  0  0  0  0
 19 41  1  0  0  0  0
 20 42  1  0  0  0  0
 20 43  1  0  0  0  0
M  CHG  1  15   1
M  END
> <s_m_source_file>
AV-unprocessed.smi

> <i_m_source_file_index>
1436

> <i_lp_mmshare_version>
43012

> <i_f3d_flags>
0

> <s_epik_input>
W0NIM11jMW5vYyhbQ0gzXSljMVtDSDJdQyg9TylbTkhdW0NASF0oW0NIM10pW0NIMl1OMltDSDJdW0NIMl1PW0NIMl1bQ0gyXTI=

> <s_epik_cmdline>
J2VwaWtfcHl0aG9uJywgJy1waCcsICc3LjAnLCAnLXRuJywgJzgnLCAnLW1hJywgJzIwMCcsICctbWV0YWxfYmluZGluZycsICctaW1hZScsICc8aW5maWxlLm1hZT4nLCAnLW9tYWUnLCAnPG91dGZpbGUubWFlPic=

> <r_epik_Ionization_Penalty>
0.663207

> <r_epik_Ionization_Penalty_Charging>
0.663207

> <r_epik_Ionization_Penalty_Neutral>
1.07515e-07

> <r_epik_State_Penalty>
0.682743

> <r_epik_Charging_Adjusted_Penalty>
1.34595

> <i_epik_Tot_Q>
1

> <i_epik_Tot_abs_Q>
1

> <r_epik_Metal_State_Penalty>
0.682743

> <b_epik_Metal_Only>
0

> <s_lp_Force_Field>
OPLS_2005

> <r_lp_Energy>
13.3689

> <b_lp_Chiralities_Consistent>
1

> <s_lp_Variant>
AV-unprocessed.smi:1436-3

> <Gold.Version>
5.8.1

> <Gold.Id.Protein>
6NUR|6NUR_protein|mol2

> <Gold.PLP.Fitness>
34.2252

> <Gold.PLP.PLP>
-25.3362

> <Gold.PLP.part.hbond>
-3.0000

> <Gold.PLP.part.metal>
0.0000

> <Gold.PLP.part.buried>
-4.8198

> <Gold.PLP.part.nonpolar>
-17.5554

> <Gold.PLP.part.repulsive>
0.1932

> <Gold.PLP.ligand.clash>
0.0000

> <Gold.PLP.ligand.torsion>
1.2877

> <Gold.PLP.Chemscore.Hbond>
3.8000

> <Gold.PLP.Chemscore.CHOScore>
0.0000

> <Gold.PLP.Chemscore.Metal>
0.0000

> <Gold.Chemscore.Hbonds>
donor molecule, donor type, donor heavy atom, donor atom, acceptor molecule, acceptor atom, score
      L1  H    15    44       P1  7948  2.00
      P1  H  6931  6943       L1     3  1.00
      P1  H  6934  6947       L1     3  0.54

> <Gold.PLP.Chemscore.Internal.Correction>
0.0645

> <Gold.Rescore>
     Score         DG    S(hbond)    S(metal)    S(lipo)     H(rot)  DE(clash)    DE(int)     intcor
     12.91     -15.98       2.55        0.00      56.27       1.79       0.14       2.94       ----

> <Gold.Chemscore.Fitness>
12.9077

> <Gold.Chemscore.DG>
-15.9839

> <Gold.Chemscore.ZeroCoef>
-5.4800

> <Gold.Chemscore.Hbond>
2.5484

> <Gold.Chemscore.Metal>
0.0000

> <Gold.Chemscore.Lipo>
56.2718

> <Gold.Chemscore.Internal_Hbond>
0.0000

> <Gold.Chemscore.DEClash>
0.1374

> <Gold.Chemscore.DEInternal>
2.9388

> <Gold.Chemscore.Rot>
1.7936

> <Gold.Chemscore.Internal.Correction>
   9.000000E+99

> <Gold.Chemscore.Hbonds>
donor molecule, donor type, donor heavy atom, donor atom, acceptor molecule, acceptor atom, score
      L1  H    15    44       P1  7948  1.00
      P1  H  6931  6943       L1     3  0.90
      P1  H  6934  6947       L1     3  0.42

> <Gold.Chemscore.Hbond.Weighted>
-8.5117

> <Gold.Chemscore.Metal.Weighted>
-0.0000

> <Gold.Chemscore.Lipo.Weighted>
-6.5838

> <Gold.Chemscore.Internal_Hbond.Weighted>
0.0000

> <Gold.Chemscore.DEClash.Weighted>
0.1374

> <Gold.Chemscore.DEInternal.Weighted>
2.9388

> <Gold.Chemscore.Rot.Weighted>
4.5916

> <Gold.Chemscore.Internal.Correction.Weighted>
   9.000000E+99

> <Gold.Protein.RotatedTorsions>
[ 6907 6896 6895 6894 ] final -115.66 input  -60.11 | X-H torsion
[ 7974 7965 7964 7962 ] final   43.96 input  175.53 | X-H torsion
[ 8008 7997 7996 7995 ] final  -32.74 input   59.86 | X-H torsion
[ 10167 10162 10161 10158 ] final   16.83 input  -65.29 | X-H torsion
[ 10718 10713 10712 10709 ] final -153.73 input   66.30 | X-H torsion
[ 10763 10752 10751 10750 ] final  108.50 input  -60.55 | X-H torsion
[ 11005 11000 10999 10996 ] final  136.91 input  -57.11 | X-H torsion

> <Gold.Protein.ActiveResidues>
 VAL166  LYS551  ARG553  GLY616  TRP617  ASP618  TYR619  PRO620  LYS621  CYS622 
 ASP623  PHE694  ASN695  SER759  ASP760  ASP761  ALA762  ILE779  LEU786  VAL792 
 PHE793  MET794  SER795  GLU796  ALA797  LYS798  CYS799  TRP800  GLU811  SER814 

> <Gold.Protein.RotatedAtoms>
  150.7995  133.8627  159.3236 H   0  0  0  0  0  0  0  0  0  0  0  0  # atno 6907 bound_to 6896
  151.6443  135.1007  160.0157 H   0  0  0  0  0  0  0  0  0  0  0  0  # atno 6908 bound_to 6896
  152.4080  133.6880  159.6408 H   0  0  0  0  0  0  0  0  0  0  0  0  # atno 6909 bound_to 6896
  146.0610  139.5128  142.9658 H   0  0  0  0  0  0  0  0  0  0  0  0  # atno 7974 bound_to 7965
  154.4170  140.1729  156.1776 H   0  0  0  0  0  0  0  0  0  0  0  0  # atno 8008 bound_to 7997
  155.9709  140.3386  155.6551 H   0  0  0  0  0  0  0  0  0  0  0  0  # atno 8009 bound_to 7997
  155.6627  140.0702  157.2539 H   0  0  0  0  0  0  0  0  0  0  0  0  # atno 8010 bound_to 7997
  140.5769  143.9055  150.6757 H   0  0  0  0  0  0  0  0  0  0  0  0  # atno 10167 bound_to 10162
  156.4897  130.8342  151.2565 H   0  0  0  0  0  0  0  0  0  0  0  0  # atno 10718 bound_to 10713
  153.4215  135.3810  155.2114 H   0  0  0  0  0  0  0  0  0  0  0  0  # atno 10763 bound_to 10752
  154.8745  135.3818  154.4378 H   0  0  0  0  0  0  0  0  0  0  0  0  # atno 10764 bound_to 10752
  153.4899  135.7088  153.5952 H   0  0  0  0  0  0  0  0  0  0  0  0  # atno 10765 bound_to 10752
  140.0078  134.9452  157.0212 H   0  0  0  0  0  0  0  0  0  0  0  0  # atno 11005 bound_to 11000
  145.6560  141.0252  143.1734 LP  0  0  0  0  0  0  0  0  0  0  0  0  # atno 17320 bound_to 7965
  144.7175  139.8146  143.7393 LP  0  0  0  0  0  0  0  0  0  0  0  0  # atno 17321 bound_to 7965
  140.2544  143.3569  152.1377 LP  0  0  0  0  0  0  0  0  0  0  0  0  # atno 17342 bound_to 10162
  139.5148  144.6953  151.5648 LP  0  0  0  0  0  0  0  0  0  0  0  0  # atno 17343 bound_to 10162
  157.7475  131.0017  150.2975 LP  0  0  0  0  0  0  0  0  0  0  0  0  # atno 17370 bound_to 10713
  156.3439  130.3820  149.7386 LP  0  0  0  0  0  0  0  0  0  0  0  0  # atno 17371 bound_to 10713
  140.4610  134.1484  155.7191 LP  0  0  0  0  0  0  0  0  0  0  0  0  # atno 17394 bound_to 11000
  141.1689  133.8648  157.1631 LP  0  0  0  0  0  0  0  0  0  0  0  0  # atno 17395 bound_to 11000

$$$$
