AV-unprocessed.smi:198|AV-procd|sdf|1557|dock8
  -GOLD-   2262019433D 1   1.00000     0.00000
 Structure written by MMmdl.
 59 63  0  0  0  0  0  0  0  0  2 V2000
  147.1452  129.1673  153.2160 C   0  0  0  0  0  0  0  0  0  0  0  0
  147.1312  130.3808  152.3708 N   0  3  2  0  0  0  0  0  0  0  0  0
  147.4926  131.6006  153.1321 C   0  0  0  0  0  0  0  0  0  0  0  0
  147.5930  132.8169  152.1979 C   0  0  0  0  0  0  0  0  0  0  0  0
  146.2817  133.0548  151.4116 C   0  0  1  0  0  0  0  0  0  0  0  0
  145.9015  131.7490  150.6704 C   0  0  2  0  0  0  0  0  0  0  0  0
  144.5885  131.9300  149.8831 C   0  0  0  0  0  0  0  0  0  0  0  0
  143.4633  132.4650  150.7819 C   0  0  0  0  0  0  0  0  0  0  0  0
  143.9094  133.7388  151.5136 C   0  0  0  0  0  0  0  0  0  0  0  0
  145.1601  133.5246  152.2401 N   0  0  0  0  0  0  0  0  0  0  0  0
  145.4203  134.5644  153.0633 C   0  0  0  0  0  0  0  0  0  0  0  0
  145.3985  134.3153  154.3952 N   0  0  0  0  0  0  0  0  0  0  0  0
  145.6410  135.3040  155.2614 C   0  0  0  0  0  0  0  0  0  0  0  0
  145.9207  136.5847  155.0101 N   0  0  0  0  0  0  0  0  0  0  0  0
  145.9432  136.8369  153.6694 C   0  0  0  0  0  0  0  0  0  0  0  0
  145.7020  135.8916  152.6332 C   0  0  0  0  0  0  0  0  0  0  0  0
  145.7920  136.5119  151.3935 N   0  0  0  0  0  0  0  0  0  0  0  0
  146.0622  137.7561  151.6808 C   0  0  0  0  0  0  0  0  0  0  0  0
  146.1980  138.0340  153.0227 N   0  0  0  0  0  0  0  0  0  0  0  0
  146.4426  139.3199  153.6091 C   0  0  0  0  0  0  0  0  0  0  0  0
  147.4936  140.2674  153.0228 C   0  0  0  0  0  0  0  0  0  0  0  0
  147.8736  140.7456  154.4415 C   0  0  0  0  0  0  0  0  0  0  0  0
  149.3821  140.8060  154.7277 C   0  0  0  0  0  0  0  0  0  0  0  0
  150.0957  139.8788  153.9349 O   0  0  0  0  0  0  0  0  0  0  0  0
  147.2668  142.0830  154.9213 C   0  0  0  0  0  0  0  0  0  0  0  0
  147.6318  143.1854  154.1158 O   0  0  0  0  0  0  0  0  0  0  0  0
  147.1806  139.4590  154.9443 C   0  0  0  0  0  0  0  0  0  0  0  0
  145.8519  130.5427  151.6374 C   0  0  0  0  0  0  0  0  0  0  0  0
  146.3942  129.2309  154.0046 H   0  0  0  0  0  0  0  0  0  0  0  0
  148.1215  129.0344  153.6835 H   0  0  0  0  0  0  0  0  0  0  0  0
  146.9401  128.2786  152.6183 H   0  0  0  0  0  0  0  0  0  0  0  0
  146.7534  131.7816  153.9140 H   0  0  0  0  0  0  0  0  0  0  0  0
  148.4502  131.4476  153.6312 H   0  0  0  0  0  0  0  0  0  0  0  0
  147.8906  133.7014  152.7617 H   0  0  0  0  0  0  0  0  0  0  0  0
  148.4016  132.6451  151.4863 H   0  0  0  0  0  0  0  0  0  0  0  0
  146.4730  133.8226  150.6608 H   0  0  0  0  0  0  0  0  0  0  0  0
  146.6859  131.5396  149.9413 H   0  0  0  0  0  0  0  0  0  0  0  0
  144.7551  132.6347  149.0672 H   0  0  0  0  0  0  0  0  0  0  0  0
  144.2870  130.9910  149.4179 H   0  0  0  0  0  0  0  0  0  0  0  0
  142.5765  132.6734  150.1829 H   0  0  0  0  0  0  0  0  0  0  0  0
  143.1679  131.7071  151.5078 H   0  0  0  0  0  0  0  0  0  0  0  0
  144.0445  134.5464  150.7927 H   0  0  0  0  0  0  0  0  0  0  0  0
  143.1255  134.0571  152.2025 H   0  0  0  0  0  0  0  0  0  0  0  0
  145.6064  135.0303  156.3057 H   0  0  0  0  0  0  0  0  0  0  0  0
  146.1734  138.5098  150.9147 H   0  0  0  0  0  0  0  0  0  0  0  0
  145.4695  139.8100  153.6573 H   0  0  0  0  0  0  0  0  0  0  0  0
  148.3066  139.7326  152.5285 H   0  0  0  0  0  0  0  0  0  0  0  0
  147.0870  141.0424  152.3727 H   0  0  0  0  0  0  0  0  0  0  0  0
  149.7795  141.8058  154.5488 H   0  0  0  0  0  0  0  0  0  0  0  0
  149.5897  140.5756  155.7730 H   0  0  0  0  0  0  0  0  0  0  0  0
  149.6587  139.7970  153.1010 H   0  0  0  0  0  0  0  0  0  0  0  0
  146.1777  142.0291  154.9338 H   0  0  0  0  0  0  0  0  0  0  0  0
  147.5788  142.3100  155.9412 H   0  0  0  0  0  0  0  0  0  0  0  0
  148.2808  143.6936  154.5780 H   0  0  0  0  0  0  0  0  0  0  0  0
  146.5257  139.5967  155.8055 H   0  0  0  0  0  0  0  0  0  0  0  0
  147.8781  138.6377  155.1169 H   0  0  0  0  0  0  0  0  0  0  0  0
  145.6453  129.6324  151.0729 H   0  0  0  0  0  0  0  0  0  0  0  0
  145.0433  130.6547  152.3608 H   0  0  0  0  0  0  0  0  0  0  0  0
  147.8499  130.2524  151.6727 H   0  0  0  0  0  0  0  0  0  0  0  0
  1  2  1  0  0  0  0
  1 29  1  0  0  0  0
  1 30  1  0  0  0  0
  1 31  1  0  0  0  0
  2 28  1  0  0  0  0
  2  3  1  0  0  0  0
  2 59  1  0  0  0  0
  3  4  1  0  0  0  0
  3 32  1  0  0  0  0
  3 33  1  0  0  0  0
  4  5  1  0  0  0  0
  4 34  1  0  0  0  0
  4 35  1  0  0  0  0
  5 10  1  0  0  0  0
  5  6  1  0  0  0  0
  5 36  1  0  0  0  0
  6  7  1  0  0  0  0
  6 28  1  0  0  0  0
  6 37  1  0  0  0  0
  7  8  1  0  0  0  0
  7 38  1  0  0  0  0
  7 39  1  0  0  0  0
  8  9  1  0  0  0  0
  8 40  1  0  0  0  0
  8 41  1  0  0  0  0
  9 10  1  0  0  0  0
  9 42  1  0  0  0  0
  9 43  1  0  0  0  0
 10 11  1  0  0  0  0
 11 16  1  0  0  0  0
 11 12  2  0  0  0  0
 12 13  1  0  0  0  0
 13 14  2  0  0  0  0
 13 44  1  0  0  0  0
 14 15  1  0  0  0  0
 15 19  1  0  0  0  0
 15 16  2  0  0  0  0
 16 17  1  0  0  0  0
 17 18  2  0  0  0  0
 18 19  1  0  0  0  0
 18 45  1  0  0  0  0
 19 20  1  0  0  0  0
 20 27  1  0  0  0  0
 20 21  1  0  0  0  0
 20 46  1  0  0  0  0
 21 22  1  0  0  0  0
 21 47  1  0  0  0  0
 21 48  1  0  0  0  0
 22 23  1  0  0  0  0
 22 25  1  0  0  0  0
 22 27  1  0  0  0  0
 23 24  1  0  0  0  0
 23 49  1  0  0  0  0
 23 50  1  0  0  0  0
 24 51  1  0  0  0  0
 25 26  1  0  0  0  0
 25 52  1  0  0  0  0
 25 53  1  0  0  0  0
 26 54  1  0  0  0  0
 27 55  1  0  0  0  0
 27 56  1  0  0  0  0
 28 57  1  0  0  0  0
 28 58  1  0  0  0  0
M  CHG  1   2   1
M  END
> <s_m_source_file>
AV-unprocessed.smi

> <i_m_source_file_index>
198

> <i_lp_mmshare_version>
43012

> <i_f3d_flags>
0

> <s_epik_input>
W0NIMl0xW0NIMl1OKFtDSDNdKVtDSDJdW0NAQEhdKFtDQEhdMTIpW0NIMl1bQ0gyXVtDSDJdTjJjKG5bY0hdbjMpYyhjMzQpbltjSF1uNFtDSF0oW0NIMl01KVtDSDJdQzUoW0NIMl1bT0hdKVtDSDJdW09IXQ==

> <s_epik_cmdline>
J2VwaWtfcHl0aG9uJywgJy1waCcsICc3LjAnLCAnLXRuJywgJzgnLCAnLW1hJywgJzIwMCcsICctbWV0YWxfYmluZGluZycsICctaW1hZScsICc8aW5maWxlLm1hZT4nLCAnLW9tYWUnLCAnPG91dGZpbGUubWFlPic=

> <r_lp_tautomer_probability>
1

> <r_epik_Ionization_Penalty>
0.00239938

> <r_epik_Ionization_Penalty_Charging>
0.00138697

> <r_epik_Ionization_Penalty_Neutral>
0.00101241

> <r_epik_State_Penalty>
-0

> <r_epik_Charging_Adjusted_Penalty>
0.00138697

> <i_epik_Tot_Q>
1

> <i_epik_Tot_abs_Q>
1

> <r_epik_Metal_State_Penalty>
-0

> <b_epik_Metal_Only>
0

> <s_lp_Force_Field>
OPLS_2005

> <r_lp_Energy>
60.6867

> <b_lp_Chiralities_Consistent>
1

> <s_lp_Variant>
AV-unprocessed.smi:198-6

> <Gold.Version>
5.8.1

> <Gold.Id.Protein>
6NUR|6NUR_protein|mol2

> <Gold.PLP.Fitness>
52.0378

> <Gold.PLP.PLP>
-40.4694

> <Gold.PLP.part.hbond>
-5.5619

> <Gold.PLP.part.metal>
0.0000

> <Gold.PLP.part.buried>
3.6685

> <Gold.PLP.part.nonpolar>
-39.2408

> <Gold.PLP.part.repulsive>
0.4414

> <Gold.PLP.ligand.clash>
0.0000

> <Gold.PLP.ligand.torsion>
1.1533

> <Gold.PLP.Chemscore.Hbond>
3.9280

> <Gold.PLP.Chemscore.CHOScore>
0.4965

> <Gold.PLP.Chemscore.Metal>
0.0000

> <Gold.Chemscore.Hbonds>
donor molecule, donor type, donor heavy atom, donor atom, acceptor molecule, acceptor atom, score
      L1  H     2    59       P1 10747  1.00
      L1  H    24    51       P1  7957  1.00
      L1  H    26    54       P1  8028  1.00
      P1  H  7989  7998       L1    24  0.94
      L1  C    18    45       P1 10171  0.48

> <Gold.PLP.Chemscore.Internal.Correction>
0.6014

> <Gold.Rescore>
     Score         DG    S(hbond)    S(metal)    S(lipo)     H(rot)  DE(clash)    DE(int)     intcor
     17.17     -20.70       3.08        0.00     109.40       3.08       2.15       1.37       ----

> <Gold.Chemscore.Fitness>
17.1746

> <Gold.Chemscore.DG>
-20.6959

> <Gold.Chemscore.ZeroCoef>
-5.4800

> <Gold.Chemscore.Hbond>
3.0828

> <Gold.Chemscore.Metal>
0.0000

> <Gold.Chemscore.Lipo>
109.3965

> <Gold.Chemscore.Internal_Hbond>
0.0000

> <Gold.Chemscore.DEClash>
2.1469

> <Gold.Chemscore.DEInternal>
1.3744

> <Gold.Chemscore.Rot>
3.0781

> <Gold.Chemscore.Internal.Correction>
   9.000000E+99

> <Gold.Chemscore.Hbonds>
donor molecule, donor type, donor heavy atom, donor atom, acceptor molecule, acceptor atom, score
      L1  H     2    59       P1 10747  0.98
      L1  H    24    51       P1  7957  0.94
      L1  H    26    54       P1  8028  0.88
      P1  H  7989  7998       L1    24  0.09

> <Gold.Chemscore.Hbond.Weighted>
-10.2965

> <Gold.Chemscore.Metal.Weighted>
-0.0000

> <Gold.Chemscore.Lipo.Weighted>
-12.7994

> <Gold.Chemscore.Internal_Hbond.Weighted>
0.0000

> <Gold.Chemscore.DEClash.Weighted>
2.1469

> <Gold.Chemscore.DEInternal.Weighted>
1.3744

> <Gold.Chemscore.Rot.Weighted>
7.8800

> <Gold.Chemscore.Internal.Correction.Weighted>
   9.000000E+99

> <Gold.Protein.RotatedTorsions>
[ 6907 6896 6895 6894 ] final   74.90 input  -60.11 | X-H torsion
[ 7974 7965 7964 7962 ] final  115.57 input  175.53 | X-H torsion
[ 8008 7997 7996 7995 ] final   16.54 input   59.86 | X-H torsion
[ 10167 10162 10161 10158 ] final  166.35 input  -65.29 | X-H torsion
[ 10718 10713 10712 10709 ] final  -53.07 input   66.30 | X-H torsion
[ 10763 10752 10751 10750 ] final   16.40 input  -60.55 | X-H torsion
[ 11005 11000 10999 10996 ] final  -15.76 input  -57.11 | X-H torsion

> <Gold.Protein.ActiveResidues>
 VAL166  LYS551  ARG553  GLY616  TRP617  ASP618  TYR619  PRO620  LYS621  CYS622 
 ASP623  PHE694  ASN695  SER759  ASP760  ASP761  ALA762  ILE779  LEU786  VAL792 
 PHE793  MET794  SER795  GLU796  ALA797  LYS798  CYS799  TRP800  GLU811  SER814 

> <Gold.Protein.RotatedAtoms>
  152.4999  134.4201  159.9477 H   0  0  0  0  0  0  0  0  0  0  0  0  # atno 6907 bound_to 6896
  151.4174  133.3702  159.2759 H   0  0  0  0  0  0  0  0  0  0  0  0  # atno 6908 bound_to 6896
  150.9247  134.8687  159.7572 H   0  0  0  0  0  0  0  0  0  0  0  0  # atno 6909 bound_to 6896
  145.1903  139.3004  143.4372 H   0  0  0  0  0  0  0  0  0  0  0  0  # atno 7974 bound_to 7965
  154.8784  140.2969  155.5439 H   0  0  0  0  0  0  0  0  0  0  0  0  # atno 8008 bound_to 7997
  156.3022  140.2447  156.3717 H   0  0  0  0  0  0  0  0  0  0  0  0  # atno 8009 bound_to 7997
  154.8743  140.0400  157.1732 H   0  0  0  0  0  0  0  0  0  0  0  0  # atno 8010 bound_to 7997
  139.4923  144.4037  151.9380 H   0  0  0  0  0  0  0  0  0  0  0  0  # atno 10167 bound_to 10162
  156.1567  130.4150  149.9858 H   0  0  0  0  0  0  0  0  0  0  0  0  # atno 10718 bound_to 10713
  153.1434  135.6764  153.8992 H   0  0  0  0  0  0  0  0  0  0  0  0  # atno 10763 bound_to 10752
  153.8441  135.3101  155.3429 H   0  0  0  0  0  0  0  0  0  0  0  0  # atno 10764 bound_to 10752
  154.7806  135.4890  153.9920 H   0  0  0  0  0  0  0  0  0  0  0  0  # atno 10765 bound_to 10752
  140.7999  133.8222  155.9460 H   0  0  0  0  0  0  0  0  0  0  0  0  # atno 11005 bound_to 11000
  146.3437  140.2113  142.8590 LP  0  0  0  0  0  0  0  0  0  0  0  0  # atno 17320 bound_to 7965
  145.0048  140.8663  143.5260 LP  0  0  0  0  0  0  0  0  0  0  0  0  # atno 17321 bound_to 7965
  140.3476  144.3128  150.5955 LP  0  0  0  0  0  0  0  0  0  0  0  0  # atno 17342 bound_to 10162
  140.5512  143.2206  151.7923 LP  0  0  0  0  0  0  0  0  0  0  0  0  # atno 17343 bound_to 10162
  156.7700  130.9182  151.3644 LP  0  0  0  0  0  0  0  0  0  0  0  0  # atno 17370 bound_to 10713
  157.6700  130.9042  150.0019 LP  0  0  0  0  0  0  0  0  0  0  0  0  # atno 17371 bound_to 10713
  140.9305  134.2028  157.4867 LP  0  0  0  0  0  0  0  0  0  0  0  0  # atno 17394 bound_to 11000
  139.8722  134.9831  156.5183 LP  0  0  0  0  0  0  0  0  0  0  0  0  # atno 17395 bound_to 11000

$$$$
