AV-unprocessed.smi:148|AV-procd|sdf|1212|dock3
  -GOLD-   2262018393D 1   1.00000     0.00000
 Structure written by MMmdl.
 63 67  0  0  0  0  0  0  0  0  1 V2000
  146.2793  132.0830  160.3414 O   0  0  0  0  0  0  0  0  0  0  0  0
  145.8942  133.1696  159.5243 C   0  0  0  0  0  0  0  0  0  0  0  0
  147.0578  134.1778  159.3379 C   0  0  2  0  0  0  0  0  0  0  0  0
  148.2245  133.5487  158.5296 C   0  0  0  0  0  0  0  0  0  0  0  0
  147.7841  132.8926  157.3107 N   0  0  0  0  0  0  0  0  0  0  0  0
  147.1269  131.6865  157.2229 C   0  0  0  0  0  0  0  0  0  0  0  0
  146.8438  131.2942  156.0109 N   0  0  0  0  0  0  0  0  0  0  0  0
  147.3374  132.3117  155.2031 C   0  0  0  0  0  0  0  0  0  0  0  0
  147.3753  132.5374  153.7978 C   0  0  0  0  0  0  0  0  0  0  0  0
  146.8887  131.6860  152.8689 N   0  0  0  0  0  0  0  0  0  0  0  0
  147.1152  130.3137  153.3290 C   0  0  0  0  0  0  0  0  0  0  0  0
  146.8293  129.2924  152.2251 C   0  0  0  0  0  0  0  0  0  0  0  0
  145.4055  129.4826  151.7033 C   0  0  0  0  0  0  0  0  0  0  0  0
  145.2205  130.9265  151.2220 C   0  0  0  0  0  0  0  0  0  0  0  0
  145.5460  131.9761  152.3209 C   0  0  2  0  0  0  0  0  0  0  0  0
  145.3973  133.4257  151.7395 C   0  0  2  0  0  0  0  0  0  0  0  0
  145.3019  134.5879  152.7522 C   0  0  0  0  0  0  0  0  0  0  0  0
  144.5845  135.7463  152.0438 C   0  0  0  0  0  0  0  0  0  0  0  0
  144.0919  135.1895  150.7055 C   0  0  0  0  0  0  0  0  0  0  0  0
  144.1568  133.6690  150.8535 C   0  0  2  0  0  0  0  0  0  0  0  0
  142.9708  133.2276  151.4914 O   0  0  0  0  0  0  0  0  0  0  0  0
  147.9698  133.6704  153.3489 N   0  0  0  0  0  0  0  0  0  0  0  0
  148.4799  134.5454  154.2209 C   0  0  0  0  0  0  0  0  0  0  0  0
  148.5098  134.4760  155.5538 N   0  0  0  0  0  0  0  0  0  0  0  0
  147.9251  133.3293  156.0052 C   0  0  0  0  0  0  0  0  0  0  0  0
  147.5582  134.8003  160.6777 C   0  0  2  0  0  0  0  0  0  0  0  0
  146.4791  135.0612  161.7237 C   0  0  0  0  0  0  0  0  0  0  0  0
  145.8904  136.4048  161.2997 C   0  0  0  0  0  0  0  0  0  0  0  0
  146.9242  137.0683  160.5800 O   0  0  0  0  0  0  0  0  0  0  0  0
  148.0781  136.2377  160.5295 C   0  0  0  0  0  0  0  0  0  0  0  0
  146.7722  131.4711  159.8162 H   0  0  0  0  0  0  0  0  0  0  0  0
  145.5540  132.7781  158.5662 H   0  0  0  0  0  0  0  0  0  0  0  0
  145.0171  133.6469  159.9579 H   0  0  0  0  0  0  0  0  0  0  0  0
  146.6579  134.9926  158.7327 H   0  0  0  0  0  0  0  0  0  0  0  0
  148.9579  134.2974  158.2372 H   0  0  0  0  0  0  0  0  0  0  0  0
  148.7618  132.8242  159.1426 H   0  0  0  0  0  0  0  0  0  0  0  0
  146.8689  131.1003  158.0929 H   0  0  0  0  0  0  0  0  0  0  0  0
  148.1466  130.1970  153.6665 H   0  0  0  0  0  0  0  0  0  0  0  0
  146.4758  130.1060  154.1882 H   0  0  0  0  0  0  0  0  0  0  0  0
  147.5450  129.4147  151.4109 H   0  0  0  0  0  0  0  0  0  0  0  0
  146.9584  128.2800  152.6085 H   0  0  0  0  0  0  0  0  0  0  0  0
  145.2057  128.7847  150.8898 H   0  0  0  0  0  0  0  0  0  0  0  0
  144.6870  129.2602  152.4931 H   0  0  0  0  0  0  0  0  0  0  0  0
  145.8585  131.0981  150.3538 H   0  0  0  0  0  0  0  0  0  0  0  0
  144.1942  131.0285  150.8728 H   0  0  0  0  0  0  0  0  0  0  0  0
  144.8209  131.8487  153.1254 H   0  0  0  0  0  0  0  0  0  0  0  0
  146.2685  133.6164  151.1100 H   0  0  0  0  0  0  0  0  0  0  0  0
  144.7162  134.2823  153.6198 H   0  0  0  0  0  0  0  0  0  0  0  0
  146.2779  134.9119  153.1108 H   0  0  0  0  0  0  0  0  0  0  0  0
  143.7469  136.0932  152.6498 H   0  0  0  0  0  0  0  0  0  0  0  0
  145.2495  136.5962  151.8882 H   0  0  0  0  0  0  0  0  0  0  0  0
  143.1000  135.5532  150.4347 H   0  0  0  0  0  0  0  0  0  0  0  0
  144.7772  135.5012  149.9160 H   0  0  0  0  0  0  0  0  0  0  0  0
  144.2407  133.1863  149.8794 H   0  0  0  0  0  0  0  0  0  0  0  0
  142.2293  133.5423  150.9973 H   0  0  0  0  0  0  0  0  0  0  0  0
  148.9305  135.4270  153.7892 H   0  0  0  0  0  0  0  0  0  0  0  0
  148.3345  134.1570  161.0944 H   0  0  0  0  0  0  0  0  0  0  0  0
  145.7303  134.2799  161.8355 H   0  0  0  0  0  0  0  0  0  0  0  0
  146.9539  135.1748  162.6996 H   0  0  0  0  0  0  0  0  0  0  0  0
  145.0370  136.2623  160.6359 H   0  0  0  0  0  0  0  0  0  0  0  0
  145.5606  136.9949  162.1549 H   0  0  0  0  0  0  0  0  0  0  0  0
  148.7163  136.4902  161.3778 H   0  0  0  0  0  0  0  0  0  0  0  0
  148.6567  136.4274  159.6278 H   0  0  0  0  0  0  0  0  0  0  0  0
  1  2  1  0  0  0  0
  1 31  1  0  0  0  0
  2  3  1  0  0  0  0
  2 32  1  0  0  0  0
  2 33  1  0  0  0  0
  3  4  1  0  0  0  0
  3 26  1  0  0  0  0
  3 34  1  0  0  0  0
  4  5  1  0  0  0  0
  4 35  1  0  0  0  0
  4 36  1  0  0  0  0
  5 25  1  0  0  0  0
  5  6  1  0  0  0  0
  6  7  2  0  0  0  0
  6 37  1  0  0  0  0
  7  8  1  0  0  0  0
  8 25  2  0  0  0  0
  8  9  1  0  0  0  0
  9 10  1  0  0  0  0
  9 22  2  0  0  0  0
 10 15  1  0  0  0  0
 10 11  1  0  0  0  0
 11 12  1  0  0  0  0
 11 38  1  0  0  0  0
 11 39  1  0  0  0  0
 12 13  1  0  0  0  0
 12 40  1  0  0  0  0
 12 41  1  0  0  0  0
 13 14  1  0  0  0  0
 13 42  1  0  0  0  0
 13 43  1  0  0  0  0
 14 15  1  0  0  0  0
 14 44  1  0  0  0  0
 14 45  1  0  0  0  0
 15 16  1  0  0  0  0
 15 46  1  0  0  0  0
 16 20  1  0  0  0  0
 16 17  1  0  0  0  0
 16 47  1  0  0  0  0
 17 18  1  0  0  0  0
 17 48  1  0  0  0  0
 17 49  1  0  0  0  0
 18 19  1  0  0  0  0
 18 50  1  0  0  0  0
 18 51  1  0  0  0  0
 19 20  1  0  0  0  0
 19 52  1  0  0  0  0
 19 53  1  0  0  0  0
 20 21  1  0  0  0  0
 20 54  1  0  0  0  0
 21 55  1  0  0  0  0
 22 23  1  0  0  0  0
 23 24  2  0  0  0  0
 23 56  1  0  0  0  0
 24 25  1  0  0  0  0
 26 30  1  0  0  0  0
 26 27  1  0  0  0  0
 26 57  1  0  0  0  0
 27 28  1  0  0  0  0
 27 58  1  0  0  0  0
 27 59  1  0  0  0  0
 28 29  1  0  0  0  0
 28 60  1  0  0  0  0
 28 61  1  0  0  0  0
 29 30  1  0  0  0  0
 30 62  1  0  0  0  0
 30 63  1  0  0  0  0
M  END
> <s_m_source_file>
AV-unprocessed.smi

> <i_m_source_file_index>
148

> <i_lp_mmshare_version>
43012

> <i_f3d_flags>
0

> <s_epik_input>
W0NIMl0xT1tDSDJdW0NIMl1bQ0BIXTFbQ0BIXShbQ0gyXVtPSF0pW0NIMl1uKFtjSF1uMiljKGMyMyluW2NIXW5jM040W0NIMl1bQ0gyXVtDSDJdW0NIMl1bQ0BIXTRbQ0BASF01W0NIMl1bQ0gyXVtDSDJdW0NASF01W09IXQ==

> <s_epik_cmdline>
J2VwaWtfcHl0aG9uJywgJy1waCcsICc3LjAnLCAnLXRuJywgJzgnLCAnLW1hJywgJzIwMCcsICctbWV0YWxfYmluZGluZycsICctaW1hZScsICc8aW5maWxlLm1hZT4nLCAnLW9tYWUnLCAnPG91dGZpbGUubWFlPic=

> <r_lp_tautomer_probability>
1

> <r_epik_Ionization_Penalty>
0.00556303

> <r_epik_Ionization_Penalty_Charging>
0

> <r_epik_Ionization_Penalty_Neutral>
0.00556303

> <r_epik_State_Penalty>
0.00401767

> <r_epik_Charging_Adjusted_Penalty>
0.00401767

> <i_epik_Tot_Q>
0

> <i_epik_Tot_abs_Q>
0

> <r_epik_Metal_State_Penalty>
-0

> <b_epik_Metal_Only>
0

> <s_lp_Force_Field>
OPLS_2005

> <r_lp_Energy>
72.8369

> <b_lp_Chiralities_Consistent>
1

> <s_lp_Variant>
AV-unprocessed.smi:148-11

> <Gold.Version>
5.8.1

> <Gold.Id.Protein>
6NUR|6NUR_protein|mol2

> <Gold.PLP.Fitness>
42.6744

> <Gold.PLP.PLP>
-36.4406

> <Gold.PLP.part.hbond>
-2.0000

> <Gold.PLP.part.metal>
0.0000

> <Gold.PLP.part.buried>
-6.0549

> <Gold.PLP.part.nonpolar>
-28.8539

> <Gold.PLP.part.repulsive>
0.4360

> <Gold.PLP.ligand.clash>
0.0580

> <Gold.PLP.ligand.torsion>
1.6468

> <Gold.PLP.Chemscore.Hbond>
1.9750

> <Gold.PLP.Chemscore.CHOScore>
0.9985

> <Gold.PLP.Chemscore.Metal>
0.0000

> <Gold.Chemscore.Hbonds>
donor molecule, donor type, donor heavy atom, donor atom, acceptor molecule, acceptor atom, score
      L1  H    21    55       P1 10186  0.88
      P1  H  6934  6947       L1    29  1.00
      L1  C    23    56       P1  7948  1.00

> <Gold.PLP.Chemscore.Internal.Correction>
0.6648

> <Gold.Rescore>
     Score         DG    S(hbond)    S(metal)    S(lipo)     H(rot)  DE(clash)    DE(int)     intcor
      9.95     -14.74       1.86        0.00      98.62       3.32       0.25       4.54       ----

> <Gold.Chemscore.Fitness>
9.9530

> <Gold.Chemscore.DG>
-14.7402

> <Gold.Chemscore.ZeroCoef>
-5.4800

> <Gold.Chemscore.Hbond>
1.8629

> <Gold.Chemscore.Metal>
0.0000

> <Gold.Chemscore.Lipo>
98.6171

> <Gold.Chemscore.Internal_Hbond>
0.0000

> <Gold.Chemscore.DEClash>
0.2481

> <Gold.Chemscore.DEInternal>
4.5391

> <Gold.Chemscore.Rot>
3.3203

> <Gold.Chemscore.Internal.Correction>
   9.000000E+99

> <Gold.Chemscore.Hbonds>
donor molecule, donor type, donor heavy atom, donor atom, acceptor molecule, acceptor atom, score
      L1  H    21    55       P1 10186  0.60
      P1  H  6934  6947       L1    29  0.87

> <Gold.Chemscore.Hbond.Weighted>
-6.2220

> <Gold.Chemscore.Metal.Weighted>
-0.0000

> <Gold.Chemscore.Lipo.Weighted>
-11.5382

> <Gold.Chemscore.Internal_Hbond.Weighted>
0.0000

> <Gold.Chemscore.DEClash.Weighted>
0.2481

> <Gold.Chemscore.DEInternal.Weighted>
4.5391

> <Gold.Chemscore.Rot.Weighted>
8.5000

> <Gold.Chemscore.Internal.Correction.Weighted>
   9.000000E+99

> <Gold.Protein.RotatedTorsions>
[ 6907 6896 6895 6894 ] final  -76.78 input  -60.11 | X-H torsion
[ 7974 7965 7964 7962 ] final  146.93 input  175.53 | X-H torsion
[ 8008 7997 7996 7995 ] final  131.13 input   59.86 | X-H torsion
[ 10167 10162 10161 10158 ] final   44.55 input  -65.29 | X-H torsion
[ 10718 10713 10712 10709 ] final  -71.14 input   66.30 | X-H torsion
[ 10763 10752 10751 10750 ] final   79.90 input  -60.55 | X-H torsion
[ 11005 11000 10999 10996 ] final   53.50 input  -57.11 | X-H torsion

> <Gold.Protein.ActiveResidues>
 VAL166  LYS551  ARG553  GLY616  TRP617  ASP618  TYR619  PRO620  LYS621  CYS622 
 ASP623  PHE694  ASN695  SER759  ASP760  ASP761  ALA762  ILE779  LEU786  VAL792 
 PHE793  MET794  SER795  GLU796  ALA797  LYS798  CYS799  TRP800  GLU811  SER814 

> <Gold.Protein.RotatedAtoms>
  150.7017  134.4521  159.5340 H   0  0  0  0  0  0  0  0  0  0  0  0  # atno 6907 bound_to 6896
  152.2212  134.8408  160.0495 H   0  0  0  0  0  0  0  0  0  0  0  0  # atno 6908 bound_to 6896
  151.9258  133.3563  159.3950 H   0  0  0  0  0  0  0  0  0  0  0  0  # atno 6909 bound_to 6896
  144.8632  139.5965  143.5921 H   0  0  0  0  0  0  0  0  0  0  0  0  # atno 7974 bound_to 7965
  156.2965  140.2579  156.2875 H   0  0  0  0  0  0  0  0  0  0  0  0  # atno 8008 bound_to 7997
  154.9542  140.0393  157.2177 H   0  0  0  0  0  0  0  0  0  0  0  0  # atno 8009 bound_to 7997
  154.8007  140.2827  155.5928 H   0  0  0  0  0  0  0  0  0  0  0  0  # atno 8010 bound_to 7997
  140.3332  144.2563  150.6165 H   0  0  0  0  0  0  0  0  0  0  0  0  # atno 10167 bound_to 10162
  156.0376  130.4345  150.2400 H   0  0  0  0  0  0  0  0  0  0  0  0  # atno 10718 bound_to 10713
  153.0990  135.4822  154.8832 H   0  0  0  0  0  0  0  0  0  0  0  0  # atno 10763 bound_to 10752
  154.7357  135.3070  154.8818 H   0  0  0  0  0  0  0  0  0  0  0  0  # atno 10764 bound_to 10752
  153.9440  135.6831  153.4797 H   0  0  0  0  0  0  0  0  0  0  0  0  # atno 10765 bound_to 10752
  140.0762  134.5402  155.8994 H   0  0  0  0  0  0  0  0  0  0  0  0  # atno 11005 bound_to 11000
  146.2876  139.7048  142.9184 LP  0  0  0  0  0  0  0  0  0  0  0  0  # atno 17320 bound_to 7965
  145.4272  141.0412  143.2931 LP  0  0  0  0  0  0  0  0  0  0  0  0  # atno 17321 bound_to 7965
  140.5378  143.2229  151.8134 LP  0  0  0  0  0  0  0  0  0  0  0  0  # atno 17342 bound_to 10162
  139.4853  144.4639  151.9508 LP  0  0  0  0  0  0  0  0  0  0  0  0  # atno 17343 bound_to 10162
  157.0498  131.0059  151.3257 LP  0  0  0  0  0  0  0  0  0  0  0  0  # atno 17370 bound_to 10713
  157.5149  130.7961  149.7745 LP  0  0  0  0  0  0  0  0  0  0  0  0  # atno 17371 bound_to 10713
  141.2030  133.6629  156.6039 LP  0  0  0  0  0  0  0  0  0  0  0  0  # atno 17394 bound_to 11000
  140.3555  134.7732  157.4497 LP  0  0  0  0  0  0  0  0  0  0  0  0  # atno 17395 bound_to 11000

$$$$
