AV-unprocessed.smi:1245|AV-procd|sdf|5239|dock1
  -GOLD-   22720 4343D 1   1.00000     0.00000
 Structure written by MMmdl.
 43 44  0  0  0  0  0  0  0  0  1 V2000
  147.9832  140.5567  157.2204 O   0  0  0  0  0  0  0  0  0  0  0  0
  149.0817  140.0066  157.1457 C   0  0  0  0  0  0  0  0  0  0  0  0
  150.2061  140.6447  156.3280 C   0  0  0  0  0  0  0  0  0  0  0  0
  150.9529  141.7468  157.0991 C   0  0  0  0  0  0  0  0  0  0  0  0
  151.9448  141.0509  158.4955 S   0  0  0  0  0  0  0  0  0  0  0  0
  151.0214  140.6858  159.5809 O   0  0  0  0  0  0  0  0  0  0  0  0
  152.8542  140.0298  157.9532 O   0  0  0  0  0  0  0  0  0  0  0  0
  152.9516  142.5085  159.0384 C   0  0  0  0  0  0  0  0  0  0  0  0
  152.7490  142.7743  160.5436 C   0  0  0  0  0  0  0  0  0  0  0  0
  152.1456  144.1782  160.6708 C   0  0  0  0  0  0  0  0  0  0  0  0
  151.5577  144.4904  159.2973 C   0  0  0  0  0  0  0  0  0  0  0  0
  152.5134  143.7995  158.3271 C   0  0  0  0  0  0  0  0  0  0  0  0
  149.3694  138.8445  157.7500 N   0  0  0  0  0  0  0  0  0  0  0  0
  148.4419  138.0736  158.5720 C   0  0  0  0  0  0  0  0  0  0  0  0
  149.1205  136.8883  159.2867 C   0  0  0  0  0  0  0  0  0  0  0  0
  148.2775  136.2882  160.3994 C   0  0  0  0  0  0  0  0  0  0  0  0
  147.9255  134.9212  160.3810 C   0  0  0  0  0  0  0  0  0  0  0  0
  147.1533  134.4125  161.4430 C   0  0  0  0  0  0  0  0  0  0  0  0
  146.7643  135.2854  162.4772 C   0  0  0  0  0  0  0  0  0  0  0  0
  147.1654  136.6343  162.4021 C   0  0  0  0  0  0  0  0  0  0  0  0
  147.9056  137.1323  161.3882 N   0  0  0  0  0  0  0  0  0  0  0  0
  150.9073  139.8847  155.9804 H   0  0  0  0  0  0  0  0  0  0  0  0
  149.7556  141.0752  155.4333 H   0  0  0  0  0  0  0  0  0  0  0  0
  151.6418  142.2605  156.4291 H   0  0  0  0  0  0  0  0  0  0  0  0
  150.2633  142.4948  157.4894 H   0  0  0  0  0  0  0  0  0  0  0  0
  153.9958  142.2817  158.8214 H   0  0  0  0  0  0  0  0  0  0  0  0
  152.0686  142.0409  160.9780 H   0  0  0  0  0  0  0  0  0  0  0  0
  153.6873  142.7012  161.0943 H   0  0  0  0  0  0  0  0  0  0  0  0
  151.4038  144.2444  161.4673 H   0  0  0  0  0  0  0  0  0  0  0  0
  152.9368  144.8943  160.8966 H   0  0  0  0  0  0  0  0  0  0  0  0
  150.5600  144.0579  159.2131 H   0  0  0  0  0  0  0  0  0  0  0  0
  151.4732  145.5613  159.1108 H   0  0  0  0  0  0  0  0  0  0  0  0
  153.3844  144.4365  158.1701 H   0  0  0  0  0  0  0  0  0  0  0  0
  152.0584  143.6293  157.3520 H   0  0  0  0  0  0  0  0  0  0  0  0
  150.2990  138.4666  157.6356 H   0  0  0  0  0  0  0  0  0  0  0  0
  148.0241  138.7538  159.3147 H   0  0  0  0  0  0  0  0  0  0  0  0
  147.6024  137.7250  157.9686 H   0  0  0  0  0  0  0  0  0  0  0  0
  149.3557  136.1091  158.5606 H   0  0  0  0  0  0  0  0  0  0  0  0
  150.0775  137.2085  159.7008 H   0  0  0  0  0  0  0  0  0  0  0  0
  148.2451  134.2759  159.5757 H   0  0  0  0  0  0  0  0  0  0  0  0
  146.8666  133.3714  161.4644 H   0  0  0  0  0  0  0  0  0  0  0  0
  146.1729  134.9303  163.3082 H   0  0  0  0  0  0  0  0  0  0  0  0
  146.8856  137.3317  163.1778 H   0  0  0  0  0  0  0  0  0  0  0  0
  1  2  2  0  0  0  0
  2  3  1  0  0  0  0
  2 13  1  0  0  0  0
  3  4  1  0  0  0  0
  3 22  1  0  0  0  0
  3 23  1  0  0  0  0
  4  5  1  0  0  0  0
  4 24  1  0  0  0  0
  4 25  1  0  0  0  0
  5  6  2  0  0  0  0
  5  7  2  0  0  0  0
  5  8  1  0  0  0  0
  8 12  1  0  0  0  0
  8  9  1  0  0  0  0
  8 26  1  0  0  0  0
  9 10  1  0  0  0  0
  9 27  1  0  0  0  0
  9 28  1  0  0  0  0
 10 11  1  0  0  0  0
 10 29  1  0  0  0  0
 10 30  1  0  0  0  0
 11 12  1  0  0  0  0
 11 31  1  0  0  0  0
 11 32  1  0  0  0  0
 12 33  1  0  0  0  0
 12 34  1  0  0  0  0
 13 14  1  0  0  0  0
 13 35  1  0  0  0  0
 14 15  1  0  0  0  0
 14 36  1  0  0  0  0
 14 37  1  0  0  0  0
 15 16  1  0  0  0  0
 15 38  1  0  0  0  0
 15 39  1  0  0  0  0
 16 21  1  0  0  0  0
 16 17  2  0  0  0  0
 17 18  1  0  0  0  0
 17 40  1  0  0  0  0
 18 19  2  0  0  0  0
 18 41  1  0  0  0  0
 19 20  1  0  0  0  0
 19 42  1  0  0  0  0
 20 21  2  0  0  0  0
 20 43  1  0  0  0  0
M  END
> <s_m_source_file>
AV-unprocessed.smi

> <i_m_source_file_index>
1245

> <i_lp_mmshare_version>
43012

> <i_f3d_flags>
0

> <s_epik_input>
W0NIMl0xW0NIMl1bQ0gyXVtDSDJdW0NIXTFTKD1PKSg9TylbQ0gyXVtDSDJdQyg9TylbTkhdW0NIMl1bQ0gyXWMyW2NIXVtjSF1bY0hdW2NIXW4y

> <s_epik_cmdline>
J2VwaWtfcHl0aG9uJywgJy1waCcsICc3LjAnLCAnLXRuJywgJzgnLCAnLW1hJywgJzIwMCcsICctbWV0YWxfYmluZGluZycsICctaW1hZScsICc8aW5maWxlLm1hZT4nLCAnLW9tYWUnLCAnPG91dGZpbGUubWFlPic=

> <r_epik_Ionization_Penalty>
0.0243247

> <r_epik_Ionization_Penalty_Charging>
0

> <r_epik_Ionization_Penalty_Neutral>
0.0243247

> <r_epik_State_Penalty>
0.0197389

> <r_epik_Charging_Adjusted_Penalty>
0.0197389

> <i_epik_Tot_Q>
0

> <i_epik_Tot_abs_Q>
0

> <r_epik_Metal_State_Penalty>
0.0189562

> <b_epik_Metal_Only>
0

> <s_lp_Force_Field>
OPLS_2005

> <r_lp_Energy>
12.2182

> <b_lp_Chiralities_Consistent>
1

> <s_lp_Variant>
AV-unprocessed.smi:1245-1

> <Gold.Version>
5.8.1

> <Gold.Id.Protein>
6NUR|6NUR_protein|mol2

> <Gold.PLP.Fitness>
51.0817

> <Gold.PLP.PLP>
-44.0554

> <Gold.PLP.part.hbond>
-4.2461

> <Gold.PLP.part.metal>
0.0000

> <Gold.PLP.part.buried>
-2.7615

> <Gold.PLP.part.nonpolar>
-37.9325

> <Gold.PLP.part.repulsive>
0.1152

> <Gold.PLP.ligand.clash>
0.0000

> <Gold.PLP.ligand.torsion>
0.7381

> <Gold.PLP.Chemscore.Hbond>
2.7360

> <Gold.PLP.Chemscore.CHOScore>
0.0000

> <Gold.PLP.Chemscore.Metal>
0.0000

> <Gold.Chemscore.Hbonds>
donor molecule, donor type, donor heavy atom, donor atom, acceptor molecule, acceptor atom, score
      P1  H  6931  6943       L1    21  1.00
      P1  H  6934  6947       L1    21  0.66
      P1  H  7997  8008       L1     7  1.00

> <Gold.PLP.Chemscore.Internal.Correction>
0.2945

> <Gold.Rescore>
     Score         DG    S(hbond)    S(metal)    S(lipo)     H(rot)  DE(clash)    DE(int)     intcor
     20.58     -21.29       2.21        0.00     115.85       2.00       0.04       0.67       ----

> <Gold.Chemscore.Fitness>
20.5788

> <Gold.Chemscore.DG>
-21.2903

> <Gold.Chemscore.ZeroCoef>
-5.4800

> <Gold.Chemscore.Hbond>
2.2095

> <Gold.Chemscore.Metal>
0.0000

> <Gold.Chemscore.Lipo>
115.8480

> <Gold.Chemscore.Internal_Hbond>
0.0000

> <Gold.Chemscore.DEClash>
0.0417

> <Gold.Chemscore.DEInternal>
0.6698

> <Gold.Chemscore.Rot>
2.0014

> <Gold.Chemscore.Internal.Correction>
   9.000000E+99

> <Gold.Chemscore.Hbonds>
donor molecule, donor type, donor heavy atom, donor atom, acceptor molecule, acceptor atom, score
      P1  H  6931  6943       L1    21  0.78
      P1  H  6934  6947       L1    21  0.40
      P1  H  7997  8008       L1     7  0.97

> <Gold.Chemscore.Hbond.Weighted>
-7.3797

> <Gold.Chemscore.Metal.Weighted>
-0.0000

> <Gold.Chemscore.Lipo.Weighted>
-13.5542

> <Gold.Chemscore.Internal_Hbond.Weighted>
0.0000

> <Gold.Chemscore.DEClash.Weighted>
0.0417

> <Gold.Chemscore.DEInternal.Weighted>
0.6698

> <Gold.Chemscore.Rot.Weighted>
5.1236

> <Gold.Chemscore.Internal.Correction.Weighted>
   9.000000E+99

> <Gold.Protein.RotatedTorsions>
[ 6907 6896 6895 6894 ] final   57.06 input  -60.11 | X-H torsion
[ 7974 7965 7964 7962 ] final  103.13 input  175.53 | X-H torsion
[ 8008 7997 7996 7995 ] final  -76.72 input   59.86 | X-H torsion
[ 10167 10162 10161 10158 ] final   18.61 input  -65.29 | X-H torsion
[ 10718 10713 10712 10709 ] final    2.76 input   66.30 | X-H torsion
[ 10763 10752 10751 10750 ] final   96.05 input  -60.55 | X-H torsion
[ 11005 11000 10999 10996 ] final -171.90 input  -57.11 | X-H torsion

> <Gold.Protein.ActiveResidues>
 VAL166  LYS551  ARG553  GLY616  TRP617  ASP618  TYR619  PRO620  LYS621  CYS622 
 ASP623  PHE694  ASN695  SER759  ASP760  ASP761  ALA762  ILE779  LEU786  VAL792 
 PHE793  MET794  SER795  GLU796  ALA797  LYS798  CYS799  TRP800  GLU811  SER814 

> <Gold.Protein.RotatedAtoms>
  152.3695  134.6754  160.0180 H   0  0  0  0  0  0  0  0  0  0  0  0  # atno 6907 bound_to 6896
  151.7052  133.3306  159.3284 H   0  0  0  0  0  0  0  0  0  0  0  0  # atno 6908 bound_to 6896
  150.7663  134.6515  159.6335 H   0  0  0  0  0  0  0  0  0  0  0  0  # atno 6909 bound_to 6896
  145.3500  139.2441  143.3563 H   0  0  0  0  0  0  0  0  0  0  0  0  # atno 7974 bound_to 7965
  154.5531  140.0722  156.8700 H   0  0  0  0  0  0  0  0  0  0  0  0  # atno 8008 bound_to 7997
  155.2955  140.3381  155.4232 H   0  0  0  0  0  0  0  0  0  0  0  0  # atno 8009 bound_to 7997
  156.1978  140.1710  156.7947 H   0  0  0  0  0  0  0  0  0  0  0  0  # atno 8010 bound_to 7997
  140.5640  143.9284  150.6663 H   0  0  0  0  0  0  0  0  0  0  0  0  # atno 10167 bound_to 10162
  156.8679  130.5609  149.5659 H   0  0  0  0  0  0  0  0  0  0  0  0  # atno 10718 bound_to 10713
  153.2603  135.4232  155.0887 H   0  0  0  0  0  0  0  0  0  0  0  0  # atno 10763 bound_to 10752
  154.8417  135.3447  154.6387 H   0  0  0  0  0  0  0  0  0  0  0  0  # atno 10764 bound_to 10752
  153.6807  135.7039  153.5176 H   0  0  0  0  0  0  0  0  0  0  0  0  # atno 10765 bound_to 10752
  140.5030  134.5875  157.4994 H   0  0  0  0  0  0  0  0  0  0  0  0  # atno 11005 bound_to 11000
  146.2972  140.4114  142.8717 LP  0  0  0  0  0  0  0  0  0  0  0  0  # atno 17320 bound_to 7965
  144.8725  140.7291  143.6038 LP  0  0  0  0  0  0  0  0  0  0  0  0  # atno 17321 bound_to 7965
  140.2742  143.3434  152.1210 LP  0  0  0  0  0  0  0  0  0  0  0  0  # atno 17342 bound_to 10162
  139.5084  144.6849  151.5913 LP  0  0  0  0  0  0  0  0  0  0  0  0  # atno 17343 bound_to 10162
  156.0742  130.5768  150.9442 LP  0  0  0  0  0  0  0  0  0  0  0  0  # atno 17370 bound_to 10713
  157.6213  131.0929  150.8617 LP  0  0  0  0  0  0  0  0  0  0  0  0  # atno 17371 bound_to 10713
  139.9702  134.7305  156.0056 LP  0  0  0  0  0  0  0  0  0  0  0  0  # atno 17394 bound_to 11000
  141.1425  133.6562  156.3772 LP  0  0  0  0  0  0  0  0  0  0  0  0  # atno 17395 bound_to 11000

$$$$
