AV-unprocessed.smi:1184|AV-procd|sdf|4970|dock6
  -GOLD-   22720 3563D 1   1.00000     0.00000
 Structure written by MMmdl.
 43 44  0  0  0  0  0  0  0  0  2 V2000
  144.3434  132.8517  149.9061 C   0  0  0  0  0  0  0  0  0  0  0  0
  143.7529  132.2643  151.1950 C   0  0  0  0  0  0  0  0  0  0  0  0
  143.9236  133.1748  152.3513 N   0  3  2  0  0  0  0  0  0  0  0  0
  143.1289  134.4179  152.2609 C   0  0  0  0  0  0  0  0  0  0  0  0
  143.8963  135.4459  153.0860 C   0  0  0  0  0  0  0  0  0  0  0  0
  145.3509  135.0883  152.7857 C   0  0  1  0  0  0  0  0  0  0  0  0
  146.3714  135.6110  153.8148 C   0  0  0  0  0  0  0  0  0  0  0  0
  147.6828  134.9966  153.6420 N   0  0  0  0  0  0  0  0  0  0  0  0
  148.1817  134.0151  154.4102 C   0  0  0  0  0  0  0  0  0  0  0  0
  147.5707  133.5207  155.3571 O   0  0  0  0  0  0  0  0  0  0  0  0
  149.5770  133.5037  154.0491 C   0  0  0  0  0  0  0  0  0  0  0  0
  150.3256  133.1088  155.2972 C   0  0  0  0  0  0  0  0  0  0  0  0
  150.8082  131.8170  155.6556 C   0  0  0  0  0  0  0  0  0  0  0  0
  150.6989  130.5305  154.8884 C   0  0  0  0  0  0  0  0  0  0  0  0
  151.4242  131.8265  156.8256 N   0  0  0  0  0  0  0  0  0  0  0  0
  151.3621  133.1470  157.2807 O   0  0  0  0  0  0  0  0  0  0  0  0
  150.7062  133.8905  156.3540 C   0  0  0  0  0  0  0  0  0  0  0  0
  150.5338  135.3390  156.6657 C   0  0  0  0  0  0  0  0  0  0  0  0
  145.3254  133.5582  152.6538 C   0  0  0  0  0  0  0  0  0  0  0  0
  144.2524  132.1420  149.0835 H   0  0  0  0  0  0  0  0  0  0  0  0
  145.4022  133.0826  150.0272 H   0  0  0  0  0  0  0  0  0  0  0  0
  143.8321  133.7668  149.6069 H   0  0  0  0  0  0  0  0  0  0  0  0
  142.6969  132.0256  151.0602 H   0  0  0  0  0  0  0  0  0  0  0  0
  144.2620  131.3243  151.4130 H   0  0  0  0  0  0  0  0  0  0  0  0
  143.0794  134.7510  151.2226 H   0  0  0  0  0  0  0  0  0  0  0  0
  142.1085  134.2695  152.6158 H   0  0  0  0  0  0  0  0  0  0  0  0
  143.6467  136.4730  152.8176 H   0  0  0  0  0  0  0  0  0  0  0  0
  143.6808  135.3102  154.1470 H   0  0  0  0  0  0  0  0  0  0  0  0
  145.5961  135.4972  151.8037 H   0  0  0  0  0  0  0  0  0  0  0  0
  146.4889  136.6902  153.7123 H   0  0  0  0  0  0  0  0  0  0  0  0
  146.0102  135.4363  154.8297 H   0  0  0  0  0  0  0  0  0  0  0  0
  148.2580  135.3469  152.8896 H   0  0  0  0  0  0  0  0  0  0  0  0
  149.4819  132.6596  153.3650 H   0  0  0  0  0  0  0  0  0  0  0  0
  150.1026  134.2810  153.4936 H   0  0  0  0  0  0  0  0  0  0  0  0
  149.7786  130.4964  154.3053 H   0  0  0  0  0  0  0  0  0  0  0  0
  150.6976  129.6664  155.5533 H   0  0  0  0  0  0  0  0  0  0  0  0
  151.5339  130.4181  154.1971 H   0  0  0  0  0  0  0  0  0  0  0  0
  150.2949  135.9090  155.7680 H   0  0  0  0  0  0  0  0  0  0  0  0
  151.4458  135.7547  157.0940 H   0  0  0  0  0  0  0  0  0  0  0  0
  149.7259  135.4838  157.3827 H   0  0  0  0  0  0  0  0  0  0  0  0
  145.6129  133.0755  153.5886 H   0  0  0  0  0  0  0  0  0  0  0  0
  146.0267  133.2279  151.8861 H   0  0  0  0  0  0  0  0  0  0  0  0
  143.5828  132.6858  153.1668 H   0  0  0  0  0  0  0  0  0  0  0  0
  1  2  1  0  0  0  0
  1 20  1  0  0  0  0
  1 21  1  0  0  0  0
  1 22  1  0  0  0  0
  2  3  1  0  0  0  0
  2 23  1  0  0  0  0
  2 24  1  0  0  0  0
  3 19  1  0  0  0  0
  3  4  1  0  0  0  0
  3 43  1  0  0  0  0
  4  5  1  0  0  0  0
  4 25  1  0  0  0  0
  4 26  1  0  0  0  0
  5  6  1  0  0  0  0
  5 27  1  0  0  0  0
  5 28  1  0  0  0  0
  6  7  1  0  0  0  0
  6 19  1  0  0  0  0
  6 29  1  0  0  0  0
  7  8  1  0  0  0  0
  7 30  1  0  0  0  0
  7 31  1  0  0  0  0
  8  9  1  0  0  0  0
  8 32  1  0  0  0  0
  9 10  2  0  0  0  0
  9 11  1  0  0  0  0
 11 12  1  0  0  0  0
 11 33  1  0  0  0  0
 11 34  1  0  0  0  0
 12 17  2  0  0  0  0
 12 13  1  0  0  0  0
 13 14  1  0  0  0  0
 13 15  2  0  0  0  0
 14 35  1  0  0  0  0
 14 36  1  0  0  0  0
 14 37  1  0  0  0  0
 15 16  1  0  0  0  0
 16 17  1  0  0  0  0
 17 18  1  0  0  0  0
 18 38  1  0  0  0  0
 18 39  1  0  0  0  0
 18 40  1  0  0  0  0
 19 41  1  0  0  0  0
 19 42  1  0  0  0  0
M  CHG  1   3   1
M  END
> <s_m_source_file>
AV-unprocessed.smi

> <i_m_source_file_index>
1184

> <i_lp_mmshare_version>
43012

> <i_f3d_flags>
0

> <s_epik_input>
W0NIM11bQ0gyXU4xW0NIMl1bQ0gyXVtDQEhdKFtDSDJdMSlbQ0gyXVtOSF1DKD1PKVtDSDJdYzJjKFtDSDNdKW5vYzJbQ0gzXQ==

> <s_epik_cmdline>
J2VwaWtfcHl0aG9uJywgJy1waCcsICc3LjAnLCAnLXRuJywgJzgnLCAnLW1hJywgJzIwMCcsICctbWV0YWxfYmluZGluZycsICctaW1hZScsICc8aW5maWxlLm1hZT4nLCAnLW9tYWUnLCAnPG91dGZpbGUubWFlPic=

> <r_epik_Ionization_Penalty>
0.000590726

> <r_epik_Ionization_Penalty_Charging>
0.000590692

> <r_epik_Ionization_Penalty_Neutral>
3.44741e-08

> <r_epik_State_Penalty>
0.000371644

> <r_epik_Charging_Adjusted_Penalty>
0.000962336

> <i_epik_Tot_Q>
1

> <i_epik_Tot_abs_Q>
1

> <r_epik_Metal_State_Penalty>
-0

> <b_epik_Metal_Only>
0

> <s_lp_Force_Field>
OPLS_2005

> <r_lp_Energy>
22.2982

> <b_lp_Chiralities_Consistent>
1

> <s_lp_Variant>
AV-unprocessed.smi:1184-2

> <Gold.Version>
5.8.1

> <Gold.Id.Protein>
6NUR|6NUR_protein|mol2

> <Gold.PLP.Fitness>
39.7911

> <Gold.PLP.PLP>
-29.2505

> <Gold.PLP.part.hbond>
-2.9351

> <Gold.PLP.part.metal>
0.0000

> <Gold.PLP.part.buried>
-5.4283

> <Gold.PLP.part.nonpolar>
-22.2736

> <Gold.PLP.part.repulsive>
0.0162

> <Gold.PLP.ligand.clash>
0.0000

> <Gold.PLP.ligand.torsion>
0.5727

> <Gold.PLP.Chemscore.Hbond>
3.8865

> <Gold.PLP.Chemscore.CHOScore>
0.0000

> <Gold.PLP.Chemscore.Metal>
0.0000

> <Gold.Chemscore.Hbonds>
donor molecule, donor type, donor heavy atom, donor atom, acceptor molecule, acceptor atom, score
      L1  H     3    43       P1 10957  1.85
      L1  H     8    32       P1  7948  0.93
      P1  H  6896  6908       L1    16  0.80

> <Gold.PLP.Chemscore.Internal.Correction>
0.0264

> <Gold.Rescore>
     Score         DG    S(hbond)    S(metal)    S(lipo)     H(rot)  DE(clash)    DE(int)     intcor
     17.40     -18.03       2.89        0.00      61.39       1.67       0.00       0.62       ----

> <Gold.Chemscore.Fitness>
17.4038

> <Gold.Chemscore.DG>
-18.0276

> <Gold.Chemscore.ZeroCoef>
-5.4800

> <Gold.Chemscore.Hbond>
2.8851

> <Gold.Chemscore.Metal>
0.0000

> <Gold.Chemscore.Lipo>
61.3907

> <Gold.Chemscore.Internal_Hbond>
0.0000

> <Gold.Chemscore.DEClash>
0.0015

> <Gold.Chemscore.DEInternal>
0.6224

> <Gold.Chemscore.Rot>
1.6684

> <Gold.Chemscore.Internal.Correction>
   9.000000E+99

> <Gold.Chemscore.Hbonds>
donor molecule, donor type, donor heavy atom, donor atom, acceptor molecule, acceptor atom, score
      L1  H     3    43       P1 10957  0.27
      L1  H     8    32       P1  7948  0.87
      P1  H  6896  6908       L1    16  0.73

> <Gold.Chemscore.Hbond.Weighted>
-9.6361

> <Gold.Chemscore.Metal.Weighted>
-0.0000

> <Gold.Chemscore.Lipo.Weighted>
-7.1827

> <Gold.Chemscore.Internal_Hbond.Weighted>
0.0000

> <Gold.Chemscore.DEClash.Weighted>
0.0015

> <Gold.Chemscore.DEInternal.Weighted>
0.6224

> <Gold.Chemscore.Rot.Weighted>
4.2712

> <Gold.Chemscore.Internal.Correction.Weighted>
   9.000000E+99

> <Gold.Protein.RotatedTorsions>
[ 6907 6896 6895 6894 ] final   78.19 input  -60.11 | X-H torsion
[ 7974 7965 7964 7962 ] final -162.06 input  175.53 | X-H torsion
[ 8008 7997 7996 7995 ] final   12.89 input   59.86 | X-H torsion
[ 10167 10162 10161 10158 ] final  110.33 input  -65.29 | X-H torsion
[ 10718 10713 10712 10709 ] final   22.53 input   66.30 | X-H torsion
[ 10763 10752 10751 10750 ] final   -4.59 input  -60.55 | X-H torsion
[ 11005 11000 10999 10996 ] final   79.29 input  -57.11 | X-H torsion

> <Gold.Protein.ActiveResidues>
 VAL166  LYS551  ARG553  GLY616  TRP617  ASP618  TYR619  PRO620  LYS621  CYS622 
 ASP623  PHE694  ASN695  SER759  ASP760  ASP761  ALA762  ILE779  LEU786  VAL792 
 PHE793  MET794  SER795  GLU796  ALA797  LYS798  CYS799  TRP800  GLU811  SER814 

> <Gold.Protein.RotatedAtoms>
  152.5149  134.3701  159.9314 H   0  0  0  0  0  0  0  0  0  0  0  0  # atno 6907 bound_to 6896
  151.3656  133.3867  159.2702 H   0  0  0  0  0  0  0  0  0  0  0  0  # atno 6908 bound_to 6896
  150.9618  134.9024  159.7793 H   0  0  0  0  0  0  0  0  0  0  0  0  # atno 6909 bound_to 6896
  144.7370  140.3307  143.6153 H   0  0  0  0  0  0  0  0  0  0  0  0  # atno 7974 bound_to 7965
  154.8269  140.2893  155.5748 H   0  0  0  0  0  0  0  0  0  0  0  0  # atno 8008 bound_to 7997
  156.3002  140.2539  156.3118 H   0  0  0  0  0  0  0  0  0  0  0  0  # atno 8009 bound_to 7997
  154.9275  140.0384  157.2020 H   0  0  0  0  0  0  0  0  0  0  0  0  # atno 8010 bound_to 7997
  139.6696  144.7126  151.1712 H   0  0  0  0  0  0  0  0  0  0  0  0  # atno 10167 bound_to 10162
  157.1536  130.6685  149.6020 H   0  0  0  0  0  0  0  0  0  0  0  0  # atno 10718 bound_to 10713
  153.3869  135.7000  153.6524 H   0  0  0  0  0  0  0  0  0  0  0  0  # atno 10763 bound_to 10752
  153.5112  135.3631  155.2588 H   0  0  0  0  0  0  0  0  0  0  0  0  # atno 10764 bound_to 10752
  154.8698  135.4135  154.3178 H   0  0  0  0  0  0  0  0  0  0  0  0  # atno 10765 bound_to 10752
  139.9178  134.7831  156.1760 H   0  0  0  0  0  0  0  0  0  0  0  0  # atno 11005 bound_to 11000
  145.7475  139.1783  143.2341 LP  0  0  0  0  0  0  0  0  0  0  0  0  # atno 17320 bound_to 7965
  146.1087  140.7455  142.9514 LP  0  0  0  0  0  0  0  0  0  0  0  0  # atno 17321 bound_to 7965
  140.7613  143.5864  150.8841 LP  0  0  0  0  0  0  0  0  0  0  0  0  # atno 17342 bound_to 10162
  139.9529  143.6252  152.3024 LP  0  0  0  0  0  0  0  0  0  0  0  0  # atno 17343 bound_to 10162
  155.9766  130.4736  150.6539 LP  0  0  0  0  0  0  0  0  0  0  0  0  # atno 17370 bound_to 10713
  157.4198  131.0835  151.1142 LP  0  0  0  0  0  0  0  0  0  0  0  0  # atno 17371 bound_to 10713
  141.0671  133.6814  156.2067 LP  0  0  0  0  0  0  0  0  0  0  0  0  # atno 17394 bound_to 11000
  140.6567  134.5011  157.5581 LP  0  0  0  0  0  0  0  0  0  0  0  0  # atno 17395 bound_to 11000

$$$$
