AV-unprocessed.smi:153|AV-procd|sdf|1253|dock9
  -GOLD-   2262018483D 1   1.00000     0.00000
 Structure written by MMmdl.
 60 63  0  0  0  0  0  0  0  0  2 V2000
  144.9749  133.4321  162.2560 C   0  0  0  0  0  0  0  0  0  0  0  0
  145.6777  134.5599  161.4834 C   0  0  1  0  0  0  0  0  0  0  0  0
  145.3161  135.7583  162.1736 O   0  0  0  0  0  0  0  0  0  0  0  0
  146.4591  136.5624  162.4170 C   0  0  0  0  0  0  0  0  0  0  0  0
  147.5911  135.5527  162.5336 C   0  0  0  0  0  0  0  0  0  0  0  0
  147.2317  134.5281  161.4674 C   0  0  2  0  0  0  0  0  0  0  0  0
  147.6661  135.0498  160.2229 O   0  0  0  0  0  0  0  0  0  0  0  0
  147.9464  133.1657  161.6909 C   0  0  0  0  0  0  0  0  0  0  0  0
  147.7743  132.1743  160.6321 N   0  0  0  0  0  0  0  0  0  0  0  0
  147.0384  131.0102  160.6728 C   0  0  0  0  0  0  0  0  0  0  0  0
  147.0308  130.3164  159.5687 N   0  0  0  0  0  0  0  0  0  0  0  0
  147.8011  131.0608  158.6832 C   0  0  0  0  0  0  0  0  0  0  0  0
  148.1904  130.9071  157.3173 C   0  0  0  0  0  0  0  0  0  0  0  0
  147.8523  129.8538  156.5241 N   0  0  0  0  0  0  0  0  0  0  0  0
  146.5204  129.2710  156.6273 C   0  0  0  0  0  0  0  0  0  0  0  0
  148.6626  129.5394  155.3452 C   0  0  0  0  0  0  0  0  0  0  0  0
  147.8946  129.7382  154.0225 C   0  0  2  0  0  0  0  0  0  0  0  0
  148.5971  129.0279  153.0224 O   0  0  0  0  0  0  0  0  0  0  0  0
  147.7996  131.2191  153.5913 C   0  0  0  0  0  0  0  0  0  0  0  0
  147.1041  131.3973  152.2920 N   0  3  0  0  0  0  0  0  0  0  0  0
  145.7237  130.8509  152.2828 C   0  0  0  0  0  0  0  0  0  0  0  0
  145.0788  131.0434  150.8998 C   0  0  0  0  0  0  0  0  0  0  0  0
  145.0898  132.4229  150.5552 O   0  0  0  0  0  0  0  0  0  0  0  0
  146.4120  132.9398  150.4737 C   0  0  0  0  0  0  0  0  0  0  0  0
  147.1022  132.8095  151.8420 C   0  0  0  0  0  0  0  0  0  0  0  0
  148.9357  131.9046  156.7728 N   0  0  0  0  0  0  0  0  0  0  0  0
  149.2903  132.9668  157.4997 C   0  0  0  0  0  0  0  0  0  0  0  0
  149.0067  133.2350  158.7739 N   0  0  0  0  0  0  0  0  0  0  0  0
  148.2533  132.2457  159.3334 C   0  0  0  0  0  0  0  0  0  0  0  0
  145.0415  132.4812  161.7328 H   0  0  0  0  0  0  0  0  0  0  0  0
  143.9126  133.6500  162.3697 H   0  0  0  0  0  0  0  0  0  0  0  0
  145.3937  133.3077  163.2548 H   0  0  0  0  0  0  0  0  0  0  0  0
  145.2757  134.5952  160.4695 H   0  0  0  0  0  0  0  0  0  0  0  0
  146.6179  137.2316  161.5702 H   0  0  0  0  0  0  0  0  0  0  0  0
  146.3391  137.1686  163.3148 H   0  0  0  0  0  0  0  0  0  0  0  0
  148.5776  135.9988  162.4008 H   0  0  0  0  0  0  0  0  0  0  0  0
  147.5623  135.0949  163.5234 H   0  0  0  0  0  0  0  0  0  0  0  0
  148.6107  135.0672  160.2185 H   0  0  0  0  0  0  0  0  0  0  0  0
  149.0172  133.3256  161.8229 H   0  0  0  0  0  0  0  0  0  0  0  0
  147.5998  132.7274  162.6269 H   0  0  0  0  0  0  0  0  0  0  0  0
  146.4945  130.6802  161.5448 H   0  0  0  0  0  0  0  0  0  0  0  0
  146.2252  129.1540  157.6706 H   0  0  0  0  0  0  0  0  0  0  0  0
  146.4967  128.2834  156.1661 H   0  0  0  0  0  0  0  0  0  0  0  0
  145.7843  129.8955  156.1206 H   0  0  0  0  0  0  0  0  0  0  0  0
  149.5989  130.0978  155.3275 H   0  0  0  0  0  0  0  0  0  0  0  0
  148.9577  128.4927  155.4319 H   0  0  0  0  0  0  0  0  0  0  0  0
  146.9070  129.2882  154.1165 H   0  0  0  0  0  0  0  0  0  0  0  0
  148.6822  129.5761  152.2578 H   0  0  0  0  0  0  0  0  0  0  0  0
  147.2741  131.8154  154.3362 H   0  0  0  0  0  0  0  0  0  0  0  0
  148.8085  131.6321  153.5373 H   0  0  0  0  0  0  0  0  0  0  0  0
  145.7283  129.7908  152.5333 H   0  0  0  0  0  0  0  0  0  0  0  0
  145.1243  131.3541  153.0433 H   0  0  0  0  0  0  0  0  0  0  0  0
  145.6034  130.4609  150.1407 H   0  0  0  0  0  0  0  0  0  0  0  0
  144.0473  130.6915  150.9144 H   0  0  0  0  0  0  0  0  0  0  0  0
  146.9745  132.4138  149.7005 H   0  0  0  0  0  0  0  0  0  0  0  0
  146.3642  133.9873  150.1754 H   0  0  0  0  0  0  0  0  0  0  0  0
  146.5890  133.4284  152.5798 H   0  0  0  0  0  0  0  0  0  0  0  0
  148.1267  133.1769  151.7709 H   0  0  0  0  0  0  0  0  0  0  0  0
  149.8878  133.7067  156.9875 H   0  0  0  0  0  0  0  0  0  0  0  0
  147.6353  130.8831  151.6042 H   0  0  0  0  0  0  0  0  0  0  0  0
  1  2  1  0  0  0  0
  1 30  1  0  0  0  0
  1 31  1  0  0  0  0
  1 32  1  0  0  0  0
  2  6  1  0  0  0  0
  2  3  1  0  0  0  0
  2 33  1  0  0  0  0
  3  4  1  0  0  0  0
  4  5  1  0  0  0  0
  4 34  1  0  0  0  0
  4 35  1  0  0  0  0
  5  6  1  0  0  0  0
  5 36  1  0  0  0  0
  5 37  1  0  0  0  0
  6  7  1  0  0  0  0
  6  8  1  0  0  0  0
  7 38  1  0  0  0  0
  8  9  1  0  0  0  0
  8 39  1  0  0  0  0
  8 40  1  0  0  0  0
  9 29  1  0  0  0  0
  9 10  1  0  0  0  0
 10 11  2  0  0  0  0
 10 41  1  0  0  0  0
 11 12  1  0  0  0  0
 12 29  2  0  0  0  0
 12 13  1  0  0  0  0
 13 14  1  0  0  0  0
 13 26  2  0  0  0  0
 14 15  1  0  0  0  0
 14 16  1  0  0  0  0
 15 42  1  0  0  0  0
 15 43  1  0  0  0  0
 15 44  1  0  0  0  0
 16 17  1  0  0  0  0
 16 45  1  0  0  0  0
 16 46  1  0  0  0  0
 17 18  1  0  0  0  0
 17 19  1  0  0  0  0
 17 47  1  0  0  0  0
 18 48  1  0  0  0  0
 19 20  1  0  0  0  0
 19 49  1  0  0  0  0
 19 50  1  0  0  0  0
 20 25  1  0  0  0  0
 20 21  1  0  0  0  0
 20 60  1  0  0  0  0
 21 22  1  0  0  0  0
 21 51  1  0  0  0  0
 21 52  1  0  0  0  0
 22 23  1  0  0  0  0
 22 53  1  0  0  0  0
 22 54  1  0  0  0  0
 23 24  1  0  0  0  0
 24 25  1  0  0  0  0
 24 55  1  0  0  0  0
 24 56  1  0  0  0  0
 25 57  1  0  0  0  0
 25 58  1  0  0  0  0
 26 27  1  0  0  0  0
 27 28  2  0  0  0  0
 27 59  1  0  0  0  0
 28 29  1  0  0  0  0
M  CHG  1  20   1
M  END
> <s_m_source_file>
AV-unprocessed.smi

> <i_m_source_file_index>
153

> <i_lp_mmshare_version>
43012

> <i_f3d_flags>
0

> <s_epik_input>
W0NIMl0xW0NIMl1PW0NAQEhdKFtDSDNdKVtDQEBdMShbT0hdKVtDSDJdbihbY0hdbjIpYyhjMjMpbltjSF1uYzNOKFtDSDNdKVtDSDJdW0NASF0oW09IXSlbQ0gyXU40W0NIMl1bQ0gyXU9bQ0gyXVtDSDJdNA==

> <s_epik_cmdline>
J2VwaWtfcHl0aG9uJywgJy1waCcsICc3LjAnLCAnLXRuJywgJzgnLCAnLW1hJywgJzIwMCcsICctbWV0YWxfYmluZGluZycsICctaW1hZScsICc8aW5maWxlLm1hZT4nLCAnLW9tYWUnLCAnPG91dGZpbGUubWFlPic=

> <r_lp_tautomer_probability>
1

> <r_epik_Ionization_Penalty>
0.403509

> <r_epik_Ionization_Penalty_Charging>
0.40072

> <r_epik_Ionization_Penalty_Neutral>
0.00278876

> <r_epik_State_Penalty>
0.400058

> <r_epik_Charging_Adjusted_Penalty>
0.800778

> <i_epik_Tot_Q>
1

> <i_epik_Tot_abs_Q>
1

> <r_epik_Metal_State_Penalty>
0.400321

> <b_epik_Metal_Only>
0

> <s_lp_Force_Field>
OPLS_2005

> <r_lp_Energy>
47.2205

> <b_lp_Chiralities_Consistent>
1

> <s_lp_Variant>
AV-unprocessed.smi:153-4

> <Gold.Version>
5.8.1

> <Gold.Id.Protein>
6NUR|6NUR_protein|mol2

> <Gold.PLP.Fitness>
45.8829

> <Gold.PLP.PLP>
-37.9486

> <Gold.PLP.part.hbond>
-3.0000

> <Gold.PLP.part.metal>
0.0000

> <Gold.PLP.part.buried>
-5.3436

> <Gold.PLP.part.nonpolar>
-29.3316

> <Gold.PLP.part.repulsive>
0.1243

> <Gold.PLP.ligand.clash>
0.0030

> <Gold.PLP.ligand.torsion>
0.7499

> <Gold.PLP.Chemscore.Hbond>
2.9913

> <Gold.PLP.Chemscore.CHOScore>
0.0000

> <Gold.PLP.Chemscore.Metal>
0.0000

> <Gold.Chemscore.Hbonds>
donor molecule, donor type, donor heavy atom, donor atom, acceptor molecule, acceptor atom, score
      L1  H    18    48       P1 10747  0.20
      L1  H    20    60       P1 10747  0.99
      P1  H  6896  6908       L1    28  1.00

> <Gold.PLP.Chemscore.Internal.Correction>
0.4634

> <Gold.Rescore>
     Score         DG    S(hbond)    S(metal)    S(lipo)     H(rot)  DE(clash)    DE(int)     intcor
     11.91     -14.93       2.36        0.00      92.64       3.62       0.17       2.85       ----

> <Gold.Chemscore.Fitness>
11.9107

> <Gold.Chemscore.DG>
-14.9296

> <Gold.Chemscore.ZeroCoef>
-5.4800

> <Gold.Chemscore.Hbond>
2.3571

> <Gold.Chemscore.Metal>
0.0000

> <Gold.Chemscore.Lipo>
92.6434

> <Gold.Chemscore.Internal_Hbond>
0.0000

> <Gold.Chemscore.DEClash>
0.1694

> <Gold.Chemscore.DEInternal>
2.8495

> <Gold.Chemscore.Rot>
3.6182

> <Gold.Chemscore.Internal.Correction>
   9.000000E+99

> <Gold.Chemscore.Hbonds>
donor molecule, donor type, donor heavy atom, donor atom, acceptor molecule, acceptor atom, score
      L1  H    18    48       P1 10747  0.03
      L1  H    20    60       P1 10747  0.94
      P1  H  6896  6908       L1    28  0.29

> <Gold.Chemscore.Hbond.Weighted>
-7.8728

> <Gold.Chemscore.Metal.Weighted>
-0.0000

> <Gold.Chemscore.Lipo.Weighted>
-10.8393

> <Gold.Chemscore.Internal_Hbond.Weighted>
0.0000

> <Gold.Chemscore.DEClash.Weighted>
0.1694

> <Gold.Chemscore.DEInternal.Weighted>
2.8495

> <Gold.Chemscore.Rot.Weighted>
9.2625

> <Gold.Chemscore.Internal.Correction.Weighted>
   9.000000E+99

> <Gold.Protein.RotatedTorsions>
[ 6907 6896 6895 6894 ] final  136.38 input  -60.11 | X-H torsion
[ 7974 7965 7964 7962 ] final  -16.10 input  175.53 | X-H torsion
[ 8008 7997 7996 7995 ] final -124.78 input   59.86 | X-H torsion
[ 10167 10162 10161 10158 ] final   89.86 input  -65.29 | X-H torsion
[ 10718 10713 10712 10709 ] final    4.86 input   66.30 | X-H torsion
[ 10763 10752 10751 10750 ] final   37.30 input  -60.55 | X-H torsion
[ 11005 11000 10999 10996 ] final    7.48 input  -57.11 | X-H torsion

> <Gold.Protein.ActiveResidues>
 VAL166  LYS551  ARG553  GLY616  TRP617  ASP618  TYR619  PRO620  LYS621  CYS622 
 ASP623  PHE694  ASN695  SER759  ASP760  ASP761  ALA762  ILE779  LEU786  VAL792 
 PHE793  MET794  SER795  GLU796  ALA797  LYS798  CYS799  TRP800  GLU811  SER814 

> <Gold.Protein.RotatedAtoms>
  152.2900  133.5552  159.5551 H   0  0  0  0  0  0  0  0  0  0  0  0  # atno 6907 bound_to 6896
  150.7231  134.0442  159.3785 H   0  0  0  0  0  0  0  0  0  0  0  0  # atno 6908 bound_to 6896
  151.8348  135.0610  160.0492 H   0  0  0  0  0  0  0  0  0  0  0  0  # atno 6909 bound_to 6896
  146.2003  140.3588  142.8426 H   0  0  0  0  0  0  0  0  0  0  0  0  # atno 7974 bound_to 7965
  155.2024  140.0416  157.2920 H   0  0  0  0  0  0  0  0  0  0  0  0  # atno 8008 bound_to 7997
  154.6065  140.2466  155.7695 H   0  0  0  0  0  0  0  0  0  0  0  0  # atno 8009 bound_to 7997
  156.2353  140.2923  156.0306 H   0  0  0  0  0  0  0  0  0  0  0  0  # atno 8010 bound_to 7997
  139.8530  144.6583  150.9147 H   0  0  0  0  0  0  0  0  0  0  0  0  # atno 10167 bound_to 10162
  156.8989  130.5714  149.5648 H   0  0  0  0  0  0  0  0  0  0  0  0  # atno 10718 bound_to 10713
  153.0043  135.6281  154.2122 H   0  0  0  0  0  0  0  0  0  0  0  0  # atno 10763 bound_to 10752
  154.1866  135.2810  155.3037 H   0  0  0  0  0  0  0  0  0  0  0  0  # atno 10764 bound_to 10752
  154.5793  135.5652  153.7229 H   0  0  0  0  0  0  0  0  0  0  0  0  # atno 10765 bound_to 10752
  140.5477  134.0313  155.7926 H   0  0  0  0  0  0  0  0  0  0  0  0  # atno 11005 bound_to 11000
  144.8668  140.7217  143.6072 LP  0  0  0  0  0  0  0  0  0  0  0  0  # atno 17320 bound_to 7965
  145.3507  139.1707  143.4436 LP  0  0  0  0  0  0  0  0  0  0  0  0  # atno 17321 bound_to 7965
  140.7785  143.3810  151.1476 LP  0  0  0  0  0  0  0  0  0  0  0  0  # atno 17342 bound_to 10162
  139.7447  143.8871  152.3060 LP  0  0  0  0  0  0  0  0  0  0  0  0  # atno 17343 bound_to 10162
  156.0592  130.5648  150.9156 LP  0  0  0  0  0  0  0  0  0  0  0  0  # atno 17370 bound_to 10713
  157.6038  131.0940  150.8914 LP  0  0  0  0  0  0  0  0  0  0  0  0  # atno 17371 bound_to 10713
  141.1190  133.9493  157.2767 LP  0  0  0  0  0  0  0  0  0  0  0  0  # atno 17394 bound_to 11000
  139.9471  135.0182  156.8884 LP  0  0  0  0  0  0  0  0  0  0  0  0  # atno 17395 bound_to 11000

$$$$
