AV-unprocessed.smi:1|AV-procd|sdf|11|dock2
  -GOLD-   2262015103D 1   1.00000     0.00000
 Structure written by MMmdl.
 57 62  0  0  0  0  0  0  0  0  1 V2000
  149.7508  129.7748  155.0681 O   0  0  0  0  0  0  0  0  0  0  0  0
  148.7049  130.2163  154.5842 C   0  0  0  0  0  0  0  0  0  0  0  0
  147.9711  131.3320  154.9668 N   0  0  0  0  0  0  0  0  0  0  0  0
  148.4926  132.5178  154.8727 C   0  0  0  0  0  0  0  0  0  0  0  0
  149.7435  132.9686  154.4302 N   0  0  0  0  0  0  0  0  0  0  0  0
  150.1745  134.3040  154.3994 C   0  0  0  0  0  0  0  0  0  0  0  0
  149.4608  135.3284  154.7839 N   0  0  0  0  0  0  0  0  0  0  0  0
  148.2072  134.9345  155.2293 C   0  0  0  0  0  0  0  0  0  0  0  0
  147.6686  133.6683  155.3035 C   0  0  0  0  0  0  0  0  0  0  0  0
  146.3708  133.7124  155.8028 N   0  0  0  0  0  0  0  0  0  0  0  0
  146.1836  135.0132  156.0133 C   0  0  0  0  0  0  0  0  0  0  0  0
  147.2291  135.8028  155.6998 N   0  0  0  0  0  0  0  0  0  0  0  0
  147.3297  137.2886  155.8222 C   0  0  2  0  0  0  0  0  0  0  0  0
  148.6426  137.6726  155.5623 O   0  0  0  0  0  0  0  0  0  0  0  0
  148.8633  138.9068  156.2259 C   0  0  2  0  0  0  0  0  0  0  0  0
  150.3562  139.2552  156.2859 C   0  0  0  0  0  0  0  0  0  0  0  0
  150.5373  140.3406  157.1799 O   0  0  0  0  0  0  0  0  0  0  0  0
  151.7359  140.5517  157.7550 C   0  0  0  0  0  0  0  0  0  0  0  0
  152.6465  139.7210  157.7611 O   0  0  0  0  0  0  0  0  0  0  0  0
  151.8457  141.9002  158.3828 C   0  0  0  0  0  0  0  0  0  0  0  0
  152.5388  142.0403  159.6079 C   0  0  0  0  0  0  0  0  0  0  0  0
  152.6596  143.3013  160.2235 C   0  0  0  0  0  0  0  0  0  0  0  0
  152.0871  144.4375  159.6226 C   0  0  0  0  0  0  0  0  0  0  0  0
  151.3937  144.3113  158.4048 C   0  0  0  0  0  0  0  0  0  0  0  0
  151.2731  143.0513  157.7867 C   0  0  0  0  0  0  0  0  0  0  0  0
  148.1800  138.6946  157.5797 C   0  0  2  0  0  0  0  0  0  0  0  0
  149.0455  138.0061  158.4670 O   0  0  0  0  0  0  0  0  0  0  0  0
  148.2224  136.7293  159.1571 S   0  0  0  0  0  0  0  0  0  0  0  0
  148.9744  135.4951  158.8851 O   0  0  0  0  0  0  0  0  0  0  0  0
  147.8169  137.1253  160.5143 O   0  0  0  0  0  0  0  0  0  0  0  0
  146.8648  136.7444  158.1850 O   0  0  0  0  0  0  0  0  0  0  0  0
  146.9809  137.7939  157.2364 C   0  0  2  0  0  0  0  0  0  0  0  0
  148.1228  129.4998  153.4097 C   0  0  0  0  0  0  0  0  0  0  0  0
  148.8022  128.4001  152.8438 C   0  0  0  0  0  0  0  0  0  0  0  0
  148.2536  127.7261  151.7350 C   0  0  0  0  0  0  0  0  0  0  0  0
  147.0273  128.1510  151.1878 C   0  0  0  0  0  0  0  0  0  0  0  0
  146.3494  129.2511  151.7481 C   0  0  0  0  0  0  0  0  0  0  0  0
  146.8961  129.9254  152.8574 C   0  0  0  0  0  0  0  0  0  0  0  0
  151.1879  134.4340  154.0172 H   0  0  0  0  0  0  0  0  0  0  0  0
  145.2550  135.4031  156.4039 H   0  0  0  0  0  0  0  0  0  0  0  0
  146.6661  137.6847  155.0520 H   0  0  0  0  0  0  0  0  0  0  0  0
  148.3323  139.6820  155.6699 H   0  0  0  0  0  0  0  0  0  0  0  0
  150.9428  138.3939  156.6080 H   0  0  0  0  0  0  0  0  0  0  0  0
  150.7105  139.5387  155.2940 H   0  0  0  0  0  0  0  0  0  0  0  0
  152.9870  141.1826  160.0885 H   0  0  0  0  0  0  0  0  0  0  0  0
  153.1926  143.3962  161.1581 H   0  0  0  0  0  0  0  0  0  0  0  0
  152.1793  145.4043  160.0950 H   0  0  0  0  0  0  0  0  0  0  0  0
  150.9533  145.1826  157.9432 H   0  0  0  0  0  0  0  0  0  0  0  0
  150.7338  142.9904  156.8526 H   0  0  0  0  0  0  0  0  0  0  0  0
  147.8755  139.6349  158.0400 H   0  0  0  0  0  0  0  0  0  0  0  0
  146.0510  138.3607  157.1861 H   0  0  0  0  0  0  0  0  0  0  0  0
  149.7439  128.0692  153.2573 H   0  0  0  0  0  0  0  0  0  0  0  0
  148.7738  126.8834  151.3044 H   0  0  0  0  0  0  0  0  0  0  0  0
  146.6077  127.6341  150.3374 H   0  0  0  0  0  0  0  0  0  0  0  0
  145.4101  129.5781  151.3269 H   0  0  0  0  0  0  0  0  0  0  0  0
  146.3709  130.7692  153.2815 H   0  0  0  0  0  0  0  0  0  0  0  0
  150.3943  132.2672  154.1068 H   0  0  0  0  0  0  0  0  0  0  0  0
  1  2  2  0  0  0  0
  2  3  1  0  0  0  0
  2 33  1  0  0  0  0
  3  4  2  0  0  0  0
  4  9  1  0  0  0  0
  4  5  1  0  0  0  0
  5  6  1  0  0  0  0
  5 57  1  0  0  0  0
  6  7  2  0  0  0  0
  6 39  1  0  0  0  0
  7  8  1  0  0  0  0
  8 12  1  0  0  0  0
  8  9  2  0  0  0  0
  9 10  1  0  0  0  0
 10 11  2  0  0  0  0
 11 12  1  0  0  0  0
 11 40  1  0  0  0  0
 12 13  1  0  0  0  0
 13 32  1  0  0  0  0
 13 14  1  0  0  0  0
 13 41  1  0  0  0  0
 14 15  1  0  0  0  0
 15 16  1  0  0  0  0
 15 26  1  0  0  0  0
 15 42  1  0  0  0  0
 16 17  1  0  0  0  0
 16 43  1  0  0  0  0
 16 44  1  0  0  0  0
 17 18  1  0  0  0  0
 18 19  2  0  0  0  0
 18 20  1  0  0  0  0
 20 25  1  0  0  0  0
 20 21  2  0  0  0  0
 21 22  1  0  0  0  0
 21 45  1  0  0  0  0
 22 23  2  0  0  0  0
 22 46  1  0  0  0  0
 23 24  1  0  0  0  0
 23 47  1  0  0  0  0
 24 25  2  0  0  0  0
 24 48  1  0  0  0  0
 25 49  1  0  0  0  0
 26 32  1  0  0  0  0
 26 27  1  0  0  0  0
 26 50  1  0  0  0  0
 27 28  1  0  0  0  0
 28 29  2  0  0  0  0
 28 30  2  0  0  0  0
 28 31  1  0  0  0  0
 31 32  1  0  0  0  0
 32 51  1  0  0  0  0
 33 38  1  0  0  0  0
 33 34  2  0  0  0  0
 34 35  1  0  0  0  0
 34 52  1  0  0  0  0
 35 36  2  0  0  0  0
 35 53  1  0  0  0  0
 36 37  1  0  0  0  0
 36 54  1  0  0  0  0
 37 38  2  0  0  0  0
 37 55  1  0  0  0  0
 38 56  1  0  0  0  0
M  END
> <s_m_source_file>
AV-unprocessed.smi

> <i_m_source_file_index>
1

> <i_lp_mmshare_version>
43012

> <i_f3d_flags>
0

> <s_epik_input>
W2NIXTFbY0hdW2NIXVtjSF1bY0hdYzFDKD1PKVtOSF1jKG5bY0hdbjIpYyhjMjMpbltjSF1uM1tDQEBIXShbQ0BIXShbQ0BIXTQ1KU9TKE81KSg9Tyk9TylPW0NASF00W0NIMl1PQyg9TyljNltjSF1bY0hdW2NIXVtjSF1bY0hdNg==

> <s_epik_cmdline>
J2VwaWtfcHl0aG9uJywgJy1waCcsICc3LjAnLCAnLXRuJywgJzgnLCAnLW1hJywgJzIwMCcsICctbWV0YWxfYmluZGluZycsICctaW1hZScsICc8aW5maWxlLm1hZT4nLCAnLW9tYWUnLCAnPG91dGZpbGUubWFlPic=

> <r_epik_Ionization_Penalty>
0.122545

> <r_epik_Ionization_Penalty_Charging>
0.122545

> <r_epik_Ionization_Penalty_Neutral>
7.8935e-16

> <r_epik_State_Penalty>
2.69178

> <r_epik_Charging_Adjusted_Penalty>
2.81433

> <i_epik_Tot_Q>
0

> <i_epik_Tot_abs_Q>
0

> <r_epik_Metal_State_Penalty>
3.02665

> <b_epik_Metal_Only>
0

> <s_epik_Chemistry_Notes>
This compound has an ester and may undergo hydrolysis at high or low pH. This compound contains an acetal/aminal-like group ( X-CH(R)-Y where X, Y are N, S, or O) that may be acid/base labile, releasing an aldehyde.

> <s_lp_Force_Field>
OPLS_2005

> <r_lp_Energy>
59.7171

> <b_lp_Chiralities_Consistent>
1

> <s_lp_Variant>
AV-unprocessed.smi:1-11

> <Gold.Version>
5.8.1

> <Gold.Id.Protein>
6NUR|6NUR_protein|mol2

> <Gold.PLP.Fitness>
59.9409

> <Gold.PLP.PLP>
-51.8610

> <Gold.PLP.part.hbond>
-4.0000

> <Gold.PLP.part.metal>
0.0000

> <Gold.PLP.part.buried>
-8.1097

> <Gold.PLP.part.nonpolar>
-40.6915

> <Gold.PLP.part.repulsive>
0.6219

> <Gold.PLP.ligand.clash>
0.0000

> <Gold.PLP.ligand.torsion>
1.6369

> <Gold.PLP.Chemscore.Hbond>
3.4795

> <Gold.PLP.Chemscore.CHOScore>
0.2254

> <Gold.PLP.Chemscore.Metal>
0.0000

> <Gold.Chemscore.Hbonds>
donor molecule, donor type, donor heavy atom, donor atom, acceptor molecule, acceptor atom, score
      P1  H  6896  6908       L1    29  0.96
      P1  H  6931  6943       L1    30  0.54
      P1  H  6934  6947       L1    30  0.84
      P1  H  7997  8009       L1    19  0.93

> <Gold.PLP.Chemscore.Internal.Correction>
0.2389

> <Gold.Rescore>
     Score         DG    S(hbond)    S(metal)    S(lipo)     H(rot)  DE(clash)    DE(int)     intcor
     21.60     -26.06       3.47        0.00     123.61       2.13       0.04       4.42       ----

> <Gold.Chemscore.Fitness>
21.5956

> <Gold.Chemscore.DG>
-26.0550

> <Gold.Chemscore.ZeroCoef>
-5.4800

> <Gold.Chemscore.Hbond>
3.4653

> <Gold.Chemscore.Metal>
0.0000

> <Gold.Chemscore.Lipo>
123.6085

> <Gold.Chemscore.Internal_Hbond>
0.0000

> <Gold.Chemscore.DEClash>
0.0361

> <Gold.Chemscore.DEInternal>
4.4233

> <Gold.Chemscore.Rot>
2.1333

> <Gold.Chemscore.Internal.Correction>
   9.000000E+99

> <Gold.Chemscore.Hbonds>
donor molecule, donor type, donor heavy atom, donor atom, acceptor molecule, acceptor atom, score
      P1  H  6896  6908       L1    29  0.91
      P1  H  6931  6943       L1    30  0.53
      P1  H  6934  6947       L1    30  0.77
      P1  H  7997  8009       L1    19  0.87

> <Gold.Chemscore.Hbond.Weighted>
-11.5742

> <Gold.Chemscore.Metal.Weighted>
-0.0000

> <Gold.Chemscore.Lipo.Weighted>
-14.4622

> <Gold.Chemscore.Internal_Hbond.Weighted>
0.0000

> <Gold.Chemscore.DEClash.Weighted>
0.0361

> <Gold.Chemscore.DEInternal.Weighted>
4.4233

> <Gold.Chemscore.Rot.Weighted>
5.4614

> <Gold.Chemscore.Internal.Correction.Weighted>
   9.000000E+99

> <Gold.Protein.RotatedTorsions>
[ 6907 6896 6895 6894 ] final  176.73 input  -60.11 | X-H torsion
[ 7974 7965 7964 7962 ] final -149.80 input  175.53 | X-H torsion
[ 8008 7997 7996 7995 ] final  171.04 input   59.86 | X-H torsion
[ 10167 10162 10161 10158 ] final    0.37 input  -65.29 | X-H torsion
[ 10718 10713 10712 10709 ] final  160.60 input   66.30 | X-H torsion
[ 10763 10752 10751 10750 ] final -159.41 input  -60.55 | X-H torsion
[ 11005 11000 10999 10996 ] final  -92.33 input  -57.11 | X-H torsion

> <Gold.Protein.ActiveResidues>
 VAL166  LYS551  ARG553  GLY616  TRP617  ASP618  TYR619  PRO620  LYS621  CYS622 
 ASP623  PHE694  ASN695  SER759  ASP760  ASP761  ALA762  ILE779  LEU786  VAL792 
 PHE793  MET794  SER795  GLU796  ALA797  LYS798  CYS799  TRP800  GLU811  SER814 

> <Gold.Protein.RotatedAtoms>
  151.7154  133.3313  159.3301 H   0  0  0  0  0  0  0  0  0  0  0  0  # atno 6907 bound_to 6896
  150.7676  134.6495  159.6290 H   0  0  0  0  0  0  0  0  0  0  0  0  # atno 6908 bound_to 6896
  152.3685  134.6771  160.0235 H   0  0  0  0  0  0  0  0  0  0  0  0  # atno 6909 bound_to 6896
  144.7946  140.5017  143.5749 H   0  0  0  0  0  0  0  0  0  0  0  0  # atno 7974 bound_to 7965
  156.1309  140.1522  156.9067 H   0  0  0  0  0  0  0  0  0  0  0  0  # atno 8008 bound_to 7997
  154.4908  140.0852  156.7630 H   0  0  0  0  0  0  0  0  0  0  0  0  # atno 8009 bound_to 7997
  155.4258  140.3425  155.4277 H   0  0  0  0  0  0  0  0  0  0  0  0  # atno 8010 bound_to 7997
  140.6731  143.6992  150.7965 H   0  0  0  0  0  0  0  0  0  0  0  0  # atno 10167 bound_to 10162
  157.1482  131.0557  151.2293 H   0  0  0  0  0  0  0  0  0  0  0  0  # atno 10718 bound_to 10713
  154.7477  135.3084  154.8614 H   0  0  0  0  0  0  0  0  0  0  0  0  # atno 10763 bound_to 10752
  153.9410  135.6774  153.4748 H   0  0  0  0  0  0  0  0  0  0  0  0  # atno 10764 bound_to 10752
  153.1073  135.4883  154.8901 H   0  0  0  0  0  0  0  0  0  0  0  0  # atno 10765 bound_to 10752
  141.1524  133.7814  157.0005 H   0  0  0  0  0  0  0  0  0  0  0  0  # atno 11005 bound_to 11000
  145.5707  139.1483  143.3290 LP  0  0  0  0  0  0  0  0  0  0  0  0  # atno 17320 bound_to 7965
  146.2209  140.5840  142.9017 LP  0  0  0  0  0  0  0  0  0  0  0  0  # atno 17321 bound_to 7965
  140.0680  143.5089  152.2594 LP  0  0  0  0  0  0  0  0  0  0  0  0  # atno 17342 bound_to 10162
  139.6010  144.7582  151.3173 LP  0  0  0  0  0  0  0  0  0  0  0  0  # atno 17343 bound_to 10162
  157.4245  130.7456  149.6940 LP  0  0  0  0  0  0  0  0  0  0  0  0  # atno 17370 bound_to 10713
  155.9775  130.4062  150.3705 LP  0  0  0  0  0  0  0  0  0  0  0  0  # atno 17371 bound_to 10713
  140.0943  134.9573  157.1825 LP  0  0  0  0  0  0  0  0  0  0  0  0  # atno 17394 bound_to 11000
  140.3403  134.2711  155.7213 LP  0  0  0  0  0  0  0  0  0  0  0  0  # atno 17395 bound_to 11000

$$$$
