AV-unprocessed.smi:2173|AV-procd|sdf|8839|dock3
  -GOLD-   2272012 33D 1   1.00000     0.00000
 Structure written by MMmdl.
 35 36  0  0  0  0  0  0  0  0  1 V2000
  153.7241  140.7126  159.4776 O   0  0  0  0  0  0  0  0  0  0  0  0
  152.7890  141.2251  158.8615 C   0  0  0  0  0  0  0  0  0  0  0  0
  152.2212  140.6612  157.7846 N   0  0  0  0  0  0  0  0  0  0  0  0
  152.5644  139.3496  157.2447 C   0  0  0  0  0  0  0  0  0  0  0  0
  152.4457  139.2786  155.7075 C   0  0  0  0  0  0  0  0  0  0  0  0
  151.0761  139.6726  155.1773 C   0  0  0  0  0  0  0  0  0  0  0  0
  150.2433  138.7141  154.5619 C   0  0  0  0  0  0  0  0  0  0  0  0
  148.9931  139.1316  154.0647 C   0  0  0  0  0  0  0  0  0  0  0  0
  148.6260  140.4844  154.1998 C   0  0  0  0  0  0  0  0  0  0  0  0
  149.5280  141.3634  154.8312 C   0  0  0  0  0  0  0  0  0  0  0  0
  150.7278  140.9731  155.3116 N   0  0  0  0  0  0  0  0  0  0  0  0
  152.1965  142.5633  159.3214 C   0  0  1  0  0  0  0  0  0  0  0  0
  152.6345  142.8887  160.7677 C   0  0  0  0  0  0  0  0  0  0  0  0
  152.2768  144.3087  161.1685 C   0  0  0  0  0  0  0  0  0  0  0  0
  151.9432  145.2642  160.2843 C   0  0  0  0  0  0  0  0  0  0  0  0
  151.8917  145.0341  158.7839 C   0  0  0  0  0  0  0  0  0  0  0  0
  152.5753  143.7163  158.3704 C   0  0  0  0  0  0  0  0  0  0  0  0
  151.4599  141.1525  157.3392 H   0  0  0  0  0  0  0  0  0  0  0  0
  153.5932  139.1379  157.5367 H   0  0  0  0  0  0  0  0  0  0  0  0
  151.9488  138.5775  157.7088 H   0  0  0  0  0  0  0  0  0  0  0  0
  153.1996  139.9228  155.2543 H   0  0  0  0  0  0  0  0  0  0  0  0
  152.6766  138.2677  155.3679 H   0  0  0  0  0  0  0  0  0  0  0  0
  150.5560  137.6845  154.4686 H   0  0  0  0  0  0  0  0  0  0  0  0
  148.3286  138.4273  153.5868 H   0  0  0  0  0  0  0  0  0  0  0  0
  147.6761  140.8401  153.8291 H   0  0  0  0  0  0  0  0  0  0  0  0
  149.2806  142.4078  154.9521 H   0  0  0  0  0  0  0  0  0  0  0  0
  151.1084  142.4740  159.3098 H   0  0  0  0  0  0  0  0  0  0  0  0
  152.1521  142.1998  161.4620 H   0  0  0  0  0  0  0  0  0  0  0  0
  153.7108  142.7633  160.8944 H   0  0  0  0  0  0  0  0  0  0  0  0
  152.3106  144.5396  162.2231 H   0  0  0  0  0  0  0  0  0  0  0  0
  151.6847  146.2529  160.6343 H   0  0  0  0  0  0  0  0  0  0  0  0
  150.8447  145.0279  158.4798 H   0  0  0  0  0  0  0  0  0  0  0  0
  152.3652  145.8736  158.2743 H   0  0  0  0  0  0  0  0  0  0  0  0
  153.6573  143.8581  158.3831 H   0  0  0  0  0  0  0  0  0  0  0  0
  152.3098  143.4718  157.3409 H   0  0  0  0  0  0  0  0  0  0  0  0
  1  2  2  0  0  0  0
  2  3  1  0  0  0  0
  2 12  1  0  0  0  0
  3  4  1  0  0  0  0
  3 18  1  0  0  0  0
  4  5  1  0  0  0  0
  4 19  1  0  0  0  0
  4 20  1  0  0  0  0
  5  6  1  0  0  0  0
  5 21  1  0  0  0  0
  5 22  1  0  0  0  0
  6 11  1  0  0  0  0
  6  7  2  0  0  0  0
  7  8  1  0  0  0  0
  7 23  1  0  0  0  0
  8  9  2  0  0  0  0
  8 24  1  0  0  0  0
  9 10  1  0  0  0  0
  9 25  1  0  0  0  0
 10 11  2  0  0  0  0
 10 26  1  0  0  0  0
 12 17  1  0  0  0  0
 12 13  1  0  0  0  0
 12 27  1  0  0  0  0
 13 14  1  0  0  0  0
 13 28  1  0  0  0  0
 13 29  1  0  0  0  0
 14 15  2  0  0  0  0
 14 30  1  0  0  0  0
 15 16  1  0  0  0  0
 15 31  1  0  0  0  0
 16 17  1  0  0  0  0
 16 32  1  0  0  0  0
 16 33  1  0  0  0  0
 17 34  1  0  0  0  0
 17 35  1  0  0  0  0
M  END
> <s_m_source_file>
AV-unprocessed.smi

> <i_m_source_file_index>
2173

> <i_lp_mmshare_version>
43012

> <i_f3d_flags>
0

> <s_epik_input>
W0NIMl0xW0NIMl1bQ0hdPVtDSF1bQ0gyXVtDQEhdMUMoPU8pW05IXVtDSDJdW0NIMl1jMltjSF1bY0hdW2NIXVtjSF1uMg==

> <s_epik_cmdline>
J2VwaWtfcHl0aG9uJywgJy1waCcsICc3LjAnLCAnLXRuJywgJzgnLCAnLW1hJywgJzIwMCcsICctbWV0YWxfYmluZGluZycsICctaW1hZScsICc8aW5maWxlLm1hZT4nLCAnLW9tYWUnLCAnPG91dGZpbGUubWFlPic=

> <r_epik_Ionization_Penalty>
0.0268825

> <r_epik_Ionization_Penalty_Charging>
0

> <r_epik_Ionization_Penalty_Neutral>
0.0268825

> <r_epik_State_Penalty>
0.0219706

> <r_epik_Charging_Adjusted_Penalty>
0.0219706

> <i_epik_Tot_Q>
0

> <i_epik_Tot_abs_Q>
0

> <r_epik_Metal_State_Penalty>
0.0210138

> <b_epik_Metal_Only>
0

> <s_lp_Force_Field>
OPLS_2005

> <r_lp_Energy>
8.2635

> <b_lp_Chiralities_Consistent>
1

> <s_lp_Variant>
AV-unprocessed.smi:2173-2

> <Gold.Version>
5.8.1

> <Gold.Id.Protein>
6NUR|6NUR_protein|mol2

> <Gold.PLP.Fitness>
45.8244

> <Gold.PLP.PLP>
-43.9877

> <Gold.PLP.part.hbond>
-1.0000

> <Gold.PLP.part.metal>
0.0000

> <Gold.PLP.part.buried>
-1.6422

> <Gold.PLP.part.nonpolar>
-39.9899

> <Gold.PLP.part.repulsive>
0.1511

> <Gold.PLP.ligand.clash>
0.0000

> <Gold.PLP.ligand.torsion>
0.6014

> <Gold.PLP.Chemscore.Hbond>
0.0000

> <Gold.PLP.Chemscore.CHOScore>
1.0000

> <Gold.PLP.Chemscore.Metal>
0.0000

> <Gold.Chemscore.Hbonds>
donor molecule, donor type, donor heavy atom, donor atom, acceptor molecule, acceptor atom, score
      L1  C    10    26       P1  8028  1.00

> <Gold.PLP.Chemscore.Internal.Correction>
0.0395

> <Gold.Rescore>
     Score         DG    S(hbond)    S(metal)    S(lipo)     H(rot)  DE(clash)    DE(int)     intcor
     14.40     -15.97       0.00        0.00     120.04       1.39       0.05       1.52       ----

> <Gold.Chemscore.Fitness>
14.4024

> <Gold.Chemscore.DG>
-15.9650

> <Gold.Chemscore.ZeroCoef>
-5.4800

> <Gold.Chemscore.Hbond>
0.0000

> <Gold.Chemscore.Metal>
0.0000

> <Gold.Chemscore.Lipo>
120.0438

> <Gold.Chemscore.Internal_Hbond>
0.0000

> <Gold.Chemscore.DEClash>
0.0472

> <Gold.Chemscore.DEInternal>
1.5155

> <Gold.Chemscore.Rot>
1.3907

> <Gold.Chemscore.Internal.Correction>
   9.000000E+99

> <Gold.Chemscore.Hbond.Weighted>
-0.0000

> <Gold.Chemscore.Metal.Weighted>
-0.0000

> <Gold.Chemscore.Lipo.Weighted>
-14.0451

> <Gold.Chemscore.Internal_Hbond.Weighted>
0.0000

> <Gold.Chemscore.DEClash.Weighted>
0.0472

> <Gold.Chemscore.DEInternal.Weighted>
1.5155

> <Gold.Chemscore.Rot.Weighted>
3.5601

> <Gold.Chemscore.Internal.Correction.Weighted>
   9.000000E+99

> <Gold.Protein.RotatedTorsions>
[ 6907 6896 6895 6894 ] final -157.56 input  -60.11 | X-H torsion
[ 7974 7965 7964 7962 ] final   67.23 input  175.53 | X-H torsion
[ 8008 7997 7996 7995 ] final   43.49 input   59.86 | X-H torsion
[ 10167 10162 10161 10158 ] final  152.43 input  -65.29 | X-H torsion
[ 10718 10713 10712 10709 ] final  167.31 input   66.30 | X-H torsion
[ 10763 10752 10751 10750 ] final  -25.93 input  -60.55 | X-H torsion
[ 11005 11000 10999 10996 ] final  -53.34 input  -57.11 | X-H torsion

> <Gold.Protein.ActiveResidues>
 VAL166  LYS551  ARG553  GLY616  TRP617  ASP618  TYR619  PRO620  LYS621  CYS622 
 ASP623  PHE694  ASN695  SER759  ASP760  ASP761  ALA762  ILE779  LEU786  VAL792 
 PHE793  MET794  SER795  GLU796  ALA797  LYS798  CYS799  TRP800  GLU811  SER814 

> <Gold.Protein.RotatedAtoms>
  151.3047  133.4107  159.2642 H   0  0  0  0  0  0  0  0  0  0  0  0  # atno 6907 bound_to 6896
  151.0165  134.9437  159.8046 H   0  0  0  0  0  0  0  0  0  0  0  0  # atno 6908 bound_to 6896
  152.5314  134.3011  159.9131 H   0  0  0  0  0  0  0  0  0  0  0  0  # atno 6909 bound_to 6896
  145.8172  139.3064  143.1064 H   0  0  0  0  0  0  0  0  0  0  0  0  # atno 7974 bound_to 7965
  155.3036  140.3386  155.4246 H   0  0  0  0  0  0  0  0  0  0  0  0  # atno 8008 bound_to 7997
  156.1990  140.1725  156.7978 H   0  0  0  0  0  0  0  0  0  0  0  0  # atno 8009 bound_to 7997
  154.5534  140.0701  156.8689 H   0  0  0  0  0  0  0  0  0  0  0  0  # atno 8010 bound_to 7997
  139.4833  144.5358  151.7647 H   0  0  0  0  0  0  0  0  0  0  0  0  # atno 10167 bound_to 10162
  157.0533  131.0319  151.2673 H   0  0  0  0  0  0  0  0  0  0  0  0  # atno 10718 bound_to 10713
  153.7078  135.6952  153.5045 H   0  0  0  0  0  0  0  0  0  0  0  0  # atno 10763 bound_to 10752
  153.2295  135.4342  155.0578 H   0  0  0  0  0  0  0  0  0  0  0  0  # atno 10764 bound_to 10752
  154.8324  135.3480  154.6616 H   0  0  0  0  0  0  0  0  0  0  0  0  # atno 10765 bound_to 10752
  141.0971  133.6623  156.4158 H   0  0  0  0  0  0  0  0  0  0  0  0  # atno 11005 bound_to 11000
  145.9714  140.8757  143.0160 LP  0  0  0  0  0  0  0  0  0  0  0  0  # atno 17320 bound_to 7965
  144.6751  140.1951  143.7393 LP  0  0  0  0  0  0  0  0  0  0  0  0  # atno 17321 bound_to 7965
  140.4891  144.1337  150.5947 LP  0  0  0  0  0  0  0  0  0  0  0  0  # atno 17342 bound_to 10162
  140.4191  143.2620  151.9737 LP  0  0  0  0  0  0  0  0  0  0  0  0  # atno 17343 bound_to 10162
  157.5012  130.7881  149.7607 LP  0  0  0  0  0  0  0  0  0  0  0  0  # atno 17370 bound_to 10713
  156.0001  130.3885  150.2641 LP  0  0  0  0  0  0  0  0  0  0  0  0  # atno 17371 bound_to 10713
  140.5114  134.6392  157.5285 LP  0  0  0  0  0  0  0  0  0  0  0  0  # atno 17394 bound_to 11000
  139.9811  134.7136  155.9859 LP  0  0  0  0  0  0  0  0  0  0  0  0  # atno 17395 bound_to 11000

$$$$
