AV-unprocessed.smi:802|AV-procd|sdf|3791|dock2
  -GOLD-   22720 1223D 1   1.00000     0.00000
 Structure written by MMmdl.
 38 39  0  0  0  0  0  0  0  0  1 V2000
  147.4378  141.1260  153.1905 C   0  0  0  0  0  0  0  0  0  0  0  0
  148.6779  140.5644  153.8208 C   0  0  0  0  0  0  0  0  0  0  0  0
  148.8864  139.2646  154.3579 C   0  0  0  0  0  0  0  0  0  0  0  0
  150.1775  139.3034  154.8025 C   0  0  0  0  0  0  0  0  0  0  0  0
  151.0501  138.3029  155.4807 C   0  0  0  0  0  0  0  0  0  0  0  0
  152.6175  139.1167  155.9994 S   0  0  0  0  0  0  0  0  0  0  0  0
  153.2618  138.3019  157.0404 O   0  0  0  0  0  0  0  0  0  0  0  0
  153.3674  139.4909  154.7904 O   0  0  0  0  0  0  0  0  0  0  0  0
  152.0537  140.5646  156.7513 N   0  0  0  0  0  0  0  0  0  0  0  0
  151.2245  140.4676  157.9564 C   0  0  0  0  0  0  0  0  0  0  0  0
  151.2304  141.7793  158.7687 C   0  0  0  0  0  0  0  0  0  0  0  0
  150.9604  143.0220  157.8941 C   0  0  0  0  0  0  0  0  0  0  0  0
  150.8996  144.3040  158.7410 C   0  0  0  0  0  0  0  0  0  0  0  0
  152.1786  144.4838  159.5738 C   0  0  0  0  0  0  0  0  0  0  0  0
  152.4460  143.2525  160.4537 C   0  0  0  0  0  0  0  0  0  0  0  0
  152.5099  141.9681  159.6111 C   0  0  0  0  0  0  0  0  0  0  0  0
  150.7224  140.5224  154.5551 O   0  0  0  0  0  0  0  0  0  0  0  0
  149.7581  141.3201  153.9297 N   0  0  0  0  0  0  0  0  0  0  0  0
  146.7248  140.3361  152.9544 H   0  0  0  0  0  0  0  0  0  0  0  0
  147.6681  141.6520  152.2634 H   0  0  0  0  0  0  0  0  0  0  0  0
  146.9436  141.8300  153.8605 H   0  0  0  0  0  0  0  0  0  0  0  0
  148.1954  138.4367  154.4149 H   0  0  0  0  0  0  0  0  0  0  0  0
  150.5605  137.8949  156.3649 H   0  0  0  0  0  0  0  0  0  0  0  0
  151.2887  137.4767  154.8109 H   0  0  0  0  0  0  0  0  0  0  0  0
  151.6381  141.1980  156.0686 H   0  0  0  0  0  0  0  0  0  0  0  0
  150.2062  140.2219  157.6543 H   0  0  0  0  0  0  0  0  0  0  0  0
  151.5673  139.6370  158.5746 H   0  0  0  0  0  0  0  0  0  0  0  0
  150.3993  141.7018  159.4715 H   0  0  0  0  0  0  0  0  0  0  0  0
  151.7428  143.1273  157.1414 H   0  0  0  0  0  0  0  0  0  0  0  0
  150.0231  142.8999  157.3501 H   0  0  0  0  0  0  0  0  0  0  0  0
  150.7520  145.1695  158.0946 H   0  0  0  0  0  0  0  0  0  0  0  0
  150.0349  144.2626  159.4045 H   0  0  0  0  0  0  0  0  0  0  0  0
  153.0275  144.6495  158.9093 H   0  0  0  0  0  0  0  0  0  0  0  0
  152.0945  145.3749  160.1965 H   0  0  0  0  0  0  0  0  0  0  0  0
  153.3797  143.3838  161.0014 H   0  0  0  0  0  0  0  0  0  0  0  0
  151.6589  143.1602  161.2030 H   0  0  0  0  0  0  0  0  0  0  0  0
  152.6565  141.1088  160.2660 H   0  0  0  0  0  0  0  0  0  0  0  0
  153.3828  142.0133  158.9590 H   0  0  0  0  0  0  0  0  0  0  0  0
  1  2  1  0  0  0  0
  1 19  1  0  0  0  0
  1 20  1  0  0  0  0
  1 21  1  0  0  0  0
  2 18  2  0  0  0  0
  2  3  1  0  0  0  0
  3  4  2  0  0  0  0
  3 22  1  0  0  0  0
  4  5  1  0  0  0  0
  4 17  1  0  0  0  0
  5  6  1  0  0  0  0
  5 23  1  0  0  0  0
  5 24  1  0  0  0  0
  6  7  2  0  0  0  0
  6  8  2  0  0  0  0
  6  9  1  0  0  0  0
  9 10  1  0  0  0  0
  9 25  1  0  0  0  0
 10 11  1  0  0  0  0
 10 26  1  0  0  0  0
 10 27  1  0  0  0  0
 11 16  1  0  0  0  0
 11 12  1  0  0  0  0
 11 28  1  0  0  0  0
 12 13  1  0  0  0  0
 12 29  1  0  0  0  0
 12 30  1  0  0  0  0
 13 14  1  0  0  0  0
 13 31  1  0  0  0  0
 13 32  1  0  0  0  0
 14 15  1  0  0  0  0
 14 33  1  0  0  0  0
 14 34  1  0  0  0  0
 15 16  1  0  0  0  0
 15 35  1  0  0  0  0
 15 36  1  0  0  0  0
 16 37  1  0  0  0  0
 16 38  1  0  0  0  0
 17 18  1  0  0  0  0
M  END
> <s_m_source_file>
AV-unprocessed.smi

> <i_m_source_file_index>
802

> <i_lp_mmshare_version>
43012

> <i_f3d_flags>
0

> <s_epik_input>
W0NIM11jMVtjSF1jKG9uMSlbQ0gyXVMoPU8pKD1PKVtOSF1bQ0gyXVtDSF0yW0NIMl1bQ0gyXVtDSDJdW0NIMl1bQ0gyXTI=

> <s_epik_cmdline>
J2VwaWtfcHl0aG9uJywgJy1waCcsICc3LjAnLCAnLXRuJywgJzgnLCAnLW1hJywgJzIwMCcsICctbWV0YWxfYmluZGluZycsICctaW1hZScsICc8aW5maWxlLm1hZT4nLCAnLW9tYWUnLCAnPG91dGZpbGUubWFlPic=

> <r_lp_tautomer_probability>
1

> <r_epik_Ionization_Penalty>
5.14394e-05

> <r_epik_Ionization_Penalty_Charging>
0

> <r_epik_Ionization_Penalty_Neutral>
5.14394e-05

> <r_epik_State_Penalty>
-0

> <r_epik_Charging_Adjusted_Penalty>
0

> <i_epik_Tot_Q>
0

> <i_epik_Tot_abs_Q>
0

> <r_epik_Metal_State_Penalty>
0.0455401

> <b_epik_Metal_Only>
0

> <s_lp_Force_Field>
OPLS_2005

> <r_lp_Energy>
6.71551

> <b_lp_Chiralities_Consistent>
1

> <s_lp_Variant>
AV-unprocessed.smi:802-1

> <Gold.Version>
5.8.1

> <Gold.Id.Protein>
6NUR|6NUR_protein|mol2

> <Gold.PLP.Fitness>
44.5782

> <Gold.PLP.PLP>
-38.3645

> <Gold.PLP.part.hbond>
-6.0708

> <Gold.PLP.part.metal>
0.0000

> <Gold.PLP.part.buried>
-1.4162

> <Gold.PLP.part.nonpolar>
-30.0919

> <Gold.PLP.part.repulsive>
0.3232

> <Gold.PLP.ligand.clash>
0.0000

> <Gold.PLP.ligand.torsion>
0.5364

> <Gold.PLP.Chemscore.Hbond>
2.3725

> <Gold.PLP.Chemscore.CHOScore>
0.0000

> <Gold.PLP.Chemscore.Metal>
0.0000

> <Gold.Chemscore.Hbonds>
donor molecule, donor type, donor heavy atom, donor atom, acceptor molecule, acceptor atom, score
      P1  H  7989  7998       L1    17  0.31
      P1  H  7997  8008       L1     7  0.05
      P1  H  7997  8009       L1     8  0.88
      P1  H  8011  8017       L1    18  0.75

> <Gold.PLP.Chemscore.Internal.Correction>
0.1689

> <Gold.Rescore>
     Score         DG    S(hbond)    S(metal)    S(lipo)     H(rot)  DE(clash)    DE(int)     intcor
     12.07     -15.64       0.85        0.00     100.79       1.74       0.25       3.31       ----

> <Gold.Chemscore.Fitness>
12.0722

> <Gold.Chemscore.DG>
-15.6379

> <Gold.Chemscore.ZeroCoef>
-5.4800

> <Gold.Chemscore.Hbond>
0.8468

> <Gold.Chemscore.Metal>
0.0000

> <Gold.Chemscore.Lipo>
100.7865

> <Gold.Chemscore.Internal_Hbond>
0.0000

> <Gold.Chemscore.DEClash>
0.2539

> <Gold.Chemscore.DEInternal>
3.3117

> <Gold.Chemscore.Rot>
1.7432

> <Gold.Chemscore.Internal.Correction>
   9.000000E+99

> <Gold.Chemscore.Hbonds>
donor molecule, donor type, donor heavy atom, donor atom, acceptor molecule, acceptor atom, score
      P1  H  7989  7998       L1    17  0.01
      P1  H  7997  8009       L1     8  0.26
      P1  H  8011  8017       L1    18  0.41

> <Gold.Chemscore.Hbond.Weighted>
-2.8285

> <Gold.Chemscore.Metal.Weighted>
-0.0000

> <Gold.Chemscore.Lipo.Weighted>
-11.7920

> <Gold.Chemscore.Internal_Hbond.Weighted>
0.0000

> <Gold.Chemscore.DEClash.Weighted>
0.2539

> <Gold.Chemscore.DEInternal.Weighted>
3.3117

> <Gold.Chemscore.Rot.Weighted>
4.4626

> <Gold.Chemscore.Internal.Correction.Weighted>
   9.000000E+99

> <Gold.Protein.RotatedTorsions>
[ 6907 6896 6895 6894 ] final  169.06 input  -60.11 | X-H torsion
[ 7974 7965 7964 7962 ] final   66.71 input  175.53 | X-H torsion
[ 8008 7997 7996 7995 ] final -103.41 input   59.86 | X-H torsion
[ 10167 10162 10161 10158 ] final  115.08 input  -65.29 | X-H torsion
[ 10718 10713 10712 10709 ] final -133.89 input   66.30 | X-H torsion
[ 10763 10752 10751 10750 ] final  123.32 input  -60.55 | X-H torsion
[ 11005 11000 10999 10996 ] final   44.64 input  -57.11 | X-H torsion

> <Gold.Protein.ActiveResidues>
 VAL166  LYS551  ARG553  GLY616  TRP617  ASP618  TYR619  PRO620  LYS621  CYS622 
 ASP623  PHE694  ASN695  SER759  ASP760  ASP761  ALA762  ILE779  LEU786  VAL792 
 PHE793  MET794  SER795  GLU796  ALA797  LYS798  CYS799  TRP800  GLU811  SER814 

> <Gold.Protein.RotatedAtoms>
  151.8378  133.3419  159.3633 H   0  0  0  0  0  0  0  0  0  0  0  0  # atno 6907 bound_to 6896
  150.7244  134.5420  159.5761 H   0  0  0  0  0  0  0  0  0  0  0  0  # atno 6908 bound_to 6896
  152.2887  134.7746  160.0433 H   0  0  0  0  0  0  0  0  0  0  0  0  # atno 6909 bound_to 6896
  145.8233  139.3097  143.1030 H   0  0  0  0  0  0  0  0  0  0  0  0  # atno 7974 bound_to 7965
  154.8705  140.0423  157.1721 H   0  0  0  0  0  0  0  0  0  0  0  0  # atno 8008 bound_to 7997
  154.8744  140.2963  155.5441 H   0  0  0  0  0  0  0  0  0  0  0  0  # atno 8009 bound_to 7997
  156.2999  140.2423  156.3737 H   0  0  0  0  0  0  0  0  0  0  0  0  # atno 8010 bound_to 7997
  139.6343  144.7118  151.2368 H   0  0  0  0  0  0  0  0  0  0  0  0  # atno 10167 bound_to 10162
  156.2496  130.7145  151.1039 H   0  0  0  0  0  0  0  0  0  0  0  0  # atno 10718 bound_to 10713
  153.6436  135.3375  155.3079 H   0  0  0  0  0  0  0  0  0  0  0  0  # atno 10763 bound_to 10752
  154.8554  135.4324  154.1978 H   0  0  0  0  0  0  0  0  0  0  0  0  # atno 10764 bound_to 10752
  153.2903  135.7016  153.7373 H   0  0  0  0  0  0  0  0  0  0  0  0  # atno 10765 bound_to 10752
  140.1533  134.4434  155.8367 H   0  0  0  0  0  0  0  0  0  0  0  0  # atno 11005 bound_to 11000
  145.9651  140.8805  143.0191 LP  0  0  0  0  0  0  0  0  0  0  0  0  # atno 17320 bound_to 7965
  144.6746  140.1867  143.7400 LP  0  0  0  0  0  0  0  0  0  0  0  0  # atno 17321 bound_to 7965
  140.7456  143.6425  150.8322 LP  0  0  0  0  0  0  0  0  0  0  0  0  # atno 17342 bound_to 10162
  140.0054  143.5699  152.2860 LP  0  0  0  0  0  0  0  0  0  0  0  0  # atno 17343 bound_to 10162
  157.7209  131.0682  150.6139 LP  0  0  0  0  0  0  0  0  0  0  0  0  # atno 17370 bound_to 10713
  156.6218  130.4408  149.5819 LP  0  0  0  0  0  0  0  0  0  0  0  0  # atno 17371 bound_to 10713
  141.2201  133.6881  156.7461 LP  0  0  0  0  0  0  0  0  0  0  0  0  # atno 17394 bound_to 11000
  140.2578  134.8490  157.3730 LP  0  0  0  0  0  0  0  0  0  0  0  0  # atno 17395 bound_to 11000

$$$$
