AV-unprocessed.smi:663|AV-procd|sdf|3250|dock5
  -GOLD-   22720 0203D 1   1.00000     0.00000
 Structure written by MMmdl.
 29 30  0  0  0  0  0  0  0  0  2 V2000
  149.3857  136.5218  154.5461 N   0  0  0  0  0  0  0  0  0  0  0  0
  150.5024  136.7255  155.2494 C   0  0  0  0  0  0  0  0  0  0  0  0
  151.6096  136.7877  154.7192 O   0  0  0  0  0  0  0  0  0  0  0  0
  150.3569  136.8702  156.7688 C   0  0  0  0  0  0  0  0  0  0  0  0
  149.5907  138.1408  157.2052 C   0  0  1  0  0  0  0  0  0  0  0  0
  149.1156  137.9997  158.5835 N   0  0  0  0  0  0  0  0  0  0  0  0
  148.2480  137.0900  159.0524 C   0  0  0  0  0  0  0  0  0  0  0  0
  147.7504  136.2565  158.2921 O   0  0  0  0  0  0  0  0  0  0  0  0
  148.0196  137.1960  160.3814 N   0  5  0  0  0  0  0  0  0  0  0  0
  147.5759  136.1323  161.0712 C   0  0  0  0  0  0  0  0  0  0  0  0
  147.1550  135.0078  160.4699 N   0  0  0  0  0  0  0  0  0  0  0  0
  146.7384  134.0329  161.3665 N   0  0  0  0  0  0  0  0  0  0  0  0
  146.8497  134.4523  162.6267 C   0  0  0  0  0  0  0  0  0  0  0  0
  147.4657  136.0783  162.8329 S   0  0  0  0  0  0  0  0  0  0  0  0
  150.4604  139.3723  157.0312 C   0  0  0  0  0  0  0  0  0  0  0  0
  150.5064  140.1150  155.7175 C   0  0  0  0  0  0  0  0  0  0  0  0
  151.7113  139.3298  156.1861 C   0  0  0  0  0  0  0  0  0  0  0  0
  149.4346  136.4485  153.5405 H   0  0  0  0  0  0  0  0  0  0  0  0
  148.4951  136.4692  155.0185 H   0  0  0  0  0  0  0  0  0  0  0  0
  149.8753  135.9835  157.1843 H   0  0  0  0  0  0  0  0  0  0  0  0
  151.3640  136.8903  157.1867 H   0  0  0  0  0  0  0  0  0  0  0  0
  148.7379  138.2676  156.5356 H   0  0  0  0  0  0  0  0  0  0  0  0
  149.4868  138.6568  159.2538 H   0  0  0  0  0  0  0  0  0  0  0  0
  146.5634  133.8021  163.4397 H   0  0  0  0  0  0  0  0  0  0  0  0
  150.5211  139.9904  157.9254 H   0  0  0  0  0  0  0  0  0  0  0  0
  149.9328  139.7088  154.8865 H   0  0  0  0  0  0  0  0  0  0  0  0
  150.5650  141.2008  155.7570 H   0  0  0  0  0  0  0  0  0  0  0  0
  152.5736  139.8918  156.5384 H   0  0  0  0  0  0  0  0  0  0  0  0
  151.9396  138.4026  155.6640 H   0  0  0  0  0  0  0  0  0  0  0  0
  1  2  1  0  0  0  0
  1 18  1  0  0  0  0
  1 19  1  0  0  0  0
  2  3  2  0  0  0  0
  2  4  1  0  0  0  0
  4  5  1  0  0  0  0
  4 20  1  0  0  0  0
  4 21  1  0  0  0  0
  5  6  1  0  0  0  0
  5 15  1  0  0  0  0
  5 22  1  0  0  0  0
  6  7  1  0  0  0  0
  6 23  1  0  0  0  0
  7  8  2  0  0  0  0
  7  9  1  0  0  0  0
  9 10  1  0  0  0  0
 10 14  1  0  0  0  0
 10 11  2  0  0  0  0
 11 12  1  0  0  0  0
 12 13  2  0  0  0  0
 13 14  1  0  0  0  0
 13 24  1  0  0  0  0
 15 17  1  0  0  0  0
 15 16  1  0  0  0  0
 15 25  1  0  0  0  0
 16 17  1  0  0  0  0
 16 26  1  0  0  0  0
 16 27  1  0  0  0  0
 17 28  1  0  0  0  0
 17 29  1  0  0  0  0
M  CHG  1   9  -1
M  END
> <s_m_source_file>
AV-unprocessed.smi

> <i_m_source_file_index>
663

> <i_lp_mmshare_version>
43012

> <i_f3d_flags>
0

> <s_epik_input>
W05IMl1DKD1PKVtDSDJdW0NAQEhdKFtDSF0xW0NIMl1bQ0gyXTEpW05IXUMoPU8pW05IXWMybm5bY0hdczI=

> <s_epik_cmdline>
J2VwaWtfcHl0aG9uJywgJy1waCcsICc3LjAnLCAnLXRuJywgJzgnLCAnLW1hJywgJzIwMCcsICctbWV0YWxfYmluZGluZycsICctaW1hZScsICc8aW5maWxlLm1hZT4nLCAnLW9tYWUnLCAnPG91dGZpbGUubWFlPic=

> <r_lp_tautomer_probability>
1

> <r_epik_Ionization_Penalty>
4.41895

> <r_epik_Ionization_Penalty_Charging>
4.37725

> <r_epik_Ionization_Penalty_Neutral>
0.0416999

> <r_epik_State_Penalty>
4.37688

> <r_epik_Charging_Adjusted_Penalty>
8.75413

> <i_epik_Tot_Q>
-1

> <i_epik_Tot_abs_Q>
1

> <r_epik_Metal_State_Penalty>
0.761195

> <b_epik_Metal_Only>
1

> <s_lp_Force_Field>
OPLS_2005

> <r_lp_Energy>
7.27665

> <b_lp_Chiralities_Consistent>
1

> <s_lp_Variant>
AV-unprocessed.smi:663-4

> <Gold.Version>
5.8.1

> <Gold.Id.Protein>
6NUR|6NUR_protein|mol2

> <Gold.PLP.Fitness>
38.7142

> <Gold.PLP.PLP>
-26.2944

> <Gold.PLP.part.hbond>
-4.0000

> <Gold.PLP.part.metal>
0.0000

> <Gold.PLP.part.buried>
-4.7840

> <Gold.PLP.part.nonpolar>
-18.7403

> <Gold.PLP.part.repulsive>
0.3365

> <Gold.PLP.ligand.clash>
0.0000

> <Gold.PLP.ligand.torsion>
1.2782

> <Gold.PLP.Chemscore.Hbond>
4.6154

> <Gold.PLP.Chemscore.CHOScore>
0.0000

> <Gold.PLP.Chemscore.Metal>
0.0000

> <Gold.Chemscore.Hbonds>
donor molecule, donor type, donor heavy atom, donor atom, acceptor molecule, acceptor atom, score
      L1  H     1    18       P1  7948  1.00
      P1  H  6931  6943       L1     9  1.17
      P1  H  6934  6947       L1     9  1.34
      P1  H 10752 10765       L1     3  1.00

> <Gold.PLP.Chemscore.Internal.Correction>
1.1299

> <Gold.Rescore>
     Score         DG    S(hbond)    S(metal)    S(lipo)     H(rot)  DE(clash)    DE(int)     intcor
     10.08     -13.23       2.86        0.00      38.92       2.49       0.00       3.15       ----

> <Gold.Chemscore.Fitness>
10.0816

> <Gold.Chemscore.DG>
-13.2274

> <Gold.Chemscore.ZeroCoef>
-5.4800

> <Gold.Chemscore.Hbond>
2.8619

> <Gold.Chemscore.Metal>
0.0000

> <Gold.Chemscore.Lipo>
38.9184

> <Gold.Chemscore.Internal_Hbond>
0.0000

> <Gold.Chemscore.DEClash>
0.0000

> <Gold.Chemscore.DEInternal>
3.1458

> <Gold.Chemscore.Rot>
2.4863

> <Gold.Chemscore.Internal.Correction>
   9.000000E+99

> <Gold.Chemscore.Hbonds>
donor molecule, donor type, donor heavy atom, donor atom, acceptor molecule, acceptor atom, score
      L1  H     1    18       P1  7948  0.78
      P1  H  6931  6943       L1     9  0.17
      P1  H  6934  6947       L1     9  0.50
      P1  H 10752 10765       L1     3  1.00

> <Gold.Chemscore.Hbond.Weighted>
-9.5588

> <Gold.Chemscore.Metal.Weighted>
-0.0000

> <Gold.Chemscore.Lipo.Weighted>
-4.5535

> <Gold.Chemscore.Internal_Hbond.Weighted>
0.0000

> <Gold.Chemscore.DEClash.Weighted>
0.0000

> <Gold.Chemscore.DEInternal.Weighted>
3.1458

> <Gold.Chemscore.Rot.Weighted>
6.3648

> <Gold.Chemscore.Internal.Correction.Weighted>
   9.000000E+99

> <Gold.Protein.RotatedTorsions>
[ 6907 6896 6895 6894 ] final   48.90 input  -60.11 | X-H torsion
[ 7974 7965 7964 7962 ] final -171.73 input  175.53 | X-H torsion
[ 8008 7997 7996 7995 ] final   39.46 input   59.86 | X-H torsion
[ 10167 10162 10161 10158 ] final  -79.13 input  -65.29 | X-H torsion
[ 10718 10713 10712 10709 ] final   54.28 input   66.30 | X-H torsion
[ 10763 10752 10751 10750 ] final  171.59 input  -60.55 | X-H torsion
[ 11005 11000 10999 10996 ] final  -26.32 input  -57.11 | X-H torsion

> <Gold.Protein.ActiveResidues>
 VAL166  LYS551  ARG553  GLY616  TRP617  ASP618  TYR619  PRO620  LYS621  CYS622 
 ASP623  PHE694  ASN695  SER759  ASP760  ASP761  ALA762  ILE779  LEU786  VAL792 
 PHE793  MET794  SER795  GLU796  ALA797  LYS798  CYS799  TRP800  GLU811  SER814 

> <Gold.Protein.RotatedAtoms>
  152.2847  134.7789  160.0389 H   0  0  0  0  0  0  0  0  0  0  0  0  # atno 6907 bound_to 6896
  151.8356  133.3410  159.3635 H   0  0  0  0  0  0  0  0  0  0  0  0  # atno 6908 bound_to 6896
  150.7204  134.5369  159.5772 H   0  0  0  0  0  0  0  0  0  0  0  0  # atno 6909 bound_to 6896
  144.7154  140.1878  143.6351 H   0  0  0  0  0  0  0  0  0  0  0  0  # atno 7974 bound_to 7965
  155.2370  140.3342  155.4296 H   0  0  0  0  0  0  0  0  0  0  0  0  # atno 8008 bound_to 7997
  156.2271  140.1834  156.7380 H   0  0  0  0  0  0  0  0  0  0  0  0  # atno 8009 bound_to 7997
  154.5917  140.0637  156.9233 H   0  0  0  0  0  0  0  0  0  0  0  0  # atno 8010 bound_to 7997
  140.4620  143.2451  151.8334 H   0  0  0  0  0  0  0  0  0  0  0  0  # atno 10167 bound_to 10162
  157.5243  130.8586  149.8600 H   0  0  0  0  0  0  0  0  0  0  0  0  # atno 10718 bound_to 10713
  154.4140  135.2756  155.2018 H   0  0  0  0  0  0  0  0  0  0  0  0  # atno 10763 bound_to 10752
  154.3992  135.6048  153.5891 H   0  0  0  0  0  0  0  0  0  0  0  0  # atno 10764 bound_to 10752
  152.9831  135.5922  154.4426 H   0  0  0  0  0  0  0  0  0  0  0  0  # atno 10765 bound_to 10752
  140.9018  133.7519  156.0554 H   0  0  0  0  0  0  0  0  0  0  0  0  # atno 11005 bound_to 11000
  145.8796  139.2316  143.1613 LP  0  0  0  0  0  0  0  0  0  0  0  0  # atno 17320 bound_to 7965
  146.0007  140.8522  143.0020 LP  0  0  0  0  0  0  0  0  0  0  0  0  # atno 17321 bound_to 7965
  139.4807  144.4996  151.9078 LP  0  0  0  0  0  0  0  0  0  0  0  0  # atno 17342 bound_to 10162
  140.4081  144.2405  150.5890 LP  0  0  0  0  0  0  0  0  0  0  0  0  # atno 17343 bound_to 10162
  156.0375  130.3747  150.1521 LP  0  0  0  0  0  0  0  0  0  0  0  0  # atno 17370 bound_to 10713
  156.9708  130.9834  151.3459 LP  0  0  0  0  0  0  0  0  0  0  0  0  # atno 17371 bound_to 10713
  140.8220  134.3278  157.5378 LP  0  0  0  0  0  0  0  0  0  0  0  0  # atno 17394 bound_to 11000
  139.8743  134.9315  156.3529 LP  0  0  0  0  0  0  0  0  0  0  0  0  # atno 17395 bound_to 11000

$$$$
