AV-unprocessed.smi:2739|AV-procd|sdf|10553|dock3
  -GOLD-   2272015 03D 1   1.00000     0.00000
 Structure written by MMmdl.
 35 35  0  0  0  0  0  0  0  0  1 V2000
  153.0751  142.1007  159.4961 C   0  0  0  0  0  0  0  0  0  0  0  0
  151.6610  142.6991  159.5122 C   0  0  0  0  0  0  0  0  0  0  0  0
  151.3662  143.6223  158.3152 C   0  0  1  0  0  0  0  0  0  0  0  0
  152.4916  144.6470  158.1012 C   0  0  0  0  0  0  0  0  0  0  0  0
  151.1793  142.8305  157.1023 N   0  0  0  0  0  0  0  0  0  0  0  0
  150.2623  141.8643  156.9336 C   0  0  0  0  0  0  0  0  0  0  0  0
  149.4747  141.5138  157.8118 O   0  0  0  0  0  0  0  0  0  0  0  0
  150.2272  141.1895  155.5611 C   0  0  0  0  0  0  0  0  0  0  0  0
  148.9157  141.3094  154.9489 N   0  0  0  0  0  0  0  0  0  0  0  0
  148.4823  140.8022  153.7427 C   0  0  0  0  0  0  0  0  0  0  0  0
  147.1827  141.1884  153.5840 C   0  0  0  0  0  0  0  0  0  0  0  0
  146.8980  141.9394  154.7617 C   0  0  0  0  0  0  0  0  0  0  0  0
  145.6188  142.6351  155.1481 C   0  0  1  0  0  0  0  0  0  0  0  0
  145.3060  143.8002  154.1993 C   0  0  0  0  0  0  0  0  0  0  0  0
  144.5130  141.7557  155.1489 O   0  0  0  0  0  0  0  0  0  0  0  0
  147.9419  142.0043  155.5755 N   0  0  0  0  0  0  0  0  0  0  0  0
  153.2172  141.4232  160.3383 H   0  0  0  0  0  0  0  0  0  0  0  0
  153.8403  142.8741  159.5641 H   0  0  0  0  0  0  0  0  0  0  0  0
  153.2511  141.5342  158.5813 H   0  0  0  0  0  0  0  0  0  0  0  0
  150.9391  141.8816  159.5197 H   0  0  0  0  0  0  0  0  0  0  0  0
  151.5107  143.2438  160.4455 H   0  0  0  0  0  0  0  0  0  0  0  0
  150.4460  144.1675  158.5336 H   0  0  0  0  0  0  0  0  0  0  0  0
  152.6379  145.2599  158.9909 H   0  0  0  0  0  0  0  0  0  0  0  0
  152.2616  145.3205  157.2748 H   0  0  0  0  0  0  0  0  0  0  0  0
  153.4388  144.1555  157.8759 H   0  0  0  0  0  0  0  0  0  0  0  0
  151.7845  143.0462  156.3237 H   0  0  0  0  0  0  0  0  0  0  0  0
  150.9690  141.6468  154.9049 H   0  0  0  0  0  0  0  0  0  0  0  0
  150.4858  140.1333  155.6523 H   0  0  0  0  0  0  0  0  0  0  0  0
  149.1293  140.2205  153.1025 H   0  0  0  0  0  0  0  0  0  0  0  0
  146.5330  140.9720  152.7489 H   0  0  0  0  0  0  0  0  0  0  0  0
  145.7114  143.0276  156.1617 H   0  0  0  0  0  0  0  0  0  0  0  0
  146.1092  144.5380  154.2062 H   0  0  0  0  0  0  0  0  0  0  0  0
  144.3884  144.3115  154.4917 H   0  0  0  0  0  0  0  0  0  0  0  0
  145.1829  143.4537  153.1724 H   0  0  0  0  0  0  0  0  0  0  0  0
  144.4389  141.3694  154.2896 H   0  0  0  0  0  0  0  0  0  0  0  0
  1  2  1  0  0  0  0
  1 17  1  0  0  0  0
  1 18  1  0  0  0  0
  1 19  1  0  0  0  0
  2  3  1  0  0  0  0
  2 20  1  0  0  0  0
  2 21  1  0  0  0  0
  3  4  1  0  0  0  0
  3  5  1  0  0  0  0
  3 22  1  0  0  0  0
  4 23  1  0  0  0  0
  4 24  1  0  0  0  0
  4 25  1  0  0  0  0
  5  6  1  0  0  0  0
  5 26  1  0  0  0  0
  6  7  2  0  0  0  0
  6  8  1  0  0  0  0
  8  9  1  0  0  0  0
  8 27  1  0  0  0  0
  8 28  1  0  0  0  0
  9 16  1  0  0  0  0
  9 10  1  0  0  0  0
 10 11  2  0  0  0  0
 10 29  1  0  0  0  0
 11 12  1  0  0  0  0
 11 30  1  0  0  0  0
 12 13  1  0  0  0  0
 12 16  2  0  0  0  0
 13 14  1  0  0  0  0
 13 15  1  0  0  0  0
 13 31  1  0  0  0  0
 14 32  1  0  0  0  0
 14 33  1  0  0  0  0
 14 34  1  0  0  0  0
 15 35  1  0  0  0  0
M  END
> <s_m_source_file>
AV-unprocessed.smi

> <i_m_source_file_index>
2739

> <i_lp_mmshare_version>
43012

> <i_f3d_flags>
0

> <s_epik_input>
W0NIM11bQ0gyXVtDQEhdKFtDSDNdKVtOSF1DKD1PKVtDSDJdbjFbY0hdW2NIXWMobjEpW0NASF0oW0NIM10pW09IXQ==

> <s_epik_cmdline>
J2VwaWtfcHl0aG9uJywgJy1waCcsICc3LjAnLCAnLXRuJywgJzgnLCAnLW1hJywgJzIwMCcsICctbWV0YWxfYmluZGluZycsICctaW1hZScsICc8aW5maWxlLm1hZT4nLCAnLW9tYWUnLCAnPG91dGZpbGUubWFlPic=

> <r_lp_tautomer_probability>
1

> <r_epik_Ionization_Penalty>
5.22246e-06

> <r_epik_Ionization_Penalty_Charging>
0

> <r_epik_Ionization_Penalty_Neutral>
5.22246e-06

> <r_epik_State_Penalty>
-0

> <r_epik_Charging_Adjusted_Penalty>
0

> <i_epik_Tot_Q>
0

> <i_epik_Tot_abs_Q>
0

> <r_epik_Metal_State_Penalty>
-0

> <b_epik_Metal_Only>
0

> <s_lp_Force_Field>
OPLS_2005

> <r_lp_Energy>
1.19937

> <b_lp_Chiralities_Consistent>
1

> <s_lp_Variant>
AV-unprocessed.smi:2739-4

> <Gold.Version>
5.8.1

> <Gold.Id.Protein>
6NUR|6NUR_protein|mol2

> <Gold.PLP.Fitness>
40.6787

> <Gold.PLP.PLP>
-34.9756

> <Gold.PLP.part.hbond>
-1.4438

> <Gold.PLP.part.metal>
0.0000

> <Gold.PLP.part.buried>
-3.6376

> <Gold.PLP.part.nonpolar>
-32.5194

> <Gold.PLP.part.repulsive>
2.0851

> <Gold.PLP.ligand.clash>
0.0000

> <Gold.PLP.ligand.torsion>
0.1547

> <Gold.PLP.Chemscore.Hbond>
0.9913

> <Gold.PLP.Chemscore.CHOScore>
1.0000

> <Gold.PLP.Chemscore.Metal>
0.0000

> <Gold.Chemscore.Hbonds>
donor molecule, donor type, donor heavy atom, donor atom, acceptor molecule, acceptor atom, score
      L1  H    15    35       P1 10175  0.75
      L1  C    10    29       P1  7957  0.94

> <Gold.PLP.Chemscore.Internal.Correction>
0.0387

> <Gold.Rescore>
     Score         DG    S(hbond)    S(metal)    S(lipo)     H(rot)  DE(clash)    DE(int)     intcor
      9.93     -12.20       0.95        0.00      81.70       2.34       0.61       1.67       ----

> <Gold.Chemscore.Fitness>
9.9316

> <Gold.Chemscore.DG>
-12.2035

> <Gold.Chemscore.ZeroCoef>
-5.4800

> <Gold.Chemscore.Hbond>
0.9484

> <Gold.Chemscore.Metal>
0.0000

> <Gold.Chemscore.Lipo>
81.6985

> <Gold.Chemscore.Internal_Hbond>
0.0000

> <Gold.Chemscore.DEClash>
0.6058

> <Gold.Chemscore.DEInternal>
1.6661

> <Gold.Chemscore.Rot>
2.3448

> <Gold.Chemscore.Internal.Correction>
   9.000000E+99

> <Gold.Chemscore.Hbonds>
donor molecule, donor type, donor heavy atom, donor atom, acceptor molecule, acceptor atom, score
      L1  H    15    35       P1 10175  0.41

> <Gold.Chemscore.Hbond.Weighted>
-3.1675

> <Gold.Chemscore.Metal.Weighted>
-0.0000

> <Gold.Chemscore.Lipo.Weighted>
-9.5587

> <Gold.Chemscore.Internal_Hbond.Weighted>
0.0000

> <Gold.Chemscore.DEClash.Weighted>
0.6058

> <Gold.Chemscore.DEInternal.Weighted>
1.6661

> <Gold.Chemscore.Rot.Weighted>
6.0027

> <Gold.Chemscore.Internal.Correction.Weighted>
   9.000000E+99

> <Gold.Protein.RotatedTorsions>
[ 6907 6896 6895 6894 ] final -135.37 input  -60.11 | X-H torsion
[ 7974 7965 7964 7962 ] final  -78.47 input  175.53 | X-H torsion
[ 8008 7997 7996 7995 ] final  125.48 input   59.86 | X-H torsion
[ 10167 10162 10161 10158 ] final  -95.81 input  -65.29 | X-H torsion
[ 10718 10713 10712 10709 ] final -174.58 input   66.30 | X-H torsion
[ 10763 10752 10751 10750 ] final  -53.53 input  -60.55 | X-H torsion
[ 11005 11000 10999 10996 ] final   64.74 input  -57.11 | X-H torsion

> <Gold.Protein.ActiveResidues>
 VAL166  LYS551  ARG553  GLY616  TRP617  ASP618  TYR619  PRO620  LYS621  CYS622 
 ASP623  PHE694  ASN695  SER759  ASP760  ASP761  ALA762  ILE779  LEU786  VAL792 
 PHE793  MET794  SER795  GLU796  ALA797  LYS798  CYS799  TRP800  GLU811  SER814 

> <Gold.Protein.RotatedAtoms>
  150.9970  133.6093  159.2700 H   0  0  0  0  0  0  0  0  0  0  0  0  # atno 6907 bound_to 6896
  151.3293  135.0837  159.9343 H   0  0  0  0  0  0  0  0  0  0  0  0  # atno 6908 bound_to 6896
  152.5263  133.9602  159.7768 H   0  0  0  0  0  0  0  0  0  0  0  0  # atno 6909 bound_to 6896
  145.5860  140.9439  143.1318 H   0  0  0  0  0  0  0  0  0  0  0  0  # atno 7974 bound_to 7965
  156.2835  140.2715  156.1956 H   0  0  0  0  0  0  0  0  0  0  0  0  # atno 8008 bound_to 7997
  155.0414  140.0386  157.2528 H   0  0  0  0  0  0  0  0  0  0  0  0  # atno 8009 bound_to 7997
  154.7271  140.2699  155.6494 H   0  0  0  0  0  0  0  0  0  0  0  0  # atno 8010 bound_to 7997
  140.3003  143.3167  152.0255 H   0  0  0  0  0  0  0  0  0  0  0  0  # atno 10167 bound_to 10162
  156.7872  130.9505  151.3120 H   0  0  0  0  0  0  0  0  0  0  0  0  # atno 10718 bound_to 10713
  154.1602  135.6476  153.4984 H   0  0  0  0  0  0  0  0  0  0  0  0  # atno 10763 bound_to 10752
  153.0112  135.5359  154.6718 H   0  0  0  0  0  0  0  0  0  0  0  0  # atno 10764 bound_to 10752
  154.6030  135.2945  155.0487 H   0  0  0  0  0  0  0  0  0  0  0  0  # atno 10765 bound_to 10752
  139.9939  134.6547  156.0043 H   0  0  0  0  0  0  0  0  0  0  0  0  # atno 11005 bound_to 11000
  144.7372  139.7551  143.7324 LP  0  0  0  0  0  0  0  0  0  0  0  0  # atno 17320 bound_to 7965
  146.1681  139.4821  142.9945 LP  0  0  0  0  0  0  0  0  0  0  0  0  # atno 17321 bound_to 7965
  139.4916  144.6461  151.6776 LP  0  0  0  0  0  0  0  0  0  0  0  0  # atno 17342 bound_to 10162
  140.5657  144.0194  150.6191 LP  0  0  0  0  0  0  0  0  0  0  0  0  # atno 17343 bound_to 10162
  157.6618  130.8973  149.9846 LP  0  0  0  0  0  0  0  0  0  0  0  0  # atno 17370 bound_to 10713
  156.1181  130.3647  149.9933 LP  0  0  0  0  0  0  0  0  0  0  0  0  # atno 17371 bound_to 10713
  141.1589  133.6540  156.4251 LP  0  0  0  0  0  0  0  0  0  0  0  0  # atno 17394 bound_to 11000
  140.4855  134.6624  157.5189 LP  0  0  0  0  0  0  0  0  0  0  0  0  # atno 17395 bound_to 11000

$$$$
