AV-unprocessed.smi:1737|AV-procd|sdf|6994|dock3
  -GOLD-   22720 8203D 1   1.00000     0.00000
 Structure written by MMmdl.
 42 43  0  0  0  0  0  0  0  0  1 V2000
  147.6677  133.0882  152.3687 C   0  0  0  0  0  0  0  0  0  0  0  0
  146.4311  133.1345  151.4857 C   0  0  0  0  0  0  0  0  0  0  0  0
  145.8793  131.9273  151.0065 C   0  0  0  0  0  0  0  0  0  0  0  0
  144.7343  131.9720  150.1931 C   0  0  0  0  0  0  0  0  0  0  0  0
  144.1858  133.2301  149.8917 C   0  0  0  0  0  0  0  0  0  0  0  0
  144.7074  134.3886  150.3439 N   0  0  0  0  0  0  0  0  0  0  0  0
  145.8133  134.3634  151.1296 C   0  0  0  0  0  0  0  0  0  0  0  0
  146.4185  135.5463  151.6405 N   0  0  0  0  0  0  0  0  0  0  0  0
  145.8245  136.6821  152.0478 C   0  0  0  0  0  0  0  0  0  0  0  0
  144.6111  136.8924  152.0514 O   0  0  0  0  0  0  0  0  0  0  0  0
  146.7296  137.5802  152.4620 N   0  0  0  0  0  0  0  0  0  0  0  0
  146.4158  138.9116  152.9740 C   0  0  0  0  0  0  0  0  0  0  0  0
  146.5152  139.0223  154.5237 C   0  0  1  0  0  0  0  0  0  0  0  0
  145.9841  137.7099  155.1545 C   0  0  0  0  0  0  0  0  0  0  0  0
  147.8741  139.3776  154.9958 N   0  0  0  0  0  0  0  0  0  0  0  0
  148.2721  140.7347  154.6035 C   0  0  0  0  0  0  0  0  0  0  0  0
  149.6920  141.0993  155.0696 C   0  0  0  0  0  0  0  0  0  0  0  0
  150.6206  140.1549  154.5559 O   0  0  0  0  0  0  0  0  0  0  0  0
  150.3194  138.8310  154.9741 C   0  0  0  0  0  0  0  0  0  0  0  0
  148.9024  138.4486  154.5117 C   0  0  0  0  0  0  0  0  0  0  0  0
  148.0061  132.0636  152.5258 H   0  0  0  0  0  0  0  0  0  0  0  0
  147.4543  133.5245  153.3451 H   0  0  0  0  0  0  0  0  0  0  0  0
  148.4858  133.6450  151.9110 H   0  0  0  0  0  0  0  0  0  0  0  0
  146.3257  130.9761  151.2575 H   0  0  0  0  0  0  0  0  0  0  0  0
  144.2877  131.0661  149.8106 H   0  0  0  0  0  0  0  0  0  0  0  0
  143.3052  133.3100  149.2717 H   0  0  0  0  0  0  0  0  0  0  0  0
  147.4256  135.5239  151.6990 H   0  0  0  0  0  0  0  0  0  0  0  0
  147.7059  137.3268  152.4245 H   0  0  0  0  0  0  0  0  0  0  0  0
  147.0993  139.6221  152.5080 H   0  0  0  0  0  0  0  0  0  0  0  0
  145.4205  139.1599  152.6082 H   0  0  0  0  0  0  0  0  0  0  0  0
  145.8370  139.8184  154.8343 H   0  0  0  0  0  0  0  0  0  0  0  0
  145.0075  137.4246  154.7651 H   0  0  0  0  0  0  0  0  0  0  0  0
  145.8426  137.7987  156.2308 H   0  0  0  0  0  0  0  0  0  0  0  0
  146.6663  136.8795  154.9703 H   0  0  0  0  0  0  0  0  0  0  0  0
  148.2077  140.8411  153.5196 H   0  0  0  0  0  0  0  0  0  0  0  0
  147.5980  141.4722  155.0353 H   0  0  0  0  0  0  0  0  0  0  0  0
  149.9630  142.0936  154.7147 H   0  0  0  0  0  0  0  0  0  0  0  0
  149.7481  141.1223  156.1592 H   0  0  0  0  0  0  0  0  0  0  0  0
  151.0540  138.1480  154.5477 H   0  0  0  0  0  0  0  0  0  0  0  0
  150.4045  138.7556  156.0592 H   0  0  0  0  0  0  0  0  0  0  0  0
  148.7156  137.4402  154.8744 H   0  0  0  0  0  0  0  0  0  0  0  0
  148.8768  138.4039  153.4218 H   0  0  0  0  0  0  0  0  0  0  0  0
  1  2  1  0  0  0  0
  1 21  1  0  0  0  0
  1 22  1  0  0  0  0
  1 23  1  0  0  0  0
  2  7  1  0  0  0  0
  2  3  2  0  0  0  0
  3  4  1  0  0  0  0
  3 24  1  0  0  0  0
  4  5  2  0  0  0  0
  4 25  1  0  0  0  0
  5  6  1  0  0  0  0
  5 26  1  0  0  0  0
  6  7  2  0  0  0  0
  7  8  1  0  0  0  0
  8  9  1  0  0  0  0
  8 27  1  0  0  0  0
  9 10  2  0  0  0  0
  9 11  1  0  0  0  0
 11 12  1  0  0  0  0
 11 28  1  0  0  0  0
 12 13  1  0  0  0  0
 12 29  1  0  0  0  0
 12 30  1  0  0  0  0
 13 14  1  0  0  0  0
 13 15  1  0  0  0  0
 13 31  1  0  0  0  0
 14 32  1  0  0  0  0
 14 33  1  0  0  0  0
 14 34  1  0  0  0  0
 15 20  1  0  0  0  0
 15 16  1  0  0  0  0
 16 17  1  0  0  0  0
 16 35  1  0  0  0  0
 16 36  1  0  0  0  0
 17 18  1  0  0  0  0
 17 37  1  0  0  0  0
 17 38  1  0  0  0  0
 18 19  1  0  0  0  0
 19 20  1  0  0  0  0
 19 39  1  0  0  0  0
 19 40  1  0  0  0  0
 20 41  1  0  0  0  0
 20 42  1  0  0  0  0
M  END
> <s_m_source_file>
AV-unprocessed.smi

> <i_m_source_file_index>
1737

> <i_lp_mmshare_version>
43012

> <i_f3d_flags>
0

> <s_epik_input>
W0NIM11jMVtjSF1bY0hdW2NIXW5jMVtOSF1DKD1PKVtOSF1bQ0gyXVtDQEhdKFtDSDNdKU4yW0NIMl1bQ0gyXU9bQ0gyXVtDSDJdMg==

> <s_epik_cmdline>
J2VwaWtfcHl0aG9uJywgJy1waCcsICc3LjAnLCAnLXRuJywgJzgnLCAnLW1hJywgJzIwMCcsICctbWV0YWxfYmluZGluZycsICctaW1hZScsICc8aW5maWxlLm1hZT4nLCAnLW9tYWUnLCAnPG91dGZpbGUubWFlPic=

> <r_epik_Ionization_Penalty>
0.266048

> <r_epik_Ionization_Penalty_Charging>
0

> <r_epik_Ionization_Penalty_Neutral>
0.266048

> <r_epik_State_Penalty>
0.257924

> <r_epik_Charging_Adjusted_Penalty>
0.257924

> <i_epik_Tot_Q>
0

> <i_epik_Tot_abs_Q>
0

> <r_epik_Metal_State_Penalty>
0.257922

> <b_epik_Metal_Only>
0

> <s_lp_Force_Field>
OPLS_2005

> <r_lp_Energy>
31.0805

> <b_lp_Chiralities_Consistent>
1

> <s_lp_Variant>
AV-unprocessed.smi:1737-2

> <Gold.Version>
5.8.1

> <Gold.Id.Protein>
6NUR|6NUR_protein|mol2

> <Gold.PLP.Fitness>
42.5804

> <Gold.PLP.PLP>
-32.0514

> <Gold.PLP.part.hbond>
-2.9291

> <Gold.PLP.part.metal>
0.0000

> <Gold.PLP.part.buried>
-5.3484

> <Gold.PLP.part.nonpolar>
-25.5242

> <Gold.PLP.part.repulsive>
0.7261

> <Gold.PLP.ligand.clash>
0.0000

> <Gold.PLP.ligand.torsion>
0.7149

> <Gold.PLP.Chemscore.Hbond>
2.9750

> <Gold.PLP.Chemscore.CHOScore>
1.0000

> <Gold.PLP.Chemscore.Metal>
0.0000

> <Gold.Chemscore.Hbonds>
donor molecule, donor type, donor heavy atom, donor atom, acceptor molecule, acceptor atom, score
      L1  H     8    27       P1  7948  1.00
      L1  H    11    28       P1  7948  0.98
      P1  H  7989  7998       L1    18  1.00
      L1  C     5    26       P1 10186  0.92

> <Gold.PLP.Chemscore.Internal.Correction>
0.0339

> <Gold.Rescore>
     Score         DG    S(hbond)    S(metal)    S(lipo)     H(rot)  DE(clash)    DE(int)     intcor
     18.39     -20.30       2.87        0.00      76.95       1.47       0.20       1.71       ----

> <Gold.Chemscore.Fitness>
18.3888

> <Gold.Chemscore.DG>
-20.3009

> <Gold.Chemscore.ZeroCoef>
-5.4800

> <Gold.Chemscore.Hbond>
2.8662

> <Gold.Chemscore.Metal>
0.0000

> <Gold.Chemscore.Lipo>
76.9458

> <Gold.Chemscore.Internal_Hbond>
0.0000

> <Gold.Chemscore.DEClash>
0.2003

> <Gold.Chemscore.DEInternal>
1.7118

> <Gold.Chemscore.Rot>
1.4667

> <Gold.Chemscore.Internal.Correction>
   9.000000E+99

> <Gold.Chemscore.Hbonds>
donor molecule, donor type, donor heavy atom, donor atom, acceptor molecule, acceptor atom, score
      L1  H     8    27       P1  7948  0.97
      L1  H    11    28       P1  7948  0.93
      P1  H  7989  7998       L1    18  0.74

> <Gold.Chemscore.Hbond.Weighted>
-9.5730

> <Gold.Chemscore.Metal.Weighted>
-0.0000

> <Gold.Chemscore.Lipo.Weighted>
-9.0027

> <Gold.Chemscore.Internal_Hbond.Weighted>
0.0000

> <Gold.Chemscore.DEClash.Weighted>
0.2003

> <Gold.Chemscore.DEInternal.Weighted>
1.7118

> <Gold.Chemscore.Rot.Weighted>
3.7549

> <Gold.Chemscore.Internal.Correction.Weighted>
   9.000000E+99

> <Gold.Protein.RotatedTorsions>
[ 6907 6896 6895 6894 ] final -177.84 input  -60.11 | X-H torsion
[ 7974 7965 7964 7962 ] final   82.21 input  175.53 | X-H torsion
[ 8008 7997 7996 7995 ] final   85.88 input   59.86 | X-H torsion
[ 10167 10162 10161 10158 ] final -108.00 input  -65.29 | X-H torsion
[ 10718 10713 10712 10709 ] final -172.00 input   66.30 | X-H torsion
[ 10763 10752 10751 10750 ] final  105.74 input  -60.55 | X-H torsion
[ 11005 11000 10999 10996 ] final  118.10 input  -57.11 | X-H torsion

> <Gold.Protein.ActiveResidues>
 VAL166  LYS551  ARG553  GLY616  TRP617  ASP618  TYR619  PRO620  LYS621  CYS622 
 ASP623  PHE694  ASN695  SER759  ASP760  ASP761  ALA762  ILE779  LEU786  VAL792 
 PHE793  MET794  SER795  GLU796  ALA797  LYS798  CYS799  TRP800  GLU811  SER814 

> <Gold.Protein.RotatedAtoms>
  151.6275  133.3334  159.3101 H   0  0  0  0  0  0  0  0  0  0  0  0  # atno 6907 bound_to 6896
  150.8074  134.7211  159.6668 H   0  0  0  0  0  0  0  0  0  0  0  0  # atno 6908 bound_to 6896
  152.4169  134.6029  160.0056 H   0  0  0  0  0  0  0  0  0  0  0  0  # atno 6909 bound_to 6896
  145.6280  139.2399  143.2100 H   0  0  0  0  0  0  0  0  0  0  0  0  # atno 7974 bound_to 7965
  155.9556  140.3397  155.6446 H   0  0  0  0  0  0  0  0  0  0  0  0  # atno 8008 bound_to 7997
  155.6863  140.0743  157.2483 H   0  0  0  0  0  0  0  0  0  0  0  0  # atno 8009 bound_to 7997
  154.4131  140.1665  156.2025 H   0  0  0  0  0  0  0  0  0  0  0  0  # atno 8010 bound_to 7997
  140.1709  143.4043  152.1355 H   0  0  0  0  0  0  0  0  0  0  0  0  # atno 10167 bound_to 10162
  156.7491  130.9371  151.3114 H   0  0  0  0  0  0  0  0  0  0  0  0  # atno 10718 bound_to 10713
  153.3835  135.3900  155.1873 H   0  0  0  0  0  0  0  0  0  0  0  0  # atno 10763 bound_to 10752
  154.8710  135.3731  154.4828 H   0  0  0  0  0  0  0  0  0  0  0  0  # atno 10764 bound_to 10752
  153.5307  135.7086  153.5746 H   0  0  0  0  0  0  0  0  0  0  0  0  # atno 10765 bound_to 10752
  139.9097  134.9617  156.7451 H   0  0  0  0  0  0  0  0  0  0  0  0  # atno 11005 bound_to 11000
  146.1379  140.7098  142.9381 LP  0  0  0  0  0  0  0  0  0  0  0  0  # atno 17320 bound_to 7965
  144.7204  140.4355  143.7012 LP  0  0  0  0  0  0  0  0  0  0  0  0  # atno 17321 bound_to 7965
  139.5338  144.7188  151.4963 LP  0  0  0  0  0  0  0  0  0  0  0  0  # atno 17342 bound_to 10162
  140.6582  143.8553  150.6859 LP  0  0  0  0  0  0  0  0  0  0  0  0  # atno 17343 bound_to 10162
  157.6785  130.9117  150.0209 LP  0  0  0  0  0  0  0  0  0  0  0  0  # atno 17370 bound_to 10713
  156.1413  130.3642  149.9577 LP  0  0  0  0  0  0  0  0  0  0  0  0  # atno 17371 bound_to 10713
  140.6818  133.9468  155.7915 LP  0  0  0  0  0  0  0  0  0  0  0  0  # atno 17394 bound_to 11000
  141.0505  134.0492  157.3790 LP  0  0  0  0  0  0  0  0  0  0  0  0  # atno 17395 bound_to 11000

$$$$
