AV-unprocessed.smi:1433|AV-procd|sdf|5839|dock6
  -GOLD-   22720 5503D 1   1.00000     0.00000
 Structure written by MMmdl.
 44 45  0  0  0  0  0  0  0  0  1 V2000
  150.9749  142.0912  156.1553 C   0  0  0  0  0  0  0  0  0  0  0  0
  150.5892  140.6263  155.9251 C   0  0  1  0  0  0  0  0  0  0  0  0
  149.3186  140.4902  155.0652 C   0  0  0  0  0  0  0  0  0  0  0  0
  148.9948  139.0940  154.7692 N   0  0  0  0  0  0  0  0  0  0  0  0
  147.7459  138.9341  153.9934 C   0  0  2  0  0  0  0  0  0  0  0  0
  146.6383  139.9399  154.3831 C   0  0  0  0  0  0  0  0  0  0  0  0
  147.1436  137.5064  154.0714 C   0  0  0  0  0  0  0  0  0  0  0  0
  146.7409  137.0155  152.7546 N   0  0  0  0  0  0  0  0  0  0  0  0
  145.5944  136.3784  152.4688 C   0  0  0  0  0  0  0  0  0  0  0  0
  144.7506  136.0762  153.3119 O   0  0  0  0  0  0  0  0  0  0  0  0
  145.3535  136.0393  150.9975 C   0  0  0  0  0  0  0  0  0  0  0  0
  145.3046  134.6033  150.7874 N   0  0  0  0  0  0  0  0  0  0  0  0
  144.3021  133.8561  150.2044 C   0  0  0  0  0  0  0  0  0  0  0  0
  144.7017  132.5506  150.2279 C   0  0  0  0  0  0  0  0  0  0  0  0
  145.9801  132.5998  150.8513 C   0  0  0  0  0  0  0  0  0  0  0  0
  146.3381  133.8292  151.1857 N   0  0  0  0  0  0  0  0  0  0  0  0
  150.1535  138.4979  154.0987 C   0  0  0  0  0  0  0  0  0  0  0  0
  151.4507  138.6181  154.9199 C   0  0  2  0  0  0  0  0  0  0  0  0
  151.4788  137.6866  156.1446 C   0  0  0  0  0  0  0  0  0  0  0  0
  151.6814  139.9799  155.2771 O   0  0  0  0  0  0  0  0  0  0  0  0
  150.1731  142.6342  156.6562 H   0  0  0  0  0  0  0  0  0  0  0  0
  151.1841  142.5971  155.2124 H   0  0  0  0  0  0  0  0  0  0  0  0
  151.8665  142.1657  156.7782 H   0  0  0  0  0  0  0  0  0  0  0  0
  150.4198  140.1613  156.8966 H   0  0  0  0  0  0  0  0  0  0  0  0
  148.5057  140.9636  155.6134 H   0  0  0  0  0  0  0  0  0  0  0  0
  149.4388  141.0470  154.1344 H   0  0  0  0  0  0  0  0  0  0  0  0
  147.9769  139.1198  152.9433 H   0  0  0  0  0  0  0  0  0  0  0  0
  145.7018  139.7148  153.8721 H   0  0  0  0  0  0  0  0  0  0  0  0
  146.8956  140.9608  154.1024 H   0  0  0  0  0  0  0  0  0  0  0  0
  146.4403  139.9240  155.4555 H   0  0  0  0  0  0  0  0  0  0  0  0
  147.8895  136.8147  154.4636 H   0  0  0  0  0  0  0  0  0  0  0  0
  146.3256  137.4570  154.7898 H   0  0  0  0  0  0  0  0  0  0  0  0
  147.3693  137.2126  151.9889 H   0  0  0  0  0  0  0  0  0  0  0  0
  144.4097  136.4727  150.6642 H   0  0  0  0  0  0  0  0  0  0  0  0
  146.1417  136.4762  150.3819 H   0  0  0  0  0  0  0  0  0  0  0  0
  143.3978  134.3116  149.8278 H   0  0  0  0  0  0  0  0  0  0  0  0
  144.1635  131.6916  149.8560 H   0  0  0  0  0  0  0  0  0  0  0  0
  146.6541  131.7846  151.0693 H   0  0  0  0  0  0  0  0  0  0  0  0
  149.9895  137.4436  153.8903 H   0  0  0  0  0  0  0  0  0  0  0  0
  150.2990  138.9808  153.1311 H   0  0  0  0  0  0  0  0  0  0  0  0
  152.2822  138.3253  154.2784 H   0  0  0  0  0  0  0  0  0  0  0  0
  151.4114  136.6426  155.8380 H   0  0  0  0  0  0  0  0  0  0  0  0
  150.6486  137.8772  156.8245 H   0  0  0  0  0  0  0  0  0  0  0  0
  152.4060  137.8075  156.7049 H   0  0  0  0  0  0  0  0  0  0  0  0
  1  2  1  0  0  0  0
  1 21  1  0  0  0  0
  1 22  1  0  0  0  0
  1 23  1  0  0  0  0
  2 20  1  0  0  0  0
  2  3  1  0  0  0  0
  2 24  1  0  0  0  0
  3  4  1  0  0  0  0
  3 25  1  0  0  0  0
  3 26  1  0  0  0  0
  4  5  1  0  0  0  0
  4 17  1  0  0  0  0
  5  6  1  0  0  0  0
  5  7  1  0  0  0  0
  5 27  1  0  0  0  0
  6 28  1  0  0  0  0
  6 29  1  0  0  0  0
  6 30  1  0  0  0  0
  7  8  1  0  0  0  0
  7 31  1  0  0  0  0
  7 32  1  0  0  0  0
  8  9  1  0  0  0  0
  8 33  1  0  0  0  0
  9 10  2  0  0  0  0
  9 11  1  0  0  0  0
 11 12  1  0  0  0  0
 11 34  1  0  0  0  0
 11 35  1  0  0  0  0
 12 16  1  0  0  0  0
 12 13  1  0  0  0  0
 13 14  2  0  0  0  0
 13 36  1  0  0  0  0
 14 15  1  0  0  0  0
 14 37  1  0  0  0  0
 15 16  2  0  0  0  0
 15 38  1  0  0  0  0
 17 18  1  0  0  0  0
 17 39  1  0  0  0  0
 17 40  1  0  0  0  0
 18 19  1  0  0  0  0
 18 20  1  0  0  0  0
 18 41  1  0  0  0  0
 19 42  1  0  0  0  0
 19 43  1  0  0  0  0
 19 44  1  0  0  0  0
M  END
> <s_m_source_file>
AV-unprocessed.smi

> <i_m_source_file_index>
1433

> <i_lp_mmshare_version>
43012

> <i_f3d_flags>
0

> <s_epik_input>
W0NIM11bQ0BASF0xW0NIMl1OKFtDSDJdW0NASF0oTzEpW0NIM10pW0NASF0oW0NIM10pW0NIMl1bTkhdQyg9TylbQ0gyXW4yW2NIXVtjSF1bY0hdbjI=

> <s_epik_cmdline>
J2VwaWtfcHl0aG9uJywgJy1waCcsICc3LjAnLCAnLXRuJywgJzgnLCAnLW1hJywgJzIwMCcsICctbWV0YWxfYmluZGluZycsICctaW1hZScsICc8aW5maWxlLm1hZT4nLCAnLW9tYWUnLCAnPG91dGZpbGUubWFlPic=

> <r_lp_tautomer_probability>
1

> <r_epik_Ionization_Penalty>
0.196927

> <r_epik_Ionization_Penalty_Charging>
0

> <r_epik_Ionization_Penalty_Neutral>
0.196927

> <r_epik_State_Penalty>
0.186684

> <r_epik_Charging_Adjusted_Penalty>
0.186684

> <i_epik_Tot_Q>
0

> <i_epik_Tot_abs_Q>
0

> <r_epik_Metal_State_Penalty>
0.186682

> <b_epik_Metal_Only>
0

> <s_lp_Force_Field>
OPLS_2005

> <r_lp_Energy>
34.0923

> <b_lp_Chiralities_Consistent>
1

> <s_lp_Variant>
AV-unprocessed.smi:1433-5

> <Gold.Version>
5.8.1

> <Gold.Id.Protein>
6NUR|6NUR_protein|mol2

> <Gold.PLP.Fitness>
40.4059

> <Gold.PLP.PLP>
-32.5011

> <Gold.PLP.part.hbond>
-1.8354

> <Gold.PLP.part.metal>
0.0000

> <Gold.PLP.part.buried>
-5.7461

> <Gold.PLP.part.nonpolar>
-25.8054

> <Gold.PLP.part.repulsive>
0.4313

> <Gold.PLP.ligand.clash>
0.0000

> <Gold.PLP.ligand.torsion>
1.1097

> <Gold.PLP.Chemscore.Hbond>
1.3600

> <Gold.PLP.Chemscore.CHOScore>
2.0000

> <Gold.PLP.Chemscore.Metal>
0.0000

> <Gold.Chemscore.Hbonds>
donor molecule, donor type, donor heavy atom, donor atom, acceptor molecule, acceptor atom, score
      L1  H     8    33       P1  7948  0.40
      P1  H  7989  7998       L1    20  0.98
      L1  C    13    36       P1 10186  1.00
      L1  C    15    38       P1 10747  0.77

> <Gold.PLP.Chemscore.Internal.Correction>
0.0442

> <Gold.Rescore>
     Score         DG    S(hbond)    S(metal)    S(lipo)     H(rot)  DE(clash)    DE(int)     intcor
     12.17     -13.11       0.78        0.00      82.53       1.80       0.00       0.94       ----

> <Gold.Chemscore.Fitness>
12.1671

> <Gold.Chemscore.DG>
-13.1083

> <Gold.Chemscore.ZeroCoef>
-5.4800

> <Gold.Chemscore.Hbond>
0.7755

> <Gold.Chemscore.Metal>
0.0000

> <Gold.Chemscore.Lipo>
82.5289

> <Gold.Chemscore.Internal_Hbond>
0.0000

> <Gold.Chemscore.DEClash>
0.0042

> <Gold.Chemscore.DEInternal>
0.9370

> <Gold.Chemscore.Rot>
1.8038

> <Gold.Chemscore.Internal.Correction>
   9.000000E+99

> <Gold.Chemscore.Hbonds>
donor molecule, donor type, donor heavy atom, donor atom, acceptor molecule, acceptor atom, score
      L1  H     8    33       P1  7948  0.40
      P1  H  7989  7998       L1    20  0.09

> <Gold.Chemscore.Hbond.Weighted>
-2.5902

> <Gold.Chemscore.Metal.Weighted>
-0.0000

> <Gold.Chemscore.Lipo.Weighted>
-9.6559

> <Gold.Chemscore.Internal_Hbond.Weighted>
0.0000

> <Gold.Chemscore.DEClash.Weighted>
0.0042

> <Gold.Chemscore.DEInternal.Weighted>
0.9370

> <Gold.Chemscore.Rot.Weighted>
4.6178

> <Gold.Chemscore.Internal.Correction.Weighted>
   9.000000E+99

> <Gold.Protein.RotatedTorsions>
[ 6907 6896 6895 6894 ] final  148.91 input  -60.11 | X-H torsion
[ 7974 7965 7964 7962 ] final   60.26 input  175.53 | X-H torsion
[ 8008 7997 7996 7995 ] final   75.75 input   59.86 | X-H torsion
[ 10167 10162 10161 10158 ] final  -10.75 input  -65.29 | X-H torsion
[ 10718 10713 10712 10709 ] final -162.37 input   66.30 | X-H torsion
[ 10763 10752 10751 10750 ] final  -63.40 input  -60.55 | X-H torsion
[ 11005 11000 10999 10996 ] final  161.19 input  -57.11 | X-H torsion

> <Gold.Protein.ActiveResidues>
 VAL166  LYS551  ARG553  GLY616  TRP617  ASP618  TYR619  PRO620  LYS621  CYS622 
 ASP623  PHE694  ASN695  SER759  ASP760  ASP761  ALA762  ILE779  LEU786  VAL792 
 PHE793  MET794  SER795  GLU796  ALA797  LYS798  CYS799  TRP800  GLU811  SER814 

> <Gold.Protein.RotatedAtoms>
  152.1351  133.4430  159.4739 H   0  0  0  0  0  0  0  0  0  0  0  0  # atno 6907 bound_to 6896
  150.6881  134.2373  159.4467 H   0  0  0  0  0  0  0  0  0  0  0  0  # atno 6908 bound_to 6896
  152.0260  134.9795  160.0622 H   0  0  0  0  0  0  0  0  0  0  0  0  # atno 6909 bound_to 6896
  145.8980  139.3560  143.0609 H   0  0  0  0  0  0  0  0  0  0  0  0  # atno 7974 bound_to 7965
  155.8174  140.3471  155.5494 H   0  0  0  0  0  0  0  0  0  0  0  0  # atno 8008 bound_to 7997
  155.8377  140.0937  157.1774 H   0  0  0  0  0  0  0  0  0  0  0  0  # atno 8009 bound_to 7997
  154.4004  140.1400  156.3678 H   0  0  0  0  0  0  0  0  0  0  0  0  # atno 8010 bound_to 7997
  140.7121  143.5714  150.9088 H   0  0  0  0  0  0  0  0  0  0  0  0  # atno 10167 bound_to 10162
  156.6094  130.8844  151.2933 H   0  0  0  0  0  0  0  0  0  0  0  0  # atno 10718 bound_to 10713
  154.3145  135.6209  153.5480 H   0  0  0  0  0  0  0  0  0  0  0  0  # atno 10763 bound_to 10752
  152.9826  135.5709  154.5140 H   0  0  0  0  0  0  0  0  0  0  0  0  # atno 10764 bound_to 10752
  154.4796  135.2862  155.1557 H   0  0  0  0  0  0  0  0  0  0  0  0  # atno 10765 bound_to 10752
  140.2133  134.8251  157.3144 H   0  0  0  0  0  0  0  0  0  0  0  0  # atno 11005 bound_to 11000
  145.8826  140.9353  143.0593 LP  0  0  0  0  0  0  0  0  0  0  0  0  # atno 17320 bound_to 7965
  144.6734  140.0800  143.7469 LP  0  0  0  0  0  0  0  0  0  0  0  0  # atno 17321 bound_to 7965
  139.9440  143.6349  152.3046 LP  0  0  0  0  0  0  0  0  0  0  0  0  # atno 17342 bound_to 10162
  139.6844  144.7653  151.1551 LP  0  0  0  0  0  0  0  0  0  0  0  0  # atno 17343 bound_to 10162
  157.7258  130.9621  150.1630 LP  0  0  0  0  0  0  0  0  0  0  0  0  # atno 17370 bound_to 10713
  156.2402  130.3690  149.8345 LP  0  0  0  0  0  0  0  0  0  0  0  0  # atno 17371 bound_to 10713
  140.1927  134.4351  155.7706 LP  0  0  0  0  0  0  0  0  0  0  0  0  # atno 17394 bound_to 11000
  141.2225  133.7035  156.8054 LP  0  0  0  0  0  0  0  0  0  0  0  0  # atno 17395 bound_to 11000

$$$$
