AV-unprocessed.smi:3254|AV-procd|sdf|12456|dock5
  -GOLD-   2272018353D 1   1.00000     0.00000
 Structure written by MMmdl.
 36 37  0  0  0  0  0  0  0  0  1 V2000
  151.1745  144.0488  158.2769 C   0  0  0  0  0  0  0  0  0  0  0  0
  151.7198  144.3138  159.6870 C   0  0  0  0  0  0  0  0  0  0  0  0
  152.7431  143.3414  160.0628 N   0  0  0  0  0  0  0  0  0  0  0  0
  153.4808  142.6106  159.0461 C   0  0  0  0  0  0  0  0  0  0  0  0
  154.3065  141.5515  159.8090 C   0  0  2  0  0  0  0  0  0  0  0  0
  153.7984  140.1236  159.5553 C   0  0  0  0  0  0  0  0  0  0  0  0
  154.4672  139.3373  158.8835 O   0  0  0  0  0  0  0  0  0  0  0  0
  152.6170  139.8009  160.1036 N   0  0  0  0  0  0  0  0  0  0  0  0
  151.9695  138.5001  159.9859 C   0  0  0  0  0  0  0  0  0  0  0  0
  150.5444  138.6258  159.4223 C   0  0  0  0  0  0  0  0  0  0  0  0
  150.4991  138.2869  158.0147 N   0  0  0  0  0  0  0  0  0  0  0  0
  149.9527  137.1437  157.4468 C   0  0  0  0  0  0  0  0  0  0  0  0
  150.1407  137.2528  156.0872 C   0  0  0  0  0  0  0  0  0  0  0  0
  150.7975  138.4468  155.7988 N   0  0  0  0  0  0  0  0  0  0  0  0
  150.9762  139.0053  156.9891 C   0  0  0  0  0  0  0  0  0  0  0  0
  154.1842  141.9412  161.2957 C   0  0  0  0  0  0  0  0  0  0  0  0
  153.1114  143.0171  161.3071 C   0  0  0  0  0  0  0  0  0  0  0  0
  152.6581  143.4950  162.3460 O   0  0  0  0  0  0  0  0  0  0  0  0
  150.3954  144.7677  158.0227 H   0  0  0  0  0  0  0  0  0  0  0  0
  150.7420  143.0505  158.2038 H   0  0  0  0  0  0  0  0  0  0  0  0
  151.9580  144.1316  157.5234 H   0  0  0  0  0  0  0  0  0  0  0  0
  152.1369  145.3202  159.7437 H   0  0  0  0  0  0  0  0  0  0  0  0
  150.9021  144.2799  160.4078 H   0  0  0  0  0  0  0  0  0  0  0  0
  152.7976  142.1733  158.3156 H   0  0  0  0  0  0  0  0  0  0  0  0
  154.1351  143.3003  158.5117 H   0  0  0  0  0  0  0  0  0  0  0  0
  155.3513  141.6164  159.5001 H   0  0  0  0  0  0  0  0  0  0  0  0
  152.1325  140.5061  160.6401 H   0  0  0  0  0  0  0  0  0  0  0  0
  152.5769  137.8788  159.3272 H   0  0  0  0  0  0  0  0  0  0  0  0
  151.9561  138.0022  160.9572 H   0  0  0  0  0  0  0  0  0  0  0  0
  149.8571  137.9667  159.9540 H   0  0  0  0  0  0  0  0  0  0  0  0
  150.1712  139.6429  159.5497 H   0  0  0  0  0  0  0  0  0  0  0  0
  149.4899  136.3688  158.0402 H   0  0  0  0  0  0  0  0  0  0  0  0
  149.8568  136.5686  155.3010 H   0  0  0  0  0  0  0  0  0  0  0  0
  151.4673  139.9586  157.1178 H   0  0  0  0  0  0  0  0  0  0  0  0
  153.9007  141.1126  161.9468 H   0  0  0  0  0  0  0  0  0  0  0  0
  155.1195  142.3580  161.6702 H   0  0  0  0  0  0  0  0  0  0  0  0
  1  2  1  0  0  0  0
  1 19  1  0  0  0  0
  1 20  1  0  0  0  0
  1 21  1  0  0  0  0
  2  3  1  0  0  0  0
  2 22  1  0  0  0  0
  2 23  1  0  0  0  0
  3 17  1  0  0  0  0
  3  4  1  0  0  0  0
  4  5  1  0  0  0  0
  4 24  1  0  0  0  0
  4 25  1  0  0  0  0
  5  6  1  0  0  0  0
  5 16  1  0  0  0  0
  5 26  1  0  0  0  0
  6  7  2  0  0  0  0
  6  8  1  0  0  0  0
  8  9  1  0  0  0  0
  8 27  1  0  0  0  0
  9 10  1  0  0  0  0
  9 28  1  0  0  0  0
  9 29  1  0  0  0  0
 10 11  1  0  0  0  0
 10 30  1  0  0  0  0
 10 31  1  0  0  0  0
 11 15  1  0  0  0  0
 11 12  1  0  0  0  0
 12 13  2  0  0  0  0
 12 32  1  0  0  0  0
 13 14  1  0  0  0  0
 13 33  1  0  0  0  0
 14 15  2  0  0  0  0
 15 34  1  0  0  0  0
 16 17  1  0  0  0  0
 16 35  1  0  0  0  0
 16 36  1  0  0  0  0
 17 18  2  0  0  0  0
M  END
> <s_m_source_file>
AV-unprocessed.smi

> <i_m_source_file_index>
3254

> <i_lp_mmshare_version>
43012

> <i_f3d_flags>
0

> <s_epik_input>
W0NIM11bQ0gyXU4xW0NIMl1bQ0BIXShbQ0gyXUMxPU8pQyg9TylbTkhdW0NIMl1bQ0gyXW4yW2NIXVtjSF1uW2NIXTI=

> <s_epik_cmdline>
J2VwaWtfcHl0aG9uJywgJy1waCcsICc3LjAnLCAnLXRuJywgJzgnLCAnLW1hJywgJzIwMCcsICctbWV0YWxfYmluZGluZycsICctaW1hZScsICc8aW5maWxlLm1hZT4nLCAnLW9tYWUnLCAnPG91dGZpbGUubWFlPic=

> <r_lp_tautomer_probability>
1

> <r_epik_Ionization_Penalty>
0.587394

> <r_epik_Ionization_Penalty_Charging>
0.587394

> <r_epik_Ionization_Penalty_Neutral>
3.11583e-08

> <r_epik_State_Penalty>
0.600671

> <r_epik_Charging_Adjusted_Penalty>
1.18807

> <i_epik_Tot_Q>
0

> <i_epik_Tot_abs_Q>
0

> <r_epik_Metal_State_Penalty>
0.297665

> <b_epik_Metal_Only>
0

> <s_lp_Force_Field>
OPLS_2005

> <r_lp_Energy>
13.3235

> <b_lp_Chiralities_Consistent>
1

> <s_lp_Variant>
AV-unprocessed.smi:3254-4

> <Gold.Version>
5.8.1

> <Gold.Id.Protein>
6NUR|6NUR_protein|mol2

> <Gold.PLP.Fitness>
47.4229

> <Gold.PLP.PLP>
-39.5106

> <Gold.PLP.part.hbond>
-3.0000

> <Gold.PLP.part.metal>
0.0000

> <Gold.PLP.part.buried>
-5.7337

> <Gold.PLP.part.nonpolar>
-34.0751

> <Gold.PLP.part.repulsive>
2.3270

> <Gold.PLP.ligand.clash>
0.0000

> <Gold.PLP.ligand.torsion>
1.0039

> <Gold.PLP.Chemscore.Hbond>
2.3126

> <Gold.PLP.Chemscore.CHOScore>
0.9892

> <Gold.PLP.Chemscore.Metal>
0.0000

> <Gold.Chemscore.Hbonds>
donor molecule, donor type, donor heavy atom, donor atom, acceptor molecule, acceptor atom, score
      P1  H  7997  8010       L1     7  1.00

> <Gold.PLP.Chemscore.Internal.Correction>
0.0149

> <Gold.Rescore>
     Score         DG    S(hbond)    S(metal)    S(lipo)     H(rot)  DE(clash)    DE(int)     intcor
     15.73     -17.75       2.77        0.00      73.74       2.20       1.27       0.75       ----

> <Gold.Chemscore.Fitness>
15.7340

> <Gold.Chemscore.DG>
-17.7547

> <Gold.Chemscore.ZeroCoef>
-5.4800

> <Gold.Chemscore.Hbond>
2.7745

> <Gold.Chemscore.Metal>
0.0000

> <Gold.Chemscore.Lipo>
73.7392

> <Gold.Chemscore.Internal_Hbond>
0.0000

> <Gold.Chemscore.DEClash>
1.2733

> <Gold.Chemscore.DEInternal>
0.7474

> <Gold.Chemscore.Rot>
2.1952

> <Gold.Chemscore.Internal.Correction>
   9.000000E+99

> <Gold.Chemscore.Hbonds>
donor molecule, donor type, donor heavy atom, donor atom, acceptor molecule, acceptor atom, score
      P1  H  7997  8010       L1     7  0.88

> <Gold.Chemscore.Hbond.Weighted>
-9.2669

> <Gold.Chemscore.Metal.Weighted>
-0.0000

> <Gold.Chemscore.Lipo.Weighted>
-8.6275

> <Gold.Chemscore.Internal_Hbond.Weighted>
0.0000

> <Gold.Chemscore.DEClash.Weighted>
1.2733

> <Gold.Chemscore.DEInternal.Weighted>
0.7474

> <Gold.Chemscore.Rot.Weighted>
5.6197

> <Gold.Chemscore.Internal.Correction.Weighted>
   9.000000E+99

> <Gold.Protein.RotatedTorsions>
[ 6907 6896 6895 6894 ] final   42.09 input  -60.11 | X-H torsion
[ 7974 7965 7964 7962 ] final -149.65 input  175.53 | X-H torsion
[ 8008 7997 7996 7995 ] final    6.06 input   59.86 | X-H torsion
[ 10167 10162 10161 10158 ] final  111.54 input  -65.29 | X-H torsion
[ 10718 10713 10712 10709 ] final -113.11 input   66.30 | X-H torsion
[ 10763 10752 10751 10750 ] final -178.23 input  -60.55 | X-H torsion
[ 11005 11000 10999 10996 ] final   93.38 input  -57.11 | X-H torsion

> <Gold.Protein.ActiveResidues>
 VAL166  LYS551  ARG553  GLY616  TRP617  ASP618  TYR619  PRO620  LYS621  CYS622 
 ASP623  PHE694  ASN695  SER759  ASP760  ASP761  ALA762  ILE779  LEU786  VAL792 
 PHE793  MET794  SER795  GLU796  ALA797  LYS798  CYS799  TRP800  GLU811  SER814 

> <Gold.Protein.RotatedAtoms>
  152.2034  134.8567  160.0505 H   0  0  0  0  0  0  0  0  0  0  0  0  # atno 6907 bound_to 6896
  151.9412  133.3633  159.3974 H   0  0  0  0  0  0  0  0  0  0  0  0  # atno 6908 bound_to 6896
  150.6960  134.4362  159.5315 H   0  0  0  0  0  0  0  0  0  0  0  0  # atno 6909 bound_to 6896
  144.7955  140.5037  143.5743 H   0  0  0  0  0  0  0  0  0  0  0  0  # atno 7974 bound_to 7965
  154.7363  140.2740  155.6412 H   0  0  0  0  0  0  0  0  0  0  0  0  # atno 8008 bound_to 7997
  156.2862  140.2706  156.2003 H   0  0  0  0  0  0  0  0  0  0  0  0  # atno 8009 bound_to 7997
  155.0317  140.0371  157.2466 H   0  0  0  0  0  0  0  0  0  0  0  0  # atno 8010 bound_to 7997
  139.6604  144.7129  151.1876 H   0  0  0  0  0  0  0  0  0  0  0  0  # atno 10167 bound_to 10162
  156.0746  130.5955  150.8598 H   0  0  0  0  0  0  0  0  0  0  0  0  # atno 10718 bound_to 10713
  154.5502  135.2812  155.1015 H   0  0  0  0  0  0  0  0  0  0  0  0  # atno 10763 bound_to 10752
  154.2463  135.6347  153.5228 H   0  0  0  0  0  0  0  0  0  0  0  0  # atno 10764 bound_to 10752
  153.0001  135.5572  154.6067 H   0  0  0  0  0  0  0  0  0  0  0  0  # atno 10765 bound_to 10752
  139.8811  134.8786  156.3709 H   0  0  0  0  0  0  0  0  0  0  0  0  # atno 11005 bound_to 11000
  145.5685  139.1482  143.3301 LP  0  0  0  0  0  0  0  0  0  0  0  0  # atno 17320 bound_to 7965
  146.2221  140.5819  142.9012 LP  0  0  0  0  0  0  0  0  0  0  0  0  # atno 17321 bound_to 7965
  140.7577  143.6004  150.8706 LP  0  0  0  0  0  0  0  0  0  0  0  0  # atno 17342 bound_to 10162
  139.9661  143.6109  152.2988 LP  0  0  0  0  0  0  0  0  0  0  0  0  # atno 17343 bound_to 10162
  157.5835  131.0946  150.9233 LP  0  0  0  0  0  0  0  0  0  0  0  0  # atno 17370 bound_to 10713
  156.9424  130.5389  149.5280 LP  0  0  0  0  0  0  0  0  0  0  0  0  # atno 17371 bound_to 10713
  140.9465  133.7479  156.0215 LP  0  0  0  0  0  0  0  0  0  0  0  0  # atno 17394 bound_to 11000
  140.8157  134.3347  157.5398 LP  0  0  0  0  0  0  0  0  0  0  0  0  # atno 17395 bound_to 11000

$$$$
