AV-unprocessed.smi:1052|AV-procd|sdf|4616|dock10
  -GOLD-   22720 3113D 1   1.00000     0.00000
 Structure written by MMmdl.
 40 41  0  0  0  0  0  0  0  0  1 V2000
  151.6104  136.5667  155.7689 C   0  0  0  0  0  0  0  0  0  0  0  0
  151.6040  138.0233  155.2723 C   0  0  0  0  0  0  0  0  0  0  0  0
  153.0467  138.4394  154.9178 C   0  0  0  0  0  0  0  0  0  0  0  0
  150.6883  138.1245  154.0337 C   0  0  0  0  0  0  0  0  0  0  0  0
  151.0866  138.8459  156.3723 N   0  0  0  0  0  0  0  0  0  0  0  0
  150.6760  140.1263  156.3390 C   0  0  0  0  0  0  0  0  0  0  0  0
  150.6907  140.8259  155.3257 O   0  0  0  0  0  0  0  0  0  0  0  0
  150.1962  140.7081  157.6763 C   0  0  0  0  0  0  0  0  0  0  0  0
  151.3001  141.0670  158.5789 N   0  0  0  0  0  0  0  0  0  0  0  0
  151.3240  142.4013  158.9366 N   0  0  0  0  0  0  0  0  0  0  0  0
  152.2309  142.8576  159.7334 C   0  0  0  0  0  0  0  0  0  0  0  0
  152.1794  144.3195  160.0753 C   0  0  0  0  0  0  0  0  0  0  0  0
  150.9405  145.1498  159.8332 C   0  0  0  0  0  0  0  0  0  0  0  0
  152.1865  145.3967  159.0144 C   0  0  0  0  0  0  0  0  0  0  0  0
  153.2409  141.9582  160.2543 C   0  0  0  0  0  0  0  0  0  0  0  0
  153.2313  140.6463  159.9137 C   0  0  0  0  0  0  0  0  0  0  0  0
  154.2847  139.6699  160.4308 C   0  0  0  0  0  0  0  0  0  0  0  0
  153.7045  138.5629  160.8945 F   0  0  0  0  0  0  0  0  0  0  0  0
  155.1272  139.3227  159.4571 F   0  0  0  0  0  0  0  0  0  0  0  0
  155.0050  140.2001  161.4205 F   0  0  0  0  0  0  0  0  0  0  0  0
  152.1944  140.1275  159.0089 C   0  0  0  0  0  0  0  0  0  0  0  0
  152.1221  138.9479  158.6612 O   0  0  0  0  0  0  0  0  0  0  0  0
  151.9863  135.8878  155.0025 H   0  0  0  0  0  0  0  0  0  0  0  0
  150.6070  136.2335  156.0377 H   0  0  0  0  0  0  0  0  0  0  0  0
  152.2432  136.4479  156.6496 H   0  0  0  0  0  0  0  0  0  0  0  0
  153.6980  138.3976  155.7917 H   0  0  0  0  0  0  0  0  0  0  0  0
  153.0949  139.4525  154.5189 H   0  0  0  0  0  0  0  0  0  0  0  0
  153.4711  137.7781  154.1618 H   0  0  0  0  0  0  0  0  0  0  0  0
  151.0128  137.4395  153.2496 H   0  0  0  0  0  0  0  0  0  0  0  0
  150.6898  139.1248  153.6010 H   0  0  0  0  0  0  0  0  0  0  0  0
  149.6562  137.8736  154.2811 H   0  0  0  0  0  0  0  0  0  0  0  0
  151.0299  138.3813  157.2670 H   0  0  0  0  0  0  0  0  0  0  0  0
  149.5637  141.5799  157.4974 H   0  0  0  0  0  0  0  0  0  0  0  0
  149.5462  139.9695  158.1489 H   0  0  0  0  0  0  0  0  0  0  0  0
  152.7418  144.5216  160.9850 H   0  0  0  0  0  0  0  0  0  0  0  0
  150.0982  144.6768  159.3316 H   0  0  0  0  0  0  0  0  0  0  0  0
  150.6785  145.8905  160.5859 H   0  0  0  0  0  0  0  0  0  0  0  0
  152.7527  146.3022  159.2229 H   0  0  0  0  0  0  0  0  0  0  0  0
  152.1613  145.0941  157.9692 H   0  0  0  0  0  0  0  0  0  0  0  0
  153.9948  142.3576  160.9160 H   0  0  0  0  0  0  0  0  0  0  0  0
  1  2  1  0  0  0  0
  1 23  1  0  0  0  0
  1 24  1  0  0  0  0
  1 25  1  0  0  0  0
  2  3  1  0  0  0  0
  2  4  1  0  0  0  0
  2  5  1  0  0  0  0
  3 26  1  0  0  0  0
  3 27  1  0  0  0  0
  3 28  1  0  0  0  0
  4 29  1  0  0  0  0
  4 30  1  0  0  0  0
  4 31  1  0  0  0  0
  5  6  1  0  0  0  0
  5 32  1  0  0  0  0
  6  7  2  0  0  0  0
  6  8  1  0  0  0  0
  8  9  1  0  0  0  0
  8 33  1  0  0  0  0
  8 34  1  0  0  0  0
  9 21  1  0  0  0  0
  9 10  1  0  0  0  0
 10 11  2  0  0  0  0
 11 12  1  0  0  0  0
 11 15  1  0  0  0  0
 12 14  1  0  0  0  0
 12 13  1  0  0  0  0
 12 35  1  0  0  0  0
 13 14  1  0  0  0  0
 13 36  1  0  0  0  0
 13 37  1  0  0  0  0
 14 38  1  0  0  0  0
 14 39  1  0  0  0  0
 15 16  2  0  0  0  0
 15 40  1  0  0  0  0
 16 17  1  0  0  0  0
 16 21  1  0  0  0  0
 17 18  1  0  0  0  0
 17 19  1  0  0  0  0
 17 20  1  0  0  0  0
 21 22  2  0  0  0  0
M  END
> <s_m_source_file>
AV-unprocessed.smi

> <i_m_source_file_index>
1052

> <i_lp_mmshare_version>
43012

> <i_f3d_flags>
0

> <s_epik_input>
W0NIM11DKFtDSDNdKShbQ0gzXSlbTkhdQyg9TylbQ0gyXW4xbmMoW0NIXTJbQ0gyXVtDSDJdMilbY0hdYyhDKEYpKEYpRiljMT1P

> <s_epik_cmdline>
J2VwaWtfcHl0aG9uJywgJy1waCcsICc3LjAnLCAnLXRuJywgJzgnLCAnLW1hJywgJzIwMCcsICctbWV0YWxfYmluZGluZycsICctaW1hZScsICc8aW5maWxlLm1hZT4nLCAnLW9tYWUnLCAnPG91dGZpbGUubWFlPic=

> <r_lp_tautomer_probability>
1

> <r_epik_Ionization_Penalty>
2.47799e-08

> <r_epik_Ionization_Penalty_Charging>
1.49243e-10

> <r_epik_Ionization_Penalty_Neutral>
2.46307e-08

> <r_epik_State_Penalty>
-0

> <r_epik_Charging_Adjusted_Penalty>
1.49243e-10

> <i_epik_Tot_Q>
0

> <i_epik_Tot_abs_Q>
0

> <r_epik_Metal_State_Penalty>
-0

> <b_epik_Metal_Only>
0

> <s_lp_Force_Field>
OPLS_2005

> <r_lp_Energy>
24.0208

> <b_lp_Chiralities_Consistent>
1

> <s_lp_Variant>
AV-unprocessed.smi:1052-1

> <Gold.Version>
5.8.1

> <Gold.Id.Protein>
6NUR|6NUR_protein|mol2

> <Gold.PLP.Fitness>
44.9194

> <Gold.PLP.PLP>
-44.0380

> <Gold.PLP.part.hbond>
-1.0000

> <Gold.PLP.part.metal>
0.0000

> <Gold.PLP.part.buried>
-4.2089

> <Gold.PLP.part.nonpolar>
-40.1592

> <Gold.PLP.part.repulsive>
0.1231

> <Gold.PLP.ligand.clash>
0.0000

> <Gold.PLP.ligand.torsion>
1.0806

> <Gold.PLP.Chemscore.Hbond>
0.8112

> <Gold.PLP.Chemscore.CHOScore>
0.0000

> <Gold.PLP.Chemscore.Metal>
0.0000

> <Gold.Chemscore.Hbonds>
donor molecule, donor type, donor heavy atom, donor atom, acceptor molecule, acceptor atom, score
      P1  H  7989  7998       L1     7  0.78

> <Gold.PLP.Chemscore.Internal.Correction>
0.6091

> <Gold.Rescore>
     Score         DG    S(hbond)    S(metal)    S(lipo)     H(rot)  DE(clash)    DE(int)     intcor
     11.35     -16.68       0.80        0.00     109.83       1.69       1.57       3.76       ----

> <Gold.Chemscore.Fitness>
11.3535

> <Gold.Chemscore.DG>
-16.6839

> <Gold.Chemscore.ZeroCoef>
-5.4800

> <Gold.Chemscore.Hbond>
0.8026

> <Gold.Chemscore.Metal>
0.0000

> <Gold.Chemscore.Lipo>
109.8322

> <Gold.Chemscore.Internal_Hbond>
0.0000

> <Gold.Chemscore.DEClash>
1.5705

> <Gold.Chemscore.DEInternal>
3.7598

> <Gold.Chemscore.Rot>
1.6903

> <Gold.Chemscore.Internal.Correction>
   9.000000E+99

> <Gold.Chemscore.Hbonds>
donor molecule, donor type, donor heavy atom, donor atom, acceptor molecule, acceptor atom, score
      P1  H  7989  7998       L1     7  0.74

> <Gold.Chemscore.Hbond.Weighted>
-2.6807

> <Gold.Chemscore.Metal.Weighted>
-0.0000

> <Gold.Chemscore.Lipo.Weighted>
-12.8504

> <Gold.Chemscore.Internal_Hbond.Weighted>
0.0000

> <Gold.Chemscore.DEClash.Weighted>
1.5705

> <Gold.Chemscore.DEInternal.Weighted>
3.7598

> <Gold.Chemscore.Rot.Weighted>
4.3272

> <Gold.Chemscore.Internal.Correction.Weighted>
   9.000000E+99

> <Gold.Protein.RotatedTorsions>
[ 6907 6896 6895 6894 ] final   67.28 input  -60.11 | X-H torsion
[ 7974 7965 7964 7962 ] final  104.38 input  175.53 | X-H torsion
[ 8008 7997 7996 7995 ] final   87.88 input   59.86 | X-H torsion
[ 10167 10162 10161 10158 ] final  158.06 input  -65.29 | X-H torsion
[ 10718 10713 10712 10709 ] final -133.40 input   66.30 | X-H torsion
[ 10763 10752 10751 10750 ] final -174.06 input  -60.55 | X-H torsion
[ 11005 11000 10999 10996 ] final  -43.97 input  -57.11 | X-H torsion

> <Gold.Protein.ActiveResidues>
 VAL166  LYS551  ARG553  GLY616  TRP617  ASP618  TYR619  PRO620  LYS621  CYS622 
 ASP623  PHE694  ASN695  SER759  ASP760  ASP761  ALA762  ILE779  LEU786  VAL792 
 PHE793  MET794  SER795  GLU796  ALA797  LYS798  CYS799  TRP800  GLU811  SER814 

> <Gold.Protein.RotatedAtoms>
  152.4541  134.5330  159.9816 H   0  0  0  0  0  0  0  0  0  0  0  0  # atno 6907 bound_to 6896
  151.5395  133.3429  159.2941 H   0  0  0  0  0  0  0  0  0  0  0  0  # atno 6908 bound_to 6896
  150.8479  134.7825  159.7048 H   0  0  0  0  0  0  0  0  0  0  0  0  # atno 6909 bound_to 6896
  145.3336  139.2480  143.3647 H   0  0  0  0  0  0  0  0  0  0  0  0  # atno 7974 bound_to 7965
  155.9808  140.3377  155.6661 H   0  0  0  0  0  0  0  0  0  0  0  0  # atno 8008 bound_to 7997
  155.6551  140.0710  157.2592 H   0  0  0  0  0  0  0  0  0  0  0  0  # atno 8009 bound_to 7997
  154.4191  140.1718  156.1703 H   0  0  0  0  0  0  0  0  0  0  0  0  # atno 8010 bound_to 7997
  139.4825  144.4859  151.8378 H   0  0  0  0  0  0  0  0  0  0  0  0  # atno 10167 bound_to 10162
  156.2446  130.7116  151.0991 H   0  0  0  0  0  0  0  0  0  0  0  0  # atno 10718 bound_to 10713
  154.6006  135.2854  155.0539 H   0  0  0  0  0  0  0  0  0  0  0  0  # atno 10763 bound_to 10752
  154.1806  135.6457  153.5037 H   0  0  0  0  0  0  0  0  0  0  0  0  # atno 10764 bound_to 10752
  153.0155  135.5422  154.6723 H   0  0  0  0  0  0  0  0  0  0  0  0  # atno 10765 bound_to 10752
  141.0419  133.6776  156.2807 H   0  0  0  0  0  0  0  0  0  0  0  0  # atno 11005 bound_to 11000
  146.3036  140.3918  142.8695 LP  0  0  0  0  0  0  0  0  0  0  0  0  # atno 17320 bound_to 7965
  144.8845  140.7444  143.5965 LP  0  0  0  0  0  0  0  0  0  0  0  0  # atno 17321 bound_to 7965
  140.4339  144.2078  150.5889 LP  0  0  0  0  0  0  0  0  0  0  0  0  # atno 17342 bound_to 10162
  140.4751  143.2399  151.9034 LP  0  0  0  0  0  0  0  0  0  0  0  0  # atno 17343 bound_to 10162
  157.7189  131.0693  150.6215 LP  0  0  0  0  0  0  0  0  0  0  0  0  # atno 17370 bound_to 10713
  156.6290  130.4427  149.5793 LP  0  0  0  0  0  0  0  0  0  0  0  0  # atno 17371 bound_to 10713
  140.6218  134.5354  157.5548 LP  0  0  0  0  0  0  0  0  0  0  0  0  # atno 17394 bound_to 11000
  139.9282  134.8014  156.1006 LP  0  0  0  0  0  0  0  0  0  0  0  0  # atno 17395 bound_to 11000

$$$$
