AV-unprocessed.smi:1145|AV-procd|sdf|4884|dock8
  -GOLD-   22720 3453D 1   1.00000     0.00000
 Structure written by MMmdl.
 36 37  0  0  0  0  0  0  0  0  1 V2000
  147.7832  137.1507  154.8903 C   0  0  0  0  0  0  0  0  0  0  0  0
  147.7718  135.6165  154.8532 C   0  0  2  0  0  0  0  0  0  0  0  0
  149.1998  135.0408  154.9659 C   0  0  0  0  0  0  0  0  0  0  0  0
  149.2621  133.6290  154.6281 N   0  0  0  0  0  0  0  0  0  0  0  0
  149.7690  132.5905  155.3806 C   0  0  0  0  0  0  0  0  0  0  0  0
  149.5911  131.4435  154.6615 C   0  0  0  0  0  0  0  0  0  0  0  0
  148.9610  131.8884  153.4657 C   0  0  0  0  0  0  0  0  0  0  0  0
  148.7701  133.1975  153.4462 N   0  0  0  0  0  0  0  0  0  0  0  0
  147.1322  135.1745  153.6148 N   0  0  0  0  0  0  0  0  0  0  0  0
  146.1068  134.3120  153.5259 C   0  0  0  0  0  0  0  0  0  0  0  0
  145.5400  133.8297  154.5072 O   0  0  0  0  0  0  0  0  0  0  0  0
  145.6755  133.9122  152.1089 C   0  0  1  0  0  0  0  0  0  0  0  0
  145.9437  132.4186  151.8625 C   0  0  0  0  0  0  0  0  0  0  0  0
  145.5743  132.0197  150.4250 C   0  0  0  0  0  0  0  0  0  0  0  0
  144.2136  132.5673  149.9683 C   0  0  0  0  0  0  0  0  0  0  0  0
  143.6643  132.0766  148.9845 O   0  0  0  0  0  0  0  0  0  0  0  0
  143.6680  133.5997  150.6355 N   0  0  0  0  0  0  0  0  0  0  0  0
  144.1806  134.2087  151.8633 C   0  0  0  0  0  0  0  0  0  0  0  0
  148.2368  137.5166  155.8118 H   0  0  0  0  0  0  0  0  0  0  0  0
  146.7707  137.5525  154.8410 H   0  0  0  0  0  0  0  0  0  0  0  0
  148.3485  137.5649  154.0546 H   0  0  0  0  0  0  0  0  0  0  0  0
  147.1913  135.2783  155.7135 H   0  0  0  0  0  0  0  0  0  0  0  0
  149.8888  135.5944  154.3256 H   0  0  0  0  0  0  0  0  0  0  0  0
  149.5679  135.1530  155.9864 H   0  0  0  0  0  0  0  0  0  0  0  0
  150.2022  132.7520  156.3568 H   0  0  0  0  0  0  0  0  0  0  0  0
  149.8661  130.4392  154.9477 H   0  0  0  0  0  0  0  0  0  0  0  0
  148.6395  131.3032  152.6170 H   0  0  0  0  0  0  0  0  0  0  0  0
  147.5344  135.5145  152.7533 H   0  0  0  0  0  0  0  0  0  0  0  0
  146.2628  134.4871  151.3900 H   0  0  0  0  0  0  0  0  0  0  0  0
  146.9945  132.1874  152.0439 H   0  0  0  0  0  0  0  0  0  0  0  0
  145.3707  131.8111  152.5653 H   0  0  0  0  0  0  0  0  0  0  0  0
  146.3300  132.4007  149.7372 H   0  0  0  0  0  0  0  0  0  0  0  0
  145.5820  130.9337  150.3259 H   0  0  0  0  0  0  0  0  0  0  0  0
  142.7884  133.9575  150.2916 H   0  0  0  0  0  0  0  0  0  0  0  0
  143.5701  133.8372  152.6878 H   0  0  0  0  0  0  0  0  0  0  0  0
  144.0149  135.2854  151.8125 H   0  0  0  0  0  0  0  0  0  0  0  0
  1  2  1  0  0  0  0
  1 19  1  0  0  0  0
  1 20  1  0  0  0  0
  1 21  1  0  0  0  0
  2  3  1  0  0  0  0
  2  9  1  0  0  0  0
  2 22  1  0  0  0  0
  3  4  1  0  0  0  0
  3 23  1  0  0  0  0
  3 24  1  0  0  0  0
  4  8  1  0  0  0  0
  4  5  1  0  0  0  0
  5  6  2  0  0  0  0
  5 25  1  0  0  0  0
  6  7  1  0  0  0  0
  6 26  1  0  0  0  0
  7  8  2  0  0  0  0
  7 27  1  0  0  0  0
  9 10  1  0  0  0  0
  9 28  1  0  0  0  0
 10 11  2  0  0  0  0
 10 12  1  0  0  0  0
 12 18  1  0  0  0  0
 12 13  1  0  0  0  0
 12 29  1  0  0  0  0
 13 14  1  0  0  0  0
 13 30  1  0  0  0  0
 13 31  1  0  0  0  0
 14 15  1  0  0  0  0
 14 32  1  0  0  0  0
 14 33  1  0  0  0  0
 15 16  2  0  0  0  0
 15 17  1  0  0  0  0
 17 18  1  0  0  0  0
 17 34  1  0  0  0  0
 18 35  1  0  0  0  0
 18 36  1  0  0  0  0
M  END
> <s_m_source_file>
AV-unprocessed.smi

> <i_m_source_file_index>
1145

> <i_lp_mmshare_version>
43012

> <i_f3d_flags>
0

> <s_epik_input>
bjFbY0hdW2NIXVtjSF1uMVtDSDJdW0NAQEhdKFtDSDNdKVtOSF1DKD1PKVtDQEBIXTJbQ0gyXVtDSDJdQyg9TylbTkhdW0NIMl0y

> <s_epik_cmdline>
J2VwaWtfcHl0aG9uJywgJy1waCcsICc3LjAnLCAnLXRuJywgJzgnLCAnLW1hJywgJzIwMCcsICctbWV0YWxfYmluZGluZycsICctaW1hZScsICc8aW5maWxlLm1hZT4nLCAnLW9tYWUnLCAnPG91dGZpbGUubWFlPic=

> <r_lp_tautomer_probability>
1

> <r_epik_Ionization_Penalty>
0.000314064

> <r_epik_Ionization_Penalty_Charging>
0

> <r_epik_Ionization_Penalty_Neutral>
0.000314064

> <r_epik_State_Penalty>
-0

> <r_epik_Charging_Adjusted_Penalty>
0

> <i_epik_Tot_Q>
0

> <i_epik_Tot_abs_Q>
0

> <r_epik_Metal_State_Penalty>
-0

> <b_epik_Metal_Only>
0

> <s_lp_Force_Field>
OPLS_2005

> <r_lp_Energy>
12.228

> <b_lp_Chiralities_Consistent>
1

> <s_lp_Variant>
AV-unprocessed.smi:1145-3

> <Gold.Version>
5.8.1

> <Gold.Id.Protein>
6NUR|6NUR_protein|mol2

> <Gold.PLP.Fitness>
39.9450

> <Gold.PLP.PLP>
-28.8859

> <Gold.PLP.part.hbond>
-3.0000

> <Gold.PLP.part.metal>
0.0000

> <Gold.PLP.part.buried>
-6.1215

> <Gold.PLP.part.nonpolar>
-21.3346

> <Gold.PLP.part.repulsive>
0.5367

> <Gold.PLP.ligand.clash>
0.0000

> <Gold.PLP.ligand.torsion>
0.2334

> <Gold.PLP.Chemscore.Hbond>
2.8320

> <Gold.PLP.Chemscore.CHOScore>
1.0000

> <Gold.PLP.Chemscore.Metal>
0.0000

> <Gold.Chemscore.Hbonds>
donor molecule, donor type, donor heavy atom, donor atom, acceptor molecule, acceptor atom, score
      L1  H     9    28       P1  7948  0.99
      L1  H    17    34       P1 10186  1.00
      P1  H 10785 10796       L1    16  0.82
      L1  C     7    27       P1 10747  1.00

> <Gold.PLP.Chemscore.Internal.Correction>
0.0299

> <Gold.Rescore>
     Score         DG    S(hbond)    S(metal)    S(lipo)     H(rot)  DE(clash)    DE(int)     intcor
     15.53     -15.81       2.75        0.00      49.23       1.80       0.00       0.28       ----

> <Gold.Chemscore.Fitness>
15.5314

> <Gold.Chemscore.DG>
-15.8096

> <Gold.Chemscore.ZeroCoef>
-5.4800

> <Gold.Chemscore.Hbond>
2.7464

> <Gold.Chemscore.Metal>
0.0000

> <Gold.Chemscore.Lipo>
49.2303

> <Gold.Chemscore.Internal_Hbond>
0.0000

> <Gold.Chemscore.DEClash>
0.0029

> <Gold.Chemscore.DEInternal>
0.2752

> <Gold.Chemscore.Rot>
1.7982

> <Gold.Chemscore.Internal.Correction>
   9.000000E+99

> <Gold.Chemscore.Hbonds>
donor molecule, donor type, donor heavy atom, donor atom, acceptor molecule, acceptor atom, score
      L1  H     9    28       P1  7948  0.94
      L1  H    17    34       P1 10186  0.94
      P1  H 10785 10796       L1    16  0.78

> <Gold.Chemscore.Hbond.Weighted>
-9.1731

> <Gold.Chemscore.Metal.Weighted>
-0.0000

> <Gold.Chemscore.Lipo.Weighted>
-5.7599

> <Gold.Chemscore.Internal_Hbond.Weighted>
0.0000

> <Gold.Chemscore.DEClash.Weighted>
0.0029

> <Gold.Chemscore.DEInternal.Weighted>
0.2752

> <Gold.Chemscore.Rot.Weighted>
4.6035

> <Gold.Chemscore.Internal.Correction.Weighted>
   9.000000E+99

> <Gold.Protein.RotatedTorsions>
[ 6907 6896 6895 6894 ] final -156.23 input  -60.11 | X-H torsion
[ 7974 7965 7964 7962 ] final  -88.56 input  175.53 | X-H torsion
[ 8008 7997 7996 7995 ] final   17.92 input   59.86 | X-H torsion
[ 10167 10162 10161 10158 ] final   11.50 input  -65.29 | X-H torsion
[ 10718 10713 10712 10709 ] final -132.61 input   66.30 | X-H torsion
[ 10763 10752 10751 10750 ] final   56.85 input  -60.55 | X-H torsion
[ 11005 11000 10999 10996 ] final   80.26 input  -57.11 | X-H torsion

> <Gold.Protein.ActiveResidues>
 VAL166  LYS551  ARG553  GLY616  TRP617  ASP618  TYR619  PRO620  LYS621  CYS622 
 ASP623  PHE694  ASN695  SER759  ASP760  ASP761  ALA762  ILE779  LEU786  VAL792 
 PHE793  MET794  SER795  GLU796  ALA797  LYS798  CYS799  TRP800  GLU811  SER814 

> <Gold.Protein.RotatedAtoms>
  151.2845  133.4194  159.2628 H   0  0  0  0  0  0  0  0  0  0  0  0  # atno 6907 bound_to 6896
  151.0331  134.9554  159.8132 H   0  0  0  0  0  0  0  0  0  0  0  0  # atno 6908 bound_to 6896
  152.5350  134.2806  159.9058 H   0  0  0  0  0  0  0  0  0  0  0  0  # atno 6909 bound_to 6896
  145.4515  140.9560  143.2019 H   0  0  0  0  0  0  0  0  0  0  0  0  # atno 7974 bound_to 7965
  154.8985  140.2997  155.5331 H   0  0  0  0  0  0  0  0  0  0  0  0  # atno 8008 bound_to 7997
  156.3019  140.2411  156.3945 H   0  0  0  0  0  0  0  0  0  0  0  0  # atno 8009 bound_to 7997
  154.8545  140.0408  157.1614 H   0  0  0  0  0  0  0  0  0  0  0  0  # atno 8010 bound_to 7997
  140.6128  143.8372  150.7084 H   0  0  0  0  0  0  0  0  0  0  0  0  # atno 10167 bound_to 10162
  156.2364  130.7069  151.0911 H   0  0  0  0  0  0  0  0  0  0  0  0  # atno 10718 bound_to 10713
  152.9839  135.5662  154.5295 H   0  0  0  0  0  0  0  0  0  0  0  0  # atno 10763 bound_to 10752
  154.4769  135.2787  155.1602 H   0  0  0  0  0  0  0  0  0  0  0  0  # atno 10764 bound_to 10752
  154.3127  135.6285  153.5526 H   0  0  0  0  0  0  0  0  0  0  0  0  # atno 10765 bound_to 10752
  139.9141  134.7907  156.1887 H   0  0  0  0  0  0  0  0  0  0  0  0  # atno 11005 bound_to 11000
  144.8058  139.6053  143.7051 LP  0  0  0  0  0  0  0  0  0  0  0  0  # atno 17320 bound_to 7965
  146.2501  139.6182  142.9432 LP  0  0  0  0  0  0  0  0  0  0  0  0  # atno 17321 bound_to 7965
  140.1945  143.4009  152.1838 LP  0  0  0  0  0  0  0  0  0  0  0  0  # atno 17342 bound_to 10162
  139.5374  144.7223  151.4846 LP  0  0  0  0  0  0  0  0  0  0  0  0  # atno 17343 bound_to 10162
  157.7156  131.0711  150.6339 LP  0  0  0  0  0  0  0  0  0  0  0  0  # atno 17370 bound_to 10713
  156.6410  130.4458  149.5752 LP  0  0  0  0  0  0  0  0  0  0  0  0  # atno 17371 bound_to 10713
  141.0597  133.6847  156.1929 LP  0  0  0  0  0  0  0  0  0  0  0  0  # atno 17394 bound_to 11000
  140.6680  134.4898  157.5586 LP  0  0  0  0  0  0  0  0  0  0  0  0  # atno 17395 bound_to 11000

$$$$
