AV-unprocessed.smi:2038|AV-procd|sdf|8281|dock2
  -GOLD-   2272010553D 1   1.00000     0.00000
 Structure written by MMmdl.
 33 34  0  0  0  0  0  0  0  0  1 V2000
  151.6684  135.1075  156.2734 O   0  0  0  0  0  0  0  0  0  0  0  0
  150.8836  135.8329  155.6620 C   0  0  0  0  0  0  0  0  0  0  0  0
  149.8554  135.3870  154.9171 N   0  0  0  0  0  0  0  0  0  0  0  0
  149.4706  134.0438  154.6587 C   0  0  0  0  0  0  0  0  0  0  0  0
  150.0847  133.0209  155.4089 C   0  0  0  0  0  0  0  0  0  0  0  0
  149.7058  131.6837  155.1858 C   0  0  0  0  0  0  0  0  0  0  0  0
  148.7129  131.4109  154.2243 C   0  0  0  0  0  0  0  0  0  0  0  0
  148.3459  130.0986  154.0090 O   0  0  0  0  0  0  0  0  0  0  0  0
  147.3346  129.8252  153.0425 C   0  0  0  0  0  0  0  0  0  0  0  0
  147.4572  128.3685  152.5804 C   0  0  0  0  0  0  0  0  0  0  0  0
  146.8196  128.2194  151.4197 F   0  0  0  0  0  0  0  0  0  0  0  0
  148.7388  128.0459  152.4083 F   0  0  0  0  0  0  0  0  0  0  0  0
  146.9067  127.5522  153.4785 F   0  0  0  0  0  0  0  0  0  0  0  0
  148.1038  132.3886  153.5090 N   0  0  0  0  0  0  0  0  0  0  0  0
  148.4733  133.6691  153.7259 C   0  0  0  0  0  0  0  0  0  0  0  0
  151.0427  137.3563  155.7332 C   0  0  1  0  0  0  0  0  0  0  0  0
  151.2738  138.0232  154.3642 C   0  0  0  0  0  0  0  0  0  0  0  0
  149.9756  138.7598  154.0997 C   0  0  0  0  0  0  0  0  0  0  0  0
  149.5110  139.0860  155.5114 C   0  0  0  0  0  0  0  0  0  0  0  0
  149.8246  137.9055  156.2339 O   0  0  0  0  0  0  0  0  0  0  0  0
  149.2420  136.0959  154.5415 H   0  0  0  0  0  0  0  0  0  0  0  0
  150.8414  133.2541  156.1438 H   0  0  0  0  0  0  0  0  0  0  0  0
  150.1675  130.8819  155.7429 H   0  0  0  0  0  0  0  0  0  0  0  0
  146.3458  129.9911  153.4737 H   0  0  0  0  0  0  0  0  0  0  0  0
  147.4411  130.4915  152.1847 H   0  0  0  0  0  0  0  0  0  0  0  0
  147.9310  134.3994  153.1458 H   0  0  0  0  0  0  0  0  0  0  0  0
  151.8561  137.6205  156.4113 H   0  0  0  0  0  0  0  0  0  0  0  0
  152.0975  138.7344  154.4377 H   0  0  0  0  0  0  0  0  0  0  0  0
  151.5183  137.3249  153.5623 H   0  0  0  0  0  0  0  0  0  0  0  0
  150.1031  139.6442  153.4750 H   0  0  0  0  0  0  0  0  0  0  0  0
  149.2590  138.0953  153.6148 H   0  0  0  0  0  0  0  0  0  0  0  0
  150.0721  139.9266  155.9225 H   0  0  0  0  0  0  0  0  0  0  0  0
  148.4474  139.3194  155.5637 H   0  0  0  0  0  0  0  0  0  0  0  0
  1  2  2  0  0  0  0
  2  3  1  0  0  0  0
  2 16  1  0  0  0  0
  3  4  1  0  0  0  0
  3 21  1  0  0  0  0
  4 15  1  0  0  0  0
  4  5  2  0  0  0  0
  5  6  1  0  0  0  0
  5 22  1  0  0  0  0
  6  7  2  0  0  0  0
  6 23  1  0  0  0  0
  7  8  1  0  0  0  0
  7 14  1  0  0  0  0
  8  9  1  0  0  0  0
  9 10  1  0  0  0  0
  9 24  1  0  0  0  0
  9 25  1  0  0  0  0
 10 11  1  0  0  0  0
 10 12  1  0  0  0  0
 10 13  1  0  0  0  0
 14 15  2  0  0  0  0
 15 26  1  0  0  0  0
 16 20  1  0  0  0  0
 16 17  1  0  0  0  0
 16 27  1  0  0  0  0
 17 18  1  0  0  0  0
 17 28  1  0  0  0  0
 17 29  1  0  0  0  0
 18 19  1  0  0  0  0
 18 30  1  0  0  0  0
 18 31  1  0  0  0  0
 19 20  1  0  0  0  0
 19 32  1  0  0  0  0
 19 33  1  0  0  0  0
M  END
> <s_m_source_file>
AV-unprocessed.smi

> <i_m_source_file_index>
2038

> <i_lp_mmshare_version>
43012

> <i_f3d_flags>
0

> <s_epik_input>
TzFbQ0gyXVtDSDJdW0NIMl1bQ0BIXTFDKD1PKVtOSF1jMltjSF1bY0hdYyhuW2NIXTIpT1tDSDJdQyhGKShGKUY=

> <s_epik_cmdline>
J2VwaWtfcHl0aG9uJywgJy1waCcsICc3LjAnLCAnLXRuJywgJzgnLCAnLW1hJywgJzIwMCcsICctbWV0YWxfYmluZGluZycsICctaW1hZScsICc8aW5maWxlLm1hZT4nLCAnLW9tYWUnLCAnPG91dGZpbGUubWFlPic=

> <r_lp_tautomer_probability>
1

> <r_epik_Ionization_Penalty>
2.73305e-06

> <r_epik_Ionization_Penalty_Charging>
0

> <r_epik_Ionization_Penalty_Neutral>
2.73305e-06

> <r_epik_State_Penalty>
-0

> <r_epik_Charging_Adjusted_Penalty>
0

> <i_epik_Tot_Q>
0

> <i_epik_Tot_abs_Q>
0

> <r_epik_Metal_State_Penalty>
-0

> <b_epik_Metal_Only>
0

> <s_lp_Force_Field>
OPLS_2005

> <r_lp_Energy>
22.8429

> <b_lp_Chiralities_Consistent>
1

> <s_lp_Variant>
AV-unprocessed.smi:2038-2

> <Gold.Version>
5.8.1

> <Gold.Id.Protein>
6NUR|6NUR_protein|mol2

> <Gold.PLP.Fitness>
37.3567

> <Gold.PLP.PLP>
-32.4551

> <Gold.PLP.part.hbond>
-1.2849

> <Gold.PLP.part.metal>
0.0000

> <Gold.PLP.part.buried>
-1.7329

> <Gold.PLP.part.nonpolar>
-28.4862

> <Gold.PLP.part.repulsive>
0.2611

> <Gold.PLP.ligand.clash>
0.0000

> <Gold.PLP.ligand.torsion>
0.3881

> <Gold.PLP.Chemscore.Hbond>
0.9440

> <Gold.PLP.Chemscore.CHOScore>
0.9326

> <Gold.PLP.Chemscore.Metal>
0.0000

> <Gold.Chemscore.Hbonds>
donor molecule, donor type, donor heavy atom, donor atom, acceptor molecule, acceptor atom, score
      P1  H 10752 10763       L1     1  0.93
      L1  C    15    26       P1  7948  0.89

> <Gold.PLP.Chemscore.Internal.Correction>
0.0482

> <Gold.Rescore>
     Score         DG    S(hbond)    S(metal)    S(lipo)     H(rot)  DE(clash)    DE(int)     intcor
      9.18     -11.00       0.92        0.00      57.84       1.69       0.06       1.76       ----

> <Gold.Chemscore.Fitness>
9.1780

> <Gold.Chemscore.DG>
-10.9960

> <Gold.Chemscore.ZeroCoef>
-5.4800

> <Gold.Chemscore.Hbond>
0.9223

> <Gold.Chemscore.Metal>
0.0000

> <Gold.Chemscore.Lipo>
57.8359

> <Gold.Chemscore.Internal_Hbond>
0.0000

> <Gold.Chemscore.DEClash>
0.0590

> <Gold.Chemscore.DEInternal>
1.7590

> <Gold.Chemscore.Rot>
1.6919

> <Gold.Chemscore.Internal.Correction>
   9.000000E+99

> <Gold.Chemscore.Hbonds>
donor molecule, donor type, donor heavy atom, donor atom, acceptor molecule, acceptor atom, score
      P1  H 10752 10763       L1     1  0.27

> <Gold.Chemscore.Hbond.Weighted>
-3.0806

> <Gold.Chemscore.Metal.Weighted>
-0.0000

> <Gold.Chemscore.Lipo.Weighted>
-6.7668

> <Gold.Chemscore.Internal_Hbond.Weighted>
0.0000

> <Gold.Chemscore.DEClash.Weighted>
0.0590

> <Gold.Chemscore.DEInternal.Weighted>
1.7590

> <Gold.Chemscore.Rot.Weighted>
4.3313

> <Gold.Chemscore.Internal.Correction.Weighted>
   9.000000E+99

> <Gold.Protein.RotatedTorsions>
[ 6907 6896 6895 6894 ] final -142.68 input  -60.11 | X-H torsion
[ 7974 7965 7964 7962 ] final   25.65 input  175.53 | X-H torsion
[ 8008 7997 7996 7995 ] final -157.04 input   59.86 | X-H torsion
[ 10167 10162 10161 10158 ] final  -95.49 input  -65.29 | X-H torsion
[ 10718 10713 10712 10709 ] final  -10.25 input   66.30 | X-H torsion
[ 10763 10752 10751 10750 ] final  105.45 input  -60.55 | X-H torsion
[ 11005 11000 10999 10996 ] final  114.48 input  -57.11 | X-H torsion

> <Gold.Protein.ActiveResidues>
 VAL166  LYS551  ARG553  GLY616  TRP617  ASP618  TYR619  PRO620  LYS621  CYS622 
 ASP623  PHE694  ASN695  SER759  ASP760  ASP761  ALA762  ILE779  LEU786  VAL792 
 PHE793  MET794  SER795  GLU796  ALA797  LYS798  CYS799  TRP800  GLU811  SER814 

> <Gold.Protein.RotatedAtoms>
  151.0903  133.5321  159.2615 H   0  0  0  0  0  0  0  0  0  0  0  0  # atno 6907 bound_to 6896
  151.2190  135.0510  159.8952 H   0  0  0  0  0  0  0  0  0  0  0  0  # atno 6908 bound_to 6896
  152.5433  134.0708  159.8247 H   0  0  0  0  0  0  0  0  0  0  0  0  # atno 6909 bound_to 6896
  146.1878  139.7436  142.8854 H   0  0  0  0  0  0  0  0  0  0  0  0  # atno 7974 bound_to 7965
  155.7263  140.0796  157.2308 H   0  0  0  0  0  0  0  0  0  0  0  0  # atno 8008 bound_to 7997
  154.4038  140.1603  156.2513 H   0  0  0  0  0  0  0  0  0  0  0  0  # atno 8009 bound_to 7997
  155.9150  140.3401  155.6131 H   0  0  0  0  0  0  0  0  0  0  0  0  # atno 8010 bound_to 7997
  140.3036  143.3147  152.0223 H   0  0  0  0  0  0  0  0  0  0  0  0  # atno 10167 bound_to 10162
  156.6762  130.5023  149.5985 H   0  0  0  0  0  0  0  0  0  0  0  0  # atno 10718 bound_to 10713
  153.3795  135.3909  155.1847 H   0  0  0  0  0  0  0  0  0  0  0  0  # atno 10763 bound_to 10752
  154.8705  135.3722  154.4875 H   0  0  0  0  0  0  0  0  0  0  0  0  # atno 10764 bound_to 10752
  153.5350  135.7085  153.5725 H   0  0  0  0  0  0  0  0  0  0  0  0  # atno 10765 bound_to 10752
  139.8982  134.9568  156.6899 H   0  0  0  0  0  0  0  0  0  0  0  0  # atno 11005 bound_to 11000
  145.3887  141.0369  143.3136 LP  0  0  0  0  0  0  0  0  0  0  0  0  # atno 17320 bound_to 7965
  144.8429  139.5444  143.6892 LP  0  0  0  0  0  0  0  0  0  0  0  0  # atno 17321 bound_to 7965
  139.4909  144.6438  151.6822 LP  0  0  0  0  0  0  0  0  0  0  0  0  # atno 17342 bound_to 10162
  140.5630  144.0237  150.6179 LP  0  0  0  0  0  0  0  0  0  0  0  0  # atno 17343 bound_to 10162
  156.1901  130.6554  151.1052 LP  0  0  0  0  0  0  0  0  0  0  0  0  # atno 17370 bound_to 10713
  157.7060  131.0756  150.6666 LP  0  0  0  0  0  0  0  0  0  0  0  0  # atno 17371 bound_to 10713
  140.7233  133.9122  155.8161 LP  0  0  0  0  0  0  0  0  0  0  0  0  # atno 17394 bound_to 11000
  141.0210  134.0888  157.4120 LP  0  0  0  0  0  0  0  0  0  0  0  0  # atno 17395 bound_to 11000

$$$$
