AV-unprocessed.smi:2409|AV-procd|sdf|9525|dock7
  -GOLD-   2272013153D 1   1.00000     0.00000
 Structure written by MMmdl.
 35 36  0  0  0  0  0  0  0  0  1 V2000
  152.4836  139.2258  158.1430 C   0  0  0  0  0  0  0  0  0  0  0  0
  151.4467  140.0593  158.6318 O   0  0  0  0  0  0  0  0  0  0  0  0
  151.8050  141.3565  158.7405 C   0  0  0  0  0  0  0  0  0  0  0  0
  151.3317  142.4894  158.1388 C   0  0  0  0  0  0  0  0  0  0  0  0
  150.2950  142.6513  157.1852 N   0  0  0  0  0  0  0  0  0  0  0  0
  149.4417  141.7146  156.7316 C   0  0  0  0  0  0  0  0  0  0  0  0
  149.4129  140.5521  157.1294 O   0  0  0  0  0  0  0  0  0  0  0  0
  148.5533  142.1655  155.8284 N   0  0  0  0  0  0  0  0  0  0  0  0
  147.5246  141.4225  155.1649 C   0  0  1  0  0  0  0  0  0  0  0  0
  146.7328  142.1597  154.1076 C   0  0  0  0  0  0  0  0  0  0  0  0
  147.7099  141.0896  153.6989 C   0  0  2  0  0  0  0  0  0  0  0  0
  147.2057  139.7802  153.1326 C   0  0  0  0  0  0  0  0  0  0  0  0
  152.1597  143.5388  158.6245 C   0  0  0  0  0  0  0  0  0  0  0  0
  152.1319  145.0032  158.2921 C   0  0  0  0  0  0  0  0  0  0  0  0
  153.0478  143.0823  159.5003 N   0  0  0  0  0  0  0  0  0  0  0  0
  152.8279  141.7472  159.5792 N   0  0  0  0  0  0  0  0  0  0  0  0
  153.6532  140.9383  160.4524 C   0  0  0  0  0  0  0  0  0  0  0  0
  152.1293  138.1967  158.0876 H   0  0  0  0  0  0  0  0  0  0  0  0
  153.3489  139.2489  158.8070 H   0  0  0  0  0  0  0  0  0  0  0  0
  152.8031  139.5248  157.1441 H   0  0  0  0  0  0  0  0  0  0  0  0
  150.1363  143.5951  156.8647 H   0  0  0  0  0  0  0  0  0  0  0  0
  148.5626  143.1589  155.6469 H   0  0  0  0  0  0  0  0  0  0  0  0
  146.9432  140.7208  155.7614 H   0  0  0  0  0  0  0  0  0  0  0  0
  145.6709  141.9337  154.0316 H   0  0  0  0  0  0  0  0  0  0  0  0
  147.0031  143.1922  153.8932 H   0  0  0  0  0  0  0  0  0  0  0  0
  148.6333  141.4372  153.2386 H   0  0  0  0  0  0  0  0  0  0  0  0
  146.2769  139.4789  153.6182 H   0  0  0  0  0  0  0  0  0  0  0  0
  147.9476  138.9966  153.2869 H   0  0  0  0  0  0  0  0  0  0  0  0
  147.0222  139.8809  152.0629 H   0  0  0  0  0  0  0  0  0  0  0  0
  151.3483  145.2350  157.5705 H   0  0  0  0  0  0  0  0  0  0  0  0
  153.0811  145.3253  157.8636 H   0  0  0  0  0  0  0  0  0  0  0  0
  151.9473  145.6032  159.1833 H   0  0  0  0  0  0  0  0  0  0  0  0
  153.1532  139.9952  160.6743 H   0  0  0  0  0  0  0  0  0  0  0  0
  153.8365  141.4667  161.3886 H   0  0  0  0  0  0  0  0  0  0  0  0
  154.6060  140.7302  159.9655 H   0  0  0  0  0  0  0  0  0  0  0  0
  1  2  1  0  0  0  0
  1 18  1  0  0  0  0
  1 19  1  0  0  0  0
  1 20  1  0  0  0  0
  2  3  1  0  0  0  0
  3 16  1  0  0  0  0
  3  4  2  0  0  0  0
  4  5  1  0  0  0  0
  4 13  1  0  0  0  0
  5  6  1  0  0  0  0
  5 21  1  0  0  0  0
  6  7  2  0  0  0  0
  6  8  1  0  0  0  0
  8  9  1  0  0  0  0
  8 22  1  0  0  0  0
  9 11  1  0  0  0  0
  9 10  1  0  0  0  0
  9 23  1  0  0  0  0
 10 11  1  0  0  0  0
 10 24  1  0  0  0  0
 10 25  1  0  0  0  0
 11 12  1  0  0  0  0
 11 26  1  0  0  0  0
 12 27  1  0  0  0  0
 12 28  1  0  0  0  0
 12 29  1  0  0  0  0
 13 14  1  0  0  0  0
 13 15  2  0  0  0  0
 14 30  1  0  0  0  0
 14 31  1  0  0  0  0
 14 32  1  0  0  0  0
 15 16  1  0  0  0  0
 16 17  1  0  0  0  0
 17 33  1  0  0  0  0
 17 34  1  0  0  0  0
 17 35  1  0  0  0  0
M  END
> <s_m_source_file>
AV-unprocessed.smi

> <i_m_source_file_index>
2409

> <i_lp_mmshare_version>
43012

> <i_f3d_flags>
0

> <s_epik_input>
W0NIM11uMW5jKFtDSDNdKWMoYzFPW0NIM10pW05IXUMoPU8pW05IXVtDQEBIXTJbQ0gyXVtDQEhdMltDSDNd

> <s_epik_cmdline>
J2VwaWtfcHl0aG9uJywgJy1waCcsICc3LjAnLCAnLXRuJywgJzgnLCAnLW1hJywgJzIwMCcsICctbWV0YWxfYmluZGluZycsICctaW1hZScsICc8aW5maWxlLm1hZT4nLCAnLW9tYWUnLCAnPG91dGZpbGUubWFlPic=

> <r_lp_tautomer_probability>
1

> <r_epik_Ionization_Penalty>
0.000417804

> <r_epik_Ionization_Penalty_Charging>
0

> <r_epik_Ionization_Penalty_Neutral>
0.000417804

> <r_epik_State_Penalty>
-0

> <r_epik_Charging_Adjusted_Penalty>
0

> <i_epik_Tot_Q>
0

> <i_epik_Tot_abs_Q>
0

> <r_epik_Metal_State_Penalty>
-0

> <b_epik_Metal_Only>
0

> <s_lp_Force_Field>
OPLS_2005

> <r_lp_Energy>
34.5155

> <b_lp_Chiralities_Consistent>
1

> <s_lp_Variant>
AV-unprocessed.smi:2409-4

> <Gold.Version>
5.8.1

> <Gold.Id.Protein>
6NUR|6NUR_protein|mol2

> <Gold.PLP.Fitness>
40.9564

> <Gold.PLP.PLP>
-35.5826

> <Gold.PLP.part.hbond>
-2.0000

> <Gold.PLP.part.metal>
0.0000

> <Gold.PLP.part.buried>
-5.2381

> <Gold.PLP.part.nonpolar>
-28.7846

> <Gold.PLP.part.repulsive>
0.1347

> <Gold.PLP.ligand.clash>
0.0000

> <Gold.PLP.ligand.torsion>
0.0919

> <Gold.PLP.Chemscore.Hbond>
1.8406

> <Gold.PLP.Chemscore.CHOScore>
0.0000

> <Gold.PLP.Chemscore.Metal>
0.0000

> <Gold.Chemscore.Hbonds>
donor molecule, donor type, donor heavy atom, donor atom, acceptor molecule, acceptor atom, score
      L1  H     5    21       P1  8028  0.80
      L1  H     8    22       P1  8028  1.00

> <Gold.PLP.Chemscore.Internal.Correction>
0.0359

> <Gold.Rescore>
     Score         DG    S(hbond)    S(metal)    S(lipo)     H(rot)  DE(clash)    DE(int)     intcor
     14.30     -17.55       1.88        0.00      76.43       1.23       0.33       2.91       ----

> <Gold.Chemscore.Fitness>
14.3037

> <Gold.Chemscore.DG>
-17.5518

> <Gold.Chemscore.ZeroCoef>
-5.4800

> <Gold.Chemscore.Hbond>
1.8790

> <Gold.Chemscore.Metal>
0.0000

> <Gold.Chemscore.Lipo>
76.4339

> <Gold.Chemscore.Internal_Hbond>
0.0000

> <Gold.Chemscore.DEClash>
0.3347

> <Gold.Chemscore.DEInternal>
2.9134

> <Gold.Chemscore.Rot>
1.2292

> <Gold.Chemscore.Internal.Correction>
   9.000000E+99

> <Gold.Chemscore.Hbonds>
donor molecule, donor type, donor heavy atom, donor atom, acceptor molecule, acceptor atom, score
      L1  H     5    21       P1  8028  0.75
      L1  H     8    22       P1  8028  0.98

> <Gold.Chemscore.Hbond.Weighted>
-6.2757

> <Gold.Chemscore.Metal.Weighted>
-0.0000

> <Gold.Chemscore.Lipo.Weighted>
-8.9428

> <Gold.Chemscore.Internal_Hbond.Weighted>
0.0000

> <Gold.Chemscore.DEClash.Weighted>
0.3347

> <Gold.Chemscore.DEInternal.Weighted>
2.9134

> <Gold.Chemscore.Rot.Weighted>
3.1467

> <Gold.Chemscore.Internal.Correction.Weighted>
   9.000000E+99

> <Gold.Protein.RotatedTorsions>
[ 6907 6896 6895 6894 ] final  -56.66 input  -60.11 | X-H torsion
[ 7974 7965 7964 7962 ] final  -22.91 input  175.53 | X-H torsion
[ 8008 7997 7996 7995 ] final -135.91 input   59.86 | X-H torsion
[ 10167 10162 10161 10158 ] final  158.67 input  -65.29 | X-H torsion
[ 10718 10713 10712 10709 ] final -166.01 input   66.30 | X-H torsion
[ 10763 10752 10751 10750 ] final -124.40 input  -60.55 | X-H torsion
[ 11005 11000 10999 10996 ] final   81.83 input  -57.11 | X-H torsion

> <Gold.Protein.ActiveResidues>
 VAL166  LYS551  ARG553  GLY616  TRP617  ASP618  TYR619  PRO620  LYS621  CYS622 
 ASP623  PHE694  ASN695  SER759  ASP760  ASP761  ALA762  ILE779  LEU786  VAL792 
 PHE793  MET794  SER795  GLU796  ALA797  LYS798  CYS799  TRP800  GLU811  SER814 

> <Gold.Protein.RotatedAtoms>
  150.8149  134.7325  159.6720 H   0  0  0  0  0  0  0  0  0  0  0  0  # atno 6907 bound_to 6896
  152.4268  134.5850  159.9968 H   0  0  0  0  0  0  0  0  0  0  0  0  # atno 6908 bound_to 6896
  151.6050  133.3315  159.3091 H   0  0  0  0  0  0  0  0  0  0  0  0  # atno 6909 bound_to 6896
  146.1647  140.4544  142.8557 H   0  0  0  0  0  0  0  0  0  0  0  0  # atno 7974 bound_to 7965
  155.3864  140.0497  157.3042 H   0  0  0  0  0  0  0  0  0  0  0  0  # atno 8008 bound_to 7997
  154.5057  140.2173  155.9217 H   0  0  0  0  0  0  0  0  0  0  0  0  # atno 8009 bound_to 7997
  156.1523  140.3133  155.8673 H   0  0  0  0  0  0  0  0  0  0  0  0  # atno 8010 bound_to 7997
  139.4828  144.4803  151.8453 H   0  0  0  0  0  0  0  0  0  0  0  0  # atno 10167 bound_to 10162
  156.6617  130.9048  151.3030 H   0  0  0  0  0  0  0  0  0  0  0  0  # atno 10718 bound_to 10713
  154.8722  135.4065  154.3100 H   0  0  0  0  0  0  0  0  0  0  0  0  # atno 10763 bound_to 10752
  153.3945  135.7016  153.6476 H   0  0  0  0  0  0  0  0  0  0  0  0  # atno 10764 bound_to 10752
  153.5245  135.3680  155.2618 H   0  0  0  0  0  0  0  0  0  0  0  0  # atno 10765 bound_to 10752
  139.9084  134.8026  156.2094 H   0  0  0  0  0  0  0  0  0  0  0  0  # atno 11005 bound_to 11000
  144.8076  140.6328  143.6436 LP  0  0  0  0  0  0  0  0  0  0  0  0  # atno 17320 bound_to 7965
  145.4497  139.1525  143.3925 LP  0  0  0  0  0  0  0  0  0  0  0  0  # atno 17321 bound_to 7965
  140.4278  144.2156  150.5887 LP  0  0  0  0  0  0  0  0  0  0  0  0  # atno 17342 bound_to 10162
  140.4809  143.2379  151.8956 LP  0  0  0  0  0  0  0  0  0  0  0  0  # atno 17343 bound_to 10162
  157.7107  130.9437  150.1080 LP  0  0  0  0  0  0  0  0  0  0  0  0  # atno 17370 bound_to 10713
  156.2006  130.3660  149.8793 LP  0  0  0  0  0  0  0  0  0  0  0  0  # atno 17371 bound_to 10713
  141.0475  133.6906  156.1710 LP  0  0  0  0  0  0  0  0  0  0  0  0  # atno 17394 bound_to 11000
  140.6861  134.4715  157.5589 LP  0  0  0  0  0  0  0  0  0  0  0  0  # atno 17395 bound_to 11000

$$$$
