AV-unprocessed.smi:3253|AV-procd|sdf|12447|dock6
  -GOLD-   2272018343D 1   1.00000     0.00000
 Structure written by MMmdl.
 37 38  0  0  0  0  0  0  0  0  2 V2000
  145.4252  130.7847  160.0384 C   0  0  0  0  0  0  0  0  0  0  0  0
  144.2529  131.2088  160.9377 C   0  0  2  0  0  0  0  0  0  0  0  0
  143.0106  131.6602  160.1377 C   0  0  0  0  0  0  0  0  0  0  0  0
  142.4866  130.6105  159.2594 N   0  0  0  0  0  0  0  0  0  0  0  0
  141.6682  129.5646  159.6021 C   0  0  0  0  0  0  0  0  0  0  0  0
  141.4463  128.8502  158.4528 C   0  0  0  0  0  0  0  0  0  0  0  0
  142.1422  129.4865  157.4597 N   0  3  0  0  0  0  0  0  0  0  0  0
  142.7764  130.5551  157.9530 C   0  0  0  0  0  0  0  0  0  0  0  0
  144.6957  132.2733  161.8333 N   0  0  0  0  0  0  0  0  0  0  0  0
  145.2339  133.4392  161.4424 C   0  0  0  0  0  0  0  0  0  0  0  0
  145.4293  133.7286  160.2611 O   0  0  0  0  0  0  0  0  0  0  0  0
  145.6092  134.4301  162.5554 C   0  0  1  0  0  0  0  0  0  0  0  0
  147.0542  134.9433  162.3885 C   0  0  0  0  0  0  0  0  0  0  0  0
  146.8861  136.4146  162.0478 C   0  0  0  0  0  0  0  0  0  0  0  0
  147.8305  137.1430  161.7469 O   0  0  0  0  0  0  0  0  0  0  0  0
  145.6020  136.7770  162.1144 N   0  0  0  0  0  0  0  0  0  0  0  0
  145.0782  138.1082  161.8404 C   0  0  0  0  0  0  0  0  0  0  0  0
  144.7266  135.6981  162.5393 C   0  0  0  0  0  0  0  0  0  0  0  0
  145.1642  129.9268  159.4185 H   0  0  0  0  0  0  0  0  0  0  0  0
  146.2929  130.4990  160.6343 H   0  0  0  0  0  0  0  0  0  0  0  0
  145.7294  131.5951  159.3749 H   0  0  0  0  0  0  0  0  0  0  0  0
  143.9813  130.3442  161.5469 H   0  0  0  0  0  0  0  0  0  0  0  0
  142.2022  131.9607  160.8062 H   0  0  0  0  0  0  0  0  0  0  0  0
  143.2466  132.5277  159.5196 H   0  0  0  0  0  0  0  0  0  0  0  0
  141.3112  129.4119  160.6105 H   0  0  0  0  0  0  0  0  0  0  0  0
  140.8619  127.9597  158.2724 H   0  0  0  0  0  0  0  0  0  0  0  0
  143.3980  131.2405  157.4041 H   0  0  0  0  0  0  0  0  0  0  0  0
  144.5726  132.1178  162.8237 H   0  0  0  0  0  0  0  0  0  0  0  0
  145.5069  133.9331  163.5219 H   0  0  0  0  0  0  0  0  0  0  0  0
  147.6152  134.8478  163.3186 H   0  0  0  0  0  0  0  0  0  0  0  0
  147.6142  134.4321  161.6034 H   0  0  0  0  0  0  0  0  0  0  0  0
  145.5178  138.8401  162.5189 H   0  0  0  0  0  0  0  0  0  0  0  0
  143.9953  138.1379  161.9659 H   0  0  0  0  0  0  0  0  0  0  0  0
  145.3085  138.4057  160.8167 H   0  0  0  0  0  0  0  0  0  0  0  0
  143.8692  135.6152  161.8687 H   0  0  0  0  0  0  0  0  0  0  0  0
  144.3432  135.9163  163.5370 H   0  0  0  0  0  0  0  0  0  0  0  0
  142.1759  129.1916  156.4917 H   0  0  0  0  0  0  0  0  0  0  0  0
  1  2  1  0  0  0  0
  1 19  1  0  0  0  0
  1 20  1  0  0  0  0
  1 21  1  0  0  0  0
  2  3  1  0  0  0  0
  2  9  1  0  0  0  0
  2 22  1  0  0  0  0
  3  4  1  0  0  0  0
  3 23  1  0  0  0  0
  3 24  1  0  0  0  0
  4  8  1  0  0  0  0
  4  5  1  0  0  0  0
  5  6  2  0  0  0  0
  5 25  1  0  0  0  0
  6  7  1  0  0  0  0
  6 26  1  0  0  0  0
  7  8  2  0  0  0  0
  7 37  1  0  0  0  0
  8 27  1  0  0  0  0
  9 10  1  0  0  0  0
  9 28  1  0  0  0  0
 10 11  2  0  0  0  0
 10 12  1  0  0  0  0
 12 18  1  0  0  0  0
 12 13  1  0  0  0  0
 12 29  1  0  0  0  0
 13 14  1  0  0  0  0
 13 30  1  0  0  0  0
 13 31  1  0  0  0  0
 14 15  2  0  0  0  0
 14 16  1  0  0  0  0
 16 17  1  0  0  0  0
 16 18  1  0  0  0  0
 17 32  1  0  0  0  0
 17 33  1  0  0  0  0
 17 34  1  0  0  0  0
 18 35  1  0  0  0  0
 18 36  1  0  0  0  0
M  CHG  1   7   1
M  END
> <s_m_source_file>
AV-unprocessed.smi

> <i_m_source_file_index>
3253

> <i_lp_mmshare_version>
43012

> <i_f3d_flags>
0

> <s_epik_input>
W2NIXTFuW2NIXVtjSF1uMVtDSDJdW0NAQEhdKFtDSDNdKVtOSF1DKD1PKVtDQEBIXTJbQ0gyXUMoPU8pTihbQ0gzXSlbQ0gyXTI=

> <s_epik_cmdline>
J2VwaWtfcHl0aG9uJywgJy1waCcsICc3LjAnLCAnLXRuJywgJzgnLCAnLW1hJywgJzIwMCcsICctbWV0YWxfYmluZGluZycsICctaW1hZScsICc8aW5maWxlLm1hZT4nLCAnLW9tYWUnLCAnPG91dGZpbGUubWFlPic=

> <r_lp_tautomer_probability>
1

> <r_epik_Ionization_Penalty>
0.251561

> <r_epik_Ionization_Penalty_Charging>
0

> <r_epik_Ionization_Penalty_Neutral>
0.251561

> <r_epik_State_Penalty>
0.242926

> <r_epik_Charging_Adjusted_Penalty>
0.242926

> <i_epik_Tot_Q>
1

> <i_epik_Tot_abs_Q>
1

> <r_epik_Metal_State_Penalty>
0.533885

> <b_epik_Metal_Only>
0

> <s_lp_Force_Field>
OPLS_2005

> <r_lp_Energy>
14.6529

> <b_lp_Chiralities_Consistent>
1

> <s_lp_Variant>
AV-unprocessed.smi:3253-3

> <Gold.Version>
5.8.1

> <Gold.Id.Protein>
6NUR|6NUR_protein|mol2

> <Gold.PLP.Fitness>
44.2057

> <Gold.PLP.PLP>
-34.1294

> <Gold.PLP.part.hbond>
-3.7187

> <Gold.PLP.part.metal>
0.0000

> <Gold.PLP.part.buried>
-3.8250

> <Gold.PLP.part.nonpolar>
-24.6129

> <Gold.PLP.part.repulsive>
0.0278

> <Gold.PLP.ligand.clash>
0.0000

> <Gold.PLP.ligand.torsion>
0.4903

> <Gold.PLP.Chemscore.Hbond>
3.2373

> <Gold.PLP.Chemscore.CHOScore>
0.4377

> <Gold.PLP.Chemscore.Metal>
0.0000

> <Gold.Chemscore.Hbonds>
donor molecule, donor type, donor heavy atom, donor atom, acceptor molecule, acceptor atom, score
      L1  H     7    37       P1 10956  1.52
      P1  H  6931  6943       L1    15  1.00
      P1  H  6934  6947       L1    15  0.48
      L1  C     8    27       P1 10957  0.44

> <Gold.PLP.Chemscore.Internal.Correction>
0.0319

> <Gold.Rescore>
     Score         DG    S(hbond)    S(metal)    S(lipo)     H(rot)  DE(clash)    DE(int)     intcor
     12.81     -14.16       2.46        0.00      48.59       2.03       0.01       1.34       ----

> <Gold.Chemscore.Fitness>
12.8109

> <Gold.Chemscore.DG>
-14.1622

> <Gold.Chemscore.ZeroCoef>
-5.4800

> <Gold.Chemscore.Hbond>
2.4564

> <Gold.Chemscore.Metal>
0.0000

> <Gold.Chemscore.Lipo>
48.5897

> <Gold.Chemscore.Internal_Hbond>
0.0000

> <Gold.Chemscore.DEClash>
0.0111

> <Gold.Chemscore.DEInternal>
1.3402

> <Gold.Chemscore.Rot>
2.0341

> <Gold.Chemscore.Internal.Correction>
   9.000000E+99

> <Gold.Chemscore.Hbonds>
donor molecule, donor type, donor heavy atom, donor atom, acceptor molecule, acceptor atom, score
      L1  H     7    37       P1 10956  0.17
      P1  H  6931  6943       L1    15  0.98
      P1  H  6934  6947       L1    15  0.41

> <Gold.Chemscore.Hbond.Weighted>
-8.2044

> <Gold.Chemscore.Metal.Weighted>
-0.0000

> <Gold.Chemscore.Lipo.Weighted>
-5.6850

> <Gold.Chemscore.Internal_Hbond.Weighted>
0.0000

> <Gold.Chemscore.DEClash.Weighted>
0.0111

> <Gold.Chemscore.DEInternal.Weighted>
1.3402

> <Gold.Chemscore.Rot.Weighted>
5.2072

> <Gold.Chemscore.Internal.Correction.Weighted>
   9.000000E+99

> <Gold.Protein.RotatedTorsions>
[ 6907 6896 6895 6894 ] final -106.19 input  -60.11 | X-H torsion
[ 7974 7965 7964 7962 ] final  178.26 input  175.53 | X-H torsion
[ 8008 7997 7996 7995 ] final   65.19 input   59.86 | X-H torsion
[ 10167 10162 10161 10158 ] final   48.52 input  -65.29 | X-H torsion
[ 10718 10713 10712 10709 ] final  -66.33 input   66.30 | X-H torsion
[ 10763 10752 10751 10750 ] final  -82.85 input  -60.55 | X-H torsion
[ 11005 11000 10999 10996 ] final  -24.74 input  -57.11 | X-H torsion

> <Gold.Protein.ActiveResidues>
 VAL166  LYS551  ARG553  GLY616  TRP617  ASP618  TYR619  PRO620  LYS621  CYS622 
 ASP623  PHE694  ASN695  SER759  ASP760  ASP761  ALA762  ILE779  LEU786  VAL792 
 PHE793  MET794  SER795  GLU796  ALA797  LYS798  CYS799  TRP800  GLU811  SER814 

> <Gold.Protein.RotatedAtoms>
  150.7376  134.0014  159.3639 H   0  0  0  0  0  0  0  0  0  0  0  0  # atno 6907 bound_to 6896
  151.7968  135.0718  160.0404 H   0  0  0  0  0  0  0  0  0  0  0  0  # atno 6908 bound_to 6896
  152.3169  133.5775  159.5754 H   0  0  0  0  0  0  0  0  0  0  0  0  # atno 6909 bound_to 6896
  144.7158  140.0371  143.6438 H   0  0  0  0  0  0  0  0  0  0  0  0  # atno 7974 bound_to 7965
  155.6578  140.3497  155.4771 H   0  0  0  0  0  0  0  0  0  0  0  0  # atno 8008 bound_to 7997
  155.9794  140.1171  157.0763 H   0  0  0  0  0  0  0  0  0  0  0  0  # atno 8009 bound_to 7997
  154.4187  140.1141  156.5400 H   0  0  0  0  0  0  0  0  0  0  0  0  # atno 8010 bound_to 7997
  140.2925  144.3030  150.6237 H   0  0  0  0  0  0  0  0  0  0  0  0  # atno 10167 bound_to 10162
  156.0619  130.4260  150.1693 H   0  0  0  0  0  0  0  0  0  0  0  0  # atno 10718 bound_to 10713
  154.5807  135.5577  153.7183 H   0  0  0  0  0  0  0  0  0  0  0  0  # atno 10763 bound_to 10752
  153.0080  135.6319  154.1986 H   0  0  0  0  0  0  0  0  0  0  0  0  # atno 10764 bound_to 10752
  154.1927  135.2881  155.2997 H   0  0  0  0  0  0  0  0  0  0  0  0  # atno 10765 bound_to 10752
  140.8873  133.7612  156.0377 H   0  0  0  0  0  0  0  0  0  0  0  0  # atno 11005 bound_to 11000
  146.0054  139.3126  143.0902 LP  0  0  0  0  0  0  0  0  0  0  0  0  # atno 17320 bound_to 7965
  145.8744  140.9401  143.0634 LP  0  0  0  0  0  0  0  0  0  0  0  0  # atno 17321 bound_to 7965
  140.5720  143.2180  151.7581 LP  0  0  0  0  0  0  0  0  0  0  0  0  # atno 17342 bound_to 10162
  139.4934  144.4202  151.9985 LP  0  0  0  0  0  0  0  0  0  0  0  0  # atno 17343 bound_to 10162
  156.9760  130.9849  151.3448 LP  0  0  0  0  0  0  0  0  0  0  0  0  # atno 17370 bound_to 10713
  157.5633  130.8260  149.8294 LP  0  0  0  0  0  0  0  0  0  0  0  0  # atno 17371 bound_to 10713
  140.8389  134.3090  157.5321 LP  0  0  0  0  0  0  0  0  0  0  0  0  # atno 17394 bound_to 11000
  139.8726  134.9405  156.3771 LP  0  0  0  0  0  0  0  0  0  0  0  0  # atno 17395 bound_to 11000

$$$$
