AV-unprocessed.smi:2546|AV-procd|sdf|9998|dock2
  -GOLD-   2272014 43D 1   1.00000     0.00000
 Structure written by MMmdl.
 17 17  0  0  0  0  0  0  0  0  2 V2000
  143.2893  133.7178  147.9756 N   0  3  0  0  0  0  0  0  0  0  0  0
  143.4441  132.4042  148.6229 C   0  0  0  0  0  0  0  0  0  0  0  0
  144.6792  132.3700  149.5337 C   0  0  0  0  0  0  0  0  0  0  0  0
  144.8928  133.6609  150.2544 C   0  0  0  0  0  0  0  0  0  0  0  0
  143.9013  134.5221  150.4912 N   0  0  0  0  0  0  0  0  0  0  0  0
  144.3920  135.5973  151.1424 N   0  0  0  0  0  0  0  0  0  0  0  0
  145.6839  135.2933  151.2507 C   0  0  0  0  0  0  0  0  0  0  0  0
  146.0622  134.0954  150.7111 N   0  0  0  0  0  0  0  0  0  0  0  0
  142.9266  134.4259  150.2437 H   0  0  0  0  0  0  0  0  0  0  0  0
  144.1699  134.2119  148.0032 H   0  0  0  0  0  0  0  0  0  0  0  0
  142.5871  134.2557  148.4631 H   0  0  0  0  0  0  0  0  0  0  0  0
  142.5422  132.1917  149.1983 H   0  0  0  0  0  0  0  0  0  0  0  0
  143.5212  131.6392  147.8496 H   0  0  0  0  0  0  0  0  0  0  0  0
  144.5842  131.5672  150.2664 H   0  0  0  0  0  0  0  0  0  0  0  0
  145.5725  132.1515  148.9469 H   0  0  0  0  0  0  0  0  0  0  0  0
  146.3820  135.9606  151.7345 H   0  0  0  0  0  0  0  0  0  0  0  0
  143.0076  133.5884  147.0142 H   0  0  0  0  0  0  0  0  0  0  0  0
  1  2  1  0  0  0  0
  1 10  1  0  0  0  0
  1 11  1  0  0  0  0
  1 17  1  0  0  0  0
  2  3  1  0  0  0  0
  2 12  1  0  0  0  0
  2 13  1  0  0  0  0
  3 14  1  0  0  0  0
  3 15  1  0  0  0  0
  3  4  1  0  0  0  0
  4  8  2  0  0  0  0
  4  5  1  0  0  0  0
  5  9  1  0  0  0  0
  5  6  1  0  0  0  0
  6  7  2  0  0  0  0
  7  8  1  0  0  0  0
  7 16  1  0  0  0  0
M  CHG  1   1   1
M  END
> <s_m_source_file>
AV-unprocessed.smi

> <i_m_source_file_index>
2546

> <i_lp_mmshare_version>
43012

> <i_f3d_flags>
0

> <s_epik_input>
W05IMl1bQ0gyXVtDSDJdYzFubltjSF1bbkhdMQ==

> <s_epik_cmdline>
J2VwaWtfcHl0aG9uJywgJy1waCcsICc3LjAnLCAnLXRuJywgJzgnLCAnLW1hJywgJzIwMCcsICctbWV0YWxfYmluZGluZycsICctaW1hZScsICc8aW5maWxlLm1hZT4nLCAnLW9tYWUnLCAnPG91dGZpbGUubWFlPic=

> <r_epik_Ionization_Penalty>
0.0150954

> <r_epik_Ionization_Penalty_Charging>
0.00465044

> <r_epik_Ionization_Penalty_Neutral>
0.0104449

> <r_epik_State_Penalty>
0.423825

> <r_epik_Charging_Adjusted_Penalty>
0.428475

> <i_epik_Tot_Q>
1

> <i_epik_Tot_abs_Q>
1

> <r_epik_Metal_State_Penalty>
0.652581

> <b_epik_Metal_Only>
0

> <s_lp_Force_Field>
OPLS_2005

> <r_lp_Energy>
2.95298

> <b_lp_Chiralities_Consistent>
1

> <s_lp_Variant>
AV-unprocessed.smi:2546-2

> <Gold.Version>
5.8.1

> <Gold.Id.Protein>
6NUR|6NUR_protein|mol2

> <Gold.PLP.Fitness>
33.0487

> <Gold.PLP.PLP>
-16.3267

> <Gold.PLP.part.hbond>
-3.9537

> <Gold.PLP.part.metal>
0.0000

> <Gold.PLP.part.buried>
-2.5162

> <Gold.PLP.part.nonpolar>
-11.6404

> <Gold.PLP.part.repulsive>
0.8673

> <Gold.PLP.ligand.clash>
0.0000

> <Gold.PLP.ligand.torsion>
0.4601

> <Gold.PLP.Chemscore.Hbond>
4.9753

> <Gold.PLP.Chemscore.CHOScore>
0.9053

> <Gold.PLP.Chemscore.Metal>
0.0000

> <Gold.Chemscore.Hbonds>
donor molecule, donor type, donor heavy atom, donor atom, acceptor molecule, acceptor atom, score
      L1  H     1    10       P1  7921  0.91
      L1  H     1    11       P1 10186  2.00
      L1  H     1    17       P1 10195  1.00
      L1  H     5     9       P1 10186  0.99
      L1  C     7    16       P1  7948  0.93

> <Gold.PLP.Chemscore.Internal.Correction>
0.0005

> <Gold.Rescore>
     Score         DG    S(hbond)    S(metal)    S(lipo)     H(rot)  DE(clash)    DE(int)     intcor
     15.18     -17.12       3.86        0.00      25.82       1.67       0.13       1.81       ----

> <Gold.Chemscore.Fitness>
15.1806

> <Gold.Chemscore.DG>
-17.1210

> <Gold.Chemscore.ZeroCoef>
-5.4800

> <Gold.Chemscore.Hbond>
3.8591

> <Gold.Chemscore.Metal>
0.0000

> <Gold.Chemscore.Lipo>
25.8238

> <Gold.Chemscore.Internal_Hbond>
0.0000

> <Gold.Chemscore.DEClash>
0.1334

> <Gold.Chemscore.DEInternal>
1.8070

> <Gold.Chemscore.Rot>
1.6679

> <Gold.Chemscore.Internal.Correction>
   9.000000E+99

> <Gold.Chemscore.Hbonds>
donor molecule, donor type, donor heavy atom, donor atom, acceptor molecule, acceptor atom, score
      L1  H     1    10       P1  7921  0.88
      L1  H     1    11       P1 10186  0.97
      L1  H     1    17       P1 10195  0.98
      L1  H     5     9       P1 10186  0.72

> <Gold.Chemscore.Hbond.Weighted>
-12.8893

> <Gold.Chemscore.Metal.Weighted>
-0.0000

> <Gold.Chemscore.Lipo.Weighted>
-3.0214

> <Gold.Chemscore.Internal_Hbond.Weighted>
0.0000

> <Gold.Chemscore.DEClash.Weighted>
0.1334

> <Gold.Chemscore.DEInternal.Weighted>
1.8070

> <Gold.Chemscore.Rot.Weighted>
4.2697

> <Gold.Chemscore.Internal.Correction.Weighted>
   9.000000E+99

> <Gold.Protein.RotatedTorsions>
[ 6907 6896 6895 6894 ] final -173.23 input  -60.11 | X-H torsion
[ 7974 7965 7964 7962 ] final -157.14 input  175.53 | X-H torsion
[ 8008 7997 7996 7995 ] final  -55.40 input   59.86 | X-H torsion
[ 10167 10162 10161 10158 ] final -147.15 input  -65.29 | X-H torsion
[ 10718 10713 10712 10709 ] final  -81.39 input   66.30 | X-H torsion
[ 10763 10752 10751 10750 ] final  -30.03 input  -60.55 | X-H torsion
[ 11005 11000 10999 10996 ] final   53.32 input  -57.11 | X-H torsion

> <Gold.Protein.ActiveResidues>
 VAL166  LYS551  ARG553  GLY616  TRP617  ASP618  TYR619  PRO620  LYS621  CYS622 
 ASP623  PHE694  ASN695  SER759  ASP760  ASP761  ALA762  ILE779  LEU786  VAL792 
 PHE793  MET794  SER795  GLU796  ALA797  LYS798  CYS799  TRP800  GLU811  SER814 

> <Gold.Protein.RotatedAtoms>
  151.5528  133.3415  159.2956 H   0  0  0  0  0  0  0  0  0  0  0  0  # atno 6907 bound_to 6896
  150.8468  134.7783  159.6988 H   0  0  0  0  0  0  0  0  0  0  0  0  # atno 6908 bound_to 6896
  152.4524  134.5373  159.9880 H   0  0  0  0  0  0  0  0  0  0  0  0  # atno 6909 bound_to 6896
  144.7561  140.4010  143.6011 H   0  0  0  0  0  0  0  0  0  0  0  0  # atno 7974 bound_to 7965
  154.4194  140.1154  156.5470 H   0  0  0  0  0  0  0  0  0  0  0  0  # atno 8008 bound_to 7997
  155.6449  140.3496  155.4708 H   0  0  0  0  0  0  0  0  0  0  0  0  # atno 8009 bound_to 7997
  155.9840  140.1166  157.0689 H   0  0  0  0  0  0  0  0  0  0  0  0  # atno 8010 bound_to 7997
  139.7648  143.8323  152.2614 H   0  0  0  0  0  0  0  0  0  0  0  0  # atno 10167 bound_to 10162
  156.0051  130.4602  150.3945 H   0  0  0  0  0  0  0  0  0  0  0  0  # atno 10718 bound_to 10713
  153.7743  135.6910  153.4900 H   0  0  0  0  0  0  0  0  0  0  0  0  # atno 10763 bound_to 10752
  153.1853  135.4491  155.0080 H   0  0  0  0  0  0  0  0  0  0  0  0  # atno 10764 bound_to 10752
  154.8106  135.3376  154.7250 H   0  0  0  0  0  0  0  0  0  0  0  0  # atno 10765 bound_to 10752
  140.0777  134.5382  155.8979 H   0  0  0  0  0  0  0  0  0  0  0  0  # atno 11005 bound_to 11000
  145.6774  139.1611  143.2720 LP  0  0  0  0  0  0  0  0  0  0  0  0  # atno 17320 bound_to 7965
  146.1573  140.6839  142.9294 LP  0  0  0  0  0  0  0  0  0  0  0  0  # atno 17321 bound_to 7965
  139.8340  144.7241  150.9414 LP  0  0  0  0  0  0  0  0  0  0  0  0  # atno 17342 bound_to 10162
  140.7810  143.4044  151.1096 LP  0  0  0  0  0  0  0  0  0  0  0  0  # atno 17343 bound_to 10162
  157.2018  131.0440  151.2646 LP  0  0  0  0  0  0  0  0  0  0  0  0  # atno 17370 bound_to 10713
  157.3969  130.7312  149.6738 LP  0  0  0  0  0  0  0  0  0  0  0  0  # atno 17371 bound_to 10713
  141.2035  133.6632  156.6068 LP  0  0  0  0  0  0  0  0  0  0  0  0  # atno 17394 bound_to 11000
  140.3534  134.7749  157.4483 LP  0  0  0  0  0  0  0  0  0  0  0  0  # atno 17395 bound_to 11000

$$$$
