AV-unprocessed.smi:680|AV-procd|sdf|3324|dock5
  -GOLD-   22720 0293D 1   1.00000     0.00000
 Structure written by MMmdl.
 32 33  0  0  0  0  0  0  0  0  1 V2000
  150.3211  141.9101  155.9722 C   0  0  0  0  0  0  0  0  0  0  0  0
  150.0496  140.6620  155.1853 C   0  0  0  0  0  0  0  0  0  0  0  0
  148.7955  140.1411  154.7615 C   0  0  0  0  0  0  0  0  0  0  0  0
  149.1512  138.9993  154.0943 C   0  0  0  0  0  0  0  0  0  0  0  0
  148.3460  138.0934  153.4806 N   0  0  0  0  0  0  0  0  0  0  0  0
  147.0049  137.9970  153.5127 C   0  0  0  0  0  0  0  0  0  0  0  0
  146.2496  138.7456  154.1329 O   0  0  0  0  0  0  0  0  0  0  0  0
  146.5788  136.9676  152.7661 N   0  0  0  0  0  0  0  0  0  0  0  0
  145.1837  136.5877  152.5570 C   0  0  0  0  0  0  0  0  0  0  0  0
  145.0629  135.2792  151.7522 C   0  0  1  0  0  0  0  0  0  0  0  0
  146.2331  134.3296  152.0671 C   0  0  0  0  0  0  0  0  0  0  0  0
  146.3364  132.9497  150.8923 S   0  0  0  0  0  0  0  0  0  0  0  0
  144.7411  132.1488  151.2107 C   0  0  0  0  0  0  0  0  0  0  0  0
  143.5631  133.0818  150.9060 C   0  0  0  0  0  0  0  0  0  0  0  0
  143.4698  134.4602  152.0816 S   0  0  0  0  0  0  0  0  0  0  0  0
  150.4949  138.8234  154.1042 O   0  0  0  0  0  0  0  0  0  0  0  0
  151.0608  139.8956  154.8040 N   0  0  0  0  0  0  0  0  0  0  0  0
  149.3950  142.4332  156.2115 H   0  0  0  0  0  0  0  0  0  0  0  0
  150.9556  142.5980  155.4126 H   0  0  0  0  0  0  0  0  0  0  0  0
  150.8238  141.6803  156.9119 H   0  0  0  0  0  0  0  0  0  0  0  0
  147.8115  140.5512  154.9312 H   0  0  0  0  0  0  0  0  0  0  0  0
  148.8257  137.4094  152.9144 H   0  0  0  0  0  0  0  0  0  0  0  0
  147.2734  136.4085  152.2925 H   0  0  0  0  0  0  0  0  0  0  0  0
  144.7373  136.4561  153.5430 H   0  0  0  0  0  0  0  0  0  0  0  0
  144.6144  137.3819  152.0710 H   0  0  0  0  0  0  0  0  0  0  0  0
  145.0955  135.5288  150.6907 H   0  0  0  0  0  0  0  0  0  0  0  0
  147.1786  134.8698  152.0127 H   0  0  0  0  0  0  0  0  0  0  0  0
  146.1524  133.9383  153.0819 H   0  0  0  0  0  0  0  0  0  0  0  0
  144.6785  131.2597  150.5831 H   0  0  0  0  0  0  0  0  0  0  0  0
  144.7057  131.8095  152.2465 H   0  0  0  0  0  0  0  0  0  0  0  0
  143.6333  133.4738  149.8909 H   0  0  0  0  0  0  0  0  0  0  0  0
  142.6285  132.5242  150.9666 H   0  0  0  0  0  0  0  0  0  0  0  0
  1  2  1  0  0  0  0
  1 18  1  0  0  0  0
  1 19  1  0  0  0  0
  1 20  1  0  0  0  0
  2 17  2  0  0  0  0
  2  3  1  0  0  0  0
  3  4  2  0  0  0  0
  3 21  1  0  0  0  0
  4  5  1  0  0  0  0
  4 16  1  0  0  0  0
  5  6  1  0  0  0  0
  5 22  1  0  0  0  0
  6  7  2  0  0  0  0
  6  8  1  0  0  0  0
  8  9  1  0  0  0  0
  8 23  1  0  0  0  0
  9 10  1  0  0  0  0
  9 24  1  0  0  0  0
  9 25  1  0  0  0  0
 10 15  1  0  0  0  0
 10 11  1  0  0  0  0
 10 26  1  0  0  0  0
 11 12  1  0  0  0  0
 11 27  1  0  0  0  0
 11 28  1  0  0  0  0
 12 13  1  0  0  0  0
 13 14  1  0  0  0  0
 13 29  1  0  0  0  0
 13 30  1  0  0  0  0
 14 15  1  0  0  0  0
 14 31  1  0  0  0  0
 14 32  1  0  0  0  0
 16 17  1  0  0  0  0
M  END
> <s_m_source_file>
AV-unprocessed.smi

> <i_m_source_file_index>
680

> <i_lp_mmshare_version>
43012

> <i_f3d_flags>
0

> <s_epik_input>
W0NIM11jMVtjSF1jKG9uMSlbTkhdQyg9TylbTkhdW0NIMl1bQ0BASF0yW0NIMl1TW0NIMl1bQ0gyXVMy

> <s_epik_cmdline>
J2VwaWtfcHl0aG9uJywgJy1waCcsICc3LjAnLCAnLXRuJywgJzgnLCAnLW1hJywgJzIwMCcsICctbWV0YWxfYmluZGluZycsICctaW1hZScsICc8aW5maWxlLm1hZT4nLCAnLW9tYWUnLCAnPG91dGZpbGUubWFlPic=

> <r_epik_Ionization_Penalty>
0.000554698

> <r_epik_Ionization_Penalty_Charging>
0

> <r_epik_Ionization_Penalty_Neutral>
0.000554698

> <r_epik_State_Penalty>
0.000333438

> <r_epik_Charging_Adjusted_Penalty>
0.000333438

> <i_epik_Tot_Q>
0

> <i_epik_Tot_abs_Q>
0

> <r_epik_Metal_State_Penalty>
-0

> <b_epik_Metal_Only>
0

> <s_lp_Force_Field>
OPLS_2005

> <r_lp_Energy>
4.32293

> <b_lp_Chiralities_Consistent>
1

> <s_lp_Variant>
AV-unprocessed.smi:680-2

> <Gold.Version>
5.8.1

> <Gold.Id.Protein>
6NUR|6NUR_protein|mol2

> <Gold.PLP.Fitness>
35.8390

> <Gold.PLP.PLP>
-27.5938

> <Gold.PLP.part.hbond>
-3.2495

> <Gold.PLP.part.metal>
0.0000

> <Gold.PLP.part.buried>
-1.6413

> <Gold.PLP.part.nonpolar>
-23.0639

> <Gold.PLP.part.repulsive>
0.4691

> <Gold.PLP.ligand.clash>
0.0000

> <Gold.PLP.ligand.torsion>
0.3188

> <Gold.PLP.Chemscore.Hbond>
2.9600

> <Gold.PLP.Chemscore.CHOScore>
0.0000

> <Gold.PLP.Chemscore.Metal>
0.0000

> <Gold.Chemscore.Hbonds>
donor molecule, donor type, donor heavy atom, donor atom, acceptor molecule, acceptor atom, score
      L1  H     5    22       P1  7948  1.00
      L1  H     8    23       P1  7948  0.94
      P1  H  7989  7998       L1    17  0.95

> <Gold.PLP.Chemscore.Internal.Correction>
0.0029

> <Gold.Rescore>
     Score         DG    S(hbond)    S(metal)    S(lipo)     H(rot)  DE(clash)    DE(int)     intcor
     14.83     -16.29       1.98        0.00      63.57       1.26       0.09       1.38       ----

> <Gold.Chemscore.Fitness>
14.8274

> <Gold.Chemscore.DG>
-16.2941

> <Gold.Chemscore.ZeroCoef>
-5.4800

> <Gold.Chemscore.Hbond>
1.9759

> <Gold.Chemscore.Metal>
0.0000

> <Gold.Chemscore.Lipo>
63.5707

> <Gold.Chemscore.Internal_Hbond>
0.0000

> <Gold.Chemscore.DEClash>
0.0893

> <Gold.Chemscore.DEInternal>
1.3774

> <Gold.Chemscore.Rot>
1.2590

> <Gold.Chemscore.Internal.Correction>
   9.000000E+99

> <Gold.Chemscore.Hbonds>
donor molecule, donor type, donor heavy atom, donor atom, acceptor molecule, acceptor atom, score
      L1  H     5    22       P1  7948  0.96
      L1  H     8    23       P1  7948  0.92
      P1  H  7989  7998       L1    17  0.06

> <Gold.Chemscore.Hbond.Weighted>
-6.5995

> <Gold.Chemscore.Metal.Weighted>
-0.0000

> <Gold.Chemscore.Lipo.Weighted>
-7.4378

> <Gold.Chemscore.Internal_Hbond.Weighted>
0.0000

> <Gold.Chemscore.DEClash.Weighted>
0.0893

> <Gold.Chemscore.DEInternal.Weighted>
1.3774

> <Gold.Chemscore.Rot.Weighted>
3.2232

> <Gold.Chemscore.Internal.Correction.Weighted>
   9.000000E+99

> <Gold.Protein.RotatedTorsions>
[ 6907 6896 6895 6894 ] final   93.56 input  -60.11 | X-H torsion
[ 7974 7965 7964 7962 ] final  152.59 input  175.53 | X-H torsion
[ 8008 7997 7996 7995 ] final  177.26 input   59.86 | X-H torsion
[ 10167 10162 10161 10158 ] final   76.25 input  -65.29 | X-H torsion
[ 10718 10713 10712 10709 ] final  -39.74 input   66.30 | X-H torsion
[ 10763 10752 10751 10750 ] final   98.80 input  -60.55 | X-H torsion
[ 11005 11000 10999 10996 ] final -133.41 input  -57.11 | X-H torsion

> <Gold.Protein.ActiveResidues>
 VAL166  LYS551  ARG553  GLY616  TRP617  ASP618  TYR619  PRO620  LYS621  CYS622 
 ASP623  PHE694  ASN695  SER759  ASP760  ASP761  ALA762  ILE779  LEU786  VAL792 
 PHE793  MET794  SER795  GLU796  ALA797  LYS798  CYS799  TRP800  GLU811  SER814 

> <Gold.Protein.RotatedAtoms>
  152.5452  134.1330  159.8446 H   0  0  0  0  0  0  0  0  0  0  0  0  # atno 6907 bound_to 6896
  151.1373  133.4988  159.2605 H   0  0  0  0  0  0  0  0  0  0  0  0  # atno 6908 bound_to 6896
  151.1610  135.0283  159.8765 H   0  0  0  0  0  0  0  0  0  0  0  0  # atno 6909 bound_to 6896
  144.8212  139.6688  143.6099 H   0  0  0  0  0  0  0  0  0  0  0  0  # atno 7974 bound_to 7965
  156.0676  140.1363  156.9867 H   0  0  0  0  0  0  0  0  0  0  0  0  # atno 8008 bound_to 7997
  154.4514  140.0978  156.6682 H   0  0  0  0  0  0  0  0  0  0  0  0  # atno 8009 bound_to 7997
  155.5279  140.3458  155.4422 H   0  0  0  0  0  0  0  0  0  0  0  0  # atno 8010 bound_to 7997
  139.9943  144.5734  150.7791 H   0  0  0  0  0  0  0  0  0  0  0  0  # atno 10167 bound_to 10162
  156.2891  130.4226  149.8257 H   0  0  0  0  0  0  0  0  0  0  0  0  # atno 10718 bound_to 10713
  153.2936  135.4135  155.1189 H   0  0  0  0  0  0  0  0  0  0  0  0  # atno 10763 bound_to 10752
  154.8528  135.3524  154.5948 H   0  0  0  0  0  0  0  0  0  0  0  0  # atno 10764 bound_to 10752
  153.6371  135.7058  153.5313 H   0  0  0  0  0  0  0  0  0  0  0  0  # atno 10765 bound_to 10752
  140.9083  134.1601  157.4409 H   0  0  0  0  0  0  0  0  0  0  0  0  # atno 11005 bound_to 11000
  146.2517  139.6215  142.9422 LP  0  0  0  0  0  0  0  0  0  0  0  0  # atno 17320 bound_to 7965
  145.5101  141.0435  143.2493 LP  0  0  0  0  0  0  0  0  0  0  0  0  # atno 17321 bound_to 7965
  140.7443  143.2859  151.3466 LP  0  0  0  0  0  0  0  0  0  0  0  0  # atno 17342 bound_to 10162
  139.6317  144.0707  152.2482 LP  0  0  0  0  0  0  0  0  0  0  0  0  # atno 17343 bound_to 10162
  156.5677  130.8411  151.3347 LP  0  0  0  0  0  0  0  0  0  0  0  0  # atno 17370 bound_to 10713
  157.7337  130.9734  150.1991 LP  0  0  0  0  0  0  0  0  0  0  0  0  # atno 17371 bound_to 10713
  139.8753  134.9925  156.5602 LP  0  0  0  0  0  0  0  0  0  0  0  0  # atno 17394 bound_to 11000
  140.8143  133.8404  155.8838 LP  0  0  0  0  0  0  0  0  0  0  0  0  # atno 17395 bound_to 11000

$$$$
