AV-unprocessed.smi:1128|AV-procd|sdf|4842|dock9
  -GOLD-   22720 3413D 1   1.00000     0.00000
 Structure written by MMmdl.
 38 39  0  0  0  0  0  0  0  0  1 V2000
  146.7244  139.9503  153.8391 O   0  0  0  0  0  0  0  0  0  0  0  0
  147.6164  139.2199  153.4093 C   0  0  0  0  0  0  0  0  0  0  0  0
  147.4274  138.3294  152.4247 N   0  0  0  0  0  0  0  0  0  0  0  0
  146.1678  138.0831  151.7280 C   0  0  0  0  0  0  0  0  0  0  0  0
  145.5820  136.6944  152.0550 C   0  0  2  0  0  0  0  0  0  0  0  0
  145.5571  135.7519  150.8278 C   0  0  0  0  0  0  0  0  0  0  0  0
  144.7319  134.4998  151.0659 C   0  0  0  0  0  0  0  0  0  0  0  0
  143.8693  134.3644  152.0868 C   0  0  0  0  0  0  0  0  0  0  0  0
  143.6160  135.4527  153.1129 C   0  0  0  0  0  0  0  0  0  0  0  0
  144.1724  136.8171  152.6652 C   0  0  0  0  0  0  0  0  0  0  0  0
  148.8903  139.1850  153.8429 N   0  0  0  0  0  0  0  0  0  0  0  0
  149.5222  139.9312  154.8535 C   0  0  0  0  0  0  0  0  0  0  0  0
  150.3071  139.4170  155.8371 C   0  0  0  0  0  0  0  0  0  0  0  0
  150.9303  140.2576  156.8459 C   0  0  0  0  0  0  0  0  0  0  0  0
  151.7609  139.6628  157.9726 C   0  0  0  0  0  0  0  0  0  0  0  0
  152.3011  140.6157  158.7336 F   0  0  0  0  0  0  0  0  0  0  0  0
  151.0156  138.8781  158.7510 F   0  0  0  0  0  0  0  0  0  0  0  0
  152.7484  138.9259  157.4664 F   0  0  0  0  0  0  0  0  0  0  0  0
  150.6696  141.5757  156.7745 C   0  0  0  0  0  0  0  0  0  0  0  0
  149.8677  142.1132  155.7657 N   0  0  0  0  0  0  0  0  0  0  0  0
  149.2733  141.3818  154.7968 C   0  0  0  0  0  0  0  0  0  0  0  0
  148.5782  141.9324  153.9436 O   0  0  0  0  0  0  0  0  0  0  0  0
  149.7286  143.1133  155.7738 H   0  0  0  0  0  0  0  0  0  0  0  0
  148.2174  137.7708  152.1367 H   0  0  0  0  0  0  0  0  0  0  0  0
  145.4688  138.8582  152.0431 H   0  0  0  0  0  0  0  0  0  0  0  0
  146.2821  138.2029  150.6492 H   0  0  0  0  0  0  0  0  0  0  0  0
  146.2208  136.2373  152.8129 H   0  0  0  0  0  0  0  0  0  0  0  0
  145.1427  136.2656  149.9597 H   0  0  0  0  0  0  0  0  0  0  0  0
  146.5717  135.4523  150.5641 H   0  0  0  0  0  0  0  0  0  0  0  0
  144.8566  133.6932  150.3584 H   0  0  0  0  0  0  0  0  0  0  0  0
  143.3239  133.4404  152.2109 H   0  0  0  0  0  0  0  0  0  0  0  0
  142.5444  135.5320  153.2976 H   0  0  0  0  0  0  0  0  0  0  0  0
  144.0784  135.1461  154.0516 H   0  0  0  0  0  0  0  0  0  0  0  0
  144.1822  137.4997  153.5156 H   0  0  0  0  0  0  0  0  0  0  0  0
  143.5006  137.2579  151.9273 H   0  0  0  0  0  0  0  0  0  0  0  0
  149.4906  138.5085  153.3941 H   0  0  0  0  0  0  0  0  0  0  0  0
  150.4978  138.3597  155.9076 H   0  0  0  0  0  0  0  0  0  0  0  0
  151.0448  142.3097  157.4725 H   0  0  0  0  0  0  0  0  0  0  0  0
  1  2  2  0  0  0  0
  2  3  1  0  0  0  0
  2 11  1  0  0  0  0
  3  4  1  0  0  0  0
  3 24  1  0  0  0  0
  4  5  1  0  0  0  0
  4 25  1  0  0  0  0
  4 26  1  0  0  0  0
  5 10  1  0  0  0  0
  5  6  1  0  0  0  0
  5 27  1  0  0  0  0
  6  7  1  0  0  0  0
  6 28  1  0  0  0  0
  6 29  1  0  0  0  0
  7  8  2  0  0  0  0
  7 30  1  0  0  0  0
  8  9  1  0  0  0  0
  8 31  1  0  0  0  0
  9 10  1  0  0  0  0
  9 32  1  0  0  0  0
  9 33  1  0  0  0  0
 10 34  1  0  0  0  0
 10 35  1  0  0  0  0
 11 12  1  0  0  0  0
 11 36  1  0  0  0  0
 12 21  1  0  0  0  0
 12 13  2  0  0  0  0
 13 14  1  0  0  0  0
 13 37  1  0  0  0  0
 14 15  1  0  0  0  0
 14 19  2  0  0  0  0
 15 16  1  0  0  0  0
 15 17  1  0  0  0  0
 15 18  1  0  0  0  0
 19 20  1  0  0  0  0
 19 38  1  0  0  0  0
 20 23  1  0  0  0  0
 20 21  1  0  0  0  0
 21 22  2  0  0  0  0
M  END
> <s_m_source_file>
AV-unprocessed.smi

> <i_m_source_file_index>
1128

> <i_lp_mmshare_version>
43012

> <i_f3d_flags>
0

> <s_epik_input>
Tz1jMVtuSF1bY0hdYyhDKEYpKEYpRilbY0hdYzFbTkhdQyg9TylbTkhdW0NIMl1bQ0BASF0yW0NIMl1bQ0hdPVtDSF1bQ0gyXVtDSDJdMg==

> <s_epik_cmdline>
J2VwaWtfcHl0aG9uJywgJy1waCcsICc3LjAnLCAnLXRuJywgJzgnLCAnLW1hJywgJzIwMCcsICctbWV0YWxfYmluZGluZycsICctaW1hZScsICc8aW5maWxlLm1hZT4nLCAnLW9tYWUnLCAnPG91dGZpbGUubWFlPic=

> <r_lp_tautomer_probability>
1

> <r_epik_Ionization_Penalty>
0.00381734

> <r_epik_Ionization_Penalty_Charging>
0.00379608

> <r_epik_Ionization_Penalty_Neutral>
2.12611e-05

> <r_epik_State_Penalty>
-0

> <r_epik_Charging_Adjusted_Penalty>
0.00379608

> <i_epik_Tot_Q>
0

> <i_epik_Tot_abs_Q>
0

> <r_epik_Metal_State_Penalty>
0.371155

> <b_epik_Metal_Only>
0

> <s_lp_Force_Field>
OPLS_2005

> <r_lp_Energy>
20.2087

> <b_lp_Chiralities_Consistent>
1

> <s_lp_Variant>
AV-unprocessed.smi:1128-1

> <Gold.Version>
5.8.1

> <Gold.Id.Protein>
6NUR|6NUR_protein|mol2

> <Gold.PLP.Fitness>
43.5720

> <Gold.PLP.PLP>
-39.6534

> <Gold.PLP.part.hbond>
-5.0000

> <Gold.PLP.part.metal>
0.0000

> <Gold.PLP.part.buried>
-1.9973

> <Gold.PLP.part.nonpolar>
-32.9873

> <Gold.PLP.part.repulsive>
0.6733

> <Gold.PLP.ligand.clash>
0.9317

> <Gold.PLP.ligand.torsion>
1.2885

> <Gold.PLP.Chemscore.Hbond>
2.4640

> <Gold.PLP.Chemscore.CHOScore>
0.0000

> <Gold.PLP.Chemscore.Metal>
0.0000

> <Gold.Chemscore.Hbonds>
donor molecule, donor type, donor heavy atom, donor atom, acceptor molecule, acceptor atom, score
      L1  H     3    24       P1  7948  1.00
      L1  H    20    23       P1  8028  1.00
      P1  H  8011  8017       L1    22  0.41

> <Gold.PLP.Chemscore.Internal.Correction>
0.0354

> <Gold.Rescore>
     Score         DG    S(hbond)    S(metal)    S(lipo)     H(rot)  DE(clash)    DE(int)     intcor
     13.75     -17.79       2.43        0.00      64.48       1.30       0.24       3.80       ----

> <Gold.Chemscore.Fitness>
13.7473

> <Gold.Chemscore.DG>
-17.7904

> <Gold.Chemscore.ZeroCoef>
-5.4800

> <Gold.Chemscore.Hbond>
2.4264

> <Gold.Chemscore.Metal>
0.0000

> <Gold.Chemscore.Lipo>
64.4778

> <Gold.Chemscore.Internal_Hbond>
0.0000

> <Gold.Chemscore.DEClash>
0.2391

> <Gold.Chemscore.DEInternal>
3.8040

> <Gold.Chemscore.Rot>
1.3038

> <Gold.Chemscore.Internal.Correction>
   9.000000E+99

> <Gold.Chemscore.Hbonds>
donor molecule, donor type, donor heavy atom, donor atom, acceptor molecule, acceptor atom, score
      L1  H     3    24       P1  7948  0.96
      L1  H    20    23       P1  8028  1.00
      P1  H  8011  8017       L1    22  0.28

> <Gold.Chemscore.Hbond.Weighted>
-8.1043

> <Gold.Chemscore.Metal.Weighted>
-0.0000

> <Gold.Chemscore.Lipo.Weighted>
-7.5439

> <Gold.Chemscore.Internal_Hbond.Weighted>
0.0000

> <Gold.Chemscore.DEClash.Weighted>
0.2391

> <Gold.Chemscore.DEInternal.Weighted>
3.8040

> <Gold.Chemscore.Rot.Weighted>
3.3377

> <Gold.Chemscore.Internal.Correction.Weighted>
   9.000000E+99

> <Gold.Protein.RotatedTorsions>
[ 6907 6896 6895 6894 ] final   76.91 input  -60.11 | X-H torsion
[ 7974 7965 7964 7962 ] final  -54.38 input  175.53 | X-H torsion
[ 8008 7997 7996 7995 ] final  -22.08 input   59.86 | X-H torsion
[ 10167 10162 10161 10158 ] final  -69.09 input  -65.29 | X-H torsion
[ 10718 10713 10712 10709 ] final  -89.69 input   66.30 | X-H torsion
[ 10763 10752 10751 10750 ] final  -14.75 input  -60.55 | X-H torsion
[ 11005 11000 10999 10996 ] final    2.85 input  -57.11 | X-H torsion

> <Gold.Protein.ActiveResidues>
 VAL166  LYS551  ARG553  GLY616  TRP617  ASP618  TYR619  PRO620  LYS621  CYS622 
 ASP623  PHE694  ASN695  SER759  ASP760  ASP761  ALA762  ILE779  LEU786  VAL792 
 PHE793  MET794  SER795  GLU796  ALA797  LYS798  CYS799  TRP800  GLU811  SER814 

> <Gold.Protein.RotatedAtoms>
  152.5094  134.3897  159.9379 H   0  0  0  0  0  0  0  0  0  0  0  0  # atno 6907 bound_to 6896
  151.3857  133.3800  159.2723 H   0  0  0  0  0  0  0  0  0  0  0  0  # atno 6908 bound_to 6896
  150.9471  134.8895  159.7707 H   0  0  0  0  0  0  0  0  0  0  0  0  # atno 6909 bound_to 6896
  145.8862  140.8106  142.9814 H   0  0  0  0  0  0  0  0  0  0  0  0  # atno 7974 bound_to 7965
  154.4665  140.2017  156.0104 H   0  0  0  0  0  0  0  0  0  0  0  0  # atno 8008 bound_to 7997
  156.0937  140.3254  155.7820 H   0  0  0  0  0  0  0  0  0  0  0  0  # atno 8009 bound_to 7997
  155.4914  140.0546  157.2944 H   0  0  0  0  0  0  0  0  0  0  0  0  # atno 8010 bound_to 7997
  140.5457  143.2313  151.7006 H   0  0  0  0  0  0  0  0  0  0  0  0  # atno 10167 bound_to 10162
  155.9985  130.4882  150.5210 H   0  0  0  0  0  0  0  0  0  0  0  0  # atno 10718 bound_to 10713
  153.5329  135.7014  153.5674 H   0  0  0  0  0  0  0  0  0  0  0  0  # atno 10763 bound_to 10752
  153.3673  135.3954  155.1763 H   0  0  0  0  0  0  0  0  0  0  0  0  # atno 10764 bound_to 10752
  154.8682  135.3803  154.4828 H   0  0  0  0  0  0  0  0  0  0  0  0  # atno 10765 bound_to 10752
  140.5997  133.9847  155.8126 H   0  0  0  0  0  0  0  0  0  0  0  0  # atno 11005 bound_to 11000
  144.6728  140.1459  143.7433 LP  0  0  0  0  0  0  0  0  0  0  0  0  # atno 17320 bound_to 7965
  145.8964  139.2405  143.1519 LP  0  0  0  0  0  0  0  0  0  0  0  0  # atno 17321 bound_to 7965
  139.5006  144.3898  152.0291 LP  0  0  0  0  0  0  0  0  0  0  0  0  # atno 17342 bound_to 10162
  140.3011  144.3646  150.6060 LP  0  0  0  0  0  0  0  0  0  0  0  0  # atno 17343 bound_to 10162
  157.3171  131.0675  151.1959 LP  0  0  0  0  0  0  0  0  0  0  0  0  # atno 17370 bound_to 10713
  157.2885  130.6784  149.6102 LP  0  0  0  0  0  0  0  0  0  0  0  0  # atno 17371 bound_to 10713
  141.0880  133.9960  157.3282 LP  0  0  0  0  0  0  0  0  0  0  0  0  # atno 17394 bound_to 11000
  139.9238  135.0201  156.8160 LP  0  0  0  0  0  0  0  0  0  0  0  0  # atno 17395 bound_to 11000

$$$$
