AV-unprocessed.smi:813|AV-procd|sdf|3817|dock1
  -GOLD-   22720 1253D 1   1.00000     0.00000
 Structure written by MMmdl.
 36 37  0  0  0  0  0  0  0  0  1 V2000
  148.4629  141.9359  154.3263 C   0  0  0  0  0  0  0  0  0  0  0  0
  148.4851  141.4254  155.7765 C   0  0  2  0  0  0  0  0  0  0  0  0
  147.6274  142.2976  156.5783 N   0  0  0  0  0  0  0  0  0  0  0  0
  147.2429  142.0571  157.8410 C   0  0  0  0  0  0  0  0  0  0  0  0
  147.5522  141.0396  158.4620 O   0  0  0  0  0  0  0  0  0  0  0  0
  146.4939  143.0652  158.3209 N   0  0  0  0  0  0  0  0  0  0  0  0
  145.9193  143.1977  159.6127 C   0  0  0  0  0  0  0  0  0  0  0  0
  146.5282  142.8050  160.7427 N   0  0  0  0  0  0  0  0  0  0  0  0
  145.7484  143.0507  161.8656 N   0  0  0  0  0  0  0  0  0  0  0  0
  144.5838  143.6179  161.5386 C   0  0  0  0  0  0  0  0  0  0  0  0
  144.3251  143.9067  159.8267 S   0  0  0  0  0  0  0  0  0  0  0  0
  149.9361  141.4743  156.2820 C   0  0  0  0  0  0  0  0  0  0  0  0
  150.6330  140.4579  156.2914 O   0  0  0  0  0  0  0  0  0  0  0  0
  150.3719  142.6685  156.7101 N   0  0  0  0  0  0  0  0  0  0  0  0
  151.7172  142.9409  157.2072 C   0  0  0  0  0  0  0  0  0  0  0  0
  151.9735  142.1784  158.5194 C   0  0  0  0  0  0  0  0  0  0  0  0
  151.9488  143.2311  159.6275 C   0  0  0  0  0  0  0  0  0  0  0  0
  152.4804  144.4918  158.9529 C   0  0  0  0  0  0  0  0  0  0  0  0
  151.9055  144.4366  157.5363 C   0  0  0  0  0  0  0  0  0  0  0  0
  149.0910  141.3215  153.6797 H   0  0  0  0  0  0  0  0  0  0  0  0
  148.8161  142.9658  154.2521 H   0  0  0  0  0  0  0  0  0  0  0  0
  147.4519  141.9042  153.9189 H   0  0  0  0  0  0  0  0  0  0  0  0
  148.1081  140.4011  155.8102 H   0  0  0  0  0  0  0  0  0  0  0  0
  147.3313  143.1603  156.1463 H   0  0  0  0  0  0  0  0  0  0  0  0
  146.3257  143.8364  157.6921 H   0  0  0  0  0  0  0  0  0  0  0  0
  143.8720  143.8687  162.3112 H   0  0  0  0  0  0  0  0  0  0  0  0
  149.7332  143.4494  156.6695 H   0  0  0  0  0  0  0  0  0  0  0  0
  152.4529  142.6210  156.4666 H   0  0  0  0  0  0  0  0  0  0  0  0
  151.2605  141.3730  158.7007 H   0  0  0  0  0  0  0  0  0  0  0  0
  152.9647  141.7243  158.4815 H   0  0  0  0  0  0  0  0  0  0  0  0
  150.9218  143.3952  159.9569 H   0  0  0  0  0  0  0  0  0  0  0  0
  152.5369  142.9393  160.4978 H   0  0  0  0  0  0  0  0  0  0  0  0
  152.2012  145.4023  159.4837 H   0  0  0  0  0  0  0  0  0  0  0  0
  153.5696  144.4521  158.9091 H   0  0  0  0  0  0  0  0  0  0  0  0
  152.5525  144.9369  156.8152 H   0  0  0  0  0  0  0  0  0  0  0  0
  150.9469  144.9581  157.5219 H   0  0  0  0  0  0  0  0  0  0  0  0
  1  2  1  0  0  0  0
  1 20  1  0  0  0  0
  1 21  1  0  0  0  0
  1 22  1  0  0  0  0
  2  3  1  0  0  0  0
  2 12  1  0  0  0  0
  2 23  1  0  0  0  0
  3  4  1  0  0  0  0
  3 24  1  0  0  0  0
  4  5  2  0  0  0  0
  4  6  1  0  0  0  0
  6  7  1  0  0  0  0
  6 25  1  0  0  0  0
  7 11  1  0  0  0  0
  7  8  2  0  0  0  0
  8  9  1  0  0  0  0
  9 10  2  0  0  0  0
 10 11  1  0  0  0  0
 10 26  1  0  0  0  0
 12 13  2  0  0  0  0
 12 14  1  0  0  0  0
 14 15  1  0  0  0  0
 14 27  1  0  0  0  0
 15 19  1  0  0  0  0
 15 16  1  0  0  0  0
 15 28  1  0  0  0  0
 16 17  1  0  0  0  0
 16 29  1  0  0  0  0
 16 30  1  0  0  0  0
 17 18  1  0  0  0  0
 17 31  1  0  0  0  0
 17 32  1  0  0  0  0
 18 19  1  0  0  0  0
 18 33  1  0  0  0  0
 18 34  1  0  0  0  0
 19 35  1  0  0  0  0
 19 36  1  0  0  0  0
M  END
> <s_m_source_file>
AV-unprocessed.smi

> <i_m_source_file_index>
813

> <i_lp_mmshare_version>
43012

> <i_f3d_flags>
0

> <s_epik_input>
W0NIMl0xW0NIMl1bQ0gyXVtDSDJdW0NIXTFbTkhdQyg9TylbQ0BIXShbQ0gzXSlbTkhdQyg9TylbTkhdYzJubltjSF1zMg==

> <s_epik_cmdline>
J2VwaWtfcHl0aG9uJywgJy1waCcsICc3LjAnLCAnLXRuJywgJzgnLCAnLW1hJywgJzIwMCcsICctbWV0YWxfYmluZGluZycsICctaW1hZScsICc8aW5maWxlLm1hZT4nLCAnLW9tYWUnLCAnPG91dGZpbGUubWFlPic=

> <r_lp_tautomer_probability>
1

> <r_epik_Ionization_Penalty>
0.00321247

> <r_epik_Ionization_Penalty_Charging>
0

> <r_epik_Ionization_Penalty_Neutral>
0.00321247

> <r_epik_State_Penalty>
-0

> <r_epik_Charging_Adjusted_Penalty>
0

> <i_epik_Tot_Q>
0

> <i_epik_Tot_abs_Q>
0

> <r_epik_Metal_State_Penalty>
0.363968

> <b_epik_Metal_Only>
0

> <s_lp_Force_Field>
OPLS_2005

> <r_lp_Energy>
16.3209

> <b_lp_Chiralities_Consistent>
1

> <s_lp_Variant>
AV-unprocessed.smi:813-1

> <Gold.Version>
5.8.1

> <Gold.Id.Protein>
6NUR|6NUR_protein|mol2

> <Gold.PLP.Fitness>
38.6677

> <Gold.PLP.PLP>
-32.1329

> <Gold.PLP.part.hbond>
-5.0000

> <Gold.PLP.part.metal>
0.0000

> <Gold.PLP.part.buried>
-4.3750

> <Gold.PLP.part.nonpolar>
-23.0248

> <Gold.PLP.part.repulsive>
0.1888

> <Gold.PLP.ligand.clash>
0.0000

> <Gold.PLP.ligand.torsion>
1.0391

> <Gold.PLP.Chemscore.Hbond>
2.8555

> <Gold.PLP.Chemscore.CHOScore>
0.0000

> <Gold.PLP.Chemscore.Metal>
0.0000

> <Gold.Chemscore.Hbonds>
donor molecule, donor type, donor heavy atom, donor atom, acceptor molecule, acceptor atom, score
      L1  H     3    24       P1  8028  0.11
      L1  H    14    27       P1  8028  0.98
      P1  H  6933  6944       L1     8  0.65
      P1  H  6934  6946       L1     8  0.98

> <Gold.PLP.Chemscore.Internal.Correction>
0.0466

> <Gold.Rescore>
     Score         DG    S(hbond)    S(metal)    S(lipo)     H(rot)  DE(clash)    DE(int)     intcor
     14.51     -16.82       1.83        0.00      82.72       1.74       1.14       1.16       ----

> <Gold.Chemscore.Fitness>
14.5115

> <Gold.Chemscore.DG>
-16.8166

> <Gold.Chemscore.ZeroCoef>
-5.4800

> <Gold.Chemscore.Hbond>
1.8326

> <Gold.Chemscore.Metal>
0.0000

> <Gold.Chemscore.Lipo>
82.7224

> <Gold.Chemscore.Internal_Hbond>
0.0000

> <Gold.Chemscore.DEClash>
1.1418

> <Gold.Chemscore.DEInternal>
1.1633

> <Gold.Chemscore.Rot>
1.7433

> <Gold.Chemscore.Internal.Correction>
   9.000000E+99

> <Gold.Chemscore.Hbonds>
donor molecule, donor type, donor heavy atom, donor atom, acceptor molecule, acceptor atom, score
      L1  H    14    27       P1  8028  0.93
      P1  H  6933  6944       L1     8  0.38
      P1  H  6934  6946       L1     8  0.45

> <Gold.Chemscore.Hbond.Weighted>
-6.1208

> <Gold.Chemscore.Metal.Weighted>
-0.0000

> <Gold.Chemscore.Lipo.Weighted>
-9.6785

> <Gold.Chemscore.Internal_Hbond.Weighted>
0.0000

> <Gold.Chemscore.DEClash.Weighted>
1.1418

> <Gold.Chemscore.DEInternal.Weighted>
1.1633

> <Gold.Chemscore.Rot.Weighted>
4.4628

> <Gold.Chemscore.Internal.Correction.Weighted>
   9.000000E+99

> <Gold.Protein.RotatedTorsions>
[ 6907 6896 6895 6894 ] final -101.69 input  -60.11 | X-H torsion
[ 7974 7965 7964 7962 ] final   16.61 input  175.53 | X-H torsion
[ 8008 7997 7996 7995 ] final    6.86 input   59.86 | X-H torsion
[ 10167 10162 10161 10158 ] final  -67.37 input  -65.29 | X-H torsion
[ 10718 10713 10712 10709 ] final  130.97 input   66.30 | X-H torsion
[ 10763 10752 10751 10750 ] final  116.26 input  -60.55 | X-H torsion
[ 11005 11000 10999 10996 ] final   71.77 input  -57.11 | X-H torsion

> <Gold.Protein.ActiveResidues>
 VAL166  LYS551  ARG553  GLY616  TRP617  ASP618  TYR619  PRO620  LYS621  CYS622 
 ASP623  PHE694  ASN695  SER759  ASP760  ASP761  ALA762  ILE779  LEU786  VAL792 
 PHE793  MET794  SER795  GLU796  ALA797  LYS798  CYS799  TRP800  GLU811  SER814 

> <Gold.Protein.RotatedAtoms>
  150.7165  134.0695  159.3859 H   0  0  0  0  0  0  0  0  0  0  0  0  # atno 6907 bound_to 6896
  151.8677  135.0499  160.0485 H   0  0  0  0  0  0  0  0  0  0  0  0  # atno 6908 bound_to 6896
  152.2668  133.5310  159.5451 H   0  0  0  0  0  0  0  0  0  0  0  0  # atno 6909 bound_to 6896
  146.2244  139.8723  142.8585 H   0  0  0  0  0  0  0  0  0  0  0  0  # atno 7974 bound_to 7965
  154.7464  140.2758  155.6330 H   0  0  0  0  0  0  0  0  0  0  0  0  # atno 8008 bound_to 7997
  156.2885  140.2687  156.2131 H   0  0  0  0  0  0  0  0  0  0  0  0  # atno 8009 bound_to 7997
  155.0193  140.0371  157.2421 H   0  0  0  0  0  0  0  0  0  0  0  0  # atno 8010 bound_to 7997
  140.5587  143.2312  151.6769 H   0  0  0  0  0  0  0  0  0  0  0  0  # atno 10167 bound_to 10162
  157.5011  131.1094  150.9425 H   0  0  0  0  0  0  0  0  0  0  0  0  # atno 10718 bound_to 10713
  153.5345  135.3571  155.2691 H   0  0  0  0  0  0  0  0  0  0  0  0  # atno 10763 bound_to 10752
  154.8723  135.4076  154.3113 H   0  0  0  0  0  0  0  0  0  0  0  0  # atno 10764 bound_to 10752
  153.3809  135.7068  153.6634 H   0  0  0  0  0  0  0  0  0  0  0  0  # atno 10765 bound_to 10752
  139.9526  134.7200  156.0827 H   0  0  0  0  0  0  0  0  0  0  0  0  # atno 11005 bound_to 11000
  145.2596  141.0072  143.3834 LP  0  0  0  0  0  0  0  0  0  0  0  0  # atno 17320 bound_to 7965
  144.9309  139.4300  143.6495 LP  0  0  0  0  0  0  0  0  0  0  0  0  # atno 17321 bound_to 7965
  139.5060  144.3697  152.0482 LP  0  0  0  0  0  0  0  0  0  0  0  0  # atno 17342 bound_to 10162
  140.2821  144.3848  150.6115 LP  0  0  0  0  0  0  0  0  0  0  0  0  # atno 17343 bound_to 10162
  157.0095  130.5631  149.5319 LP  0  0  0  0  0  0  0  0  0  0  0  0  # atno 17370 bound_to 10713
  156.0230  130.5324  150.8329 LP  0  0  0  0  0  0  0  0  0  0  0  0  # atno 17371 bound_to 10713
  141.1192  133.6618  156.3170 LP  0  0  0  0  0  0  0  0  0  0  0  0  # atno 17394 bound_to 11000
  140.5683  134.5865  157.5451 LP  0  0  0  0  0  0  0  0  0  0  0  0  # atno 17395 bound_to 11000

$$$$
