AV-unprocessed.smi:1801|AV-procd|sdf|7269|dock1
  -GOLD-   22720 8523D 1   1.00000     0.00000
 Structure written by MMmdl.
 37 38  0  0  0  0  0  0  0  0  3 V2000
  149.2510  132.8448  154.6097 C   0  0  0  0  0  0  0  0  0  0  0  0
  148.8573  134.3169  154.4047 C   0  0  2  0  0  0  0  0  0  0  0  0
  149.2300  135.1476  155.6535 C   0  0  0  0  0  0  0  0  0  0  0  0
  148.4141  134.8144  156.8182 N   0  0  0  0  0  0  0  0  0  0  0  0
  148.7739  134.9582  158.1016 C   0  0  0  0  0  0  0  0  0  0  0  0
  149.9024  135.3674  158.3830 O   0  0  0  0  0  0  0  0  0  0  0  0
  147.7975  134.6327  158.9778 N   0  5  0  0  0  0  0  0  0  0  0  0
  147.6457  135.3433  160.1078 C   0  0  0  0  0  0  0  0  0  0  0  0
  147.8231  136.6735  160.1487 N   0  0  0  0  0  0  0  0  0  0  0  0
  147.6223  137.2124  161.4123 N   0  0  0  0  0  0  0  0  0  0  0  0
  147.3053  136.2684  162.2982 C   0  0  0  0  0  0  0  0  0  0  0  0
  147.2257  134.6356  161.6703 S   0  0  0  0  0  0  0  0  0  0  0  0
  147.3602  134.4522  154.0387 C   0  0  0  0  0  0  0  0  0  0  0  0
  147.1271  134.3694  152.5777 N   0  3  0  0  0  0  0  0  0  0  0  0
  147.2215  133.0015  152.0289 C   0  0  0  0  0  0  0  0  0  0  0  0
  146.3940  133.0302  150.7483 C   0  0  0  0  0  0  0  0  0  0  0  0
  145.2365  133.9516  151.1171 C   0  0  0  0  0  0  0  0  0  0  0  0
  145.8423  134.9494  152.1125 C   0  0  0  0  0  0  0  0  0  0  0  0
  148.6937  132.3957  155.4322 H   0  0  0  0  0  0  0  0  0  0  0  0
  150.3128  132.7526  154.8398 H   0  0  0  0  0  0  0  0  0  0  0  0
  149.0608  132.2518  153.7149 H   0  0  0  0  0  0  0  0  0  0  0  0
  149.4544  134.6948  153.5748 H   0  0  0  0  0  0  0  0  0  0  0  0
  150.2744  134.9771  155.9163 H   0  0  0  0  0  0  0  0  0  0  0  0
  149.1363  136.2145  155.4443 H   0  0  0  0  0  0  0  0  0  0  0  0
  147.4859  134.4602  156.6379 H   0  0  0  0  0  0  0  0  0  0  0  0
  147.1204  136.5345  163.3282 H   0  0  0  0  0  0  0  0  0  0  0  0
  146.7964  133.6641  154.5401 H   0  0  0  0  0  0  0  0  0  0  0  0
  146.9440  135.3959  154.3933 H   0  0  0  0  0  0  0  0  0  0  0  0
  148.2573  132.7091  151.8542 H   0  0  0  0  0  0  0  0  0  0  0  0
  146.7826  132.2903  152.7311 H   0  0  0  0  0  0  0  0  0  0  0  0
  146.9768  133.4695  149.9373 H   0  0  0  0  0  0  0  0  0  0  0  0
  146.0654  132.0398  150.4317 H   0  0  0  0  0  0  0  0  0  0  0  0
  144.7927  134.4390  150.2485 H   0  0  0  0  0  0  0  0  0  0  0  0
  144.4532  133.3738  151.6102 H   0  0  0  0  0  0  0  0  0  0  0  0
  145.1492  135.1369  152.9346 H   0  0  0  0  0  0  0  0  0  0  0  0
  146.0472  135.9062  151.6313 H   0  0  0  0  0  0  0  0  0  0  0  0
  147.8583  134.9009  152.1275 H   0  0  0  0  0  0  0  0  0  0  0  0
  1  2  1  0  0  0  0
  1 19  1  0  0  0  0
  1 20  1  0  0  0  0
  1 21  1  0  0  0  0
  2  3  1  0  0  0  0
  2 13  1  0  0  0  0
  2 22  1  0  0  0  0
  3  4  1  0  0  0  0
  3 23  1  0  0  0  0
  3 24  1  0  0  0  0
  4  5  1  0  0  0  0
  4 25  1  0  0  0  0
  5  6  2  0  0  0  0
  5  7  1  0  0  0  0
  7  8  1  0  0  0  0
  8 12  1  0  0  0  0
  8  9  2  0  0  0  0
  9 10  1  0  0  0  0
 10 11  2  0  0  0  0
 11 12  1  0  0  0  0
 11 26  1  0  0  0  0
 13 14  1  0  0  0  0
 13 27  1  0  0  0  0
 13 28  1  0  0  0  0
 14 18  1  0  0  0  0
 14 15  1  0  0  0  0
 14 37  1  0  0  0  0
 15 16  1  0  0  0  0
 15 29  1  0  0  0  0
 15 30  1  0  0  0  0
 16 17  1  0  0  0  0
 16 31  1  0  0  0  0
 16 32  1  0  0  0  0
 17 18  1  0  0  0  0
 17 33  1  0  0  0  0
 17 34  1  0  0  0  0
 18 35  1  0  0  0  0
 18 36  1  0  0  0  0
M  CHG  1   7  -1
M  CHG  1  14   1
M  END
> <s_m_source_file>
AV-unprocessed.smi

> <i_m_source_file_index>
1801

> <i_lp_mmshare_version>
43012

> <i_f3d_flags>
0

> <s_epik_input>
W0NIMl0xW0NIMl1bQ0gyXVtDSDJdTjFbQ0gyXVtDQEhdKFtDSDNdKVtDSDJdW05IXUMoPU8pW05IXWMybm5bY0hdczI=

> <s_epik_cmdline>
J2VwaWtfcHl0aG9uJywgJy1waCcsICc3LjAnLCAnLXRuJywgJzgnLCAnLW1hJywgJzIwMCcsICctbWV0YWxfYmluZGluZycsICctaW1hZScsICc8aW5maWxlLm1hZT4nLCAnLW9tYWUnLCAnPG91dGZpbGUubWFlPic=

> <r_lp_tautomer_probability>
1

> <r_epik_Ionization_Penalty>
3.29721

> <r_epik_Ionization_Penalty_Charging>
3.25987

> <r_epik_Ionization_Penalty_Neutral>
0.0373399

> <r_epik_State_Penalty>
3.2571

> <r_epik_Charging_Adjusted_Penalty>
6.51697

> <i_epik_Tot_Q>
0

> <i_epik_Tot_abs_Q>
2

> <r_epik_Metal_State_Penalty>
0.477553

> <b_epik_Metal_Only>
1

> <s_lp_Force_Field>
OPLS_2005

> <r_lp_Energy>
22.4794

> <b_lp_Chiralities_Consistent>
1

> <s_lp_Variant>
AV-unprocessed.smi:1801-3

> <Gold.Version>
5.8.1

> <Gold.Id.Protein>
6NUR|6NUR_protein|mol2

> <Gold.PLP.Fitness>
40.5111

> <Gold.PLP.PLP>
-28.2448

> <Gold.PLP.part.hbond>
-3.9772

> <Gold.PLP.part.metal>
0.0000

> <Gold.PLP.part.buried>
-2.3492

> <Gold.PLP.part.nonpolar>
-21.6445

> <Gold.PLP.part.repulsive>
0.0354

> <Gold.PLP.ligand.clash>
0.0000

> <Gold.PLP.ligand.torsion>
1.3012

> <Gold.PLP.Chemscore.Hbond>
4.8400

> <Gold.PLP.Chemscore.CHOScore>
0.0000

> <Gold.PLP.Chemscore.Metal>
0.0000

> <Gold.Chemscore.Hbonds>
donor molecule, donor type, donor heavy atom, donor atom, acceptor molecule, acceptor atom, score
      L1  H    14    37       P1  7948  2.00
      P1  H  6896  6908       L1     6  1.00
      P1  H  6931  6943       L1    10  0.96
      P1  H  6934  6947       L1    10  0.83

> <Gold.PLP.Chemscore.Internal.Correction>
0.3486

> <Gold.Rescore>
     Score         DG    S(hbond)    S(metal)    S(lipo)     H(rot)  DE(clash)    DE(int)     intcor
     16.42     -17.84       3.28        0.00      54.20       1.93       0.00       1.42       ----

> <Gold.Chemscore.Fitness>
16.4172

> <Gold.Chemscore.DG>
-17.8382

> <Gold.Chemscore.ZeroCoef>
-5.4800

> <Gold.Chemscore.Hbond>
3.2782

> <Gold.Chemscore.Metal>
0.0000

> <Gold.Chemscore.Lipo>
54.1958

> <Gold.Chemscore.Internal_Hbond>
0.0000

> <Gold.Chemscore.DEClash>
0.0009

> <Gold.Chemscore.DEInternal>
1.4201

> <Gold.Chemscore.Rot>
1.9266

> <Gold.Chemscore.Internal.Correction>
   9.000000E+99

> <Gold.Chemscore.Hbonds>
donor molecule, donor type, donor heavy atom, donor atom, acceptor molecule, acceptor atom, score
      L1  H    14    37       P1  7948  0.70
      P1  H  6896  6908       L1     6  0.81
      P1  H  6931  6943       L1    10  0.64
      P1  H  6934  6947       L1    10  0.21

> <Gold.Chemscore.Hbond.Weighted>
-10.9493

> <Gold.Chemscore.Metal.Weighted>
-0.0000

> <Gold.Chemscore.Lipo.Weighted>
-6.3409

> <Gold.Chemscore.Internal_Hbond.Weighted>
0.0000

> <Gold.Chemscore.DEClash.Weighted>
0.0009

> <Gold.Chemscore.DEInternal.Weighted>
1.4201

> <Gold.Chemscore.Rot.Weighted>
4.9321

> <Gold.Chemscore.Internal.Correction.Weighted>
   9.000000E+99

> <Gold.Protein.RotatedTorsions>
[ 6907 6896 6895 6894 ] final  160.30 input  -60.11 | X-H torsion
[ 7974 7965 7964 7962 ] final  -95.04 input  175.53 | X-H torsion
[ 8008 7997 7996 7995 ] final  148.47 input   59.86 | X-H torsion
[ 10167 10162 10161 10158 ] final   91.93 input  -65.29 | X-H torsion
[ 10718 10713 10712 10709 ] final  -35.70 input   66.30 | X-H torsion
[ 10763 10752 10751 10750 ] final  129.95 input  -60.55 | X-H torsion
[ 11005 11000 10999 10996 ] final   75.65 input  -57.11 | X-H torsion

> <Gold.Protein.ActiveResidues>
 VAL166  LYS551  ARG553  GLY616  TRP617  ASP618  TYR619  PRO620  LYS621  CYS622 
 ASP623  PHE694  ASN695  SER759  ASP760  ASP761  ALA762  ILE779  LEU786  VAL792 
 PHE793  MET794  SER795  GLU796  ALA797  LYS798  CYS799  TRP800  GLU811  SER814 

> <Gold.Protein.RotatedAtoms>
  151.9727  133.3731  159.4076 H   0  0  0  0  0  0  0  0  0  0  0  0  # atno 6907 bound_to 6896
  150.6946  134.4123  159.5176 H   0  0  0  0  0  0  0  0  0  0  0  0  # atno 6908 bound_to 6896
  152.1829  134.8738  160.0575 H   0  0  0  0  0  0  0  0  0  0  0  0  # atno 6909 bound_to 6896
  145.3653  140.9498  143.2477 H   0  0  0  0  0  0  0  0  0  0  0  0  # atno 7974 bound_to 7965
  156.2790  140.2128  156.5703 H   0  0  0  0  0  0  0  0  0  0  0  0  # atno 8008 bound_to 7997
  154.7141  140.0509  157.0601 H   0  0  0  0  0  0  0  0  0  0  0  0  # atno 8009 bound_to 7997
  155.0566  140.3162  155.4677 H   0  0  0  0  0  0  0  0  0  0  0  0  # atno 8010 bound_to 7997
  139.8326  144.6680  150.9381 H   0  0  0  0  0  0  0  0  0  0  0  0  # atno 10167 bound_to 10162
  156.3356  130.4286  149.7833 H   0  0  0  0  0  0  0  0  0  0  0  0  # atno 10718 bound_to 10713
  153.7501  135.3211  155.3319 H   0  0  0  0  0  0  0  0  0  0  0  0  # atno 10763 bound_to 10752
  154.8266  135.4565  154.0941 H   0  0  0  0  0  0  0  0  0  0  0  0  # atno 10764 bound_to 10752
  153.2141  135.6939  153.8161 H   0  0  0  0  0  0  0  0  0  0  0  0  # atno 10765 bound_to 10752
  139.9334  134.7535  156.1297 H   0  0  0  0  0  0  0  0  0  0  0  0  # atno 11005 bound_to 11000
  144.8616  139.5169  143.6809 LP  0  0  0  0  0  0  0  0  0  0  0  0  # atno 17320 bound_to 7965
  146.2909  139.7137  142.9161 LP  0  0  0  0  0  0  0  0  0  0  0  0  # atno 17321 bound_to 7965
  140.7805  143.3987  151.1186 LP  0  0  0  0  0  0  0  0  0  0  0  0  # atno 17342 bound_to 10162
  139.7639  143.8594  152.3106 LP  0  0  0  0  0  0  0  0  0  0  0  0  # atno 17343 bound_to 10162
  156.5089  130.8163  151.3161 LP  0  0  0  0  0  0  0  0  0  0  0  0  # atno 17370 bound_to 10713
  157.7438  130.9920  150.2622 LP  0  0  0  0  0  0  0  0  0  0  0  0  # atno 17371 bound_to 10713
  141.0935  133.6705  156.2593 LP  0  0  0  0  0  0  0  0  0  0  0  0  # atno 17394 bound_to 11000
  140.6140  134.5429  157.5538 LP  0  0  0  0  0  0  0  0  0  0  0  0  # atno 17395 bound_to 11000

$$$$
