AV-unprocessed.smi:149|AV-procd|sdf|1239|dock4
  -GOLD-   2262018453D 1   1.00000     0.00000
 Structure written by MMmdl.
 59 63  0  0  0  0  0  0  0  0  1 V2000
  150.9883  140.0938  155.0658 C   0  0  0  0  0  0  0  0  0  0  0  0
  149.5271  140.5447  155.2701 C   0  0  1  0  0  0  0  0  0  0  0  0
  148.5761  139.6742  154.4331 C   0  0  0  0  0  0  0  0  0  0  0  0
  148.0302  138.6803  155.3459 N   0  0  0  0  0  0  0  0  0  0  0  0
  147.6613  137.4490  154.9074 C   0  0  0  0  0  0  0  0  0  0  0  0
  148.2711  136.3556  155.4380 N   0  0  0  0  0  0  0  0  0  0  0  0
  147.9318  135.1271  155.0379 C   0  0  0  0  0  0  0  0  0  0  0  0
  147.0189  134.7672  154.1349 N   0  0  0  0  0  0  0  0  0  0  0  0
  146.3953  135.8563  153.6018 C   0  0  0  0  0  0  0  0  0  0  0  0
  146.6466  137.2196  153.9314 C   0  0  0  0  0  0  0  0  0  0  0  0
  145.7915  138.0399  153.2029 N   0  0  0  0  0  0  0  0  0  0  0  0
  145.0820  137.2126  152.4858 C   0  0  0  0  0  0  0  0  0  0  0  0
  145.3984  135.8826  152.6423 N   0  0  0  0  0  0  0  0  0  0  0  0
  144.7547  134.7657  152.0153 C   0  0  0  0  0  0  0  0  0  0  0  0
  145.3471  133.3577  152.1104 C   0  0  0  0  0  0  0  0  0  0  0  0
  144.7858  133.0349  150.7071 C   0  0  0  0  0  0  0  0  0  0  0  0
  145.7352  132.2146  149.8163 C   0  0  0  0  0  0  0  0  0  0  0  0
  147.0686  132.6732  149.9022 O   0  0  0  0  0  0  0  0  0  0  0  0
  143.3981  132.3592  150.7313 C   0  0  0  0  0  0  0  0  0  0  0  0
  142.8998  132.1111  149.4326 O   0  0  0  0  0  0  0  0  0  0  0  0
  144.8038  134.5669  150.4991 C   0  0  0  0  0  0  0  0  0  0  0  0
  148.5614  138.8861  156.6841 C   0  0  0  0  0  0  0  0  0  0  0  0
  148.9991  140.3563  156.7104 C   0  0  1  0  0  0  0  0  0  0  0  0
  149.9130  140.7295  157.7985 N   0  0  0  0  0  0  0  0  0  0  0  0
  150.6128  141.9844  157.5254 C   0  0  0  0  0  0  0  0  0  0  0  0
  151.5812  142.3649  158.6593 C   0  0  0  0  0  0  0  0  0  0  0  0
  152.5126  141.3094  158.8688 O   0  0  0  0  0  0  0  0  0  0  0  0
  151.8772  140.0746  159.1801 C   0  0  0  0  0  0  0  0  0  0  0  0
  150.9146  139.6914  158.0435 C   0  0  0  0  0  0  0  0  0  0  0  0
  151.1307  139.0516  155.3518 H   0  0  0  0  0  0  0  0  0  0  0  0
  151.6853  140.6944  155.6493 H   0  0  0  0  0  0  0  0  0  0  0  0
  151.2807  140.1901  154.0199 H   0  0  0  0  0  0  0  0  0  0  0  0
  149.4420  141.5876  154.9631 H   0  0  0  0  0  0  0  0  0  0  0  0
  147.7532  140.2746  154.0435 H   0  0  0  0  0  0  0  0  0  0  0  0
  149.0905  139.2179  153.5865 H   0  0  0  0  0  0  0  0  0  0  0  0
  148.4682  134.3166  155.5089 H   0  0  0  0  0  0  0  0  0  0  0  0
  144.3061  137.5548  151.8165 H   0  0  0  0  0  0  0  0  0  0  0  0
  143.7225  134.7760  152.3693 H   0  0  0  0  0  0  0  0  0  0  0  0
  146.4382  133.3711  152.1478 H   0  0  0  0  0  0  0  0  0  0  0  0
  144.9399  132.7510  152.9200 H   0  0  0  0  0  0  0  0  0  0  0  0
  145.7342  131.1654  150.1131 H   0  0  0  0  0  0  0  0  0  0  0  0
  145.4194  132.2370  148.7730 H   0  0  0  0  0  0  0  0  0  0  0  0
  147.6480  131.9315  149.8193 H   0  0  0  0  0  0  0  0  0  0  0  0
  143.4300  131.4167  151.2788 H   0  0  0  0  0  0  0  0  0  0  0  0
  142.6665  132.9811  151.2476 H   0  0  0  0  0  0  0  0  0  0  0  0
  142.2573  132.7720  149.2253 H   0  0  0  0  0  0  0  0  0  0  0  0
  143.9446  134.9719  149.9638 H   0  0  0  0  0  0  0  0  0  0  0  0
  145.7383  134.9210  150.0594 H   0  0  0  0  0  0  0  0  0  0  0  0
  147.8017  138.6780  157.4384 H   0  0  0  0  0  0  0  0  0  0  0  0
  149.4100  138.2219  156.8555 H   0  0  0  0  0  0  0  0  0  0  0  0
  148.0911  140.9556  156.8020 H   0  0  0  0  0  0  0  0  0  0  0  0
  151.1664  141.9038  156.5887 H   0  0  0  0  0  0  0  0  0  0  0  0
  149.8973  142.7964  157.3968 H   0  0  0  0  0  0  0  0  0  0  0  0
  152.1249  143.2747  158.4045 H   0  0  0  0  0  0  0  0  0  0  0  0
  151.0347  142.5654  159.5820 H   0  0  0  0  0  0  0  0  0  0  0  0
  152.6380  139.3047  159.3087 H   0  0  0  0  0  0  0  0  0  0  0  0
  151.3425  140.1596  160.1275 H   0  0  0  0  0  0  0  0  0  0  0  0
  150.4334  138.7474  158.2960 H   0  0  0  0  0  0  0  0  0  0  0  0
  151.4891  139.5102  157.1337 H   0  0  0  0  0  0  0  0  0  0  0  0
  1  2  1  0  0  0  0
  1 30  1  0  0  0  0
  1 31  1  0  0  0  0
  1 32  1  0  0  0  0
  2 23  1  0  0  0  0
  2  3  1  0  0  0  0
  2 33  1  0  0  0  0
  3  4  1  0  0  0  0
  3 34  1  0  0  0  0
  3 35  1  0  0  0  0
  4  5  1  0  0  0  0
  4 22  1  0  0  0  0
  5 10  1  0  0  0  0
  5  6  2  0  0  0  0
  6  7  1  0  0  0  0
  7  8  2  0  0  0  0
  7 36  1  0  0  0  0
  8  9  1  0  0  0  0
  9 13  1  0  0  0  0
  9 10  2  0  0  0  0
 10 11  1  0  0  0  0
 11 12  2  0  0  0  0
 12 13  1  0  0  0  0
 12 37  1  0  0  0  0
 13 14  1  0  0  0  0
 14 21  1  0  0  0  0
 14 15  1  0  0  0  0
 14 38  1  0  0  0  0
 15 16  1  0  0  0  0
 15 39  1  0  0  0  0
 15 40  1  0  0  0  0
 16 17  1  0  0  0  0
 16 19  1  0  0  0  0
 16 21  1  0  0  0  0
 17 18  1  0  0  0  0
 17 41  1  0  0  0  0
 17 42  1  0  0  0  0
 18 43  1  0  0  0  0
 19 20  1  0  0  0  0
 19 44  1  0  0  0  0
 19 45  1  0  0  0  0
 20 46  1  0  0  0  0
 21 47  1  0  0  0  0
 21 48  1  0  0  0  0
 22 23  1  0  0  0  0
 22 49  1  0  0  0  0
 22 50  1  0  0  0  0
 23 24  1  0  0  0  0
 23 51  1  0  0  0  0
 24 29  1  0  0  0  0
 24 25  1  0  0  0  0
 25 26  1  0  0  0  0
 25 52  1  0  0  0  0
 25 53  1  0  0  0  0
 26 27  1  0  0  0  0
 26 54  1  0  0  0  0
 26 55  1  0  0  0  0
 27 28  1  0  0  0  0
 28 29  1  0  0  0  0
 28 56  1  0  0  0  0
 28 57  1  0  0  0  0
 29 58  1  0  0  0  0
 29 59  1  0  0  0  0
M  END
> <s_m_source_file>
AV-unprocessed.smi

> <i_m_source_file_index>
149

> <i_lp_mmshare_version>
43012

> <i_f3d_flags>
0

> <s_epik_input>
W0NIMl0xW0NIMl1PW0NIMl1bQ0gyXU4xW0NAQEhdMltDSDJdTihbQ0gyXVtDQEhdMltDSDNdKWMobltjSF1uMyljKGMzNCluW2NIXW40W0NIXShbQ0gyXTUpW0NIMl1DNShbQ0gyXVtPSF0pW0NIMl1bT0hd

> <s_epik_cmdline>
J2VwaWtfcHl0aG9uJywgJy1waCcsICc3LjAnLCAnLXRuJywgJzgnLCAnLW1hJywgJzIwMCcsICctbWV0YWxfYmluZGluZycsICctaW1hZScsICc8aW5maWxlLm1hZT4nLCAnLW9tYWUnLCAnPG91dGZpbGUubWFlPic=

> <r_lp_tautomer_probability>
1

> <r_epik_Ionization_Penalty>
0.41918

> <r_epik_Ionization_Penalty_Charging>
0

> <r_epik_Ionization_Penalty_Neutral>
0.41918

> <r_epik_State_Penalty>
0.654916

> <r_epik_Charging_Adjusted_Penalty>
0.654916

> <i_epik_Tot_Q>
0

> <i_epik_Tot_abs_Q>
0

> <r_epik_Metal_State_Penalty>
0.653217

> <b_epik_Metal_Only>
0

> <s_lp_Force_Field>
OPLS_2005

> <r_lp_Energy>
77.678

> <b_lp_Chiralities_Consistent>
1

> <s_lp_Variant>
AV-unprocessed.smi:149-6

> <Gold.Version>
5.8.1

> <Gold.Id.Protein>
6NUR|6NUR_protein|mol2

> <Gold.PLP.Fitness>
46.1603

> <Gold.PLP.PLP>
-37.2566

> <Gold.PLP.part.hbond>
-4.9709

> <Gold.PLP.part.metal>
0.0000

> <Gold.PLP.part.buried>
-2.2799

> <Gold.PLP.part.nonpolar>
-30.6907

> <Gold.PLP.part.repulsive>
0.4008

> <Gold.PLP.ligand.clash>
0.0000

> <Gold.PLP.ligand.torsion>
1.4403

> <Gold.PLP.Chemscore.Hbond>
2.6738

> <Gold.PLP.Chemscore.CHOScore>
1.0000

> <Gold.PLP.Chemscore.Metal>
0.0000

> <Gold.Chemscore.Hbonds>
donor molecule, donor type, donor heavy atom, donor atom, acceptor molecule, acceptor atom, score
      L1  H    18    43       P1 10747  1.00
      L1  H    20    46       P1 10186  0.86
      P1  H 10785 10796       L1    20  0.81
      L1  C    12    37       P1 10171  1.00

> <Gold.PLP.Chemscore.Internal.Correction>
0.7632

> <Gold.Rescore>
     Score         DG    S(hbond)    S(metal)    S(lipo)     H(rot)  DE(clash)    DE(int)     intcor
     12.83     -16.63       2.57        0.00      88.35       3.04       0.07       3.74       ----

> <Gold.Chemscore.Fitness>
12.8302

> <Gold.Chemscore.DG>
-16.6329

> <Gold.Chemscore.ZeroCoef>
-5.4800

> <Gold.Chemscore.Hbond>
2.5737

> <Gold.Chemscore.Metal>
0.0000

> <Gold.Chemscore.Lipo>
88.3473

> <Gold.Chemscore.Internal_Hbond>
0.0000

> <Gold.Chemscore.DEClash>
0.0663

> <Gold.Chemscore.DEInternal>
3.7364

> <Gold.Chemscore.Rot>
3.0390

> <Gold.Chemscore.Internal.Correction>
   9.000000E+99

> <Gold.Chemscore.Hbonds>
donor molecule, donor type, donor heavy atom, donor atom, acceptor molecule, acceptor atom, score
      L1  H    18    43       P1 10747  0.99
      L1  H    20    46       P1 10186  0.83
      P1  H 10785 10796       L1    20  0.73

> <Gold.Chemscore.Hbond.Weighted>
-8.5961

> <Gold.Chemscore.Metal.Weighted>
-0.0000

> <Gold.Chemscore.Lipo.Weighted>
-10.3366

> <Gold.Chemscore.Internal_Hbond.Weighted>
0.0000

> <Gold.Chemscore.DEClash.Weighted>
0.0663

> <Gold.Chemscore.DEInternal.Weighted>
3.7364

> <Gold.Chemscore.Rot.Weighted>
7.7798

> <Gold.Chemscore.Internal.Correction.Weighted>
   9.000000E+99

> <Gold.Protein.RotatedTorsions>
[ 6907 6896 6895 6894 ] final   46.38 input  -60.11 | X-H torsion
[ 7974 7965 7964 7962 ] final -150.76 input  175.53 | X-H torsion
[ 8008 7997 7996 7995 ] final   44.38 input   59.86 | X-H torsion
[ 10167 10162 10161 10158 ] final   32.92 input  -65.29 | X-H torsion
[ 10718 10713 10712 10709 ] final   34.92 input   66.30 | X-H torsion
[ 10763 10752 10751 10750 ] final   32.71 input  -60.55 | X-H torsion
[ 11005 11000 10999 10996 ] final   63.40 input  -57.11 | X-H torsion

> <Gold.Protein.ActiveResidues>
 VAL166  LYS551  ARG553  GLY616  TRP617  ASP618  TYR619  PRO620  LYS621  CYS622 
 ASP623  PHE694  ASN695  SER759  ASP760  ASP761  ALA762  ILE779  LEU786  VAL792 
 PHE793  MET794  SER795  GLU796  ALA797  LYS798  CYS799  TRP800  GLU811  SER814 

> <Gold.Protein.RotatedAtoms>
  152.2557  134.8087  160.0438 H   0  0  0  0  0  0  0  0  0  0  0  0  # atno 6907 bound_to 6896
  151.8751  133.3478  159.3756 H   0  0  0  0  0  0  0  0  0  0  0  0  # atno 6908 bound_to 6896
  150.7099  134.5001  159.5601 H   0  0  0  0  0  0  0  0  0  0  0  0  # atno 6909 bound_to 6896
  144.7889  140.4889  143.5787 H   0  0  0  0  0  0  0  0  0  0  0  0  # atno 7974 bound_to 7965
  155.3183  140.3395  155.4242 H   0  0  0  0  0  0  0  0  0  0  0  0  # atno 8008 bound_to 7997
  156.1921  140.1701  156.8108 H   0  0  0  0  0  0  0  0  0  0  0  0  # atno 8009 bound_to 7997
  154.5455  140.0716  156.8565 H   0  0  0  0  0  0  0  0  0  0  0  0  # atno 8010 bound_to 7997
  140.4455  144.1125  150.6181 H   0  0  0  0  0  0  0  0  0  0  0  0  # atno 10167 bound_to 10162
  157.3163  130.7425  149.6756 H   0  0  0  0  0  0  0  0  0  0  0  0  # atno 10718 bound_to 10713
  153.0248  135.6406  154.1397 H   0  0  0  0  0  0  0  0  0  0  0  0  # atno 10763 bound_to 10752
  154.1127  135.2852  155.3228 H   0  0  0  0  0  0  0  0  0  0  0  0  # atno 10764 bound_to 10752
  154.6320  135.5489  153.7753 H   0  0  0  0  0  0  0  0  0  0  0  0  # atno 10765 bound_to 10752
  140.0027  134.6417  155.9905 H   0  0  0  0  0  0  0  0  0  0  0  0  # atno 11005 bound_to 11000
  145.5848  139.1491  143.3215 LP  0  0  0  0  0  0  0  0  0  0  0  0  # atno 17320 bound_to 7965
  146.2133  140.5976  142.9050 LP  0  0  0  0  0  0  0  0  0  0  0  0  # atno 17321 bound_to 7965
  140.4269  143.2586  151.9645 LP  0  0  0  0  0  0  0  0  0  0  0  0  # atno 17342 bound_to 10162
  139.4792  144.5780  151.7980 LP  0  0  0  0  0  0  0  0  0  0  0  0  # atno 17343 bound_to 10162
  155.9682  130.4236  150.4571 LP  0  0  0  0  0  0  0  0  0  0  0  0  # atno 17370 bound_to 10713
  157.2579  131.0560  151.2339 LP  0  0  0  0  0  0  0  0  0  0  0  0  # atno 17371 bound_to 10713
  141.1654  133.6537  156.4461 LP  0  0  0  0  0  0  0  0  0  0  0  0  # atno 17394 bound_to 11000
  140.4698  134.6764  157.5124 LP  0  0  0  0  0  0  0  0  0  0  0  0  # atno 17395 bound_to 11000

$$$$
