AV-unprocessed.smi:266|AV-procd|sdf|2033|dock5
  -GOLD-   2262021243D 1   1.00000     0.00000
 Structure written by MMmdl.
 52 55  0  0  0  0  0  0  0  0  1 V2000
  150.7511  144.9769  160.2732 C   0  0  0  0  0  0  0  0  0  0  0  0
  150.9023  143.4551  160.4423 C   0  0  2  0  0  0  0  0  0  0  0  0
  151.2729  143.2284  161.8036 O   0  0  0  0  0  0  0  0  0  0  0  0
  152.4362  142.4165  161.8756 C   0  0  0  0  0  0  0  0  0  0  0  0
  153.1586  142.6981  160.5677 C   0  0  0  0  0  0  0  0  0  0  0  0
  152.0026  142.7881  159.5779 C   0  0  2  0  0  0  0  0  0  0  0  0
  152.4000  143.5912  158.4803 O   0  0  0  0  0  0  0  0  0  0  0  0
  151.5247  141.4147  159.0333 C   0  0  0  0  0  0  0  0  0  0  0  0
  150.4533  141.4992  158.0523 N   0  0  0  0  0  0  0  0  0  0  0  0
  149.2005  142.0319  158.2491 C   0  0  0  0  0  0  0  0  0  0  0  0
  148.4114  141.9906  157.2117 N   0  0  0  0  0  0  0  0  0  0  0  0
  149.1749  141.3891  156.2169 C   0  0  0  0  0  0  0  0  0  0  0  0
  148.9415  141.0278  154.8557 C   0  0  0  0  0  0  0  0  0  0  0  0
  147.7503  141.1858  154.2134 N   0  0  0  0  0  0  0  0  0  0  0  0
  146.9020  142.3101  154.6018 C   0  0  0  0  0  0  0  0  0  0  0  0
  147.6155  140.6895  152.8427 C   0  0  0  0  0  0  0  0  0  0  0  0
  147.3172  139.1769  152.7567 C   0  0  2  0  0  0  0  0  0  0  0  0
  146.8091  138.7782  151.3572 C   0  0  0  0  0  0  0  0  0  0  0  0
  146.2747  137.3444  151.4161 C   0  0  0  0  0  0  0  0  0  0  0  0
  145.5155  137.1759  153.0722 S   0  0  0  0  0  0  0  0  0  0  0  0
  144.0625  137.3791  152.9686 O   0  0  0  0  0  0  0  0  0  0  0  0
  146.0693  135.9867  153.7370 O   0  0  0  0  0  0  0  0  0  0  0  0
  146.2747  138.6859  153.7795 C   0  0  0  0  0  0  0  0  0  0  0  0
  149.9837  140.4730  154.1789 N   0  0  0  0  0  0  0  0  0  0  0  0
  151.1561  140.2625  154.7826 C   0  0  0  0  0  0  0  0  0  0  0  0
  151.5027  140.5256  156.0423 N   0  0  0  0  0  0  0  0  0  0  0  0
  150.4722  141.0947  156.7288 C   0  0  0  0  0  0  0  0  0  0  0  0
  150.4314  145.2348  159.2632 H   0  0  0  0  0  0  0  0  0  0  0  0
  151.6893  145.4950  160.4737 H   0  0  0  0  0  0  0  0  0  0  0  0
  150.0029  145.3702  160.9617 H   0  0  0  0  0  0  0  0  0  0  0  0
  149.9340  142.9878  160.2582 H   0  0  0  0  0  0  0  0  0  0  0  0
  153.0394  142.6588  162.7506 H   0  0  0  0  0  0  0  0  0  0  0  0
  152.1437  141.3679  161.9418 H   0  0  0  0  0  0  0  0  0  0  0  0
  153.6664  143.6611  160.6465 H   0  0  0  0  0  0  0  0  0  0  0  0
  153.9147  141.9532  160.3240 H   0  0  0  0  0  0  0  0  0  0  0  0
  153.3382  143.5290  158.3859 H   0  0  0  0  0  0  0  0  0  0  0  0
  152.3559  140.8796  158.5725 H   0  0  0  0  0  0  0  0  0  0  0  0
  151.1848  140.7836  159.8558 H   0  0  0  0  0  0  0  0  0  0  0  0
  148.8855  142.4472  159.1956 H   0  0  0  0  0  0  0  0  0  0  0  0
  146.7569  142.3312  155.6826 H   0  0  0  0  0  0  0  0  0  0  0  0
  145.9182  142.2306  154.1390 H   0  0  0  0  0  0  0  0  0  0  0  0
  147.3451  143.2572  154.2916 H   0  0  0  0  0  0  0  0  0  0  0  0
  146.8789  141.2536  152.2761 H   0  0  0  0  0  0  0  0  0  0  0  0
  148.5613  140.8858  152.3363 H   0  0  0  0  0  0  0  0  0  0  0  0
  148.2406  138.6218  152.9276 H   0  0  0  0  0  0  0  0  0  0  0  0
  145.9957  139.4449  151.0677 H   0  0  0  0  0  0  0  0  0  0  0  0
  147.5877  138.8799  150.6006 H   0  0  0  0  0  0  0  0  0  0  0  0
  145.5426  137.1264  150.6385 H   0  0  0  0  0  0  0  0  0  0  0  0
  147.0903  136.6247  151.3432 H   0  0  0  0  0  0  0  0  0  0  0  0
  146.7079  138.4617  154.7543 H   0  0  0  0  0  0  0  0  0  0  0  0
  145.4790  139.4185  153.9136 H   0  0  0  0  0  0  0  0  0  0  0  0
  151.9241  139.8130  154.1702 H   0  0  0  0  0  0  0  0  0  0  0  0
  1  2  1  0  0  0  0
  1 28  1  0  0  0  0
  1 29  1  0  0  0  0
  1 30  1  0  0  0  0
  2  6  1  0  0  0  0
  2  3  1  0  0  0  0
  2 31  1  0  0  0  0
  3  4  1  0  0  0  0
  4  5  1  0  0  0  0
  4 32  1  0  0  0  0
  4 33  1  0  0  0  0
  5  6  1  0  0  0  0
  5 34  1  0  0  0  0
  5 35  1  0  0  0  0
  6  7  1  0  0  0  0
  6  8  1  0  0  0  0
  7 36  1  0  0  0  0
  8  9  1  0  0  0  0
  8 37  1  0  0  0  0
  8 38  1  0  0  0  0
  9 27  1  0  0  0  0
  9 10  1  0  0  0  0
 10 11  2  0  0  0  0
 10 39  1  0  0  0  0
 11 12  1  0  0  0  0
 12 27  2  0  0  0  0
 12 13  1  0  0  0  0
 13 14  1  0  0  0  0
 13 24  2  0  0  0  0
 14 15  1  0  0  0  0
 14 16  1  0  0  0  0
 15 40  1  0  0  0  0
 15 41  1  0  0  0  0
 15 42  1  0  0  0  0
 16 17  1  0  0  0  0
 16 43  1  0  0  0  0
 16 44  1  0  0  0  0
 17 23  1  0  0  0  0
 17 18  1  0  0  0  0
 17 45  1  0  0  0  0
 18 19  1  0  0  0  0
 18 46  1  0  0  0  0
 18 47  1  0  0  0  0
 19 20  1  0  0  0  0
 19 48  1  0  0  0  0
 19 49  1  0  0  0  0
 20 21  2  0  0  0  0
 20 22  2  0  0  0  0
 20 23  1  0  0  0  0
 23 50  1  0  0  0  0
 23 51  1  0  0  0  0
 24 25  1  0  0  0  0
 25 26  2  0  0  0  0
 25 52  1  0  0  0  0
 26 27  1  0  0  0  0
M  END
> <s_m_source_file>
AV-unprocessed.smi

> <i_m_source_file_index>
266

> <i_lp_mmshare_version>
43012

> <i_f3d_flags>
0

> <s_epik_input>
W0NIMl0xW0NIMl1PW0NAQEhdKFtDSDNdKVtDQEBdMShbT0hdKVtDSDJdbihbY0hdbjIpYyhjMjMpbltjSF1uYzNOKFtDSDNdKVtDSDJdW0NAQEhdKFtDSDJdNClbQ0gyXVtDSDJdUzQoPU8pPU8=

> <s_epik_cmdline>
J2VwaWtfcHl0aG9uJywgJy1waCcsICc3LjAnLCAnLXRuJywgJzgnLCAnLW1hJywgJzIwMCcsICctbWV0YWxfYmluZGluZycsICctaW1hZScsICc8aW5maWxlLm1hZT4nLCAnLW9tYWUnLCAnPG91dGZpbGUubWFlPic=

> <r_lp_tautomer_probability>
1

> <r_epik_Ionization_Penalty>
0.00155497

> <r_epik_Ionization_Penalty_Charging>
0

> <r_epik_Ionization_Penalty_Neutral>
0.00155497

> <r_epik_State_Penalty>
-0

> <r_epik_Charging_Adjusted_Penalty>
0

> <i_epik_Tot_Q>
0

> <i_epik_Tot_abs_Q>
0

> <r_epik_Metal_State_Penalty>
-0

> <b_epik_Metal_Only>
0

> <s_lp_Force_Field>
OPLS_2005

> <r_lp_Energy>
29.9122

> <b_lp_Chiralities_Consistent>
1

> <s_lp_Variant>
AV-unprocessed.smi:266-3

> <Gold.Version>
5.8.1

> <Gold.Id.Protein>
6NUR|6NUR_protein|mol2

> <Gold.PLP.Fitness>
45.0018

> <Gold.PLP.PLP>
-45.5147

> <Gold.PLP.part.hbond>
-1.3701

> <Gold.PLP.part.metal>
0.0000

> <Gold.PLP.part.buried>
0.0681

> <Gold.PLP.part.nonpolar>
-46.7333

> <Gold.PLP.part.repulsive>
2.0017

> <Gold.PLP.ligand.clash>
0.0000

> <Gold.PLP.ligand.torsion>
0.5306

> <Gold.PLP.Chemscore.Hbond>
0.0000

> <Gold.PLP.Chemscore.CHOScore>
0.0000

> <Gold.PLP.Chemscore.Metal>
0.0000

> <Gold.Chemscore.Hbonds>
donor molecule, donor type, donor heavy atom, donor atom, acceptor molecule, acceptor atom, score
      P1  H  6933  6945       L1     3  0.39

> <Gold.PLP.Chemscore.Internal.Correction>
0.5483

> <Gold.Rescore>
     Score         DG    S(hbond)    S(metal)    S(lipo)     H(rot)  DE(clash)    DE(int)     intcor
      6.34     -12.53       0.00        0.00     113.83       2.45       3.90       2.30       ----

> <Gold.Chemscore.Fitness>
6.3362

> <Gold.Chemscore.DG>
-12.5340

> <Gold.Chemscore.ZeroCoef>
-5.4800

> <Gold.Chemscore.Hbond>
0.0000

> <Gold.Chemscore.Metal>
0.0000

> <Gold.Chemscore.Lipo>
113.8336

> <Gold.Chemscore.Internal_Hbond>
0.0000

> <Gold.Chemscore.DEClash>
3.8972

> <Gold.Chemscore.DEInternal>
2.3007

> <Gold.Chemscore.Rot>
2.4471

> <Gold.Chemscore.Internal.Correction>
   9.000000E+99

> <Gold.Chemscore.Hbonds>
donor molecule, donor type, donor heavy atom, donor atom, acceptor molecule, acceptor atom, score
      P1  H  6933  6945       L1     3  0.01

> <Gold.Chemscore.Hbond.Weighted>
-0.0000

> <Gold.Chemscore.Metal.Weighted>
-0.0000

> <Gold.Chemscore.Lipo.Weighted>
-13.3185

> <Gold.Chemscore.Internal_Hbond.Weighted>
0.0000

> <Gold.Chemscore.DEClash.Weighted>
3.8972

> <Gold.Chemscore.DEInternal.Weighted>
2.3007

> <Gold.Chemscore.Rot.Weighted>
6.2645

> <Gold.Chemscore.Internal.Correction.Weighted>
   9.000000E+99

> <Gold.Protein.RotatedTorsions>
[ 6907 6896 6895 6894 ] final  -82.16 input  -60.11 | X-H torsion
[ 7974 7965 7964 7962 ] final  144.11 input  175.53 | X-H torsion
[ 8008 7997 7996 7995 ] final  179.61 input   59.86 | X-H torsion
[ 10167 10162 10161 10158 ] final  161.72 input  -65.29 | X-H torsion
[ 10718 10713 10712 10709 ] final -154.21 input   66.30 | X-H torsion
[ 10763 10752 10751 10750 ] final  -45.97 input  -60.55 | X-H torsion
[ 11005 11000 10999 10996 ] final -137.03 input  -57.11 | X-H torsion

> <Gold.Protein.ActiveResidues>
 VAL166  LYS551  ARG553  GLY616  TRP617  ASP618  TYR619  PRO620  LYS621  CYS622 
 ASP623  PHE694  ASN695  SER759  ASP760  ASP761  ALA762  ILE779  LEU786  VAL792 
 PHE793  MET794  SER795  GLU796  ALA797  LYS798  CYS799  TRP800  GLU811  SER814 

> <Gold.Protein.RotatedAtoms>
  150.6901  134.3707  159.4990 H   0  0  0  0  0  0  0  0  0  0  0  0  # atno 6907 bound_to 6896
  152.1523  134.8976  160.0556 H   0  0  0  0  0  0  0  0  0  0  0  0  # atno 6908 bound_to 6896
  152.0068  133.3811  159.4241 H   0  0  0  0  0  0  0  0  0  0  0  0  # atno 6909 bound_to 6896
  144.8863  139.5624  143.5819 H   0  0  0  0  0  0  0  0  0  0  0  0  # atno 7974 bound_to 7965
  156.0415  140.1304  157.0151 H   0  0  0  0  0  0  0  0  0  0  0  0  # atno 8008 bound_to 7997
  154.4393  140.1029  156.6314 H   0  0  0  0  0  0  0  0  0  0  0  0  # atno 8009 bound_to 7997
  155.5660  140.3465  155.4505 H   0  0  0  0  0  0  0  0  0  0  0  0  # atno 8010 bound_to 7997
  139.4852  144.4509  151.8831 H   0  0  0  0  0  0  0  0  0  0  0  0  # atno 10167 bound_to 10162
  156.4962  130.8370  151.2591 H   0  0  0  0  0  0  0  0  0  0  0  0  # atno 10718 bound_to 10713
  154.0373  135.6649  153.4786 H   0  0  0  0  0  0  0  0  0  0  0  0  # atno 10763 bound_to 10752
  153.0516  135.5081  154.7876 H   0  0  0  0  0  0  0  0  0  0  0  0  # atno 10764 bound_to 10752
  154.6841  135.3050  154.9538 H   0  0  0  0  0  0  0  0  0  0  0  0  # atno 10765 bound_to 10752
  140.8749  134.2004  157.4628 H   0  0  0  0  0  0  0  0  0  0  0  0  # atno 11005 bound_to 11000
  146.3026  139.7476  142.9080 LP  0  0  0  0  0  0  0  0  0  0  0  0  # atno 17320 bound_to 7965
  145.3863  141.0366  143.3149 LP  0  0  0  0  0  0  0  0  0  0  0  0  # atno 17321 bound_to 7965
  140.3965  144.2548  150.5896 LP  0  0  0  0  0  0  0  0  0  0  0  0  # atno 17342 bound_to 10162
  140.5097  143.2294  151.8554 LP  0  0  0  0  0  0  0  0  0  0  0  0  # atno 17343 bound_to 10162
  157.7468  130.9997  150.2898 LP  0  0  0  0  0  0  0  0  0  0  0  0  # atno 17370 bound_to 10713
  156.3377  130.3810  149.7436 LP  0  0  0  0  0  0  0  0  0  0  0  0  # atno 17371 bound_to 10713
  139.8715  134.9791  156.5023 LP  0  0  0  0  0  0  0  0  0  0  0  0  # atno 17394 bound_to 11000
  140.8530  133.8118  155.9187 LP  0  0  0  0  0  0  0  0  0  0  0  0  # atno 17395 bound_to 11000

$$$$
