AV-unprocessed.smi:2247|AV-procd|sdf|9090|dock1
  -GOLD-   2272012293D 1   1.00000     0.00000
 Structure written by MMmdl.
 34 35  0  0  0  0  0  0  0  0  1 V2000
  153.2635  146.4269  157.9081 C   0  0  0  0  0  0  0  0  0  0  0  0
  152.2086  145.4964  158.5339 C   0  0  0  0  0  0  0  0  0  0  0  0
  152.4629  145.2641  160.0316 C   0  0  0  0  0  0  0  0  0  0  0  0
  152.0996  144.2124  157.8283 N   0  0  0  0  0  0  0  0  0  0  0  0
  151.9095  142.9520  158.5282 C   0  0  0  0  0  0  0  0  0  0  0  0
  151.5230  141.9563  157.4307 C   0  0  0  0  0  0  0  0  0  0  0  0
  152.0184  142.5701  156.1117 C   0  0  1  0  0  0  0  0  0  0  0  0
  151.0271  142.3607  155.0575 N   0  0  0  0  0  0  0  0  0  0  0  0
  150.5266  141.1744  154.6800 C   0  0  0  0  0  0  0  0  0  0  0  0
  150.8877  140.1210  155.2145 O   0  0  0  0  0  0  0  0  0  0  0  0
  149.5860  141.3518  153.6754 N   0  0  0  0  0  0  0  0  0  0  0  0
  148.7310  140.4099  153.4170 C   0  0  0  0  0  0  0  0  0  0  0  0
  148.5078  139.1521  153.9713 N   0  0  0  0  0  0  0  0  0  0  0  0
  147.4573  138.5762  153.3134 C   0  0  0  0  0  0  0  0  0  0  0  0
  147.0356  139.4295  152.3850 C   0  0  0  0  0  0  0  0  0  0  0  0
  147.7957  140.5597  152.4243 O   0  0  0  0  0  0  0  0  0  0  0  0
  152.1307  144.0457  156.4985 C   0  0  0  0  0  0  0  0  0  0  0  0
  152.2572  144.9448  155.6669 O   0  0  0  0  0  0  0  0  0  0  0  0
  153.2540  147.4030  158.3934 H   0  0  0  0  0  0  0  0  0  0  0  0
  153.0676  146.5891  156.8477 H   0  0  0  0  0  0  0  0  0  0  0  0
  154.2723  146.0252  158.0076 H   0  0  0  0  0  0  0  0  0  0  0  0
  151.2497  146.0094  158.4392 H   0  0  0  0  0  0  0  0  0  0  0  0
  152.4990  146.2094  160.5734 H   0  0  0  0  0  0  0  0  0  0  0  0
  153.4099  144.7492  160.1973 H   0  0  0  0  0  0  0  0  0  0  0  0
  151.6725  144.6605  160.4791 H   0  0  0  0  0  0  0  0  0  0  0  0
  152.8449  142.6562  159.0049 H   0  0  0  0  0  0  0  0  0  0  0  0
  151.1371  143.0245  159.2949 H   0  0  0  0  0  0  0  0  0  0  0  0
  151.9482  140.9681  157.6083 H   0  0  0  0  0  0  0  0  0  0  0  0
  150.4371  141.8429  157.4213 H   0  0  0  0  0  0  0  0  0  0  0  0
  153.0032  142.1830  155.8449 H   0  0  0  0  0  0  0  0  0  0  0  0
  150.6916  143.1844  154.5796 H   0  0  0  0  0  0  0  0  0  0  0  0
  149.0091  138.7033  154.7245 H   0  0  0  0  0  0  0  0  0  0  0  0
  147.1145  137.5895  153.5884 H   0  0  0  0  0  0  0  0  0  0  0  0
  146.2436  139.3833  151.6524 H   0  0  0  0  0  0  0  0  0  0  0  0
  1  2  1  0  0  0  0
  1 19  1  0  0  0  0
  1 20  1  0  0  0  0
  1 21  1  0  0  0  0
  2  3  1  0  0  0  0
  2  4  1  0  0  0  0
  2 22  1  0  0  0  0
  3 23  1  0  0  0  0
  3 24  1  0  0  0  0
  3 25  1  0  0  0  0
  4 17  1  0  0  0  0
  4  5  1  0  0  0  0
  5  6  1  0  0  0  0
  5 26  1  0  0  0  0
  5 27  1  0  0  0  0
  6  7  1  0  0  0  0
  6 28  1  0  0  0  0
  6 29  1  0  0  0  0
  7  8  1  0  0  0  0
  7 17  1  0  0  0  0
  7 30  1  0  0  0  0
  8 31  1  0  0  0  0
  8  9  1  0  0  0  0
  9 11  1  0  0  0  0
  9 10  2  0  0  0  0
 11 12  2  0  0  0  0
 12 16  1  0  0  0  0
 12 13  1  0  0  0  0
 13 32  1  0  0  0  0
 13 14  1  0  0  0  0
 14 33  1  0  0  0  0
 14 15  2  0  0  0  0
 15 34  1  0  0  0  0
 15 16  1  0  0  0  0
 17 18  2  0  0  0  0
M  END
> <s_m_source_file>
AV-unprocessed.smi

> <i_m_source_file_index>
2247

> <i_lp_mmshare_version>
43012

> <i_f3d_flags>
0

> <s_epik_input>
W0NIM11bQ0hdKFtDSDNdKU4xW0NIMl1bQ0gyXVtDQEhdKEMxPU8pW05IXUMoPU8pW05IXWMybltjSF1bY0hdbzI=

> <s_epik_cmdline>
J2VwaWtfcHl0aG9uJywgJy1waCcsICc3LjAnLCAnLXRuJywgJzgnLCAnLW1hJywgJzIwMCcsICctbWV0YWxfYmluZGluZycsICctaW1hZScsICc8aW5maWxlLm1hZT4nLCAnLW9tYWUnLCAnPG91dGZpbGUubWFlPic=

> <r_lp_tautomer_probability>
0.107061

> <r_epik_Ionization_Penalty>
0.180736

> <r_epik_Ionization_Penalty_Charging>
0.180388

> <r_epik_Ionization_Penalty_Neutral>
0.000348501

> <r_epik_State_Penalty>
2.44396

> <r_epik_Charging_Adjusted_Penalty>
2.62435

> <i_epik_Tot_Q>
0

> <i_epik_Tot_abs_Q>
0

> <r_epik_Metal_State_Penalty>
4.38331

> <b_epik_Metal_Only>
0

> <s_lp_Force_Field>
OPLS_2005

> <r_lp_Energy>
45.5374

> <b_lp_Chiralities_Consistent>
1

> <s_lp_Variant>
AV-unprocessed.smi:2247-5

> <Gold.Version>
5.8.1

> <Gold.Id.Protein>
6NUR|6NUR_protein|mol2

> <Gold.PLP.Fitness>
43.6261

> <Gold.PLP.PLP>
-33.1884

> <Gold.PLP.part.hbond>
-2.3806

> <Gold.PLP.part.metal>
0.0000

> <Gold.PLP.part.buried>
-4.5412

> <Gold.PLP.part.nonpolar>
-26.7039

> <Gold.PLP.part.repulsive>
0.9019

> <Gold.PLP.ligand.clash>
0.0000

> <Gold.PLP.ligand.torsion>
0.6041

> <Gold.PLP.Chemscore.Hbond>
1.8560

> <Gold.PLP.Chemscore.CHOScore>
2.0000

> <Gold.PLP.Chemscore.Metal>
0.0000

> <Gold.Chemscore.Hbonds>
donor molecule, donor type, donor heavy atom, donor atom, acceptor molecule, acceptor atom, score
      P1  H  8011  8017       L1    11  0.85
      L1  C    14    33       P1  7948  0.05
      L1  C    15    34       P1 10175  0.08

> <Gold.PLP.Chemscore.Internal.Correction>
0.0778

> <Gold.Rescore>
     Score         DG    S(hbond)    S(metal)    S(lipo)     H(rot)  DE(clash)    DE(int)     intcor
     11.93     -15.58       1.46        0.00      73.85       1.33       0.66       2.98       ----

> <Gold.Chemscore.Fitness>
11.9328

> <Gold.Chemscore.DG>
-15.5756

> <Gold.Chemscore.ZeroCoef>
-5.4800

> <Gold.Chemscore.Hbond>
1.4578

> <Gold.Chemscore.Metal>
0.0000

> <Gold.Chemscore.Lipo>
73.8545

> <Gold.Chemscore.Internal_Hbond>
0.0000

> <Gold.Chemscore.DEClash>
0.6643

> <Gold.Chemscore.DEInternal>
2.9785

> <Gold.Chemscore.Rot>
1.3338

> <Gold.Chemscore.Internal.Correction>
   9.000000E+99

> <Gold.Chemscore.Hbonds>
donor molecule, donor type, donor heavy atom, donor atom, acceptor molecule, acceptor atom, score
      P1  H  8011  8017       L1    11  0.68

> <Gold.Chemscore.Hbond.Weighted>
-4.8691

> <Gold.Chemscore.Metal.Weighted>
-0.0000

> <Gold.Chemscore.Lipo.Weighted>
-8.6410

> <Gold.Chemscore.Internal_Hbond.Weighted>
0.0000

> <Gold.Chemscore.DEClash.Weighted>
0.6643

> <Gold.Chemscore.DEInternal.Weighted>
2.9785

> <Gold.Chemscore.Rot.Weighted>
3.4145

> <Gold.Chemscore.Internal.Correction.Weighted>
   9.000000E+99

> <Gold.Protein.RotatedTorsions>
[ 6907 6896 6895 6894 ] final -121.50 input  -60.11 | X-H torsion
[ 7974 7965 7964 7962 ] final  170.93 input  175.53 | X-H torsion
[ 8008 7997 7996 7995 ] final -137.83 input   59.86 | X-H torsion
[ 10167 10162 10161 10158 ] final -114.93 input  -65.29 | X-H torsion
[ 10718 10713 10712 10709 ] final  -74.21 input   66.30 | X-H torsion
[ 10763 10752 10751 10750 ] final    8.81 input  -60.55 | X-H torsion
[ 11005 11000 10999 10996 ] final   84.22 input  -57.11 | X-H torsion

> <Gold.Protein.ActiveResidues>
 VAL166  LYS551  ARG553  GLY616  TRP617  ASP618  TYR619  PRO620  LYS621  CYS622 
 ASP623  PHE694  ASN695  SER759  ASP760  ASP761  ALA762  ILE779  LEU786  VAL792 
 PHE793  MET794  SER795  GLU796  ALA797  LYS798  CYS799  TRP800  GLU811  SER814 

> <Gold.Protein.RotatedAtoms>
  150.8489  133.7818  159.3032 H   0  0  0  0  0  0  0  0  0  0  0  0  # atno 6907 bound_to 6896
  151.5496  135.1066  159.9956 H   0  0  0  0  0  0  0  0  0  0  0  0  # atno 6908 bound_to 6896
  152.4536  133.7636  159.6816 H   0  0  0  0  0  0  0  0  0  0  0  0  # atno 6909 bound_to 6896
  144.7309  139.9275  143.6423 H   0  0  0  0  0  0  0  0  0  0  0  0  # atno 7974 bound_to 7965
  155.4183  140.0517  157.3027 H   0  0  0  0  0  0  0  0  0  0  0  0  # atno 8008 bound_to 7997
  154.4914  140.2121  155.9499 H   0  0  0  0  0  0  0  0  0  0  0  0  # atno 8009 bound_to 7997
  156.1347  140.3165  155.8408 H   0  0  0  0  0  0  0  0  0  0  0  0  # atno 8010 bound_to 7997
  140.0956  143.4659  152.1843 H   0  0  0  0  0  0  0  0  0  0  0  0  # atno 10167 bound_to 10162
  156.0251  130.4412  150.2858 H   0  0  0  0  0  0  0  0  0  0  0  0  # atno 10718 bound_to 10713
  153.2209  135.6881  153.8001 H   0  0  0  0  0  0  0  0  0  0  0  0  # atno 10763 bound_to 10752
  153.7200  135.3269  155.3265 H   0  0  0  0  0  0  0  0  0  0  0  0  # atno 10764 bound_to 10752
  154.8269  135.4611  154.1057 H   0  0  0  0  0  0  0  0  0  0  0  0  # atno 10765 bound_to 10752
  139.9007  134.8200  156.2415 H   0  0  0  0  0  0  0  0  0  0  0  0  # atno 11005 bound_to 11000
  146.0883  139.3872  143.0421 LP  0  0  0  0  0  0  0  0  0  0  0  0  # atno 17320 bound_to 7965
  145.7746  140.9882  143.1131 LP  0  0  0  0  0  0  0  0  0  0  0  0  # atno 17321 bound_to 7965
  139.5700  144.7457  151.3917 LP  0  0  0  0  0  0  0  0  0  0  0  0  # atno 17342 bound_to 10162
  140.7005  143.7643  150.7395 LP  0  0  0  0  0  0  0  0  0  0  0  0  # atno 17343 bound_to 10162
  157.0962  131.0183  151.3103 LP  0  0  0  0  0  0  0  0  0  0  0  0  # atno 17370 bound_to 10713
  157.4816  130.7768  149.7419 LP  0  0  0  0  0  0  0  0  0  0  0  0  # atno 17371 bound_to 10713
  141.0282  133.7003  156.1384 LP  0  0  0  0  0  0  0  0  0  0  0  0  # atno 17394 bound_to 11000
  140.7135  134.4435  157.5580 LP  0  0  0  0  0  0  0  0  0  0  0  0  # atno 17395 bound_to 11000

$$$$
