AV-unprocessed.smi:845|AV-procd|sdf|3929|dock4
  -GOLD-   22720 1393D 1   1.00000     0.00000
 Structure written by MMmdl.
 42 43  0  0  0  0  0  0  0  0  1 V2000
  148.7181  141.0816  156.0169 C   0  0  0  0  0  0  0  0  0  0  0  0
  148.7011  140.7191  154.5202 C   0  0  0  0  0  0  0  0  0  0  0  0
  147.5160  141.3828  153.7925 C   0  0  0  0  0  0  0  0  0  0  0  0
  148.8479  139.1793  154.2336 C   0  0  2  0  0  0  0  0  0  0  0  0
  147.4841  138.4326  154.3824 C   0  0  0  0  0  0  0  0  0  0  0  0
  147.3427  137.2981  153.4784 N   0  0  0  0  0  0  0  0  0  0  0  0
  146.2687  136.5006  153.4036 C   0  0  0  0  0  0  0  0  0  0  0  0
  145.2777  136.6245  154.1239 O   0  0  0  0  0  0  0  0  0  0  0  0
  146.4234  135.5690  152.4466 N   0  0  0  0  0  0  0  0  0  0  0  0
  145.5027  134.5694  152.0369 C   0  0  0  0  0  0  0  0  0  0  0  0
  144.1763  134.7389  151.9876 N   0  0  0  0  0  0  0  0  0  0  0  0
  143.5167  133.5896  151.5447 C   0  0  0  0  0  0  0  0  0  0  0  0
  144.3627  132.5469  151.2594 C   0  0  0  0  0  0  0  0  0  0  0  0
  146.0312  132.9699  151.5361 S   0  0  0  0  0  0  0  0  0  0  0  0
  149.9540  138.5584  155.0137 N   0  0  0  0  0  0  0  0  0  0  0  0
  149.9777  137.0916  154.9419 C   0  0  0  0  0  0  0  0  0  0  0  0
  151.1363  136.4689  155.7404 C   0  0  0  0  0  0  0  0  0  0  0  0
  152.3735  136.9905  155.2779 O   0  0  0  0  0  0  0  0  0  0  0  0
  152.4298  138.4046  155.3950 C   0  0  0  0  0  0  0  0  0  0  0  0
  151.2806  139.0358  154.5903 C   0  0  0  0  0  0  0  0  0  0  0  0
  147.8211  140.7420  156.5341 H   0  0  0  0  0  0  0  0  0  0  0  0
  148.7780  142.1617  156.1539 H   0  0  0  0  0  0  0  0  0  0  0  0
  149.5809  140.6410  156.5171 H   0  0  0  0  0  0  0  0  0  0  0  0
  149.5568  141.2439  154.1101 H   0  0  0  0  0  0  0  0  0  0  0  0
  146.5512  141.1222  154.2230 H   0  0  0  0  0  0  0  0  0  0  0  0
  147.4993  141.1118  152.7367 H   0  0  0  0  0  0  0  0  0  0  0  0
  147.5966  142.4689  153.8445 H   0  0  0  0  0  0  0  0  0  0  0  0
  149.1208  139.0798  153.1819 H   0  0  0  0  0  0  0  0  0  0  0  0
  147.3840  137.9971  155.3758 H   0  0  0  0  0  0  0  0  0  0  0  0
  146.6560  139.1337  154.2642 H   0  0  0  0  0  0  0  0  0  0  0  0
  148.1118  137.1220  152.8486 H   0  0  0  0  0  0  0  0  0  0  0  0
  147.2972  135.5853  151.9415 H   0  0  0  0  0  0  0  0  0  0  0  0
  142.4400  133.6016  151.4618 H   0  0  0  0  0  0  0  0  0  0  0  0
  144.1063  131.5599  150.9042 H   0  0  0  0  0  0  0  0  0  0  0  0
  149.0609  136.6740  155.3556 H   0  0  0  0  0  0  0  0  0  0  0  0
  150.0376  136.7707  153.9008 H   0  0  0  0  0  0  0  0  0  0  0  0
  151.0226  136.6710  156.8067 H   0  0  0  0  0  0  0  0  0  0  0  0
  151.1402  135.3855  155.6190 H   0  0  0  0  0  0  0  0  0  0  0  0
  152.3730  138.6958  156.4451 H   0  0  0  0  0  0  0  0  0  0  0  0
  153.3913  138.7530  155.0178 H   0  0  0  0  0  0  0  0  0  0  0  0
  151.4272  138.8184  153.5313 H   0  0  0  0  0  0  0  0  0  0  0  0
  151.3823  140.1114  154.6972 H   0  0  0  0  0  0  0  0  0  0  0  0
  1  2  1  0  0  0  0
  1 21  1  0  0  0  0
  1 22  1  0  0  0  0
  1 23  1  0  0  0  0
  2  3  1  0  0  0  0
  2  4  1  0  0  0  0
  2 24  1  0  0  0  0
  3 25  1  0  0  0  0
  3 26  1  0  0  0  0
  3 27  1  0  0  0  0
  4  5  1  0  0  0  0
  4 15  1  0  0  0  0
  4 28  1  0  0  0  0
  5  6  1  0  0  0  0
  5 29  1  0  0  0  0
  5 30  1  0  0  0  0
  6  7  1  0  0  0  0
  6 31  1  0  0  0  0
  7  8  2  0  0  0  0
  7  9  1  0  0  0  0
  9 10  1  0  0  0  0
  9 32  1  0  0  0  0
 10 14  1  0  0  0  0
 10 11  2  0  0  0  0
 11 12  1  0  0  0  0
 12 13  2  0  0  0  0
 12 33  1  0  0  0  0
 13 14  1  0  0  0  0
 13 34  1  0  0  0  0
 15 20  1  0  0  0  0
 15 16  1  0  0  0  0
 16 17  1  0  0  0  0
 16 35  1  0  0  0  0
 16 36  1  0  0  0  0
 17 18  1  0  0  0  0
 17 37  1  0  0  0  0
 17 38  1  0  0  0  0
 18 19  1  0  0  0  0
 19 20  1  0  0  0  0
 19 39  1  0  0  0  0
 19 40  1  0  0  0  0
 20 41  1  0  0  0  0
 20 42  1  0  0  0  0
M  END
> <s_m_source_file>
AV-unprocessed.smi

> <i_m_source_file_index>
845

> <i_lp_mmshare_version>
43012

> <i_f3d_flags>
0

> <s_epik_input>
W0NIMl0xW0NIMl1PW0NIMl1bQ0gyXU4xW0NASF0oW0NIXShbQ0gzXSlbQ0gzXSlbQ0gyXVtOSF1DKD1PKVtOSF1jMm5bY0hdW2NIXXMy

> <s_epik_cmdline>
J2VwaWtfcHl0aG9uJywgJy1waCcsICc3LjAnLCAnLXRuJywgJzgnLCAnLW1hJywgJzIwMCcsICctbWV0YWxfYmluZGluZycsICctaW1hZScsICc8aW5maWxlLm1hZT4nLCAnLW9tYWUnLCAnPG91dGZpbGUubWFlPic=

> <r_lp_tautomer_probability>
0.999

> <r_epik_Ionization_Penalty>
0.423897

> <r_epik_Ionization_Penalty_Charging>
0

> <r_epik_Ionization_Penalty_Neutral>
0.423897

> <r_epik_State_Penalty>
0.424384

> <r_epik_Charging_Adjusted_Penalty>
0.424384

> <i_epik_Tot_Q>
0

> <i_epik_Tot_abs_Q>
0

> <r_epik_Metal_State_Penalty>
0.434476

> <b_epik_Metal_Only>
0

> <s_lp_Force_Field>
OPLS_2005

> <r_lp_Energy>
36.4292

> <b_lp_Chiralities_Consistent>
1

> <s_lp_Variant>
AV-unprocessed.smi:845-3

> <Gold.Version>
5.8.1

> <Gold.Id.Protein>
6NUR|6NUR_protein|mol2

> <Gold.PLP.Fitness>
39.8962

> <Gold.PLP.PLP>
-29.8426

> <Gold.PLP.part.hbond>
-2.9420

> <Gold.PLP.part.metal>
0.0000

> <Gold.PLP.part.buried>
-4.6926

> <Gold.PLP.part.nonpolar>
-23.1085

> <Gold.PLP.part.repulsive>
0.3559

> <Gold.PLP.ligand.clash>
0.0000

> <Gold.PLP.ligand.torsion>
0.9619

> <Gold.PLP.Chemscore.Hbond>
2.8720

> <Gold.PLP.Chemscore.CHOScore>
1.0000

> <Gold.PLP.Chemscore.Metal>
0.0000

> <Gold.Chemscore.Hbonds>
donor molecule, donor type, donor heavy atom, donor atom, acceptor molecule, acceptor atom, score
      L1  H     6    31       P1  7948  1.00
      L1  H     9    32       P1  7948  0.96
      P1  H 10752 10765       L1    18  0.67
      L1  C    12    33       P1 10186  0.99

> <Gold.PLP.Chemscore.Internal.Correction>
0.3615

> <Gold.Rescore>
     Score         DG    S(hbond)    S(metal)    S(lipo)     H(rot)  DE(clash)    DE(int)     intcor
     16.64     -18.76       2.82        0.00      71.26       1.75       0.07       2.05       ----

> <Gold.Chemscore.Fitness>
16.6371

> <Gold.Chemscore.DG>
-18.7566

> <Gold.Chemscore.ZeroCoef>
-5.4800

> <Gold.Chemscore.Hbond>
2.8208

> <Gold.Chemscore.Metal>
0.0000

> <Gold.Chemscore.Lipo>
71.2585

> <Gold.Chemscore.Internal_Hbond>
0.0000

> <Gold.Chemscore.DEClash>
0.0688

> <Gold.Chemscore.DEInternal>
2.0508

> <Gold.Chemscore.Rot>
1.7509

> <Gold.Chemscore.Internal.Correction>
   9.000000E+99

> <Gold.Chemscore.Hbonds>
donor molecule, donor type, donor heavy atom, donor atom, acceptor molecule, acceptor atom, score
      L1  H     6    31       P1  7948  0.95
      L1  H     9    32       P1  7948  0.92
      P1  H 10752 10765       L1    18  0.11

> <Gold.Chemscore.Hbond.Weighted>
-9.4216

> <Gold.Chemscore.Metal.Weighted>
-0.0000

> <Gold.Chemscore.Lipo.Weighted>
-8.3372

> <Gold.Chemscore.Internal_Hbond.Weighted>
0.0000

> <Gold.Chemscore.DEClash.Weighted>
0.0688

> <Gold.Chemscore.DEInternal.Weighted>
2.0508

> <Gold.Chemscore.Rot.Weighted>
4.4823

> <Gold.Chemscore.Internal.Correction.Weighted>
   9.000000E+99

> <Gold.Protein.RotatedTorsions>
[ 6907 6896 6895 6894 ] final  -33.65 input  -60.11 | X-H torsion
[ 7974 7965 7964 7962 ] final  -29.77 input  175.53 | X-H torsion
[ 8008 7997 7996 7995 ] final  -67.22 input   59.86 | X-H torsion
[ 10167 10162 10161 10158 ] final   30.78 input  -65.29 | X-H torsion
[ 10718 10713 10712 10709 ] final -145.31 input   66.30 | X-H torsion
[ 10763 10752 10751 10750 ] final -164.99 input  -60.55 | X-H torsion
[ 11005 11000 10999 10996 ] final   32.04 input  -57.11 | X-H torsion

> <Gold.Protein.ActiveResidues>
 VAL166  LYS551  ARG553  GLY616  TRP617  ASP618  TYR619  PRO620  LYS621  CYS622 
 ASP623  PHE694  ASN695  SER759  ASP760  ASP761  ALA762  ILE779  LEU786  VAL792 
 PHE793  MET794  SER795  GLU796  ALA797  LYS798  CYS799  TRP800  GLU811  SER814 

> <Gold.Protein.RotatedAtoms>
  151.0628  134.9748  159.8268 H   0  0  0  0  0  0  0  0  0  0  0  0  # atno 6907 bound_to 6896
  152.5398  134.2396  159.8867 H   0  0  0  0  0  0  0  0  0  0  0  0  # atno 6908 bound_to 6896
  151.2417  133.4353  159.2641 H   0  0  0  0  0  0  0  0  0  0  0  0  # atno 6909 bound_to 6896
  146.1192  140.5455  142.8743 H   0  0  0  0  0  0  0  0  0  0  0  0  # atno 7974 bound_to 7965
  154.4786  140.0897  156.7322 H   0  0  0  0  0  0  0  0  0  0  0  0  # atno 8008 bound_to 7997
  155.4531  140.3458  155.4285 H   0  0  0  0  0  0  0  0  0  0  0  0  # atno 8009 bound_to 7997
  156.1155  140.1459  156.9267 H   0  0  0  0  0  0  0  0  0  0  0  0  # atno 8010 bound_to 7997
  140.4647  144.0853  150.6221 H   0  0  0  0  0  0  0  0  0  0  0  0  # atno 10167 bound_to 10162
  156.3809  130.7836  151.2028 H   0  0  0  0  0  0  0  0  0  0  0  0  # atno 10718 bound_to 10713
  154.6975  135.2982  154.9389 H   0  0  0  0  0  0  0  0  0  0  0  0  # atno 10763 bound_to 10752
  154.0332  135.6667  153.4787 H   0  0  0  0  0  0  0  0  0  0  0  0  # atno 10764 bound_to 10752
  153.0657  135.5090  154.8101 H   0  0  0  0  0  0  0  0  0  0  0  0  # atno 10765 bound_to 10752
  140.2776  134.3009  155.7809 H   0  0  0  0  0  0  0  0  0  0  0  0  # atno 11005 bound_to 11000
  144.7581  140.5356  143.6755 LP  0  0  0  0  0  0  0  0  0  0  0  0  # atno 17320 bound_to 7965
  145.5502  139.1476  143.3398 LP  0  0  0  0  0  0  0  0  0  0  0  0  # atno 17321 bound_to 7965
  140.4050  143.2685  151.9902 LP  0  0  0  0  0  0  0  0  0  0  0  0  # atno 17342 bound_to 10162
  139.4810  144.5965  151.7682 LP  0  0  0  0  0  0  0  0  0  0  0  0  # atno 17343 bound_to 10162
  157.7492  131.0344  150.4317 LP  0  0  0  0  0  0  0  0  0  0  0  0  # atno 17370 bound_to 10713
  156.4560  130.4022  149.6606 LP  0  0  0  0  0  0  0  0  0  0  0  0  # atno 17371 bound_to 10713
  141.2168  133.7505  156.9432 LP  0  0  0  0  0  0  0  0  0  0  0  0  # atno 17394 bound_to 11000
  140.1313  134.9354  157.2341 LP  0  0  0  0  0  0  0  0  0  0  0  0  # atno 17395 bound_to 11000

$$$$
