AV-unprocessed.smi:72|AV-procd|sdf|673|dock2
  -GOLD-   2262016583D 1   1.00000     0.00000
 Structure written by MMmdl.
 29 30  0  0  0  0  0  0  0  0  1 V2000
  154.1110  138.1995  155.0705 N   0  0  0  0  0  0  0  0  0  0  0  0
  152.8399  138.3474  154.9477 C   0  0  0  0  0  0  0  0  0  0  0  0
  151.9892  137.4925  154.2309 N   0  0  0  0  0  0  0  0  0  0  0  0
  150.7207  137.7631  154.1925 C   0  0  0  0  0  0  0  0  0  0  0  0
  150.1548  138.9250  154.8640 N   0  0  0  0  0  0  0  0  0  0  0  0
  148.6710  139.2484  154.8246 C   0  0  2  0  0  0  0  0  0  0  0  0
  147.9778  138.2427  154.1429 O   0  0  0  0  0  0  0  0  0  0  0  0
  147.5431  138.7197  152.8728 C   0  0  1  0  0  0  0  0  0  0  0  0
  146.3601  137.8914  152.3421 C   0  0  0  0  0  0  0  0  0  0  0  0
  146.3847  137.8629  150.9311 O   0  0  0  0  0  0  0  0  0  0  0  0
  147.2475  140.1993  153.1463 C   0  0  1  0  0  0  0  0  0  0  0  0
  145.9768  140.3645  153.7497 O   0  0  0  0  0  0  0  0  0  0  0  0
  148.3517  140.5905  154.1197 C   0  0  2  0  0  0  0  0  0  0  0  0
  149.4448  141.1396  153.4038 O   0  0  0  0  0  0  0  0  0  0  0  0
  151.0016  139.7981  155.5895 C   0  0  0  0  0  0  0  0  0  0  0  0
  150.5767  140.7997  156.1651 O   0  0  0  0  0  0  0  0  0  0  0  0
  152.3109  139.4681  155.6017 N   0  0  0  0  0  0  0  0  0  0  0  0
  148.3407  139.2231  155.8645 H   0  0  0  0  0  0  0  0  0  0  0  0
  148.3759  138.6711  152.1688 H   0  0  0  0  0  0  0  0  0  0  0  0
  147.2634  140.7934  152.2313 H   0  0  0  0  0  0  0  0  0  0  0  0
  148.0187  141.3245  154.8548 H   0  0  0  0  0  0  0  0  0  0  0  0
  154.4213  137.3760  154.5763 H   0  0  0  0  0  0  0  0  0  0  0  0
  150.0086  137.1361  153.6566 H   0  0  0  0  0  0  0  0  0  0  0  0
  146.3733  136.8765  152.7408 H   0  0  0  0  0  0  0  0  0  0  0  0
  145.4167  138.3486  152.6421 H   0  0  0  0  0  0  0  0  0  0  0  0
  145.6316  138.3334  150.6074 H   0  0  0  0  0  0  0  0  0  0  0  0
  145.3250  140.4194  153.0680 H   0  0  0  0  0  0  0  0  0  0  0  0
  149.7756  140.4801  152.8132 H   0  0  0  0  0  0  0  0  0  0  0  0
  152.9381  140.0728  156.1113 H   0  0  0  0  0  0  0  0  0  0  0  0
  1  2  2  0  0  0  0
  1 22  1  0  0  0  0
  2 17  1  0  0  0  0
  2  3  1  0  0  0  0
  3  4  2  0  0  0  0
  4  5  1  0  0  0  0
  4 23  1  0  0  0  0
  5  6  1  0  0  0  0
  5 15  1  0  0  0  0
  6 18  1  0  0  0  0
  6 13  1  0  0  0  0
  6  7  1  0  0  0  0
  7  8  1  0  0  0  0
  8 19  1  0  0  0  0
  8  9  1  0  0  0  0
  8 11  1  0  0  0  0
  9 10  1  0  0  0  0
  9 24  1  0  0  0  0
  9 25  1  0  0  0  0
 10 26  1  0  0  0  0
 11 20  1  0  0  0  0
 11 12  1  0  0  0  0
 11 13  1  0  0  0  0
 12 27  1  0  0  0  0
 13 21  1  0  0  0  0
 13 14  1  0  0  0  0
 14 28  1  0  0  0  0
 15 16  2  0  0  0  0
 15 17  1  0  0  0  0
 17 29  1  0  0  0  0
M  END
> <s_m_source_file>
AV-unprocessed.smi

> <i_m_source_file_index>
72

> <i_lp_mmshare_version>
43012

> <i_f3d_flags>
0

> <s_epik_input>
W05IMl1jMW5bY0hdbihjKD1PKW4xKVtDQEBIXTJPW0NASF0oW0NIMl1bT0hdKVtDQEBIXShbT0hdKVtDQEhdMltPSF0=

> <s_epik_cmdline>
J2VwaWtfcHl0aG9uJywgJy1waCcsICc3LjAnLCAnLXRuJywgJzgnLCAnLW1hJywgJzIwMCcsICctbWV0YWxfYmluZGluZycsICctaW1hZScsICc8aW5maWxlLm1hZT4nLCAnLW9tYWUnLCAnPG91dGZpbGUubWFlPic=

> <r_lp_tautomer_probability>
7.17554e-07

> <r_epik_Ionization_Penalty>
0.0066451

> <r_epik_Ionization_Penalty_Charging>
0.00663793

> <r_epik_Ionization_Penalty_Neutral>
7.17052e-06

> <r_epik_State_Penalty>
0.419231

> <r_epik_Charging_Adjusted_Penalty>
0.425868

> <i_epik_Tot_Q>
0

> <i_epik_Tot_abs_Q>
0

> <r_epik_Metal_State_Penalty>
1.44144

> <b_epik_Metal_Only>
0

> <s_epik_Chemistry_Notes>
This compound contains an acetal/aminal-like group ( X-CH(R)-Y where X, Y are N, S, or O) that may be acid/base labile, releasing an aldehyde.

> <s_lp_Force_Field>
OPLS_2005

> <r_lp_Energy>
44.6425

> <b_lp_Chiralities_Consistent>
1

> <s_lp_Variant>
AV-unprocessed.smi:72-11

> <Gold.Version>
5.8.1

> <Gold.Id.Protein>
6NUR|6NUR_protein|mol2

> <Gold.PLP.Fitness>
48.1898

> <Gold.PLP.PLP>
-29.2193

> <Gold.PLP.part.hbond>
-9.4551

> <Gold.PLP.part.metal>
0.0000

> <Gold.PLP.part.buried>
-0.4212

> <Gold.PLP.part.nonpolar>
-21.2502

> <Gold.PLP.part.repulsive>
0.5293

> <Gold.PLP.ligand.clash>
0.0000

> <Gold.PLP.ligand.torsion>
0.4396

> <Gold.PLP.Chemscore.Hbond>
5.5784

> <Gold.PLP.Chemscore.CHOScore>
1.0086

> <Gold.PLP.Chemscore.Metal>
0.0000

> <Gold.Chemscore.Hbonds>
donor molecule, donor type, donor heavy atom, donor atom, acceptor molecule, acceptor atom, score
      L1  H    10    26       P1 10171  1.00
      L1  H    12    27       P1 10175  1.00
      L1  H    14    28       P1  7957  0.77
      P1  H  7954  7966       L1    10  0.93
      P1  H  7997  8008       L1     1  0.21
      P1  H  8011  8017       L1    14  0.65
      P1  H 10752 10764       L1     3  0.86
      L1  C     4    23       P1  7948  1.00
      L1  C     4    23       P1  7949  0.01

> <Gold.PLP.Chemscore.Internal.Correction>
0.0889

> <Gold.Rescore>
     Score         DG    S(hbond)    S(metal)    S(lipo)     H(rot)  DE(clash)    DE(int)     intcor
     11.55     -12.34       4.17        0.00      28.36       4.06       0.15       0.64       ----

> <Gold.Chemscore.Fitness>
11.5495

> <Gold.Chemscore.DG>
-12.3388

> <Gold.Chemscore.ZeroCoef>
-5.4800

> <Gold.Chemscore.Hbond>
4.1720

> <Gold.Chemscore.Metal>
0.0000

> <Gold.Chemscore.Lipo>
28.3574

> <Gold.Chemscore.Internal_Hbond>
0.0000

> <Gold.Chemscore.DEClash>
0.1522

> <Gold.Chemscore.DEInternal>
0.6371

> <Gold.Chemscore.Rot>
4.0600

> <Gold.Chemscore.Internal.Correction>
   9.000000E+99

> <Gold.Chemscore.Hbonds>
donor molecule, donor type, donor heavy atom, donor atom, acceptor molecule, acceptor atom, score
      L1  H    10    26       P1 10171  0.99
      L1  H    12    27       P1 10175  0.92
      L1  H    14    28       P1  7957  0.76
      P1  H  7954  7966       L1    10  0.85
      P1  H  7997  8008       L1     1  0.03
      P1  H  8011  8017       L1    14  0.05
      P1  H 10752 10764       L1     3  0.40

> <Gold.Chemscore.Hbond.Weighted>
-13.9346

> <Gold.Chemscore.Metal.Weighted>
-0.0000

> <Gold.Chemscore.Lipo.Weighted>
-3.3178

> <Gold.Chemscore.Internal_Hbond.Weighted>
0.0000

> <Gold.Chemscore.DEClash.Weighted>
0.1522

> <Gold.Chemscore.DEInternal.Weighted>
0.6371

> <Gold.Chemscore.Rot.Weighted>
10.3936

> <Gold.Chemscore.Internal.Correction.Weighted>
   9.000000E+99

> <Gold.Protein.RotatedTorsions>
[ 6907 6896 6895 6894 ] final  -11.29 input  -60.11 | X-H torsion
[ 7974 7965 7964 7962 ] final  144.92 input  175.53 | X-H torsion
[ 8008 7997 7996 7995 ] final  -28.74 input   59.86 | X-H torsion
[ 10167 10162 10161 10158 ] final  174.46 input  -65.29 | X-H torsion
[ 10718 10713 10712 10709 ] final   33.94 input   66.30 | X-H torsion
[ 10763 10752 10751 10750 ] final  -84.68 input  -60.55 | X-H torsion
[ 11005 11000 10999 10996 ] final -154.17 input  -57.11 | X-H torsion

> <Gold.Protein.ActiveResidues>
 VAL166  LYS551  ARG553  GLY616  TRP617  ASP618  TYR619  PRO620  LYS621  CYS622 
 ASP623  PHE694  ASN695  SER759  ASP760  ASP761  ALA762  ILE779  LEU786  VAL792 
 PHE793  MET794  SER795  GLU796  ALA797  LYS798  CYS799  TRP800  GLU811  SER814 

> <Gold.Protein.RotatedAtoms>
  151.3885  135.0952  159.9518 H   0  0  0  0  0  0  0  0  0  0  0  0  # atno 6907 bound_to 6896
  152.5087  133.9003  159.7448 H   0  0  0  0  0  0  0  0  0  0  0  0  # atno 6908 bound_to 6896
  150.9451  133.6556  159.2811 H   0  0  0  0  0  0  0  0  0  0  0  0  # atno 6909 bound_to 6896
  144.8796  139.5720  143.5849 H   0  0  0  0  0  0  0  0  0  0  0  0  # atno 7974 bound_to 7965
  154.4319  140.1837  156.1137 H   0  0  0  0  0  0  0  0  0  0  0  0  # atno 8008 bound_to 7997
  156.0198  140.3342  155.7001 H   0  0  0  0  0  0  0  0  0  0  0  0  # atno 8009 bound_to 7997
  155.5993  140.0639  157.2728 H   0  0  0  0  0  0  0  0  0  0  0  0  # atno 8010 bound_to 7997
  139.5143  144.3144  152.0261 H   0  0  0  0  0  0  0  0  0  0  0  0  # atno 10167 bound_to 10162
  157.3041  130.7366  149.6685 H   0  0  0  0  0  0  0  0  0  0  0  0  # atno 10718 bound_to 10713
  154.6023  135.5512  153.7387 H   0  0  0  0  0  0  0  0  0  0  0  0  # atno 10763 bound_to 10752
  153.0160  135.6369  154.1697 H   0  0  0  0  0  0  0  0  0  0  0  0  # atno 10764 bound_to 10752
  154.1636  135.2896  155.3081 H   0  0  0  0  0  0  0  0  0  0  0  0  # atno 10765 bound_to 10752
  140.7002  134.3946  157.5210 H   0  0  0  0  0  0  0  0  0  0  0  0  # atno 11005 bound_to 11000
  146.2985  139.7353  142.9108 LP  0  0  0  0  0  0  0  0  0  0  0  0  # atno 17320 bound_to 7965
  145.3979  141.0381  143.3087 LP  0  0  0  0  0  0  0  0  0  0  0  0  # atno 17321 bound_to 7965
  140.2587  144.4090  150.6193 LP  0  0  0  0  0  0  0  0  0  0  0  0  # atno 17342 bound_to 10162
  140.6172  143.2173  151.6767 LP  0  0  0  0  0  0  0  0  0  0  0  0  # atno 17343 bound_to 10162
  155.9673  130.4271  150.4728 LP  0  0  0  0  0  0  0  0  0  0  0  0  # atno 17370 bound_to 10713
  157.2714  131.0588  151.2257 LP  0  0  0  0  0  0  0  0  0  0  0  0  # atno 17371 bound_to 10713
  139.8899  134.8819  156.2398 LP  0  0  0  0  0  0  0  0  0  0  0  0  # atno 17394 bound_to 11000
  141.0170  133.7063  156.1205 LP  0  0  0  0  0  0  0  0  0  0  0  0  # atno 17395 bound_to 11000

$$$$
