AV-unprocessed.smi:1326|AV-procd|sdf|5476|dock7
  -GOLD-   22720 5 43D 1   1.00000     0.00000
 Structure written by MMmdl.
 38 38  0  0  0  0  0  0  0  0  2 V2000
  147.7483  136.4167  160.9389 C   0  0  0  0  0  0  0  0  0  0  0  0
  148.3634  136.9375  159.6576 C   0  0  0  0  0  0  0  0  0  0  0  0
  147.8645  137.9745  159.1002 N   0  0  0  0  0  0  0  0  0  0  0  0
  148.4335  138.4626  157.9115 C   0  0  0  0  0  0  0  0  0  0  0  0
  147.7803  139.7000  157.3212 C   0  0  0  0  0  0  0  0  0  0  0  0
  149.5097  137.8491  157.3410 C   0  0  0  0  0  0  0  0  0  0  0  0
  150.1682  138.3412  156.0519 C   0  0  0  0  0  0  0  0  0  0  0  0
  150.8731  139.6967  156.1368 C   0  0  0  0  0  0  0  0  0  0  0  0
  151.4883  140.1328  155.1638 O   0  0  0  0  0  0  0  0  0  0  0  0
  150.7588  140.3616  157.2970 N   0  0  0  0  0  0  0  0  0  0  0  0
  151.3113  141.6824  157.5695 C   0  0  0  0  0  0  0  0  0  0  0  0
  151.8459  141.7725  159.0106 C   0  0  0  0  0  0  0  0  0  0  0  0
  152.0741  143.2129  159.5119 C   0  0  0  0  0  0  0  0  0  0  0  0
  152.8709  144.0664  158.5107 C   0  0  0  0  0  0  0  0  0  0  0  0
  152.7722  143.2050  160.8804 C   0  0  0  0  0  0  0  0  0  0  0  0
  150.0490  136.6516  158.0105 C   0  0  0  0  0  0  0  0  0  0  0  0
  151.0058  136.0482  157.5261 O   0  0  0  0  0  0  0  0  0  0  0  0
  149.4439  136.2432  159.1616 N   0  5  0  0  0  0  0  0  0  0  0  0
  147.0101  137.1162  161.3338 H   0  0  0  0  0  0  0  0  0  0  0  0
  148.5172  136.2697  161.6982 H   0  0  0  0  0  0  0  0  0  0  0  0
  147.2537  135.4621  160.7578 H   0  0  0  0  0  0  0  0  0  0  0  0
  147.4761  139.5199  156.2899 H   0  0  0  0  0  0  0  0  0  0  0  0
  148.4734  140.5413  157.3373 H   0  0  0  0  0  0  0  0  0  0  0  0
  146.8926  139.9864  157.8862 H   0  0  0  0  0  0  0  0  0  0  0  0
  150.8954  137.5970  155.7270 H   0  0  0  0  0  0  0  0  0  0  0  0
  149.4410  138.3823  155.2404 H   0  0  0  0  0  0  0  0  0  0  0  0
  150.2339  139.9235  158.0411 H   0  0  0  0  0  0  0  0  0  0  0  0
  152.1131  141.8545  156.8522 H   0  0  0  0  0  0  0  0  0  0  0  0
  150.5598  142.4526  157.3882 H   0  0  0  0  0  0  0  0  0  0  0  0
  151.1312  141.2820  159.6733 H   0  0  0  0  0  0  0  0  0  0  0  0
  152.7728  141.2029  159.0946 H   0  0  0  0  0  0  0  0  0  0  0  0
  151.0988  143.6814  159.6497 H   0  0  0  0  0  0  0  0  0  0  0  0
  153.8412  143.6191  158.2930 H   0  0  0  0  0  0  0  0  0  0  0  0
  153.0493  145.0672  158.9048 H   0  0  0  0  0  0  0  0  0  0  0  0
  152.3378  144.1846  157.5679 H   0  0  0  0  0  0  0  0  0  0  0  0
  153.7572  142.7406  160.8200 H   0  0  0  0  0  0  0  0  0  0  0  0
  152.1887  142.6530  161.6177 H   0  0  0  0  0  0  0  0  0  0  0  0
  152.9048  144.2179  161.2611 H   0  0  0  0  0  0  0  0  0  0  0  0
  1  2  1  0  0  0  0
  1 19  1  0  0  0  0
  1 20  1  0  0  0  0
  1 21  1  0  0  0  0
  2 18  1  0  0  0  0
  2  3  2  0  0  0  0
  3  4  1  0  0  0  0
  4  5  1  0  0  0  0
  4  6  2  0  0  0  0
  5 22  1  0  0  0  0
  5 23  1  0  0  0  0
  5 24  1  0  0  0  0
  6  7  1  0  0  0  0
  6 16  1  0  0  0  0
  7  8  1  0  0  0  0
  7 25  1  0  0  0  0
  7 26  1  0  0  0  0
  8  9  2  0  0  0  0
  8 10  1  0  0  0  0
 10 11  1  0  0  0  0
 10 27  1  0  0  0  0
 11 12  1  0  0  0  0
 11 28  1  0  0  0  0
 11 29  1  0  0  0  0
 12 13  1  0  0  0  0
 12 30  1  0  0  0  0
 12 31  1  0  0  0  0
 13 14  1  0  0  0  0
 13 15  1  0  0  0  0
 13 32  1  0  0  0  0
 14 33  1  0  0  0  0
 14 34  1  0  0  0  0
 14 35  1  0  0  0  0
 15 36  1  0  0  0  0
 15 37  1  0  0  0  0
 15 38  1  0  0  0  0
 16 17  2  0  0  0  0
 16 18  1  0  0  0  0
M  CHG  1  18  -1
M  END
> <s_m_source_file>
AV-unprocessed.smi

> <i_m_source_file_index>
1326

> <i_lp_mmshare_version>
43012

> <i_f3d_flags>
0

> <s_epik_input>
W0NIM11jMW5jKFtDSDNdKWMoYyg9TylbbkhdMSlbQ0gyXUMoPU8pW05IXVtDSDJdW0NIMl1bQ0hdKFtDSDNdKVtDSDNd

> <s_epik_cmdline>
J2VwaWtfcHl0aG9uJywgJy1waCcsICc3LjAnLCAnLXRuJywgJzgnLCAnLW1hJywgJzIwMCcsICctbWV0YWxfYmluZGluZycsICctaW1hZScsICc8aW5maWxlLm1hZT4nLCAnLW9tYWUnLCAnPG91dGZpbGUubWFlPic=

> <r_lp_tautomer_probability>
0.839158

> <r_epik_Ionization_Penalty>
6.68288

> <r_epik_Ionization_Penalty_Charging>
7.3825e-08

> <r_epik_Ionization_Penalty_Neutral>
6.68288

> <r_epik_State_Penalty>
4.52336

> <r_epik_Charging_Adjusted_Penalty>
4.52336

> <i_epik_Tot_Q>
-1

> <i_epik_Tot_abs_Q>
1

> <r_epik_Metal_State_Penalty>
0.854958

> <b_epik_Metal_Only>
1

> <s_lp_Force_Field>
OPLS_2005

> <r_lp_Energy>
8.11969

> <b_lp_Chiralities_Consistent>
1

> <s_lp_Variant>
AV-unprocessed.smi:1326-3

> <Gold.Version>
5.8.1

> <Gold.Id.Protein>
6NUR|6NUR_protein|mol2

> <Gold.PLP.Fitness>
39.3185

> <Gold.PLP.PLP>
-30.1522

> <Gold.PLP.part.hbond>
-3.5839

> <Gold.PLP.part.metal>
0.0000

> <Gold.PLP.part.buried>
-5.0920

> <Gold.PLP.part.nonpolar>
-21.9932

> <Gold.PLP.part.repulsive>
0.0664

> <Gold.PLP.ligand.clash>
0.0000

> <Gold.PLP.ligand.torsion>
0.3301

> <Gold.PLP.Chemscore.Hbond>
3.2665

> <Gold.PLP.Chemscore.CHOScore>
0.0000

> <Gold.PLP.Chemscore.Metal>
0.0000

> <Gold.Chemscore.Hbonds>
donor molecule, donor type, donor heavy atom, donor atom, acceptor molecule, acceptor atom, score
      P1  H  6896  6908       L1    18  1.70
      P1  H  6934  6947       L1     3  0.23
      P1  H  7989  7998       L1     9  1.00

> <Gold.PLP.Chemscore.Internal.Correction>
0.0270

> <Gold.Rescore>
     Score         DG    S(hbond)    S(metal)    S(lipo)     H(rot)  DE(clash)    DE(int)     intcor
     14.68     -14.98       1.91        0.00      66.82       1.83       0.00       0.30       ----

> <Gold.Chemscore.Fitness>
14.6768

> <Gold.Chemscore.DG>
-14.9780

> <Gold.Chemscore.ZeroCoef>
-5.4800

> <Gold.Chemscore.Hbond>
1.9057

> <Gold.Chemscore.Metal>
0.0000

> <Gold.Chemscore.Lipo>
66.8240

> <Gold.Chemscore.Internal_Hbond>
0.0000

> <Gold.Chemscore.DEClash>
0.0000

> <Gold.Chemscore.DEInternal>
0.3012

> <Gold.Chemscore.Rot>
1.8302

> <Gold.Chemscore.Internal.Correction>
   9.000000E+99

> <Gold.Chemscore.Hbonds>
donor molecule, donor type, donor heavy atom, donor atom, acceptor molecule, acceptor atom, score
      P1  H  6896  6908       L1    18  0.14
      P1  H  6934  6947       L1     3  0.06
      P1  H  7989  7998       L1     9  0.96

> <Gold.Chemscore.Hbond.Weighted>
-6.3650

> <Gold.Chemscore.Metal.Weighted>
-0.0000

> <Gold.Chemscore.Lipo.Weighted>
-7.8184

> <Gold.Chemscore.Internal_Hbond.Weighted>
0.0000

> <Gold.Chemscore.DEClash.Weighted>
0.0000

> <Gold.Chemscore.DEInternal.Weighted>
0.3012

> <Gold.Chemscore.Rot.Weighted>
4.6854

> <Gold.Chemscore.Internal.Correction.Weighted>
   9.000000E+99

> <Gold.Protein.RotatedTorsions>
[ 6907 6896 6895 6894 ] final -173.98 input  -60.11 | X-H torsion
[ 7974 7965 7964 7962 ] final  117.39 input  175.53 | X-H torsion
[ 8008 7997 7996 7995 ] final  127.49 input   59.86 | X-H torsion
[ 10167 10162 10161 10158 ] final -130.05 input  -65.29 | X-H torsion
[ 10718 10713 10712 10709 ] final   70.78 input   66.30 | X-H torsion
[ 10763 10752 10751 10750 ] final  170.97 input  -60.55 | X-H torsion
[ 11005 11000 10999 10996 ] final   37.23 input  -57.11 | X-H torsion

> <Gold.Protein.ActiveResidues>
 VAL166  LYS551  ARG553  GLY616  TRP617  ASP618  TYR619  PRO620  LYS621  CYS622 
 ASP623  PHE694  ASN695  SER759  ASP760  ASP761  ALA762  ILE779  LEU786  VAL792 
 PHE793  MET794  SER795  GLU796  ALA797  LYS798  CYS799  TRP800  GLU811  SER814 

> <Gold.Protein.RotatedAtoms>
  151.5649  133.3398  159.2977 H   0  0  0  0  0  0  0  0  0  0  0  0  # atno 6907 bound_to 6896
  150.8401  134.7693  159.6936 H   0  0  0  0  0  0  0  0  0  0  0  0  # atno 6908 bound_to 6896
  152.4470  134.5480  159.9910 H   0  0  0  0  0  0  0  0  0  0  0  0  # atno 6909 bound_to 6896
  145.1680  139.3117  143.4482 H   0  0  0  0  0  0  0  0  0  0  0  0  # atno 7974 bound_to 7965
  156.2892  140.2667  156.2282 H   0  0  0  0  0  0  0  0  0  0  0  0  # atno 8008 bound_to 7997
  155.0099  140.0387  157.2413 H   0  0  0  0  0  0  0  0  0  0  0  0  # atno 8009 bound_to 7997
  154.7527  140.2746  155.6284 H   0  0  0  0  0  0  0  0  0  0  0  0  # atno 8010 bound_to 7997
  139.9334  143.6246  152.2523 H   0  0  0  0  0  0  0  0  0  0  0  0  # atno 10167 bound_to 10162
  157.6417  130.9494  150.0698 H   0  0  0  0  0  0  0  0  0  0  0  0  # atno 10718 bound_to 10713
  154.4053  135.2755  155.2071 H   0  0  0  0  0  0  0  0  0  0  0  0  # atno 10763 bound_to 10752
  154.4080  135.6029  153.5939 H   0  0  0  0  0  0  0  0  0  0  0  0  # atno 10764 bound_to 10752
  152.9831  135.5942  154.4327 H   0  0  0  0  0  0  0  0  0  0  0  0  # atno 10765 bound_to 10752
  140.2247  134.3599  155.7989 H   0  0  0  0  0  0  0  0  0  0  0  0  # atno 11005 bound_to 11000
  146.3473  140.1815  142.8589 LP  0  0  0  0  0  0  0  0  0  0  0  0  # atno 17320 bound_to 7965
  145.0262  140.8834  143.5137 LP  0  0  0  0  0  0  0  0  0  0  0  0  # atno 17321 bound_to 7965
  139.6763  144.7658  151.1689 LP  0  0  0  0  0  0  0  0  0  0  0  0  # atno 17342 bound_to 10162
  140.7631  143.5790  150.8915 LP  0  0  0  0  0  0  0  0  0  0  0  0  # atno 17343 bound_to 10162
  156.1705  130.3646  149.9171 LP  0  0  0  0  0  0  0  0  0  0  0  0  # atno 17370 bound_to 10713
  156.7148  130.8984  151.3613 LP  0  0  0  0  0  0  0  0  0  0  0  0  # atno 17371 bound_to 10713
  141.2221  133.7212  156.8633 LP  0  0  0  0  0  0  0  0  0  0  0  0  # atno 17394 bound_to 11000
  140.1813  134.9031  157.2952 LP  0  0  0  0  0  0  0  0  0  0  0  0  # atno 17395 bound_to 11000

$$$$
