AV-unprocessed.smi:3290|AV-procd|sdf|12613|dock1
  -GOLD-   2272018543D 1   1.00000     0.00000
 Structure written by MMmdl.
 43 44  0  0  0  0  0  0  0  0  2 V2000
  143.4904  133.2055  151.3188 C   0  0  0  0  0  0  0  0  0  0  0  0
  144.8727  133.4092  150.6658 C   0  0  2  0  0  0  0  0  0  0  0  0
  145.5416  132.0616  150.3210 C   0  0  0  0  0  0  0  0  0  0  0  0
  146.0487  131.3237  151.5714 C   0  0  0  0  0  0  0  0  0  0  0  0
  146.9964  132.2092  152.3932 C   0  0  0  0  0  0  0  0  0  0  0  0
  146.3432  133.5539  152.7516 C   0  0  0  0  0  0  0  0  0  0  0  0
  145.8429  134.2964  151.4916 C   0  0  2  0  0  0  0  0  0  0  0  0
  145.2474  135.6797  151.8234 C   0  0  0  0  0  0  0  0  0  0  0  0
  146.0919  136.4196  152.7821 N   0  3  0  0  0  0  0  0  0  0  0  0
  145.6734  137.8192  152.9996 C   0  0  0  0  0  0  0  0  0  0  0  0
  146.5602  138.8017  152.2147 C   0  0  2  0  0  0  0  0  0  0  0  0
  147.3936  138.0641  151.3418 O   0  0  0  0  0  0  0  0  0  0  0  0
  147.3713  139.6829  153.1515 C   0  0  0  0  0  0  0  0  0  0  0  0
  148.3847  139.1263  153.9600 C   0  0  0  0  0  0  0  0  0  0  0  0
  149.1128  139.9811  154.8117 C   0  0  0  0  0  0  0  0  0  0  0  0
  148.8926  141.3107  154.8924 N   0  0  0  0  0  0  0  0  0  0  0  0
  147.9232  141.8389  154.1154 C   0  0  0  0  0  0  0  0  0  0  0  0
  147.1375  141.0729  153.2312 C   0  0  0  0  0  0  0  0  0  0  0  0
  143.5627  132.7496  152.3058 H   0  0  0  0  0  0  0  0  0  0  0  0
  142.8646  132.5563  150.7055 H   0  0  0  0  0  0  0  0  0  0  0  0
  142.9556  134.1488  151.4277 H   0  0  0  0  0  0  0  0  0  0  0  0
  144.6900  133.9200  149.7192 H   0  0  0  0  0  0  0  0  0  0  0  0
  144.8489  131.4249  149.7693 H   0  0  0  0  0  0  0  0  0  0  0  0
  146.3830  132.2399  149.6499 H   0  0  0  0  0  0  0  0  0  0  0  0
  145.2054  131.0138  152.1893 H   0  0  0  0  0  0  0  0  0  0  0  0
  146.5618  130.4080  151.2764 H   0  0  0  0  0  0  0  0  0  0  0  0
  147.2970  131.6874  153.3022 H   0  0  0  0  0  0  0  0  0  0  0  0
  147.9097  132.3886  151.8248 H   0  0  0  0  0  0  0  0  0  0  0  0
  145.5184  133.3885  153.4453 H   0  0  0  0  0  0  0  0  0  0  0  0
  147.0690  134.1659  153.2875 H   0  0  0  0  0  0  0  0  0  0  0  0
  146.7124  134.4719  150.8555 H   0  0  0  0  0  0  0  0  0  0  0  0
  145.1619  136.2738  150.9124 H   0  0  0  0  0  0  0  0  0  0  0  0
  144.2429  135.5762  152.2355 H   0  0  0  0  0  0  0  0  0  0  0  0
  146.0637  135.9403  153.6712 H   0  0  0  0  0  0  0  0  0  0  0  0
  144.6361  137.9237  152.6786 H   0  0  0  0  0  0  0  0  0  0  0  0
  145.7026  138.0476  154.0665 H   0  0  0  0  0  0  0  0  0  0  0  0
  145.9286  139.4427  151.5976 H   0  0  0  0  0  0  0  0  0  0  0  0
  147.8015  137.3676  151.8345 H   0  0  0  0  0  0  0  0  0  0  0  0
  148.6030  138.0688  153.9339 H   0  0  0  0  0  0  0  0  0  0  0  0
  149.8934  139.5857  155.4446 H   0  0  0  0  0  0  0  0  0  0  0  0
  147.7691  142.9045  154.2002 H   0  0  0  0  0  0  0  0  0  0  0  0
  146.3746  141.5463  152.6305 H   0  0  0  0  0  0  0  0  0  0  0  0
  147.0436  136.4166  152.4444 H   0  0  0  0  0  0  0  0  0  0  0  0
  1  2  1  0  0  0  0
  1 19  1  0  0  0  0
  1 20  1  0  0  0  0
  1 21  1  0  0  0  0
  2  7  1  0  0  0  0
  2  3  1  0  0  0  0
  2 22  1  0  0  0  0
  3  4  1  0  0  0  0
  3 23  1  0  0  0  0
  3 24  1  0  0  0  0
  4  5  1  0  0  0  0
  4 25  1  0  0  0  0
  4 26  1  0  0  0  0
  5  6  1  0  0  0  0
  5 27  1  0  0  0  0
  5 28  1  0  0  0  0
  6  7  1  0  0  0  0
  6 29  1  0  0  0  0
  6 30  1  0  0  0  0
  7  8  1  0  0  0  0
  7 31  1  0  0  0  0
  8  9  1  0  0  0  0
  8 32  1  0  0  0  0
  8 33  1  0  0  0  0
  9 10  1  0  0  0  0
  9 34  1  0  0  0  0
  9 43  1  0  0  0  0
 10 11  1  0  0  0  0
 10 35  1  0  0  0  0
 10 36  1  0  0  0  0
 11 12  1  0  0  0  0
 11 13  1  0  0  0  0
 11 37  1  0  0  0  0
 12 38  1  0  0  0  0
 13 18  1  0  0  0  0
 13 14  2  0  0  0  0
 14 15  1  0  0  0  0
 14 39  1  0  0  0  0
 15 16  2  0  0  0  0
 15 40  1  0  0  0  0
 16 17  1  0  0  0  0
 17 18  2  0  0  0  0
 17 41  1  0  0  0  0
 18 42  1  0  0  0  0
M  CHG  1   9   1
M  END
> <s_m_source_file>
AV-unprocessed.smi

> <i_m_source_file_index>
3290

> <i_lp_mmshare_version>
43012

> <i_f3d_flags>
0

> <s_epik_input>
W0NIM11bQ0BASF0xW0NIMl1bQ0gyXVtDSDJdW0NIMl1bQ0BIXTFbQ0gyXVtOSF1bQ0gyXVtDQEhdKFtPSF0pYzJbY0hdW2NIXW5bY0hdW2NIXTI=

> <s_epik_cmdline>
J2VwaWtfcHl0aG9uJywgJy1waCcsICc3LjAnLCAnLXRuJywgJzgnLCAnLW1hJywgJzIwMCcsICctbWV0YWxfYmluZGluZycsICctaW1hZScsICc8aW5maWxlLm1hZT4nLCAnLW9tYWUnLCAnPG91dGZpbGUubWFlPic=

> <r_lp_tautomer_probability>
1

> <r_epik_Ionization_Penalty>
0.00420552

> <r_epik_Ionization_Penalty_Charging>
0.00207255

> <r_epik_Ionization_Penalty_Neutral>
0.00213297

> <r_epik_State_Penalty>
-0

> <r_epik_Charging_Adjusted_Penalty>
0.00207255

> <i_epik_Tot_Q>
1

> <i_epik_Tot_abs_Q>
1

> <r_epik_Metal_State_Penalty>
-0

> <b_epik_Metal_Only>
0

> <s_lp_Force_Field>
OPLS_2005

> <r_lp_Energy>
18.6683

> <b_lp_Chiralities_Consistent>
1

> <s_lp_Variant>
AV-unprocessed.smi:3290-3

> <Gold.Version>
5.8.1

> <Gold.Id.Protein>
6NUR|6NUR_protein|mol2

> <Gold.PLP.Fitness>
49.2916

> <Gold.PLP.PLP>
-37.0028

> <Gold.PLP.part.hbond>
-3.6465

> <Gold.PLP.part.metal>
0.0000

> <Gold.PLP.part.buried>
-3.0929

> <Gold.PLP.part.nonpolar>
-30.9226

> <Gold.PLP.part.repulsive>
0.1399

> <Gold.PLP.ligand.clash>
0.0000

> <Gold.PLP.ligand.torsion>
1.1782

> <Gold.PLP.Chemscore.Hbond>
3.8620

> <Gold.PLP.Chemscore.CHOScore>
0.9981

> <Gold.PLP.Chemscore.Metal>
0.0000

> <Gold.Chemscore.Hbonds>
donor molecule, donor type, donor heavy atom, donor atom, acceptor molecule, acceptor atom, score
      L1  H     9    43       P1  7948  2.00
      L1  H    12    38       P1  7948  0.90
      P1  H  7954  7966       L1    12  0.95
      L1  C    17    41       P1  8028  0.98

> <Gold.PLP.Chemscore.Internal.Correction>
0.0649

> <Gold.Rescore>
     Score         DG    S(hbond)    S(metal)    S(lipo)     H(rot)  DE(clash)    DE(int)     intcor
     18.79     -19.99       2.37        0.00     101.35       2.05       0.06       1.13       ----

> <Gold.Chemscore.Fitness>
18.7942

> <Gold.Chemscore.DG>
-19.9941

> <Gold.Chemscore.ZeroCoef>
-5.4800

> <Gold.Chemscore.Hbond>
2.3663

> <Gold.Chemscore.Metal>
0.0000

> <Gold.Chemscore.Lipo>
101.3508

> <Gold.Chemscore.Internal_Hbond>
0.0000

> <Gold.Chemscore.DEClash>
0.0650

> <Gold.Chemscore.DEInternal>
1.1350

> <Gold.Chemscore.Rot>
2.0498

> <Gold.Chemscore.Internal.Correction>
   9.000000E+99

> <Gold.Chemscore.Hbonds>
donor molecule, donor type, donor heavy atom, donor atom, acceptor molecule, acceptor atom, score
      L1  H     9    43       P1  7948  0.97
      L1  H    12    38       P1  7948  0.85
      P1  H  7954  7966       L1    12  0.21

> <Gold.Chemscore.Hbond.Weighted>
-7.9036

> <Gold.Chemscore.Metal.Weighted>
-0.0000

> <Gold.Chemscore.Lipo.Weighted>
-11.8580

> <Gold.Chemscore.Internal_Hbond.Weighted>
0.0000

> <Gold.Chemscore.DEClash.Weighted>
0.0650

> <Gold.Chemscore.DEInternal.Weighted>
1.1350

> <Gold.Chemscore.Rot.Weighted>
5.2475

> <Gold.Chemscore.Internal.Correction.Weighted>
   9.000000E+99

> <Gold.Protein.RotatedTorsions>
[ 6907 6896 6895 6894 ] final -102.01 input  -60.11 | X-H torsion
[ 7974 7965 7964 7962 ] final  -27.77 input  175.53 | X-H torsion
[ 8008 7997 7996 7995 ] final   47.29 input   59.86 | X-H torsion
[ 10167 10162 10161 10158 ] final  -42.29 input  -65.29 | X-H torsion
[ 10718 10713 10712 10709 ] final  -55.51 input   66.30 | X-H torsion
[ 10763 10752 10751 10750 ] final   62.32 input  -60.55 | X-H torsion
[ 11005 11000 10999 10996 ] final   -3.61 input  -57.11 | X-H torsion

> <Gold.Protein.ActiveResidues>
 VAL166  LYS551  ARG553  GLY616  TRP617  ASP618  TYR619  PRO620  LYS621  CYS622 
 ASP623  PHE694  ASN695  SER759  ASP760  ASP761  ALA762  ILE779  LEU786  VAL792 
 PHE793  MET794  SER795  GLU796  ALA797  LYS798  CYS799  TRP800  GLU811  SER814 

> <Gold.Protein.RotatedAtoms>
  150.7178  134.0646  159.3842 H   0  0  0  0  0  0  0  0  0  0  0  0  # atno 6907 bound_to 6896
  151.8627  135.0516  160.0480 H   0  0  0  0  0  0  0  0  0  0  0  0  # atno 6908 bound_to 6896
  152.2705  133.5342  159.5472 H   0  0  0  0  0  0  0  0  0  0  0  0  # atno 6909 bound_to 6896
  146.1335  140.5195  142.8683 H   0  0  0  0  0  0  0  0  0  0  0  0  # atno 7974 bound_to 7965
  155.3666  140.3421  155.4242 H   0  0  0  0  0  0  0  0  0  0  0  0  # atno 8008 bound_to 7997
  156.1685  140.1624  156.8523 H   0  0  0  0  0  0  0  0  0  0  0  0  # atno 8009 bound_to 7997
  154.5209  140.0767  156.8153 H   0  0  0  0  0  0  0  0  0  0  0  0  # atno 8010 bound_to 7997
  140.6974  143.3046  151.3187 H   0  0  0  0  0  0  0  0  0  0  0  0  # atno 10167 bound_to 10162
  156.1363  130.4156  150.0180 H   0  0  0  0  0  0  0  0  0  0  0  0  # atno 10718 bound_to 10713
  152.9979  135.5469  154.6174 H   0  0  0  0  0  0  0  0  0  0  0  0  # atno 10763 bound_to 10752
  154.5481  135.2824  155.1036 H   0  0  0  0  0  0  0  0  0  0  0  0  # atno 10764 bound_to 10752
  154.2286  135.6437  153.5220 H   0  0  0  0  0  0  0  0  0  0  0  0  # atno 10765 bound_to 10752
  140.6713  133.9234  155.8496 H   0  0  0  0  0  0  0  0  0  0  0  0  # atno 11005 bound_to 11000
  144.7715  140.5647  143.6667 LP  0  0  0  0  0  0  0  0  0  0  0  0  # atno 17320 bound_to 7965
  145.5209  139.1477  143.3553 LP  0  0  0  0  0  0  0  0  0  0  0  0  # atno 17321 bound_to 7965
  139.6447  144.0473  152.2581 LP  0  0  0  0  0  0  0  0  0  0  0  0  # atno 17342 bound_to 10162
  139.9990  144.6307  150.7746 LP  0  0  0  0  0  0  0  0  0  0  0  0  # atno 17343 bound_to 10162
  156.8079  130.9314  151.3645 LP  0  0  0  0  0  0  0  0  0  0  0  0  # atno 17370 bound_to 10713
  157.6535  130.8904  149.9681 LP  0  0  0  0  0  0  0  0  0  0  0  0  # atno 17371 bound_to 10713
  141.0390  134.0648  157.3925 LP  0  0  0  0  0  0  0  0  0  0  0  0  # atno 17394 bound_to 11000
  139.8981  135.0153  156.7131 LP  0  0  0  0  0  0  0  0  0  0  0  0  # atno 17395 bound_to 11000

$$$$
