AV-unprocessed.smi:2051|AV-procd|sdf|8326|dock7
  -GOLD-   2272010593D 1   1.00000     0.00000
 Structure written by MMmdl.
 33 34  0  0  0  0  0  0  0  0  1 V2000
  150.5815  141.0409  157.9955 O   0  0  0  0  0  0  0  0  0  0  0  0
  150.6630  142.0681  157.3209 C   0  0  0  0  0  0  0  0  0  0  0  0
  151.5509  143.2338  157.7775 C   0  0  0  0  0  0  0  0  0  0  0  0
  151.9784  143.1140  159.1814 N   0  0  0  0  0  0  0  0  0  0  0  0
  151.6381  144.1698  160.0502 C   0  0  0  0  0  0  0  0  0  0  0  0
  151.9815  144.1602  161.3479 C   0  0  0  0  0  0  0  0  0  0  0  0
  152.7210  143.0265  161.8499 C   0  0  0  0  0  0  0  0  0  0  0  0
  153.0546  142.0126  161.0269 C   0  0  0  0  0  0  0  0  0  0  0  0
  152.6828  142.0198  159.6073 C   0  0  0  0  0  0  0  0  0  0  0  0
  152.9860  141.0990  158.8476 O   0  0  0  0  0  0  0  0  0  0  0  0
  150.0103  142.2426  156.1619 N   0  0  0  0  0  0  0  0  0  0  0  0
  149.0843  141.2888  155.5601 C   0  0  0  0  0  0  0  0  0  0  0  0
  149.8204  140.2536  154.6920 C   0  0  2  0  0  0  0  0  0  0  0  0
  149.4314  138.7961  154.9444 C   0  0  0  0  0  0  0  0  0  0  0  0
  150.6607  138.0666  154.4546 C   0  0  0  0  0  0  0  0  0  0  0  0
  151.7791  138.9938  154.9220 C   0  0  0  0  0  0  0  0  0  0  0  0
  151.2221  140.3065  154.9434 O   0  0  0  0  0  0  0  0  0  0  0  0
  152.4141  143.2826  157.1126 H   0  0  0  0  0  0  0  0  0  0  0  0
  151.0230  144.1785  157.6318 H   0  0  0  0  0  0  0  0  0  0  0  0
  151.0914  144.9832  159.5958 H   0  0  0  0  0  0  0  0  0  0  0  0
  151.7153  144.9803  161.9982 H   0  0  0  0  0  0  0  0  0  0  0  0
  153.0095  142.9920  162.8902 H   0  0  0  0  0  0  0  0  0  0  0  0
  153.6090  141.1730  161.4200 H   0  0  0  0  0  0  0  0  0  0  0  0
  150.1440  143.1148  155.6711 H   0  0  0  0  0  0  0  0  0  0  0  0
  148.5629  140.7775  156.3695 H   0  0  0  0  0  0  0  0  0  0  0  0
  148.3151  141.7992  154.9781 H   0  0  0  0  0  0  0  0  0  0  0  0
  149.6722  140.4838  153.6356 H   0  0  0  0  0  0  0  0  0  0  0  0
  149.2910  138.6135  156.0107 H   0  0  0  0  0  0  0  0  0  0  0  0
  148.5207  138.4997  154.4226 H   0  0  0  0  0  0  0  0  0  0  0  0
  150.7491  137.0557  154.8532 H   0  0  0  0  0  0  0  0  0  0  0  0
  150.6505  138.0065  153.3655 H   0  0  0  0  0  0  0  0  0  0  0  0
  152.0899  138.7355  155.9349 H   0  0  0  0  0  0  0  0  0  0  0  0
  152.6557  138.9434  154.2757 H   0  0  0  0  0  0  0  0  0  0  0  0
  1  2  2  0  0  0  0
  2  3  1  0  0  0  0
  2 11  1  0  0  0  0
  3  4  1  0  0  0  0
  3 18  1  0  0  0  0
  3 19  1  0  0  0  0
  4  9  1  0  0  0  0
  4  5  1  0  0  0  0
  5  6  2  0  0  0  0
  5 20  1  0  0  0  0
  6  7  1  0  0  0  0
  6 21  1  0  0  0  0
  7  8  2  0  0  0  0
  7 22  1  0  0  0  0
  8  9  1  0  0  0  0
  8 23  1  0  0  0  0
  9 10  2  0  0  0  0
 11 12  1  0  0  0  0
 11 24  1  0  0  0  0
 12 13  1  0  0  0  0
 12 25  1  0  0  0  0
 12 26  1  0  0  0  0
 13 17  1  0  0  0  0
 13 14  1  0  0  0  0
 13 27  1  0  0  0  0
 14 15  1  0  0  0  0
 14 28  1  0  0  0  0
 14 29  1  0  0  0  0
 15 16  1  0  0  0  0
 15 30  1  0  0  0  0
 15 31  1  0  0  0  0
 16 17  1  0  0  0  0
 16 32  1  0  0  0  0
 16 33  1  0  0  0  0
M  END
> <s_m_source_file>
AV-unprocessed.smi

> <i_m_source_file_index>
2051

> <i_lp_mmshare_version>
43012

> <i_f3d_flags>
0

> <s_epik_input>
TzFbQ0gyXVtDSDJdW0NIMl1bQ0BIXTFbQ0gyXVtOSF1DKD1PKVtDSDJdbjJbY0hdW2NIXVtjSF1bY0hdYzI9Tw==

> <s_epik_cmdline>
J2VwaWtfcHl0aG9uJywgJy1waCcsICc3LjAnLCAnLXRuJywgJzgnLCAnLW1hJywgJzIwMCcsICctbWV0YWxfYmluZGluZycsICctaW1hZScsICc8aW5maWxlLm1hZT4nLCAnLW9tYWUnLCAnPG91dGZpbGUubWFlPic=

> <r_lp_tautomer_probability>
1

> <r_epik_Ionization_Penalty>
3.94187e-07

> <r_epik_Ionization_Penalty_Charging>
3.67328e-07

> <r_epik_Ionization_Penalty_Neutral>
2.6859e-08

> <r_epik_State_Penalty>
-0

> <r_epik_Charging_Adjusted_Penalty>
3.67328e-07

> <i_epik_Tot_Q>
0

> <i_epik_Tot_abs_Q>
0

> <r_epik_Metal_State_Penalty>
-0

> <b_epik_Metal_Only>
0

> <s_lp_Force_Field>
OPLS_2005

> <r_lp_Energy>
26.4026

> <b_lp_Chiralities_Consistent>
1

> <s_lp_Variant>
AV-unprocessed.smi:2051-1

> <Gold.Version>
5.8.1

> <Gold.Id.Protein>
6NUR|6NUR_protein|mol2

> <Gold.PLP.Fitness>
44.8479

> <Gold.PLP.PLP>
-42.1157

> <Gold.PLP.part.hbond>
-2.1306

> <Gold.PLP.part.metal>
0.0000

> <Gold.PLP.part.buried>
-3.9079

> <Gold.PLP.part.nonpolar>
-36.2428

> <Gold.PLP.part.repulsive>
0.1746

> <Gold.PLP.ligand.clash>
0.0000

> <Gold.PLP.ligand.torsion>
1.0230

> <Gold.PLP.Chemscore.Hbond>
1.5920

> <Gold.PLP.Chemscore.CHOScore>
0.0000

> <Gold.PLP.Chemscore.Metal>
0.0000

> <Gold.Chemscore.Hbonds>
donor molecule, donor type, donor heavy atom, donor atom, acceptor molecule, acceptor atom, score
      L1  H    11    24       P1  8028  0.56
      P1  H  7989  7998       L1    17  0.85

> <Gold.PLP.Chemscore.Internal.Correction>
0.0022

> <Gold.Rescore>
     Score         DG    S(hbond)    S(metal)    S(lipo)     H(rot)  DE(clash)    DE(int)     intcor
      9.16     -13.93       0.78        0.00      87.06       1.69       0.04       4.72       ----

> <Gold.Chemscore.Fitness>
9.1628

> <Gold.Chemscore.DG>
-13.9304

> <Gold.Chemscore.ZeroCoef>
-5.4800

> <Gold.Chemscore.Hbond>
0.7784

> <Gold.Chemscore.Metal>
0.0000

> <Gold.Chemscore.Lipo>
87.0626

> <Gold.Chemscore.Internal_Hbond>
0.0000

> <Gold.Chemscore.DEClash>
0.0440

> <Gold.Chemscore.DEInternal>
4.7235

> <Gold.Chemscore.Rot>
1.6936

> <Gold.Chemscore.Internal.Correction>
   9.000000E+99

> <Gold.Chemscore.Hbonds>
donor molecule, donor type, donor heavy atom, donor atom, acceptor molecule, acceptor atom, score
      L1  H    11    24       P1  8028  0.52
      P1  H  7989  7998       L1    17  0.05

> <Gold.Chemscore.Hbond.Weighted>
-2.5997

> <Gold.Chemscore.Metal.Weighted>
-0.0000

> <Gold.Chemscore.Lipo.Weighted>
-10.1863

> <Gold.Chemscore.Internal_Hbond.Weighted>
0.0000

> <Gold.Chemscore.DEClash.Weighted>
0.0440

> <Gold.Chemscore.DEInternal.Weighted>
4.7235

> <Gold.Chemscore.Rot.Weighted>
4.3357

> <Gold.Chemscore.Internal.Correction.Weighted>
   9.000000E+99

> <Gold.Protein.RotatedTorsions>
[ 6907 6896 6895 6894 ] final   28.76 input  -60.11 | X-H torsion
[ 7974 7965 7964 7962 ] final -162.32 input  175.53 | X-H torsion
[ 8008 7997 7996 7995 ] final -118.46 input   59.86 | X-H torsion
[ 10167 10162 10161 10158 ] final -131.23 input  -65.29 | X-H torsion
[ 10718 10713 10712 10709 ] final  108.46 input   66.30 | X-H torsion
[ 10763 10752 10751 10750 ] final  122.78 input  -60.55 | X-H torsion
[ 11005 11000 10999 10996 ] final  -19.77 input  -57.11 | X-H torsion

> <Gold.Protein.ActiveResidues>
 VAL166  LYS551  ARG553  GLY616  TRP617  ASP618  TYR619  PRO620  LYS621  CYS622 
 ASP623  PHE694  ASN695  SER759  ASP760  ASP761  ALA762  ILE779  LEU786  VAL792 
 PHE793  MET794  SER795  GLU796  ALA797  LYS798  CYS799  TRP800  GLU811  SER814 

> <Gold.Protein.RotatedAtoms>
  152.0216  134.9819  160.0570 H   0  0  0  0  0  0  0  0  0  0  0  0  # atno 6907 bound_to 6896
  152.1331  133.4415  159.4739 H   0  0  0  0  0  0  0  0  0  0  0  0  # atno 6908 bound_to 6896
  150.6858  134.2315  159.4479 H   0  0  0  0  0  0  0  0  0  0  0  0  # atno 6909 bound_to 6896
  144.7361  140.3270  143.6160 H   0  0  0  0  0  0  0  0  0  0  0  0  # atno 7974 bound_to 7965
  155.1001  140.0396  157.2694 H   0  0  0  0  0  0  0  0  0  0  0  0  # atno 8008 bound_to 7997
  154.6765  140.2623  155.6927 H   0  0  0  0  0  0  0  0  0  0  0  0  # atno 8009 bound_to 7997
  156.2678  140.2787  156.1293 H   0  0  0  0  0  0  0  0  0  0  0  0  # atno 8010 bound_to 7997
  139.9210  143.6382  152.2553 H   0  0  0  0  0  0  0  0  0  0  0  0  # atno 10167 bound_to 10162
  157.6585  131.0894  150.6309 H   0  0  0  0  0  0  0  0  0  0  0  0  # atno 10718 bound_to 10713
  153.6351  135.3389  155.3054 H   0  0  0  0  0  0  0  0  0  0  0  0  # atno 10763 bound_to 10752
  154.8572  135.4305  154.2064 H   0  0  0  0  0  0  0  0  0  0  0  0  # atno 10764 bound_to 10752
  153.2969  135.7021  153.7313 H   0  0  0  0  0  0  0  0  0  0  0  0  # atno 10765 bound_to 10752
  140.8399  133.7934  155.9850 H   0  0  0  0  0  0  0  0  0  0  0  0  # atno 11005 bound_to 11000
  145.7511  139.1794  143.2321 LP  0  0  0  0  0  0  0  0  0  0  0  0  # atno 17320 bound_to 7965
  146.1060  140.7486  142.9526 LP  0  0  0  0  0  0  0  0  0  0  0  0  # atno 17321 bound_to 7965
  139.6861  144.7651  151.1521 LP  0  0  0  0  0  0  0  0  0  0  0  0  # atno 17342 bound_to 10162
  140.7662  143.5655  150.9052 LP  0  0  0  0  0  0  0  0  0  0  0  0  # atno 17343 bound_to 10162
  156.6613  130.4513  149.5686 LP  0  0  0  0  0  0  0  0  0  0  0  0  # atno 17370 bound_to 10713
  156.2065  130.6652  151.1223 LP  0  0  0  0  0  0  0  0  0  0  0  0  # atno 17371 bound_to 10713
  140.8906  134.2500  157.5096 LP  0  0  0  0  0  0  0  0  0  0  0  0  # atno 17394 bound_to 11000
  139.8703  134.9659  156.4546 LP  0  0  0  0  0  0  0  0  0  0  0  0  # atno 17395 bound_to 11000

$$$$
