AV-unprocessed.smi:72|AV-procd|sdf|690|dock3
  -GOLD-   2262017 03D 1   1.00000     0.00000
 Structure written by MMmdl.
 29 30  0  0  0  0  0  0  0  0  1 V2000
  152.1201  136.4025  155.5461 N   0  0  0  0  0  0  0  0  0  0  0  0
  151.5283  137.5187  155.3131 C   0  0  0  0  0  0  0  0  0  0  0  0
  150.8695  137.8560  154.1224 N   0  0  0  0  0  0  0  0  0  0  0  0
  150.2829  139.0105  154.0428 C   0  0  0  0  0  0  0  0  0  0  0  0
  150.2438  139.9477  155.1606 N   0  0  0  0  0  0  0  0  0  0  0  0
  149.5871  141.3167  155.0344 C   0  0  1  0  0  0  0  0  0  0  0  0
  149.0612  141.4709  153.7434 O   0  0  0  0  0  0  0  0  0  0  0  0
  147.6387  141.3589  153.7317 C   0  0  1  0  0  0  0  0  0  0  0  0
  147.2027  139.8873  153.5447 C   0  0  0  0  0  0  0  0  0  0  0  0
  147.1780  139.5652  152.1706 O   0  0  0  0  0  0  0  0  0  0  0  0
  147.2787  141.9776  155.0862 C   0  0  1  0  0  0  0  0  0  0  0  0
  146.0074  141.5805  155.5617 O   0  0  0  0  0  0  0  0  0  0  0  0
  148.3968  141.5056  156.0066 C   0  0  2  0  0  0  0  0  0  0  0  0
  148.6579  142.5041  156.9726 O   0  0  0  0  0  0  0  0  0  0  0  0
  151.0010  139.6599  156.3264 C   0  0  0  0  0  0  0  0  0  0  0  0
  151.1273  140.4610  157.2517 O   0  0  0  0  0  0  0  0  0  0  0  0
  151.5831  138.4421  156.3631 N   0  0  0  0  0  0  0  0  0  0  0  0
  150.4041  142.0246  155.1850 H   0  0  0  0  0  0  0  0  0  0  0  0
  147.2232  141.9639  152.9246 H   0  0  0  0  0  0  0  0  0  0  0  0
  147.3017  143.0646  154.9874 H   0  0  0  0  0  0  0  0  0  0  0  0
  148.1335  140.5569  156.4772 H   0  0  0  0  0  0  0  0  0  0  0  0
  152.5226  136.4103  156.4726 H   0  0  0  0  0  0  0  0  0  0  0  0
  149.7846  139.3423  153.1317 H   0  0  0  0  0  0  0  0  0  0  0  0
  147.8347  139.1898  154.0919 H   0  0  0  0  0  0  0  0  0  0  0  0
  146.1867  139.7407  153.9110 H   0  0  0  0  0  0  0  0  0  0  0  0
  147.8847  140.0230  151.7417 H   0  0  0  0  0  0  0  0  0  0  0  0
  146.0409  141.5491  156.5058 H   0  0  0  0  0  0  0  0  0  0  0  0
  149.0344  143.2517  156.5324 H   0  0  0  0  0  0  0  0  0  0  0  0
  152.1060  138.1972  157.1910 H   0  0  0  0  0  0  0  0  0  0  0  0
  1  2  2  0  0  0  0
  1 22  1  0  0  0  0
  2 17  1  0  0  0  0
  2  3  1  0  0  0  0
  3  4  2  0  0  0  0
  4  5  1  0  0  0  0
  4 23  1  0  0  0  0
  5  6  1  0  0  0  0
  5 15  1  0  0  0  0
  6 18  1  0  0  0  0
  6 13  1  0  0  0  0
  6  7  1  0  0  0  0
  7  8  1  0  0  0  0
  8 19  1  0  0  0  0
  8  9  1  0  0  0  0
  8 11  1  0  0  0  0
  9 10  1  0  0  0  0
  9 24  1  0  0  0  0
  9 25  1  0  0  0  0
 10 26  1  0  0  0  0
 11 20  1  0  0  0  0
 11 12  1  0  0  0  0
 11 13  1  0  0  0  0
 12 27  1  0  0  0  0
 13 21  1  0  0  0  0
 13 14  1  0  0  0  0
 14 28  1  0  0  0  0
 15 16  2  0  0  0  0
 15 17  1  0  0  0  0
 17 29  1  0  0  0  0
M  END
> <s_m_source_file>
AV-unprocessed.smi

> <i_m_source_file_index>
72

> <i_lp_mmshare_version>
43012

> <i_f3d_flags>
0

> <s_epik_input>
W05IMl1jMW5bY0hdbihjKD1PKW4xKVtDQEBIXTJPW0NASF0oW0NIMl1bT0hdKVtDQEBIXShbT0hdKVtDQEhdMltPSF0=

> <s_epik_cmdline>
J2VwaWtfcHl0aG9uJywgJy1waCcsICc3LjAnLCAnLXRuJywgJzgnLCAnLW1hJywgJzIwMCcsICctbWV0YWxfYmluZGluZycsICctaW1hZScsICc8aW5maWxlLm1hZT4nLCAnLW9tYWUnLCAnPG91dGZpbGUubWFlPic=

> <r_lp_tautomer_probability>
7.17554e-07

> <r_epik_Ionization_Penalty>
0.0066451

> <r_epik_Ionization_Penalty_Charging>
0.00663793

> <r_epik_Ionization_Penalty_Neutral>
7.17052e-06

> <r_epik_State_Penalty>
0.419231

> <r_epik_Charging_Adjusted_Penalty>
0.425868

> <i_epik_Tot_Q>
0

> <i_epik_Tot_abs_Q>
0

> <r_epik_Metal_State_Penalty>
1.44144

> <b_epik_Metal_Only>
0

> <s_epik_Chemistry_Notes>
This compound contains an acetal/aminal-like group ( X-CH(R)-Y where X, Y are N, S, or O) that may be acid/base labile, releasing an aldehyde.

> <s_lp_Force_Field>
OPLS_2005

> <r_lp_Energy>
40.5406

> <b_lp_Chiralities_Consistent>
1

> <s_lp_Variant>
AV-unprocessed.smi:72-28

> <Gold.Version>
5.8.1

> <Gold.Id.Protein>
6NUR|6NUR_protein|mol2

> <Gold.PLP.Fitness>
39.6343

> <Gold.PLP.PLP>
-25.8106

> <Gold.PLP.part.hbond>
-4.5715

> <Gold.PLP.part.metal>
0.0000

> <Gold.PLP.part.buried>
-4.2164

> <Gold.PLP.part.nonpolar>
-18.1849

> <Gold.PLP.part.repulsive>
1.3387

> <Gold.PLP.ligand.clash>
0.0000

> <Gold.PLP.ligand.torsion>
0.3138

> <Gold.PLP.Chemscore.Hbond>
3.7840

> <Gold.PLP.Chemscore.CHOScore>
1.0000

> <Gold.PLP.Chemscore.Metal>
0.0000

> <Gold.Chemscore.Hbonds>
donor molecule, donor type, donor heavy atom, donor atom, acceptor molecule, acceptor atom, score
      L1  H    10    26       P1  7957  0.99
      L1  H    14    28       P1  8028  1.00
      P1  H  8011  8017       L1     7  0.77
      P1  H 10752 10765       L1     1  0.75
      L1  C     4    23       P1  7957  1.00

> <Gold.PLP.Chemscore.Internal.Correction>
0.0994

> <Gold.Rescore>
     Score         DG    S(hbond)    S(metal)    S(lipo)     H(rot)  DE(clash)    DE(int)     intcor
      9.01     -10.19       3.73        0.00      22.76       4.06       1.00       0.17       ----

> <Gold.Chemscore.Fitness>
9.0130

> <Gold.Chemscore.DG>
-10.1908

> <Gold.Chemscore.ZeroCoef>
-5.4800

> <Gold.Chemscore.Hbond>
3.7251

> <Gold.Chemscore.Metal>
0.0000

> <Gold.Chemscore.Lipo>
22.7586

> <Gold.Chemscore.Internal_Hbond>
0.0000

> <Gold.Chemscore.DEClash>
1.0049

> <Gold.Chemscore.DEInternal>
0.1729

> <Gold.Chemscore.Rot>
4.0600

> <Gold.Chemscore.Internal.Correction>
   9.000000E+99

> <Gold.Chemscore.Hbonds>
donor molecule, donor type, donor heavy atom, donor atom, acceptor molecule, acceptor atom, score
      L1  H    10    26       P1  7957  0.94
      L1  H    14    28       P1  8028  0.94
      P1  H  8011  8017       L1     7  0.70
      P1  H 10752 10765       L1     1  0.29

> <Gold.Chemscore.Hbond.Weighted>
-12.4417

> <Gold.Chemscore.Metal.Weighted>
-0.0000

> <Gold.Chemscore.Lipo.Weighted>
-2.6628

> <Gold.Chemscore.Internal_Hbond.Weighted>
0.0000

> <Gold.Chemscore.DEClash.Weighted>
1.0049

> <Gold.Chemscore.DEInternal.Weighted>
0.1729

> <Gold.Chemscore.Rot.Weighted>
10.3936

> <Gold.Chemscore.Internal.Correction.Weighted>
   9.000000E+99

> <Gold.Protein.RotatedTorsions>
[ 6907 6896 6895 6894 ] final -168.09 input  -60.11 | X-H torsion
[ 7974 7965 7964 7962 ] final -126.88 input  175.53 | X-H torsion
[ 8008 7997 7996 7995 ] final  -15.93 input   59.86 | X-H torsion
[ 10167 10162 10161 10158 ] final   50.44 input  -65.29 | X-H torsion
[ 10718 10713 10712 10709 ] final   56.84 input   66.30 | X-H torsion
[ 10763 10752 10751 10750 ] final -167.01 input  -60.55 | X-H torsion
[ 11005 11000 10999 10996 ] final -136.94 input  -57.11 | X-H torsion

> <Gold.Protein.ActiveResidues>
 VAL166  LYS551  ARG553  GLY616  TRP617  ASP618  TYR619  PRO620  LYS621  CYS622 
 ASP623  PHE694  ASN695  SER759  ASP760  ASP761  ALA762  ILE779  LEU786  VAL792 
 PHE793  MET794  SER795  GLU796  ALA797  LYS798  CYS799  TRP800  GLU811  SER814 

> <Gold.Protein.RotatedAtoms>
  151.4700  133.3571  159.2821 H   0  0  0  0  0  0  0  0  0  0  0  0  # atno 6907 bound_to 6896
  150.8967  134.8378  159.7342 H   0  0  0  0  0  0  0  0  0  0  0  0  # atno 6908 bound_to 6896
  152.4855  134.4616  159.9659 H   0  0  0  0  0  0  0  0  0  0  0  0  # atno 6909 bound_to 6896
  144.9827  140.7656  143.4602 H   0  0  0  0  0  0  0  0  0  0  0  0  # atno 7974 bound_to 7965
  154.5092  140.2183  155.9190 H   0  0  0  0  0  0  0  0  0  0  0  0  # atno 8008 bound_to 7997
  156.1532  140.3157  155.8648 H   0  0  0  0  0  0  0  0  0  0  0  0  # atno 8009 bound_to 7997
  155.3899  140.0477  157.3032 H   0  0  0  0  0  0  0  0  0  0  0  0  # atno 8010 bound_to 7997
  140.2724  144.3250  150.6286 H   0  0  0  0  0  0  0  0  0  0  0  0  # atno 10167 bound_to 10162
  157.5464  130.8734  149.8898 H   0  0  0  0  0  0  0  0  0  0  0  0  # atno 10718 bound_to 10713
  154.6776  135.2949  154.9658 H   0  0  0  0  0  0  0  0  0  0  0  0  # atno 10763 bound_to 10752
  154.0664  135.6624  153.4822 H   0  0  0  0  0  0  0  0  0  0  0  0  # atno 10764 bound_to 10752
  153.0526  135.5164  154.7802 H   0  0  0  0  0  0  0  0  0  0  0  0  # atno 10765 bound_to 10752
  140.8758  134.1994  157.4623 H   0  0  0  0  0  0  0  0  0  0  0  0  # atno 11005 bound_to 11000
  145.2398  139.2078  143.4999 LP  0  0  0  0  0  0  0  0  0  0  0  0  # atno 17320 bound_to 7965
  146.3412  140.2291  142.8593 LP  0  0  0  0  0  0  0  0  0  0  0  0  # atno 17321 bound_to 7965
  140.5879  143.2169  151.7308 LP  0  0  0  0  0  0  0  0  0  0  0  0  # atno 17342 bound_to 10162
  139.4985  144.3983  152.0207 LP  0  0  0  0  0  0  0  0  0  0  0  0  # atno 17343 bound_to 10162
  156.0539  130.3712  150.1136 LP  0  0  0  0  0  0  0  0  0  0  0  0  # atno 17370 bound_to 10713
  156.9312  130.9714  151.3532 LP  0  0  0  0  0  0  0  0  0  0  0  0  # atno 17371 bound_to 10713
  139.8715  134.9795  156.5038 LP  0  0  0  0  0  0  0  0  0  0  0  0  # atno 17394 bound_to 11000
  140.8520  133.8125  155.9178 LP  0  0  0  0  0  0  0  0  0  0  0  0  # atno 17395 bound_to 11000

$$$$
