AV-unprocessed.smi:2520|AV-procd|sdf|9911|dock3
  -GOLD-   2272013543D 1   1.00000     0.00000
 Structure written by MMmdl.
 41 44  0  0  0  0  0  0  0  0  1 V2000
  149.6719  136.2774  156.2372 O   0  0  0  0  0  0  0  0  0  0  0  0
  149.2366  136.1624  155.0929 C   0  0  0  0  0  0  0  0  0  0  0  0
  149.2228  134.9650  154.4701 N   0  0  0  0  0  0  0  0  0  0  0  0
  149.6523  133.6761  154.9011 C   0  0  0  0  0  0  0  0  0  0  0  0
  149.2434  132.6085  154.0735 C   0  0  0  0  0  0  0  0  0  0  0  0
  149.6164  131.3021  154.4323 C   0  0  0  0  0  0  0  0  0  0  0  0
  150.3756  131.1487  155.6046 C   0  0  0  0  0  0  0  0  0  0  0  0
  150.7424  132.1977  156.3718 N   0  0  0  0  0  0  0  0  0  0  0  0
  150.3826  133.4373  156.0233 N   0  0  0  0  0  0  0  0  0  0  0  0
  148.7492  137.2001  154.3951 N   0  0  0  0  0  0  0  0  0  0  0  0
  148.7042  138.5763  154.8730 C   0  0  2  0  0  0  0  0  0  0  0  0
  148.4414  139.5816  153.7400 C   0  0  1  0  0  0  0  0  0  0  0  0
  147.1612  140.3710  153.7240 C   0  0  0  0  0  0  0  0  0  0  0  0
  147.5601  141.6802  154.4113 C   0  0  0  0  0  0  0  0  0  0  0  0
  148.7213  141.3497  155.1706 O   0  0  0  0  0  0  0  0  0  0  0  0
  149.5065  140.4562  154.3845 C   0  0  1  0  0  0  0  0  0  0  0  0
  150.0915  139.2208  155.1023 C   0  0  0  0  0  0  0  0  0  0  0  0
  151.3311  138.6091  154.4430 C   0  0  0  0  0  0  0  0  0  0  0  0
  152.5419  139.2967  155.0751 C   0  0  0  0  0  0  0  0  0  0  0  0
  152.0787  139.7337  156.4685 C   0  0  0  0  0  0  0  0  0  0  0  0
  150.5827  139.4068  156.5353 C   0  0  0  0  0  0  0  0  0  0  0  0
  148.7974  134.9767  153.5547 H   0  0  0  0  0  0  0  0  0  0  0  0
  148.6582  132.7836  153.1824 H   0  0  0  0  0  0  0  0  0  0  0  0
  149.3314  130.4506  153.8321 H   0  0  0  0  0  0  0  0  0  0  0  0
  150.6936  130.1705  155.9336 H   0  0  0  0  0  0  0  0  0  0  0  0
  148.4067  137.0264  153.4607 H   0  0  0  0  0  0  0  0  0  0  0  0
  148.0331  138.7334  155.7206 H   0  0  0  0  0  0  0  0  0  0  0  0
  148.7635  139.2117  152.7647 H   0  0  0  0  0  0  0  0  0  0  0  0
  146.7876  140.5453  152.7146 H   0  0  0  0  0  0  0  0  0  0  0  0
  146.3808  139.8581  154.2868 H   0  0  0  0  0  0  0  0  0  0  0  0
  147.8244  142.4362  153.6705 H   0  0  0  0  0  0  0  0  0  0  0  0
  146.7679  142.0830  155.0425 H   0  0  0  0  0  0  0  0  0  0  0  0
  150.1632  140.9593  153.6732 H   0  0  0  0  0  0  0  0  0  0  0  0
  151.3903  137.5404  154.6518 H   0  0  0  0  0  0  0  0  0  0  0  0
  151.3290  138.7201  153.3582 H   0  0  0  0  0  0  0  0  0  0  0  0
  153.4101  138.6382  155.1132 H   0  0  0  0  0  0  0  0  0  0  0  0
  152.8185  140.1739  154.4886 H   0  0  0  0  0  0  0  0  0  0  0  0
  152.6272  139.2179  157.2574 H   0  0  0  0  0  0  0  0  0  0  0  0
  152.2442  140.8037  156.5993 H   0  0  0  0  0  0  0  0  0  0  0  0
  150.0316  140.1787  157.0726 H   0  0  0  0  0  0  0  0  0  0  0  0
  150.4413  138.4807  157.0942 H   0  0  0  0  0  0  0  0  0  0  0  0
  1  2  2  0  0  0  0
  2  3  1  0  0  0  0
  2 10  1  0  0  0  0
  3  4  1  0  0  0  0
  3 22  1  0  0  0  0
  4  9  1  0  0  0  0
  4  5  2  0  0  0  0
  5  6  1  0  0  0  0
  5 23  1  0  0  0  0
  6  7  2  0  0  0  0
  6 24  1  0  0  0  0
  7  8  1  0  0  0  0
  7 25  1  0  0  0  0
  8  9  2  0  0  0  0
 10 11  1  0  0  0  0
 10 26  1  0  0  0  0
 11 17  1  0  0  0  0
 11 12  1  0  0  0  0
 11 27  1  0  0  0  0
 12 16  1  0  0  0  0
 12 13  1  0  0  0  0
 12 28  1  0  0  0  0
 13 14  1  0  0  0  0
 13 29  1  0  0  0  0
 13 30  1  0  0  0  0
 14 15  1  0  0  0  0
 14 31  1  0  0  0  0
 14 32  1  0  0  0  0
 15 16  1  0  0  0  0
 16 17  1  0  0  0  0
 16 33  1  0  0  0  0
 17 21  1  0  0  0  0
 17 18  1  0  0  0  0
 18 19  1  0  0  0  0
 18 34  1  0  0  0  0
 18 35  1  0  0  0  0
 19 20  1  0  0  0  0
 19 36  1  0  0  0  0
 19 37  1  0  0  0  0
 20 21  1  0  0  0  0
 20 38  1  0  0  0  0
 20 39  1  0  0  0  0
 21 40  1  0  0  0  0
 21 41  1  0  0  0  0
M  END
> <s_m_source_file>
AV-unprocessed.smi

> <i_m_source_file_index>
2520

> <i_lp_mmshare_version>
43012

> <i_f3d_flags>
0

> <s_epik_input>
bjFuW2NIXVtjSF1bY0hdYzFbTkhdQyg9TylbTkhdW0NAQEhdMltDQEBIXShbQ0gyXVtDSDJdTzMpW0NASF0zQzI0W0NIMl1bQ0gyXVtDSDJdW0NIMl00

> <s_epik_cmdline>
J2VwaWtfcHl0aG9uJywgJy1waCcsICc3LjAnLCAnLXRuJywgJzgnLCAnLW1hJywgJzIwMCcsICctbWV0YWxfYmluZGluZycsICctaW1hZScsICc8aW5maWxlLm1hZT4nLCAnLW9tYWUnLCAnPG91dGZpbGUubWFlPic=

> <r_lp_tautomer_probability>
1

> <r_epik_Ionization_Penalty>
0.00552561

> <r_epik_Ionization_Penalty_Charging>
0

> <r_epik_Ionization_Penalty_Neutral>
0.00552561

> <r_epik_State_Penalty>
-0

> <r_epik_Charging_Adjusted_Penalty>
0

> <i_epik_Tot_Q>
0

> <i_epik_Tot_abs_Q>
0

> <r_epik_Metal_State_Penalty>
-0

> <b_epik_Metal_Only>
0

> <s_lp_Force_Field>
OPLS_2005

> <r_lp_Energy>
61.2745

> <b_lp_Chiralities_Consistent>
1

> <s_lp_Variant>
AV-unprocessed.smi:2520-5

> <Gold.Version>
5.8.1

> <Gold.Id.Protein>
6NUR|6NUR_protein|mol2

> <Gold.PLP.Fitness>
37.5942

> <Gold.PLP.PLP>
-33.0698

> <Gold.PLP.part.hbond>
-2.0000

> <Gold.PLP.part.metal>
0.0000

> <Gold.PLP.part.buried>
0.4034

> <Gold.PLP.part.nonpolar>
-30.9256

> <Gold.PLP.part.repulsive>
0.1700

> <Gold.PLP.ligand.clash>
0.0000

> <Gold.PLP.ligand.torsion>
0.1345

> <Gold.PLP.Chemscore.Hbond>
1.5360

> <Gold.PLP.Chemscore.CHOScore>
0.0000

> <Gold.PLP.Chemscore.Metal>
0.0000

> <Gold.Chemscore.Hbonds>
donor molecule, donor type, donor heavy atom, donor atom, acceptor molecule, acceptor atom, score
      L1  H     3    22       P1  7948  0.60
      L1  H    10    26       P1  7948  0.78

> <Gold.PLP.Chemscore.Internal.Correction>
0.1855

> <Gold.Rescore>
     Score         DG    S(hbond)    S(metal)    S(lipo)     H(rot)  DE(clash)    DE(int)     intcor
     15.26     -16.62       1.53        0.00      73.27       1.00       0.03       1.33       ----

> <Gold.Chemscore.Fitness>
15.2588

> <Gold.Chemscore.DG>
-16.6167

> <Gold.Chemscore.ZeroCoef>
-5.4800

> <Gold.Chemscore.Hbond>
1.5340

> <Gold.Chemscore.Metal>
0.0000

> <Gold.Chemscore.Lipo>
73.2743

> <Gold.Chemscore.Internal_Hbond>
0.0000

> <Gold.Chemscore.DEClash>
0.0323

> <Gold.Chemscore.DEInternal>
1.3257

> <Gold.Chemscore.Rot>
1.0000

> <Gold.Chemscore.Internal.Correction>
   9.000000E+99

> <Gold.Chemscore.Hbonds>
donor molecule, donor type, donor heavy atom, donor atom, acceptor molecule, acceptor atom, score
      L1  H     3    22       P1  7948  0.33
      L1  H    10    26       P1  7948  0.78

> <Gold.Chemscore.Hbond.Weighted>
-5.1236

> <Gold.Chemscore.Metal.Weighted>
-0.0000

> <Gold.Chemscore.Lipo.Weighted>
-8.5731

> <Gold.Chemscore.Internal_Hbond.Weighted>
0.0000

> <Gold.Chemscore.DEClash.Weighted>
0.0323

> <Gold.Chemscore.DEInternal.Weighted>
1.3257

> <Gold.Chemscore.Rot.Weighted>
2.5600

> <Gold.Chemscore.Internal.Correction.Weighted>
   9.000000E+99

> <Gold.Protein.RotatedTorsions>
[ 6907 6896 6895 6894 ] final  -42.23 input  -60.11 | X-H torsion
[ 7974 7965 7964 7962 ] final   92.89 input  175.53 | X-H torsion
[ 8008 7997 7996 7995 ] final -154.40 input   59.86 | X-H torsion
[ 10167 10162 10161 10158 ] final -157.19 input  -65.29 | X-H torsion
[ 10718 10713 10712 10709 ] final  179.84 input   66.30 | X-H torsion
[ 10763 10752 10751 10750 ] final  168.77 input  -60.55 | X-H torsion
[ 11005 11000 10999 10996 ] final  149.69 input  -57.11 | X-H torsion

> <Gold.Protein.ActiveResidues>
 VAL166  LYS551  ARG553  GLY616  TRP617  ASP618  TYR619  PRO620  LYS621  CYS622 
 ASP623  PHE694  ASN695  SER759  ASP760  ASP761  ALA762  ILE779  LEU786  VAL792 
 PHE793  MET794  SER795  GLU796  ALA797  LYS798  CYS799  TRP800  GLU811  SER814 

> <Gold.Protein.RotatedAtoms>
  150.9576  134.8968  159.7710 H   0  0  0  0  0  0  0  0  0  0  0  0  # atno 6907 bound_to 6896
  152.5144  134.3719  159.9331 H   0  0  0  0  0  0  0  0  0  0  0  0  # atno 6908 bound_to 6896
  151.3732  133.3807  159.2736 H   0  0  0  0  0  0  0  0  0  0  0  0  # atno 6909 bound_to 6896
  145.4863  139.2277  143.2855 H   0  0  0  0  0  0  0  0  0  0  0  0  # atno 7974 bound_to 7965
  155.6857  140.0749  157.2467 H   0  0  0  0  0  0  0  0  0  0  0  0  # atno 8008 bound_to 7997
  154.4097  140.1674  156.2083 H   0  0  0  0  0  0  0  0  0  0  0  0  # atno 8009 bound_to 7997
  155.9496  140.3378  155.6399 H   0  0  0  0  0  0  0  0  0  0  0  0  # atno 8010 bound_to 7997
  139.6790  143.9614  152.2326 H   0  0  0  0  0  0  0  0  0  0  0  0  # atno 10167 bound_to 10162
  156.8697  130.9780  151.3074 H   0  0  0  0  0  0  0  0  0  0  0  0  # atno 10718 bound_to 10713
  154.3734  135.2753  155.2253 H   0  0  0  0  0  0  0  0  0  0  0  0  # atno 10763 bound_to 10752
  154.4391  135.5959  153.6121 H   0  0  0  0  0  0  0  0  0  0  0  0  # atno 10764 bound_to 10752
  152.9837  135.6014  154.3968 H   0  0  0  0  0  0  0  0  0  0  0  0  # atno 10765 bound_to 10752
  140.1067  134.8950  157.1876 H   0  0  0  0  0  0  0  0  0  0  0  0  # atno 11005 bound_to 11000
  146.2311  140.5653  142.8975 LP  0  0  0  0  0  0  0  0  0  0  0  0  # atno 17320 bound_to 7965
  144.7860  140.5937  143.6573 LP  0  0  0  0  0  0  0  0  0  0  0  0  # atno 17321 bound_to 7965
  139.9399  144.6688  150.8277 LP  0  0  0  0  0  0  0  0  0  0  0  0  # atno 17342 bound_to 10162
  140.7645  143.3252  151.2533 LP  0  0  0  0  0  0  0  0  0  0  0  0  # atno 17343 bound_to 10162
  157.6202  130.8649  149.9096 LP  0  0  0  0  0  0  0  0  0  0  0  0  # atno 17370 bound_to 10713
  156.0733  130.3682  150.0731 LP  0  0  0  0  0  0  0  0  0  0  0  0  # atno 17371 bound_to 10713
  140.3147  134.2984  155.7259 LP  0  0  0  0  0  0  0  0  0  0  0  0  # atno 17394 bound_to 11000
  141.2120  133.7672  156.9826 LP  0  0  0  0  0  0  0  0  0  0  0  0  # atno 17395 bound_to 11000

$$$$
