AV-unprocessed.smi:557|AV-procd|sdf|2920|dock9
  -GOLD-   2262023413D 1   1.00000     0.00000
 Structure written by MMmdl.
 47 49  0  0  0  0  0  0  0  0  2 V2000
  151.0049  142.2862  156.4802 C   0  0  0  0  0  0  0  0  0  0  0  0
  150.3277  141.2999  155.6659 N   0  0  0  0  0  0  0  0  0  0  0  0
  149.0943  141.3868  155.0567 C   0  0  0  0  0  0  0  0  0  0  0  0
  148.8792  140.2101  154.3959 C   0  0  0  0  0  0  0  0  0  0  0  0
  147.6880  139.7937  153.5791 C   0  0  0  0  0  0  0  0  0  0  0  0
  146.6752  139.0068  154.4215 C   0  0  0  0  0  0  0  0  0  0  0  0
  145.4575  138.7528  153.6560 N   0  0  0  0  0  0  0  0  0  0  0  0
  144.9251  137.5584  153.3470 C   0  0  0  0  0  0  0  0  0  0  0  0
  145.4433  136.5024  153.7048 O   0  0  0  0  0  0  0  0  0  0  0  0
  143.7918  137.6208  152.6274 N   0  0  0  0  0  0  0  0  0  0  0  0
  143.0253  136.4690  152.1621 C   0  0  2  0  0  0  0  0  0  0  0  0
  142.1378  135.8581  153.2612 C   0  0  0  0  0  0  0  0  0  0  0  0
  142.2038  134.3342  153.0410 C   0  0  0  0  0  0  0  0  0  0  0  0
  142.9980  134.1514  151.8115 N   0  3  2  0  0  0  0  0  0  0  0  0
  143.6810  132.8511  151.6372 C   0  0  0  0  0  0  0  0  0  0  0  0
  144.3768  132.8237  150.2619 C   0  0  0  0  0  0  0  0  0  0  0  0
  145.3072  134.0386  150.0684 C   0  0  0  0  0  0  0  0  0  0  0  0
  144.5670  135.3593  150.3572 C   0  0  0  0  0  0  0  0  0  0  0  0
  143.9200  135.2960  151.7517 C   0  0  1  0  0  0  0  0  0  0  0  0
  150.0594  139.4599  154.6652 C   0  0  0  0  0  0  0  0  0  0  0  0
  150.9233  140.1139  155.4243 N   0  0  0  0  0  0  0  0  0  0  0  0
  150.3166  143.0906  156.7419 H   0  0  0  0  0  0  0  0  0  0  0  0
  151.8461  142.7043  155.9269 H   0  0  0  0  0  0  0  0  0  0  0  0
  151.3728  141.8241  157.3968 H   0  0  0  0  0  0  0  0  0  0  0  0
  148.4772  142.2691  155.1432 H   0  0  0  0  0  0  0  0  0  0  0  0
  147.1979  140.6682  153.1493 H   0  0  0  0  0  0  0  0  0  0  0  0
  148.0031  139.1840  152.7313 H   0  0  0  0  0  0  0  0  0  0  0  0
  147.1109  138.0568  154.7353 H   0  0  0  0  0  0  0  0  0  0  0  0
  146.4291  139.5686  155.3242 H   0  0  0  0  0  0  0  0  0  0  0  0
  144.9624  139.5699  153.3283 H   0  0  0  0  0  0  0  0  0  0  0  0
  143.4407  138.5347  152.3798 H   0  0  0  0  0  0  0  0  0  0  0  0
  142.3851  136.7494  151.3227 H   0  0  0  0  0  0  0  0  0  0  0  0
  142.5097  136.1028  154.2574 H   0  0  0  0  0  0  0  0  0  0  0  0
  141.1163  136.2338  153.1928 H   0  0  0  0  0  0  0  0  0  0  0  0
  142.7035  133.8564  153.8851 H   0  0  0  0  0  0  0  0  0  0  0  0
  141.2159  133.8856  152.9340 H   0  0  0  0  0  0  0  0  0  0  0  0
  144.4086  132.7024  152.4365 H   0  0  0  0  0  0  0  0  0  0  0  0
  142.9529  132.0424  151.7073 H   0  0  0  0  0  0  0  0  0  0  0  0
  144.9412  131.8979  150.1465 H   0  0  0  0  0  0  0  0  0  0  0  0
  143.6208  132.8222  149.4756 H   0  0  0  0  0  0  0  0  0  0  0  0
  146.1628  133.9487  150.7389 H   0  0  0  0  0  0  0  0  0  0  0  0
  145.7088  134.0469  149.0546 H   0  0  0  0  0  0  0  0  0  0  0  0
  145.2654  136.1940  150.2987 H   0  0  0  0  0  0  0  0  0  0  0  0
  143.8052  135.5331  149.5960 H   0  0  0  0  0  0  0  0  0  0  0  0
  144.6972  135.1566  152.5070 H   0  0  0  0  0  0  0  0  0  0  0  0
  150.3113  138.4634  154.3336 H   0  0  0  0  0  0  0  0  0  0  0  0
  142.3581  134.2610  151.0375 H   0  0  0  0  0  0  0  0  0  0  0  0
  1  2  1  0  0  0  0
  1 22  1  0  0  0  0
  1 23  1  0  0  0  0
  1 24  1  0  0  0  0
  2 21  1  0  0  0  0
  2  3  1  0  0  0  0
  3  4  2  0  0  0  0
  3 25  1  0  0  0  0
  4  5  1  0  0  0  0
  4 20  1  0  0  0  0
  5  6  1  0  0  0  0
  5 26  1  0  0  0  0
  5 27  1  0  0  0  0
  6  7  1  0  0  0  0
  6 28  1  0  0  0  0
  6 29  1  0  0  0  0
  7  8  1  0  0  0  0
  7 30  1  0  0  0  0
  8  9  2  0  0  0  0
  8 10  1  0  0  0  0
 10 11  1  0  0  0  0
 10 31  1  0  0  0  0
 11 19  1  0  0  0  0
 11 12  1  0  0  0  0
 11 32  1  0  0  0  0
 12 13  1  0  0  0  0
 12 33  1  0  0  0  0
 12 34  1  0  0  0  0
 13 14  1  0  0  0  0
 13 35  1  0  0  0  0
 13 36  1  0  0  0  0
 14 19  1  0  0  0  0
 14 15  1  0  0  0  0
 14 47  1  0  0  0  0
 15 16  1  0  0  0  0
 15 37  1  0  0  0  0
 15 38  1  0  0  0  0
 16 17  1  0  0  0  0
 16 39  1  0  0  0  0
 16 40  1  0  0  0  0
 17 18  1  0  0  0  0
 17 41  1  0  0  0  0
 17 42  1  0  0  0  0
 18 19  1  0  0  0  0
 18 43  1  0  0  0  0
 18 44  1  0  0  0  0
 19 45  1  0  0  0  0
 20 21  2  0  0  0  0
 20 46  1  0  0  0  0
M  CHG  1  14   1
M  END
> <s_m_source_file>
AV-unprocessed.smi

> <i_m_source_file_index>
557

> <i_lp_mmshare_version>
43012

> <i_f3d_flags>
0

> <s_epik_input>
W0NIM11uMVtjSF1jKFtjSF1uMSlbQ0gyXVtDSDJdW05IXUMoPU8pW05IXVtDQEhdKFtDSDJdW0NIMl0yKVtDQEhdKE4yMylbQ0gyXVtDSDJdW0NIMl1bQ0gyXTM=

> <s_epik_cmdline>
J2VwaWtfcHl0aG9uJywgJy1waCcsICc3LjAnLCAnLXRuJywgJzgnLCAnLW1hJywgJzIwMCcsICctbWV0YWxfYmluZGluZycsICctaW1hZScsICc8aW5maWxlLm1hZT4nLCAnLW9tYWUnLCAnPG91dGZpbGUubWFlPic=

> <r_lp_tautomer_probability>
1

> <r_epik_Ionization_Penalty>
0.000956547

> <r_epik_Ionization_Penalty_Charging>
0.000435796

> <r_epik_Ionization_Penalty_Neutral>
0.000520752

> <r_epik_State_Penalty>
-0

> <r_epik_Charging_Adjusted_Penalty>
0.000435796

> <i_epik_Tot_Q>
1

> <i_epik_Tot_abs_Q>
1

> <r_epik_Metal_State_Penalty>
-0

> <b_epik_Metal_Only>
0

> <s_lp_Force_Field>
OPLS_2005

> <r_lp_Energy>
39.998

> <b_lp_Chiralities_Consistent>
1

> <s_lp_Variant>
AV-unprocessed.smi:557-7

> <Gold.Version>
5.8.1

> <Gold.Id.Protein>
6NUR|6NUR_protein|mol2

> <Gold.PLP.Fitness>
47.0207

> <Gold.PLP.PLP>
-34.1306

> <Gold.PLP.part.hbond>
-4.6209

> <Gold.PLP.part.metal>
0.0000

> <Gold.PLP.part.buried>
-0.7423

> <Gold.PLP.part.nonpolar>
-29.2891

> <Gold.PLP.part.repulsive>
0.1457

> <Gold.PLP.ligand.clash>
0.0000

> <Gold.PLP.ligand.torsion>
0.6709

> <Gold.PLP.Chemscore.Hbond>
3.7371

> <Gold.PLP.Chemscore.CHOScore>
1.0000

> <Gold.PLP.Chemscore.Metal>
0.0000

> <Gold.Chemscore.Hbonds>
donor molecule, donor type, donor heavy atom, donor atom, acceptor molecule, acceptor atom, score
      L1  H     7    30       P1 10175  1.00
      L1  H    10    31       P1 10175  0.99
      L1  H    14    47       P1 10186  1.70
      P1  H  7989  7998       L1    21  0.05
      L1  C     3    25       P1  8028  1.00

> <Gold.PLP.Chemscore.Internal.Correction>
0.0205

> <Gold.Rescore>
     Score         DG    S(hbond)    S(metal)    S(lipo)     H(rot)  DE(clash)    DE(int)     intcor
     15.72     -18.56       2.18        0.00      84.74       1.60       0.80       2.04       ----

> <Gold.Chemscore.Fitness>
15.7213

> <Gold.Chemscore.DG>
-18.5615

> <Gold.Chemscore.ZeroCoef>
-5.4800

> <Gold.Chemscore.Hbond>
2.1758

> <Gold.Chemscore.Metal>
0.0000

> <Gold.Chemscore.Lipo>
84.7424

> <Gold.Chemscore.Internal_Hbond>
0.0000

> <Gold.Chemscore.DEClash>
0.8043

> <Gold.Chemscore.DEInternal>
2.0359

> <Gold.Chemscore.Rot>
1.6018

> <Gold.Chemscore.Internal.Correction>
   9.000000E+99

> <Gold.Chemscore.Hbonds>
donor molecule, donor type, donor heavy atom, donor atom, acceptor molecule, acceptor atom, score
      L1  H     7    30       P1 10175  0.99
      L1  H    10    31       P1 10175  0.93
      L1  H    14    47       P1 10186  0.14

> <Gold.Chemscore.Hbond.Weighted>
-7.2672

> <Gold.Chemscore.Metal.Weighted>
-0.0000

> <Gold.Chemscore.Lipo.Weighted>
-9.9149

> <Gold.Chemscore.Internal_Hbond.Weighted>
0.0000

> <Gold.Chemscore.DEClash.Weighted>
0.8043

> <Gold.Chemscore.DEInternal.Weighted>
2.0359

> <Gold.Chemscore.Rot.Weighted>
4.1006

> <Gold.Chemscore.Internal.Correction.Weighted>
   9.000000E+99

> <Gold.Protein.RotatedTorsions>
[ 6907 6896 6895 6894 ] final   16.84 input  -60.11 | X-H torsion
[ 7974 7965 7964 7962 ] final  -71.69 input  175.53 | X-H torsion
[ 8008 7997 7996 7995 ] final  165.71 input   59.86 | X-H torsion
[ 10167 10162 10161 10158 ] final  -98.13 input  -65.29 | X-H torsion
[ 10718 10713 10712 10709 ] final -160.58 input   66.30 | X-H torsion
[ 10763 10752 10751 10750 ] final   50.15 input  -60.55 | X-H torsion
[ 11005 11000 10999 10996 ] final  -84.23 input  -57.11 | X-H torsion

> <Gold.Protein.ActiveResidues>
 VAL166  LYS551  ARG553  GLY616  TRP617  ASP618  TYR619  PRO620  LYS621  CYS622 
 ASP623  PHE694  ASN695  SER759  ASP760  ASP761  ALA762  ILE779  LEU786  VAL792 
 PHE793  MET794  SER795  GLU796  ALA797  LYS798  CYS799  TRP800  GLU811  SER814 

> <Gold.Protein.RotatedAtoms>
  151.8402  135.0592  160.0446 H   0  0  0  0  0  0  0  0  0  0  0  0  # atno 6907 bound_to 6896
  152.2815  133.5470  159.5509 H   0  0  0  0  0  0  0  0  0  0  0  0  # atno 6908 bound_to 6896
  150.7191  134.0474  159.3829 H   0  0  0  0  0  0  0  0  0  0  0  0  # atno 6909 bound_to 6896
  145.6749  140.9208  143.0863 H   0  0  0  0  0  0  0  0  0  0  0  0  # atno 7974 bound_to 7965
  156.1778  140.1662  156.8330 H   0  0  0  0  0  0  0  0  0  0  0  0  # atno 8008 bound_to 7997
  154.5326  140.0753  156.8405 H   0  0  0  0  0  0  0  0  0  0  0  0  # atno 8009 bound_to 7997
  155.3376  140.3383  155.4241 H   0  0  0  0  0  0  0  0  0  0  0  0  # atno 8010 bound_to 7997
  140.2762  143.3312  152.0486 H   0  0  0  0  0  0  0  0  0  0  0  0  # atno 10167 bound_to 10162
  156.5841  130.8742  151.2872 H   0  0  0  0  0  0  0  0  0  0  0  0  # atno 10718 bound_to 10713
  152.9785  135.5888  154.4205 H   0  0  0  0  0  0  0  0  0  0  0  0  # atno 10763 bound_to 10752
  154.3830  135.2767  155.2202 H   0  0  0  0  0  0  0  0  0  0  0  0  # atno 10764 bound_to 10752
  154.4107  135.6082  153.6005 H   0  0  0  0  0  0  0  0  0  0  0  0  # atno 10765 bound_to 10752
  141.1652  133.7335  156.8838 H   0  0  0  0  0  0  0  0  0  0  0  0  # atno 11005 bound_to 11000
  144.7045  139.8620  143.7434 LP  0  0  0  0  0  0  0  0  0  0  0  0  # atno 17320 bound_to 7965
  146.1014  139.4010  143.0344 LP  0  0  0  0  0  0  0  0  0  0  0  0  # atno 17321 bound_to 7965
  139.4975  144.6623  151.6436 LP  0  0  0  0  0  0  0  0  0  0  0  0  # atno 17342 bound_to 10162
  140.5850  143.9880  150.6290 LP  0  0  0  0  0  0  0  0  0  0  0  0  # atno 17343 bound_to 10162
  157.7319  130.9708  150.1905 LP  0  0  0  0  0  0  0  0  0  0  0  0  # atno 17370 bound_to 10713
  156.2606  130.3710  149.8134 LP  0  0  0  0  0  0  0  0  0  0  0  0  # atno 17371 bound_to 10713
  140.1696  134.9109  157.2817 LP  0  0  0  0  0  0  0  0  0  0  0  0  # atno 17394 bound_to 11000
  140.2517  134.3675  155.7440 LP  0  0  0  0  0  0  0  0  0  0  0  0  # atno 17395 bound_to 11000

$$$$
