AV-unprocessed.smi:3311|AV-procd|sdf|12724|dock8
  -GOLD-   2272019 63D 1   1.00000     0.00000
 Structure written by MMmdl.
 43 44  0  0  0  0  0  0  0  0  1 V2000
  146.4973  138.9925  151.2094 C   0  0  0  0  0  0  0  0  0  0  0  0
  146.4664  138.2575  152.5675 C   0  0  1  0  0  0  0  0  0  0  0  0
  146.4042  136.8021  152.3893 N   0  0  0  0  0  0  0  0  0  0  0  0
  145.2747  136.2942  151.6069 C   0  0  0  0  0  0  0  0  0  0  0  0
  145.1199  134.7609  151.7247 C   0  0  0  0  0  0  0  0  0  0  0  0
  144.7342  134.4844  153.0598 O   0  0  0  0  0  0  0  0  0  0  0  0
  144.0644  134.1901  150.7430 C   0  0  0  0  0  0  0  0  0  0  0  0
  144.0084  132.6518  150.7473 C   0  0  0  0  0  0  0  0  0  0  0  0
  145.3887  132.0386  150.4765 C   0  0  0  0  0  0  0  0  0  0  0  0
  146.4220  132.5494  151.4896 C   0  0  0  0  0  0  0  0  0  0  0  0
  146.4926  134.0872  151.4869 C   0  0  0  0  0  0  0  0  0  0  0  0
  147.6628  138.6136  153.4911 C   0  0  2  0  0  0  0  0  0  0  0  0
  147.7158  137.7302  154.7512 C   0  0  0  0  0  0  0  0  0  0  0  0
  147.7159  140.0334  153.8341 N   0  0  0  0  0  0  0  0  0  0  0  0
  146.8301  141.0469  153.5186 C   0  0  0  0  0  0  0  0  0  0  0  0
  147.3317  142.2077  154.0334 C   0  0  0  0  0  0  0  0  0  0  0  0
  148.5500  141.8055  154.6466 C   0  0  0  0  0  0  0  0  0  0  0  0
  148.7793  140.5090  154.5206 N   0  0  0  0  0  0  0  0  0  0  0  0
  146.6572  140.0624  151.3395 H   0  0  0  0  0  0  0  0  0  0  0  0
  145.5552  138.8849  150.6728 H   0  0  0  0  0  0  0  0  0  0  0  0
  147.2904  138.6151  150.5632 H   0  0  0  0  0  0  0  0  0  0  0  0
  145.5590  138.5688  153.0863 H   0  0  0  0  0  0  0  0  0  0  0  0
  147.2737  136.4682  151.9845 H   0  0  0  0  0  0  0  0  0  0  0  0
  144.3577  136.7770  151.9473 H   0  0  0  0  0  0  0  0  0  0  0  0
  145.3879  136.5554  150.5546 H   0  0  0  0  0  0  0  0  0  0  0  0
  143.8028  134.6236  153.1359 H   0  0  0  0  0  0  0  0  0  0  0  0
  143.0723  134.5807  150.9728 H   0  0  0  0  0  0  0  0  0  0  0  0
  144.2960  134.5296  149.7325 H   0  0  0  0  0  0  0  0  0  0  0  0
  143.6334  132.2992  151.7087 H   0  0  0  0  0  0  0  0  0  0  0  0
  143.2969  132.3066  149.9967 H   0  0  0  0  0  0  0  0  0  0  0  0
  145.3285  130.9508  150.5216 H   0  0  0  0  0  0  0  0  0  0  0  0
  145.7107  132.2899  149.4651 H   0  0  0  0  0  0  0  0  0  0  0  0
  146.1671  132.1909  152.4875 H   0  0  0  0  0  0  0  0  0  0  0  0
  147.4031  132.1349  151.2570 H   0  0  0  0  0  0  0  0  0  0  0  0
  146.8884  134.4113  150.5234 H   0  0  0  0  0  0  0  0  0  0  0  0
  147.2134  134.4220  152.2346 H   0  0  0  0  0  0  0  0  0  0  0  0
  148.5796  138.3852  152.9432 H   0  0  0  0  0  0  0  0  0  0  0  0
  147.7782  136.6751  154.4837 H   0  0  0  0  0  0  0  0  0  0  0  0
  146.8357  137.8566  155.3812 H   0  0  0  0  0  0  0  0  0  0  0  0
  148.5924  137.9648  155.3556 H   0  0  0  0  0  0  0  0  0  0  0  0
  145.9261  140.8642  152.9570 H   0  0  0  0  0  0  0  0  0  0  0  0
  146.8971  143.1944  153.9758 H   0  0  0  0  0  0  0  0  0  0  0  0
  149.2715  142.4129  155.1729 H   0  0  0  0  0  0  0  0  0  0  0  0
  1  2  1  0  0  0  0
  1 19  1  0  0  0  0
  1 20  1  0  0  0  0
  1 21  1  0  0  0  0
  2  3  1  0  0  0  0
  2 12  1  0  0  0  0
  2 22  1  0  0  0  0
  3  4  1  0  0  0  0
  3 23  1  0  0  0  0
  4  5  1  0  0  0  0
  4 24  1  0  0  0  0
  4 25  1  0  0  0  0
  5 11  1  0  0  0  0
  5  6  1  0  0  0  0
  5  7  1  0  0  0  0
  6 26  1  0  0  0  0
  7  8  1  0  0  0  0
  7 27  1  0  0  0  0
  7 28  1  0  0  0  0
  8  9  1  0  0  0  0
  8 29  1  0  0  0  0
  8 30  1  0  0  0  0
  9 10  1  0  0  0  0
  9 31  1  0  0  0  0
  9 32  1  0  0  0  0
 10 11  1  0  0  0  0
 10 33  1  0  0  0  0
 10 34  1  0  0  0  0
 11 35  1  0  0  0  0
 11 36  1  0  0  0  0
 12 13  1  0  0  0  0
 12 14  1  0  0  0  0
 12 37  1  0  0  0  0
 13 38  1  0  0  0  0
 13 39  1  0  0  0  0
 13 40  1  0  0  0  0
 14 18  1  0  0  0  0
 14 15  1  0  0  0  0
 15 16  2  0  0  0  0
 15 41  1  0  0  0  0
 16 17  1  0  0  0  0
 16 42  1  0  0  0  0
 17 18  2  0  0  0  0
 17 43  1  0  0  0  0
M  END
> <s_m_source_file>
AV-unprocessed.smi

> <i_m_source_file_index>
3311

> <i_lp_mmshare_version>
43012

> <i_f3d_flags>
0

> <s_epik_input>
bjFbY0hdW2NIXVtjSF1uMVtDQEBIXShbQ0gzXSlbQ0BIXShbQ0gzXSlbTkhdW0NIMl1DMihbT0hdKVtDSDJdW0NIMl1bQ0gyXVtDSDJdW0NIMl0y

> <s_epik_cmdline>
J2VwaWtfcHl0aG9uJywgJy1waCcsICc3LjAnLCAnLXRuJywgJzgnLCAnLW1hJywgJzIwMCcsICctbWV0YWxfYmluZGluZycsICctaW1hZScsICc8aW5maWxlLm1hZT4nLCAnLW9tYWUnLCAnPG91dGZpbGUubWFlPic=

> <r_lp_tautomer_probability>
1

> <r_epik_Ionization_Penalty>
2.222

> <r_epik_Ionization_Penalty_Charging>
0

> <r_epik_Ionization_Penalty_Neutral>
2.222

> <r_epik_State_Penalty>
2.36562

> <r_epik_Charging_Adjusted_Penalty>
2.36562

> <i_epik_Tot_Q>
0

> <i_epik_Tot_abs_Q>
0

> <r_epik_Metal_State_Penalty>
2.36435

> <b_epik_Metal_Only>
0

> <s_lp_Force_Field>
OPLS_2005

> <r_lp_Energy>
28.1428

> <b_lp_Chiralities_Consistent>
1

> <s_lp_Variant>
AV-unprocessed.smi:3311-6

> <Gold.Version>
5.8.1

> <Gold.Id.Protein>
6NUR|6NUR_protein|mol2

> <Gold.PLP.Fitness>
42.0790

> <Gold.PLP.PLP>
-33.8057

> <Gold.PLP.part.hbond>
-1.0000

> <Gold.PLP.part.metal>
0.0000

> <Gold.PLP.part.buried>
0.6594

> <Gold.PLP.part.nonpolar>
-34.0938

> <Gold.PLP.part.repulsive>
0.1108

> <Gold.PLP.ligand.clash>
0.0000

> <Gold.PLP.ligand.torsion>
0.2086

> <Gold.PLP.Chemscore.Hbond>
1.0000

> <Gold.PLP.Chemscore.CHOScore>
1.8475

> <Gold.PLP.Chemscore.Metal>
0.0000

> <Gold.Chemscore.Hbonds>
donor molecule, donor type, donor heavy atom, donor atom, acceptor molecule, acceptor atom, score
      L1  H     3    23       P1  7948  1.00
      L1  C    15    41       P1 10175  1.00
      L1  C    17    43       P1  8028  0.83

> <Gold.PLP.Chemscore.Internal.Correction>
0.1480

> <Gold.Rescore>
     Score         DG    S(hbond)    S(metal)    S(lipo)     H(rot)  DE(clash)    DE(int)     intcor
     13.97     -14.33       0.99        0.00      92.59       2.07       0.14       0.22       ----

> <Gold.Chemscore.Fitness>
13.9679

> <Gold.Chemscore.DG>
-14.3276

> <Gold.Chemscore.ZeroCoef>
-5.4800

> <Gold.Chemscore.Hbond>
0.9910

> <Gold.Chemscore.Metal>
0.0000

> <Gold.Chemscore.Lipo>
92.5927

> <Gold.Chemscore.Internal_Hbond>
0.0000

> <Gold.Chemscore.DEClash>
0.1374

> <Gold.Chemscore.DEInternal>
0.2222

> <Gold.Chemscore.Rot>
2.0686

> <Gold.Chemscore.Internal.Correction>
   9.000000E+99

> <Gold.Chemscore.Hbonds>
donor molecule, donor type, donor heavy atom, donor atom, acceptor molecule, acceptor atom, score
      L1  H     3    23       P1  7948  0.99

> <Gold.Chemscore.Hbond.Weighted>
-3.3099

> <Gold.Chemscore.Metal.Weighted>
-0.0000

> <Gold.Chemscore.Lipo.Weighted>
-10.8333

> <Gold.Chemscore.Internal_Hbond.Weighted>
0.0000

> <Gold.Chemscore.DEClash.Weighted>
0.1374

> <Gold.Chemscore.DEInternal.Weighted>
0.2222

> <Gold.Chemscore.Rot.Weighted>
5.2957

> <Gold.Chemscore.Internal.Correction.Weighted>
   9.000000E+99

> <Gold.Protein.RotatedTorsions>
[ 6907 6896 6895 6894 ] final   33.85 input  -60.11 | X-H torsion
[ 7974 7965 7964 7962 ] final -163.50 input  175.53 | X-H torsion
[ 8008 7997 7996 7995 ] final -165.03 input   59.86 | X-H torsion
[ 10167 10162 10161 10158 ] final  139.97 input  -65.29 | X-H torsion
[ 10718 10713 10712 10709 ] final  169.24 input   66.30 | X-H torsion
[ 10763 10752 10751 10750 ] final   20.97 input  -60.55 | X-H torsion
[ 11005 11000 10999 10996 ] final   49.01 input  -57.11 | X-H torsion

> <Gold.Protein.ActiveResidues>
 VAL166  LYS551  ARG553  GLY616  TRP617  ASP618  TYR619  PRO620  LYS621  CYS622 
 ASP623  PHE694  ASN695  SER759  ASP760  ASP761  ALA762  ILE779  LEU786  VAL792 
 PHE793  MET794  SER795  GLU796  ALA797  LYS798  CYS799  TRP800  GLU811  SER814 

> <Gold.Protein.RotatedAtoms>
  152.0942  134.9386  160.0570 H   0  0  0  0  0  0  0  0  0  0  0  0  # atno 6907 bound_to 6896
  152.0626  133.4064  159.4432 H   0  0  0  0  0  0  0  0  0  0  0  0  # atno 6908 bound_to 6896
  150.6837  134.3103  159.4787 H   0  0  0  0  0  0  0  0  0  0  0  0  # atno 6909 bound_to 6896
  144.7324  140.3097  143.6190 H   0  0  0  0  0  0  0  0  0  0  0  0  # atno 7974 bound_to 7965
  155.8441  140.0953  157.1716 H   0  0  0  0  0  0  0  0  0  0  0  0  # atno 8008 bound_to 7997
  154.3983  140.1395  156.3825 H   0  0  0  0  0  0  0  0  0  0  0  0  # atno 8009 bound_to 7997
  155.8033  140.3452  155.5417 H   0  0  0  0  0  0  0  0  0  0  0  0  # atno 8010 bound_to 7997
  139.5063  144.6262  151.5930 H   0  0  0  0  0  0  0  0  0  0  0  0  # atno 10167 bound_to 10162
  157.0255  131.0244  151.2761 H   0  0  0  0  0  0  0  0  0  0  0  0  # atno 10718 bound_to 10713
  153.1033  135.6678  153.9632 H   0  0  0  0  0  0  0  0  0  0  0  0  # atno 10763 bound_to 10752
  153.9196  135.3016  155.3449 H   0  0  0  0  0  0  0  0  0  0  0  0  # atno 10764 bound_to 10752
  154.7454  135.5060  153.9271 H   0  0  0  0  0  0  0  0  0  0  0  0  # atno 10765 bound_to 10752
  140.1141  134.4916  155.8652 H   0  0  0  0  0  0  0  0  0  0  0  0  # atno 11005 bound_to 11000
  145.7677  139.1846  143.2230 LP  0  0  0  0  0  0  0  0  0  0  0  0  # atno 17320 bound_to 7965
  146.0936  140.7627  142.9583 LP  0  0  0  0  0  0  0  0  0  0  0  0  # atno 17321 bound_to 7965
  140.5980  143.9660  150.6367 LP  0  0  0  0  0  0  0  0  0  0  0  0  # atno 17342 bound_to 10162
  140.2863  143.3355  152.1104 LP  0  0  0  0  0  0  0  0  0  0  0  0  # atno 17343 bound_to 10162
  157.5217  130.8002  149.7817 LP  0  0  0  0  0  0  0  0  0  0  0  0  # atno 17370 bound_to 10713
  156.0087  130.3843  150.2338 LP  0  0  0  0  0  0  0  0  0  0  0  0  # atno 17371 bound_to 10713
  141.2137  133.6737  156.6762 LP  0  0  0  0  0  0  0  0  0  0  0  0  # atno 17394 bound_to 11000
  140.3052  134.8131  157.4131 LP  0  0  0  0  0  0  0  0  0  0  0  0  # atno 17395 bound_to 11000

$$$$
