AV-unprocessed.smi:1824|AV-procd|sdf|7410|dock6
  -GOLD-   22720 9 83D 1   1.00000     0.00000
 Structure written by MMmdl.
 45 47  0  0  0  0  0  0  0  0  2 V2000
  151.2611  139.7837  155.1620 C   0  0  0  0  0  0  0  0  0  0  0  0
  150.2070  138.7399  154.7777 C   0  0  2  0  0  0  0  0  0  0  0  0
  149.0641  139.3459  153.9412 C   0  0  0  0  0  0  0  0  0  0  0  0
  148.0261  138.3660  153.6424 N   0  0  0  0  0  0  0  0  0  0  0  0
  146.9613  138.9604  152.8331 C   0  0  0  0  0  0  0  0  0  0  0  0
  146.1232  137.9607  152.0126 C   0  0  1  0  0  0  0  0  0  0  0  0
  146.4920  138.0875  150.6546 O   0  0  0  0  0  0  0  0  0  0  0  0
  146.3417  136.5007  152.4586 C   0  0  0  0  0  0  0  0  0  0  0  0
  145.3911  135.5694  151.8389 N   0  0  0  0  0  0  0  0  0  0  0  0
  144.2587  135.8154  151.1252 C   0  0  0  0  0  0  0  0  0  0  0  0
  143.7308  134.6117  150.7672 N   0  3  0  0  0  0  0  0  0  0  0  0
  144.5402  133.5829  151.2558 C   0  0  0  0  0  0  0  0  0  0  0  0
  144.4235  132.2006  151.1517 C   0  0  0  0  0  0  0  0  0  0  0  0
  145.4311  131.4294  151.7686 C   0  0  0  0  0  0  0  0  0  0  0  0
  145.3662  130.0789  151.6970 F   0  0  0  0  0  0  0  0  0  0  0  0
  146.5032  132.0369  152.4567 C   0  0  0  0  0  0  0  0  0  0  0  0
  147.4500  131.2598  153.0339 F   0  0  0  0  0  0  0  0  0  0  0  0
  146.6104  133.4397  152.5561 C   0  0  0  0  0  0  0  0  0  0  0  0
  145.6098  134.1924  151.9435 C   0  0  0  0  0  0  0  0  0  0  0  0
  147.5359  137.8019  154.8978 C   0  0  0  0  0  0  0  0  0  0  0  0
  148.6745  137.1914  155.7369 C   0  0  2  0  0  0  0  0  0  0  0  0
  148.1811  136.6677  157.0896 C   0  0  0  0  0  0  0  0  0  0  0  0
  149.6646  138.1879  155.9744 O   0  0  0  0  0  0  0  0  0  0  0  0
  151.7153  140.2274  154.2756 H   0  0  0  0  0  0  0  0  0  0  0  0
  152.0581  139.3324  155.7532 H   0  0  0  0  0  0  0  0  0  0  0  0
  150.8229  140.5888  155.7526 H   0  0  0  0  0  0  0  0  0  0  0  0
  150.6928  137.9443  154.2102 H   0  0  0  0  0  0  0  0  0  0  0  0
  148.6293  140.1905  154.4783 H   0  0  0  0  0  0  0  0  0  0  0  0
  149.4722  139.7450  153.0118 H   0  0  0  0  0  0  0  0  0  0  0  0
  146.3010  139.5417  153.4791 H   0  0  0  0  0  0  0  0  0  0  0  0
  147.4016  139.6767  152.1378 H   0  0  0  0  0  0  0  0  0  0  0  0
  145.0663  138.2173  152.0737 H   0  0  0  0  0  0  0  0  0  0  0  0
  145.7469  138.4089  150.1706 H   0  0  0  0  0  0  0  0  0  0  0  0
  147.3478  136.1687  152.1983 H   0  0  0  0  0  0  0  0  0  0  0  0
  146.2560  136.4022  153.5415 H   0  0  0  0  0  0  0  0  0  0  0  0
  143.8521  136.7884  150.8884 H   0  0  0  0  0  0  0  0  0  0  0  0
  143.6056  131.7312  150.6257 H   0  0  0  0  0  0  0  0  0  0  0  0
  147.4344  133.8955  153.0847 H   0  0  0  0  0  0  0  0  0  0  0  0
  147.0299  138.5760  155.4770 H   0  0  0  0  0  0  0  0  0  0  0  0
  146.7979  137.0252  154.7025 H   0  0  0  0  0  0  0  0  0  0  0  0
  149.1294  136.3654  155.1872 H   0  0  0  0  0  0  0  0  0  0  0  0
  147.4272  135.8913  156.9584 H   0  0  0  0  0  0  0  0  0  0  0  0
  147.7391  137.4672  157.6849 H   0  0  0  0  0  0  0  0  0  0  0  0
  149.0023  136.2394  157.6646 H   0  0  0  0  0  0  0  0  0  0  0  0
  142.8812  134.5040  150.2275 H   0  0  0  0  0  0  0  0  0  0  0  0
  1  2  1  0  0  0  0
  1 24  1  0  0  0  0
  1 25  1  0  0  0  0
  1 26  1  0  0  0  0
  2 23  1  0  0  0  0
  2  3  1  0  0  0  0
  2 27  1  0  0  0  0
  3  4  1  0  0  0  0
  3 28  1  0  0  0  0
  3 29  1  0  0  0  0
  4  5  1  0  0  0  0
  4 20  1  0  0  0  0
  5  6  1  0  0  0  0
  5 30  1  0  0  0  0
  5 31  1  0  0  0  0
  6  7  1  0  0  0  0
  6  8  1  0  0  0  0
  6 32  1  0  0  0  0
  7 33  1  0  0  0  0
  8  9  1  0  0  0  0
  8 34  1  0  0  0  0
  8 35  1  0  0  0  0
  9 19  1  0  0  0  0
  9 10  1  0  0  0  0
 10 11  2  0  0  0  0
 10 36  1  0  0  0  0
 11 12  1  0  0  0  0
 11 45  1  0  0  0  0
 12 19  2  0  0  0  0
 12 13  1  0  0  0  0
 13 14  2  0  0  0  0
 13 37  1  0  0  0  0
 14 15  1  0  0  0  0
 14 16  1  0  0  0  0
 16 17  1  0  0  0  0
 16 18  2  0  0  0  0
 18 19  1  0  0  0  0
 18 38  1  0  0  0  0
 20 21  1  0  0  0  0
 20 39  1  0  0  0  0
 20 40  1  0  0  0  0
 21 22  1  0  0  0  0
 21 23  1  0  0  0  0
 21 41  1  0  0  0  0
 22 42  1  0  0  0  0
 22 43  1  0  0  0  0
 22 44  1  0  0  0  0
M  CHG  1  11   1
M  END
> <s_m_source_file>
AV-unprocessed.smi

> <i_m_source_file_index>
1824

> <i_lp_mmshare_version>
43012

> <i_f3d_flags>
0

> <s_epik_input>
W0NIM11bQ0BASF0xW0NIMl1OKFtDSDJdW0NASF0oTzEpW0NIM10pW0NIMl1bQ0BIXShbT0hdKVtDSDJdbihbY0hdbjIpYyhjMjMpW2NIXWMoRiljKEYpW2NIXTM=

> <s_epik_cmdline>
J2VwaWtfcHl0aG9uJywgJy1waCcsICc3LjAnLCAnLXRuJywgJzgnLCAnLW1hJywgJzIwMCcsICctbWV0YWxfYmluZGluZycsICctaW1hZScsICc8aW5maWxlLm1hZT4nLCAnLW9tYWUnLCAnPG91dGZpbGUubWFlPic=

> <r_epik_Ionization_Penalty>
2.58709

> <r_epik_Ionization_Penalty_Charging>
2.37273

> <r_epik_Ionization_Penalty_Neutral>
0.214359

> <r_epik_State_Penalty>
2.71799

> <r_epik_Charging_Adjusted_Penalty>
5.09071

> <i_epik_Tot_Q>
1

> <i_epik_Tot_abs_Q>
1

> <r_epik_Metal_State_Penalty>
6.80217

> <b_epik_Metal_Only>
0

> <s_lp_Force_Field>
OPLS_2005

> <r_lp_Energy>
28.8683

> <b_lp_Chiralities_Consistent>
1

> <s_lp_Variant>
AV-unprocessed.smi:1824-18

> <Gold.Version>
5.8.1

> <Gold.Id.Protein>
6NUR|6NUR_protein|mol2

> <Gold.PLP.Fitness>
47.8428

> <Gold.PLP.PLP>
-34.9162

> <Gold.PLP.part.hbond>
-3.3953

> <Gold.PLP.part.metal>
0.0000

> <Gold.PLP.part.buried>
0.0921

> <Gold.PLP.part.nonpolar>
-32.6664

> <Gold.PLP.part.repulsive>
0.9871

> <Gold.PLP.ligand.clash>
0.0000

> <Gold.PLP.ligand.torsion>
1.0401

> <Gold.PLP.Chemscore.Hbond>
4.0000

> <Gold.PLP.Chemscore.CHOScore>
1.0000

> <Gold.PLP.Chemscore.Metal>
0.0000

> <Gold.Chemscore.Hbonds>
donor molecule, donor type, donor heavy atom, donor atom, acceptor molecule, acceptor atom, score
      L1  H     7    33       P1 10171  1.00
      L1  H    11    45       P1 10186  2.00
      P1  H  7954  7966       L1     7  0.99
      L1  C    10    36       P1 10171  1.00

> <Gold.PLP.Chemscore.Internal.Correction>
0.0068

> <Gold.Rescore>
     Score         DG    S(hbond)    S(metal)    S(lipo)     H(rot)  DE(clash)    DE(int)     intcor
     14.74     -17.23       2.68        0.00      74.71       2.32       1.34       1.15       ----

> <Gold.Chemscore.Fitness>
14.7423

> <Gold.Chemscore.DG>
-17.2333

> <Gold.Chemscore.ZeroCoef>
-5.4800

> <Gold.Chemscore.Hbond>
2.6809

> <Gold.Chemscore.Metal>
0.0000

> <Gold.Chemscore.Lipo>
74.7081

> <Gold.Chemscore.Internal_Hbond>
0.0000

> <Gold.Chemscore.DEClash>
1.3437

> <Gold.Chemscore.DEInternal>
1.1473

> <Gold.Chemscore.Rot>
2.3210

> <Gold.Chemscore.Internal.Correction>
   9.000000E+99

> <Gold.Chemscore.Hbonds>
donor molecule, donor type, donor heavy atom, donor atom, acceptor molecule, acceptor atom, score
      L1  H     7    33       P1 10171  0.98
      L1  H    11    45       P1 10186  0.68
      P1  H  7954  7966       L1     7  0.92

> <Gold.Chemscore.Hbond.Weighted>
-8.9541

> <Gold.Chemscore.Metal.Weighted>
-0.0000

> <Gold.Chemscore.Lipo.Weighted>
-8.7409

> <Gold.Chemscore.Internal_Hbond.Weighted>
0.0000

> <Gold.Chemscore.DEClash.Weighted>
1.3437

> <Gold.Chemscore.DEInternal.Weighted>
1.1473

> <Gold.Chemscore.Rot.Weighted>
5.9416

> <Gold.Chemscore.Internal.Correction.Weighted>
   9.000000E+99

> <Gold.Protein.RotatedTorsions>
[ 6907 6896 6895 6894 ] final  166.49 input  -60.11 | X-H torsion
[ 7974 7965 7964 7962 ] final  152.22 input  175.53 | X-H torsion
[ 8008 7997 7996 7995 ] final    4.04 input   59.86 | X-H torsion
[ 10167 10162 10161 10158 ] final   51.03 input  -65.29 | X-H torsion
[ 10718 10713 10712 10709 ] final   77.04 input   66.30 | X-H torsion
[ 10763 10752 10751 10750 ] final   17.26 input  -60.55 | X-H torsion
[ 11005 11000 10999 10996 ] final -119.98 input  -57.11 | X-H torsion

> <Gold.Protein.ActiveResidues>
 VAL166  LYS551  ARG553  GLY616  TRP617  ASP618  TYR619  PRO620  LYS621  CYS622 
 ASP623  PHE694  ASN695  SER759  ASP760  ASP761  ALA762  ILE779  LEU786  VAL792 
 PHE793  MET794  SER795  GLU796  ALA797  LYS798  CYS799  TRP800  GLU811  SER814 

> <Gold.Protein.RotatedAtoms>
  151.8780  133.3489  159.3756 H   0  0  0  0  0  0  0  0  0  0  0  0  # atno 6907 bound_to 6896
  150.7135  134.5046  159.5587 H   0  0  0  0  0  0  0  0  0  0  0  0  # atno 6908 bound_to 6896
  152.2592  134.8052  160.0484 H   0  0  0  0  0  0  0  0  0  0  0  0  # atno 6909 bound_to 6896
  144.8237  139.6641  143.6089 H   0  0  0  0  0  0  0  0  0  0  0  0  # atno 7974 bound_to 7965
  154.7110  140.2692  155.6629 H   0  0  0  0  0  0  0  0  0  0  0  0  # atno 8008 bound_to 7997
  156.2795  140.2753  156.1676 H   0  0  0  0  0  0  0  0  0  0  0  0  # atno 8009 bound_to 7997
  155.0634  140.0371  157.2574 H   0  0  0  0  0  0  0  0  0  0  0  0  # atno 8010 bound_to 7997
  140.2662  144.3317  150.6303 H   0  0  0  0  0  0  0  0  0  0  0  0  # atno 10167 bound_to 10162
  157.6696  130.9803  150.1584 H   0  0  0  0  0  0  0  0  0  0  0  0  # atno 10718 bound_to 10713
  153.1355  135.6749  153.9109 H   0  0  0  0  0  0  0  0  0  0  0  0  # atno 10763 bound_to 10752
  153.8582  135.3084  155.3437 H   0  0  0  0  0  0  0  0  0  0  0  0  # atno 10764 bound_to 10752
  154.7744  135.4922  153.9797 H   0  0  0  0  0  0  0  0  0  0  0  0  # atno 10765 bound_to 10752
  141.0176  134.0172  157.3327 H   0  0  0  0  0  0  0  0  0  0  0  0  # atno 11005 bound_to 11000
  146.2543  139.6267  142.9406 LP  0  0  0  0  0  0  0  0  0  0  0  0  # atno 17320 bound_to 7965
  145.5048  141.0437  143.2521 LP  0  0  0  0  0  0  0  0  0  0  0  0  # atno 17321 bound_to 7965
  140.5926  143.2167  151.7224 LP  0  0  0  0  0  0  0  0  0  0  0  0  # atno 17342 bound_to 10162
  139.5002  144.3916  152.0274 LP  0  0  0  0  0  0  0  0  0  0  0  0  # atno 17343 bound_to 10162
  156.2366  130.3687  149.8384 LP  0  0  0  0  0  0  0  0  0  0  0  0  # atno 17370 bound_to 10713
  156.6196  130.8621  151.3472 LP  0  0  0  0  0  0  0  0  0  0  0  0  # atno 17371 bound_to 10713
  139.9126  135.0192  156.7755 LP  0  0  0  0  0  0  0  0  0  0  0  0  # atno 17394 bound_to 11000
  140.6628  133.9630  155.7814 LP  0  0  0  0  0  0  0  0  0  0  0  0  # atno 17395 bound_to 11000

$$$$
