AV-unprocessed.smi:3112|AV-procd|sdf|11841|dock5
  -GOLD-   2272017213D 1   1.00000     0.00000
 Structure written by MMmdl.
 37 37  0  0  0  0  0  0  0  0  2 V2000
  146.2336  142.0376  154.3948 C   0  0  0  0  0  0  0  0  0  0  0  0
  147.5593  141.9043  153.6326 C   0  0  0  0  0  0  0  0  0  0  0  0
  148.4780  140.8011  154.1886 C   0  0  1  0  0  0  0  0  0  0  0  0
  149.6192  140.6936  153.3599 O   0  0  0  0  0  0  0  0  0  0  0  0
  148.9424  141.1038  155.6229 C   0  0  0  0  0  0  0  0  0  0  0  0
  150.1360  141.9758  155.6204 N   0  3  0  0  0  0  0  0  0  0  0  0
  151.2594  141.5214  156.4738 C   0  0  2  0  0  0  0  0  0  0  0  0
  151.5999  140.0540  156.1514 C   0  0  0  0  0  0  0  0  0  0  0  0
  150.9036  141.7379  157.9682 C   0  0  1  0  0  0  0  0  0  0  0  0
  151.3554  140.5834  158.8826 C   0  0  0  0  0  0  0  0  0  0  0  0
  151.4588  142.9973  158.4530 N   0  0  0  0  0  0  0  0  0  0  0  0
  151.4503  144.2391  157.8481 C   0  0  0  0  0  0  0  0  0  0  0  0
  152.0559  145.1146  158.7027 C   0  0  0  0  0  0  0  0  0  0  0  0
  152.3985  144.3100  159.8245 C   0  0  0  0  0  0  0  0  0  0  0  0
  152.0310  143.0475  159.6763 N   0  0  0  0  0  0  0  0  0  0  0  0
  145.6342  142.8522  153.9879 H   0  0  0  0  0  0  0  0  0  0  0  0
  146.4054  142.2483  155.4508 H   0  0  0  0  0  0  0  0  0  0  0  0
  145.6398  141.1258  154.3268 H   0  0  0  0  0  0  0  0  0  0  0  0
  147.3581  141.7264  152.5753 H   0  0  0  0  0  0  0  0  0  0  0  0
  148.0786  142.8620  153.6851 H   0  0  0  0  0  0  0  0  0  0  0  0
  147.9440  139.8496  154.1750 H   0  0  0  0  0  0  0  0  0  0  0  0
  149.4385  140.0682  152.6743 H   0  0  0  0  0  0  0  0  0  0  0  0
  148.1349  141.5597  156.1967 H   0  0  0  0  0  0  0  0  0  0  0  0
  149.2033  140.1710  156.1245 H   0  0  0  0  0  0  0  0  0  0  0  0
  150.4755  142.0114  154.6692 H   0  0  0  0  0  0  0  0  0  0  0  0
  152.1317  142.1367  156.2464 H   0  0  0  0  0  0  0  0  0  0  0  0
  152.4803  139.7156  156.6971 H   0  0  0  0  0  0  0  0  0  0  0  0
  151.8207  139.9146  155.0933 H   0  0  0  0  0  0  0  0  0  0  0  0
  150.7732  139.3902  156.4066 H   0  0  0  0  0  0  0  0  0  0  0  0
  149.8168  141.8047  158.0523 H   0  0  0  0  0  0  0  0  0  0  0  0
  150.8151  139.6624  158.6653 H   0  0  0  0  0  0  0  0  0  0  0  0
  151.1669  140.8195  159.9306 H   0  0  0  0  0  0  0  0  0  0  0  0
  152.4209  140.3786  158.7749 H   0  0  0  0  0  0  0  0  0  0  0  0
  151.0183  144.3963  156.8706 H   0  0  0  0  0  0  0  0  0  0  0  0
  152.2265  146.1701  158.5511 H   0  0  0  0  0  0  0  0  0  0  0  0
  152.8942  144.6043  160.7379 H   0  0  0  0  0  0  0  0  0  0  0  0
  149.8684  142.9108  155.8941 H   0  0  0  0  0  0  0  0  0  0  0  0
  1  2  1  0  0  0  0
  1 16  1  0  0  0  0
  1 17  1  0  0  0  0
  1 18  1  0  0  0  0
  2  3  1  0  0  0  0
  2 19  1  0  0  0  0
  2 20  1  0  0  0  0
  3  4  1  0  0  0  0
  3  5  1  0  0  0  0
  3 21  1  0  0  0  0
  4 22  1  0  0  0  0
  5  6  1  0  0  0  0
  5 23  1  0  0  0  0
  5 24  1  0  0  0  0
  6  7  1  0  0  0  0
  6 25  1  0  0  0  0
  6 37  1  0  0  0  0
  7  8  1  0  0  0  0
  7  9  1  0  0  0  0
  7 26  1  0  0  0  0
  8 27  1  0  0  0  0
  8 28  1  0  0  0  0
  8 29  1  0  0  0  0
  9 10  1  0  0  0  0
  9 11  1  0  0  0  0
  9 30  1  0  0  0  0
 10 31  1  0  0  0  0
 10 32  1  0  0  0  0
 10 33  1  0  0  0  0
 11 15  1  0  0  0  0
 11 12  1  0  0  0  0
 12 13  2  0  0  0  0
 12 34  1  0  0  0  0
 13 14  1  0  0  0  0
 13 35  1  0  0  0  0
 14 15  2  0  0  0  0
 14 36  1  0  0  0  0
M  CHG  1   6   1
M  END
> <s_m_source_file>
AV-unprocessed.smi

> <i_m_source_file_index>
3112

> <i_lp_mmshare_version>
43012

> <i_f3d_flags>
0

> <s_epik_input>
W0NIM11bQ0gyXVtDQEhdKFtPSF0pW0NIMl1bTkhdW0NASF0oW0NIM10pW0NASF0oW0NIM10pbjFbY0hdW2NIXVtjSF1uMQ==

> <s_epik_cmdline>
J2VwaWtfcHl0aG9uJywgJy1waCcsICc3LjAnLCAnLXRuJywgJzgnLCAnLW1hJywgJzIwMCcsICctbWV0YWxfYmluZGluZycsICctaW1hZScsICc8aW5maWxlLm1hZT4nLCAnLW9tYWUnLCAnPG91dGZpbGUubWFlPic=

> <r_lp_tautomer_probability>
1

> <r_epik_Ionization_Penalty>
0.0154842

> <r_epik_Ionization_Penalty_Charging>
0.0154724

> <r_epik_Ionization_Penalty_Neutral>
1.17979e-05

> <r_epik_State_Penalty>
0.0121607

> <r_epik_Charging_Adjusted_Penalty>
0.0276331

> <i_epik_Tot_Q>
1

> <i_epik_Tot_abs_Q>
1

> <r_epik_Metal_State_Penalty>
0.0121863

> <b_epik_Metal_Only>
0

> <s_lp_Force_Field>
OPLS_2005

> <r_lp_Energy>
12.5622

> <b_lp_Chiralities_Consistent>
1

> <s_lp_Variant>
AV-unprocessed.smi:3112-6

> <Gold.Version>
5.8.1

> <Gold.Id.Protein>
6NUR|6NUR_protein|mol2

> <Gold.PLP.Fitness>
49.2802

> <Gold.PLP.PLP>
-38.5339

> <Gold.PLP.part.hbond>
-3.4413

> <Gold.PLP.part.metal>
0.0000

> <Gold.PLP.part.buried>
-6.7150

> <Gold.PLP.part.nonpolar>
-28.6280

> <Gold.PLP.part.repulsive>
0.1572

> <Gold.PLP.ligand.clash>
0.0000

> <Gold.PLP.ligand.torsion>
2.1196

> <Gold.PLP.Chemscore.Hbond>
3.9614

> <Gold.PLP.Chemscore.CHOScore>
1.0000

> <Gold.PLP.Chemscore.Metal>
0.0000

> <Gold.Chemscore.Hbonds>
donor molecule, donor type, donor heavy atom, donor atom, acceptor molecule, acceptor atom, score
      L1  H     4    22       P1  7957  0.70
      L1  H     6    37       P1  8028  1.79
      P1  H  7989  7998       L1     4  0.34
      P1  H  8011  8017       L1     4  1.00
      L1  C    12    34       P1  8028  1.00

> <Gold.PLP.Chemscore.Internal.Correction>
0.1014

> <Gold.Rescore>
     Score         DG    S(hbond)    S(metal)    S(lipo)     H(rot)  DE(clash)    DE(int)     intcor
     14.49     -16.71       2.04        0.00      90.32       2.41       0.09       2.13       ----

> <Gold.Chemscore.Fitness>
14.4854

> <Gold.Chemscore.DG>
-16.7092

> <Gold.Chemscore.ZeroCoef>
-5.4800

> <Gold.Chemscore.Hbond>
2.0444

> <Gold.Chemscore.Metal>
0.0000

> <Gold.Chemscore.Lipo>
90.3206

> <Gold.Chemscore.Internal_Hbond>
0.0000

> <Gold.Chemscore.DEClash>
0.0898

> <Gold.Chemscore.DEInternal>
2.1340

> <Gold.Chemscore.Rot>
2.4089

> <Gold.Chemscore.Internal.Correction>
   9.000000E+99

> <Gold.Chemscore.Hbonds>
donor molecule, donor type, donor heavy atom, donor atom, acceptor molecule, acceptor atom, score
      L1  H     4    22       P1  7957  0.65
      L1  H     6    37       P1  8028  0.85
      P1  H  7989  7998       L1     4  0.19
      P1  H  8011  8017       L1     4  0.22

> <Gold.Chemscore.Hbond.Weighted>
-6.8284

> <Gold.Chemscore.Metal.Weighted>
-0.0000

> <Gold.Chemscore.Lipo.Weighted>
-10.5675

> <Gold.Chemscore.Internal_Hbond.Weighted>
0.0000

> <Gold.Chemscore.DEClash.Weighted>
0.0898

> <Gold.Chemscore.DEInternal.Weighted>
2.1340

> <Gold.Chemscore.Rot.Weighted>
6.1667

> <Gold.Chemscore.Internal.Correction.Weighted>
   9.000000E+99

> <Gold.Protein.RotatedTorsions>
[ 6907 6896 6895 6894 ] final  -15.31 input  -60.11 | X-H torsion
[ 7974 7965 7964 7962 ] final   42.04 input  175.53 | X-H torsion
[ 8008 7997 7996 7995 ] final  -29.92 input   59.86 | X-H torsion
[ 10167 10162 10161 10158 ] final  120.60 input  -65.29 | X-H torsion
[ 10718 10713 10712 10709 ] final   54.20 input   66.30 | X-H torsion
[ 10763 10752 10751 10750 ] final  170.59 input  -60.55 | X-H torsion
[ 11005 11000 10999 10996 ] final -130.97 input  -57.11 | X-H torsion

> <Gold.Protein.ActiveResidues>
 VAL166  LYS551  ARG553  GLY616  TRP617  ASP618  TYR619  PRO620  LYS621  CYS622 
 ASP623  PHE694  ASN695  SER759  ASP760  ASP761  ALA762  ILE779  LEU786  VAL792 
 PHE793  MET794  SER795  GLU796  ALA797  LYS798  CYS799  TRP800  GLU811  SER814 

> <Gold.Protein.RotatedAtoms>
  151.3259  135.0830  159.9321 H   0  0  0  0  0  0  0  0  0  0  0  0  # atno 6907 bound_to 6896
  152.5246  133.9591  159.7719 H   0  0  0  0  0  0  0  0  0  0  0  0  # atno 6908 bound_to 6896
  150.9921  133.6087  159.2737 H   0  0  0  0  0  0  0  0  0  0  0  0  # atno 6909 bound_to 6896
  146.0773  139.5345  142.9559 H   0  0  0  0  0  0  0  0  0  0  0  0  # atno 7974 bound_to 7965
  154.4270  140.1805  156.1325 H   0  0  0  0  0  0  0  0  0  0  0  0  # atno 8008 bound_to 7997
  156.0056  140.3355  155.6864 H   0  0  0  0  0  0  0  0  0  0  0  0  # atno 8009 bound_to 7997
  155.6182  140.0657  157.2677 H   0  0  0  0  0  0  0  0  0  0  0  0  # atno 8010 bound_to 7997
  139.5972  144.7045  151.3148 H   0  0  0  0  0  0  0  0  0  0  0  0  # atno 10167 bound_to 10162
  157.5236  130.8582  149.8591 H   0  0  0  0  0  0  0  0  0  0  0  0  # atno 10718 bound_to 10713
  154.3998  135.2755  155.2103 H   0  0  0  0  0  0  0  0  0  0  0  0  # atno 10763 bound_to 10752
  154.4134  135.6017  153.5970 H   0  0  0  0  0  0  0  0  0  0  0  0  # atno 10764 bound_to 10752
  152.9831  135.5955  154.4265 H   0  0  0  0  0  0  0  0  0  0  0  0  # atno 10765 bound_to 10752
  140.9299  134.1333  157.4243 H   0  0  0  0  0  0  0  0  0  0  0  0  # atno 11005 bound_to 11000
  145.6282  141.0309  143.1877 LP  0  0  0  0  0  0  0  0  0  0  0  0  # atno 17320 bound_to 7965
  144.7270  139.7844  143.7361 LP  0  0  0  0  0  0  0  0  0  0  0  0  # atno 17321 bound_to 7965
  140.7221  143.7106  150.7772 LP  0  0  0  0  0  0  0  0  0  0  0  0  # atno 17342 bound_to 10162
  140.0675  143.5094  152.2597 LP  0  0  0  0  0  0  0  0  0  0  0  0  # atno 17343 bound_to 10162
  156.0371  130.3748  150.1532 LP  0  0  0  0  0  0  0  0  0  0  0  0  # atno 17370 bound_to 10713
  156.9720  130.9837  151.3457 LP  0  0  0  0  0  0  0  0  0  0  0  0  # atno 17371 bound_to 10713
  139.8794  135.0001  156.5993 LP  0  0  0  0  0  0  0  0  0  0  0  0  # atno 17394 bound_to 11000
  140.7876  133.8608  155.8619 LP  0  0  0  0  0  0  0  0  0  0  0  0  # atno 17395 bound_to 11000

$$$$
