AV-unprocessed.smi:438|AV-procd|sdf|2571|dock9
  -GOLD-   2262022553D 1   1.00000     0.00000
 Structure written by MMmdl.
 47 48  0  0  0  0  0  0  0  0  2 V2000
  144.4855  145.3701  157.5017 C   0  0  0  0  0  0  0  0  0  0  0  0
  145.3011  144.3358  158.2569 C   0  0  0  0  0  0  0  0  0  0  0  0
  145.6705  143.1942  157.5257 N   0  0  0  0  0  0  0  0  0  0  0  0
  146.3592  142.2786  158.0907 C   0  0  0  0  0  0  0  0  0  0  0  0
  146.8085  140.8483  157.0894 S   0  0  0  0  0  0  0  0  0  0  0  0
  148.1786  141.4374  156.0492 C   0  0  0  0  0  0  0  0  0  0  0  0
  149.5392  141.1657  156.6839 C   0  0  0  0  0  0  0  0  0  0  0  0
  149.9852  140.0190  156.7140 O   0  0  0  0  0  0  0  0  0  0  0  0
  150.1798  142.2333  157.1913 N   0  0  0  0  0  0  0  0  0  0  0  0
  151.4653  142.2535  157.8945 C   0  0  2  0  0  0  0  0  0  0  0  0
  151.5309  141.1828  159.0060 C   0  0  0  0  0  0  0  0  0  0  0  0
  152.9151  141.1560  159.6706 C   0  0  0  0  0  0  0  0  0  0  0  0
  153.2904  142.5426  160.2136 C   0  0  0  0  0  0  0  0  0  0  0  0
  153.2372  143.6074  159.1063 C   0  0  0  0  0  0  0  0  0  0  0  0
  151.8541  143.6606  158.4252 C   0  0  1  0  0  0  0  0  0  0  0  0
  151.8348  144.7370  157.3252 C   0  0  0  0  0  0  0  0  0  0  0  0
  146.7698  142.3288  159.4046 N   0  5  0  0  0  0  0  0  0  0  0  0
  146.4520  143.4037  160.1808 C   0  0  0  0  0  0  0  0  0  0  0  0
  146.7983  143.4854  161.3587 O   0  0  0  0  0  0  0  0  0  0  0  0
  145.6618  144.4833  159.5636 C   0  0  0  0  0  0  0  0  0  0  0  0
  145.3063  145.7086  160.4024 C   0  0  0  0  0  0  0  0  0  0  0  0
  145.8775  147.0032  159.8068 C   0  0  0  0  0  0  0  0  0  0  0  0
  147.2513  146.8386  159.5285 O   0  0  0  0  0  0  0  0  0  0  0  0
  143.5829  145.6285  158.0557 H   0  0  0  0  0  0  0  0  0  0  0  0
  144.1806  144.9955  156.5240 H   0  0  0  0  0  0  0  0  0  0  0  0
  145.0717  146.2761  157.3476 H   0  0  0  0  0  0  0  0  0  0  0  0
  148.0717  142.5093  155.8778 H   0  0  0  0  0  0  0  0  0  0  0  0
  148.1280  140.9461  155.0765 H   0  0  0  0  0  0  0  0  0  0  0  0
  149.7128  143.1243  157.1040 H   0  0  0  0  0  0  0  0  0  0  0  0
  152.2016  141.9765  157.1387 H   0  0  0  0  0  0  0  0  0  0  0  0
  150.7772  141.3768  159.7696 H   0  0  0  0  0  0  0  0  0  0  0  0
  151.3053  140.1994  158.5922 H   0  0  0  0  0  0  0  0  0  0  0  0
  152.9255  140.4245  160.4790 H   0  0  0  0  0  0  0  0  0  0  0  0
  153.6641  140.8299  158.9478 H   0  0  0  0  0  0  0  0  0  0  0  0
  152.6079  142.8175  161.0188 H   0  0  0  0  0  0  0  0  0  0  0  0
  154.2886  142.5119  160.6513 H   0  0  0  0  0  0  0  0  0  0  0  0
  153.4821  144.5819  159.5300 H   0  0  0  0  0  0  0  0  0  0  0  0
  154.0065  143.3940  158.3629 H   0  0  0  0  0  0  0  0  0  0  0  0
  151.1316  143.9585  159.1858 H   0  0  0  0  0  0  0  0  0  0  0  0
  152.5191  144.4864  156.5141 H   0  0  0  0  0  0  0  0  0  0  0  0
  152.1323  145.7076  157.7229 H   0  0  0  0  0  0  0  0  0  0  0  0
  150.8400  144.8580  156.8963 H   0  0  0  0  0  0  0  0  0  0  0  0
  145.6733  145.5832  161.4207 H   0  0  0  0  0  0  0  0  0  0  0  0
  144.2222  145.7838  160.4983 H   0  0  0  0  0  0  0  0  0  0  0  0
  145.3579  147.2645  158.8849 H   0  0  0  0  0  0  0  0  0  0  0  0
  145.7539  147.8364  160.4992 H   0  0  0  0  0  0  0  0  0  0  0  0
  147.3587  146.7530  158.5938 H   0  0  0  0  0  0  0  0  0  0  0  0
  1 24  1  0  0  0  0
  1 25  1  0  0  0  0
  1 26  1  0  0  0  0
  1  2  1  0  0  0  0
  2 20  2  0  0  0  0
  2  3  1  0  0  0  0
  3  4  2  0  0  0  0
  4  5  1  0  0  0  0
  4 17  1  0  0  0  0
  5  6  1  0  0  0  0
  6  7  1  0  0  0  0
  6 27  1  0  0  0  0
  6 28  1  0  0  0  0
  7  8  2  0  0  0  0
  7  9  1  0  0  0  0
  9 10  1  0  0  0  0
  9 29  1  0  0  0  0
 10 15  1  0  0  0  0
 10 11  1  0  0  0  0
 10 30  1  0  0  0  0
 11 12  1  0  0  0  0
 11 31  1  0  0  0  0
 11 32  1  0  0  0  0
 12 13  1  0  0  0  0
 12 33  1  0  0  0  0
 12 34  1  0  0  0  0
 13 14  1  0  0  0  0
 13 35  1  0  0  0  0
 13 36  1  0  0  0  0
 14 15  1  0  0  0  0
 14 37  1  0  0  0  0
 14 38  1  0  0  0  0
 15 16  1  0  0  0  0
 15 39  1  0  0  0  0
 16 40  1  0  0  0  0
 16 41  1  0  0  0  0
 16 42  1  0  0  0  0
 17 18  1  0  0  0  0
 18 19  2  0  0  0  0
 18 20  1  0  0  0  0
 20 21  1  0  0  0  0
 21 22  1  0  0  0  0
 21 43  1  0  0  0  0
 21 44  1  0  0  0  0
 22 23  1  0  0  0  0
 22 45  1  0  0  0  0
 22 46  1  0  0  0  0
 23 47  1  0  0  0  0
M  CHG  1  17  -1
M  END
> <s_m_source_file>
AV-unprocessed.smi

> <i_m_source_file_index>
438

> <i_lp_mmshare_version>
43012

> <i_f3d_flags>
0

> <s_epik_input>
W09IXVtDSDJdW0NIMl1jMWMoW09IXSluYyhuYzFbQ0gzXSlTW0NIMl1DKD1PKVtOSF1bQ0BASF0yW0NIMl1bQ0gyXVtDSDJdW0NIMl1bQ0BIXTJbQ0gzXQ==

> <s_epik_cmdline>
J2VwaWtfcHl0aG9uJywgJy1waCcsICc3LjAnLCAnLXRuJywgJzgnLCAnLW1hJywgJzIwMCcsICctbWV0YWxfYmluZGluZycsICctaW1hZScsICc8aW5maWxlLm1hZT4nLCAnLW9tYWUnLCAnPG91dGZpbGUubWFlPic=

> <r_lp_tautomer_probability>
1

> <r_epik_Ionization_Penalty>
3.69231

> <r_epik_Ionization_Penalty_Charging>
0.00434774

> <r_epik_Ionization_Penalty_Neutral>
3.68796

> <r_epik_State_Penalty>
2.13826

> <r_epik_Charging_Adjusted_Penalty>
2.14261

> <i_epik_Tot_Q>
-1

> <i_epik_Tot_abs_Q>
1

> <r_epik_Metal_State_Penalty>
0.260979

> <b_epik_Metal_Only>
0

> <s_lp_Force_Field>
OPLS_2005

> <r_lp_Energy>
19.4347

> <b_lp_Chiralities_Consistent>
1

> <s_lp_Variant>
AV-unprocessed.smi:438-9

> <Gold.Version>
5.8.1

> <Gold.Id.Protein>
6NUR|6NUR_protein|mol2

> <Gold.PLP.Fitness>
47.8639

> <Gold.PLP.PLP>
-36.4887

> <Gold.PLP.part.hbond>
-5.3721

> <Gold.PLP.part.metal>
0.0000

> <Gold.PLP.part.buried>
-3.2404

> <Gold.PLP.part.nonpolar>
-28.1872

> <Gold.PLP.part.repulsive>
0.2481

> <Gold.PLP.ligand.clash>
0.0000

> <Gold.PLP.ligand.torsion>
0.6867

> <Gold.PLP.Chemscore.Hbond>
4.2215

> <Gold.PLP.Chemscore.CHOScore>
0.0000

> <Gold.PLP.Chemscore.Metal>
0.0000

> <Gold.Chemscore.Hbonds>
donor molecule, donor type, donor heavy atom, donor atom, acceptor molecule, acceptor atom, score
      L1  H     9    29       P1  8028  0.31
      L1  H    23    47       P1  8029  1.00
      P1  H  6933  6944       L1    19  0.99
      P1  H  6934  6946       L1    17  1.82

> <Gold.PLP.Chemscore.Internal.Correction>
0.0842

> <Gold.Rescore>
     Score         DG    S(hbond)    S(metal)    S(lipo)     H(rot)  DE(clash)    DE(int)     intcor
     16.96     -19.40       2.67        0.00     103.78       2.79       1.80       0.64       ----

> <Gold.Chemscore.Fitness>
16.9584

> <Gold.Chemscore.DG>
-19.4010

> <Gold.Chemscore.ZeroCoef>
-5.4800

> <Gold.Chemscore.Hbond>
2.6732

> <Gold.Chemscore.Metal>
0.0000

> <Gold.Chemscore.Lipo>
103.7752

> <Gold.Chemscore.Internal_Hbond>
0.0000

> <Gold.Chemscore.DEClash>
1.7980

> <Gold.Chemscore.DEInternal>
0.6446

> <Gold.Chemscore.Rot>
2.7927

> <Gold.Chemscore.Internal.Correction>
   9.000000E+99

> <Gold.Chemscore.Hbonds>
donor molecule, donor type, donor heavy atom, donor atom, acceptor molecule, acceptor atom, score
      L1  H     9    29       P1  8028  0.30
      L1  H    23    47       P1  8029  0.95
      P1  H  6933  6944       L1    19  0.41
      P1  H  6934  6946       L1    17  0.39

> <Gold.Chemscore.Hbond.Weighted>
-8.9286

> <Gold.Chemscore.Metal.Weighted>
-0.0000

> <Gold.Chemscore.Lipo.Weighted>
-12.1417

> <Gold.Chemscore.Internal_Hbond.Weighted>
0.0000

> <Gold.Chemscore.DEClash.Weighted>
1.7980

> <Gold.Chemscore.DEInternal.Weighted>
0.6446

> <Gold.Chemscore.Rot.Weighted>
7.1492

> <Gold.Chemscore.Internal.Correction.Weighted>
   9.000000E+99

> <Gold.Protein.RotatedTorsions>
[ 6907 6896 6895 6894 ] final -160.34 input  -60.11 | X-H torsion
[ 7974 7965 7964 7962 ] final -177.73 input  175.53 | X-H torsion
[ 8008 7997 7996 7995 ] final -125.06 input   59.86 | X-H torsion
[ 10167 10162 10161 10158 ] final  103.31 input  -65.29 | X-H torsion
[ 10718 10713 10712 10709 ] final  142.89 input   66.30 | X-H torsion
[ 10763 10752 10751 10750 ] final   54.40 input  -60.55 | X-H torsion
[ 11005 11000 10999 10996 ] final   45.12 input  -57.11 | X-H torsion

> <Gold.Protein.ActiveResidues>
 VAL166  LYS551  ARG553  GLY616  TRP617  ASP618  TYR619  PRO620  LYS621  CYS622 
 ASP623  PHE694  ASN695  SER759  ASP760  ASP761  ALA762  ILE779  LEU786  VAL792 
 PHE793  MET794  SER795  GLU796  ALA797  LYS798  CYS799  TRP800  GLU811  SER814 

> <Gold.Protein.RotatedAtoms>
  151.3476  133.3938  159.2676 H   0  0  0  0  0  0  0  0  0  0  0  0  # atno 6907 bound_to 6896
  150.9827  134.9180  159.7864 H   0  0  0  0  0  0  0  0  0  0  0  0  # atno 6908 bound_to 6896
  152.5222  134.3440  159.9280 H   0  0  0  0  0  0  0  0  0  0  0  0  # atno 6909 bound_to 6896
  144.7128  140.0975  143.6418 H   0  0  0  0  0  0  0  0  0  0  0  0  # atno 7974 bound_to 7965
  155.2070  140.0417  157.2927 H   0  0  0  0  0  0  0  0  0  0  0  0  # atno 8008 bound_to 7997
  154.6036  140.2458  155.7731 H   0  0  0  0  0  0  0  0  0  0  0  0  # atno 8009 bound_to 7997
  156.2337  140.2929  156.0264 H   0  0  0  0  0  0  0  0  0  0  0  0  # atno 8010 bound_to 7997
  139.7274  144.7044  151.0776 H   0  0  0  0  0  0  0  0  0  0  0  0  # atno 10167 bound_to 10162
  157.3753  131.0984  151.0790 H   0  0  0  0  0  0  0  0  0  0  0  0  # atno 10718 bound_to 10713
  152.9804  135.5746  154.4897 H   0  0  0  0  0  0  0  0  0  0  0  0  # atno 10763 bound_to 10752
  154.4433  135.2776  155.1834 H   0  0  0  0  0  0  0  0  0  0  0  0  # atno 10764 bound_to 10752
  154.3493  135.6212  153.5688 H   0  0  0  0  0  0  0  0  0  0  0  0  # atno 10765 bound_to 10752
  140.1489  134.4487  155.8396 H   0  0  0  0  0  0  0  0  0  0  0  0  # atno 11005 bound_to 11000
  145.9566  139.2771  143.1180 LP  0  0  0  0  0  0  0  0  0  0  0  0  # atno 17320 bound_to 7965
  145.9265  140.9078  143.0378 LP  0  0  0  0  0  0  0  0  0  0  0  0  # atno 17321 bound_to 7965
  140.7765  143.5087  150.9680 LP  0  0  0  0  0  0  0  0  0  0  0  0  # atno 17342 bound_to 10162
  139.8775  143.7114  152.3160 LP  0  0  0  0  0  0  0  0  0  0  0  0  # atno 17343 bound_to 10162
  157.1879  130.6338  149.5694 LP  0  0  0  0  0  0  0  0  0  0  0  0  # atno 17370 bound_to 10713
  155.9764  130.4732  150.6525 LP  0  0  0  0  0  0  0  0  0  0  0  0  # atno 17371 bound_to 10713
  141.2196  133.6864  156.7385 LP  0  0  0  0  0  0  0  0  0  0  0  0  # atno 17394 bound_to 11000
  140.2629  134.8452  157.3775 LP  0  0  0  0  0  0  0  0  0  0  0  0  # atno 17395 bound_to 11000

$$$$
