AV-unprocessed.smi:3354|AV-procd|sdf|12962|dock2
  -GOLD-   2272019403D 1   1.00000     0.00000
 Structure written by MMmdl.
 38 40  0  0  0  0  0  0  0  0  1 V2000
  150.4047  143.2215  158.4530 C   0  0  0  0  0  0  0  0  0  0  0  0
  150.4625  142.2539  157.2908 C   0  0  1  0  0  0  0  0  0  0  0  0
  150.5528  140.7668  157.5471 C   0  0  0  0  0  0  0  0  0  0  0  0
  149.2857  141.3609  156.9652 C   0  0  2  0  0  0  0  0  0  0  0  0
  148.9471  141.1411  155.5916 N   0  0  0  0  0  0  0  0  0  0  0  0
  147.5632  141.3027  155.1789 C   0  0  0  0  0  0  0  0  0  0  0  0
  147.5458  140.9863  153.6738 C   0  0  2  0  0  0  0  0  0  0  0  0
  146.3882  140.1673  153.3250 N   0  0  0  0  0  0  0  0  0  0  0  0
  146.3082  138.8414  153.5031 C   0  0  0  0  0  0  0  0  0  0  0  0
  147.2131  138.1685  153.9963 O   0  0  0  0  0  0  0  0  0  0  0  0
  145.1183  138.3674  153.0959 N   0  0  0  0  0  0  0  0  0  0  0  0
  144.6598  137.0224  153.0813 C   0  0  0  0  0  0  0  0  0  0  0  0
  143.2957  136.6451  153.1269 C   0  0  0  0  0  0  0  0  0  0  0  0
  142.9692  135.2754  153.1296 C   0  0  0  0  0  0  0  0  0  0  0  0
  144.0159  134.3339  153.0935 C   0  0  0  0  0  0  0  0  0  0  0  0
  145.3204  134.6788  153.0625 N   0  0  0  0  0  0  0  0  0  0  0  0
  145.6259  135.9939  153.0610 C   0  0  0  0  0  0  0  0  0  0  0  0
  148.8790  140.2739  153.3964 C   0  0  0  0  0  0  0  0  0  0  0  0
  149.6700  140.4794  154.6772 C   0  0  0  0  0  0  0  0  0  0  0  0
  150.8158  140.0544  154.8183 O   0  0  0  0  0  0  0  0  0  0  0  0
  149.8195  142.8070  159.2746 H   0  0  0  0  0  0  0  0  0  0  0  0
  149.9435  144.1570  158.1363 H   0  0  0  0  0  0  0  0  0  0  0  0
  151.4111  143.4339  158.8142 H   0  0  0  0  0  0  0  0  0  0  0  0
  151.0372  142.6235  156.4433 H   0  0  0  0  0  0  0  0  0  0  0  0
  151.2187  140.2009  156.8983 H   0  0  0  0  0  0  0  0  0  0  0  0
  150.5143  140.4252  158.5796 H   0  0  0  0  0  0  0  0  0  0  0  0
  148.4385  141.4136  157.6467 H   0  0  0  0  0  0  0  0  0  0  0  0
  146.9427  140.6086  155.7483 H   0  0  0  0  0  0  0  0  0  0  0  0
  147.2081  142.3143  155.3805 H   0  0  0  0  0  0  0  0  0  0  0  0
  147.5169  141.9246  153.1161 H   0  0  0  0  0  0  0  0  0  0  0  0
  145.5971  140.6438  152.9173 H   0  0  0  0  0  0  0  0  0  0  0  0
  144.4435  139.0567  152.7985 H   0  0  0  0  0  0  0  0  0  0  0  0
  142.4992  137.3710  153.1753 H   0  0  0  0  0  0  0  0  0  0  0  0
  141.9387  134.9540  153.1638 H   0  0  0  0  0  0  0  0  0  0  0  0
  143.7993  133.2758  153.0961 H   0  0  0  0  0  0  0  0  0  0  0  0
  146.6793  136.2325  153.0393 H   0  0  0  0  0  0  0  0  0  0  0  0
  148.7508  139.2041  153.2245 H   0  0  0  0  0  0  0  0  0  0  0  0
  149.3995  140.7024  152.5391 H   0  0  0  0  0  0  0  0  0  0  0  0
  1  2  1  0  0  0  0
  1 21  1  0  0  0  0
  1 22  1  0  0  0  0
  1 23  1  0  0  0  0
  2  4  1  0  0  0  0
  2  3  1  0  0  0  0
  2 24  1  0  0  0  0
  3  4  1  0  0  0  0
  3 25  1  0  0  0  0
  3 26  1  0  0  0  0
  4  5  1  0  0  0  0
  4 27  1  0  0  0  0
  5 19  1  0  0  0  0
  5  6  1  0  0  0  0
  6  7  1  0  0  0  0
  6 28  1  0  0  0  0
  6 29  1  0  0  0  0
  7  8  1  0  0  0  0
  7 18  1  0  0  0  0
  7 30  1  0  0  0  0
  8  9  1  0  0  0  0
  8 31  1  0  0  0  0
  9 10  2  0  0  0  0
  9 11  1  0  0  0  0
 11 12  1  0  0  0  0
 11 32  1  0  0  0  0
 12 17  1  0  0  0  0
 12 13  2  0  0  0  0
 13 14  1  0  0  0  0
 13 33  1  0  0  0  0
 14 15  2  0  0  0  0
 14 34  1  0  0  0  0
 15 16  1  0  0  0  0
 15 35  1  0  0  0  0
 16 17  2  0  0  0  0
 17 36  1  0  0  0  0
 18 19  1  0  0  0  0
 18 37  1  0  0  0  0
 18 38  1  0  0  0  0
 19 20  2  0  0  0  0
M  END
> <s_m_source_file>
AV-unprocessed.smi

> <i_m_source_file_index>
3354

> <i_lp_mmshare_version>
43012

> <i_f3d_flags>
0

> <s_epik_input>
W0NIM11bQ0BASF0xW0NIMl1bQ0BIXTFOMltDSDJdW0NASF0oW0NIMl1DMj1PKVtOSF1DKD1PKVtOSF1jM1tjSF1bY0hdW2NIXW5bY0hdMw==

> <s_epik_cmdline>
J2VwaWtfcHl0aG9uJywgJy1waCcsICc3LjAnLCAnLXRuJywgJzgnLCAnLW1hJywgJzIwMCcsICctbWV0YWxfYmluZGluZycsICctaW1hZScsICc8aW5maWxlLm1hZT4nLCAnLW9tYWUnLCAnPG91dGZpbGUubWFlPic=

> <r_epik_Ionization_Penalty>
0.00456191

> <r_epik_Ionization_Penalty_Charging>
0

> <r_epik_Ionization_Penalty_Neutral>
0.00456191

> <r_epik_State_Penalty>
0.00327094

> <r_epik_Charging_Adjusted_Penalty>
0.00327094

> <i_epik_Tot_Q>
0

> <i_epik_Tot_abs_Q>
0

> <r_epik_Metal_State_Penalty>
-0

> <b_epik_Metal_Only>
0

> <s_lp_Force_Field>
OPLS_2005

> <r_lp_Energy>
40.9267

> <b_lp_Chiralities_Consistent>
1

> <s_lp_Variant>
AV-unprocessed.smi:3354-8

> <Gold.Version>
5.8.1

> <Gold.Id.Protein>
6NUR|6NUR_protein|mol2

> <Gold.PLP.Fitness>
38.5440

> <Gold.PLP.PLP>
-25.1455

> <Gold.PLP.part.hbond>
-3.0000

> <Gold.PLP.part.metal>
0.0000

> <Gold.PLP.part.buried>
-0.4648

> <Gold.PLP.part.nonpolar>
-24.3547

> <Gold.PLP.part.repulsive>
0.3052

> <Gold.PLP.ligand.clash>
0.0000

> <Gold.PLP.ligand.torsion>
0.6623

> <Gold.PLP.Chemscore.Hbond>
2.9120

> <Gold.PLP.Chemscore.CHOScore>
1.8692

> <Gold.PLP.Chemscore.Metal>
0.0000

> <Gold.Chemscore.Hbonds>
donor molecule, donor type, donor heavy atom, donor atom, acceptor molecule, acceptor atom, score
      L1  H     8    31       P1 10175  0.91
      L1  H    11    32       P1 10175  1.00
      P1  H  7989  7998       L1    20  1.00
      L1  C    15    35       P1 10957  1.00
      L1  C    17    36       P1  7948  0.94

> <Gold.PLP.Chemscore.Internal.Correction>
0.3794

> <Gold.Rescore>
     Score         DG    S(hbond)    S(metal)    S(lipo)     H(rot)  DE(clash)    DE(int)     intcor
     12.24     -18.65       2.87        0.00      57.73       1.24       1.72       4.69       ----

> <Gold.Chemscore.Fitness>
12.2377

> <Gold.Chemscore.DG>
-18.6477

> <Gold.Chemscore.ZeroCoef>
-5.4800

> <Gold.Chemscore.Hbond>
2.8676

> <Gold.Chemscore.Metal>
0.0000

> <Gold.Chemscore.Lipo>
57.7300

> <Gold.Chemscore.Internal_Hbond>
0.0000

> <Gold.Chemscore.DEClash>
1.7246

> <Gold.Chemscore.DEInternal>
4.6854

> <Gold.Chemscore.Rot>
1.2361

> <Gold.Chemscore.Internal.Correction>
   9.000000E+99

> <Gold.Chemscore.Hbonds>
donor molecule, donor type, donor heavy atom, donor atom, acceptor molecule, acceptor atom, score
      L1  H     8    31       P1 10175  0.57
      L1  H    11    32       P1 10175  0.99
      P1  H  7989  7998       L1    20  0.30

> <Gold.Chemscore.Hbond.Weighted>
-9.5776

> <Gold.Chemscore.Metal.Weighted>
-0.0000

> <Gold.Chemscore.Lipo.Weighted>
-6.7544

> <Gold.Chemscore.Internal_Hbond.Weighted>
0.0000

> <Gold.Chemscore.DEClash.Weighted>
1.7246

> <Gold.Chemscore.DEInternal.Weighted>
4.6854

> <Gold.Chemscore.Rot.Weighted>
3.1643

> <Gold.Chemscore.Internal.Correction.Weighted>
   9.000000E+99

> <Gold.Protein.RotatedTorsions>
[ 6907 6896 6895 6894 ] final  -58.05 input  -60.11 | X-H torsion
[ 7974 7965 7964 7962 ] final  -38.13 input  175.53 | X-H torsion
[ 8008 7997 7996 7995 ] final  -19.40 input   59.86 | X-H torsion
[ 10167 10162 10161 10158 ] final   62.22 input  -65.29 | X-H torsion
[ 10718 10713 10712 10709 ] final   29.20 input   66.30 | X-H torsion
[ 10763 10752 10751 10750 ] final   55.60 input  -60.55 | X-H torsion
[ 11005 11000 10999 10996 ] final -151.86 input  -57.11 | X-H torsion

> <Gold.Protein.ActiveResidues>
 VAL166  LYS551  ARG553  GLY616  TRP617  ASP618  TYR619  PRO620  LYS621  CYS622 
 ASP623  PHE694  ASN695  SER759  ASP760  ASP761  ALA762  ILE779  LEU786  VAL792 
 PHE793  MET794  SER795  GLU796  ALA797  LYS798  CYS799  TRP800  GLU811  SER814 

> <Gold.Protein.RotatedAtoms>
  150.8037  134.7148  159.6623 H   0  0  0  0  0  0  0  0  0  0  0  0  # atno 6907 bound_to 6896
  152.4155  134.6045  160.0019 H   0  0  0  0  0  0  0  0  0  0  0  0  # atno 6908 bound_to 6896
  151.6276  133.3297  159.3138 H   0  0  0  0  0  0  0  0  0  0  0  0  # atno 6909 bound_to 6896
  146.0513  140.6477  142.9040 H   0  0  0  0  0  0  0  0  0  0  0  0  # atno 7974 bound_to 7965
  154.4839  140.2090  155.9699 H   0  0  0  0  0  0  0  0  0  0  0  0  # atno 8008 bound_to 7997
  156.1207  140.3214  155.8174 H   0  0  0  0  0  0  0  0  0  0  0  0  # atno 8009 bound_to 7997
  155.4472  140.0514  157.2995 H   0  0  0  0  0  0  0  0  0  0  0  0  # atno 8010 bound_to 7997
  140.1463  144.4506  150.6783 H   0  0  0  0  0  0  0  0  0  0  0  0  # atno 10167 bound_to 10162
  157.2435  130.7080  149.6370 H   0  0  0  0  0  0  0  0  0  0  0  0  # atno 10718 bound_to 10713
  152.9819  135.5705  154.5093 H   0  0  0  0  0  0  0  0  0  0  0  0  # atno 10763 bound_to 10752
  154.4599  135.2781  155.1722 H   0  0  0  0  0  0  0  0  0  0  0  0  # atno 10764 bound_to 10752
  154.3314  135.6248  153.5606 H   0  0  0  0  0  0  0  0  0  0  0  0  # atno 10765 bound_to 10752
  140.7250  134.3684  157.5177 H   0  0  0  0  0  0  0  0  0  0  0  0  # atno 11005 bound_to 11000
  144.7124  140.4088  143.7070 LP  0  0  0  0  0  0  0  0  0  0  0  0  # atno 17320 bound_to 7965
  145.6719  139.1601  143.2750 LP  0  0  0  0  0  0  0  0  0  0  0  0  # atno 17321 bound_to 7965
  140.6730  143.2293  151.5578 LP  0  0  0  0  0  0  0  0  0  0  0  0  # atno 17342 bound_to 10162
  139.5447  144.2552  152.1420 LP  0  0  0  0  0  0  0  0  0  0  0  0  # atno 17343 bound_to 10162
  155.9669  130.4450  150.5485 LP  0  0  0  0  0  0  0  0  0  0  0  0  # atno 17370 bound_to 10713
  157.3354  131.0707  151.1829 LP  0  0  0  0  0  0  0  0  0  0  0  0  # atno 17371 bound_to 10713
  139.8839  134.8980  156.2736 LP  0  0  0  0  0  0  0  0  0  0  0  0  # atno 17394 bound_to 11000
  140.9970  133.7174  156.0901 LP  0  0  0  0  0  0  0  0  0  0  0  0  # atno 17395 bound_to 11000

$$$$
