AV-unprocessed.smi:404|AV-procd|sdf|2497|dock2
  -GOLD-   2262022443D 1   1.00000     0.00000
 Structure written by MMmdl.
 44 45  0  0  0  0  0  0  0  0  1 V2000
  147.5838  138.6136  155.8718 C   0  0  0  0  0  0  0  0  0  0  0  0
  146.8735  139.8931  155.5333 C   0  0  0  0  0  0  0  0  0  0  0  0
  145.6472  140.0940  155.9867 N   0  0  0  0  0  0  0  0  0  0  0  0
  145.2982  141.3058  155.5101 N   0  0  0  0  0  0  0  0  0  0  0  0
  143.9878  141.8427  155.8220 C   0  0  0  0  0  0  0  0  0  0  0  0
  146.3048  141.8703  154.7516 C   0  0  0  0  0  0  0  0  0  0  0  0
  146.1579  143.2098  154.1048 C   0  0  0  0  0  0  0  0  0  0  0  0
  147.3475  140.9824  154.7444 C   0  0  0  0  0  0  0  0  0  0  0  0
  148.6861  141.1078  154.0625 C   0  0  0  0  0  0  0  0  0  0  0  0
  149.7971  140.7296  155.0415 C   0  0  0  0  0  0  0  0  0  0  0  0
  150.7980  140.1387  154.6363 O   0  0  0  0  0  0  0  0  0  0  0  0
  149.6062  141.0743  156.3247 N   0  0  0  0  0  0  0  0  0  0  0  0
  150.5180  140.7862  157.4280 C   0  0  0  0  0  0  0  0  0  0  0  0
  150.8612  142.0419  158.2572 C   0  0  0  0  0  0  0  0  0  0  0  0
  151.3435  143.2252  157.3872 C   0  0  0  0  0  0  0  0  0  0  0  0
  151.7095  144.4520  158.2389 C   0  0  0  0  0  0  0  0  0  0  0  0
  152.7561  144.1015  159.3066 C   0  0  0  0  0  0  0  0  0  0  0  0
  152.2766  142.9360  160.1837 C   0  0  0  0  0  0  0  0  0  0  0  0
  151.9197  141.7092  159.3292 C   0  0  0  0  0  0  0  0  0  0  0  0
  147.6844  137.9811  154.9900 H   0  0  0  0  0  0  0  0  0  0  0  0
  147.0482  138.0415  156.6307 H   0  0  0  0  0  0  0  0  0  0  0  0
  148.5847  138.8119  156.2549 H   0  0  0  0  0  0  0  0  0  0  0  0
  144.0899  142.8473  156.2334 H   0  0  0  0  0  0  0  0  0  0  0  0
  143.4775  141.2138  156.5531 H   0  0  0  0  0  0  0  0  0  0  0  0
  143.3865  141.8885  154.9134 H   0  0  0  0  0  0  0  0  0  0  0  0
  147.0106  143.4364  153.4650 H   0  0  0  0  0  0  0  0  0  0  0  0
  146.0839  143.9962  154.8562 H   0  0  0  0  0  0  0  0  0  0  0  0
  145.2608  143.2453  153.4864 H   0  0  0  0  0  0  0  0  0  0  0  0
  148.7513  140.4584  153.1889 H   0  0  0  0  0  0  0  0  0  0  0  0
  148.8530  142.1203  153.6930 H   0  0  0  0  0  0  0  0  0  0  0  0
  148.7520  141.5591  156.5589 H   0  0  0  0  0  0  0  0  0  0  0  0
  150.0243  140.0525  158.0659 H   0  0  0  0  0  0  0  0  0  0  0  0
  151.4299  140.3057  157.0689 H   0  0  0  0  0  0  0  0  0  0  0  0
  149.9540  142.3557  158.7762 H   0  0  0  0  0  0  0  0  0  0  0  0
  152.2095  142.9191  156.7987 H   0  0  0  0  0  0  0  0  0  0  0  0
  150.5724  143.5131  156.6730 H   0  0  0  0  0  0  0  0  0  0  0  0
  152.0863  145.2493  157.5978 H   0  0  0  0  0  0  0  0  0  0  0  0
  150.8123  144.8415  158.7214 H   0  0  0  0  0  0  0  0  0  0  0  0
  153.6969  143.8341  158.8237 H   0  0  0  0  0  0  0  0  0  0  0  0
  152.9628  144.9743  159.9267 H   0  0  0  0  0  0  0  0  0  0  0  0
  153.0490  142.6734  160.9071 H   0  0  0  0  0  0  0  0  0  0  0  0
  151.4048  143.2465  160.7610 H   0  0  0  0  0  0  0  0  0  0  0  0
  151.5558  140.9116  159.9778 H   0  0  0  0  0  0  0  0  0  0  0  0
  152.8221  141.3275  158.8495 H   0  0  0  0  0  0  0  0  0  0  0  0
  1  2  1  0  0  0  0
  1 20  1  0  0  0  0
  1 21  1  0  0  0  0
  1 22  1  0  0  0  0
  2  8  1  0  0  0  0
  2  3  2  0  0  0  0
  3  4  1  0  0  0  0
  4  5  1  0  0  0  0
  4  6  1  0  0  0  0
  5 23  1  0  0  0  0
  5 24  1  0  0  0  0
  5 25  1  0  0  0  0
  6  7  1  0  0  0  0
  6  8  2  0  0  0  0
  7 26  1  0  0  0  0
  7 27  1  0  0  0  0
  7 28  1  0  0  0  0
  8  9  1  0  0  0  0
  9 10  1  0  0  0  0
  9 29  1  0  0  0  0
  9 30  1  0  0  0  0
 10 11  2  0  0  0  0
 10 12  1  0  0  0  0
 12 13  1  0  0  0  0
 12 31  1  0  0  0  0
 13 14  1  0  0  0  0
 13 32  1  0  0  0  0
 13 33  1  0  0  0  0
 14 19  1  0  0  0  0
 14 15  1  0  0  0  0
 14 34  1  0  0  0  0
 15 16  1  0  0  0  0
 15 35  1  0  0  0  0
 15 36  1  0  0  0  0
 16 17  1  0  0  0  0
 16 37  1  0  0  0  0
 16 38  1  0  0  0  0
 17 18  1  0  0  0  0
 17 39  1  0  0  0  0
 17 40  1  0  0  0  0
 18 19  1  0  0  0  0
 18 41  1  0  0  0  0
 18 42  1  0  0  0  0
 19 43  1  0  0  0  0
 19 44  1  0  0  0  0
M  END
> <s_m_source_file>
AV-unprocessed.smi

> <i_m_source_file_index>
404

> <i_lp_mmshare_version>
43012

> <i_f3d_flags>
0

> <s_epik_input>
W0NIM11jMW5uKFtDSDNdKWMoW0NIM10pYzFbQ0gyXUMoPU8pW05IXVtDSDJdW0NIXTJbQ0gyXVtDSDJdW0NIMl1bQ0gyXVtDSDJdMg==

> <s_epik_cmdline>
J2VwaWtfcHl0aG9uJywgJy1waCcsICc3LjAnLCAnLXRuJywgJzgnLCAnLW1hJywgJzIwMCcsICctbWV0YWxfYmluZGluZycsICctaW1hZScsICc8aW5maWxlLm1hZT4nLCAnLW9tYWUnLCAnPG91dGZpbGUubWFlPic=

> <r_lp_tautomer_probability>
1

> <r_epik_Ionization_Penalty>
0.00317479

> <r_epik_Ionization_Penalty_Charging>
0

> <r_epik_Ionization_Penalty_Neutral>
0.00317479

> <r_epik_State_Penalty>
0.00223767

> <r_epik_Charging_Adjusted_Penalty>
0.00223767

> <i_epik_Tot_Q>
0

> <i_epik_Tot_abs_Q>
0

> <r_epik_Metal_State_Penalty>
-0

> <b_epik_Metal_Only>
0

> <s_lp_Force_Field>
OPLS_2005

> <r_lp_Energy>
5.4513

> <b_lp_Chiralities_Consistent>
1

> <s_lp_Variant>
AV-unprocessed.smi:404-1

> <Gold.Version>
5.8.1

> <Gold.Id.Protein>
6NUR|6NUR_protein|mol2

> <Gold.PLP.Fitness>
38.8121

> <Gold.PLP.PLP>
-36.9011

> <Gold.PLP.part.hbond>
-1.0000

> <Gold.PLP.part.metal>
0.0000

> <Gold.PLP.part.buried>
-4.8249

> <Gold.PLP.part.nonpolar>
-31.5188

> <Gold.PLP.part.repulsive>
0.1776

> <Gold.PLP.ligand.clash>
0.0000

> <Gold.PLP.ligand.torsion>
0.5495

> <Gold.PLP.Chemscore.Hbond>
1.0000

> <Gold.PLP.Chemscore.CHOScore>
0.0000

> <Gold.PLP.Chemscore.Metal>
0.0000

> <Gold.Chemscore.Hbonds>
donor molecule, donor type, donor heavy atom, donor atom, acceptor molecule, acceptor atom, score
      P1  H  7989  7998       L1    11  1.00

> <Gold.PLP.Chemscore.Internal.Correction>
0.0102

> <Gold.Rescore>
     Score         DG    S(hbond)    S(metal)    S(lipo)     H(rot)  DE(clash)    DE(int)     intcor
     16.27     -16.68       0.97        0.00      98.29       1.38       0.05       0.36       ----

> <Gold.Chemscore.Fitness>
16.2662

> <Gold.Chemscore.DG>
-16.6783

> <Gold.Chemscore.ZeroCoef>
-5.4800

> <Gold.Chemscore.Hbond>
0.9650

> <Gold.Chemscore.Metal>
0.0000

> <Gold.Chemscore.Lipo>
98.2879

> <Gold.Chemscore.Internal_Hbond>
0.0000

> <Gold.Chemscore.DEClash>
0.0538

> <Gold.Chemscore.DEInternal>
0.3583

> <Gold.Chemscore.Rot>
1.3768

> <Gold.Chemscore.Internal.Correction>
   9.000000E+99

> <Gold.Chemscore.Hbonds>
donor molecule, donor type, donor heavy atom, donor atom, acceptor molecule, acceptor atom, score
      P1  H  7989  7998       L1    11  0.91

> <Gold.Chemscore.Hbond.Weighted>
-3.2231

> <Gold.Chemscore.Metal.Weighted>
-0.0000

> <Gold.Chemscore.Lipo.Weighted>
-11.4997

> <Gold.Chemscore.Internal_Hbond.Weighted>
0.0000

> <Gold.Chemscore.DEClash.Weighted>
0.0538

> <Gold.Chemscore.DEInternal.Weighted>
0.3583

> <Gold.Chemscore.Rot.Weighted>
3.5245

> <Gold.Chemscore.Internal.Correction.Weighted>
   9.000000E+99

> <Gold.Protein.RotatedTorsions>
[ 6907 6896 6895 6894 ] final  -72.66 input  -60.11 | X-H torsion
[ 7974 7965 7964 7962 ] final   30.02 input  175.53 | X-H torsion
[ 8008 7997 7996 7995 ] final   88.31 input   59.86 | X-H torsion
[ 10167 10162 10161 10158 ] final   75.23 input  -65.29 | X-H torsion
[ 10718 10713 10712 10709 ] final -166.23 input   66.30 | X-H torsion
[ 10763 10752 10751 10750 ] final   49.63 input  -60.55 | X-H torsion
[ 11005 11000 10999 10996 ] final   65.73 input  -57.11 | X-H torsion

> <Gold.Protein.ActiveResidues>
 VAL166  LYS551  ARG553  GLY616  TRP617  ASP618  TYR619  PRO620  LYS621  CYS622 
 ASP623  PHE694  ASN695  SER759  ASP760  ASP761  ALA762  ILE779  LEU786  VAL792 
 PHE793  MET794  SER795  GLU796  ALA797  LYS798  CYS799  TRP800  GLU811  SER814 

> <Gold.Protein.RotatedAtoms>
  150.7161  134.5130  159.5616 H   0  0  0  0  0  0  0  0  0  0  0  0  # atno 6907 bound_to 6896
  152.2702  134.7937  160.0424 H   0  0  0  0  0  0  0  0  0  0  0  0  # atno 6908 bound_to 6896
  151.8620  133.3424  159.3743 H   0  0  0  0  0  0  0  0  0  0  0  0  # atno 6909 bound_to 6896
  146.1637  139.6844  142.9016 H   0  0  0  0  0  0  0  0  0  0  0  0  # atno 7974 bound_to 7965
  155.9862  140.3373  155.6709 H   0  0  0  0  0  0  0  0  0  0  0  0  # atno 8008 bound_to 7997
  155.6483  140.0702  157.2613 H   0  0  0  0  0  0  0  0  0  0  0  0  # atno 8009 bound_to 7997
  154.4206  140.1730  156.1634 H   0  0  0  0  0  0  0  0  0  0  0  0  # atno 8010 bound_to 7997
  140.0052  144.5656  150.7704 H   0  0  0  0  0  0  0  0  0  0  0  0  # atno 10167 bound_to 10162
  156.6648  130.9060  151.3035 H   0  0  0  0  0  0  0  0  0  0  0  0  # atno 10718 bound_to 10713
  152.9786  135.5905  154.4121 H   0  0  0  0  0  0  0  0  0  0  0  0  # atno 10763 bound_to 10752
  154.3755  135.2767  155.2243 H   0  0  0  0  0  0  0  0  0  0  0  0  # atno 10764 bound_to 10752
  154.4180  135.6066  153.6047 H   0  0  0  0  0  0  0  0  0  0  0  0  # atno 10765 bound_to 10752
  139.9876  134.6643  156.0149 H   0  0  0  0  0  0  0  0  0  0  0  0  # atno 11005 bound_to 11000
  145.4523  141.0429  143.2797 LP  0  0  0  0  0  0  0  0  0  0  0  0  # atno 17320 bound_to 7965
  144.8062  139.6047  143.7050 LP  0  0  0  0  0  0  0  0  0  0  0  0  # atno 17321 bound_to 7965
  140.7403  143.2803  151.3618 LP  0  0  0  0  0  0  0  0  0  0  0  0  # atno 17342 bound_to 10162
  139.6244  144.0844  152.2420 LP  0  0  0  0  0  0  0  0  0  0  0  0  # atno 17343 bound_to 10162
  157.7097  130.9426  150.1048 LP  0  0  0  0  0  0  0  0  0  0  0  0  # atno 17370 bound_to 10713
  156.1983  130.3658  149.8820 LP  0  0  0  0  0  0  0  0  0  0  0  0  # atno 17371 bound_to 10713
  141.1538  133.6545  156.4096 LP  0  0  0  0  0  0  0  0  0  0  0  0  # atno 17394 bound_to 11000
  140.4972  134.6520  157.5234 LP  0  0  0  0  0  0  0  0  0  0  0  0  # atno 17395 bound_to 11000

$$$$
