AV-unprocessed.smi:2889|AV-procd|sdf|11114|dock9
  -GOLD-   2272015583D 1   1.00000     0.00000
 Structure written by MMmdl.
 35 36  0  0  0  0  0  0  0  0  2 V2000
  152.7276  142.8523  159.4248 C   0  0  0  0  0  0  0  0  0  0  0  0
  152.5341  141.2410  158.6118 S   0  0  0  0  0  0  0  0  0  0  0  0
  153.2505  140.1102  159.8534 C   0  0  2  0  0  0  0  0  0  0  0  0
  154.6017  140.6656  160.3816 C   0  0  0  0  0  0  0  0  0  0  0  0
  155.2170  139.7882  161.4919 C   0  0  0  0  0  0  0  0  0  0  0  0
  155.3367  138.3316  160.9997 C   0  0  0  0  0  0  0  0  0  0  0  0
  153.9941  137.7684  160.4653 C   0  0  0  0  0  0  0  0  0  0  0  0
  153.3400  138.6350  159.3580 C   0  0  2  0  0  0  0  0  0  0  0  0
  154.1206  138.5460  158.1298 N   0  5  0  0  0  0  0  0  0  0  0  0
  153.4917  137.8259  156.8209 S   0  0  0  0  0  0  0  0  0  0  0  0
  153.7758  138.5564  155.5742 O   0  0  0  0  0  0  0  0  0  0  0  0
  153.7375  136.3746  156.8173 O   0  0  0  0  0  0  0  0  0  0  0  0
  151.6862  138.0296  157.1524 C   0  0  0  0  0  0  0  0  0  0  0  0
  151.0175  138.7615  156.0212 C   0  0  0  0  0  0  0  0  0  0  0  0
  150.0367  138.2763  155.1122 C   0  0  0  0  0  0  0  0  0  0  0  0
  149.7890  139.3499  154.3066 C   0  0  0  0  0  0  0  0  0  0  0  0
  150.5400  140.4136  154.6875 O   0  0  0  0  0  0  0  0  0  0  0  0
  151.3168  140.0303  155.7865 N   0  0  0  0  0  0  0  0  0  0  0  0
  152.3797  143.6462  158.7643 H   0  0  0  0  0  0  0  0  0  0  0  0
  153.7751  143.0368  159.6626 H   0  0  0  0  0  0  0  0  0  0  0  0
  152.1461  142.8967  160.3454 H   0  0  0  0  0  0  0  0  0  0  0  0
  152.5631  140.1266  160.7001 H   0  0  0  0  0  0  0  0  0  0  0  0
  155.3166  140.7682  159.5627 H   0  0  0  0  0  0  0  0  0  0  0  0
  154.4520  141.6735  160.7697 H   0  0  0  0  0  0  0  0  0  0  0  0
  156.1946  140.1732  161.7832 H   0  0  0  0  0  0  0  0  0  0  0  0
  154.5859  139.8248  162.3806 H   0  0  0  0  0  0  0  0  0  0  0  0
  156.1041  138.2719  160.2252 H   0  0  0  0  0  0  0  0  0  0  0  0
  155.6930  137.7028  161.8159 H   0  0  0  0  0  0  0  0  0  0  0  0
  154.1380  136.7463  160.1133 H   0  0  0  0  0  0  0  0  0  0  0  0
  153.2974  137.6942  161.3011 H   0  0  0  0  0  0  0  0  0  0  0  0
  152.3236  138.2723  159.2001 H   0  0  0  0  0  0  0  0  0  0  0  0
  151.2578  137.0337  157.2583 H   0  0  0  0  0  0  0  0  0  0  0  0
  151.5605  138.5423  158.1064 H   0  0  0  0  0  0  0  0  0  0  0  0
  149.5942  137.2931  155.0560 H   0  0  0  0  0  0  0  0  0  0  0  0
  149.1359  139.5079  153.4615 H   0  0  0  0  0  0  0  0  0  0  0  0
  1  2  1  0  0  0  0
  1 19  1  0  0  0  0
  1 20  1  0  0  0  0
  1 21  1  0  0  0  0
  2  3  1  0  0  0  0
  3  8  1  0  0  0  0
  3  4  1  0  0  0  0
  3 22  1  0  0  0  0
  4  5  1  0  0  0  0
  4 23  1  0  0  0  0
  4 24  1  0  0  0  0
  5  6  1  0  0  0  0
  5 25  1  0  0  0  0
  5 26  1  0  0  0  0
  6  7  1  0  0  0  0
  6 27  1  0  0  0  0
  6 28  1  0  0  0  0
  7  8  1  0  0  0  0
  7 29  1  0  0  0  0
  7 30  1  0  0  0  0
  8  9  1  0  0  0  0
  8 31  1  0  0  0  0
  9 10  1  0  0  0  0
 10 11  2  0  0  0  0
 10 12  2  0  0  0  0
 10 13  1  0  0  0  0
 13 14  1  0  0  0  0
 13 32  1  0  0  0  0
 13 33  1  0  0  0  0
 14 18  2  0  0  0  0
 14 15  1  0  0  0  0
 15 16  2  0  0  0  0
 15 34  1  0  0  0  0
 16 17  1  0  0  0  0
 16 35  1  0  0  0  0
 17 18  1  0  0  0  0
M  CHG  1   9  -1
M  END
> <s_m_source_file>
AV-unprocessed.smi

> <i_m_source_file_index>
2889

> <i_lp_mmshare_version>
43012

> <i_f3d_flags>
0

> <s_epik_input>
W0NIM11TW0NAQEhdMVtDSDJdW0NIMl1bQ0gyXVtDSDJdW0NASF0xW05IXVMoPU8pKD1PKVtDSDJdYzJbY0hdW2NIXW9uMg==

> <s_epik_cmdline>
J2VwaWtfcHl0aG9uJywgJy1waCcsICc3LjAnLCAnLXRuJywgJzgnLCAnLW1hJywgJzIwMCcsICctbWV0YWxfYmluZGluZycsICctaW1hZScsICc8aW5maWxlLm1hZT4nLCAnLW9tYWUnLCAnPG91dGZpbGUubWFlPic=

> <r_lp_tautomer_probability>
1

> <r_epik_Ionization_Penalty>
4.65467

> <r_epik_Ionization_Penalty_Charging>
4.65467

> <r_epik_Ionization_Penalty_Neutral>
2.71476e-10

> <r_epik_State_Penalty>
4.65444

> <r_epik_Charging_Adjusted_Penalty>
9.30911

> <i_epik_Tot_Q>
-1

> <i_epik_Tot_abs_Q>
1

> <r_epik_Metal_State_Penalty>
0.901484

> <b_epik_Metal_Only>
1

> <s_lp_Force_Field>
OPLS_2005

> <r_lp_Energy>
12.0464

> <b_lp_Chiralities_Consistent>
1

> <s_lp_Variant>
AV-unprocessed.smi:2889-7

> <Gold.Version>
5.8.1

> <Gold.Id.Protein>
6NUR|6NUR_protein|mol2

> <Gold.PLP.Fitness>
44.4664

> <Gold.PLP.PLP>
-28.5009

> <Gold.PLP.part.hbond>
-4.3585

> <Gold.PLP.part.metal>
0.0000

> <Gold.PLP.part.buried>
-3.2227

> <Gold.PLP.part.nonpolar>
-20.9060

> <Gold.PLP.part.repulsive>
0.1195

> <Gold.PLP.ligand.clash>
0.0000

> <Gold.PLP.ligand.torsion>
0.7562

> <Gold.PLP.Chemscore.Hbond>
4.4800

> <Gold.PLP.Chemscore.CHOScore>
1.0000

> <Gold.PLP.Chemscore.Metal>
0.0000

> <Gold.Chemscore.Hbonds>
donor molecule, donor type, donor heavy atom, donor atom, acceptor molecule, acceptor atom, score
      P1  H  7989  7998       L1    17  1.00
      P1  H  7997  8008       L1     9  1.98
      P1  H  7997  8009       L1    11  0.48
      P1  H 10752 10765       L1    12  1.00
      L1  C    16    35       P1  7957  1.00

> <Gold.PLP.Chemscore.Internal.Correction>
1.0378

> <Gold.Rescore>
     Score         DG    S(hbond)    S(metal)    S(lipo)     H(rot)  DE(clash)    DE(int)     intcor
     16.78     -18.88       2.23        0.00      84.44       1.53       0.19       1.91       ----

> <Gold.Chemscore.Fitness>
16.7756

> <Gold.Chemscore.DG>
-18.8833

> <Gold.Chemscore.ZeroCoef>
-5.4800

> <Gold.Chemscore.Hbond>
2.2289

> <Gold.Chemscore.Metal>
0.0000

> <Gold.Chemscore.Lipo>
84.4384

> <Gold.Chemscore.Internal_Hbond>
0.0000

> <Gold.Chemscore.DEClash>
0.1938

> <Gold.Chemscore.DEInternal>
1.9139

> <Gold.Chemscore.Rot>
1.5314

> <Gold.Chemscore.Internal.Correction>
   9.000000E+99

> <Gold.Chemscore.Hbonds>
donor molecule, donor type, donor heavy atom, donor atom, acceptor molecule, acceptor atom, score
      P1  H  7989  7998       L1    17  0.44
      P1  H  7997  8008       L1     9  0.24
      P1  H  7997  8009       L1    11  0.46
      P1  H 10752 10765       L1    12  0.95

> <Gold.Chemscore.Hbond.Weighted>
-7.4445

> <Gold.Chemscore.Metal.Weighted>
-0.0000

> <Gold.Chemscore.Lipo.Weighted>
-9.8793

> <Gold.Chemscore.Internal_Hbond.Weighted>
0.0000

> <Gold.Chemscore.DEClash.Weighted>
0.1938

> <Gold.Chemscore.DEInternal.Weighted>
1.9139

> <Gold.Chemscore.Rot.Weighted>
3.9205

> <Gold.Chemscore.Internal.Correction.Weighted>
   9.000000E+99

> <Gold.Protein.RotatedTorsions>
[ 6907 6896 6895 6894 ] final  101.26 input  -60.11 | X-H torsion
[ 7974 7965 7964 7962 ] final -118.23 input  175.53 | X-H torsion
[ 8008 7997 7996 7995 ] final -116.40 input   59.86 | X-H torsion
[ 10167 10162 10161 10158 ] final   18.55 input  -65.29 | X-H torsion
[ 10718 10713 10712 10709 ] final   22.02 input   66.30 | X-H torsion
[ 10763 10752 10751 10750 ] final -115.89 input  -60.55 | X-H torsion
[ 11005 11000 10999 10996 ] final -172.29 input  -57.11 | X-H torsion

> <Gold.Protein.ActiveResidues>
 VAL166  LYS551  ARG553  GLY616  TRP617  ASP618  TYR619  PRO620  LYS621  CYS622 
 ASP623  PHE694  ASN695  SER759  ASP760  ASP761  ALA762  ILE779  LEU786  VAL792 
 PHE793  MET794  SER795  GLU796  ALA797  LYS798  CYS799  TRP800  GLU811  SER814 

> <Gold.Protein.RotatedAtoms>
  152.5353  134.0152  159.7956 H   0  0  0  0  0  0  0  0  0  0  0  0  # atno 6907 bound_to 6896
  151.0348  133.5750  159.2664 H   0  0  0  0  0  0  0  0  0  0  0  0  # atno 6908 bound_to 6896
  151.2742  135.0701  159.9199 H   0  0  0  0  0  0  0  0  0  0  0  0  # atno 6909 bound_to 6896
  145.0762  140.8394  143.4066 H   0  0  0  0  0  0  0  0  0  0  0  0  # atno 7974 bound_to 7965
  155.0672  140.0393  157.2596 H   0  0  0  0  0  0  0  0  0  0  0  0  # atno 8008 bound_to 7997
  154.7012  140.2673  155.6694 H   0  0  0  0  0  0  0  0  0  0  0  0  # atno 8009 bound_to 7997
  156.2761  140.2740  156.1623 H   0  0  0  0  0  0  0  0  0  0  0  0  # atno 8010 bound_to 7997
  140.5645  143.9277  150.6666 H   0  0  0  0  0  0  0  0  0  0  0  0  # atno 10167 bound_to 10162
  157.1465  130.6656  149.5998 H   0  0  0  0  0  0  0  0  0  0  0  0  # atno 10718 bound_to 10713
  154.8498  135.4365  154.1734 H   0  0  0  0  0  0  0  0  0  0  0  0  # atno 10763 bound_to 10752
  153.2842  135.6956  153.7362 H   0  0  0  0  0  0  0  0  0  0  0  0  # atno 10764 bound_to 10752
  153.6554  135.3444  155.3087 H   0  0  0  0  0  0  0  0  0  0  0  0  # atno 10765 bound_to 10752
  140.4987  134.5915  157.4980 H   0  0  0  0  0  0  0  0  0  0  0  0  # atno 11005 bound_to 11000
  145.1233  139.2679  143.5577 LP  0  0  0  0  0  0  0  0  0  0  0  0  # atno 17320 bound_to 7965
  146.3530  140.0863  142.8615 LP  0  0  0  0  0  0  0  0  0  0  0  0  # atno 17321 bound_to 7965
  140.2736  143.3439  152.1215 LP  0  0  0  0  0  0  0  0  0  0  0  0  # atno 17342 bound_to 10162
  139.5086  144.6852  151.5905 LP  0  0  0  0  0  0  0  0  0  0  0  0  # atno 17343 bound_to 10162
  155.9778  130.4759  150.6618 LP  0  0  0  0  0  0  0  0  0  0  0  0  # atno 17370 bound_to 10713
  157.4259  131.0843  151.1086 LP  0  0  0  0  0  0  0  0  0  0  0  0  # atno 17371 bound_to 10713
  139.9726  134.7268  156.0011 LP  0  0  0  0  0  0  0  0  0  0  0  0  # atno 17394 bound_to 11000
  141.1447  133.6558  156.3832 LP  0  0  0  0  0  0  0  0  0  0  0  0  # atno 17395 bound_to 11000

$$$$
