AV-unprocessed.smi:508|AV-procd|sdf|2758|dock8
  -GOLD-   2262023223D 1   1.00000     0.00000
 Structure written by MMmdl.
 49 51  0  0  0  0  0  0  0  0  1 V2000
  153.6457  136.5874  163.6580 C   0  0  0  0  0  0  0  0  0  0  0  0
  154.2985  137.7008  162.8359 C   0  0  0  0  0  0  0  0  0  0  0  0
  154.2734  137.3348  161.4668 O   0  0  0  0  0  0  0  0  0  0  0  0
  154.5556  138.4214  160.6016 C   0  0  0  0  0  0  0  0  0  0  0  0
  153.3438  139.3674  160.5992 C   0  0  0  0  0  0  0  0  0  0  0  0
  152.8824  139.6866  159.2517 N   0  0  0  0  0  0  0  0  0  0  0  0
  152.6257  140.9008  158.6758 C   0  0  0  0  0  0  0  0  0  0  0  0
  152.8095  142.1378  159.3193 N   0  0  0  0  0  0  0  0  0  0  0  0
  153.1776  142.3696  160.7173 C   0  0  0  0  0  0  0  0  0  0  0  0
  152.1567  143.2025  161.5209 C   0  0  0  0  0  0  0  0  0  0  0  0
  152.2172  144.7036  161.2026 C   0  0  0  0  0  0  0  0  0  0  0  0
  151.4359  145.1305  159.9473 C   0  0  0  0  0  0  0  0  0  0  0  0
  151.4985  144.1698  158.7455 C   0  0  0  0  0  0  0  0  0  0  0  0
  152.8238  143.4068  158.5867 C   0  0  0  0  0  0  0  0  0  0  0  0
  152.1470  140.8137  157.4293 N   0  0  0  0  0  0  0  0  0  0  0  0
  152.1089  139.4531  157.1821 C   0  0  0  0  0  0  0  0  0  0  0  0
  152.5407  138.7591  158.2631 C   0  0  0  0  0  0  0  0  0  0  0  0
  152.5787  137.2888  158.2856 C   0  0  0  0  0  0  0  0  0  0  0  0
  152.9448  136.6328  159.2582 O   0  0  0  0  0  0  0  0  0  0  0  0
  152.1672  136.7268  157.1231 N   0  0  0  0  0  0  0  0  0  0  0  0
  151.7302  137.3697  155.9978 C   0  0  0  0  0  0  0  0  0  0  0  0
  151.3926  136.7189  155.0090 O   0  0  0  0  0  0  0  0  0  0  0  0
  151.6870  138.7398  156.0242 N   0  0  0  0  0  0  0  0  0  0  0  0
  151.2198  139.4821  154.8516 C   0  0  0  0  0  0  0  0  0  0  0  0
  152.1825  135.7181  157.0840 H   0  0  0  0  0  0  0  0  0  0  0  0
  153.6467  136.8348  164.7195 H   0  0  0  0  0  0  0  0  0  0  0  0
  154.1796  135.6449  163.5333 H   0  0  0  0  0  0  0  0  0  0  0  0
  152.6110  136.4304  163.3521 H   0  0  0  0  0  0  0  0  0  0  0  0
  153.7593  138.6373  162.9853 H   0  0  0  0  0  0  0  0  0  0  0  0
  155.3271  137.8541  163.1656 H   0  0  0  0  0  0  0  0  0  0  0  0
  155.4557  138.9383  160.9337 H   0  0  0  0  0  0  0  0  0  0  0  0
  154.7577  138.0523  159.5959 H   0  0  0  0  0  0  0  0  0  0  0  0
  152.5198  138.9184  161.1534 H   0  0  0  0  0  0  0  0  0  0  0  0
  153.5671  140.2832  161.1369 H   0  0  0  0  0  0  0  0  0  0  0  0
  153.3312  141.4164  161.2126 H   0  0  0  0  0  0  0  0  0  0  0  0
  154.1555  142.8517  160.7519 H   0  0  0  0  0  0  0  0  0  0  0  0
  151.1405  142.8279  161.4004 H   0  0  0  0  0  0  0  0  0  0  0  0
  152.3957  143.0779  162.5772 H   0  0  0  0  0  0  0  0  0  0  0  0
  151.8264  145.2650  162.0518 H   0  0  0  0  0  0  0  0  0  0  0  0
  153.2598  145.0104  161.1091 H   0  0  0  0  0  0  0  0  0  0  0  0
  150.3877  145.2790  160.2093 H   0  0  0  0  0  0  0  0  0  0  0  0
  151.8009  146.1114  159.6405 H   0  0  0  0  0  0  0  0  0  0  0  0
  150.6740  143.4568  158.7972 H   0  0  0  0  0  0  0  0  0  0  0  0
  151.3151  144.7526  157.8423 H   0  0  0  0  0  0  0  0  0  0  0  0
  153.6704  144.0273  158.8839 H   0  0  0  0  0  0  0  0  0  0  0  0
  152.9773  143.2084  157.5261 H   0  0  0  0  0  0  0  0  0  0  0  0
  151.9310  139.3784  154.0314 H   0  0  0  0  0  0  0  0  0  0  0  0
  151.0994  140.5469  155.0513 H   0  0  0  0  0  0  0  0  0  0  0  0
  150.2521  139.1083  154.5137 H   0  0  0  0  0  0  0  0  0  0  0  0
  1  2  1  0  0  0  0
  1 26  1  0  0  0  0
  1 27  1  0  0  0  0
  1 28  1  0  0  0  0
  2  3  1  0  0  0  0
  2 29  1  0  0  0  0
  2 30  1  0  0  0  0
  3  4  1  0  0  0  0
  4  5  1  0  0  0  0
  4 31  1  0  0  0  0
  4 32  1  0  0  0  0
  5  6  1  0  0  0  0
  5 33  1  0  0  0  0
  5 34  1  0  0  0  0
  6 17  1  0  0  0  0
  6  7  1  0  0  0  0
  7  8  1  0  0  0  0
  7 15  2  0  0  0  0
  8 14  1  0  0  0  0
  8  9  1  0  0  0  0
  9 10  1  0  0  0  0
  9 35  1  0  0  0  0
  9 36  1  0  0  0  0
 10 11  1  0  0  0  0
 10 37  1  0  0  0  0
 10 38  1  0  0  0  0
 11 12  1  0  0  0  0
 11 39  1  0  0  0  0
 11 40  1  0  0  0  0
 12 13  1  0  0  0  0
 12 41  1  0  0  0  0
 12 42  1  0  0  0  0
 13 14  1  0  0  0  0
 13 43  1  0  0  0  0
 13 44  1  0  0  0  0
 14 45  1  0  0  0  0
 14 46  1  0  0  0  0
 15 16  1  0  0  0  0
 16 23  1  0  0  0  0
 16 17  2  0  0  0  0
 17 18  1  0  0  0  0
 18 19  2  0  0  0  0
 18 20  1  0  0  0  0
 20 25  1  0  0  0  0
 20 21  1  0  0  0  0
 21 22  2  0  0  0  0
 21 23  1  0  0  0  0
 23 24  1  0  0  0  0
 24 47  1  0  0  0  0
 24 48  1  0  0  0  0
 24 49  1  0  0  0  0
M  END
> <s_m_source_file>
AV-unprocessed.smi

> <i_m_source_file_index>
508

> <i_lp_mmshare_version>
43012

> <i_f3d_flags>
0

> <s_epik_input>
W0NIM11uMWMoPU8pW25IXWMoPU8pYyhjMTIpbihbQ0gyXVtDSDJdT1tDSDJdW0NIM10pYyhuMilOM1tDSDJdW0NIMl1bQ0gyXVtDSDJdW0NIMl1bQ0gyXTM=

> <s_epik_cmdline>
J2VwaWtfcHl0aG9uJywgJy1waCcsICc3LjAnLCAnLXRuJywgJzgnLCAnLW1hJywgJzIwMCcsICctbWV0YWxfYmluZGluZycsICctaW1hZScsICc8aW5maWxlLm1hZT4nLCAnLW9tYWUnLCAnPG91dGZpbGUubWFlPic=

> <r_lp_tautomer_probability>
1

> <r_epik_Ionization_Penalty>
0.000193589

> <r_epik_Ionization_Penalty_Charging>
2.00901e-05

> <r_epik_Ionization_Penalty_Neutral>
0.000173499

> <r_epik_State_Penalty>
-0

> <r_epik_Charging_Adjusted_Penalty>
2.00901e-05

> <i_epik_Tot_Q>
0

> <i_epik_Tot_abs_Q>
0

> <r_epik_Metal_State_Penalty>
0.0191145

> <b_epik_Metal_Only>
0

> <s_lp_Force_Field>
OPLS_2005

> <r_lp_Energy>
44.1417

> <b_lp_Chiralities_Consistent>
1

> <s_lp_Variant>
AV-unprocessed.smi:508-1

> <Gold.Version>
5.8.1

> <Gold.Id.Protein>
6NUR|6NUR_protein|mol2

> <Gold.PLP.Fitness>
52.0447

> <Gold.PLP.PLP>
-47.1397

> <Gold.PLP.part.hbond>
-2.0776

> <Gold.PLP.part.metal>
0.0000

> <Gold.PLP.part.buried>
-4.1777

> <Gold.PLP.part.nonpolar>
-40.7435

> <Gold.PLP.part.repulsive>
0.2604

> <Gold.PLP.ligand.clash>
0.0000

> <Gold.PLP.ligand.torsion>
0.5632

> <Gold.PLP.Chemscore.Hbond>
2.0000

> <Gold.PLP.Chemscore.CHOScore>
0.0000

> <Gold.PLP.Chemscore.Metal>
0.0000

> <Gold.Chemscore.Hbonds>
donor molecule, donor type, donor heavy atom, donor atom, acceptor molecule, acceptor atom, score
      P1  H  6896  6909       L1    19  1.00
      P1  H 10752 10764       L1    22  1.00

> <Gold.PLP.Chemscore.Internal.Correction>
0.0313

> <Gold.Rescore>
     Score         DG    S(hbond)    S(metal)    S(lipo)     H(rot)  DE(clash)    DE(int)     intcor
     17.71     -20.41       1.83        0.00     109.90       1.58       0.08       2.62       ----

> <Gold.Chemscore.Fitness>
17.7117

> <Gold.Chemscore.DG>
-20.4136

> <Gold.Chemscore.ZeroCoef>
-5.4800

> <Gold.Chemscore.Hbond>
1.8329

> <Gold.Chemscore.Metal>
0.0000

> <Gold.Chemscore.Lipo>
109.8960

> <Gold.Chemscore.Internal_Hbond>
0.0000

> <Gold.Chemscore.DEClash>
0.0847

> <Gold.Chemscore.DEInternal>
2.6172

> <Gold.Chemscore.Rot>
1.5806

> <Gold.Chemscore.Internal.Correction>
   9.000000E+99

> <Gold.Chemscore.Hbonds>
donor molecule, donor type, donor heavy atom, donor atom, acceptor molecule, acceptor atom, score
      P1  H  6896  6909       L1    19  0.92
      P1  H 10752 10764       L1    22  0.64

> <Gold.Chemscore.Hbond.Weighted>
-6.1220

> <Gold.Chemscore.Metal.Weighted>
-0.0000

> <Gold.Chemscore.Lipo.Weighted>
-12.8578

> <Gold.Chemscore.Internal_Hbond.Weighted>
0.0000

> <Gold.Chemscore.DEClash.Weighted>
0.0847

> <Gold.Chemscore.DEInternal.Weighted>
2.6172

> <Gold.Chemscore.Rot.Weighted>
4.0463

> <Gold.Chemscore.Internal.Correction.Weighted>
   9.000000E+99

> <Gold.Protein.RotatedTorsions>
[ 6907 6896 6895 6894 ] final  144.08 input  -60.11 | X-H torsion
[ 7974 7965 7964 7962 ] final -124.21 input  175.53 | X-H torsion
[ 8008 7997 7996 7995 ] final  -45.15 input   59.86 | X-H torsion
[ 10167 10162 10161 10158 ] final  106.06 input  -65.29 | X-H torsion
[ 10718 10713 10712 10709 ] final -159.31 input   66.30 | X-H torsion
[ 10763 10752 10751 10750 ] final  -68.14 input  -60.55 | X-H torsion
[ 11005 11000 10999 10996 ] final  -94.34 input  -57.11 | X-H torsion

> <Gold.Protein.ActiveResidues>
 VAL166  LYS551  ARG553  GLY616  TRP617  ASP618  TYR619  PRO620  LYS621  CYS622 
 ASP623  PHE694  ASN695  SER759  ASP760  ASP761  ALA762  ILE779  LEU786  VAL792 
 PHE793  MET794  SER795  GLU796  ALA797  LYS798  CYS799  TRP800  GLU811  SER814 

> <Gold.Protein.RotatedAtoms>
  152.1981  133.4821  159.5043 H   0  0  0  0  0  0  0  0  0  0  0  0  # atno 6907 bound_to 6896
  150.6964  134.1625  159.4191 H   0  0  0  0  0  0  0  0  0  0  0  0  # atno 6908 bound_to 6896
  151.9542  135.0154  160.0594 H   0  0  0  0  0  0  0  0  0  0  0  0  # atno 6909 bound_to 6896
  145.0104  140.7901  143.4442 H   0  0  0  0  0  0  0  0  0  0  0  0  # atno 7974 bound_to 7965
  154.4000  140.1404  156.3799 H   0  0  0  0  0  0  0  0  0  0  0  0  # atno 8008 bound_to 7997
  155.8013  140.3476  155.5384 H   0  0  0  0  0  0  0  0  0  0  0  0  # atno 8009 bound_to 7997
  155.8480  140.0937  157.1683 H   0  0  0  0  0  0  0  0  0  0  0  0  # atno 8010 bound_to 7997
  139.7041  144.7089  151.1137 H   0  0  0  0  0  0  0  0  0  0  0  0  # atno 10167 bound_to 10162
  156.5662  130.8669  151.2824 H   0  0  0  0  0  0  0  0  0  0  0  0  # atno 10718 bound_to 10713
  154.3847  135.6066  153.5810 H   0  0  0  0  0  0  0  0  0  0  0  0  # atno 10763 bound_to 10752
  152.9788  135.5869  154.4369 H   0  0  0  0  0  0  0  0  0  0  0  0  # atno 10764 bound_to 10752
  154.4144  135.2845  155.1994 H   0  0  0  0  0  0  0  0  0  0  0  0  # atno 10765 bound_to 10752
  141.1473  133.7949  157.0285 H   0  0  0  0  0  0  0  0  0  0  0  0  # atno 11005 bound_to 11000
  145.2030  139.2242  143.5182 LP  0  0  0  0  0  0  0  0  0  0  0  0  # atno 17320 bound_to 7965
  146.3469  140.1852  142.8589 LP  0  0  0  0  0  0  0  0  0  0  0  0  # atno 17321 bound_to 7965
  140.7717  143.5383  150.9342 LP  0  0  0  0  0  0  0  0  0  0  0  0  # atno 17342 bound_to 10162
  139.9066  143.6771  152.3122 LP  0  0  0  0  0  0  0  0  0  0  0  0  # atno 17343 bound_to 10162
  157.7358  130.9768  150.2101 LP  0  0  0  0  0  0  0  0  0  0  0  0  # atno 17370 bound_to 10713
  156.2754  130.3727  149.7988 LP  0  0  0  0  0  0  0  0  0  0  0  0  # atno 17371 bound_to 10713
  140.0770  134.9670  157.1561 LP  0  0  0  0  0  0  0  0  0  0  0  0  # atno 17394 bound_to 11000
  140.3631  134.2473  155.7185 LP  0  0  0  0  0  0  0  0  0  0  0  0  # atno 17395 bound_to 11000

$$$$
