AV-unprocessed.smi:49|AV-procd|sdf|475|dock1
  -GOLD-   2262016343D 1   1.00000     0.00000
 Structure written by MMmdl.
 27 28  0  0  0  0  0  0  0  0  1 V2000
  152.6410  142.7841  161.3947 C   0  0  0  0  0  0  0  0  0  0  0  0
  152.4300  143.9629  160.4378 C   0  0  0  0  0  0  0  0  0  0  0  0
  151.6108  143.5850  159.2481 C   0  0  0  0  0  0  0  0  0  0  0  0
  151.1671  142.3103  159.0322 N   0  0  0  0  0  0  0  0  0  0  0  0
  150.5511  142.4689  157.8636 C   0  0  0  0  0  0  0  0  0  0  0  0
  149.8342  141.3983  157.0996 C   0  0  2  0  0  0  0  0  0  0  0  0
  150.4305  141.1838  155.6954 C   0  0  0  0  0  0  0  0  0  0  0  0
  149.3517  141.6999  154.7479 C   0  0  1  0  0  0  0  0  0  0  0  0
  149.3725  141.0606  153.4894 O   0  0  0  0  0  0  0  0  0  0  0  0
  148.0742  141.4106  155.5243 C   0  0  0  0  0  0  0  0  0  0  0  0
  148.4139  141.7121  156.9077 N   0  0  0  0  0  0  0  0  0  0  0  0
  150.6236  143.7249  157.4182 N   0  0  0  0  0  0  0  0  0  0  0  0
  151.3200  144.4737  158.2991 N   0  0  0  0  0  0  0  0  0  0  0  0
  149.9232  140.4662  157.6592 H   0  0  0  0  0  0  0  0  0  0  0  0
  149.4633  142.7767  154.6105 H   0  0  0  0  0  0  0  0  0  0  0  0
  150.2405  144.0957  156.5604 H   0  0  0  0  0  0  0  0  0  0  0  0
  153.2395  143.0842  162.2549 H   0  0  0  0  0  0  0  0  0  0  0  0
  153.1585  141.9618  160.8994 H   0  0  0  0  0  0  0  0  0  0  0  0
  151.6885  142.4056  161.7668 H   0  0  0  0  0  0  0  0  0  0  0  0
  151.9375  144.7815  160.9635 H   0  0  0  0  0  0  0  0  0  0  0  0
  153.3950  144.3465  160.1037 H   0  0  0  0  0  0  0  0  0  0  0  0
  151.3936  141.6746  155.5467 H   0  0  0  0  0  0  0  0  0  0  0  0
  150.5812  140.1149  155.5365 H   0  0  0  0  0  0  0  0  0  0  0  0
  148.4819  140.8787  153.2308 H   0  0  0  0  0  0  0  0  0  0  0  0
  147.2248  141.9977  155.1743 H   0  0  0  0  0  0  0  0  0  0  0  0
  147.8131  140.3552  155.4325 H   0  0  0  0  0  0  0  0  0  0  0  0
  147.8448  141.1356  157.5190 H   0  0  0  0  0  0  0  0  0  0  0  0
  1  2  1  0  0  0  0
  1 17  1  0  0  0  0
  1 18  1  0  0  0  0
  1 19  1  0  0  0  0
  2 20  1  0  0  0  0
  2 21  1  0  0  0  0
  2  3  1  0  0  0  0
  3  4  1  0  0  0  0
  3 13  2  0  0  0  0
  4  5  2  0  0  0  0
  5  6  1  0  0  0  0
  5 12  1  0  0  0  0
  6 14  1  0  0  0  0
  6 11  1  0  0  0  0
  6  7  1  0  0  0  0
  7  8  1  0  0  0  0
  7 22  1  0  0  0  0
  7 23  1  0  0  0  0
  8 15  1  0  0  0  0
  8  9  1  0  0  0  0
  8 10  1  0  0  0  0
  9 24  1  0  0  0  0
 10 11  1  0  0  0  0
 10 25  1  0  0  0  0
 10 26  1  0  0  0  0
 11 27  1  0  0  0  0
 12 13  1  0  0  0  0
 12 16  1  0  0  0  0
M  END
> <s_m_source_file>
AV-unprocessed.smi

> <i_m_source_file_index>
49

> <i_lp_mmshare_version>
43012

> <i_f3d_flags>
0

> <s_epik_input>
W0NIM11bQ0gyXWMxbmMobltuSF0xKVtDQEBIXTJbQ0gyXVtDQEBIXShbT0hdKVtDSDJdW05IXTI=

> <s_epik_cmdline>
J2VwaWtfcHl0aG9uJywgJy1waCcsICc3LjAnLCAnLXRuJywgJzgnLCAnLW1hJywgJzIwMCcsICctbWV0YWxfYmluZGluZycsICctaW1hZScsICc8aW5maWxlLm1hZT4nLCAnLW9tYWUnLCAnPG91dGZpbGUubWFlPic=

> <r_epik_Ionization_Penalty>
1.31544

> <r_epik_Ionization_Penalty_Charging>
0

> <r_epik_Ionization_Penalty_Neutral>
1.31544

> <r_epik_State_Penalty>
2.06074

> <r_epik_Charging_Adjusted_Penalty>
2.06074

> <i_epik_Tot_Q>
0

> <i_epik_Tot_abs_Q>
0

> <r_epik_Metal_State_Penalty>
2.32913

> <b_epik_Metal_Only>
0

> <s_lp_Force_Field>
OPLS_2005

> <r_lp_Energy>
18.0734

> <b_lp_Chiralities_Consistent>
1

> <s_lp_Variant>
AV-unprocessed.smi:49-13

> <Gold.Version>
5.8.1

> <Gold.Id.Protein>
6NUR|6NUR_protein|mol2

> <Gold.PLP.Fitness>
34.0464

> <Gold.PLP.PLP>
-27.8533

> <Gold.PLP.part.hbond>
-4.2041

> <Gold.PLP.part.metal>
0.0000

> <Gold.PLP.part.buried>
-3.6737

> <Gold.PLP.part.nonpolar>
-19.5070

> <Gold.PLP.part.repulsive>
0.1446

> <Gold.PLP.ligand.clash>
0.0000

> <Gold.PLP.ligand.torsion>
0.0044

> <Gold.PLP.Chemscore.Hbond>
2.0655

> <Gold.PLP.Chemscore.CHOScore>
0.0000

> <Gold.PLP.Chemscore.Metal>
0.0000

> <Gold.Chemscore.Hbonds>
donor molecule, donor type, donor heavy atom, donor atom, acceptor molecule, acceptor atom, score
      L1  H    12    16       P1  8028  1.00
      P1  H  7989  7998       L1     9  0.08
      P1  H  8011  8017       L1     9  1.00

> <Gold.PLP.Chemscore.Internal.Correction>
0.0054

> <Gold.Rescore>
     Score         DG    S(hbond)    S(metal)    S(lipo)     H(rot)  DE(clash)    DE(int)     intcor
     11.63     -12.05       1.67        0.00      49.21       1.86       0.39       0.04       ----

> <Gold.Chemscore.Fitness>
11.6256

> <Gold.Chemscore.DG>
-12.0522

> <Gold.Chemscore.ZeroCoef>
-5.4800

> <Gold.Chemscore.Hbond>
1.6663

> <Gold.Chemscore.Metal>
0.0000

> <Gold.Chemscore.Lipo>
49.2086

> <Gold.Chemscore.Internal_Hbond>
0.0000

> <Gold.Chemscore.DEClash>
0.3870

> <Gold.Chemscore.DEInternal>
0.0395

> <Gold.Chemscore.Rot>
1.8558

> <Gold.Chemscore.Internal.Correction>
   9.000000E+99

> <Gold.Chemscore.Hbonds>
donor molecule, donor type, donor heavy atom, donor atom, acceptor molecule, acceptor atom, score
      L1  H    12    16       P1  8028  0.94
      P1  H  7989  7998       L1     9  0.01
      P1  H  8011  8017       L1     9  0.13

> <Gold.Chemscore.Hbond.Weighted>
-5.5655

> <Gold.Chemscore.Metal.Weighted>
-0.0000

> <Gold.Chemscore.Lipo.Weighted>
-5.7574

> <Gold.Chemscore.Internal_Hbond.Weighted>
0.0000

> <Gold.Chemscore.DEClash.Weighted>
0.3870

> <Gold.Chemscore.DEInternal.Weighted>
0.0395

> <Gold.Chemscore.Rot.Weighted>
4.7507

> <Gold.Chemscore.Internal.Correction.Weighted>
   9.000000E+99

> <Gold.Protein.RotatedTorsions>
[ 6907 6896 6895 6894 ] final   94.36 input  -60.11 | X-H torsion
[ 7974 7965 7964 7962 ] final   65.31 input  175.53 | X-H torsion
[ 8008 7997 7996 7995 ] final -131.99 input   59.86 | X-H torsion
[ 10167 10162 10161 10158 ] final  -75.90 input  -65.29 | X-H torsion
[ 10718 10713 10712 10709 ] final  -99.61 input   66.30 | X-H torsion
[ 10763 10752 10751 10750 ] final -127.12 input  -60.55 | X-H torsion
[ 11005 11000 10999 10996 ] final  -16.34 input  -57.11 | X-H torsion

> <Gold.Protein.ActiveResidues>
 VAL166  LYS551  ARG553  GLY616  TRP617  ASP618  TYR619  PRO620  LYS621  CYS622 
 ASP623  PHE694  ASN695  SER759  ASP760  ASP761  ALA762  ILE779  LEU786  VAL792 
 PHE793  MET794  SER795  GLU796  ALA797  LYS798  CYS799  TRP800  GLU811  SER814 

> <Gold.Protein.RotatedAtoms>
  152.5450  134.1206  159.8397 H   0  0  0  0  0  0  0  0  0  0  0  0  # atno 6907 bound_to 6896
  151.1262  133.5061  159.2608 H   0  0  0  0  0  0  0  0  0  0  0  0  # atno 6908 bound_to 6896
  151.1724  135.0334  159.8812 H   0  0  0  0  0  0  0  0  0  0  0  0  # atno 6909 bound_to 6896
  145.8399  139.3189  143.0937 H   0  0  0  0  0  0  0  0  0  0  0  0  # atno 7974 bound_to 7965
  155.3214  140.0462  157.3039 H   0  0  0  0  0  0  0  0  0  0  0  0  # atno 8008 bound_to 7997
  154.5378  140.2278  155.8659 H   0  0  0  0  0  0  0  0  0  0  0  0  # atno 8009 bound_to 7997
  156.1852  140.3064  155.9230 H   0  0  0  0  0  0  0  0  0  0  0  0  # atno 8010 bound_to 7997
  140.4903  143.2382  151.7917 H   0  0  0  0  0  0  0  0  0  0  0  0  # atno 10167 bound_to 10162
  156.0139  130.5290  150.6695 H   0  0  0  0  0  0  0  0  0  0  0  0  # atno 10718 bound_to 10713
  154.8750  135.3972  154.3542 H   0  0  0  0  0  0  0  0  0  0  0  0  # atno 10763 bound_to 10752
  153.4323  135.7025  153.6228 H   0  0  0  0  0  0  0  0  0  0  0  0  # atno 10764 bound_to 10752
  153.4844  135.3762  155.2428 H   0  0  0  0  0  0  0  0  0  0  0  0  # atno 10765 bound_to 10752
  140.8058  133.8179  155.9514 H   0  0  0  0  0  0  0  0  0  0  0  0  # atno 11005 bound_to 11000
  145.9476  140.8933  143.0275 LP  0  0  0  0  0  0  0  0  0  0  0  0  # atno 17320 bound_to 7965
  144.6734  140.1636  143.7420 LP  0  0  0  0  0  0  0  0  0  0  0  0  # atno 17321 bound_to 7965
  139.4850  144.4658  151.9486 LP  0  0  0  0  0  0  0  0  0  0  0  0  # atno 17342 bound_to 10162
  140.3744  144.2815  150.5916 LP  0  0  0  0  0  0  0  0  0  0  0  0  # atno 17343 bound_to 10162
  157.4420  131.0862  151.0933 LP  0  0  0  0  0  0  0  0  0  0  0  0  # atno 17370 bound_to 10713
  157.1474  130.6169  149.5572 LP  0  0  0  0  0  0  0  0  0  0  0  0  # atno 17371 bound_to 10713
  140.9248  134.2096  157.4903 LP  0  0  0  0  0  0  0  0  0  0  0  0  # atno 17394 bound_to 11000
  139.8718  134.9808  156.5090 LP  0  0  0  0  0  0  0  0  0  0  0  0  # atno 17395 bound_to 11000

$$$$
