AV-unprocessed.smi:286|AV-procd|sdf|2174|dock4
  -GOLD-   2262021533D 1   1.00000     0.00000
 Structure written by MMmdl.
 46 48  0  0  0  0  0  0  0  0  1 V2000
  152.5328  139.4593  155.8279 O   0  0  0  0  0  0  0  0  0  0  0  0
  151.3736  139.4684  155.4099 C   0  0  0  0  0  0  0  0  0  0  0  0
  150.7503  138.3265  154.7523 C   0  0  0  0  0  0  0  0  0  0  0  0
  151.4347  137.1767  154.6272 F   0  0  0  0  0  0  0  0  0  0  0  0
  149.4874  138.3976  154.2799 C   0  0  0  0  0  0  0  0  0  0  0  0
  148.7096  139.5416  154.3584 N   0  0  0  0  0  0  0  0  0  0  0  0
  147.2656  139.5555  153.8985 C   0  0  1  0  0  0  0  0  0  0  0  0
  147.0061  140.4265  152.6568 C   0  0  0  0  0  0  0  0  0  0  0  0
  146.8424  139.3903  151.5621 C   0  0  0  0  0  0  0  0  0  0  0  0
  146.2401  138.2217  152.3321 C   0  0  0  0  0  0  0  0  0  0  0  0
  146.9141  138.2410  153.5840 O   0  0  0  0  0  0  0  0  0  0  0  0
  149.2063  140.6684  155.0537 C   0  0  0  0  0  0  0  0  0  0  0  0
  148.5039  141.6687  155.2144 O   0  0  0  0  0  0  0  0  0  0  0  0
  150.5351  140.6025  155.5402 N   0  0  0  0  0  0  0  0  0  0  0  0
  151.0948  141.7724  156.2033 C   0  0  0  0  0  0  0  0  0  0  0  0
  151.5178  141.5281  157.6730 C   0  0  2  0  0  0  0  0  0  0  0  0
  150.4180  140.9716  158.3655 O   0  0  0  0  0  0  0  0  0  0  0  0
  152.0600  142.7705  158.4250 C   0  0  0  0  0  0  0  0  0  0  0  0
  152.1331  142.5339  159.9491 C   0  0  0  0  0  0  0  0  0  0  0  0
  152.7530  143.7369  160.6790 C   0  0  0  0  0  0  0  0  0  0  0  0
  151.9904  145.0338  160.3673 C   0  0  0  0  0  0  0  0  0  0  0  0
  151.9051  145.2767  158.8527 C   0  0  0  0  0  0  0  0  0  0  0  0
  151.2791  144.0729  158.1306 C   0  0  0  0  0  0  0  0  0  0  0  0
  149.0835  137.5056  153.8287 H   0  0  0  0  0  0  0  0  0  0  0  0
  146.6808  139.9235  154.7429 H   0  0  0  0  0  0  0  0  0  0  0  0
  146.0639  140.9556  152.8064 H   0  0  0  0  0  0  0  0  0  0  0  0
  147.7813  141.1709  152.4772 H   0  0  0  0  0  0  0  0  0  0  0  0
  146.2086  139.7311  150.7431 H   0  0  0  0  0  0  0  0  0  0  0  0
  147.8103  139.1070  151.1481 H   0  0  0  0  0  0  0  0  0  0  0  0
  145.1734  138.3799  152.4976 H   0  0  0  0  0  0  0  0  0  0  0  0
  146.3703  137.2672  151.8220 H   0  0  0  0  0  0  0  0  0  0  0  0
  151.9113  142.1666  155.5987 H   0  0  0  0  0  0  0  0  0  0  0  0
  150.3268  142.5464  156.1457 H   0  0  0  0  0  0  0  0  0  0  0  0
  152.2935  140.7620  157.6802 H   0  0  0  0  0  0  0  0  0  0  0  0
  150.7336  140.2688  158.9126 H   0  0  0  0  0  0  0  0  0  0  0  0
  153.0874  142.9223  158.0942 H   0  0  0  0  0  0  0  0  0  0  0  0
  151.1346  142.3460  160.3459 H   0  0  0  0  0  0  0  0  0  0  0  0
  152.7217  141.6409  160.1615 H   0  0  0  0  0  0  0  0  0  0  0  0
  152.7568  143.5571  161.7544 H   0  0  0  0  0  0  0  0  0  0  0  0
  153.7965  143.8463  160.3811 H   0  0  0  0  0  0  0  0  0  0  0  0
  150.9844  144.9758  160.7851 H   0  0  0  0  0  0  0  0  0  0  0  0
  152.4787  145.8791  160.8530 H   0  0  0  0  0  0  0  0  0  0  0  0
  151.3197  146.1746  158.6530 H   0  0  0  0  0  0  0  0  0  0  0  0
  152.9030  145.4631  158.4537 H   0  0  0  0  0  0  0  0  0  0  0  0
  151.2501  144.2756  157.0614 H   0  0  0  0  0  0  0  0  0  0  0  0
  150.2412  143.9675  158.4483 H   0  0  0  0  0  0  0  0  0  0  0  0
  1  2  2  0  0  0  0
  2 14  1  0  0  0  0
  2  3  1  0  0  0  0
  3  4  1  0  0  0  0
  3  5  2  0  0  0  0
  5  6  1  0  0  0  0
  5 24  1  0  0  0  0
  6  7  1  0  0  0  0
  6 12  1  0  0  0  0
  7 11  1  0  0  0  0
  7  8  1  0  0  0  0
  7 25  1  0  0  0  0
  8  9  1  0  0  0  0
  8 26  1  0  0  0  0
  8 27  1  0  0  0  0
  9 10  1  0  0  0  0
  9 28  1  0  0  0  0
  9 29  1  0  0  0  0
 10 11  1  0  0  0  0
 10 30  1  0  0  0  0
 10 31  1  0  0  0  0
 12 13  2  0  0  0  0
 12 14  1  0  0  0  0
 14 15  1  0  0  0  0
 15 16  1  0  0  0  0
 15 32  1  0  0  0  0
 15 33  1  0  0  0  0
 16 17  1  0  0  0  0
 16 18  1  0  0  0  0
 16 34  1  0  0  0  0
 17 35  1  0  0  0  0
 18 23  1  0  0  0  0
 18 19  1  0  0  0  0
 18 36  1  0  0  0  0
 19 20  1  0  0  0  0
 19 37  1  0  0  0  0
 19 38  1  0  0  0  0
 20 21  1  0  0  0  0
 20 39  1  0  0  0  0
 20 40  1  0  0  0  0
 21 22  1  0  0  0  0
 21 41  1  0  0  0  0
 21 42  1  0  0  0  0
 22 23  1  0  0  0  0
 22 43  1  0  0  0  0
 22 44  1  0  0  0  0
 23 45  1  0  0  0  0
 23 46  1  0  0  0  0
M  END
> <s_m_source_file>
AV-unprocessed.smi

> <i_m_source_file_index>
286

> <i_lp_mmshare_version>
43012

> <i_f3d_flags>
0

> <s_epik_input>
TzFbQ0gyXVtDSDJdW0NIMl1bQ0BIXTFuKFtjSF1jKEYpYzI9TyljKD1PKW4yW0NIMl1bQ0BIXShbT0hdKVtDSF0zW0NIMl1bQ0gyXVtDSDJdW0NIMl1bQ0gyXTM=

> <s_epik_cmdline>
J2VwaWtfcHl0aG9uJywgJy1waCcsICc3LjAnLCAnLXRuJywgJzgnLCAnLW1hJywgJzIwMCcsICctbWV0YWxfYmluZGluZycsICctaW1hZScsICc8aW5maWxlLm1hZT4nLCAnLW9tYWUnLCAnPG91dGZpbGUubWFlPic=

> <r_lp_tautomer_probability>
1

> <r_epik_Ionization_Penalty>
3.15564e-07

> <r_epik_Ionization_Penalty_Charging>
2.06416e-08

> <r_epik_Ionization_Penalty_Neutral>
2.94923e-07

> <r_epik_State_Penalty>
-0

> <r_epik_Charging_Adjusted_Penalty>
2.06416e-08

> <i_epik_Tot_Q>
0

> <i_epik_Tot_abs_Q>
0

> <r_epik_Metal_State_Penalty>
-0

> <b_epik_Metal_Only>
0

> <s_epik_Chemistry_Notes>
This compound contains an acetal/aminal-like group ( X-CH(R)-Y where X, Y are N, S, or O) that may be acid/base labile, releasing an aldehyde.

> <s_lp_Force_Field>
OPLS_2005

> <r_lp_Energy>
39.3884

> <b_lp_Chiralities_Consistent>
1

> <s_lp_Variant>
AV-unprocessed.smi:286-2

> <Gold.Version>
5.8.1

> <Gold.Id.Protein>
6NUR|6NUR_protein|mol2

> <Gold.PLP.Fitness>
54.4587

> <Gold.PLP.PLP>
-49.5198

> <Gold.PLP.part.hbond>
-1.0000

> <Gold.PLP.part.metal>
0.0000

> <Gold.PLP.part.buried>
-1.9411

> <Gold.PLP.part.nonpolar>
-48.2416

> <Gold.PLP.part.repulsive>
0.7087

> <Gold.PLP.ligand.clash>
0.0000

> <Gold.PLP.ligand.torsion>
0.5942

> <Gold.PLP.Chemscore.Hbond>
1.0000

> <Gold.PLP.Chemscore.CHOScore>
1.0000

> <Gold.PLP.Chemscore.Metal>
0.0000

> <Gold.Chemscore.Hbonds>
donor molecule, donor type, donor heavy atom, donor atom, acceptor molecule, acceptor atom, score
      P1  H  7997  8009       L1     1  1.00
      L1  C     5    24       P1  7948  1.00

> <Gold.PLP.Chemscore.Internal.Correction>
0.1273

> <Gold.Rescore>
     Score         DG    S(hbond)    S(metal)    S(lipo)     H(rot)  DE(clash)    DE(int)     intcor
     14.32     -16.63       0.69        0.00     125.48       2.28       0.49       1.82       ----

> <Gold.Chemscore.Fitness>
14.3178

> <Gold.Chemscore.DG>
-16.6321

> <Gold.Chemscore.ZeroCoef>
-5.4800

> <Gold.Chemscore.Hbond>
0.6877

> <Gold.Chemscore.Metal>
0.0000

> <Gold.Chemscore.Lipo>
125.4754

> <Gold.Chemscore.Internal_Hbond>
0.0000

> <Gold.Chemscore.DEClash>
0.4924

> <Gold.Chemscore.DEInternal>
1.8218

> <Gold.Chemscore.Rot>
2.2756

> <Gold.Chemscore.Internal.Correction>
   9.000000E+99

> <Gold.Chemscore.Hbonds>
donor molecule, donor type, donor heavy atom, donor atom, acceptor molecule, acceptor atom, score
      P1  H  7997  8009       L1     1  0.98

> <Gold.Chemscore.Hbond.Weighted>
-2.2969

> <Gold.Chemscore.Metal.Weighted>
-0.0000

> <Gold.Chemscore.Lipo.Weighted>
-14.6806

> <Gold.Chemscore.Internal_Hbond.Weighted>
0.0000

> <Gold.Chemscore.DEClash.Weighted>
0.4924

> <Gold.Chemscore.DEInternal.Weighted>
1.8218

> <Gold.Chemscore.Rot.Weighted>
5.8254

> <Gold.Chemscore.Internal.Correction.Weighted>
   9.000000E+99

> <Gold.Protein.RotatedTorsions>
[ 6907 6896 6895 6894 ] final  -94.55 input  -60.11 | X-H torsion
[ 7974 7965 7964 7962 ] final  -55.99 input  175.53 | X-H torsion
[ 8008 7997 7996 7995 ] final -154.81 input   59.86 | X-H torsion
[ 10167 10162 10161 10158 ] final   13.08 input  -65.29 | X-H torsion
[ 10718 10713 10712 10709 ] final -100.43 input   66.30 | X-H torsion
[ 10763 10752 10751 10750 ] final  162.90 input  -60.55 | X-H torsion
[ 11005 11000 10999 10996 ] final   95.93 input  -57.11 | X-H torsion

> <Gold.Protein.ActiveResidues>
 VAL166  LYS551  ARG553  GLY616  TRP617  ASP618  TYR619  PRO620  LYS621  CYS622 
 ASP623  PHE694  ASN695  SER759  ASP760  ASP761  ALA762  ILE779  LEU786  VAL792 
 PHE793  MET794  SER795  GLU796  ALA797  LYS798  CYS799  TRP800  GLU811  SER814 

> <Gold.Protein.RotatedAtoms>
  150.6944  134.1794  159.4242 H   0  0  0  0  0  0  0  0  0  0  0  0  # atno 6907 bound_to 6896
  151.9769  135.0046  160.0565 H   0  0  0  0  0  0  0  0  0  0  0  0  # atno 6908 bound_to 6896
  152.1790  133.4659  159.4985 H   0  0  0  0  0  0  0  0  0  0  0  0  # atno 6909 bound_to 6896
  145.8678  140.8238  142.9903 H   0  0  0  0  0  0  0  0  0  0  0  0  # atno 7974 bound_to 7965
  155.6922  140.0757  157.2443 H   0  0  0  0  0  0  0  0  0  0  0  0  # atno 8008 bound_to 7997
  154.4087  140.1662  156.2151 H   0  0  0  0  0  0  0  0  0  0  0  0  # atno 8009 bound_to 7997
  155.9442  140.3382  155.6356 H   0  0  0  0  0  0  0  0  0  0  0  0  # atno 8010 bound_to 7997
  140.6026  143.8573  150.6981 H   0  0  0  0  0  0  0  0  0  0  0  0  # atno 10167 bound_to 10162
  156.0163  130.5327  150.6815 H   0  0  0  0  0  0  0  0  0  0  0  0  # atno 10718 bound_to 10713
  154.2854  135.2762  155.2678 H   0  0  0  0  0  0  0  0  0  0  0  0  # atno 10763 bound_to 10752
  154.5181  135.5764  153.6662 H   0  0  0  0  0  0  0  0  0  0  0  0  # atno 10764 bound_to 10752
  152.9922  135.6197  154.3016 H   0  0  0  0  0  0  0  0  0  0  0  0  # atno 10765 bound_to 10752
  139.8785  134.8925  156.4084 H   0  0  0  0  0  0  0  0  0  0  0  0  # atno 11005 bound_to 11000
  144.6726  140.1193  143.7451 LP  0  0  0  0  0  0  0  0  0  0  0  0  # atno 17320 bound_to 7965
  145.9172  139.2523  143.1403 LP  0  0  0  0  0  0  0  0  0  0  0  0  # atno 17321 bound_to 7965
  140.2123  143.3874  152.1709 LP  0  0  0  0  0  0  0  0  0  0  0  0  # atno 17342 bound_to 10162
  139.5302  144.7150  151.5084 LP  0  0  0  0  0  0  0  0  0  0  0  0  # atno 17343 bound_to 10162
  157.4517  131.0873  151.0839 LP  0  0  0  0  0  0  0  0  0  0  0  0  # atno 17370 bound_to 10713
  157.1353  130.6120  149.5540 LP  0  0  0  0  0  0  0  0  0  0  0  0  # atno 17371 bound_to 10713
  140.9217  133.7640  155.9915 LP  0  0  0  0  0  0  0  0  0  0  0  0  # atno 17394 bound_to 11000
  140.8431  134.3043  157.5305 LP  0  0  0  0  0  0  0  0  0  0  0  0  # atno 17395 bound_to 11000

$$$$
