AV-unprocessed.smi:1056|AV-procd|sdf|4639|dock1
  -GOLD-   22720 3143D 1   1.00000     0.00000
 Structure written by MMmdl.
 44 46  0  0  0  0  0  0  0  0  1 V2000
  153.5937  143.0903  163.7763 C   0  0  0  0  0  0  0  0  0  0  0  0
  153.0196  143.1140  162.3705 C   0  0  0  0  0  0  0  0  0  0  0  0
  152.2407  144.2212  161.9648 C   0  0  0  0  0  0  0  0  0  0  0  0
  151.6899  144.2820  160.6658 C   0  0  0  0  0  0  0  0  0  0  0  0
  150.9098  145.2558  160.0657 N   0  0  0  0  0  0  0  0  0  0  0  0
  150.7172  144.7364  158.8568 C   0  0  0  0  0  0  0  0  0  0  0  0
  151.2803  143.5399  158.6023 N   0  0  0  0  0  0  0  0  0  0  0  0
  151.2054  142.7867  157.3630 C   0  0  0  0  0  0  0  0  0  0  0  0
  150.0643  141.7509  157.3688 C   0  0  1  0  0  0  0  0  0  0  0  0
  148.9764  142.2518  156.6160 O   0  0  0  0  0  0  0  0  0  0  0  0
  150.5141  140.4096  156.7532 C   0  0  0  0  0  0  0  0  0  0  0  0
  150.9210  140.4549  155.3375 N   0  0  0  0  0  0  0  0  0  0  0  0
  149.7978  140.4040  154.3946 C   0  0  0  0  0  0  0  0  0  0  0  0
  149.0502  139.0552  154.4023 C   0  0  0  0  0  0  0  0  0  0  0  0
  149.9621  137.9146  154.4826 N   0  0  0  0  0  0  0  0  0  0  0  0
  151.2652  137.9939  154.8040 C   0  0  0  0  0  0  0  0  0  0  0  0
  151.9688  136.9926  154.9125 O   0  0  0  0  0  0  0  0  0  0  0  0
  151.8833  139.3919  155.0083 C   0  0  0  0  0  0  0  0  0  0  0  0
  151.9399  143.1955  159.7774 C   0  0  0  0  0  0  0  0  0  0  0  0
  152.7137  142.0890  160.1694 C   0  0  0  0  0  0  0  0  0  0  0  0
  153.2573  142.0445  161.4702 C   0  0  0  0  0  0  0  0  0  0  0  0
  154.0930  140.8458  161.8830 C   0  0  0  0  0  0  0  0  0  0  0  0
  153.3402  143.9977  164.3254 H   0  0  0  0  0  0  0  0  0  0  0  0
  154.6807  143.0115  163.7453 H   0  0  0  0  0  0  0  0  0  0  0  0
  153.2000  142.2405  164.3345 H   0  0  0  0  0  0  0  0  0  0  0  0
  152.0594  145.0361  162.6500 H   0  0  0  0  0  0  0  0  0  0  0  0
  150.1335  145.2558  158.1109 H   0  0  0  0  0  0  0  0  0  0  0  0
  151.0865  143.4860  156.5344 H   0  0  0  0  0  0  0  0  0  0  0  0
  152.1635  142.2877  157.2123 H   0  0  0  0  0  0  0  0  0  0  0  0
  149.7391  141.6147  158.3991 H   0  0  0  0  0  0  0  0  0  0  0  0
  149.0911  143.1840  156.5107 H   0  0  0  0  0  0  0  0  0  0  0  0
  151.3482  140.0396  157.3516 H   0  0  0  0  0  0  0  0  0  0  0  0
  149.7210  139.6739  156.8900 H   0  0  0  0  0  0  0  0  0  0  0  0
  149.1018  141.2252  154.5574 H   0  0  0  0  0  0  0  0  0  0  0  0
  150.1878  140.5711  153.3893 H   0  0  0  0  0  0  0  0  0  0  0  0
  148.3717  139.0070  155.2545 H   0  0  0  0  0  0  0  0  0  0  0  0
  148.4329  138.9602  153.5087 H   0  0  0  0  0  0  0  0  0  0  0  0
  149.5681  136.9982  154.3252 H   0  0  0  0  0  0  0  0  0  0  0  0
  152.3881  139.6517  154.0771 H   0  0  0  0  0  0  0  0  0  0  0  0
  152.6705  139.3382  155.7617 H   0  0  0  0  0  0  0  0  0  0  0  0
  152.8897  141.2833  159.4720 H   0  0  0  0  0  0  0  0  0  0  0  0
  154.1528  140.1081  161.0823 H   0  0  0  0  0  0  0  0  0  0  0  0
  153.6578  140.3578  162.7553 H   0  0  0  0  0  0  0  0  0  0  0  0
  155.1087  141.1560  162.1292 H   0  0  0  0  0  0  0  0  0  0  0  0
  1  2  1  0  0  0  0
  1 23  1  0  0  0  0
  1 24  1  0  0  0  0
  1 25  1  0  0  0  0
  2 21  1  0  0  0  0
  2  3  2  0  0  0  0
  3  4  1  0  0  0  0
  3 26  1  0  0  0  0
  4 19  2  0  0  0  0
  4  5  1  0  0  0  0
  5  6  2  0  0  0  0
  6  7  1  0  0  0  0
  6 27  1  0  0  0  0
  7  8  1  0  0  0  0
  7 19  1  0  0  0  0
  8  9  1  0  0  0  0
  8 28  1  0  0  0  0
  8 29  1  0  0  0  0
  9 10  1  0  0  0  0
  9 11  1  0  0  0  0
  9 30  1  0  0  0  0
 10 31  1  0  0  0  0
 11 12  1  0  0  0  0
 11 32  1  0  0  0  0
 11 33  1  0  0  0  0
 12 18  1  0  0  0  0
 12 13  1  0  0  0  0
 13 14  1  0  0  0  0
 13 34  1  0  0  0  0
 13 35  1  0  0  0  0
 14 15  1  0  0  0  0
 14 36  1  0  0  0  0
 14 37  1  0  0  0  0
 15 16  1  0  0  0  0
 15 38  1  0  0  0  0
 16 17  2  0  0  0  0
 16 18  1  0  0  0  0
 18 39  1  0  0  0  0
 18 40  1  0  0  0  0
 19 20  1  0  0  0  0
 20 21  2  0  0  0  0
 20 41  1  0  0  0  0
 21 22  1  0  0  0  0
 22 42  1  0  0  0  0
 22 43  1  0  0  0  0
 22 44  1  0  0  0  0
M  END
> <s_m_source_file>
AV-unprocessed.smi

> <i_m_source_file_index>
1056

> <i_lp_mmshare_version>
43012

> <i_f3d_flags>
0

> <s_epik_input>
W0NIM11jKFtjSF0xKWMoW0NIM10pW2NIXWMoYzEyKW4oW2NIXW4yKVtDSDJdW0NASF0oW09IXSlbQ0gyXU4zW0NIMl1bQ0gyXVtOSF1DKD1PKVtDSDJdMw==

> <s_epik_cmdline>
J2VwaWtfcHl0aG9uJywgJy1waCcsICc3LjAnLCAnLXRuJywgJzgnLCAnLW1hJywgJzIwMCcsICctbWV0YWxfYmluZGluZycsICctaW1hZScsICc8aW5maWxlLm1hZT4nLCAnLW9tYWUnLCAnPG91dGZpbGUubWFlPic=

> <r_epik_Ionization_Penalty>
1.40166

> <r_epik_Ionization_Penalty_Charging>
0

> <r_epik_Ionization_Penalty_Neutral>
1.40166

> <r_epik_State_Penalty>
1.44226

> <r_epik_Charging_Adjusted_Penalty>
1.44226

> <i_epik_Tot_Q>
0

> <i_epik_Tot_abs_Q>
0

> <r_epik_Metal_State_Penalty>
1.50267

> <b_epik_Metal_Only>
0

> <s_lp_Force_Field>
OPLS_2005

> <r_lp_Energy>
31.4444

> <b_lp_Chiralities_Consistent>
1

> <s_lp_Variant>
AV-unprocessed.smi:1056-10

> <Gold.Version>
5.8.1

> <Gold.Id.Protein>
6NUR|6NUR_protein|mol2

> <Gold.PLP.Fitness>
60.8540

> <Gold.PLP.PLP>
-54.1697

> <Gold.PLP.part.hbond>
-3.4812

> <Gold.PLP.part.metal>
0.0000

> <Gold.PLP.part.buried>
-4.4216

> <Gold.PLP.part.nonpolar>
-45.6243

> <Gold.PLP.part.repulsive>
0.3889

> <Gold.PLP.ligand.clash>
0.0000

> <Gold.PLP.ligand.torsion>
1.2260

> <Gold.PLP.Chemscore.Hbond>
2.0000

> <Gold.PLP.Chemscore.CHOScore>
1.0064

> <Gold.PLP.Chemscore.Metal>
0.0000

> <Gold.Chemscore.Hbonds>
donor molecule, donor type, donor heavy atom, donor atom, acceptor molecule, acceptor atom, score
      L1  H    10    31       P1  8028  1.00
      P1  H 10752 10765       L1    17  0.98
      L1  C     6    27       P1  8028  0.10
      L1  C     6    27       P1  8029  0.86

> <Gold.PLP.Chemscore.Internal.Correction>
0.1172

> <Gold.Rescore>
     Score         DG    S(hbond)    S(metal)    S(lipo)     H(rot)  DE(clash)    DE(int)     intcor
     19.79     -21.12       1.94        0.00     128.87       2.31       0.06       1.27       ----

> <Gold.Chemscore.Fitness>
19.7866

> <Gold.Chemscore.DG>
-21.1189

> <Gold.Chemscore.ZeroCoef>
-5.4800

> <Gold.Chemscore.Hbond>
1.9420

> <Gold.Chemscore.Metal>
0.0000

> <Gold.Chemscore.Lipo>
128.8717

> <Gold.Chemscore.Internal_Hbond>
0.0000

> <Gold.Chemscore.DEClash>
0.0630

> <Gold.Chemscore.DEInternal>
1.2693

> <Gold.Chemscore.Rot>
2.3147

> <Gold.Chemscore.Internal.Correction>
   9.000000E+99

> <Gold.Chemscore.Hbonds>
donor molecule, donor type, donor heavy atom, donor atom, acceptor molecule, acceptor atom, score
      L1  H    10    31       P1  8028  0.97
      P1  H 10752 10765       L1    17  0.93

> <Gold.Chemscore.Hbond.Weighted>
-6.4864

> <Gold.Chemscore.Metal.Weighted>
-0.0000

> <Gold.Chemscore.Lipo.Weighted>
-15.0780

> <Gold.Chemscore.Internal_Hbond.Weighted>
0.0000

> <Gold.Chemscore.DEClash.Weighted>
0.0630

> <Gold.Chemscore.DEInternal.Weighted>
1.2693

> <Gold.Chemscore.Rot.Weighted>
5.9256

> <Gold.Chemscore.Internal.Correction.Weighted>
   9.000000E+99

> <Gold.Protein.RotatedTorsions>
[ 6907 6896 6895 6894 ] final -165.26 input  -60.11 | X-H torsion
[ 7974 7965 7964 7962 ] final  -95.02 input  175.53 | X-H torsion
[ 8008 7997 7996 7995 ] final   76.26 input   59.86 | X-H torsion
[ 10167 10162 10161 10158 ] final   -6.93 input  -65.29 | X-H torsion
[ 10718 10713 10712 10709 ] final  167.39 input   66.30 | X-H torsion
[ 10763 10752 10751 10750 ] final  168.05 input  -60.55 | X-H torsion
[ 11005 11000 10999 10996 ] final  177.58 input  -57.11 | X-H torsion

> <Gold.Protein.ActiveResidues>
 VAL166  LYS551  ARG553  GLY616  TRP617  ASP618  TYR619  PRO620  LYS621  CYS622 
 ASP623  PHE694  ASN695  SER759  ASP760  ASP761  ALA762  ILE779  LEU786  VAL792 
 PHE793  MET794  SER795  GLU796  ALA797  LYS798  CYS799  TRP800  GLU811  SER814 

> <Gold.Protein.RotatedAtoms>
  151.4248  133.3687  159.2760 H   0  0  0  0  0  0  0  0  0  0  0  0  # atno 6907 bound_to 6896
  150.9267  134.8685  159.7535 H   0  0  0  0  0  0  0  0  0  0  0  0  # atno 6908 bound_to 6896
  152.5008  134.4190  159.9526 H   0  0  0  0  0  0  0  0  0  0  0  0  # atno 6909 bound_to 6896
  145.3656  140.9498  143.2476 H   0  0  0  0  0  0  0  0  0  0  0  0  # atno 7974 bound_to 7965
  155.8247  140.3468  155.5535 H   0  0  0  0  0  0  0  0  0  0  0  0  # atno 8008 bound_to 7997
  155.8305  140.0926  157.1815 H   0  0  0  0  0  0  0  0  0  0  0  0  # atno 8009 bound_to 7997
  154.4004  140.1413  156.3595 H   0  0  0  0  0  0  0  0  0  0  0  0  # atno 8010 bound_to 7997
  140.7013  143.6138  150.8678 H   0  0  0  0  0  0  0  0  0  0  0  0  # atno 10167 bound_to 10162
  157.0522  131.0317  151.2676 H   0  0  0  0  0  0  0  0  0  0  0  0  # atno 10718 bound_to 10713
  154.3628  135.2753  155.2310 H   0  0  0  0  0  0  0  0  0  0  0  0  # atno 10763 bound_to 10752
  154.4491  135.5935  153.6183 H   0  0  0  0  0  0  0  0  0  0  0  0  # atno 10764 bound_to 10752
  152.9842  135.6037  154.3851 H   0  0  0  0  0  0  0  0  0  0  0  0  # atno 10765 bound_to 10752
  140.3857  134.6907  157.4478 H   0  0  0  0  0  0  0  0  0  0  0  0  # atno 11005 bound_to 11000
  144.8614  139.5172  143.6810 LP  0  0  0  0  0  0  0  0  0  0  0  0  # atno 17320 bound_to 7965
  146.2908  139.7134  142.9162 LP  0  0  0  0  0  0  0  0  0  0  0  0  # atno 17321 bound_to 7965
  139.9860  143.5898  152.2926 LP  0  0  0  0  0  0  0  0  0  0  0  0  # atno 17342 bound_to 10162
  139.6537  144.7661  151.2098 LP  0  0  0  0  0  0  0  0  0  0  0  0  # atno 17343 bound_to 10162
  157.5021  130.7886  149.7615 LP  0  0  0  0  0  0  0  0  0  0  0  0  # atno 17370 bound_to 10713
  156.0004  130.3883  150.2629 LP  0  0  0  0  0  0  0  0  0  0  0  0  # atno 17371 bound_to 10713
  140.0444  134.6220  155.8939 LP  0  0  0  0  0  0  0  0  0  0  0  0  # atno 17394 bound_to 11000
  141.1908  133.6569  156.5429 LP  0  0  0  0  0  0  0  0  0  0  0  0  # atno 17395 bound_to 11000

$$$$
