AV-unprocessed.smi:115|AV-procd|sdf|1125|dock10
  -GOLD-   2262018253D 1   1.00000     0.00000
 Structure written by MMmdl.
 55 57  0  0  0  0  0  0  0  0  1 V2000
  154.1185  139.1600  159.1614 C   0  0  0  0  0  0  0  0  0  0  0  0
  153.1710  139.6299  158.2140 O   0  0  0  0  0  0  0  0  0  0  0  0
  151.8364  139.6743  158.7026 C   0  0  0  0  0  0  0  0  0  0  0  0
  150.8085  139.4842  157.5624 C   0  0  2  0  0  0  0  0  0  0  0  0
  149.3800  139.9108  157.9412 C   0  0  0  0  0  0  0  0  0  0  0  0
  150.8391  138.1384  156.9653 N   0  0  0  0  0  0  0  0  0  0  0  0
  151.3419  137.8646  155.6946 C   0  0  0  0  0  0  0  0  0  0  0  0
  151.9044  138.9096  154.7830 C   0  0  0  0  0  0  0  0  0  0  0  0
  151.2278  136.5251  155.4773 C   0  0  0  0  0  0  0  0  0  0  0  0
  150.6188  135.9284  156.6142 C   0  0  0  0  0  0  0  0  0  0  0  0
  150.3199  134.4904  156.8602 C   0  0  0  0  0  0  0  0  0  0  0  0
  149.5770  134.1030  157.7614 O   0  0  0  0  0  0  0  0  0  0  0  0
  150.9865  133.4550  155.9375 C   0  0  0  0  0  0  0  0  0  0  0  0
  149.9981  132.7120  155.1672 N   0  0  0  0  0  0  0  0  0  0  0  0
  150.1004  131.2978  155.1592 C   0  0  0  0  0  0  0  0  0  0  0  0
  150.9879  130.7026  155.7730 O   0  0  0  0  0  0  0  0  0  0  0  0
  149.0826  130.6194  154.3641 C   0  0  0  0  0  0  0  0  0  0  0  0
  149.0896  129.2782  154.2800 F   0  0  0  0  0  0  0  0  0  0  0  0
  148.1319  131.3173  153.7067 C   0  0  0  0  0  0  0  0  0  0  0  0
  148.0520  132.6990  153.7371 N   0  0  0  0  0  0  0  0  0  0  0  0
  146.9712  133.4314  152.9759 C   0  0  1  0  0  0  0  0  0  0  0  0
  147.0477  133.0923  151.4823 C   0  0  0  0  0  0  0  0  0  0  0  0
  145.9693  132.0396  151.3390 C   0  0  0  0  0  0  0  0  0  0  0  0
  144.9468  132.5044  152.3686 C   0  0  0  0  0  0  0  0  0  0  0  0
  145.7234  133.0117  153.4484 O   0  0  0  0  0  0  0  0  0  0  0  0
  149.0092  133.4417  154.4624 C   0  0  0  0  0  0  0  0  0  0  0  0
  148.9830  134.6746  154.4642 O   0  0  0  0  0  0  0  0  0  0  0  0
  150.3552  136.9398  157.5125 C   0  0  0  0  0  0  0  0  0  0  0  0
  149.6831  136.8792  158.8570 C   0  0  0  0  0  0  0  0  0  0  0  0
  155.1095  139.1483  158.7077 H   0  0  0  0  0  0  0  0  0  0  0  0
  153.8960  138.1478  159.4991 H   0  0  0  0  0  0  0  0  0  0  0  0
  154.1594  139.8155  160.0322 H   0  0  0  0  0  0  0  0  0  0  0  0
  151.6959  138.9322  159.4910 H   0  0  0  0  0  0  0  0  0  0  0  0
  151.7116  140.6483  159.1713 H   0  0  0  0  0  0  0  0  0  0  0  0
  151.1164  140.1779  156.7851 H   0  0  0  0  0  0  0  0  0  0  0  0
  149.3634  140.9468  158.2802 H   0  0  0  0  0  0  0  0  0  0  0  0
  148.9542  139.3023  158.7365 H   0  0  0  0  0  0  0  0  0  0  0  0
  148.7131  139.8395  157.0815 H   0  0  0  0  0  0  0  0  0  0  0  0
  152.1539  138.4826  153.8114 H   0  0  0  0  0  0  0  0  0  0  0  0
  152.8155  139.3419  155.1974 H   0  0  0  0  0  0  0  0  0  0  0  0
  151.1854  139.7117  154.6148 H   0  0  0  0  0  0  0  0  0  0  0  0
  151.5613  136.0290  154.5783 H   0  0  0  0  0  0  0  0  0  0  0  0
  151.6925  133.8864  155.2292 H   0  0  0  0  0  0  0  0  0  0  0  0
  151.5761  132.7476  156.5217 H   0  0  0  0  0  0  0  0  0  0  0  0
  147.4081  130.7609  153.1299 H   0  0  0  0  0  0  0  0  0  0  0  0
  147.0983  134.4931  153.1917 H   0  0  0  0  0  0  0  0  0  0  0  0
  146.7896  133.9845  150.9103 H   0  0  0  0  0  0  0  0  0  0  0  0
  148.0408  132.7551  151.1821 H   0  0  0  0  0  0  0  0  0  0  0  0
  145.5611  131.9783  150.3299 H   0  0  0  0  0  0  0  0  0  0  0  0
  146.3604  131.0584  151.6100 H   0  0  0  0  0  0  0  0  0  0  0  0
  144.3361  133.3119  151.9625 H   0  0  0  0  0  0  0  0  0  0  0  0
  144.2821  131.7044  152.6948 H   0  0  0  0  0  0  0  0  0  0  0  0
  148.9602  136.0668  158.9082 H   0  0  0  0  0  0  0  0  0  0  0  0
  149.1151  137.7776  159.0795 H   0  0  0  0  0  0  0  0  0  0  0  0
  150.4150  136.7287  159.6503 H   0  0  0  0  0  0  0  0  0  0  0  0
  1  2  1  0  0  0  0
  1 30  1  0  0  0  0
  1 31  1  0  0  0  0
  1 32  1  0  0  0  0
  2  3  1  0  0  0  0
  3  4  1  0  0  0  0
  3 33  1  0  0  0  0
  3 34  1  0  0  0  0
  4  5  1  0  0  0  0
  4  6  1  0  0  0  0
  4 35  1  0  0  0  0
  5 36  1  0  0  0  0
  5 37  1  0  0  0  0
  5 38  1  0  0  0  0
  6 28  1  0  0  0  0
  6  7  1  0  0  0  0
  7  8  1  0  0  0  0
  7  9  2  0  0  0  0
  8 39  1  0  0  0  0
  8 40  1  0  0  0  0
  8 41  1  0  0  0  0
  9 10  1  0  0  0  0
  9 42  1  0  0  0  0
 10 11  1  0  0  0  0
 10 28  2  0  0  0  0
 11 12  2  0  0  0  0
 11 13  1  0  0  0  0
 13 14  1  0  0  0  0
 13 43  1  0  0  0  0
 13 44  1  0  0  0  0
 14 26  1  0  0  0  0
 14 15  1  0  0  0  0
 15 16  2  0  0  0  0
 15 17  1  0  0  0  0
 17 18  1  0  0  0  0
 17 19  2  0  0  0  0
 19 20  1  0  0  0  0
 19 45  1  0  0  0  0
 20 21  1  0  0  0  0
 20 26  1  0  0  0  0
 21 25  1  0  0  0  0
 21 22  1  0  0  0  0
 21 46  1  0  0  0  0
 22 23  1  0  0  0  0
 22 47  1  0  0  0  0
 22 48  1  0  0  0  0
 23 24  1  0  0  0  0
 23 49  1  0  0  0  0
 23 50  1  0  0  0  0
 24 25  1  0  0  0  0
 24 51  1  0  0  0  0
 24 52  1  0  0  0  0
 26 27  2  0  0  0  0
 28 29  1  0  0  0  0
 29 53  1  0  0  0  0
 29 54  1  0  0  0  0
 29 55  1  0  0  0  0
M  END
> <s_m_source_file>
AV-unprocessed.smi

> <i_m_source_file_index>
115

> <i_lp_mmshare_version>
43012

> <i_f3d_flags>
0

> <s_epik_input>
W0NIM11PW0NIMl1bQ0BIXShbQ0gzXSluMWMoW0NIM10pW2NIXWMoYzFbQ0gzXSlDKD1PKVtDSDJdbjJjKD1PKWMoRilbY0hdbihjMj1PKVtDQEBIXTNbQ0gyXVtDSDJdW0NIMl1PMw==

> <s_epik_cmdline>
J2VwaWtfcHl0aG9uJywgJy1waCcsICc3LjAnLCAnLXRuJywgJzgnLCAnLW1hJywgJzIwMCcsICctbWV0YWxfYmluZGluZycsICctaW1hZScsICc8aW5maWxlLm1hZT4nLCAnLW9tYWUnLCAnPG91dGZpbGUubWFlPic=

> <r_lp_tautomer_probability>
1

> <r_epik_Ionization_Penalty>
5.02611e-09

> <r_epik_Ionization_Penalty_Charging>
5.01743e-09

> <r_epik_Ionization_Penalty_Neutral>
8.68114e-12

> <r_epik_State_Penalty>
-0

> <r_epik_Charging_Adjusted_Penalty>
5.01743e-09

> <i_epik_Tot_Q>
0

> <i_epik_Tot_abs_Q>
0

> <r_epik_Metal_State_Penalty>
-0

> <b_epik_Metal_Only>
0

> <s_epik_Chemistry_Notes>
This compound contains an acetal/aminal-like group ( X-CH(R)-Y where X, Y are N, S, or O) that may be acid/base labile, releasing an aldehyde.

> <s_lp_Force_Field>
OPLS_2005

> <r_lp_Energy>
51.0988

> <b_lp_Chiralities_Consistent>
1

> <s_lp_Variant>
AV-unprocessed.smi:115-3

> <Gold.Version>
5.8.1

> <Gold.Id.Protein>
6NUR|6NUR_protein|mol2

> <Gold.PLP.Fitness>
45.4958

> <Gold.PLP.PLP>
-40.4295

> <Gold.PLP.part.hbond>
-2.0000

> <Gold.PLP.part.metal>
0.0000

> <Gold.PLP.part.buried>
-5.0757

> <Gold.PLP.part.nonpolar>
-34.2848

> <Gold.PLP.part.repulsive>
1.7890

> <Gold.PLP.ligand.clash>
0.0051

> <Gold.PLP.ligand.torsion>
0.6190

> <Gold.PLP.Chemscore.Hbond>
2.0000

> <Gold.PLP.Chemscore.CHOScore>
0.0000

> <Gold.PLP.Chemscore.Metal>
0.0000

> <Gold.Chemscore.Hbonds>
donor molecule, donor type, donor heavy atom, donor atom, acceptor molecule, acceptor atom, score
      P1  H  6896  6908       L1    12  1.00
      P1  H  7997  8010       L1     2  0.85

> <Gold.PLP.Chemscore.Internal.Correction>
0.3094

> <Gold.Rescore>
     Score         DG    S(hbond)    S(metal)    S(lipo)     H(rot)  DE(clash)    DE(int)     intcor
     10.46     -14.70       1.69        0.00      78.52       2.19       0.62       3.62       ----

> <Gold.Chemscore.Fitness>
10.4596

> <Gold.Chemscore.DG>
-14.6996

> <Gold.Chemscore.ZeroCoef>
-5.4800

> <Gold.Chemscore.Hbond>
1.6911

> <Gold.Chemscore.Metal>
0.0000

> <Gold.Chemscore.Lipo>
78.5250

> <Gold.Chemscore.Internal_Hbond>
0.0000

> <Gold.Chemscore.DEClash>
0.6172

> <Gold.Chemscore.DEInternal>
3.6228

> <Gold.Chemscore.Rot>
2.1938

> <Gold.Chemscore.Internal.Correction>
   9.000000E+99

> <Gold.Chemscore.Hbonds>
donor molecule, donor type, donor heavy atom, donor atom, acceptor molecule, acceptor atom, score
      P1  H  6896  6908       L1    12  0.43
      P1  H  7997  8010       L1     2  0.14

> <Gold.Chemscore.Hbond.Weighted>
-5.6482

> <Gold.Chemscore.Metal.Weighted>
-0.0000

> <Gold.Chemscore.Lipo.Weighted>
-9.1874

> <Gold.Chemscore.Internal_Hbond.Weighted>
0.0000

> <Gold.Chemscore.DEClash.Weighted>
0.6172

> <Gold.Chemscore.DEInternal.Weighted>
3.6228

> <Gold.Chemscore.Rot.Weighted>
5.6160

> <Gold.Chemscore.Internal.Correction.Weighted>
   9.000000E+99

> <Gold.Protein.RotatedTorsions>
[ 6907 6896 6895 6894 ] final  120.24 input  -60.11 | X-H torsion
[ 7974 7965 7964 7962 ] final  -32.13 input  175.53 | X-H torsion
[ 8008 7997 7996 7995 ] final   51.16 input   59.86 | X-H torsion
[ 10167 10162 10161 10158 ] final  -48.46 input  -65.29 | X-H torsion
[ 10718 10713 10712 10709 ] final  -47.23 input   66.30 | X-H torsion
[ 10763 10752 10751 10750 ] final -119.74 input  -60.55 | X-H torsion
[ 11005 11000 10999 10996 ] final   99.34 input  -57.11 | X-H torsion

> <Gold.Protein.ActiveResidues>
 VAL166  LYS551  ARG553  GLY616  TRP617  ASP618  TYR619  PRO620  LYS621  CYS622 
 ASP623  PHE694  ASN695  SER759  ASP760  ASP761  ALA762  ILE779  LEU786  VAL792 
 PHE793  MET794  SER795  GLU796  ALA797  LYS798  CYS799  TRP800  GLU811  SER814 

> <Gold.Protein.RotatedAtoms>
  152.4412  133.7452  159.6662 H   0  0  0  0  0  0  0  0  0  0  0  0  # atno 6907 bound_to 6896
  150.8303  133.8091  159.3107 H   0  0  0  0  0  0  0  0  0  0  0  0  # atno 6908 bound_to 6896
  151.5747  135.1063  160.0055 H   0  0  0  0  0  0  0  0  0  0  0  0  # atno 6909 bound_to 6896
  146.1014  140.5754  142.8819 H   0  0  0  0  0  0  0  0  0  0  0  0  # atno 7974 bound_to 7965
  155.4307  140.3450  155.4280 H   0  0  0  0  0  0  0  0  0  0  0  0  # atno 8008 bound_to 7997
  156.1338  140.1522  156.9056 H   0  0  0  0  0  0  0  0  0  0  0  0  # atno 8009 bound_to 7997
  154.4915  140.0840  156.7585 H   0  0  0  0  0  0  0  0  0  0  0  0  # atno 8010 bound_to 7997
  140.6730  143.2739  151.4074 H   0  0  0  0  0  0  0  0  0  0  0  0  # atno 10167 bound_to 10162
  156.2105  130.4160  149.9121 H   0  0  0  0  0  0  0  0  0  0  0  0  # atno 10718 bound_to 10713
  154.8625  135.4228  154.2347 H   0  0  0  0  0  0  0  0  0  0  0  0  # atno 10763 bound_to 10752
  153.3324  135.6989  153.6942 H   0  0  0  0  0  0  0  0  0  0  0  0  # atno 10764 bound_to 10752
  153.5953  135.3547  155.2899 H   0  0  0  0  0  0  0  0  0  0  0  0  # atno 10765 bound_to 10752
  139.8771  134.9091  156.4592 H   0  0  0  0  0  0  0  0  0  0  0  0  # atno 11005 bound_to 11000
  144.7435  140.5007  143.6852 LP  0  0  0  0  0  0  0  0  0  0  0  0  # atno 17320 bound_to 7965
  145.5847  139.1491  143.3215 LP  0  0  0  0  0  0  0  0  0  0  0  0  # atno 17321 bound_to 7965
  139.6007  144.1301  152.2195 LP  0  0  0  0  0  0  0  0  0  0  0  0  # atno 17342 bound_to 10162
  140.0684  144.5799  150.7210 LP  0  0  0  0  0  0  0  0  0  0  0  0  # atno 17343 bound_to 10162
  156.6801  130.8854  151.3574 LP  0  0  0  0  0  0  0  0  0  0  0  0  # atno 17370 bound_to 10713
  157.7036  130.9360  150.0860 LP  0  0  0  0  0  0  0  0  0  0  0  0  # atno 17371 bound_to 10713
  140.8876  133.7871  155.9536 LP  0  0  0  0  0  0  0  0  0  0  0  0  # atno 17394 bound_to 11000
  140.8787  134.2637  157.5155 LP  0  0  0  0  0  0  0  0  0  0  0  0  # atno 17395 bound_to 11000

$$$$
