AV-unprocessed.smi:212|AV-procd|sdf|1621|dock9
  -GOLD-   2262019553D 1   1.00000     0.00000
 Structure written by MMmdl.
 65 68  0  0  0  0  0  0  0  0  2 V2000
  145.1641  134.4794  155.6914 C   0  0  0  0  0  0  0  0  0  0  0  0
  144.7809  134.7704  154.2271 C   0  0  2  0  0  0  0  0  0  0  0  0
  145.8060  134.1974  153.2273 C   0  0  0  0  0  0  0  0  0  0  0  0
  145.3664  134.4277  151.8274 N   0  3  2  0  0  0  0  0  0  0  0  0
  146.2540  133.7868  150.8207 C   0  0  0  0  0  0  0  0  0  0  0  0
  145.8557  132.3220  150.5239 C   0  0  0  0  0  0  0  0  0  0  0  0
  146.0490  131.4559  151.7802 C   0  0  0  0  0  0  0  0  0  0  0  0
  144.4076  132.2030  150.0132 C   0  0  0  0  0  0  0  0  0  0  0  0
  146.7215  131.7969  149.5368 O   0  0  0  0  0  0  0  0  0  0  0  0
  145.1028  135.8631  151.5476 C   0  0  0  0  0  0  0  0  0  0  0  0
  144.1181  136.4667  152.5703 C   0  0  0  0  0  0  0  0  0  0  0  0
  144.5102  136.1853  153.9497 N   0  0  0  0  0  0  0  0  0  0  0  0
  145.3247  137.1054  154.5200 C   0  0  0  0  0  0  0  0  0  0  0  0
  145.4274  137.1857  155.8719 N   0  0  0  0  0  0  0  0  0  0  0  0
  146.2234  138.1043  156.4274 C   0  0  0  0  0  0  0  0  0  0  0  0
  146.9830  139.0223  155.8266 N   0  0  0  0  0  0  0  0  0  0  0  0
  146.8764  138.9486  154.4693 C   0  0  0  0  0  0  0  0  0  0  0  0
  146.0802  138.0212  153.7414 C   0  0  0  0  0  0  0  0  0  0  0  0
  146.2275  138.2316  152.3775 N   0  0  0  0  0  0  0  0  0  0  0  0
  147.0655  139.2293  152.3024 C   0  0  0  0  0  0  0  0  0  0  0  0
  147.4930  139.7358  153.5108 N   0  0  0  0  0  0  0  0  0  0  0  0
  148.4175  140.8444  153.7105 C   0  0  0  0  0  0  0  0  0  0  0  0
  149.7742  140.4399  154.3470 C   0  0  1  0  0  0  0  0  0  0  0  0
  149.8944  141.0042  155.7832 C   0  0  0  0  0  0  0  0  0  0  0  0
  150.2589  142.3686  155.7862 O   0  0  0  0  0  0  0  0  0  0  0  0
  150.0127  138.9055  154.2804 C   0  0  2  0  0  0  0  0  0  0  0  0
  149.5811  138.1127  155.5024 C   0  0  0  0  0  0  0  0  0  0  0  0
  150.3449  136.8033  155.3345 C   0  0  0  0  0  0  0  0  0  0  0  0
  151.5425  137.1407  154.6438 O   0  0  0  0  0  0  0  0  0  0  0  0
  151.4902  138.4994  154.2232 C   0  0  0  0  0  0  0  0  0  0  0  0
  145.2456  133.4061  155.8641 H   0  0  0  0  0  0  0  0  0  0  0  0
  144.4099  134.8627  156.3795 H   0  0  0  0  0  0  0  0  0  0  0  0
  146.1227  134.9254  155.9592 H   0  0  0  0  0  0  0  0  0  0  0  0
  143.8363  134.2536  154.0513 H   0  0  0  0  0  0  0  0  0  0  0  0
  146.7895  134.6440  153.3814 H   0  0  0  0  0  0  0  0  0  0  0  0
  145.9144  133.1252  153.3965 H   0  0  0  0  0  0  0  0  0  0  0  0
  146.2676  134.3747  149.9012 H   0  0  0  0  0  0  0  0  0  0  0  0
  147.2845  133.7942  151.1804 H   0  0  0  0  0  0  0  0  0  0  0  0
  145.4083  131.7939  152.5954 H   0  0  0  0  0  0  0  0  0  0  0  0
  147.0797  131.4931  152.1357 H   0  0  0  0  0  0  0  0  0  0  0  0
  145.8068  130.4103  151.5858 H   0  0  0  0  0  0  0  0  0  0  0  0
  143.7010  132.6079  150.7386 H   0  0  0  0  0  0  0  0  0  0  0  0
  144.1344  131.1622  149.8357 H   0  0  0  0  0  0  0  0  0  0  0  0
  144.2609  132.7397  149.0753 H   0  0  0  0  0  0  0  0  0  0  0  0
  147.4963  131.4606  149.9622 H   0  0  0  0  0  0  0  0  0  0  0  0
  146.0457  136.4104  151.5595 H   0  0  0  0  0  0  0  0  0  0  0  0
  144.6947  135.9776  150.5435 H   0  0  0  0  0  0  0  0  0  0  0  0
  144.0236  137.5425  152.4137 H   0  0  0  0  0  0  0  0  0  0  0  0
  143.1244  136.0464  152.4118 H   0  0  0  0  0  0  0  0  0  0  0  0
  146.2554  138.1061  157.5069 H   0  0  0  0  0  0  0  0  0  0  0  0
  147.3922  139.6292  151.3537 H   0  0  0  0  0  0  0  0  0  0  0  0
  148.5700  141.3471  152.7553 H   0  0  0  0  0  0  0  0  0  0  0  0
  147.9223  141.5773  154.3489 H   0  0  0  0  0  0  0  0  0  0  0  0
  150.5454  140.9222  153.7442 H   0  0  0  0  0  0  0  0  0  0  0  0
  148.9351  140.9389  156.2970 H   0  0  0  0  0  0  0  0  0  0  0  0
  150.6128  140.4321  156.3714 H   0  0  0  0  0  0  0  0  0  0  0  0
  149.4910  142.8851  155.9779 H   0  0  0  0  0  0  0  0  0  0  0  0
  149.4962  138.4894  153.4144 H   0  0  0  0  0  0  0  0  0  0  0  0
  149.9031  138.6155  156.4157 H   0  0  0  0  0  0  0  0  0  0  0  0
  148.5032  137.9582  155.5578 H   0  0  0  0  0  0  0  0  0  0  0  0
  150.5560  136.3202  156.2890 H   0  0  0  0  0  0  0  0  0  0  0  0
  149.7753  136.1056  154.7194 H   0  0  0  0  0  0  0  0  0  0  0  0
  151.9322  138.6150  153.2349 H   0  0  0  0  0  0  0  0  0  0  0  0
  152.0798  139.0953  154.9215 H   0  0  0  0  0  0  0  0  0  0  0  0
  144.4762  133.9583  151.7427 H   0  0  0  0  0  0  0  0  0  0  0  0
  1  2  1  0  0  0  0
  1 31  1  0  0  0  0
  1 32  1  0  0  0  0
  1 33  1  0  0  0  0
  2 12  1  0  0  0  0
  2  3  1  0  0  0  0
  2 34  1  0  0  0  0
  3  4  1  0  0  0  0
  3 35  1  0  0  0  0
  3 36  1  0  0  0  0
  4  5  1  0  0  0  0
  4 10  1  0  0  0  0
  4 65  1  0  0  0  0
  5  6  1  0  0  0  0
  5 37  1  0  0  0  0
  5 38  1  0  0  0  0
  6  7  1  0  0  0  0
  6  8  1  0  0  0  0
  6  9  1  0  0  0  0
  7 39  1  0  0  0  0
  7 40  1  0  0  0  0
  7 41  1  0  0  0  0
  8 42  1  0  0  0  0
  8 43  1  0  0  0  0
  8 44  1  0  0  0  0
  9 45  1  0  0  0  0
 10 11  1  0  0  0  0
 10 46  1  0  0  0  0
 10 47  1  0  0  0  0
 11 12  1  0  0  0  0
 11 48  1  0  0  0  0
 11 49  1  0  0  0  0
 12 13  1  0  0  0  0
 13 18  1  0  0  0  0
 13 14  2  0  0  0  0
 14 15  1  0  0  0  0
 15 16  2  0  0  0  0
 15 50  1  0  0  0  0
 16 17  1  0  0  0  0
 17 21  1  0  0  0  0
 17 18  2  0  0  0  0
 18 19  1  0  0  0  0
 19 20  2  0  0  0  0
 20 21  1  0  0  0  0
 20 51  1  0  0  0  0
 21 22  1  0  0  0  0
 22 23  1  0  0  0  0
 22 52  1  0  0  0  0
 22 53  1  0  0  0  0
 23 24  1  0  0  0  0
 23 26  1  0  0  0  0
 23 54  1  0  0  0  0
 24 25  1  0  0  0  0
 24 55  1  0  0  0  0
 24 56  1  0  0  0  0
 25 57  1  0  0  0  0
 26 30  1  0  0  0  0
 26 27  1  0  0  0  0
 26 58  1  0  0  0  0
 27 28  1  0  0  0  0
 27 59  1  0  0  0  0
 27 60  1  0  0  0  0
 28 29  1  0  0  0  0
 28 61  1  0  0  0  0
 28 62  1  0  0  0  0
 29 30  1  0  0  0  0
 30 63  1  0  0  0  0
 30 64  1  0  0  0  0
M  CHG  1   4   1
M  END
> <s_m_source_file>
AV-unprocessed.smi

> <i_m_source_file_index>
212

> <i_lp_mmshare_version>
43012

> <i_f3d_flags>
0

> <s_epik_input>
W0NIM11bQ0BASF0xW0NIMl1OKFtDSDJdQyhbQ0gzXSkoW0NIM10pW09IXSlbQ0gyXVtDSDJdTjFjKG5bY0hdbjIpYyhjMjMpbltjSF1uM1tDSDJdW0NASF0oW0NIMl1bT0hdKVtDQEBIXTRbQ0gyXVtDSDJdT1tDSDJdNA==

> <s_epik_cmdline>
J2VwaWtfcHl0aG9uJywgJy1waCcsICc3LjAnLCAnLXRuJywgJzgnLCAnLW1hJywgJzIwMCcsICctbWV0YWxfYmluZGluZycsICctaW1hZScsICc8aW5maWxlLm1hZT4nLCAnLW9tYWUnLCAnPG91dGZpbGUubWFlPic=

> <r_lp_tautomer_probability>
1

> <r_epik_Ionization_Penalty>
0.00182193

> <r_epik_Ionization_Penalty_Charging>
0.00173996

> <r_epik_Ionization_Penalty_Neutral>
8.19718e-05

> <r_epik_State_Penalty>
-0

> <r_epik_Charging_Adjusted_Penalty>
0.00173996

> <i_epik_Tot_Q>
1

> <i_epik_Tot_abs_Q>
1

> <r_epik_Metal_State_Penalty>
-0

> <b_epik_Metal_Only>
0

> <s_lp_Force_Field>
OPLS_2005

> <r_lp_Energy>
60.0398

> <b_lp_Chiralities_Consistent>
1

> <s_lp_Variant>
AV-unprocessed.smi:212-5

> <Gold.Version>
5.8.1

> <Gold.Id.Protein>
6NUR|6NUR_protein|mol2

> <Gold.PLP.Fitness>
47.1830

> <Gold.PLP.PLP>
-41.2174

> <Gold.PLP.part.hbond>
-2.9800

> <Gold.PLP.part.metal>
0.0000

> <Gold.PLP.part.buried>
-2.3147

> <Gold.PLP.part.nonpolar>
-35.3676

> <Gold.PLP.part.repulsive>
0.4904

> <Gold.PLP.ligand.clash>
0.9024

> <Gold.PLP.ligand.torsion>
2.3289

> <Gold.PLP.Chemscore.Hbond>
2.6439

> <Gold.PLP.Chemscore.CHOScore>
0.8094

> <Gold.PLP.Chemscore.Metal>
0.0000

> <Gold.Chemscore.Hbonds>
donor molecule, donor type, donor heavy atom, donor atom, acceptor molecule, acceptor atom, score
      L1  H     9    45       P1 10747  1.00
      L1  H    25    57       P1  8028  0.74
      P1  H 10752 10765       L1    29  0.94
      L1  C    20    51       P1  7957  0.75

> <Gold.PLP.Chemscore.Internal.Correction>
1.1661

> <Gold.Rescore>
     Score         DG    S(hbond)    S(metal)    S(lipo)     H(rot)  DE(clash)    DE(int)     intcor
      6.96     -15.68       2.56        0.00      94.71       3.68       0.37       8.35       ----

> <Gold.Chemscore.Fitness>
6.9623

> <Gold.Chemscore.DG>
-15.6778

> <Gold.Chemscore.ZeroCoef>
-5.4800

> <Gold.Chemscore.Hbond>
2.5571

> <Gold.Chemscore.Metal>
0.0000

> <Gold.Chemscore.Lipo>
94.7086

> <Gold.Chemscore.Internal_Hbond>
0.0000

> <Gold.Chemscore.DEClash>
0.3703

> <Gold.Chemscore.DEInternal>
8.3451

> <Gold.Chemscore.Rot>
3.6812

> <Gold.Chemscore.Internal.Correction>
   9.000000E+99

> <Gold.Chemscore.Hbonds>
donor molecule, donor type, donor heavy atom, donor atom, acceptor molecule, acceptor atom, score
      L1  H     9    45       P1 10747  0.99
      L1  H    25    57       P1  8028  0.73
      P1  H 10752 10765       L1    29  0.84

> <Gold.Chemscore.Hbond.Weighted>
-8.5408

> <Gold.Chemscore.Metal.Weighted>
-0.0000

> <Gold.Chemscore.Lipo.Weighted>
-11.0809

> <Gold.Chemscore.Internal_Hbond.Weighted>
0.0000

> <Gold.Chemscore.DEClash.Weighted>
0.3703

> <Gold.Chemscore.DEInternal.Weighted>
8.3451

> <Gold.Chemscore.Rot.Weighted>
9.4239

> <Gold.Chemscore.Internal.Correction.Weighted>
   9.000000E+99

> <Gold.Protein.RotatedTorsions>
[ 6907 6896 6895 6894 ] final   -6.83 input  -60.11 | X-H torsion
[ 7974 7965 7964 7962 ] final   11.99 input  175.53 | X-H torsion
[ 8008 7997 7996 7995 ] final -134.71 input   59.86 | X-H torsion
[ 10167 10162 10161 10158 ] final  124.07 input  -65.29 | X-H torsion
[ 10718 10713 10712 10709 ] final  172.80 input   66.30 | X-H torsion
[ 10763 10752 10751 10750 ] final  168.44 input  -60.55 | X-H torsion
[ 11005 11000 10999 10996 ] final -147.67 input  -57.11 | X-H torsion

> <Gold.Protein.ActiveResidues>
 VAL166  LYS551  ARG553  GLY616  TRP617  ASP618  TYR619  PRO620  LYS621  CYS622 
 ASP623  PHE694  ASN695  SER759  ASP760  ASP761  ALA762  ILE779  LEU786  VAL792 
 PHE793  MET794  SER795  GLU796  ALA797  LYS798  CYS799  TRP800  GLU811  SER814 

> <Gold.Protein.RotatedAtoms>
  151.4593  135.1037  159.9719 H   0  0  0  0  0  0  0  0  0  0  0  0  # atno 6907 bound_to 6896
  152.4859  133.8368  159.7142 H   0  0  0  0  0  0  0  0  0  0  0  0  # atno 6908 bound_to 6896
  150.8968  133.7110  159.2916 H   0  0  0  0  0  0  0  0  0  0  0  0  # atno 6909 bound_to 6896
  146.2360  139.9404  142.8484 H   0  0  0  0  0  0  0  0  0  0  0  0  # atno 7974 bound_to 7965
  155.3666  140.0486  157.3046 H   0  0  0  0  0  0  0  0  0  0  0  0  # atno 8008 bound_to 7997
  154.5151  140.2205  155.9045 H   0  0  0  0  0  0  0  0  0  0  0  0  # atno 8009 bound_to 7997
  156.1627  140.3113  155.8840 H   0  0  0  0  0  0  0  0  0  0  0  0  # atno 8010 bound_to 7997
  139.5763  144.6965  151.3646 H   0  0  0  0  0  0  0  0  0  0  0  0  # atno 10167 bound_to 10162
  156.9736  131.0097  151.2899 H   0  0  0  0  0  0  0  0  0  0  0  0  # atno 10718 bound_to 10713
  154.3687  135.2753  155.2279 H   0  0  0  0  0  0  0  0  0  0  0  0  # atno 10763 bound_to 10752
  154.4436  135.5948  153.6149 H   0  0  0  0  0  0  0  0  0  0  0  0  # atno 10764 bound_to 10752
  152.9839  135.6024  154.3915 H   0  0  0  0  0  0  0  0  0  0  0  0  # atno 10765 bound_to 10752
  140.7692  134.3208  157.5080 H   0  0  0  0  0  0  0  0  0  0  0  0  # atno 11005 bound_to 11000
  145.1958  140.9832  143.4184 LP  0  0  0  0  0  0  0  0  0  0  0  0  # atno 17320 bound_to 7965
  144.9817  139.3777  143.6259 LP  0  0  0  0  0  0  0  0  0  0  0  0  # atno 17321 bound_to 7965
  140.7045  143.7549  150.7458 LP  0  0  0  0  0  0  0  0  0  0  0  0  # atno 17342 bound_to 10162
  140.1069  143.4735  152.2393 LP  0  0  0  0  0  0  0  0  0  0  0  0  # atno 17343 bound_to 10162
  157.5575  130.8224  149.8223 LP  0  0  0  0  0  0  0  0  0  0  0  0  # atno 17370 bound_to 10713
  156.0273  130.3775  150.1787 LP  0  0  0  0  0  0  0  0  0  0  0  0  # atno 17371 bound_to 10713
  139.8758  134.9250  156.3365 LP  0  0  0  0  0  0  0  0  0  0  0  0  # atno 17394 bound_to 11000
  140.9590  133.7401  156.0374 LP  0  0  0  0  0  0  0  0  0  0  0  0  # atno 17395 bound_to 11000

$$$$
