AV-unprocessed.smi:1884|AV-procd|sdf|7646|dock3
  -GOLD-   22720 9373D 1   1.00000     0.00000
 Structure written by MMmdl.
 40 42  0  0  0  0  0  0  0  0  1 V2000
  152.4220  139.3516  157.5261 C   0  0  0  0  0  0  0  0  0  0  0  0
  152.3204  140.6041  158.3371 C   0  0  0  0  0  0  0  0  0  0  0  0
  151.7429  141.7103  157.8680 N   0  0  0  0  0  0  0  0  0  0  0  0
  151.8802  142.5936  158.9216 C   0  0  0  0  0  0  0  0  0  0  0  0
  151.4709  143.9402  159.0506 C   0  0  0  0  0  0  0  0  0  0  0  0
  151.7244  144.6526  160.2410 C   0  0  0  0  0  0  0  0  0  0  0  0
  152.3891  144.0302  161.3176 C   0  0  0  0  0  0  0  0  0  0  0  0
  152.8044  142.6890  161.2105 C   0  0  0  0  0  0  0  0  0  0  0  0
  152.5494  141.9823  160.0198 C   0  0  0  0  0  0  0  0  0  0  0  0
  152.8150  140.6832  159.5967 N   0  0  0  0  0  0  0  0  0  0  0  0
  153.4886  139.6423  160.3617 C   0  0  0  0  0  0  0  0  0  0  0  0
  155.0255  139.7292  160.2640 C   0  0  2  0  0  0  0  0  0  0  0  0
  155.4450  139.4037  158.9538 O   0  0  0  0  0  0  0  0  0  0  0  0
  155.7307  138.7808  161.2444 C   0  0  0  0  0  0  0  0  0  0  0  0
  155.0224  138.7737  162.4769 O   0  0  0  0  0  0  0  0  0  0  0  0
  154.8189  137.5633  163.1045 C   0  0  0  0  0  0  0  0  0  0  0  0
  154.1951  137.5944  164.3687 C   0  0  0  0  0  0  0  0  0  0  0  0
  153.9493  136.4055  165.0823 C   0  0  0  0  0  0  0  0  0  0  0  0
  154.3285  135.1640  164.5352 C   0  0  0  0  0  0  0  0  0  0  0  0
  154.0794  133.9350  165.2699 C   0  0  0  0  0  0  0  0  0  0  0  0
  153.8809  132.9568  165.8550 N   0  0  0  0  0  0  0  0  0  0  0  0
  154.9512  135.1191  163.2723 C   0  0  0  0  0  0  0  0  0  0  0  0
  155.1960  136.3094  162.5601 C   0  0  0  0  0  0  0  0  0  0  0  0
  151.9413  139.4847  156.5563 H   0  0  0  0  0  0  0  0  0  0  0  0
  151.9327  138.5245  158.0399 H   0  0  0  0  0  0  0  0  0  0  0  0
  153.4679  139.0952  157.3571 H   0  0  0  0  0  0  0  0  0  0  0  0
  150.9606  144.4260  158.2320 H   0  0  0  0  0  0  0  0  0  0  0  0
  151.4078  145.6817  160.3285 H   0  0  0  0  0  0  0  0  0  0  0  0
  152.5793  144.5831  162.2258 H   0  0  0  0  0  0  0  0  0  0  0  0
  153.3108  142.2091  162.0349 H   0  0  0  0  0  0  0  0  0  0  0  0
  153.1690  139.7096  161.4017 H   0  0  0  0  0  0  0  0  0  0  0  0
  153.1422  138.6717  160.0045 H   0  0  0  0  0  0  0  0  0  0  0  0
  155.3514  140.7501  160.4649 H   0  0  0  0  0  0  0  0  0  0  0  0
  156.3463  139.1210  158.9902 H   0  0  0  0  0  0  0  0  0  0  0  0
  155.7813  137.7754  160.8224 H   0  0  0  0  0  0  0  0  0  0  0  0
  156.7512  139.1275  161.4168 H   0  0  0  0  0  0  0  0  0  0  0  0
  153.9009  138.5415  164.7966 H   0  0  0  0  0  0  0  0  0  0  0  0
  153.4695  136.4537  166.0495 H   0  0  0  0  0  0  0  0  0  0  0  0
  155.2456  134.1724  162.8421 H   0  0  0  0  0  0  0  0  0  0  0  0
  155.6768  136.2323  161.5968 H   0  0  0  0  0  0  0  0  0  0  0  0
  1  2  1  0  0  0  0
  1 24  1  0  0  0  0
  1 25  1  0  0  0  0
  1 26  1  0  0  0  0
  2 10  1  0  0  0  0
  2  3  2  0  0  0  0
  3  4  1  0  0  0  0
  4  9  2  0  0  0  0
  4  5  1  0  0  0  0
  5  6  2  0  0  0  0
  5 27  1  0  0  0  0
  6  7  1  0  0  0  0
  6 28  1  0  0  0  0
  7  8  2  0  0  0  0
  7 29  1  0  0  0  0
  8  9  1  0  0  0  0
  8 30  1  0  0  0  0
  9 10  1  0  0  0  0
 10 11  1  0  0  0  0
 11 12  1  0  0  0  0
 11 31  1  0  0  0  0
 11 32  1  0  0  0  0
 12 13  1  0  0  0  0
 12 14  1  0  0  0  0
 12 33  1  0  0  0  0
 13 34  1  0  0  0  0
 14 15  1  0  0  0  0
 14 35  1  0  0  0  0
 14 36  1  0  0  0  0
 15 16  1  0  0  0  0
 16 23  1  0  0  0  0
 16 17  2  0  0  0  0
 17 18  1  0  0  0  0
 17 37  1  0  0  0  0
 18 19  2  0  0  0  0
 18 38  1  0  0  0  0
 19 20  1  0  0  0  0
 19 22  1  0  0  0  0
 20 21  3  0  0  0  0
 22 23  2  0  0  0  0
 22 39  1  0  0  0  0
 23 40  1  0  0  0  0
M  END
> <s_m_source_file>
AV-unprocessed.smi

> <i_m_source_file_index>
1884

> <i_lp_mmshare_version>
43012

> <i_f3d_flags>
0

> <s_epik_input>
W2NIXTFbY0hdW2NIXVtjSF1jKGMxMiluKGMobjIpW0NIM10pW0NIMl1bQ0BIXShbT0hdKVtDSDJdT2MzW2NIXVtjSF1jKEMjTilbY0hdW2NIXTM=

> <s_epik_cmdline>
J2VwaWtfcHl0aG9uJywgJy1waCcsICc3LjAnLCAnLXRuJywgJzgnLCAnLW1hJywgJzIwMCcsICctbWV0YWxfYmluZGluZycsICctaW1hZScsICc8aW5maWxlLm1hZT4nLCAnLW9tYWUnLCAnPG91dGZpbGUubWFlPic=

> <r_epik_Ionization_Penalty>
0.110799

> <r_epik_Ionization_Penalty_Charging>
0

> <r_epik_Ionization_Penalty_Neutral>
0.110799

> <r_epik_State_Penalty>
0.100537

> <r_epik_Charging_Adjusted_Penalty>
0.100537

> <i_epik_Tot_Q>
0

> <i_epik_Tot_abs_Q>
0

> <r_epik_Metal_State_Penalty>
0.000109561

> <b_epik_Metal_Only>
0

> <s_lp_Force_Field>
OPLS_2005

> <r_lp_Energy>
14.1942

> <b_lp_Chiralities_Consistent>
1

> <s_lp_Variant>
AV-unprocessed.smi:1884-1

> <Gold.Version>
5.8.1

> <Gold.Id.Protein>
6NUR|6NUR_protein|mol2

> <Gold.PLP.Fitness>
49.9964

> <Gold.PLP.PLP>
-48.6729

> <Gold.PLP.part.hbond>
-1.0000

> <Gold.PLP.part.metal>
0.0000

> <Gold.PLP.part.buried>
-3.9423

> <Gold.PLP.part.nonpolar>
-43.6481

> <Gold.PLP.part.repulsive>
0.0845

> <Gold.PLP.ligand.clash>
0.0000

> <Gold.PLP.ligand.torsion>
0.8937

> <Gold.PLP.Chemscore.Hbond>
0.9920

> <Gold.PLP.Chemscore.CHOScore>
0.0000

> <Gold.PLP.Chemscore.Metal>
0.0000

> <Gold.Chemscore.Hbonds>
donor molecule, donor type, donor heavy atom, donor atom, acceptor molecule, acceptor atom, score
      P1  H  7997  8010       L1    13  0.99

> <Gold.PLP.Chemscore.Internal.Correction>
0.1349

> <Gold.Rescore>
     Score         DG    S(hbond)    S(metal)    S(lipo)     H(rot)  DE(clash)    DE(int)     intcor
     17.21     -18.27       0.87        0.00     135.11       2.31       0.23       0.83       ----

> <Gold.Chemscore.Fitness>
17.2089

> <Gold.Chemscore.DG>
-18.2675

> <Gold.Chemscore.ZeroCoef>
-5.4800

> <Gold.Chemscore.Hbond>
0.8663

> <Gold.Chemscore.Metal>
0.0000

> <Gold.Chemscore.Lipo>
135.1114

> <Gold.Chemscore.Internal_Hbond>
0.0000

> <Gold.Chemscore.DEClash>
0.2272

> <Gold.Chemscore.DEInternal>
0.8314

> <Gold.Chemscore.Rot>
2.3102

> <Gold.Chemscore.Internal.Correction>
   9.000000E+99

> <Gold.Chemscore.Hbonds>
donor molecule, donor type, donor heavy atom, donor atom, acceptor molecule, acceptor atom, score
      P1  H  7997  8010       L1    13  0.70

> <Gold.Chemscore.Hbond.Weighted>
-2.8936

> <Gold.Chemscore.Metal.Weighted>
-0.0000

> <Gold.Chemscore.Lipo.Weighted>
-15.8080

> <Gold.Chemscore.Internal_Hbond.Weighted>
0.0000

> <Gold.Chemscore.DEClash.Weighted>
0.2272

> <Gold.Chemscore.DEInternal.Weighted>
0.8314

> <Gold.Chemscore.Rot.Weighted>
5.9141

> <Gold.Chemscore.Internal.Correction.Weighted>
   9.000000E+99

> <Gold.Protein.RotatedTorsions>
[ 6907 6896 6895 6894 ] final -139.46 input  -60.11 | X-H torsion
[ 7974 7965 7964 7962 ] final  153.58 input  175.53 | X-H torsion
[ 8008 7997 7996 7995 ] final    5.09 input   59.86 | X-H torsion
[ 10167 10162 10161 10158 ] final -139.11 input  -65.29 | X-H torsion
[ 10718 10713 10712 10709 ] final  159.84 input   66.30 | X-H torsion
[ 10763 10752 10751 10750 ] final -131.56 input  -60.55 | X-H torsion
[ 11005 11000 10999 10996 ] final -104.60 input  -57.11 | X-H torsion

> <Gold.Protein.ActiveResidues>
 VAL166  LYS551  ARG553  GLY616  TRP617  ASP618  TYR619  PRO620  LYS621  CYS622 
 ASP623  PHE694  ASN695  SER759  ASP760  ASP761  ALA762  ILE779  LEU786  VAL792 
 PHE793  MET794  SER795  GLU796  ALA797  LYS798  CYS799  TRP800  GLU811  SER814 

> <Gold.Protein.RotatedAtoms>
  151.0480  133.5648  159.2644 H   0  0  0  0  0  0  0  0  0  0  0  0  # atno 6907 bound_to 6896
  151.2670  135.0671  159.9129 H   0  0  0  0  0  0  0  0  0  0  0  0  # atno 6908 bound_to 6896
  152.5377  134.0217  159.8038 H   0  0  0  0  0  0  0  0  0  0  0  0  # atno 6909 bound_to 6896
  144.8145  139.6819  143.6127 H   0  0  0  0  0  0  0  0  0  0  0  0  # atno 7974 bound_to 7965
  154.7241  140.2717  155.6515 H   0  0  0  0  0  0  0  0  0  0  0  0  # atno 8008 bound_to 7997
  156.2832  140.2728  156.1846 H   0  0  0  0  0  0  0  0  0  0  0  0  # atno 8009 bound_to 7997
  155.0468  140.0371  157.2519 H   0  0  0  0  0  0  0  0  0  0  0  0  # atno 8010 bound_to 7997
  139.8412  143.7320  152.2663 H   0  0  0  0  0  0  0  0  0  0  0  0  # atno 10167 bound_to 10162
  157.1587  131.0582  151.2243 H   0  0  0  0  0  0  0  0  0  0  0  0  # atno 10718 bound_to 10713
  154.8750  135.3826  154.4266 H   0  0  0  0  0  0  0  0  0  0  0  0  # atno 10763 bound_to 10752
  153.4964  135.7030  153.5861 H   0  0  0  0  0  0  0  0  0  0  0  0  # atno 10764 bound_to 10752
  153.4212  135.3901  155.2079 H   0  0  0  0  0  0  0  0  0  0  0  0  # atno 10765 bound_to 10752
  141.1093  133.8737  157.1631 H   0  0  0  0  0  0  0  0  0  0  0  0  # atno 11005 bound_to 11000
  146.2447  139.6073  142.9468 LP  0  0  0  0  0  0  0  0  0  0  0  0  # atno 17320 bound_to 7965
  145.5246  141.0430  143.2416 LP  0  0  0  0  0  0  0  0  0  0  0  0  # atno 17321 bound_to 7965
  139.7557  144.7521  151.0439 LP  0  0  0  0  0  0  0  0  0  0  0  0  # atno 17342 bound_to 10162
  140.7798  143.4808  151.0021 LP  0  0  0  0  0  0  0  0  0  0  0  0  # atno 17343 bound_to 10162
  157.4153  130.7407  149.6871 LP  0  0  0  0  0  0  0  0  0  0  0  0  # atno 17370 bound_to 10713
  155.9757  130.4084  150.3827 LP  0  0  0  0  0  0  0  0  0  0  0  0  # atno 17371 bound_to 10713
  139.9978  135.0040  157.0122 LP  0  0  0  0  0  0  0  0  0  0  0  0  # atno 17394 bound_to 11000
  140.4819  134.1281  155.7218 LP  0  0  0  0  0  0  0  0  0  0  0  0  # atno 17395 bound_to 11000

$$$$
