AV-unprocessed.smi:2557|AV-procd|sdf|10031|dock2
  -GOLD-   2272014 73D 1   1.00000     0.00000
 Structure written by MMmdl.
 39 41  0  0  0  0  0  0  0  0  3 V2000
  150.7761  136.2538  158.3369 O   0  5  0  0  0  0  0  0  0  0  0  0
  150.4240  136.3302  157.1364 C   0  0  0  0  0  0  0  0  0  0  0  0
  149.9098  135.3893  156.2417 C   0  0  0  0  0  0  0  0  0  0  0  0
  149.6686  134.0108  156.6850 C   0  0  0  0  0  0  0  0  0  0  0  0
  149.8521  133.5440  157.8080 O   0  0  0  0  0  0  0  0  0  0  0  0
  149.1661  133.1302  155.6779 N   0  0  0  0  0  0  0  0  0  0  0  0
  148.9276  133.5362  154.4154 C   0  0  0  0  0  0  0  0  0  0  0  0
  148.4101  132.5259  153.4320 C   0  0  0  0  0  0  0  0  0  0  0  0
  147.0832  133.0183  152.8239 C   0  0  0  0  0  0  0  0  0  0  0  0
  146.5066  131.9815  151.8459 C   0  0  0  0  0  0  0  0  0  0  0  0
  146.3326  130.6118  152.5239 C   0  0  0  0  0  0  0  0  0  0  0  0
  147.6523  130.1218  153.1433 C   0  0  0  0  0  0  0  0  0  0  0  0
  148.2265  131.1595  154.1213 C   0  0  0  0  0  0  0  0  0  0  0  0
  149.1412  134.8056  154.0174 N   0  3  0  0  0  0  0  0  0  0  0  0
  149.6012  135.7488  154.9306 N   0  0  0  0  0  0  0  0  0  0  0  0
  150.6803  137.6990  156.6525 C   0  0  0  0  0  0  0  0  0  0  0  0
  150.0346  138.8077  157.2416 C   0  0  0  0  0  0  0  0  0  0  0  0
  150.3040  140.0947  156.7363 C   0  0  0  0  0  0  0  0  0  0  0  0
  151.1533  140.3274  155.7129 N   0  0  0  0  0  0  0  0  0  0  0  0
  151.7634  139.2638  155.1474 C   0  0  0  0  0  0  0  0  0  0  0  0
  151.5614  137.9371  155.5754 C   0  0  0  0  0  0  0  0  0  0  0  0
  149.1395  132.4118  152.6277 H   0  0  0  0  0  0  0  0  0  0  0  0
  146.3564  133.2104  153.6135 H   0  0  0  0  0  0  0  0  0  0  0  0
  147.2416  133.9676  152.3116 H   0  0  0  0  0  0  0  0  0  0  0  0
  145.5490  132.3285  151.4570 H   0  0  0  0  0  0  0  0  0  0  0  0
  147.1708  131.8810  150.9864 H   0  0  0  0  0  0  0  0  0  0  0  0
  145.5693  130.6832  153.3000 H   0  0  0  0  0  0  0  0  0  0  0  0
  145.9687  129.8823  151.7998 H   0  0  0  0  0  0  0  0  0  0  0  0
  147.4927  129.1739  153.6581 H   0  0  0  0  0  0  0  0  0  0  0  0
  148.3766  129.9252  152.3518 H   0  0  0  0  0  0  0  0  0  0  0  0
  149.1822  130.8130  154.5152 H   0  0  0  0  0  0  0  0  0  0  0  0
  147.5552  131.2535  154.9753 H   0  0  0  0  0  0  0  0  0  0  0  0
  148.9564  135.0808  153.0629 H   0  0  0  0  0  0  0  0  0  0  0  0
  149.8140  136.6522  154.5310 H   0  0  0  0  0  0  0  0  0  0  0  0
  149.3450  138.6720  158.0615 H   0  0  0  0  0  0  0  0  0  0  0  0
  149.8253  140.9614  157.1672 H   0  0  0  0  0  0  0  0  0  0  0  0
  152.4349  139.4765  154.3288 H   0  0  0  0  0  0  0  0  0  0  0  0
  152.0725  137.1188  155.0897 H   0  0  0  0  0  0  0  0  0  0  0  0
  148.9668  132.1583  155.8640 H   0  0  0  0  0  0  0  0  0  0  0  0
  1  2  1  0  0  0  0
  2  3  2  0  0  0  0
  2 16  1  0  0  0  0
  3 15  1  0  0  0  0
  3  4  1  0  0  0  0
  4  5  2  0  0  0  0
  4  6  1  0  0  0  0
  6  7  1  0  0  0  0
  6 39  1  0  0  0  0
  7  8  1  0  0  0  0
  7 14  2  0  0  0  0
  8 13  1  0  0  0  0
  8  9  1  0  0  0  0
  8 22  1  0  0  0  0
  9 10  1  0  0  0  0
  9 23  1  0  0  0  0
  9 24  1  0  0  0  0
 10 11  1  0  0  0  0
 10 25  1  0  0  0  0
 10 26  1  0  0  0  0
 11 12  1  0  0  0  0
 11 27  1  0  0  0  0
 11 28  1  0  0  0  0
 12 13  1  0  0  0  0
 12 29  1  0  0  0  0
 12 30  1  0  0  0  0
 13 31  1  0  0  0  0
 13 32  1  0  0  0  0
 14 15  1  0  0  0  0
 14 33  1  0  0  0  0
 15 34  1  0  0  0  0
 16 21  1  0  0  0  0
 16 17  2  0  0  0  0
 17 18  1  0  0  0  0
 17 35  1  0  0  0  0
 18 19  2  0  0  0  0
 18 36  1  0  0  0  0
 19 20  1  0  0  0  0
 20 21  2  0  0  0  0
 20 37  1  0  0  0  0
 21 38  1  0  0  0  0
M  CHG  1   1  -1
M  CHG  1  14   1
M  END
> <s_m_source_file>
AV-unprocessed.smi

> <i_m_source_file_index>
2557

> <i_lp_mmshare_version>
43012

> <i_f3d_flags>
0

> <s_epik_input>
W2NIXTFbY0hdbltjSF1bY0hdYzFDKD1PKUMyPUMoW09IXSlOPUMoW05IXVtOSF0yKVtDSF0zW0NIMl1bQ0gyXVtDSDJdW0NIMl1bQ0gyXTM=

> <s_epik_cmdline>
J2VwaWtfcHl0aG9uJywgJy1waCcsICc3LjAnLCAnLXRuJywgJzgnLCAnLW1hJywgJzIwMCcsICctbWV0YWxfYmluZGluZycsICctaW1hZScsICc8aW5maWxlLm1hZT4nLCAnLW9tYWUnLCAnPG91dGZpbGUubWFlPic=

> <r_epik_Ionization_Penalty>
2.4889

> <r_epik_Ionization_Penalty_Charging>
1.64109

> <r_epik_Ionization_Penalty_Neutral>
0.84781

> <r_epik_State_Penalty>
2.44612

> <r_epik_Charging_Adjusted_Penalty>
4.08721

> <i_epik_Tot_Q>
0

> <i_epik_Tot_abs_Q>
2

> <r_epik_Metal_State_Penalty>
1.55557

> <b_epik_Metal_Only>
0

> <s_epik_Chemistry_Notes>
This compound has an imine and may undergo hydrolysis.

> <s_lp_Force_Field>
OPLS_2005

> <r_lp_Energy>
23.4412

> <b_lp_Chiralities_Consistent>
1

> <s_lp_Variant>
AV-unprocessed.smi:2557-5

> <Gold.Version>
5.8.1

> <Gold.Id.Protein>
6NUR|6NUR_protein|mol2

> <Gold.PLP.Fitness>
37.0996

> <Gold.PLP.PLP>
-26.8354

> <Gold.PLP.part.hbond>
-4.0558

> <Gold.PLP.part.metal>
0.0000

> <Gold.PLP.part.buried>
-2.5056

> <Gold.PLP.part.nonpolar>
-20.7715

> <Gold.PLP.part.repulsive>
0.0559

> <Gold.PLP.ligand.clash>
2.4674

> <Gold.PLP.ligand.torsion>
1.1375

> <Gold.PLP.Chemscore.Hbond>
4.2560

> <Gold.PLP.Chemscore.CHOScore>
0.0000

> <Gold.PLP.Chemscore.Metal>
0.0000

> <Gold.Chemscore.Hbonds>
donor molecule, donor type, donor heavy atom, donor atom, acceptor molecule, acceptor atom, score
      L1  H    14    33       P1  7948  1.90
      P1  H  6896  6907       L1     1  1.38
      P1  H  6896  6909       L1     5  0.85

> <Gold.PLP.Chemscore.Internal.Correction>
2.2386

> <Gold.Rescore>
     Score         DG    S(hbond)    S(metal)    S(lipo)     H(rot)  DE(clash)    DE(int)     intcor
     16.10     -18.25       2.47        0.00      60.52       1.00       0.00       2.14       ----

> <Gold.Chemscore.Fitness>
16.1005

> <Gold.Chemscore.DG>
-18.2484

> <Gold.Chemscore.ZeroCoef>
-5.4800

> <Gold.Chemscore.Hbond>
2.4694

> <Gold.Chemscore.Metal>
0.0000

> <Gold.Chemscore.Lipo>
60.5185

> <Gold.Chemscore.Internal_Hbond>
0.0000

> <Gold.Chemscore.DEClash>
0.0038

> <Gold.Chemscore.DEInternal>
2.1442

> <Gold.Chemscore.Rot>
1.0000

> <Gold.Chemscore.Internal.Correction>
   9.000000E+99

> <Gold.Chemscore.Hbonds>
donor molecule, donor type, donor heavy atom, donor atom, acceptor molecule, acceptor atom, score
      L1  H    14    33       P1  7948  0.20
      P1  H  6896  6907       L1     1  0.70
      P1  H  6896  6909       L1     5  0.83

> <Gold.Chemscore.Hbond.Weighted>
-8.2478

> <Gold.Chemscore.Metal.Weighted>
-0.0000

> <Gold.Chemscore.Lipo.Weighted>
-7.0807

> <Gold.Chemscore.Internal_Hbond.Weighted>
0.0000

> <Gold.Chemscore.DEClash.Weighted>
0.0038

> <Gold.Chemscore.DEInternal.Weighted>
2.1442

> <Gold.Chemscore.Rot.Weighted>
2.5600

> <Gold.Chemscore.Internal.Correction.Weighted>
   9.000000E+99

> <Gold.Protein.RotatedTorsions>
[ 6907 6896 6895 6894 ] final  -25.07 input  -60.11 | X-H torsion
[ 7974 7965 7964 7962 ] final   58.07 input  175.53 | X-H torsion
[ 8008 7997 7996 7995 ] final -130.86 input   59.86 | X-H torsion
[ 10167 10162 10161 10158 ] final  155.57 input  -65.29 | X-H torsion
[ 10718 10713 10712 10709 ] final    3.68 input   66.30 | X-H torsion
[ 10763 10752 10751 10750 ] final  -43.59 input  -60.55 | X-H torsion
[ 11005 11000 10999 10996 ] final   21.15 input  -57.11 | X-H torsion

> <Gold.Protein.ActiveResidues>
 VAL166  LYS551  ARG553  GLY616  TRP617  ASP618  TYR619  PRO620  LYS621  CYS622 
 ASP623  PHE694  ASN695  SER759  ASP760  ASP761  ALA762  ILE779  LEU786  VAL792 
 PHE793  MET794  SER795  GLU796  ALA797  LYS798  CYS799  TRP800  GLU811  SER814 

> <Gold.Protein.RotatedAtoms>
  151.1805  135.0358  159.8789 H   0  0  0  0  0  0  0  0  0  0  0  0  # atno 6907 bound_to 6896
  152.5445  134.1069  159.8352 H   0  0  0  0  0  0  0  0  0  0  0  0  # atno 6908 bound_to 6896
  151.1185  133.5074  159.2635 H   0  0  0  0  0  0  0  0  0  0  0  0  # atno 6909 bound_to 6896
  145.9222  139.3739  143.0471 H   0  0  0  0  0  0  0  0  0  0  0  0  # atno 7974 bound_to 7965
  155.3028  140.0453  157.3030 H   0  0  0  0  0  0  0  0  0  0  0  0  # atno 8008 bound_to 7997
  154.5477  140.2307  155.8503 H   0  0  0  0  0  0  0  0  0  0  0  0  # atno 8009 bound_to 7997
  156.1939  140.3043  155.9394 H   0  0  0  0  0  0  0  0  0  0  0  0  # atno 8010 bound_to 7997
  139.4821  144.5086  151.8059 H   0  0  0  0  0  0  0  0  0  0  0  0  # atno 10167 bound_to 10162
  156.8814  130.5655  149.5653 H   0  0  0  0  0  0  0  0  0  0  0  0  # atno 10718 bound_to 10713
  153.9981  135.6697  153.4757 H   0  0  0  0  0  0  0  0  0  0  0  0  # atno 10763 bound_to 10752
  153.0674  135.4993  154.8227 H   0  0  0  0  0  0  0  0  0  0  0  0  # atno 10764 bound_to 10752
  154.7069  135.3089  154.9220 H   0  0  0  0  0  0  0  0  0  0  0  0  # atno 10765 bound_to 10752
  140.3948  134.1781  155.7663 H   0  0  0  0  0  0  0  0  0  0  0  0  # atno 11005 bound_to 11000
  145.8535  140.9516  143.0737 LP  0  0  0  0  0  0  0  0  0  0  0  0  # atno 17320 bound_to 7965
  144.6754  140.0437  143.7480 LP  0  0  0  0  0  0  0  0  0  0  0  0  # atno 17321 bound_to 7965
  140.4587  144.1752  150.5904 LP  0  0  0  0  0  0  0  0  0  0  0  0  # atno 17342 bound_to 10162
  140.4507  143.2488  151.9351 LP  0  0  0  0  0  0  0  0  0  0  0  0  # atno 17343 bound_to 10162
  156.0675  130.5715  150.9318 LP  0  0  0  0  0  0  0  0  0  0  0  0  # atno 17370 bound_to 10713
  157.6138  131.0934  150.8747 LP  0  0  0  0  0  0  0  0  0  0  0  0  # atno 17371 bound_to 10713
  141.1878  133.8273  157.1018 LP  0  0  0  0  0  0  0  0  0  0  0  0  # atno 17394 bound_to 11000
  140.0380  134.9868  157.0907 LP  0  0  0  0  0  0  0  0  0  0  0  0  # atno 17395 bound_to 11000

$$$$
