AV-unprocessed.smi:561|AV-procd|sdf|2936|dock6
  -GOLD-   2262023433D 1   1.00000     0.00000
 Structure written by MMmdl.
 37 38  0  0  0  0  0  0  0  0  2 V2000
  146.7887  139.4559  151.1891 C   0  0  0  0  0  0  0  0  0  0  0  0
  146.4609  138.6361  152.4438 C   0  0  2  0  0  0  0  0  0  0  0  0
  147.4752  138.9104  153.5744 C   0  0  0  0  0  0  0  0  0  0  0  0
  147.3696  140.2666  154.1223 N   0  0  0  0  0  0  0  0  0  0  0  0
  146.2250  140.9303  154.4835 C   0  0  0  0  0  0  0  0  0  0  0  0
  146.6148  142.1667  154.9293 C   0  0  0  0  0  0  0  0  0  0  0  0
  147.9796  142.2039  154.8255 N   0  3  0  0  0  0  0  0  0  0  0  0
  148.4371  141.0460  154.3383 C   0  0  0  0  0  0  0  0  0  0  0  0
  146.4423  137.2166  152.0929 N   0  0  0  0  0  0  0  0  0  0  0  0
  145.3429  136.4479  151.9772 C   0  0  0  0  0  0  0  0  0  0  0  0
  144.2018  136.8726  152.1610 O   0  0  0  0  0  0  0  0  0  0  0  0
  145.5808  135.0267  151.6162 C   0  0  0  0  0  0  0  0  0  0  0  0
  144.7893  134.4283  150.7825 N   0  0  0  0  0  0  0  0  0  0  0  0
  144.9773  133.1134  150.4075 N   0  0  0  0  0  0  0  0  0  0  0  0
  144.1742  132.7130  149.2525 C   0  0  0  0  0  0  0  0  0  0  0  0
  145.7995  132.2423  151.0487 C   0  0  0  0  0  0  0  0  0  0  0  0
  145.9691  131.0724  150.7066 O   0  0  0  0  0  0  0  0  0  0  0  0
  146.5243  132.7762  152.2883 C   0  0  0  0  0  0  0  0  0  0  0  0
  146.7656  134.2964  152.2135 C   0  0  0  0  0  0  0  0  0  0  0  0
  146.7801  140.5245  151.4061 H   0  0  0  0  0  0  0  0  0  0  0  0
  146.0578  139.2759  150.3997 H   0  0  0  0  0  0  0  0  0  0  0  0
  147.7741  139.2048  150.7950 H   0  0  0  0  0  0  0  0  0  0  0  0
  145.4698  138.9475  152.7782 H   0  0  0  0  0  0  0  0  0  0  0  0
  147.3427  138.2025  154.3941 H   0  0  0  0  0  0  0  0  0  0  0  0
  148.4958  138.7841  153.2100 H   0  0  0  0  0  0  0  0  0  0  0  0
  145.2438  140.4871  154.3923 H   0  0  0  0  0  0  0  0  0  0  0  0
  146.0385  143.0008  155.3022 H   0  0  0  0  0  0  0  0  0  0  0  0
  149.4651  140.7938  154.1480 H   0  0  0  0  0  0  0  0  0  0  0  0
  147.3368  136.7806  151.9199 H   0  0  0  0  0  0  0  0  0  0  0  0
  144.3319  131.6797  148.9408 H   0  0  0  0  0  0  0  0  0  0  0  0
  144.4073  133.3485  148.3971 H   0  0  0  0  0  0  0  0  0  0  0  0
  143.1131  132.8284  149.4759 H   0  0  0  0  0  0  0  0  0  0  0  0
  145.9048  132.5445  153.1555 H   0  0  0  0  0  0  0  0  0  0  0  0
  147.4687  132.2489  152.4271 H   0  0  0  0  0  0  0  0  0  0  0  0
  147.6552  134.5041  151.6178 H   0  0  0  0  0  0  0  0  0  0  0  0
  146.9750  134.6639  153.2190 H   0  0  0  0  0  0  0  0  0  0  0  0
  148.5610  142.9929  155.0790 H   0  0  0  0  0  0  0  0  0  0  0  0
  1  2  1  0  0  0  0
  1 20  1  0  0  0  0
  1 21  1  0  0  0  0
  1 22  1  0  0  0  0
  2  3  1  0  0  0  0
  2  9  1  0  0  0  0
  2 23  1  0  0  0  0
  3  4  1  0  0  0  0
  3 24  1  0  0  0  0
  3 25  1  0  0  0  0
  4  8  1  0  0  0  0
  4  5  1  0  0  0  0
  5  6  2  0  0  0  0
  5 26  1  0  0  0  0
  6  7  1  0  0  0  0
  6 27  1  0  0  0  0
  7  8  2  0  0  0  0
  7 37  1  0  0  0  0
  8 28  1  0  0  0  0
  9 10  1  0  0  0  0
  9 29  1  0  0  0  0
 10 11  2  0  0  0  0
 10 12  1  0  0  0  0
 12 19  1  0  0  0  0
 12 13  2  0  0  0  0
 13 14  1  0  0  0  0
 14 15  1  0  0  0  0
 14 16  1  0  0  0  0
 15 30  1  0  0  0  0
 15 31  1  0  0  0  0
 15 32  1  0  0  0  0
 16 17  2  0  0  0  0
 16 18  1  0  0  0  0
 18 19  1  0  0  0  0
 18 33  1  0  0  0  0
 18 34  1  0  0  0  0
 19 35  1  0  0  0  0
 19 36  1  0  0  0  0
M  CHG  1   7   1
M  END
> <s_m_source_file>
AV-unprocessed.smi

> <i_m_source_file_index>
561

> <i_lp_mmshare_version>
43012

> <i_f3d_flags>
0

> <s_epik_input>
W2NIXTFuW2NIXVtjSF1uMVtDSDJdW0NAQEhdKFtDSDNdKVtOSF1DKD1PKUMyPU5OKFtDSDNdKUMoPU8pW0NIMl1bQ0gyXTI=

> <s_epik_cmdline>
J2VwaWtfcHl0aG9uJywgJy1waCcsICc3LjAnLCAnLXRuJywgJzgnLCAnLW1hJywgJzIwMCcsICctbWV0YWxfYmluZGluZycsICctaW1hZScsICc8aW5maWxlLm1hZT4nLCAnLW9tYWUnLCAnPG91dGZpbGUubWFlPic=

> <r_lp_tautomer_probability>
1

> <r_epik_Ionization_Penalty>
0.358595

> <r_epik_Ionization_Penalty_Charging>
0

> <r_epik_Ionization_Penalty_Neutral>
0.358595

> <r_epik_State_Penalty>
0.355181

> <r_epik_Charging_Adjusted_Penalty>
0.355181

> <i_epik_Tot_Q>
1

> <i_epik_Tot_abs_Q>
1

> <r_epik_Metal_State_Penalty>
0.718565

> <b_epik_Metal_Only>
0

> <s_epik_Chemistry_Notes>
This compound has an imine and may undergo hydrolysis.

> <s_lp_Force_Field>
OPLS_2005

> <r_lp_Energy>
20.1569

> <b_lp_Chiralities_Consistent>
1

> <s_lp_Variant>
AV-unprocessed.smi:561-1

> <Gold.Version>
5.8.1

> <Gold.Id.Protein>
6NUR|6NUR_protein|mol2

> <Gold.PLP.Fitness>
42.7835

> <Gold.PLP.PLP>
-32.7231

> <Gold.PLP.part.hbond>
-2.0000

> <Gold.PLP.part.metal>
0.0000

> <Gold.PLP.part.buried>
-1.5282

> <Gold.PLP.part.nonpolar>
-30.1853

> <Gold.PLP.part.repulsive>
1.3184

> <Gold.PLP.ligand.clash>
0.0000

> <Gold.PLP.ligand.torsion>
0.9394

> <Gold.PLP.Chemscore.Hbond>
2.8240

> <Gold.PLP.Chemscore.CHOScore>
1.1533

> <Gold.PLP.Chemscore.Metal>
0.0000

> <Gold.Chemscore.Hbonds>
donor molecule, donor type, donor heavy atom, donor atom, acceptor molecule, acceptor atom, score
      L1  H     7    37       P1  8028  2.00
      L1  H     9    29       P1  7948  1.00
      L1  C     5    26       P1 10175  1.00

> <Gold.PLP.Chemscore.Internal.Correction>
0.0072

> <Gold.Rescore>
     Score         DG    S(hbond)    S(metal)    S(lipo)     H(rot)  DE(clash)    DE(int)     intcor
     13.14     -14.06       1.96        0.00      55.89       1.76       0.13       0.79       ----

> <Gold.Chemscore.Fitness>
13.1423

> <Gold.Chemscore.DG>
-14.0621

> <Gold.Chemscore.ZeroCoef>
-5.4800

> <Gold.Chemscore.Hbond>
1.9599

> <Gold.Chemscore.Metal>
0.0000

> <Gold.Chemscore.Lipo>
55.8883

> <Gold.Chemscore.Internal_Hbond>
0.0000

> <Gold.Chemscore.DEClash>
0.1294

> <Gold.Chemscore.DEInternal>
0.7904

> <Gold.Chemscore.Rot>
1.7589

> <Gold.Chemscore.Internal.Correction>
   9.000000E+99

> <Gold.Chemscore.Hbonds>
donor molecule, donor type, donor heavy atom, donor atom, acceptor molecule, acceptor atom, score
      L1  H     7    37       P1  8028  0.98
      L1  H     9    29       P1  7948  1.00

> <Gold.Chemscore.Hbond.Weighted>
-6.5460

> <Gold.Chemscore.Metal.Weighted>
-0.0000

> <Gold.Chemscore.Lipo.Weighted>
-6.5389

> <Gold.Chemscore.Internal_Hbond.Weighted>
0.0000

> <Gold.Chemscore.DEClash.Weighted>
0.1294

> <Gold.Chemscore.DEInternal.Weighted>
0.7904

> <Gold.Chemscore.Rot.Weighted>
4.5028

> <Gold.Chemscore.Internal.Correction.Weighted>
   9.000000E+99

> <Gold.Protein.RotatedTorsions>
[ 6907 6896 6895 6894 ] final -103.02 input  -60.11 | X-H torsion
[ 7974 7965 7964 7962 ] final   73.67 input  175.53 | X-H torsion
[ 8008 7997 7996 7995 ] final -176.00 input   59.86 | X-H torsion
[ 10167 10162 10161 10158 ] final   48.39 input  -65.29 | X-H torsion
[ 10718 10713 10712 10709 ] final   31.09 input   66.30 | X-H torsion
[ 10763 10752 10751 10750 ] final  -70.12 input  -60.55 | X-H torsion
[ 11005 11000 10999 10996 ] final  171.78 input  -57.11 | X-H torsion

> <Gold.Protein.ActiveResidues>
 VAL166  LYS551  ARG553  GLY616  TRP617  ASP618  TYR619  PRO620  LYS621  CYS622 
 ASP623  PHE694  ASN695  SER759  ASP760  ASP761  ALA762  ILE779  LEU786  VAL792 
 PHE793  MET794  SER795  GLU796  ALA797  LYS798  CYS799  TRP800  GLU811  SER814 

> <Gold.Protein.RotatedAtoms>
  150.7221  134.0493  159.3792 H   0  0  0  0  0  0  0  0  0  0  0  0  # atno 6907 bound_to 6896
  151.8470  135.0569  160.0464 H   0  0  0  0  0  0  0  0  0  0  0  0  # atno 6908 bound_to 6896
  152.2819  133.5443  159.5540 H   0  0  0  0  0  0  0  0  0  0  0  0  # atno 6909 bound_to 6896
  145.7380  139.2709  143.1503 H   0  0  0  0  0  0  0  0  0  0  0  0  # atno 7974 bound_to 7965
  155.9894  140.1198  157.0652 H   0  0  0  0  0  0  0  0  0  0  0  0  # atno 8008 bound_to 7997
  154.4207  140.1128  156.5613 H   0  0  0  0  0  0  0  0  0  0  0  0  # atno 8009 bound_to 7997
  155.6363  140.3473  155.4702 H   0  0  0  0  0  0  0  0  0  0  0  0  # atno 8010 bound_to 7997
  140.2938  144.3014  150.6234 H   0  0  0  0  0  0  0  0  0  0  0  0  # atno 10167 bound_to 10162
  157.2681  130.7194  149.6489 H   0  0  0  0  0  0  0  0  0  0  0  0  # atno 10718 bound_to 10713
  154.4132  135.6004  153.5965 H   0  0  0  0  0  0  0  0  0  0  0  0  # atno 10763 bound_to 10752
  152.9791  135.5934  154.4045 H   0  0  0  0  0  0  0  0  0  0  0  0  # atno 10764 bound_to 10752
  154.3860  135.2841  155.2161 H   0  0  0  0  0  0  0  0  0  0  0  0  # atno 10765 bound_to 10752
  140.3227  134.7424  157.4076 H   0  0  0  0  0  0  0  0  0  0  0  0  # atno 11005 bound_to 11000
  146.0475  140.8103  142.9798 LP  0  0  0  0  0  0  0  0  0  0  0  0  # atno 17320 bound_to 7965
  144.6877  140.3002  143.7264 LP  0  0  0  0  0  0  0  0  0  0  0  0  # atno 17321 bound_to 7965
  140.5709  143.2181  151.7600 LP  0  0  0  0  0  0  0  0  0  0  0  0  # atno 17342 bound_to 10162
  139.4931  144.4217  151.9970 LP  0  0  0  0  0  0  0  0  0  0  0  0  # atno 17343 bound_to 10162
  155.9663  130.4376  150.5184 LP  0  0  0  0  0  0  0  0  0  0  0  0  # atno 17370 bound_to 10713
  157.3102  131.0662  151.2006 LP  0  0  0  0  0  0  0  0  0  0  0  0  # atno 17371 bound_to 10713
  140.0928  134.5578  155.8427 LP  0  0  0  0  0  0  0  0  0  0  0  0  # atno 17394 bound_to 11000
  141.2083  133.6672  156.6360 LP  0  0  0  0  0  0  0  0  0  0  0  0  # atno 17395 bound_to 11000

$$$$
