AV-unprocessed.smi:232|AV-procd|sdf|1774|dock4
  -GOLD-   2262020313D 1   1.00000     0.00000
 Structure written by MMmdl.
 52 55  0  0  0  0  0  0  0  0  1 V2000
  154.6591  140.4200  160.9452 C   0  0  0  0  0  0  0  0  0  0  0  0
  154.1787  140.2507  159.4983 C   0  0  0  0  0  0  0  0  0  0  0  0
  152.7266  140.7309  159.2825 C   0  0  1  0  0  0  0  0  0  0  0  0
  152.4804  142.1638  159.7940 C   0  0  0  0  0  0  0  0  0  0  0  0
  151.7703  142.8969  158.6502 C   0  0  0  0  0  0  0  0  0  0  0  0
  151.3242  141.7903  157.6934 C   0  0  2  0  0  0  0  0  0  0  0  0
  149.8983  141.2979  158.0175 C   0  0  0  0  0  0  0  0  0  0  0  0
  152.3412  140.7595  157.8713 N   0  0  0  0  0  0  0  0  0  0  0  0
  152.1906  139.6121  157.1568 C   0  0  0  0  0  0  0  0  0  0  0  0
  152.9051  139.4232  156.0149 N   0  0  0  0  0  0  0  0  0  0  0  0
  152.7775  138.2925  155.3152 C   0  0  0  0  0  0  0  0  0  0  0  0
  152.0073  137.2345  155.5731 N   0  0  0  0  0  0  0  0  0  0  0  0
  151.2867  137.4164  156.7165 C   0  0  0  0  0  0  0  0  0  0  0  0
  151.3180  138.5622  157.5613 C   0  0  0  0  0  0  0  0  0  0  0  0
  150.4431  138.3851  158.6273 N   0  0  0  0  0  0  0  0  0  0  0  0
  149.9282  137.2030  158.4267 C   0  0  0  0  0  0  0  0  0  0  0  0
  150.3768  136.5531  157.3003 N   0  0  0  0  0  0  0  0  0  0  0  0
  149.9647  135.2408  156.8346 C   0  0  0  0  0  0  0  0  0  0  0  0
  149.2189  135.3029  155.4866 C   0  0  1  0  0  0  0  0  0  0  0  0
  150.1317  135.6209  154.4522 O   0  0  0  0  0  0  0  0  0  0  0  0
  148.4961  133.9792  155.1640 C   0  0  2  0  0  0  0  0  0  0  0  0
  149.3842  132.7327  154.9935 C   0  0  0  0  0  0  0  0  0  0  0  0
  149.0853  132.2702  153.5791 C   0  0  0  0  0  0  0  0  0  0  0  0
  147.6975  132.8448  153.3271 C   0  0  0  0  0  0  0  0  0  0  0  0
  147.7591  134.1159  153.9529 O   0  0  0  0  0  0  0  0  0  0  0  0
  155.6813  140.0585  161.0575 H   0  0  0  0  0  0  0  0  0  0  0  0
  154.0302  139.8561  161.6346 H   0  0  0  0  0  0  0  0  0  0  0  0
  154.6430  141.4649  161.2548 H   0  0  0  0  0  0  0  0  0  0  0  0
  154.8478  140.7873  158.8248 H   0  0  0  0  0  0  0  0  0  0  0  0
  154.2731  139.1977  159.2346 H   0  0  0  0  0  0  0  0  0  0  0  0
  152.0468  140.0581  159.8077 H   0  0  0  0  0  0  0  0  0  0  0  0
  151.8580  142.1402  160.6892 H   0  0  0  0  0  0  0  0  0  0  0  0
  153.4052  142.6807  160.0538 H   0  0  0  0  0  0  0  0  0  0  0  0
  150.9491  143.5265  158.9941 H   0  0  0  0  0  0  0  0  0  0  0  0
  152.4857  143.5443  158.1414 H   0  0  0  0  0  0  0  0  0  0  0  0
  151.3451  142.1764  156.6748 H   0  0  0  0  0  0  0  0  0  0  0  0
  149.1781  142.1109  157.9235 H   0  0  0  0  0  0  0  0  0  0  0  0
  149.8247  140.9068  159.0326 H   0  0  0  0  0  0  0  0  0  0  0  0
  149.5832  140.5092  157.3337 H   0  0  0  0  0  0  0  0  0  0  0  0
  153.3795  138.2254  154.4212 H   0  0  0  0  0  0  0  0  0  0  0  0
  149.1977  136.7719  159.0958 H   0  0  0  0  0  0  0  0  0  0  0  0
  150.8468  134.6040  156.7578 H   0  0  0  0  0  0  0  0  0  0  0  0
  149.3261  134.7951  157.5981 H   0  0  0  0  0  0  0  0  0  0  0  0
  148.4792  136.1030  155.5382 H   0  0  0  0  0  0  0  0  0  0  0  0
  149.6448  135.9777  153.7251 H   0  0  0  0  0  0  0  0  0  0  0  0
  147.7618  133.7782  155.9459 H   0  0  0  0  0  0  0  0  0  0  0  0
  150.4476  132.9223  155.1422 H   0  0  0  0  0  0  0  0  0  0  0  0
  149.0867  131.9672  155.7111 H   0  0  0  0  0  0  0  0  0  0  0  0
  149.7997  132.7144  152.8848 H   0  0  0  0  0  0  0  0  0  0  0  0
  149.1271  131.1869  153.4650 H   0  0  0  0  0  0  0  0  0  0  0  0
  147.4605  132.9281  152.2662 H   0  0  0  0  0  0  0  0  0  0  0  0
  146.9299  132.2361  153.8078 H   0  0  0  0  0  0  0  0  0  0  0  0
  1  2  1  0  0  0  0
  1 26  1  0  0  0  0
  1 27  1  0  0  0  0
  1 28  1  0  0  0  0
  2  3  1  0  0  0  0
  2 29  1  0  0  0  0
  2 30  1  0  0  0  0
  3  8  1  0  0  0  0
  3  4  1  0  0  0  0
  3 31  1  0  0  0  0
  4  5  1  0  0  0  0
  4 32  1  0  0  0  0
  4 33  1  0  0  0  0
  5  6  1  0  0  0  0
  5 34  1  0  0  0  0
  5 35  1  0  0  0  0
  6  7  1  0  0  0  0
  6  8  1  0  0  0  0
  6 36  1  0  0  0  0
  7 37  1  0  0  0  0
  7 38  1  0  0  0  0
  7 39  1  0  0  0  0
  8  9  1  0  0  0  0
  9 14  1  0  0  0  0
  9 10  2  0  0  0  0
 10 11  1  0  0  0  0
 11 12  2  0  0  0  0
 11 40  1  0  0  0  0
 12 13  1  0  0  0  0
 13 17  1  0  0  0  0
 13 14  2  0  0  0  0
 14 15  1  0  0  0  0
 15 16  2  0  0  0  0
 16 17  1  0  0  0  0
 16 41  1  0  0  0  0
 17 18  1  0  0  0  0
 18 19  1  0  0  0  0
 18 42  1  0  0  0  0
 18 43  1  0  0  0  0
 19 20  1  0  0  0  0
 19 21  1  0  0  0  0
 19 44  1  0  0  0  0
 20 45  1  0  0  0  0
 21 25  1  0  0  0  0
 21 22  1  0  0  0  0
 21 46  1  0  0  0  0
 22 23  1  0  0  0  0
 22 47  1  0  0  0  0
 22 48  1  0  0  0  0
 23 24  1  0  0  0  0
 23 49  1  0  0  0  0
 23 50  1  0  0  0  0
 24 25  1  0  0  0  0
 24 51  1  0  0  0  0
 24 52  1  0  0  0  0
M  END
> <s_m_source_file>
AV-unprocessed.smi

> <i_m_source_file_index>
232

> <i_lp_mmshare_version>
43012

> <i_f3d_flags>
0

> <s_epik_input>
W0NIM11bQ0gyXVtDQEBIXTFbQ0gyXVtDSDJdW0NAQEhdKFtDSDNdKU4xYyhuW2NIXW4yKWMoYzIzKW5bY0hdbjNbQ0gyXVtDQEhdKFtPSF0pW0NAQEhdNFtDSDJdW0NIMl1bQ0gyXU80

> <s_epik_cmdline>
J2VwaWtfcHl0aG9uJywgJy1waCcsICc3LjAnLCAnLXRuJywgJzgnLCAnLW1hJywgJzIwMCcsICctbWV0YWxfYmluZGluZycsICctaW1hZScsICc8aW5maWxlLm1hZT4nLCAnLW9tYWUnLCAnPG91dGZpbGUubWFlPic=

> <r_lp_tautomer_probability>
1

> <r_epik_Ionization_Penalty>
0.00258048

> <r_epik_Ionization_Penalty_Charging>
0

> <r_epik_Ionization_Penalty_Neutral>
0.00258048

> <r_epik_State_Penalty>
0.00168551

> <r_epik_Charging_Adjusted_Penalty>
0.00168551

> <i_epik_Tot_Q>
0

> <i_epik_Tot_abs_Q>
0

> <r_epik_Metal_State_Penalty>
-0

> <b_epik_Metal_Only>
0

> <s_lp_Force_Field>
OPLS_2005

> <r_lp_Energy>
56.0552

> <b_lp_Chiralities_Consistent>
1

> <s_lp_Variant>
AV-unprocessed.smi:232-8

> <Gold.Version>
5.8.1

> <Gold.Id.Protein>
6NUR|6NUR_protein|mol2

> <Gold.PLP.Fitness>
45.0597

> <Gold.PLP.PLP>
-37.2623

> <Gold.PLP.part.hbond>
-4.0723

> <Gold.PLP.part.metal>
0.0000

> <Gold.PLP.part.buried>
-4.7557

> <Gold.PLP.part.nonpolar>
-28.6840

> <Gold.PLP.part.repulsive>
0.3141

> <Gold.PLP.ligand.clash>
0.0000

> <Gold.PLP.ligand.torsion>
0.4456

> <Gold.PLP.Chemscore.Hbond>
2.7717

> <Gold.PLP.Chemscore.CHOScore>
0.0000

> <Gold.PLP.Chemscore.Metal>
0.0000

> <Gold.Chemscore.Hbonds>
donor molecule, donor type, donor heavy atom, donor atom, acceptor molecule, acceptor atom, score
      L1  H    20    45       P1  7948  1.00
      P1  H  7997  8008       L1    10  1.00
      P1  H 10752 10764       L1    12  0.78

> <Gold.PLP.Chemscore.Internal.Correction>
0.3736

> <Gold.Rescore>
     Score         DG    S(hbond)    S(metal)    S(lipo)     H(rot)  DE(clash)    DE(int)     intcor
     15.59     -16.31       2.08        0.00      86.23       2.43       0.02       0.71       ----

> <Gold.Chemscore.Fitness>
15.5856

> <Gold.Chemscore.DG>
-16.3109

> <Gold.Chemscore.ZeroCoef>
-5.4800

> <Gold.Chemscore.Hbond>
2.0817

> <Gold.Chemscore.Metal>
0.0000

> <Gold.Chemscore.Lipo>
86.2278

> <Gold.Chemscore.Internal_Hbond>
0.0000

> <Gold.Chemscore.DEClash>
0.0174

> <Gold.Chemscore.DEInternal>
0.7079

> <Gold.Chemscore.Rot>
2.4260

> <Gold.Chemscore.Internal.Correction>
   9.000000E+99

> <Gold.Chemscore.Hbonds>
donor molecule, donor type, donor heavy atom, donor atom, acceptor molecule, acceptor atom, score
      L1  H    20    45       P1  7948  0.29
      P1  H  7997  8008       L1    10  0.59
      P1  H 10752 10764       L1    12  0.41

> <Gold.Chemscore.Hbond.Weighted>
-6.9529

> <Gold.Chemscore.Metal.Weighted>
-0.0000

> <Gold.Chemscore.Lipo.Weighted>
-10.0887

> <Gold.Chemscore.Internal_Hbond.Weighted>
0.0000

> <Gold.Chemscore.DEClash.Weighted>
0.0174

> <Gold.Chemscore.DEInternal.Weighted>
0.7079

> <Gold.Chemscore.Rot.Weighted>
6.2107

> <Gold.Chemscore.Internal.Correction.Weighted>
   9.000000E+99

> <Gold.Protein.RotatedTorsions>
[ 6907 6896 6895 6894 ] final -132.53 input  -60.11 | X-H torsion
[ 7974 7965 7964 7962 ] final  -40.77 input  175.53 | X-H torsion
[ 8008 7997 7996 7995 ] final  -36.01 input   59.86 | X-H torsion
[ 10167 10162 10161 10158 ] final   40.98 input  -65.29 | X-H torsion
[ 10718 10713 10712 10709 ] final   57.30 input   66.30 | X-H torsion
[ 10763 10752 10751 10750 ] final  -48.78 input  -60.55 | X-H torsion
[ 11005 11000 10999 10996 ] final  -33.08 input  -57.11 | X-H torsion

> <Gold.Protein.ActiveResidues>
 VAL166  LYS551  ARG553  GLY616  TRP617  ASP618  TYR619  PRO620  LYS621  CYS622 
 ASP623  PHE694  ASN695  SER759  ASP760  ASP761  ALA762  ILE779  LEU786  VAL792 
 PHE793  MET794  SER795  GLU796  ALA797  LYS798  CYS799  TRP800  GLU811  SER814 

> <Gold.Protein.RotatedAtoms>
  150.9634  133.6420  159.2750 H   0  0  0  0  0  0  0  0  0  0  0  0  # atno 6907 bound_to 6896
  151.3735  135.0925  159.9483 H   0  0  0  0  0  0  0  0  0  0  0  0  # atno 6908 bound_to 6896
  152.5156  133.9184  159.7577 H   0  0  0  0  0  0  0  0  0  0  0  0  # atno 6909 bound_to 6896
  146.0273  140.6775  142.9149 H   0  0  0  0  0  0  0  0  0  0  0  0  # atno 7974 bound_to 7965
  154.4082  140.1642  156.2304 H   0  0  0  0  0  0  0  0  0  0  0  0  # atno 8008 bound_to 7997
  155.9288  140.3416  155.6209 H   0  0  0  0  0  0  0  0  0  0  0  0  # atno 8009 bound_to 7997
  155.7132  140.0759  157.2353 H   0  0  0  0  0  0  0  0  0  0  0  0  # atno 8010 bound_to 7997
  140.3689  144.2131  150.6134 H   0  0  0  0  0  0  0  0  0  0  0  0  # atno 10167 bound_to 10162
  157.5503  130.8761  149.8953 H   0  0  0  0  0  0  0  0  0  0  0  0  # atno 10718 bound_to 10713
  154.0833  135.6588  153.4841 H   0  0  0  0  0  0  0  0  0  0  0  0  # atno 10763 bound_to 10752
  153.0348  135.5185  154.7453 H   0  0  0  0  0  0  0  0  0  0  0  0  # atno 10764 bound_to 10752
  154.6554  135.3007  154.9902 H   0  0  0  0  0  0  0  0  0  0  0  0  # atno 10765 bound_to 10752
  140.9606  133.7167  156.1363 H   0  0  0  0  0  0  0  0  0  0  0  0  # atno 11005 bound_to 11000
  144.7015  140.3673  143.7152 LP  0  0  0  0  0  0  0  0  0  0  0  0  # atno 17320 bound_to 7965
  145.7097  139.1681  143.2546 LP  0  0  0  0  0  0  0  0  0  0  0  0  # atno 17321 bound_to 7965
  140.5053  143.2306  151.8617 LP  0  0  0  0  0  0  0  0  0  0  0  0  # atno 17342 bound_to 10162
  139.4806  144.5012  151.9057 LP  0  0  0  0  0  0  0  0  0  0  0  0  # atno 17343 bound_to 10162
  156.0571  130.3706  150.1066 LP  0  0  0  0  0  0  0  0  0  0  0  0  # atno 17370 bound_to 10713
  156.9239  130.9692  151.3544 LP  0  0  0  0  0  0  0  0  0  0  0  0  # atno 17371 bound_to 10713
  140.7473  134.4083  157.5546 LP  0  0  0  0  0  0  0  0  0  0  0  0  # atno 17394 bound_to 11000
  139.8877  134.8877  156.2516 LP  0  0  0  0  0  0  0  0  0  0  0  0  # atno 17395 bound_to 11000

$$$$
