AV-unprocessed.smi:2833|AV-procd|sdf|10914|dock4
  -GOLD-   2272015363D 1   1.00000     0.00000
 Structure written by MMmdl.
 28 29  0  0  0  0  0  0  0  0  1 V2000
  148.8600  142.2954  154.0647 O   0  0  0  0  0  0  0  0  0  0  0  0
  148.4624  141.0100  154.4927 C   0  0  0  0  0  0  0  0  0  0  0  0
  149.5481  140.3873  155.3839 C   0  0  2  0  0  0  0  0  0  0  0  0
  149.9978  141.3602  156.4927 C   0  0  0  0  0  0  0  0  0  0  0  0
  151.0913  140.7768  157.2599 N   0  0  0  0  0  0  0  0  0  0  0  0
  151.4703  141.5395  158.3742 C   0  0  0  0  0  0  0  0  0  0  0  0
  151.0805  142.8369  158.4253 N   0  0  0  0  0  0  0  0  0  0  0  0
  151.4473  143.5742  159.4957 C   0  0  0  0  0  0  0  0  0  0  0  0
  152.2141  143.0607  160.5601 C   0  0  0  0  0  0  0  0  0  0  0  0
  152.6476  144.0598  161.8981 Cl  0  0  0  0  0  0  0  0  0  0  0  0
  152.6186  141.7134  160.5066 C   0  0  0  0  0  0  0  0  0  0  0  0
  152.2412  140.9375  159.3935 C   0  0  0  0  0  0  0  0  0  0  0  0
  152.6143  139.6376  159.3089 F   0  0  0  0  0  0  0  0  0  0  0  0
  152.2133  140.3806  156.4191 C   0  0  0  0  0  0  0  0  0  0  0  0
  151.7235  139.4499  155.2978 C   0  0  0  0  0  0  0  0  0  0  0  0
  150.6822  140.0935  154.5688 O   0  0  0  0  0  0  0  0  0  0  0  0
  148.6094  142.9232  154.7251 H   0  0  0  0  0  0  0  0  0  0  0  0
  147.5037  141.0597  155.0101 H   0  0  0  0  0  0  0  0  0  0  0  0
  148.3154  140.4035  153.5984 H   0  0  0  0  0  0  0  0  0  0  0  0
  149.1666  139.4729  155.8433 H   0  0  0  0  0  0  0  0  0  0  0  0
  150.3185  142.3052  156.0516 H   0  0  0  0  0  0  0  0  0  0  0  0
  149.1631  141.5810  157.1594 H   0  0  0  0  0  0  0  0  0  0  0  0
  151.1200  144.6034  159.5014 H   0  0  0  0  0  0  0  0  0  0  0  0
  153.2074  141.2817  161.3025 H   0  0  0  0  0  0  0  0  0  0  0  0
  152.6817  141.2659  155.9865 H   0  0  0  0  0  0  0  0  0  0  0  0
  152.9689  139.8760  157.0226 H   0  0  0  0  0  0  0  0  0  0  0  0
  152.5426  139.2166  154.6176 H   0  0  0  0  0  0  0  0  0  0  0  0
  151.3667  138.5025  155.7049 H   0  0  0  0  0  0  0  0  0  0  0  0
  1  2  1  0  0  0  0
  1 17  1  0  0  0  0
  2  3  1  0  0  0  0
  2 18  1  0  0  0  0
  2 19  1  0  0  0  0
  3 16  1  0  0  0  0
  3  4  1  0  0  0  0
  3 20  1  0  0  0  0
  4  5  1  0  0  0  0
  4 21  1  0  0  0  0
  4 22  1  0  0  0  0
  5  6  1  0  0  0  0
  5 14  1  0  0  0  0
  6 12  1  0  0  0  0
  6  7  2  0  0  0  0
  7  8  1  0  0  0  0
  8  9  2  0  0  0  0
  8 23  1  0  0  0  0
  9 10  1  0  0  0  0
  9 11  1  0  0  0  0
 11 12  2  0  0  0  0
 11 24  1  0  0  0  0
 12 13  1  0  0  0  0
 14 15  1  0  0  0  0
 14 25  1  0  0  0  0
 14 26  1  0  0  0  0
 15 16  1  0  0  0  0
 15 27  1  0  0  0  0
 15 28  1  0  0  0  0
M  END
> <s_m_source_file>
AV-unprocessed.smi

> <i_m_source_file_index>
2833

> <i_lp_mmshare_version>
43012

> <i_f3d_flags>
0

> <s_epik_input>
W09IXVtDSDJdW0NAQEhdMVtDSDJdTihbQ0gyXVtDSDJdTzEpYzJuW2NIXWMoQ2wpW2NIXWMyRg==

> <s_epik_cmdline>
J2VwaWtfcHl0aG9uJywgJy1waCcsICc3LjAnLCAnLXRuJywgJzgnLCAnLW1hJywgJzIwMCcsICctbWV0YWxfYmluZGluZycsICctaW1hZScsICc8aW5maWxlLm1hZT4nLCAnLW9tYWUnLCAnPG91dGZpbGUubWFlPic=

> <r_lp_tautomer_probability>
1

> <r_epik_Ionization_Penalty>
1.06846e-07

> <r_epik_Ionization_Penalty_Charging>
0

> <r_epik_Ionization_Penalty_Neutral>
1.06846e-07

> <r_epik_State_Penalty>
-0

> <r_epik_Charging_Adjusted_Penalty>
0

> <i_epik_Tot_Q>
0

> <i_epik_Tot_abs_Q>
0

> <r_epik_Metal_State_Penalty>
-0

> <b_epik_Metal_Only>
0

> <s_lp_Force_Field>
OPLS_2005

> <r_lp_Energy>
22.731

> <b_lp_Chiralities_Consistent>
1

> <s_lp_Variant>
AV-unprocessed.smi:2833-1

> <Gold.Version>
5.8.1

> <Gold.Id.Protein>
6NUR|6NUR_protein|mol2

> <Gold.PLP.Fitness>
37.4851

> <Gold.PLP.PLP>
-31.5684

> <Gold.PLP.part.hbond>
-2.9578

> <Gold.PLP.part.metal>
0.0000

> <Gold.PLP.part.buried>
-3.5712

> <Gold.PLP.part.nonpolar>
-23.3854

> <Gold.PLP.part.repulsive>
0.1672

> <Gold.PLP.ligand.clash>
0.0000

> <Gold.PLP.ligand.torsion>
0.3296

> <Gold.PLP.Chemscore.Hbond>
2.1560

> <Gold.PLP.Chemscore.CHOScore>
0.0000

> <Gold.PLP.Chemscore.Metal>
0.0000

> <Gold.Chemscore.Hbonds>
donor molecule, donor type, donor heavy atom, donor atom, acceptor molecule, acceptor atom, score
      L1  H     1    17       P1  8028  1.00
      P1  H  7989  7998       L1    16  0.90
      P1  H  8011  8017       L1     1  0.26

> <Gold.PLP.Chemscore.Internal.Correction>
0.1080

> <Gold.Rescore>
     Score         DG    S(hbond)    S(metal)    S(lipo)     H(rot)  DE(clash)    DE(int)     intcor
     15.21     -16.80       1.89        0.00      81.61       1.78       0.33       1.26       ----

> <Gold.Chemscore.Fitness>
15.2122

> <Gold.Chemscore.DG>
-16.8046

> <Gold.Chemscore.ZeroCoef>
-5.4800

> <Gold.Chemscore.Hbond>
1.8939

> <Gold.Chemscore.Metal>
0.0000

> <Gold.Chemscore.Lipo>
81.6141

> <Gold.Chemscore.Internal_Hbond>
0.0000

> <Gold.Chemscore.DEClash>
0.3310

> <Gold.Chemscore.DEInternal>
1.2615

> <Gold.Chemscore.Rot>
1.7773

> <Gold.Chemscore.Internal.Correction>
   9.000000E+99

> <Gold.Chemscore.Hbonds>
donor molecule, donor type, donor heavy atom, donor atom, acceptor molecule, acceptor atom, score
      L1  H     1    17       P1  8028  0.89
      P1  H  7989  7998       L1    16  0.18
      P1  H  8011  8017       L1     1  0.23

> <Gold.Chemscore.Hbond.Weighted>
-6.3257

> <Gold.Chemscore.Metal.Weighted>
-0.0000

> <Gold.Chemscore.Lipo.Weighted>
-9.5489

> <Gold.Chemscore.Internal_Hbond.Weighted>
0.0000

> <Gold.Chemscore.DEClash.Weighted>
0.3310

> <Gold.Chemscore.DEInternal.Weighted>
1.2615

> <Gold.Chemscore.Rot.Weighted>
4.5499

> <Gold.Chemscore.Internal.Correction.Weighted>
   9.000000E+99

> <Gold.Protein.RotatedTorsions>
[ 6907 6896 6895 6894 ] final  -73.86 input  -60.11 | X-H torsion
[ 7974 7965 7964 7962 ] final -120.81 input  175.53 | X-H torsion
[ 8008 7997 7996 7995 ] final  105.54 input   59.86 | X-H torsion
[ 10167 10162 10161 10158 ] final  172.18 input  -65.29 | X-H torsion
[ 10718 10713 10712 10709 ] final  172.26 input   66.30 | X-H torsion
[ 10763 10752 10751 10750 ] final -159.84 input  -60.55 | X-H torsion
[ 11005 11000 10999 10996 ] final   -4.01 input  -57.11 | X-H torsion

> <Gold.Protein.ActiveResidues>
 VAL166  LYS551  ARG553  GLY616  TRP617  ASP618  TYR619  PRO620  LYS621  CYS622 
 ASP623  PHE694  ASN695  SER759  ASP760  ASP761  ALA762  ILE779  LEU786  VAL792 
 PHE793  MET794  SER795  GLU796  ALA797  LYS798  CYS799  TRP800  GLU811  SER814 

> <Gold.Protein.RotatedAtoms>
  150.7114  134.4955  159.5535 H   0  0  0  0  0  0  0  0  0  0  0  0  # atno 6907 bound_to 6896
  152.2563  134.8077  160.0447 H   0  0  0  0  0  0  0  0  0  0  0  0  # atno 6908 bound_to 6896
  151.8807  133.3459  159.3802 H   0  0  0  0  0  0  0  0  0  0  0  0  # atno 6909 bound_to 6896
  145.0472  140.8190  143.4231 H   0  0  0  0  0  0  0  0  0  0  0  0  # atno 7974 bound_to 7965
  156.1667  140.3128  155.8902 H   0  0  0  0  0  0  0  0  0  0  0  0  # atno 8008 bound_to 7997
  155.3671  140.0480  157.3063 H   0  0  0  0  0  0  0  0  0  0  0  0  # atno 8009 bound_to 7997
  154.5200  140.2195  155.9005 H   0  0  0  0  0  0  0  0  0  0  0  0  # atno 8010 bound_to 7997
  139.5069  144.3402  152.0025 H   0  0  0  0  0  0  0  0  0  0  0  0  # atno 10167 bound_to 10162
  156.9816  131.0120  151.2880 H   0  0  0  0  0  0  0  0  0  0  0  0  # atno 10718 bound_to 10713
  154.7441  135.3076  154.8676 H   0  0  0  0  0  0  0  0  0  0  0  0  # atno 10763 bound_to 10752
  153.9482  135.6767  153.4748 H   0  0  0  0  0  0  0  0  0  0  0  0  # atno 10764 bound_to 10752
  153.1038  135.4899  154.8841 H   0  0  0  0  0  0  0  0  0  0  0  0  # atno 10765 bound_to 10752
  140.6756  133.9199  155.8522 H   0  0  0  0  0  0  0  0  0  0  0  0  # atno 11005 bound_to 11000
  145.1573  139.2479  143.5410 LP  0  0  0  0  0  0  0  0  0  0  0  0  # atno 17320 bound_to 7965
  146.3515  140.1291  142.8598 LP  0  0  0  0  0  0  0  0  0  0  0  0  # atno 17321 bound_to 7965
  140.2840  144.3827  150.6109 LP  0  0  0  0  0  0  0  0  0  0  0  0  # atno 17342 bound_to 10162
  140.5996  143.2167  151.7097 LP  0  0  0  0  0  0  0  0  0  0  0  0  # atno 17343 bound_to 10162
  157.5522  130.8190  149.8160 LP  0  0  0  0  0  0  0  0  0  0  0  0  # atno 17370 bound_to 10713
  156.0242  130.3785  150.1871 LP  0  0  0  0  0  0  0  0  0  0  0  0  # atno 17371 bound_to 10713
  141.0358  134.0691  157.3961 LP  0  0  0  0  0  0  0  0  0  0  0  0  # atno 17394 bound_to 11000
  139.8968  135.0147  156.7068 LP  0  0  0  0  0  0  0  0  0  0  0  0  # atno 17395 bound_to 11000

$$$$
