AV-unprocessed.smi:1559|AV-procd|sdf|6274|dock4
  -GOLD-   22720 6463D 1   1.00000     0.00000
 Structure written by MMmdl.
 51 52  0  0  0  0  0  0  0  0  2 V2000
  146.6576  134.6842  154.0067 C   0  0  0  0  0  0  0  0  0  0  0  0
  146.4947  134.8061  152.5347 N   0  3  0  0  0  0  0  0  0  0  0  0
  146.5583  133.4676  151.8924 C   0  0  0  0  0  0  0  0  0  0  0  0
  145.3597  135.6840  152.0741 C   0  0  0  0  0  0  0  0  0  0  0  0
  145.2226  135.6777  150.5336 C   0  0  0  0  0  0  0  0  0  0  0  0
  144.0157  135.1916  152.6662 C   0  0  0  0  0  0  0  0  0  0  0  0
  145.5797  137.1540  152.5401 C   0  0  0  0  0  0  0  0  0  0  0  0
  146.9666  137.4614  152.8922 N   0  0  0  0  0  0  0  0  0  0  0  0
  147.3572  138.3434  153.8234 C   0  0  0  0  0  0  0  0  0  0  0  0
  146.5729  138.9949  154.5120 O   0  0  0  0  0  0  0  0  0  0  0  0
  148.6971  138.4231  153.8849 N   0  0  0  0  0  0  0  0  0  0  0  0
  149.4942  139.2182  154.7519 C   0  0  0  0  0  0  0  0  0  0  0  0
  150.9078  139.2487  154.7314 C   0  0  0  0  0  0  0  0  0  0  0  0
  151.5849  140.0930  155.6318 C   0  0  0  0  0  0  0  0  0  0  0  0
  150.8376  140.8958  156.5257 C   0  0  0  0  0  0  0  0  0  0  0  0
  151.4976  141.7477  157.4380 N   0  0  0  0  0  0  0  0  0  0  0  0
  151.6015  141.3137  158.8301 C   0  0  0  0  0  0  0  0  0  0  0  0
  152.5907  142.2066  159.5976 C   0  0  0  0  0  0  0  0  0  0  0  0
  152.2000  143.5701  159.4754 O   0  0  0  0  0  0  0  0  0  0  0  0
  152.2128  144.0041  158.1196 C   0  0  0  0  0  0  0  0  0  0  0  0
  151.2129  143.1737  157.2962 C   0  0  0  0  0  0  0  0  0  0  0  0
  149.4822  140.8700  156.5352 N   0  0  0  0  0  0  0  0  0  0  0  0
  148.8370  140.0604  155.6703 C   0  0  0  0  0  0  0  0  0  0  0  0
  145.7696  134.2610  154.4767 H   0  0  0  0  0  0  0  0  0  0  0  0
  146.8774  135.6428  154.4749 H   0  0  0  0  0  0  0  0  0  0  0  0
  147.4984  134.0317  154.2448 H   0  0  0  0  0  0  0  0  0  0  0  0
  145.7377  132.8278  152.2179 H   0  0  0  0  0  0  0  0  0  0  0  0
  147.4887  132.9664  152.1609 H   0  0  0  0  0  0  0  0  0  0  0  0
  146.5407  133.5255  150.8055 H   0  0  0  0  0  0  0  0  0  0  0  0
  144.3728  136.2839  150.2171 H   0  0  0  0  0  0  0  0  0  0  0  0
  145.0608  134.6746  150.1397 H   0  0  0  0  0  0  0  0  0  0  0  0
  146.1014  136.0904  150.0384 H   0  0  0  0  0  0  0  0  0  0  0  0
  143.2141  135.9070  152.4784 H   0  0  0  0  0  0  0  0  0  0  0  0
  144.0752  135.0466  153.7452 H   0  0  0  0  0  0  0  0  0  0  0  0
  143.6923  134.2487  152.2245 H   0  0  0  0  0  0  0  0  0  0  0  0
  145.2924  137.8495  151.7516 H   0  0  0  0  0  0  0  0  0  0  0  0
  144.9136  137.3951  153.3709 H   0  0  0  0  0  0  0  0  0  0  0  0
  147.6845  136.9880  152.3635 H   0  0  0  0  0  0  0  0  0  0  0  0
  149.2085  137.8959  153.1922 H   0  0  0  0  0  0  0  0  0  0  0  0
  151.4851  138.6534  154.0411 H   0  0  0  0  0  0  0  0  0  0  0  0
  152.6645  140.1048  155.6337 H   0  0  0  0  0  0  0  0  0  0  0  0
  150.6169  141.3607  159.2971 H   0  0  0  0  0  0  0  0  0  0  0  0
  151.9377  140.2772  158.8794 H   0  0  0  0  0  0  0  0  0  0  0  0
  152.6023  141.9329  160.6525 H   0  0  0  0  0  0  0  0  0  0  0  0
  153.6069  142.0730  159.2230 H   0  0  0  0  0  0  0  0  0  0  0  0
  151.9433  145.0596  158.0832 H   0  0  0  0  0  0  0  0  0  0  0  0
  153.2201  143.9187  157.7085 H   0  0  0  0  0  0  0  0  0  0  0  0
  151.2579  143.4946  156.2567 H   0  0  0  0  0  0  0  0  0  0  0  0
  150.1966  143.3645  157.6427 H   0  0  0  0  0  0  0  0  0  0  0  0
  147.7579  140.0831  155.7191 H   0  0  0  0  0  0  0  0  0  0  0  0
  147.3276  135.2858  152.2242 H   0  0  0  0  0  0  0  0  0  0  0  0
  1  2  1  0  0  0  0
  1 24  1  0  0  0  0
  1 25  1  0  0  0  0
  1 26  1  0  0  0  0
  2  3  1  0  0  0  0
  2  4  1  0  0  0  0
  2 51  1  0  0  0  0
  3 27  1  0  0  0  0
  3 28  1  0  0  0  0
  3 29  1  0  0  0  0
  4  5  1  0  0  0  0
  4  6  1  0  0  0  0
  4  7  1  0  0  0  0
  5 30  1  0  0  0  0
  5 31  1  0  0  0  0
  5 32  1  0  0  0  0
  6 33  1  0  0  0  0
  6 34  1  0  0  0  0
  6 35  1  0  0  0  0
  7  8  1  0  0  0  0
  7 36  1  0  0  0  0
  7 37  1  0  0  0  0
  8  9  1  0  0  0  0
  8 38  1  0  0  0  0
  9 10  2  0  0  0  0
  9 11  1  0  0  0  0
 11 12  1  0  0  0  0
 11 39  1  0  0  0  0
 12 23  1  0  0  0  0
 12 13  2  0  0  0  0
 13 14  1  0  0  0  0
 13 40  1  0  0  0  0
 14 15  2  0  0  0  0
 14 41  1  0  0  0  0
 15 16  1  0  0  0  0
 15 22  1  0  0  0  0
 16 21  1  0  0  0  0
 16 17  1  0  0  0  0
 17 18  1  0  0  0  0
 17 42  1  0  0  0  0
 17 43  1  0  0  0  0
 18 19  1  0  0  0  0
 18 44  1  0  0  0  0
 18 45  1  0  0  0  0
 19 20  1  0  0  0  0
 20 21  1  0  0  0  0
 20 46  1  0  0  0  0
 20 47  1  0  0  0  0
 21 48  1  0  0  0  0
 21 49  1  0  0  0  0
 22 23  2  0  0  0  0
 23 50  1  0  0  0  0
M  CHG  1   2   1
M  END
> <s_m_source_file>
AV-unprocessed.smi

> <i_m_source_file_index>
1559

> <i_lp_mmshare_version>
43012

> <i_f3d_flags>
0

> <s_epik_input>
W0NIM11OKFtDSDNdKUMoW0NIM10pKFtDSDNdKVtDSDJdW05IXUMoPU8pW05IXWMxW2NIXVtjSF1jKG5bY0hdMSlOMltDSDJdW0NIMl1PW0NIMl1bQ0gyXTI=

> <s_epik_cmdline>
J2VwaWtfcHl0aG9uJywgJy1waCcsICc3LjAnLCAnLXRuJywgJzgnLCAnLW1hJywgJzIwMCcsICctbWV0YWxfYmluZGluZycsICctaW1hZScsICc8aW5maWxlLm1hZT4nLCAnLW9tYWUnLCAnPG91dGZpbGUubWFlPic=

> <r_lp_tautomer_probability>
1

> <r_epik_Ionization_Penalty>
0.00606683

> <r_epik_Ionization_Penalty_Charging>
0.00433655

> <r_epik_Ionization_Penalty_Neutral>
0.00173028

> <r_epik_State_Penalty>
-0

> <r_epik_Charging_Adjusted_Penalty>
0.00433655

> <i_epik_Tot_Q>
1

> <i_epik_Tot_abs_Q>
1

> <r_epik_Metal_State_Penalty>
-0

> <b_epik_Metal_Only>
0

> <s_lp_Force_Field>
OPLS_2005

> <r_lp_Energy>
39.7319

> <b_lp_Chiralities_Consistent>
1

> <s_lp_Variant>
AV-unprocessed.smi:1559-1

> <Gold.Version>
5.8.1

> <Gold.Id.Protein>
6NUR|6NUR_protein|mol2

> <Gold.PLP.Fitness>
47.1219

> <Gold.PLP.PLP>
-38.5565

> <Gold.PLP.part.hbond>
-3.2214

> <Gold.PLP.part.metal>
0.0000

> <Gold.PLP.part.buried>
-2.9286

> <Gold.PLP.part.nonpolar>
-32.6892

> <Gold.PLP.part.repulsive>
0.2523

> <Gold.PLP.ligand.clash>
0.0000

> <Gold.PLP.ligand.torsion>
1.4493

> <Gold.PLP.Chemscore.Hbond>
3.6625

> <Gold.PLP.Chemscore.CHOScore>
0.0000

> <Gold.PLP.Chemscore.Metal>
0.0000

> <Gold.Chemscore.Hbonds>
donor molecule, donor type, donor heavy atom, donor atom, acceptor molecule, acceptor atom, score
      L1  H     2    51       P1  7948  2.00
      L1  H     8    38       P1  7948  1.00
      L1  H    11    39       P1  7948  0.65

> <Gold.PLP.Chemscore.Internal.Correction>
0.4765

> <Gold.Rescore>
     Score         DG    S(hbond)    S(metal)    S(lipo)     H(rot)  DE(clash)    DE(int)     intcor
     17.53     -21.54       2.76        0.00      94.32       1.64       0.09       3.91       ----

> <Gold.Chemscore.Fitness>
17.5348

> <Gold.Chemscore.DG>
-21.5401

> <Gold.Chemscore.ZeroCoef>
-5.4800

> <Gold.Chemscore.Hbond>
2.7626

> <Gold.Chemscore.Metal>
0.0000

> <Gold.Chemscore.Lipo>
94.3173

> <Gold.Chemscore.Internal_Hbond>
0.0000

> <Gold.Chemscore.DEClash>
0.0918

> <Gold.Chemscore.DEInternal>
3.9135

> <Gold.Chemscore.Rot>
1.6414

> <Gold.Chemscore.Internal.Correction>
   9.000000E+99

> <Gold.Chemscore.Hbonds>
donor molecule, donor type, donor heavy atom, donor atom, acceptor molecule, acceptor atom, score
      L1  H     2    51       P1  7948  1.00
      L1  H     8    38       P1  7948  0.95
      L1  H    11    39       P1  7948  0.63

> <Gold.Chemscore.Hbond.Weighted>
-9.2271

> <Gold.Chemscore.Metal.Weighted>
-0.0000

> <Gold.Chemscore.Lipo.Weighted>
-11.0351

> <Gold.Chemscore.Internal_Hbond.Weighted>
0.0000

> <Gold.Chemscore.DEClash.Weighted>
0.0918

> <Gold.Chemscore.DEInternal.Weighted>
3.9135

> <Gold.Chemscore.Rot.Weighted>
4.2021

> <Gold.Chemscore.Internal.Correction.Weighted>
   9.000000E+99

> <Gold.Protein.RotatedTorsions>
[ 6907 6896 6895 6894 ] final   71.02 input  -60.11 | X-H torsion
[ 7974 7965 7964 7962 ] final   17.71 input  175.53 | X-H torsion
[ 8008 7997 7996 7995 ] final   29.29 input   59.86 | X-H torsion
[ 10167 10162 10161 10158 ] final  -40.55 input  -65.29 | X-H torsion
[ 10718 10713 10712 10709 ] final  116.15 input   66.30 | X-H torsion
[ 10763 10752 10751 10750 ] final  -12.78 input  -60.55 | X-H torsion
[ 11005 11000 10999 10996 ] final  -84.95 input  -57.11 | X-H torsion

> <Gold.Protein.ActiveResidues>
 VAL166  LYS551  ARG553  GLY616  TRP617  ASP618  TYR619  PRO620  LYS621  CYS622 
 ASP623  PHE694  ASN695  SER759  ASP760  ASP761  ALA762  ILE779  LEU786  VAL792 
 PHE793  MET794  SER795  GLU796  ALA797  LYS798  CYS799  TRP800  GLU811  SER814 

> <Gold.Protein.RotatedAtoms>
  152.4785  134.4783  159.9657 H   0  0  0  0  0  0  0  0  0  0  0  0  # atno 6907 bound_to 6896
  151.4794  133.3544  159.2843 H   0  0  0  0  0  0  0  0  0  0  0  0  # atno 6908 bound_to 6896
  150.8840  134.8261  159.7306 H   0  0  0  0  0  0  0  0  0  0  0  0  # atno 6909 bound_to 6896
  146.2209  139.8563  142.8613 H   0  0  0  0  0  0  0  0  0  0  0  0  # atno 7974 bound_to 7965
  155.0722  140.3201  155.4627 H   0  0  0  0  0  0  0  0  0  0  0  0  # atno 8008 bound_to 7997
  156.2788  140.2110  156.5795 H   0  0  0  0  0  0  0  0  0  0  0  0  # atno 8009 bound_to 7997
  154.7045  140.0504  157.0478 H   0  0  0  0  0  0  0  0  0  0  0  0  # atno 8010 bound_to 7997
  140.7030  143.3146  151.2941 H   0  0  0  0  0  0  0  0  0  0  0  0  # atno 10167 bound_to 10162
  157.6178  131.1022  150.7432 H   0  0  0  0  0  0  0  0  0  0  0  0  # atno 10718 bound_to 10713
  153.5035  135.7017  153.5819 H   0  0  0  0  0  0  0  0  0  0  0  0  # atno 10763 bound_to 10752
  153.3940  135.3889  155.1942 H   0  0  0  0  0  0  0  0  0  0  0  0  # atno 10764 bound_to 10752
  154.8709  135.3865  154.4508 H   0  0  0  0  0  0  0  0  0  0  0  0  # atno 10765 bound_to 10752
  141.1646  133.7373  156.8943 H   0  0  0  0  0  0  0  0  0  0  0  0  # atno 11005 bound_to 11000
  145.2750  141.0121  143.3750 LP  0  0  0  0  0  0  0  0  0  0  0  0  # atno 17320 bound_to 7965
  144.9194  139.4430  143.6548 LP  0  0  0  0  0  0  0  0  0  0  0  0  # atno 17321 bound_to 7965
  139.6581  144.0239  152.2673 LP  0  0  0  0  0  0  0  0  0  0  0  0  # atno 17342 bound_to 10162
  139.9798  144.6436  150.7911 LP  0  0  0  0  0  0  0  0  0  0  0  0  # atno 17343 bound_to 10162
  156.7796  130.4855  149.5403 LP  0  0  0  0  0  0  0  0  0  0  0  0  # atno 17370 bound_to 10713
  156.1308  130.6177  151.0331 LP  0  0  0  0  0  0  0  0  0  0  0  0  # atno 17371 bound_to 10713
  140.1627  134.9155  157.2734 LP  0  0  0  0  0  0  0  0  0  0  0  0  # atno 17394 bound_to 11000
  140.2593  134.3590  155.7412 LP  0  0  0  0  0  0  0  0  0  0  0  0  # atno 17395 bound_to 11000

$$$$
