AV-unprocessed.smi:1856|AV-procd|sdf|7534|dock2
  -GOLD-   22720 9243D 1   1.00000     0.00000
 Structure written by MMmdl.
 44 45  0  0  0  0  0  0  0  0  1 V2000
  144.0778  144.4438  154.2486 C   0  0  0  0  0  0  0  0  0  0  0  0
  145.2376  143.4477  154.3573 C   0  0  0  0  0  0  0  0  0  0  0  0
  145.4670  142.9685  155.8019 C   0  0  0  0  0  0  0  0  0  0  0  0
  146.4276  141.7791  155.8914 C   0  0  0  0  0  0  0  0  0  0  0  0
  146.0044  140.6529  156.1521 O   0  0  0  0  0  0  0  0  0  0  0  0
  147.7266  142.0487  155.6858 N   0  0  0  0  0  0  0  0  0  0  0  0
  148.8164  141.0757  155.7484 C   0  0  1  0  0  0  0  0  0  0  0  0
  149.4401  140.8960  154.3585 C   0  0  0  0  0  0  0  0  0  0  0  0
  149.8329  141.5388  156.7635 C   0  0  0  0  0  0  0  0  0  0  0  0
  149.7937  142.7614  157.3012 N   0  0  0  0  0  0  0  0  0  0  0  0
  150.8869  142.7641  158.1427 C   0  0  0  0  0  0  0  0  0  0  0  0
  151.3821  143.7726  158.9999 C   0  0  0  0  0  0  0  0  0  0  0  0
  152.5362  143.5452  159.7771 C   0  0  0  0  0  0  0  0  0  0  0  0
  153.2104  142.3090  159.7079 C   0  0  0  0  0  0  0  0  0  0  0  0
  152.7343  141.2916  158.8586 C   0  0  0  0  0  0  0  0  0  0  0  0
  151.5809  141.5233  158.0847 C   0  0  0  0  0  0  0  0  0  0  0  0
  150.8649  140.7545  157.1707 N   0  0  0  0  0  0  0  0  0  0  0  0
  151.1920  139.3966  156.7539 C   0  0  0  0  0  0  0  0  0  0  0  0
  151.8005  139.3213  155.3379 C   0  0  2  0  0  0  0  0  0  0  0  0
  151.1633  138.2564  154.4318 C   0  0  0  0  0  0  0  0  0  0  0  0
  153.1786  139.0417  155.4608 O   0  0  0  0  0  0  0  0  0  0  0  0
  143.9413  144.7689  153.2171 H   0  0  0  0  0  0  0  0  0  0  0  0
  144.2612  145.3310  154.8552 H   0  0  0  0  0  0  0  0  0  0  0  0
  143.1415  143.9957  154.5825 H   0  0  0  0  0  0  0  0  0  0  0  0
  145.0319  142.5954  153.7081 H   0  0  0  0  0  0  0  0  0  0  0  0
  146.1459  143.9154  153.9753 H   0  0  0  0  0  0  0  0  0  0  0  0
  145.8540  143.7933  156.4025 H   0  0  0  0  0  0  0  0  0  0  0  0
  144.5180  142.6739  156.2515 H   0  0  0  0  0  0  0  0  0  0  0  0
  147.9854  143.0050  155.4905 H   0  0  0  0  0  0  0  0  0  0  0  0
  148.3932  140.1183  156.0497 H   0  0  0  0  0  0  0  0  0  0  0  0
  150.2433  140.1591  154.3854 H   0  0  0  0  0  0  0  0  0  0  0  0
  149.8598  141.8314  153.9863 H   0  0  0  0  0  0  0  0  0  0  0  0
  148.6993  140.5514  153.6367 H   0  0  0  0  0  0  0  0  0  0  0  0
  150.8722  144.7227  159.0594 H   0  0  0  0  0  0  0  0  0  0  0  0
  152.9055  144.3227  160.4297 H   0  0  0  0  0  0  0  0  0  0  0  0
  154.0933  142.1420  160.3074 H   0  0  0  0  0  0  0  0  0  0  0  0
  153.2485  140.3439  158.8059 H   0  0  0  0  0  0  0  0  0  0  0  0
  151.8663  138.9533  157.4876 H   0  0  0  0  0  0  0  0  0  0  0  0
  150.2796  138.8005  156.7952 H   0  0  0  0  0  0  0  0  0  0  0  0
  151.7109  140.2906  154.8497 H   0  0  0  0  0  0  0  0  0  0  0  0
  150.1124  138.4746  154.2399 H   0  0  0  0  0  0  0  0  0  0  0  0
  151.2231  137.2653  154.8826 H   0  0  0  0  0  0  0  0  0  0  0  0
  151.6649  138.2137  153.4648 H   0  0  0  0  0  0  0  0  0  0  0  0
  153.4829  138.6718  154.6459 H   0  0  0  0  0  0  0  0  0  0  0  0
  1  2  1  0  0  0  0
  1 22  1  0  0  0  0
  1 23  1  0  0  0  0
  1 24  1  0  0  0  0
  2  3  1  0  0  0  0
  2 25  1  0  0  0  0
  2 26  1  0  0  0  0
  3  4  1  0  0  0  0
  3 27  1  0  0  0  0
  3 28  1  0  0  0  0
  4  5  2  0  0  0  0
  4  6  1  0  0  0  0
  6  7  1  0  0  0  0
  6 29  1  0  0  0  0
  7  8  1  0  0  0  0
  7  9  1  0  0  0  0
  7 30  1  0  0  0  0
  8 31  1  0  0  0  0
  8 32  1  0  0  0  0
  8 33  1  0  0  0  0
  9 17  1  0  0  0  0
  9 10  2  0  0  0  0
 10 11  1  0  0  0  0
 11 16  2  0  0  0  0
 11 12  1  0  0  0  0
 12 13  2  0  0  0  0
 12 34  1  0  0  0  0
 13 14  1  0  0  0  0
 13 35  1  0  0  0  0
 14 15  2  0  0  0  0
 14 36  1  0  0  0  0
 15 16  1  0  0  0  0
 15 37  1  0  0  0  0
 16 17  1  0  0  0  0
 17 18  1  0  0  0  0
 18 19  1  0  0  0  0
 18 38  1  0  0  0  0
 18 39  1  0  0  0  0
 19 20  1  0  0  0  0
 19 21  1  0  0  0  0
 19 40  1  0  0  0  0
 20 41  1  0  0  0  0
 20 42  1  0  0  0  0
 20 43  1  0  0  0  0
 21 44  1  0  0  0  0
M  END
> <s_m_source_file>
AV-unprocessed.smi

> <i_m_source_file_index>
1856

> <i_lp_mmshare_version>
43012

> <i_f3d_flags>
0

> <s_epik_input>
W0NIM11bQ0gyXVtDSDJdQyg9TylbTkhdW0NASF0oW0NIM10pYyhuMSluKFtDSDJdW0NASF0oW0NIM10pW09IXSljKGMxMilbY0hdW2NIXVtjSF1bY0hdMg==

> <s_epik_cmdline>
J2VwaWtfcHl0aG9uJywgJy1waCcsICc3LjAnLCAnLXRuJywgJzgnLCAnLW1hJywgJzIwMCcsICctbWV0YWxfYmluZGluZycsICctaW1hZScsICc8aW5maWxlLm1hZT4nLCAnLW9tYWUnLCAnPG91dGZpbGUubWFlPic=

> <r_epik_Ionization_Penalty>
0.134222

> <r_epik_Ionization_Penalty_Charging>
0

> <r_epik_Ionization_Penalty_Neutral>
0.134222

> <r_epik_State_Penalty>
0.123585

> <r_epik_Charging_Adjusted_Penalty>
0.123585

> <i_epik_Tot_Q>
0

> <i_epik_Tot_abs_Q>
0

> <r_epik_Metal_State_Penalty>
0.100548

> <b_epik_Metal_Only>
0

> <s_lp_Force_Field>
OPLS_2005

> <r_lp_Energy>
2.96492

> <b_lp_Chiralities_Consistent>
1

> <s_lp_Variant>
AV-unprocessed.smi:1856-2

> <Gold.Version>
5.8.1

> <Gold.Id.Protein>
6NUR|6NUR_protein|mol2

> <Gold.PLP.Fitness>
44.9782

> <Gold.PLP.PLP>
-41.1953

> <Gold.PLP.part.hbond>
-1.9065

> <Gold.PLP.part.metal>
0.0000

> <Gold.PLP.part.buried>
-5.7232

> <Gold.PLP.part.nonpolar>
-35.3670

> <Gold.PLP.part.repulsive>
1.4455

> <Gold.PLP.ligand.clash>
0.0000

> <Gold.PLP.ligand.torsion>
1.2103

> <Gold.PLP.Chemscore.Hbond>
2.0000

> <Gold.PLP.Chemscore.CHOScore>
0.0000

> <Gold.PLP.Chemscore.Metal>
0.0000

> <Gold.Chemscore.Hbonds>
donor molecule, donor type, donor heavy atom, donor atom, acceptor molecule, acceptor atom, score
      L1  H     6    29       P1  8028  1.00
      P1  H  7997  8010       L1    21  1.00

> <Gold.PLP.Chemscore.Internal.Correction>
0.2034

> <Gold.Rescore>
     Score         DG    S(hbond)    S(metal)    S(lipo)     H(rot)  DE(clash)    DE(int)     intcor
     15.79     -17.10       1.66        0.00     105.54       2.45       0.12       1.19       ----

> <Gold.Chemscore.Fitness>
15.7870

> <Gold.Chemscore.DG>
-17.1011

> <Gold.Chemscore.ZeroCoef>
-5.4800

> <Gold.Chemscore.Hbond>
1.6571

> <Gold.Chemscore.Metal>
0.0000

> <Gold.Chemscore.Lipo>
105.5380

> <Gold.Chemscore.Internal_Hbond>
0.0000

> <Gold.Chemscore.DEClash>
0.1219

> <Gold.Chemscore.DEInternal>
1.1923

> <Gold.Chemscore.Rot>
2.4459

> <Gold.Chemscore.Internal.Correction>
   9.000000E+99

> <Gold.Chemscore.Hbonds>
donor molecule, donor type, donor heavy atom, donor atom, acceptor molecule, acceptor atom, score
      L1  H     6    29       P1  8028  0.82
      P1  H  7997  8010       L1    21  0.83

> <Gold.Chemscore.Hbond.Weighted>
-5.5346

> <Gold.Chemscore.Metal.Weighted>
-0.0000

> <Gold.Chemscore.Lipo.Weighted>
-12.3480

> <Gold.Chemscore.Internal_Hbond.Weighted>
0.0000

> <Gold.Chemscore.DEClash.Weighted>
0.1219

> <Gold.Chemscore.DEInternal.Weighted>
1.1923

> <Gold.Chemscore.Rot.Weighted>
6.2614

> <Gold.Chemscore.Internal.Correction.Weighted>
   9.000000E+99

> <Gold.Protein.RotatedTorsions>
[ 6907 6896 6895 6894 ] final  164.72 input  -60.11 | X-H torsion
[ 7974 7965 7964 7962 ] final   49.53 input  175.53 | X-H torsion
[ 8008 7997 7996 7995 ] final   83.19 input   59.86 | X-H torsion
[ 10167 10162 10161 10158 ] final    6.79 input  -65.29 | X-H torsion
[ 10718 10713 10712 10709 ] final  -57.04 input   66.30 | X-H torsion
[ 10763 10752 10751 10750 ] final -158.93 input  -60.55 | X-H torsion
[ 11005 11000 10999 10996 ] final  105.36 input  -57.11 | X-H torsion

> <Gold.Protein.ActiveResidues>
 VAL166  LYS551  ARG553  GLY616  TRP617  ASP618  TYR619  PRO620  LYS621  CYS622 
 ASP623  PHE694  ASN695  SER759  ASP760  ASP761  ALA762  ILE779  LEU786  VAL792 
 PHE793  MET794  SER795  GLU796  ALA797  LYS798  CYS799  TRP800  GLU811  SER814 

> <Gold.Protein.RotatedAtoms>
  151.9055  133.3548  159.3845 H   0  0  0  0  0  0  0  0  0  0  0  0  # atno 6907 bound_to 6896
  150.7070  134.4785  159.5468 H   0  0  0  0  0  0  0  0  0  0  0  0  # atno 6908 bound_to 6896
  152.2381  134.8256  160.0515 H   0  0  0  0  0  0  0  0  0  0  0  0  # atno 6909 bound_to 6896
  146.0099  139.4532  142.9962 H   0  0  0  0  0  0  0  0  0  0  0  0  # atno 7974 bound_to 7965
  155.9207  140.3421  155.6170 H   0  0  0  0  0  0  0  0  0  0  0  0  # atno 8008 bound_to 7997
  155.7277  140.0791  157.2321 H   0  0  0  0  0  0  0  0  0  0  0  0  # atno 8009 bound_to 7997
  154.4069  140.1594  156.2461 H   0  0  0  0  0  0  0  0  0  0  0  0  # atno 8010 bound_to 7997
  140.6408  143.7779  150.7425 H   0  0  0  0  0  0  0  0  0  0  0  0  # atno 10167 bound_to 10162
  156.1241  130.4164  150.0387 H   0  0  0  0  0  0  0  0  0  0  0  0  # atno 10718 bound_to 10713
  154.7516  135.3094  154.8546 H   0  0  0  0  0  0  0  0  0  0  0  0  # atno 10763 bound_to 10752
  153.9332  135.6783  153.4749 H   0  0  0  0  0  0  0  0  0  0  0  0  # atno 10764 bound_to 10752
  153.1112  135.4865  154.8967 H   0  0  0  0  0  0  0  0  0  0  0  0  # atno 10765 bound_to 10752
  139.8801  134.9333  156.5503 H   0  0  0  0  0  0  0  0  0  0  0  0  # atno 11005 bound_to 11000
  145.7357  141.0026  143.1327 LP  0  0  0  0  0  0  0  0  0  0  0  0  # atno 17320 bound_to 7965
  144.6949  139.9039  143.7460 LP  0  0  0  0  0  0  0  0  0  0  0  0  # atno 17321 bound_to 7965
  140.1410  143.4441  152.2193 LP  0  0  0  0  0  0  0  0  0  0  0  0  # atno 17342 bound_to 10162
  139.5617  144.7410  151.4136 LP  0  0  0  0  0  0  0  0  0  0  0  0  # atno 17343 bound_to 10162
  156.8317  130.9395  151.3637 LP  0  0  0  0  0  0  0  0  0  0  0  0  # atno 17370 bound_to 10713
  157.6424  130.8816  149.9473 LP  0  0  0  0  0  0  0  0  0  0  0  0  # atno 17371 bound_to 10713
  140.8245  133.8327  155.8926 LP  0  0  0  0  0  0  0  0  0  0  0  0  # atno 17394 bound_to 11000
  140.9387  134.1929  157.4813 LP  0  0  0  0  0  0  0  0  0  0  0  0  # atno 17395 bound_to 11000

$$$$
