AV-unprocessed.smi:99|AV-procd|sdf|888|dock8
  -GOLD-   2262017373D 1   1.00000     0.00000
 Structure written by MMmdl.
 52 55  0  0  0  0  0  0  0  0  2 V2000
  148.0951  137.3204  160.3420 O   0  0  0  0  0  0  0  0  0  0  0  0
  148.3787  136.1896  159.9421 C   0  0  0  0  0  0  0  0  0  0  0  0
  149.1498  135.9487  158.8628 O   0  0  0  0  0  0  0  0  0  0  0  0
  150.0337  136.9492  158.3803 C   0  0  0  0  0  0  0  0  0  0  0  0
  150.1603  136.8477  156.8473 C   0  0  1  0  0  0  0  0  0  0  0  0
  148.8737  136.5492  156.3187 O   0  0  0  0  0  0  0  0  0  0  0  0
  148.2749  137.7358  155.9011 C   0  0  2  0  0  0  0  0  0  0  0  0
  147.0428  137.4271  155.0623 N   0  0  0  0  0  0  0  0  0  0  0  0
  147.0851  136.5338  154.0013 C   0  0  0  0  0  0  0  0  0  0  0  0
  146.0032  136.2924  153.2329 C   0  0  0  0  0  0  0  0  0  0  0  0
  144.7588  137.0029  153.5057 C   0  0  0  0  0  0  0  0  0  0  0  0
  143.7628  136.7418  152.8340 O   0  0  0  0  0  0  0  0  0  0  0  0
  144.7618  137.9393  154.4966 N   0  5  0  0  0  0  0  0  0  0  0  0
  145.8626  138.2008  155.2606 C   0  0  0  0  0  0  0  0  0  0  0  0
  145.8831  139.0909  156.1111 O   0  0  0  0  0  0  0  0  0  0  0  0
  149.4301  138.4643  155.1922 C   0  0  2  0  0  0  0  0  0  0  0  0
  149.7156  137.9774  153.8926 O   0  0  0  0  0  0  0  0  0  0  0  0
  150.6081  138.1281  156.1004 C   0  0  1  0  0  0  0  0  0  0  0  0
  150.8479  139.2244  156.9808 O   0  0  0  0  0  0  0  0  0  0  0  0
  151.0753  140.4715  156.5079 C   0  0  0  0  0  0  0  0  0  0  0  0
  151.0248  140.7768  155.3151 O   0  0  0  0  0  0  0  0  0  0  0  0
  151.4438  141.4360  157.5836 C   0  0  0  0  0  0  0  0  0  0  0  0
  151.1756  142.8127  157.4006 C   0  0  0  0  0  0  0  0  0  0  0  0
  151.5494  143.7528  158.3800 C   0  0  0  0  0  0  0  0  0  0  0  0
  152.1945  143.3276  159.5557 C   0  0  0  0  0  0  0  0  0  0  0  0
  152.4628  141.9603  159.7521 C   0  0  0  0  0  0  0  0  0  0  0  0
  152.0890  141.0184  158.7740 C   0  0  0  0  0  0  0  0  0  0  0  0
  147.9460  134.9409  160.6325 C   0  0  0  0  0  0  0  0  0  0  0  0
  148.1295  133.6950  159.9888 C   0  0  0  0  0  0  0  0  0  0  0  0
  147.6961  132.5021  160.5987 C   0  0  0  0  0  0  0  0  0  0  0  0
  147.0758  132.5405  161.8610 C   0  0  0  0  0  0  0  0  0  0  0  0
  146.8912  133.7732  162.5136 C   0  0  0  0  0  0  0  0  0  0  0  0
  147.3238  134.9672  161.9050 C   0  0  0  0  0  0  0  0  0  0  0  0
  149.6459  137.9286  158.6617 H   0  0  0  0  0  0  0  0  0  0  0  0
  151.0191  136.8491  158.8382 H   0  0  0  0  0  0  0  0  0  0  0  0
  150.8243  136.0193  156.5981 H   0  0  0  0  0  0  0  0  0  0  0  0
  147.8927  138.2939  156.7583 H   0  0  0  0  0  0  0  0  0  0  0  0
  148.0011  136.0235  153.7491 H   0  0  0  0  0  0  0  0  0  0  0  0
  146.0626  135.5959  152.4094 H   0  0  0  0  0  0  0  0  0  0  0  0
  149.2249  139.5343  155.1366 H   0  0  0  0  0  0  0  0  0  0  0  0
  149.3973  137.0894  153.8325 H   0  0  0  0  0  0  0  0  0  0  0  0
  151.4888  137.9095  155.4948 H   0  0  0  0  0  0  0  0  0  0  0  0
  150.6914  143.1646  156.5011 H   0  0  0  0  0  0  0  0  0  0  0  0
  151.3445  144.8021  158.2261 H   0  0  0  0  0  0  0  0  0  0  0  0
  152.4844  144.0493  160.3052 H   0  0  0  0  0  0  0  0  0  0  0  0
  152.9604  141.6327  160.6529 H   0  0  0  0  0  0  0  0  0  0  0  0
  152.3188  139.9781  158.9520 H   0  0  0  0  0  0  0  0  0  0  0  0
  148.5943  133.6420  159.0148 H   0  0  0  0  0  0  0  0  0  0  0  0
  147.8367  131.5571  160.0953 H   0  0  0  0  0  0  0  0  0  0  0  0
  146.7413  131.6257  162.3277 H   0  0  0  0  0  0  0  0  0  0  0  0
  146.4135  133.8044  163.4816 H   0  0  0  0  0  0  0  0  0  0  0  0
  147.1590  135.8972  162.4291 H   0  0  0  0  0  0  0  0  0  0  0  0
  1  2  2  0  0  0  0
  2  3  1  0  0  0  0
  2 28  1  0  0  0  0
  3  4  1  0  0  0  0
  4  5  1  0  0  0  0
  4 34  1  0  0  0  0
  4 35  1  0  0  0  0
  5 18  1  0  0  0  0
  5  6  1  0  0  0  0
  5 36  1  0  0  0  0
  6  7  1  0  0  0  0
  7  8  1  0  0  0  0
  7 16  1  0  0  0  0
  7 37  1  0  0  0  0
  8 14  1  0  0  0  0
  8  9  1  0  0  0  0
  9 10  2  0  0  0  0
  9 38  1  0  0  0  0
 10 11  1  0  0  0  0
 10 39  1  0  0  0  0
 11 12  2  0  0  0  0
 11 13  1  0  0  0  0
 13 14  1  0  0  0  0
 14 15  2  0  0  0  0
 16 17  1  0  0  0  0
 16 18  1  0  0  0  0
 16 40  1  0  0  0  0
 17 41  1  0  0  0  0
 18 19  1  0  0  0  0
 18 42  1  0  0  0  0
 19 20  1  0  0  0  0
 20 21  2  0  0  0  0
 20 22  1  0  0  0  0
 22 27  1  0  0  0  0
 22 23  2  0  0  0  0
 23 24  1  0  0  0  0
 23 43  1  0  0  0  0
 24 25  2  0  0  0  0
 24 44  1  0  0  0  0
 25 26  1  0  0  0  0
 25 45  1  0  0  0  0
 26 27  2  0  0  0  0
 26 46  1  0  0  0  0
 27 47  1  0  0  0  0
 28 33  1  0  0  0  0
 28 29  2  0  0  0  0
 29 30  1  0  0  0  0
 29 48  1  0  0  0  0
 30 31  2  0  0  0  0
 30 49  1  0  0  0  0
 31 32  1  0  0  0  0
 31 50  1  0  0  0  0
 32 33  2  0  0  0  0
 32 51  1  0  0  0  0
 33 52  1  0  0  0  0
M  CHG  1  13  -1
M  END
> <s_m_source_file>
AV-unprocessed.smi

> <i_m_source_file_index>
99

> <i_lp_mmshare_version>
43012

> <i_f3d_flags>
0

> <s_epik_input>
W2NIXTFbY0hdW2NIXVtjSF1bY0hdYzFDKD1PKU9bQ0gyXVtDQEBIXTJPW0NAQEhdKG4zW2NIXVtjSF1jKD1PKVtuSF1jMz1PKVtDQEBIXShbT0hdKVtDQEhdMk9DKD1PKWM0W2NIXVtjSF1bY0hdW2NIXVtjSF00

> <s_epik_cmdline>
J2VwaWtfcHl0aG9uJywgJy1waCcsICc3LjAnLCAnLXRuJywgJzgnLCAnLW1hJywgJzIwMCcsICctbWV0YWxfYmluZGluZycsICctaW1hZScsICc8aW5maWxlLm1hZT4nLCAnLW9tYWUnLCAnPG91dGZpbGUubWFlPic=

> <r_lp_tautomer_probability>
1

> <r_epik_Ionization_Penalty>
2.89159

> <r_epik_Ionization_Penalty_Charging>
2.1077e-08

> <r_epik_Ionization_Penalty_Neutral>
2.89159

> <r_epik_State_Penalty>
2.88671

> <r_epik_Charging_Adjusted_Penalty>
2.88671

> <i_epik_Tot_Q>
-1

> <i_epik_Tot_abs_Q>
1

> <r_epik_Metal_State_Penalty>
0.0727308

> <b_epik_Metal_Only>
1

> <s_epik_Chemistry_Notes>
This compound has an ester and may undergo hydrolysis at high or low pH. This compound contains an acetal/aminal-like group ( X-CH(R)-Y where X, Y are N, S, or O) that may be acid/base labile, releasing an aldehyde.

> <s_lp_Force_Field>
OPLS_2005

> <r_lp_Energy>
52.0393

> <b_lp_Chiralities_Consistent>
1

> <s_lp_Variant>
AV-unprocessed.smi:99-24

> <Gold.Version>
5.8.1

> <Gold.Id.Protein>
6NUR|6NUR_protein|mol2

> <Gold.PLP.Fitness>
51.5314

> <Gold.PLP.PLP>
-43.9182

> <Gold.PLP.part.hbond>
-4.3270

> <Gold.PLP.part.metal>
0.0000

> <Gold.PLP.part.buried>
-4.8357

> <Gold.PLP.part.nonpolar>
-35.0693

> <Gold.PLP.part.repulsive>
0.3683

> <Gold.PLP.ligand.clash>
0.0000

> <Gold.PLP.ligand.torsion>
1.4525

> <Gold.PLP.Chemscore.Hbond>
2.3664

> <Gold.PLP.Chemscore.CHOScore>
1.0000

> <Gold.PLP.Chemscore.Metal>
0.0000

> <Gold.Chemscore.Hbonds>
donor molecule, donor type, donor heavy atom, donor atom, acceptor molecule, acceptor atom, score
      L1  H    17    41       P1  7948  0.25
      P1  H  6931  6943       L1     1  0.65
      P1  H  6934  6947       L1     1  0.67
      P1  H  7989  7998       L1    21  0.82
      L1  C     9    38       P1  7948  0.87

> <Gold.PLP.Chemscore.Internal.Correction>
0.4189

> <Gold.Rescore>
     Score         DG    S(hbond)    S(metal)    S(lipo)     H(rot)  DE(clash)    DE(int)     intcor
     15.78     -18.98       2.54        0.00     111.54       3.13       0.18       3.02       ----

> <Gold.Chemscore.Fitness>
15.7784

> <Gold.Chemscore.DG>
-18.9761

> <Gold.Chemscore.ZeroCoef>
-5.4800

> <Gold.Chemscore.Hbond>
2.5359

> <Gold.Chemscore.Metal>
0.0000

> <Gold.Chemscore.Lipo>
111.5433

> <Gold.Chemscore.Internal_Hbond>
0.0000

> <Gold.Chemscore.DEClash>
0.1798

> <Gold.Chemscore.DEInternal>
3.0178

> <Gold.Chemscore.Rot>
3.1346

> <Gold.Chemscore.Internal.Correction>
   9.000000E+99

> <Gold.Chemscore.Hbonds>
donor molecule, donor type, donor heavy atom, donor atom, acceptor molecule, acceptor atom, score
      L1  H    17    41       P1  7948  0.24
      P1  H  6931  6943       L1     1  0.59
      P1  H  6934  6947       L1     1  0.65
      P1  H  7989  7998       L1    21  0.79

> <Gold.Chemscore.Hbond.Weighted>
-8.4701

> <Gold.Chemscore.Metal.Weighted>
-0.0000

> <Gold.Chemscore.Lipo.Weighted>
-13.0506

> <Gold.Chemscore.Internal_Hbond.Weighted>
0.0000

> <Gold.Chemscore.DEClash.Weighted>
0.1798

> <Gold.Chemscore.DEInternal.Weighted>
3.0178

> <Gold.Chemscore.Rot.Weighted>
8.0246

> <Gold.Chemscore.Internal.Correction.Weighted>
   9.000000E+99

> <Gold.Protein.RotatedTorsions>
[ 6907 6896 6895 6894 ] final  101.87 input  -60.11 | X-H torsion
[ 7974 7965 7964 7962 ] final  -21.41 input  175.53 | X-H torsion
[ 8008 7997 7996 7995 ] final  -53.42 input   59.86 | X-H torsion
[ 10167 10162 10161 10158 ] final -113.37 input  -65.29 | X-H torsion
[ 10718 10713 10712 10709 ] final  -32.43 input   66.30 | X-H torsion
[ 10763 10752 10751 10750 ] final  -24.16 input  -60.55 | X-H torsion
[ 11005 11000 10999 10996 ] final   95.07 input  -57.11 | X-H torsion

> <Gold.Protein.ActiveResidues>
 VAL166  LYS551  ARG553  GLY616  TRP617  ASP618  TYR619  PRO620  LYS621  CYS622 
 ASP623  PHE694  ASN695  SER759  ASP760  ASP761  ALA762  ILE779  LEU786  VAL792 
 PHE793  MET794  SER795  GLU796  ALA797  LYS798  CYS799  TRP800  GLU811  SER814 

> <Gold.Protein.RotatedAtoms>
  152.5338  134.0061  159.7916 H   0  0  0  0  0  0  0  0  0  0  0  0  # atno 6907 bound_to 6896
  151.0271  133.5816  159.2672 H   0  0  0  0  0  0  0  0  0  0  0  0  # atno 6908 bound_to 6896
  151.2834  135.0727  159.9231 H   0  0  0  0  0  0  0  0  0  0  0  0  # atno 6909 bound_to 6896
  146.1734  140.4337  142.8523 H   0  0  0  0  0  0  0  0  0  0  0  0  # atno 7974 bound_to 7965
  154.4133  140.1200  156.5151 H   0  0  0  0  0  0  0  0  0  0  0  0  # atno 8008 bound_to 7997
  155.6759  140.3496  155.4817 H   0  0  0  0  0  0  0  0  0  0  0  0  # atno 8009 bound_to 7997
  155.9593  140.1120  157.0900 H   0  0  0  0  0  0  0  0  0  0  0  0  # atno 8010 bound_to 7997
  140.1126  143.4514  152.1743 H   0  0  0  0  0  0  0  0  0  0  0  0  # atno 10167 bound_to 10162
  156.3750  130.4346  149.7514 H   0  0  0  0  0  0  0  0  0  0  0  0  # atno 10718 bound_to 10713
  153.6793  135.6967  153.5123 H   0  0  0  0  0  0  0  0  0  0  0  0  # atno 10763 bound_to 10752
  153.2497  135.4279  155.0784 H   0  0  0  0  0  0  0  0  0  0  0  0  # atno 10764 bound_to 10752
  154.8404  135.3528  154.6337 H   0  0  0  0  0  0  0  0  0  0  0  0  # atno 10765 bound_to 10752
  139.8792  134.8879  156.3957 H   0  0  0  0  0  0  0  0  0  0  0  0  # atno 11005 bound_to 11000
  144.8199  140.6531  143.6360 LP  0  0  0  0  0  0  0  0  0  0  0  0  # atno 17320 bound_to 7965
  145.4277  139.1554  143.4039 LP  0  0  0  0  0  0  0  0  0  0  0  0  # atno 17321 bound_to 7965
  139.5611  144.7406  151.4152 LP  0  0  0  0  0  0  0  0  0  0  0  0  # atno 17342 bound_to 10162
  140.6917  143.7845  150.7265 LP  0  0  0  0  0  0  0  0  0  0  0  0  # atno 17343 bound_to 10162
  156.4627  130.7959  151.2979 LP  0  0  0  0  0  0  0  0  0  0  0  0  # atno 17370 bound_to 10713
  157.7487  131.0061  150.3137 LP  0  0  0  0  0  0  0  0  0  0  0  0  # atno 17371 bound_to 10713
  140.9302  133.7584  156.0015 LP  0  0  0  0  0  0  0  0  0  0  0  0  # atno 17394 bound_to 11000
  140.8339  134.3146  157.5339 LP  0  0  0  0  0  0  0  0  0  0  0  0  # atno 17395 bound_to 11000

$$$$
