AV-unprocessed.smi:2907|AV-procd|sdf|11166|dock8
  -GOLD-   2272016 53D 1   1.00000     0.00000
 Structure written by MMmdl.
 45 46  0  0  0  0  0  0  0  0  1 V2000
  148.5525  140.5863  154.0072 C   0  0  0  0  0  0  0  0  0  0  0  0
  149.1932  140.4423  155.3954 C   0  0  0  0  0  0  0  0  0  0  0  0
  150.7045  140.1395  155.3610 C   0  0  0  0  0  0  0  0  0  0  0  0
  151.0121  138.8967  154.5022 C   0  0  0  0  0  0  0  0  0  0  0  0
  150.2203  137.6452  154.9110 C   0  0  0  0  0  0  0  0  0  0  0  0
  151.2184  139.9380  156.7149 N   0  0  0  0  0  0  0  0  0  0  0  0
  152.4674  139.5672  157.0404 C   0  0  0  0  0  0  0  0  0  0  0  0
  153.3769  139.4332  156.2223 O   0  0  0  0  0  0  0  0  0  0  0  0
  152.7228  139.2799  158.5203 C   0  0  0  0  0  0  0  0  0  0  0  0
  153.9065  139.9869  158.9847 N   0  0  0  0  0  0  0  0  0  0  0  0
  155.1398  139.4463  158.8223 N   0  0  0  0  0  0  0  0  0  0  0  0
  155.9934  140.3124  159.2846 N   0  0  0  0  0  0  0  0  0  0  0  0
  155.3553  141.4418  159.7588 N   0  0  0  0  0  0  0  0  0  0  0  0
  154.0663  141.1870  159.5652 C   0  0  0  0  0  0  0  0  0  0  0  0
  152.9417  142.1319  159.8794 C   0  0  0  0  0  0  0  0  0  0  0  0
  152.8076  143.2364  158.8133 C   0  0  0  0  0  0  0  0  0  0  0  0
  151.6367  144.1810  159.1279 C   0  0  0  0  0  0  0  0  0  0  0  0
  151.7687  144.7832  160.5358 C   0  0  0  0  0  0  0  0  0  0  0  0
  151.8926  143.6827  161.6018 C   0  0  0  0  0  0  0  0  0  0  0  0
  153.0638  142.7354  161.2931 C   0  0  0  0  0  0  0  0  0  0  0  0
  147.4761  140.7353  154.0927 H   0  0  0  0  0  0  0  0  0  0  0  0
  148.7177  139.6935  153.4037 H   0  0  0  0  0  0  0  0  0  0  0  0
  148.9591  141.4393  153.4638 H   0  0  0  0  0  0  0  0  0  0  0  0
  149.0109  141.3501  155.9720 H   0  0  0  0  0  0  0  0  0  0  0  0
  148.6816  139.6397  155.9276 H   0  0  0  0  0  0  0  0  0  0  0  0
  151.2059  140.9891  154.8941 H   0  0  0  0  0  0  0  0  0  0  0  0
  150.8157  139.1161  153.4519 H   0  0  0  0  0  0  0  0  0  0  0  0
  152.0767  138.6697  154.5693 H   0  0  0  0  0  0  0  0  0  0  0  0
  150.5125  136.7883  154.3041 H   0  0  0  0  0  0  0  0  0  0  0  0
  149.1468  137.7863  154.7815 H   0  0  0  0  0  0  0  0  0  0  0  0
  150.4025  137.3894  155.9551 H   0  0  0  0  0  0  0  0  0  0  0  0
  150.5483  140.0263  157.4655 H   0  0  0  0  0  0  0  0  0  0  0  0
  151.8662  139.5816  159.1239 H   0  0  0  0  0  0  0  0  0  0  0  0
  152.8548  138.2070  158.6690 H   0  0  0  0  0  0  0  0  0  0  0  0
  152.0136  141.5610  159.8669 H   0  0  0  0  0  0  0  0  0  0  0  0
  153.7333  143.8103  158.7536 H   0  0  0  0  0  0  0  0  0  0  0  0
  152.6565  142.7883  157.8309 H   0  0  0  0  0  0  0  0  0  0  0  0
  151.5920  144.9772  158.3843 H   0  0  0  0  0  0  0  0  0  0  0  0
  150.6965  143.6335  159.0512 H   0  0  0  0  0  0  0  0  0  0  0  0
  152.6451  145.4313  160.5751 H   0  0  0  0  0  0  0  0  0  0  0  0
  150.9067  145.4149  160.7522 H   0  0  0  0  0  0  0  0  0  0  0  0
  152.0283  144.1322  162.5859 H   0  0  0  0  0  0  0  0  0  0  0  0
  150.9639  143.1126  161.6477 H   0  0  0  0  0  0  0  0  0  0  0  0
  153.0969  141.9389  162.0375 H   0  0  0  0  0  0  0  0  0  0  0  0
  154.0027  143.2833  161.3842 H   0  0  0  0  0  0  0  0  0  0  0  0
  1  2  1  0  0  0  0
  1 21  1  0  0  0  0
  1 22  1  0  0  0  0
  1 23  1  0  0  0  0
  2  3  1  0  0  0  0
  2 24  1  0  0  0  0
  2 25  1  0  0  0  0
  3  4  1  0  0  0  0
  3  6  1  0  0  0  0
  3 26  1  0  0  0  0
  4  5  1  0  0  0  0
  4 27  1  0  0  0  0
  4 28  1  0  0  0  0
  5 29  1  0  0  0  0
  5 30  1  0  0  0  0
  5 31  1  0  0  0  0
  6  7  1  0  0  0  0
  6 32  1  0  0  0  0
  7  8  2  0  0  0  0
  7  9  1  0  0  0  0
  9 10  1  0  0  0  0
  9 33  1  0  0  0  0
  9 34  1  0  0  0  0
 10 14  1  0  0  0  0
 10 11  1  0  0  0  0
 11 12  2  0  0  0  0
 12 13  1  0  0  0  0
 13 14  2  0  0  0  0
 14 15  1  0  0  0  0
 15 20  1  0  0  0  0
 15 16  1  0  0  0  0
 15 35  1  0  0  0  0
 16 17  1  0  0  0  0
 16 36  1  0  0  0  0
 16 37  1  0  0  0  0
 17 18  1  0  0  0  0
 17 38  1  0  0  0  0
 17 39  1  0  0  0  0
 18 19  1  0  0  0  0
 18 40  1  0  0  0  0
 18 41  1  0  0  0  0
 19 20  1  0  0  0  0
 19 42  1  0  0  0  0
 19 43  1  0  0  0  0
 20 44  1  0  0  0  0
 20 45  1  0  0  0  0
M  END
> <s_m_source_file>
AV-unprocessed.smi

> <i_m_source_file_index>
2907

> <i_lp_mmshare_version>
43012

> <i_f3d_flags>
0

> <s_epik_input>
W0NIM11bQ0gyXVtDSF0oW0NIMl1bQ0gzXSlbTkhdQyg9TylbQ0gyXW4xbm5uYzFbQ0hdMltDSDJdW0NIMl1bQ0gyXVtDSDJdW0NIMl0y

> <s_epik_cmdline>
J2VwaWtfcHl0aG9uJywgJy1waCcsICc3LjAnLCAnLXRuJywgJzgnLCAnLW1hJywgJzIwMCcsICctbWV0YWxfYmluZGluZycsICctaW1hZScsICc8aW5maWxlLm1hZT4nLCAnLW9tYWUnLCAnPG91dGZpbGUubWFlPic=

> <r_lp_tautomer_probability>
1

> <r_epik_Ionization_Penalty>
4.92512e-07

> <r_epik_Ionization_Penalty_Charging>
0

> <r_epik_Ionization_Penalty_Neutral>
4.92512e-07

> <r_epik_State_Penalty>
-0

> <r_epik_Charging_Adjusted_Penalty>
0

> <i_epik_Tot_Q>
0

> <i_epik_Tot_abs_Q>
0

> <r_epik_Metal_State_Penalty>
-0

> <b_epik_Metal_Only>
0

> <s_lp_Force_Field>
OPLS_2005

> <r_lp_Energy>
10.8377

> <b_lp_Chiralities_Consistent>
1

> <s_lp_Variant>
AV-unprocessed.smi:2907-1

> <Gold.Version>
5.8.1

> <Gold.Id.Protein>
6NUR|6NUR_protein|mol2

> <Gold.PLP.Fitness>
47.9154

> <Gold.PLP.PLP>
-46.7216

> <Gold.PLP.part.hbond>
-3.0000

> <Gold.PLP.part.metal>
0.0000

> <Gold.PLP.part.buried>
-2.0889

> <Gold.PLP.part.nonpolar>
-39.9789

> <Gold.PLP.part.repulsive>
0.0633

> <Gold.PLP.ligand.clash>
0.0000

> <Gold.PLP.ligand.torsion>
0.9521

> <Gold.PLP.Chemscore.Hbond>
1.0000

> <Gold.PLP.Chemscore.CHOScore>
0.0000

> <Gold.PLP.Chemscore.Metal>
0.0000

> <Gold.Chemscore.Hbonds>
donor molecule, donor type, donor heavy atom, donor atom, acceptor molecule, acceptor atom, score
      P1  H  7997  8009       L1    11  0.25
      P1  H  7997  8010       L1     8  0.29

> <Gold.PLP.Chemscore.Internal.Correction>
0.0980

> <Gold.Rescore>
     Score         DG    S(hbond)    S(metal)    S(lipo)     H(rot)  DE(clash)    DE(int)     intcor
     15.29     -17.33       0.99        0.00     112.19       1.79       0.07       1.97       ----

> <Gold.Chemscore.Fitness>
15.2926

> <Gold.Chemscore.DG>
-17.3336

> <Gold.Chemscore.ZeroCoef>
-5.4800

> <Gold.Chemscore.Hbond>
0.9943

> <Gold.Chemscore.Metal>
0.0000

> <Gold.Chemscore.Lipo>
112.1907

> <Gold.Chemscore.Internal_Hbond>
0.0000

> <Gold.Chemscore.DEClash>
0.0729

> <Gold.Chemscore.DEInternal>
1.9680

> <Gold.Chemscore.Rot>
1.7944

> <Gold.Chemscore.Internal.Correction>
   9.000000E+99

> <Gold.Chemscore.Hbonds>
donor molecule, donor type, donor heavy atom, donor atom, acceptor molecule, acceptor atom, score
      P1  H  7997  8010       L1     8  0.27

> <Gold.Chemscore.Hbond.Weighted>
-3.3210

> <Gold.Chemscore.Metal.Weighted>
-0.0000

> <Gold.Chemscore.Lipo.Weighted>
-13.1263

> <Gold.Chemscore.Internal_Hbond.Weighted>
0.0000

> <Gold.Chemscore.DEClash.Weighted>
0.0729

> <Gold.Chemscore.DEInternal.Weighted>
1.9680

> <Gold.Chemscore.Rot.Weighted>
4.5938

> <Gold.Chemscore.Internal.Correction.Weighted>
   9.000000E+99

> <Gold.Protein.RotatedTorsions>
[ 6907 6896 6895 6894 ] final -158.05 input  -60.11 | X-H torsion
[ 7974 7965 7964 7962 ] final  117.49 input  175.53 | X-H torsion
[ 8008 7997 7996 7995 ] final   93.90 input   59.86 | X-H torsion
[ 10167 10162 10161 10158 ] final   93.15 input  -65.29 | X-H torsion
[ 10718 10713 10712 10709 ] final  157.09 input   66.30 | X-H torsion
[ 10763 10752 10751 10750 ] final  -44.48 input  -60.55 | X-H torsion
[ 11005 11000 10999 10996 ] final -118.75 input  -57.11 | X-H torsion

> <Gold.Protein.ActiveResidues>
 VAL166  LYS551  ARG553  GLY616  TRP617  ASP618  TYR619  PRO620  LYS621  CYS622 
 ASP623  PHE694  ASN695  SER759  ASP760  ASP761  ALA762  ILE779  LEU786  VAL792 
 PHE793  MET794  SER795  GLU796  ALA797  LYS798  CYS799  TRP800  GLU811  SER814 

> <Gold.Protein.RotatedAtoms>
  151.3122  133.4075  159.2647 H   0  0  0  0  0  0  0  0  0  0  0  0  # atno 6907 bound_to 6896
  151.0104  134.9393  159.8014 H   0  0  0  0  0  0  0  0  0  0  0  0  # atno 6908 bound_to 6896
  152.5299  134.3087  159.9158 H   0  0  0  0  0  0  0  0  0  0  0  0  # atno 6909 bound_to 6896
  145.1667  139.3124  143.4489 H   0  0  0  0  0  0  0  0  0  0  0  0  # atno 7974 bound_to 7965
  156.0519  140.3307  155.7361 H   0  0  0  0  0  0  0  0  0  0  0  0  # atno 8008 bound_to 7997
  155.5587  140.0617  157.2851 H   0  0  0  0  0  0  0  0  0  0  0  0  # atno 8009 bound_to 7997
  154.4440  140.1881  156.0749 H   0  0  0  0  0  0  0  0  0  0  0  0  # atno 8010 bound_to 7997
  139.8207  144.6732  150.9522 H   0  0  0  0  0  0  0  0  0  0  0  0  # atno 10167 bound_to 10162
  157.1961  131.0665  151.2052 H   0  0  0  0  0  0  0  0  0  0  0  0  # atno 10718 bound_to 10713
  154.0128  135.6679  153.4766 H   0  0  0  0  0  0  0  0  0  0  0  0  # atno 10763 bound_to 10752
  153.0613  135.5026  154.8096 H   0  0  0  0  0  0  0  0  0  0  0  0  # atno 10764 bound_to 10752
  154.6985  135.3074  154.9340 H   0  0  0  0  0  0  0  0  0  0  0  0  # atno 10765 bound_to 10752
  141.0264  134.0047  157.3208 H   0  0  0  0  0  0  0  0  0  0  0  0  # atno 11005 bound_to 11000
  146.3474  140.1798  142.8589 LP  0  0  0  0  0  0  0  0  0  0  0  0  # atno 17320 bound_to 7965
  145.0275  140.8844  143.5130 LP  0  0  0  0  0  0  0  0  0  0  0  0  # atno 17321 bound_to 7965
  140.7813  143.4094  151.1017 LP  0  0  0  0  0  0  0  0  0  0  0  0  # atno 17342 bound_to 10162
  139.7755  143.8432  152.3128 LP  0  0  0  0  0  0  0  0  0  0  0  0  # atno 17343 bound_to 10162
  157.3813  130.7232  149.6632 LP  0  0  0  0  0  0  0  0  0  0  0  0  # atno 17370 bound_to 10713
  155.9706  130.4172  150.4266 LP  0  0  0  0  0  0  0  0  0  0  0  0  # atno 17371 bound_to 10713
  139.9178  135.0198  156.7951 LP  0  0  0  0  0  0  0  0  0  0  0  0  # atno 17394 bound_to 11000
  140.6484  133.9754  155.7742 LP  0  0  0  0  0  0  0  0  0  0  0  0  # atno 17395 bound_to 11000

$$$$
