AV-unprocessed.smi:1824|AV-procd|sdf|7393|dock10
  -GOLD-   22720 9 63D 1   1.00000     0.00000
 Structure written by MMmdl.
 44 46  0  0  0  0  0  0  0  0  1 V2000
  150.1515  135.8383  155.2707 C   0  0  0  0  0  0  0  0  0  0  0  0
  148.7272  136.2184  155.7099 C   0  0  2  0  0  0  0  0  0  0  0  0
  148.2621  137.5829  155.1632 C   0  0  0  0  0  0  0  0  0  0  0  0
  148.9033  138.7094  155.8330 N   0  0  0  0  0  0  0  0  0  0  0  0
  148.4324  139.9813  155.2850 C   0  0  0  0  0  0  0  0  0  0  0  0
  148.9160  141.2400  156.0362 C   0  0  2  0  0  0  0  0  0  0  0  0
  148.1299  142.3481  155.6393 O   0  0  0  0  0  0  0  0  0  0  0  0
  150.3955  141.5547  155.7386 C   0  0  0  0  0  0  0  0  0  0  0  0
  151.2917  141.0283  156.7530 N   0  0  0  0  0  0  0  0  0  0  0  0
  151.9343  139.8446  156.7377 C   0  0  0  0  0  0  0  0  0  0  0  0
  152.7113  139.5599  157.7792 N   0  0  0  0  0  0  0  0  0  0  0  0
  152.5542  140.6903  158.5628 C   0  0  0  0  0  0  0  0  0  0  0  0
  153.1165  141.0239  159.8156 C   0  0  0  0  0  0  0  0  0  0  0  0
  152.8063  142.2531  160.4340 C   0  0  0  0  0  0  0  0  0  0  0  0
  153.3541  142.5571  161.6346 F   0  0  0  0  0  0  0  0  0  0  0  0
  151.9304  143.1660  159.8097 C   0  0  0  0  0  0  0  0  0  0  0  0
  151.6385  144.3443  160.4098 F   0  0  0  0  0  0  0  0  0  0  0  0
  151.3575  142.8553  158.5616 C   0  0  0  0  0  0  0  0  0  0  0  0
  151.6703  141.6282  157.9488 C   0  0  0  0  0  0  0  0  0  0  0  0
  148.6768  138.5984  157.2703 C   0  0  0  0  0  0  0  0  0  0  0  0
  149.1926  137.2614  157.8329 C   0  0  1  0  0  0  0  0  0  0  0  0
  148.8725  137.1027  159.3228 C   0  0  0  0  0  0  0  0  0  0  0  0
  148.5815  136.1808  157.1304 O   0  0  0  0  0  0  0  0  0  0  0  0
  150.2153  135.7642  154.1849 H   0  0  0  0  0  0  0  0  0  0  0  0
  150.4411  134.8725  155.6852 H   0  0  0  0  0  0  0  0  0  0  0  0
  150.8896  136.5739  155.5901 H   0  0  0  0  0  0  0  0  0  0  0  0
  148.0586  135.4538  155.3135 H   0  0  0  0  0  0  0  0  0  0  0  0
  148.4519  137.6284  154.0900 H   0  0  0  0  0  0  0  0  0  0  0  0
  147.1803  137.6586  155.2859 H   0  0  0  0  0  0  0  0  0  0  0  0
  148.8036  140.0511  154.2615 H   0  0  0  0  0  0  0  0  0  0  0  0
  147.3448  139.9813  155.1961 H   0  0  0  0  0  0  0  0  0  0  0  0
  148.7987  141.0960  157.1114 H   0  0  0  0  0  0  0  0  0  0  0  0
  148.6873  143.1094  155.5879 H   0  0  0  0  0  0  0  0  0  0  0  0
  150.6865  141.1254  154.7792 H   0  0  0  0  0  0  0  0  0  0  0  0
  150.5495  142.6320  155.6581 H   0  0  0  0  0  0  0  0  0  0  0  0
  151.8275  139.1537  155.9141 H   0  0  0  0  0  0  0  0  0  0  0  0
  153.7882  140.3328  160.3029 H   0  0  0  0  0  0  0  0  0  0  0  0
  150.6874  143.5522  158.0804 H   0  0  0  0  0  0  0  0  0  0  0  0
  149.1806  139.4110  157.7934 H   0  0  0  0  0  0  0  0  0  0  0  0
  147.6117  138.7006  157.4846 H   0  0  0  0  0  0  0  0  0  0  0  0
  150.2746  137.2079  157.7080 H   0  0  0  0  0  0  0  0  0  0  0  0
  149.3287  137.9006  159.9090 H   0  0  0  0  0  0  0  0  0  0  0  0
  149.2504  136.1533  159.7030 H   0  0  0  0  0  0  0  0  0  0  0  0
  147.7972  137.1286  159.5011 H   0  0  0  0  0  0  0  0  0  0  0  0
  1  2  1  0  0  0  0
  1 24  1  0  0  0  0
  1 25  1  0  0  0  0
  1 26  1  0  0  0  0
  2 23  1  0  0  0  0
  2  3  1  0  0  0  0
  2 27  1  0  0  0  0
  3  4  1  0  0  0  0
  3 28  1  0  0  0  0
  3 29  1  0  0  0  0
  4  5  1  0  0  0  0
  4 20  1  0  0  0  0
  5  6  1  0  0  0  0
  5 30  1  0  0  0  0
  5 31  1  0  0  0  0
  6  7  1  0  0  0  0
  6  8  1  0  0  0  0
  6 32  1  0  0  0  0
  7 33  1  0  0  0  0
  8  9  1  0  0  0  0
  8 34  1  0  0  0  0
  8 35  1  0  0  0  0
  9 19  1  0  0  0  0
  9 10  1  0  0  0  0
 10 11  2  0  0  0  0
 10 36  1  0  0  0  0
 11 12  1  0  0  0  0
 12 19  2  0  0  0  0
 12 13  1  0  0  0  0
 13 14  2  0  0  0  0
 13 37  1  0  0  0  0
 14 15  1  0  0  0  0
 14 16  1  0  0  0  0
 16 17  1  0  0  0  0
 16 18  2  0  0  0  0
 18 19  1  0  0  0  0
 18 38  1  0  0  0  0
 20 21  1  0  0  0  0
 20 39  1  0  0  0  0
 20 40  1  0  0  0  0
 21 22  1  0  0  0  0
 21 23  1  0  0  0  0
 21 41  1  0  0  0  0
 22 42  1  0  0  0  0
 22 43  1  0  0  0  0
 22 44  1  0  0  0  0
M  END
> <s_m_source_file>
AV-unprocessed.smi

> <i_m_source_file_index>
1824

> <i_lp_mmshare_version>
43012

> <i_f3d_flags>
0

> <s_epik_input>
W0NIM11bQ0BASF0xW0NIMl1OKFtDSDJdW0NASF0oTzEpW0NIM10pW0NIMl1bQ0BIXShbT0hdKVtDSDJdbihbY0hdbjIpYyhjMjMpW2NIXWMoRiljKEYpW2NIXTM=

> <s_epik_cmdline>
J2VwaWtfcHl0aG9uJywgJy1waCcsICc3LjAnLCAnLXRuJywgJzgnLCAnLW1hJywgJzIwMCcsICctbWV0YWxfYmluZGluZycsICctaW1hZScsICc8aW5maWxlLm1hZT4nLCAnLW9tYWUnLCAnPG91dGZpbGUubWFlPic=

> <r_epik_Ionization_Penalty>
0.273778

> <r_epik_Ionization_Penalty_Charging>
0

> <r_epik_Ionization_Penalty_Neutral>
0.273778

> <r_epik_State_Penalty>
0.246794

> <r_epik_Charging_Adjusted_Penalty>
0.246794

> <i_epik_Tot_Q>
0

> <i_epik_Tot_abs_Q>
0

> <r_epik_Metal_State_Penalty>
0.238234

> <b_epik_Metal_Only>
0

> <s_lp_Force_Field>
OPLS_2005

> <r_lp_Energy>
29.8683

> <b_lp_Chiralities_Consistent>
1

> <s_lp_Variant>
AV-unprocessed.smi:1824-1

> <Gold.Version>
5.8.1

> <Gold.Id.Protein>
6NUR|6NUR_protein|mol2

> <Gold.PLP.Fitness>
43.2036

> <Gold.PLP.PLP>
-39.2257

> <Gold.PLP.part.hbond>
-2.0000

> <Gold.PLP.part.metal>
0.0000

> <Gold.PLP.part.buried>
-5.3142

> <Gold.PLP.part.nonpolar>
-31.3534

> <Gold.PLP.part.repulsive>
0.0140

> <Gold.PLP.ligand.clash>
0.0000

> <Gold.PLP.ligand.torsion>
1.0103

> <Gold.PLP.Chemscore.Hbond>
1.9920

> <Gold.PLP.Chemscore.CHOScore>
0.0000

> <Gold.PLP.Chemscore.Metal>
0.0000

> <Gold.Chemscore.Hbonds>
donor molecule, donor type, donor heavy atom, donor atom, acceptor molecule, acceptor atom, score
      L1  H     7    33       P1  8028  0.99
      P1  H  7997  8008       L1    11  0.51

> <Gold.PLP.Chemscore.Internal.Correction>
0.0224

> <Gold.Rescore>
     Score         DG    S(hbond)    S(metal)    S(lipo)     H(rot)  DE(clash)    DE(int)     intcor
     13.28     -14.37       1.21        0.00      90.84       2.26       0.09       0.99       ----

> <Gold.Chemscore.Fitness>
13.2848

> <Gold.Chemscore.DG>
-14.3667

> <Gold.Chemscore.ZeroCoef>
-5.4800

> <Gold.Chemscore.Hbond>
1.2123

> <Gold.Chemscore.Metal>
0.0000

> <Gold.Chemscore.Lipo>
90.8395

> <Gold.Chemscore.Internal_Hbond>
0.0000

> <Gold.Chemscore.DEClash>
0.0893

> <Gold.Chemscore.DEInternal>
0.9926

> <Gold.Chemscore.Rot>
2.2619

> <Gold.Chemscore.Internal.Correction>
   9.000000E+99

> <Gold.Chemscore.Hbonds>
donor molecule, donor type, donor heavy atom, donor atom, acceptor molecule, acceptor atom, score
      L1  H     7    33       P1  8028  0.93
      P1  H  7997  8008       L1    11  0.04

> <Gold.Chemscore.Hbond.Weighted>
-4.0489

> <Gold.Chemscore.Metal.Weighted>
-0.0000

> <Gold.Chemscore.Lipo.Weighted>
-10.6282

> <Gold.Chemscore.Internal_Hbond.Weighted>
0.0000

> <Gold.Chemscore.DEClash.Weighted>
0.0893

> <Gold.Chemscore.DEInternal.Weighted>
0.9926

> <Gold.Chemscore.Rot.Weighted>
5.7904

> <Gold.Chemscore.Internal.Correction.Weighted>
   9.000000E+99

> <Gold.Protein.RotatedTorsions>
[ 6907 6896 6895 6894 ] final  178.66 input  -60.11 | X-H torsion
[ 7974 7965 7964 7962 ] final  134.89 input  175.53 | X-H torsion
[ 8008 7997 7996 7995 ] final  -96.37 input   59.86 | X-H torsion
[ 10167 10162 10161 10158 ] final   71.50 input  -65.29 | X-H torsion
[ 10718 10713 10712 10709 ] final  -55.96 input   66.30 | X-H torsion
[ 10763 10752 10751 10750 ] final  -25.60 input  -60.55 | X-H torsion
[ 11005 11000 10999 10996 ] final   52.96 input  -57.11 | X-H torsion

> <Gold.Protein.ActiveResidues>
 VAL166  LYS551  ARG553  GLY616  TRP617  ASP618  TYR619  PRO620  LYS621  CYS622 
 ASP623  PHE694  ASN695  SER759  ASP760  ASP761  ALA762  ILE779  LEU786  VAL792 
 PHE793  MET794  SER795  GLU796  ALA797  LYS798  CYS799  TRP800  GLU811  SER814 

> <Gold.Protein.RotatedAtoms>
  151.6843  133.3311  159.3226 H   0  0  0  0  0  0  0  0  0  0  0  0  # atno 6907 bound_to 6896
  150.7808  134.6754  159.6424 H   0  0  0  0  0  0  0  0  0  0  0  0  # atno 6908 bound_to 6896
  152.3865  134.6512  160.0175 H   0  0  0  0  0  0  0  0  0  0  0  0  # atno 6909 bound_to 6896
  144.9718  139.4597  143.5429 H   0  0  0  0  0  0  0  0  0  0  0  0  # atno 7974 bound_to 7965
  154.7735  140.0472  157.1070 H   0  0  0  0  0  0  0  0  0  0  0  0  # atno 8008 bound_to 7997
  154.9791  140.3099  155.4934 H   0  0  0  0  0  0  0  0  0  0  0  0  # atno 8009 bound_to 7997
  156.2925  140.2239  156.4889 H   0  0  0  0  0  0  0  0  0  0  0  0  # atno 8010 bound_to 7997
  140.0454  144.5355  150.7402 H   0  0  0  0  0  0  0  0  0  0  0  0  # atno 10167 bound_to 10162
  156.1327  130.4158  150.0240 H   0  0  0  0  0  0  0  0  0  0  0  0  # atno 10718 bound_to 10713
  153.7025  135.6955  153.5059 H   0  0  0  0  0  0  0  0  0  0  0  0  # atno 10763 bound_to 10752
  153.2332  135.4330  155.0617 H   0  0  0  0  0  0  0  0  0  0  0  0  # atno 10764 bound_to 10752
  154.8340  135.3489  154.6564 H   0  0  0  0  0  0  0  0  0  0  0  0  # atno 10765 bound_to 10752
  140.0806  134.5343  155.8950 H   0  0  0  0  0  0  0  0  0  0  0  0  # atno 11005 bound_to 11000
  146.3384  139.8935  142.8805 LP  0  0  0  0  0  0  0  0  0  0  0  0  # atno 17320 bound_to 7965
  145.2548  141.0056  143.3860 LP  0  0  0  0  0  0  0  0  0  0  0  0  # atno 17321 bound_to 7965
  140.7241  143.2618  151.4180 LP  0  0  0  0  0  0  0  0  0  0  0  0  # atno 17342 bound_to 10162
  139.5987  144.1343  152.2173 LP  0  0  0  0  0  0  0  0  0  0  0  0  # atno 17343 bound_to 10162
  156.8148  130.9337  151.3643 LP  0  0  0  0  0  0  0  0  0  0  0  0  # atno 17370 bound_to 10713
  157.6503  130.8879  149.9620 LP  0  0  0  0  0  0  0  0  0  0  0  0  # atno 17371 bound_to 10713
  141.2045  133.6640  156.6126 LP  0  0  0  0  0  0  0  0  0  0  0  0  # atno 17394 bound_to 11000
  140.3493  134.7782  157.4455 LP  0  0  0  0  0  0  0  0  0  0  0  0  # atno 17395 bound_to 11000

$$$$
