AV-unprocessed.smi:3348|AV-procd|sdf|12925|dock9
  -GOLD-   2272019353D 1   1.00000     0.00000
 Structure written by MMmdl.
 46 47  0  0  0  0  0  0  0  0  1 V2000
  150.5188  138.6522  154.4309 C   0  0  0  0  0  0  0  0  0  0  0  0
  150.0995  139.2417  155.7847 C   0  0  2  0  0  0  0  0  0  0  0  0
  149.8239  140.7579  155.6354 C   0  0  0  0  0  0  0  0  0  0  0  0
  148.5182  141.0781  155.0886 N   0  0  0  0  0  0  0  0  0  0  0  0
  147.9959  140.7278  153.8607 C   0  0  0  0  0  0  0  0  0  0  0  0
  146.7368  141.2507  153.7913 C   0  0  0  0  0  0  0  0  0  0  0  0
  146.5735  141.9049  155.0444 C   0  0  0  0  0  0  0  0  0  0  0  0
  147.6399  141.7967  155.8207 N   0  0  0  0  0  0  0  0  0  0  0  0
  151.1540  138.9712  156.7669 N   0  0  0  0  0  0  0  0  0  0  0  0
  150.9653  139.5934  158.0777 C   0  0  0  0  0  0  0  0  0  0  0  0
  151.5952  140.9874  158.1160 C   0  0  0  0  0  0  0  0  0  0  0  0
  152.0852  141.1973  159.4318 O   0  0  0  0  0  0  0  0  0  0  0  0
  153.1829  142.0963  159.5357 C   0  0  1  0  0  0  0  0  0  0  0  0
  152.7983  143.4958  159.0087 C   0  0  0  0  0  0  0  0  0  0  0  0
  151.6936  144.1385  159.8629 C   0  0  0  0  0  0  0  0  0  0  0  0
  152.1057  144.2078  161.3409 C   0  0  0  0  0  0  0  0  0  0  0  0
  152.4948  142.8212  161.8783 C   0  0  0  0  0  0  0  0  0  0  0  0
  153.6008  142.1709  161.0220 C   0  0  1  0  0  0  0  0  0  0  0  0
  154.0174  140.7990  161.5753 C   0  0  0  0  0  0  0  0  0  0  0  0
  149.7422  138.8022  153.6800 H   0  0  0  0  0  0  0  0  0  0  0  0
  150.6961  137.5788  154.5064 H   0  0  0  0  0  0  0  0  0  0  0  0
  151.4337  139.1161  154.0600 H   0  0  0  0  0  0  0  0  0  0  0  0
  149.1807  138.7347  156.0837 H   0  0  0  0  0  0  0  0  0  0  0  0
  149.9271  141.2569  156.6002 H   0  0  0  0  0  0  0  0  0  0  0  0
  150.5710  141.2075  154.9799 H   0  0  0  0  0  0  0  0  0  0  0  0
  148.5609  140.1503  153.1442 H   0  0  0  0  0  0  0  0  0  0  0  0
  146.0393  141.1771  152.9702 H   0  0  0  0  0  0  0  0  0  0  0  0
  145.7175  142.4519  155.4110 H   0  0  0  0  0  0  0  0  0  0  0  0
  151.2624  137.9690  156.8857 H   0  0  0  0  0  0  0  0  0  0  0  0
  149.9154  139.6699  158.3493 H   0  0  0  0  0  0  0  0  0  0  0  0
  151.4305  138.9666  158.8390 H   0  0  0  0  0  0  0  0  0  0  0  0
  152.4260  141.0280  157.4104 H   0  0  0  0  0  0  0  0  0  0  0  0
  150.8732  141.7483  157.8194 H   0  0  0  0  0  0  0  0  0  0  0  0
  154.0254  141.7099  158.9593 H   0  0  0  0  0  0  0  0  0  0  0  0
  153.6801  144.1376  159.0252 H   0  0  0  0  0  0  0  0  0  0  0  0
  152.4853  143.4504  157.9662 H   0  0  0  0  0  0  0  0  0  0  0  0
  151.4716  145.1393  159.4920 H   0  0  0  0  0  0  0  0  0  0  0  0
  150.7726  143.5620  159.7654 H   0  0  0  0  0  0  0  0  0  0  0  0
  152.9480  144.8917  161.4529 H   0  0  0  0  0  0  0  0  0  0  0  0
  151.2905  144.6220  161.9351 H   0  0  0  0  0  0  0  0  0  0  0  0
  152.8292  142.9134  162.9121 H   0  0  0  0  0  0  0  0  0  0  0  0
  151.6143  142.1780  161.8976 H   0  0  0  0  0  0  0  0  0  0  0  0
  154.4795  142.8152  161.0808 H   0  0  0  0  0  0  0  0  0  0  0  0
  153.1829  140.0972  161.5747 H   0  0  0  0  0  0  0  0  0  0  0  0
  154.3770  140.8831  162.6010 H   0  0  0  0  0  0  0  0  0  0  0  0
  154.8193  140.3627  160.9795 H   0  0  0  0  0  0  0  0  0  0  0  0
  1  2  1  0  0  0  0
  1 20  1  0  0  0  0
  1 21  1  0  0  0  0
  1 22  1  0  0  0  0
  2  3  1  0  0  0  0
  2  9  1  0  0  0  0
  2 23  1  0  0  0  0
  3  4  1  0  0  0  0
  3 24  1  0  0  0  0
  3 25  1  0  0  0  0
  4  8  1  0  0  0  0
  4  5  1  0  0  0  0
  5  6  2  0  0  0  0
  5 26  1  0  0  0  0
  6  7  1  0  0  0  0
  6 27  1  0  0  0  0
  7  8  2  0  0  0  0
  7 28  1  0  0  0  0
  9 10  1  0  0  0  0
  9 29  1  0  0  0  0
 10 11  1  0  0  0  0
 10 30  1  0  0  0  0
 10 31  1  0  0  0  0
 11 12  1  0  0  0  0
 11 32  1  0  0  0  0
 11 33  1  0  0  0  0
 12 13  1  0  0  0  0
 13 18  1  0  0  0  0
 13 14  1  0  0  0  0
 13 34  1  0  0  0  0
 14 15  1  0  0  0  0
 14 35  1  0  0  0  0
 14 36  1  0  0  0  0
 15 16  1  0  0  0  0
 15 37  1  0  0  0  0
 15 38  1  0  0  0  0
 16 17  1  0  0  0  0
 16 39  1  0  0  0  0
 16 40  1  0  0  0  0
 17 18  1  0  0  0  0
 17 41  1  0  0  0  0
 17 42  1  0  0  0  0
 18 19  1  0  0  0  0
 18 43  1  0  0  0  0
 19 44  1  0  0  0  0
 19 45  1  0  0  0  0
 19 46  1  0  0  0  0
M  END
> <s_m_source_file>
AV-unprocessed.smi

> <i_m_source_file_index>
3348

> <i_lp_mmshare_version>
43012

> <i_f3d_flags>
0

> <s_epik_input>
bjFbY0hdW2NIXVtjSF1uMVtDSDJdW0NAQEhdKFtDSDNdKVtOSF1bQ0gyXVtDSDJdT1tDQEBIXTJbQ0gyXVtDSDJdW0NIMl1bQ0gyXVtDQEhdMltDSDNd

> <s_epik_cmdline>
J2VwaWtfcHl0aG9uJywgJy1waCcsICc3LjAnLCAnLXRuJywgJzgnLCAnLW1hJywgJzIwMCcsICctbWV0YWxfYmluZGluZycsICctaW1hZScsICc8aW5maWxlLm1hZT4nLCAnLW9tYWUnLCAnPG91dGZpbGUubWFlPic=

> <r_lp_tautomer_probability>
1

> <r_epik_Ionization_Penalty>
2.46945

> <r_epik_Ionization_Penalty_Charging>
0

> <r_epik_Ionization_Penalty_Neutral>
2.46945

> <r_epik_State_Penalty>
2.6322

> <r_epik_Charging_Adjusted_Penalty>
2.6322

> <i_epik_Tot_Q>
0

> <i_epik_Tot_abs_Q>
0

> <r_epik_Metal_State_Penalty>
2.63217

> <b_epik_Metal_Only>
0

> <s_lp_Force_Field>
OPLS_2005

> <r_lp_Energy>
18.1509

> <b_lp_Chiralities_Consistent>
1

> <s_lp_Variant>
AV-unprocessed.smi:3348-11

> <Gold.Version>
5.8.1

> <Gold.Id.Protein>
6NUR|6NUR_protein|mol2

> <Gold.PLP.Fitness>
48.6324

> <Gold.PLP.PLP>
-47.0537

> <Gold.PLP.part.hbond>
0.0000

> <Gold.PLP.part.metal>
0.0000

> <Gold.PLP.part.buried>
-5.7601

> <Gold.PLP.part.nonpolar>
-42.1950

> <Gold.PLP.part.repulsive>
1.4878

> <Gold.PLP.ligand.clash>
0.0000

> <Gold.PLP.ligand.torsion>
0.7960

> <Gold.PLP.Chemscore.Hbond>
0.0000

> <Gold.PLP.Chemscore.CHOScore>
1.0000

> <Gold.PLP.Chemscore.Metal>
0.0000

> <Gold.Chemscore.Hbonds>
donor molecule, donor type, donor heavy atom, donor atom, acceptor molecule, acceptor atom, score
      L1  C     5    26       P1  7957  1.00

> <Gold.PLP.Chemscore.Internal.Correction>
0.1708

> <Gold.Rescore>
     Score         DG    S(hbond)    S(metal)    S(lipo)     H(rot)  DE(clash)    DE(int)     intcor
     15.30     -16.34       0.00        0.00     130.52       1.72       0.08       0.96       ----

> <Gold.Chemscore.Fitness>
15.3024

> <Gold.Chemscore.DG>
-16.3383

> <Gold.Chemscore.ZeroCoef>
-5.4800

> <Gold.Chemscore.Hbond>
0.0000

> <Gold.Chemscore.Metal>
0.0000

> <Gold.Chemscore.Lipo>
130.5200

> <Gold.Chemscore.Internal_Hbond>
0.0000

> <Gold.Chemscore.DEClash>
0.0754

> <Gold.Chemscore.DEInternal>
0.9604

> <Gold.Chemscore.Rot>
1.7237

> <Gold.Chemscore.Internal.Correction>
   9.000000E+99

> <Gold.Chemscore.Hbond.Weighted>
-0.0000

> <Gold.Chemscore.Metal.Weighted>
-0.0000

> <Gold.Chemscore.Lipo.Weighted>
-15.2708

> <Gold.Chemscore.Internal_Hbond.Weighted>
0.0000

> <Gold.Chemscore.DEClash.Weighted>
0.0754

> <Gold.Chemscore.DEInternal.Weighted>
0.9604

> <Gold.Chemscore.Rot.Weighted>
4.4126

> <Gold.Chemscore.Internal.Correction.Weighted>
   9.000000E+99

> <Gold.Protein.RotatedTorsions>
[ 6907 6896 6895 6894 ] final   12.72 input  -60.11 | X-H torsion
[ 7974 7965 7964 7962 ] final  173.85 input  175.53 | X-H torsion
[ 8008 7997 7996 7995 ] final  -71.21 input   59.86 | X-H torsion
[ 10167 10162 10161 10158 ] final  -19.72 input  -65.29 | X-H torsion
[ 10718 10713 10712 10709 ] final   42.73 input   66.30 | X-H torsion
[ 10763 10752 10751 10750 ] final   98.51 input  -60.55 | X-H torsion
[ 11005 11000 10999 10996 ] final   13.59 input  -57.11 | X-H torsion

> <Gold.Protein.ActiveResidues>
 VAL166  LYS551  ARG553  GLY616  TRP617  ASP618  TYR619  PRO620  LYS621  CYS622 
 ASP623  PHE694  ASN695  SER759  ASP760  ASP761  ALA762  ILE779  LEU786  VAL792 
 PHE793  MET794  SER795  GLU796  ALA797  LYS798  CYS799  TRP800  GLU811  SER814 

> <Gold.Protein.RotatedAtoms>
  151.7749  135.0777  160.0365 H   0  0  0  0  0  0  0  0  0  0  0  0  # atno 6907 bound_to 6896
  152.3263  133.5904  159.5787 H   0  0  0  0  0  0  0  0  0  0  0  0  # atno 6908 bound_to 6896
  150.7397  133.9851  159.3631 H   0  0  0  0  0  0  0  0  0  0  0  0  # atno 6909 bound_to 6896
  144.7234  139.9709  143.6437 H   0  0  0  0  0  0  0  0  0  0  0  0  # atno 7974 bound_to 7965
  154.5070  140.0820  156.7915 H   0  0  0  0  0  0  0  0  0  0  0  0  # atno 8008 bound_to 7997
  155.3870  140.3430  155.4231 H   0  0  0  0  0  0  0  0  0  0  0  0  # atno 8009 bound_to 7997
  156.1528  140.1564  156.8729 H   0  0  0  0  0  0  0  0  0  0  0  0  # atno 8010 bound_to 7997
  140.7270  143.4791  151.0142 H   0  0  0  0  0  0  0  0  0  0  0  0  # atno 10167 bound_to 10162
  157.4081  130.7898  149.7406 H   0  0  0  0  0  0  0  0  0  0  0  0  # atno 10718 bound_to 10713
  153.2900  135.4145  155.1158 H   0  0  0  0  0  0  0  0  0  0  0  0  # atno 10763 bound_to 10752
  154.8517  135.3516  154.5994 H   0  0  0  0  0  0  0  0  0  0  0  0  # atno 10764 bound_to 10752
  153.6416  135.7056  153.5297 H   0  0  0  0  0  0  0  0  0  0  0  0  # atno 10765 bound_to 10752
  140.4791  134.0954  155.7747 H   0  0  0  0  0  0  0  0  0  0  0  0  # atno 11005 bound_to 11000
  146.0563  139.3560  143.0608 LP  0  0  0  0  0  0  0  0  0  0  0  0  # atno 17320 bound_to 7965
  145.8150  140.9707  143.0929 LP  0  0  0  0  0  0  0  0  0  0  0  0  # atno 17321 bound_to 7965
  139.8488  143.7465  152.3178 LP  0  0  0  0  0  0  0  0  0  0  0  0  # atno 17342 bound_to 10162
  139.7640  144.7497  151.0321 LP  0  0  0  0  0  0  0  0  0  0  0  0  # atno 17343 bound_to 10162
  155.9842  130.3993  150.3322 LP  0  0  0  0  0  0  0  0  0  0  0  0  # atno 17370 bound_to 10713
  157.1457  131.0308  151.2908 LP  0  0  0  0  0  0  0  0  0  0  0  0  # atno 17371 bound_to 10713
  141.1540  133.8917  157.2025 LP  0  0  0  0  0  0  0  0  0  0  0  0  # atno 17394 bound_to 11000
  139.9838  135.0089  156.9813 LP  0  0  0  0  0  0  0  0  0  0  0  0  # atno 17395 bound_to 11000

$$$$
