AV-unprocessed.smi:2353|AV-procd|sdf|9380|dock9
  -GOLD-   2272013 13D 1   1.00000     0.00000
 Structure written by MMmdl.
 45 47  0  0  0  0  0  0  0  0  1 V2000
  150.8382  142.7715  157.8462 C   0  0  0  0  0  0  0  0  0  0  0  0
  151.8392  141.9984  158.6799 C   0  0  0  0  0  0  0  0  0  0  0  0
  152.7662  142.6802  159.4916 C   0  0  0  0  0  0  0  0  0  0  0  0
  153.6889  141.9545  160.2659 C   0  0  0  0  0  0  0  0  0  0  0  0
  153.6918  140.5447  160.2333 C   0  0  0  0  0  0  0  0  0  0  0  0
  154.6940  139.7774  161.0751 C   0  0  0  0  0  0  0  0  0  0  0  0
  152.7694  139.8470  159.4195 C   0  0  0  0  0  0  0  0  0  0  0  0
  152.8297  138.4687  159.4305 O   0  0  0  0  0  0  0  0  0  0  0  0
  152.0546  137.7450  158.4843 C   0  0  0  0  0  0  0  0  0  0  0  0
  150.5861  137.7579  158.9403 C   0  0  2  0  0  0  0  0  0  0  0  0
  150.4896  136.9065  160.0658 O   0  0  0  0  0  0  0  0  0  0  0  0
  149.6395  137.2110  157.8485 C   0  0  0  0  0  0  0  0  0  0  0  0
  149.7042  138.0057  156.6161 N   0  0  0  0  0  0  0  0  0  0  0  0
  148.7942  139.0463  156.5716 N   0  0  0  0  0  0  0  0  0  0  0  0
  148.7484  139.8496  155.5598 C   0  0  0  0  0  0  0  0  0  0  0  0
  147.7948  140.9443  155.5351 N   0  0  0  0  0  0  0  0  0  0  0  0
  147.4472  141.6138  154.3609 C   0  0  0  0  0  0  0  0  0  0  0  0
  146.5348  142.5768  154.7323 C   0  0  0  0  0  0  0  0  0  0  0  0
  146.3120  142.5206  156.1068 N   0  0  0  0  0  0  0  0  0  0  0  0
  147.0948  141.5310  156.5160 C   0  0  0  0  0  0  0  0  0  0  0  0
  149.6587  139.6495  154.4374 C   0  0  0  0  0  0  0  0  0  0  0  0
  150.5405  138.6277  154.4896 C   0  0  0  0  0  0  0  0  0  0  0  0
  150.6096  137.7219  155.6344 C   0  0  0  0  0  0  0  0  0  0  0  0
  151.4111  136.7911  155.7104 O   0  0  0  0  0  0  0  0  0  0  0  0
  151.8409  140.5891  158.6454 C   0  0  0  0  0  0  0  0  0  0  0  0
  151.0546  143.8401  157.8540 H   0  0  0  0  0  0  0  0  0  0  0  0
  149.8307  142.6241  158.2354 H   0  0  0  0  0  0  0  0  0  0  0  0
  150.8606  142.4291  156.8114 H   0  0  0  0  0  0  0  0  0  0  0  0
  152.7733  143.7600  159.5252 H   0  0  0  0  0  0  0  0  0  0  0  0
  154.3956  142.4861  160.8861 H   0  0  0  0  0  0  0  0  0  0  0  0
  155.3729  139.2138  160.4343 H   0  0  0  0  0  0  0  0  0  0  0  0
  154.1787  139.0758  161.7316 H   0  0  0  0  0  0  0  0  0  0  0  0
  155.2891  140.4467  161.6970 H   0  0  0  0  0  0  0  0  0  0  0  0
  152.1407  138.2477  157.5198 H   0  0  0  0  0  0  0  0  0  0  0  0
  152.4153  136.7220  158.3622 H   0  0  0  0  0  0  0  0  0  0  0  0
  150.3014  138.7738  159.2174 H   0  0  0  0  0  0  0  0  0  0  0  0
  150.2120  137.4198  160.8089 H   0  0  0  0  0  0  0  0  0  0  0  0
  149.9043  136.1795  157.6095 H   0  0  0  0  0  0  0  0  0  0  0  0
  148.6152  137.1555  158.2230 H   0  0  0  0  0  0  0  0  0  0  0  0
  147.8379  141.3961  153.3803 H   0  0  0  0  0  0  0  0  0  0  0  0
  146.0257  143.3049  154.1183 H   0  0  0  0  0  0  0  0  0  0  0  0
  147.1573  141.2278  157.5509 H   0  0  0  0  0  0  0  0  0  0  0  0
  149.6518  140.2806  153.5649 H   0  0  0  0  0  0  0  0  0  0  0  0
  151.2159  138.4724  153.6609 H   0  0  0  0  0  0  0  0  0  0  0  0
  151.1152  140.0970  158.0157 H   0  0  0  0  0  0  0  0  0  0  0  0
  1  2  1  0  0  0  0
  1 26  1  0  0  0  0
  1 27  1  0  0  0  0
  1 28  1  0  0  0  0
  2 25  1  0  0  0  0
  2  3  2  0  0  0  0
  3  4  1  0  0  0  0
  3 29  1  0  0  0  0
  4  5  2  0  0  0  0
  4 30  1  0  0  0  0
  5  6  1  0  0  0  0
  5  7  1  0  0  0  0
  6 31  1  0  0  0  0
  6 32  1  0  0  0  0
  6 33  1  0  0  0  0
  7  8  1  0  0  0  0
  7 25  2  0  0  0  0
  8  9  1  0  0  0  0
  9 10  1  0  0  0  0
  9 34  1  0  0  0  0
  9 35  1  0  0  0  0
 10 11  1  0  0  0  0
 10 12  1  0  0  0  0
 10 36  1  0  0  0  0
 11 37  1  0  0  0  0
 12 13  1  0  0  0  0
 12 38  1  0  0  0  0
 12 39  1  0  0  0  0
 13 23  1  0  0  0  0
 13 14  1  0  0  0  0
 14 15  2  0  0  0  0
 15 16  1  0  0  0  0
 15 21  1  0  0  0  0
 16 20  1  0  0  0  0
 16 17  1  0  0  0  0
 17 18  2  0  0  0  0
 17 40  1  0  0  0  0
 18 19  1  0  0  0  0
 18 41  1  0  0  0  0
 19 20  2  0  0  0  0
 20 42  1  0  0  0  0
 21 22  2  0  0  0  0
 21 43  1  0  0  0  0
 22 23  1  0  0  0  0
 22 44  1  0  0  0  0
 23 24  2  0  0  0  0
 25 45  1  0  0  0  0
M  END
> <s_m_source_file>
AV-unprocessed.smi

> <i_m_source_file_index>
2353

> <i_lp_mmshare_version>
43012

> <i_f3d_flags>
0

> <s_epik_input>
W0NIM11jMVtjSF1bY0hdYyhbQ0gzXSljKFtjSF0xKU9bQ0gyXVtDQEhdKFtPSF0pW0NIMl1uMm5jKFtjSF1bY0hdYzI9TyktbjNbY0hdW2NIXW5bY0hdMw==

> <s_epik_cmdline>
J2VwaWtfcHl0aG9uJywgJy1waCcsICc3LjAnLCAnLXRuJywgJzgnLCAnLW1hJywgJzIwMCcsICctbWV0YWxfYmluZGluZycsICctaW1hZScsICc8aW5maWxlLm1hZT4nLCAnLW9tYWUnLCAnPG91dGZpbGUubWFlPic=

> <r_lp_tautomer_probability>
1

> <r_epik_Ionization_Penalty>
0.03707

> <r_epik_Ionization_Penalty_Charging>
0.0370699

> <r_epik_Ionization_Penalty_Neutral>
1.17174e-07

> <r_epik_State_Penalty>
0.0310055

> <r_epik_Charging_Adjusted_Penalty>
0.0680754

> <i_epik_Tot_Q>
0

> <i_epik_Tot_abs_Q>
0

> <r_epik_Metal_State_Penalty>
0.0291724

> <b_epik_Metal_Only>
0

> <s_lp_Force_Field>
OPLS_2005

> <r_lp_Energy>
36.9493

> <b_lp_Chiralities_Consistent>
1

> <s_lp_Variant>
AV-unprocessed.smi:2353-1

> <Gold.Version>
5.8.1

> <Gold.Id.Protein>
6NUR|6NUR_protein|mol2

> <Gold.PLP.Fitness>
51.0358

> <Gold.PLP.PLP>
-43.4615

> <Gold.PLP.part.hbond>
-2.7111

> <Gold.PLP.part.metal>
0.0000

> <Gold.PLP.part.buried>
-5.1342

> <Gold.PLP.part.nonpolar>
-36.5213

> <Gold.PLP.part.repulsive>
0.1895

> <Gold.PLP.ligand.clash>
0.0000

> <Gold.PLP.ligand.torsion>
0.7139

> <Gold.PLP.Chemscore.Hbond>
1.9833

> <Gold.PLP.Chemscore.CHOScore>
1.0000

> <Gold.PLP.Chemscore.Metal>
0.0000

> <Gold.Chemscore.Hbonds>
donor molecule, donor type, donor heavy atom, donor atom, acceptor molecule, acceptor atom, score
      P1  H  6896  6907       L1    11  1.00
      P1  H 10752 10765       L1    24  0.49

> <Gold.PLP.Chemscore.Internal.Correction>
0.0524

> <Gold.Rescore>
     Score         DG    S(hbond)    S(metal)    S(lipo)     H(rot)  DE(clash)    DE(int)     intcor
     17.08     -18.56       1.96        0.00     112.72       2.60       0.81       0.67       ----

> <Gold.Chemscore.Fitness>
17.0780

> <Gold.Chemscore.DG>
-18.5594

> <Gold.Chemscore.ZeroCoef>
-5.4800

> <Gold.Chemscore.Hbond>
1.9593

> <Gold.Chemscore.Metal>
0.0000

> <Gold.Chemscore.Lipo>
112.7160

> <Gold.Chemscore.Internal_Hbond>
0.0000

> <Gold.Chemscore.DEClash>
0.8072

> <Gold.Chemscore.DEInternal>
0.6743

> <Gold.Chemscore.Rot>
2.5986

> <Gold.Chemscore.Internal.Correction>
   9.000000E+99

> <Gold.Chemscore.Hbonds>
donor molecule, donor type, donor heavy atom, donor atom, acceptor molecule, acceptor atom, score
      P1  H  6896  6907       L1    11  0.90
      P1  H 10752 10765       L1    24  0.47

> <Gold.Chemscore.Hbond.Weighted>
-6.5440

> <Gold.Chemscore.Metal.Weighted>
-0.0000

> <Gold.Chemscore.Lipo.Weighted>
-13.1878

> <Gold.Chemscore.Internal_Hbond.Weighted>
0.0000

> <Gold.Chemscore.DEClash.Weighted>
0.8072

> <Gold.Chemscore.DEInternal.Weighted>
0.6743

> <Gold.Chemscore.Rot.Weighted>
6.6524

> <Gold.Chemscore.Internal.Correction.Weighted>
   9.000000E+99

> <Gold.Protein.RotatedTorsions>
[ 6907 6896 6895 6894 ] final  -38.25 input  -60.11 | X-H torsion
[ 7974 7965 7964 7962 ] final    1.23 input  175.53 | X-H torsion
[ 8008 7997 7996 7995 ] final   65.35 input   59.86 | X-H torsion
[ 10167 10162 10161 10158 ] final   37.58 input  -65.29 | X-H torsion
[ 10718 10713 10712 10709 ] final  -12.56 input   66.30 | X-H torsion
[ 10763 10752 10751 10750 ] final  179.04 input  -60.55 | X-H torsion
[ 11005 11000 10999 10996 ] final  -78.43 input  -57.11 | X-H torsion

> <Gold.Protein.ActiveResidues>
 VAL166  LYS551  ARG553  GLY616  TRP617  ASP618  TYR619  PRO620  LYS621  CYS622 
 ASP623  PHE694  ASN695  SER759  ASP760  ASP761  ALA762  ILE779  LEU786  VAL792 
 PHE793  MET794  SER795  GLU796  ALA797  LYS798  CYS799  TRP800  GLU811  SER814 

> <Gold.Protein.RotatedAtoms>
  151.0047  134.9350  159.7973 H   0  0  0  0  0  0  0  0  0  0  0  0  # atno 6907 bound_to 6896
  152.5287  134.3107  159.9122 H   0  0  0  0  0  0  0  0  0  0  0  0  # atno 6908 bound_to 6896
  151.3113  133.4038  159.2681 H   0  0  0  0  0  0  0  0  0  0  0  0  # atno 6909 bound_to 6896
  146.2439  140.1019  142.8347 H   0  0  0  0  0  0  0  0  0  0  0  0  # atno 7974 bound_to 7965
  155.6603  140.3497  155.4780 H   0  0  0  0  0  0  0  0  0  0  0  0  # atno 8008 bound_to 7997
  155.9774  140.1167  157.0780 H   0  0  0  0  0  0  0  0  0  0  0  0  # atno 8009 bound_to 7997
  154.4182  140.1145  156.5375 H   0  0  0  0  0  0  0  0  0  0  0  0  # atno 8010 bound_to 7997
  140.4019  144.1712  150.6134 H   0  0  0  0  0  0  0  0  0  0  0  0  # atno 10167 bound_to 10162
  156.6428  130.4933  149.6089 H   0  0  0  0  0  0  0  0  0  0  0  0  # atno 10718 bound_to 10713
  154.5155  135.2791  155.1307 H   0  0  0  0  0  0  0  0  0  0  0  0  # atno 10763 bound_to 10752
  154.2885  135.6271  153.5379 H   0  0  0  0  0  0  0  0  0  0  0  0  # atno 10764 bound_to 10752
  152.9926  135.5668  154.5631 H   0  0  0  0  0  0  0  0  0  0  0  0  # atno 10765 bound_to 10752
  141.1664  133.7063  156.7970 H   0  0  0  0  0  0  0  0  0  0  0  0  # atno 11005 bound_to 11000
  145.0561  140.9054  143.4966 LP  0  0  0  0  0  0  0  0  0  0  0  0  # atno 17320 bound_to 7965
  145.1125  139.2747  143.5630 LP  0  0  0  0  0  0  0  0  0  0  0  0  # atno 17321 bound_to 7965
  140.4731  143.2406  151.9061 LP  0  0  0  0  0  0  0  0  0  0  0  0  # atno 17342 bound_to 10162
  139.4784  144.5349  151.8613 LP  0  0  0  0  0  0  0  0  0  0  0  0  # atno 17343 bound_to 10162
  156.2146  130.6699  151.1305 LP  0  0  0  0  0  0  0  0  0  0  0  0  # atno 17370 bound_to 10713
  157.7166  131.0706  150.6304 LP  0  0  0  0  0  0  0  0  0  0  0  0  # atno 17371 bound_to 10713
  140.2284  134.8704  157.3450 LP  0  0  0  0  0  0  0  0  0  0  0  0  # atno 17394 bound_to 11000
  140.1916  134.4364  155.7712 LP  0  0  0  0  0  0  0  0  0  0  0  0  # atno 17395 bound_to 11000

$$$$
