AV-unprocessed.smi:169|AV-procd|sdf|1399|dock1
  -GOLD-   2262019143D 1   1.00000     0.00000
 Structure written by MMmdl.
 56 60  0  0  0  0  0  0  0  0  2 V2000
  146.8617  133.8434  153.4836 C   0  0  0  0  0  0  0  0  0  0  0  0
  146.0299  134.9642  152.8341 C   0  0  0  0  0  0  0  0  0  0  0  0
  146.4945  136.3368  153.1675 N   0  3  1  0  0  0  0  0  0  0  0  0
  145.7890  137.4050  152.4158 C   0  0  0  0  0  0  0  0  0  0  0  0
  146.7573  138.5255  151.9922 C   0  0  0  0  0  0  0  0  0  0  0  0
  147.4148  139.3225  153.1387 C   0  0  1  0  0  0  0  0  0  0  0  0
  146.4025  140.0327  154.0446 C   0  0  0  0  0  0  0  0  0  0  0  0
  146.1858  139.0680  155.2161 C   0  0  0  0  0  0  0  0  0  0  0  0
  147.2252  137.9435  155.0285 C   0  0  1  0  0  0  0  0  0  0  0  0
  146.6003  136.5819  154.6324 C   0  0  0  0  0  0  0  0  0  0  0  0
  148.1706  138.4494  154.0351 N   0  0  0  0  0  0  0  0  0  0  0  0
  149.3739  138.8405  154.5315 C   0  0  0  0  0  0  0  0  0  0  0  0
  150.4869  138.0871  154.3279 N   0  0  0  0  0  0  0  0  0  0  0  0
  151.6702  138.4884  154.8012 C   0  0  0  0  0  0  0  0  0  0  0  0
  151.9602  139.5908  155.4944 N   0  0  0  0  0  0  0  0  0  0  0  0
  150.8474  140.3475  155.7117 C   0  0  0  0  0  0  0  0  0  0  0  0
  149.5285  140.0488  155.2671 C   0  0  0  0  0  0  0  0  0  0  0  0
  148.6527  141.0490  155.6720 N   0  0  0  0  0  0  0  0  0  0  0  0
  149.4130  141.8966  156.3099 C   0  0  0  0  0  0  0  0  0  0  0  0
  150.7436  141.5495  156.3908 N   0  0  0  0  0  0  0  0  0  0  0  0
  151.8005  142.3119  157.0399 C   0  0  0  0  0  0  0  0  0  0  0  0
  151.5477  142.6132  158.5305 C   0  0  0  0  0  0  0  0  0  0  0  0
  151.4214  141.2813  159.2992 C   0  0  0  0  0  0  0  0  0  0  0  0
  152.5842  140.4836  159.1969 O   0  0  0  0  0  0  0  0  0  0  0  0
  152.4525  143.6746  159.1735 C   0  0  0  0  0  0  0  0  0  0  0  0
  151.3195  144.4393  159.6415 O   0  0  0  0  0  0  0  0  0  0  0  0
  150.4506  143.6553  158.7953 C   0  0  0  0  0  0  0  0  0  0  0  0
  146.4393  132.8683  153.2397 H   0  0  0  0  0  0  0  0  0  0  0  0
  146.8786  133.9258  154.5703 H   0  0  0  0  0  0  0  0  0  0  0  0
  147.8921  133.8425  153.1296 H   0  0  0  0  0  0  0  0  0  0  0  0
  146.0319  134.8403  151.7505 H   0  0  0  0  0  0  0  0  0  0  0  0
  144.9881  134.8658  153.1416 H   0  0  0  0  0  0  0  0  0  0  0  0
  145.3655  136.9864  151.5019 H   0  0  0  0  0  0  0  0  0  0  0  0
  144.9425  137.7883  152.9859 H   0  0  0  0  0  0  0  0  0  0  0  0
  147.5413  138.0973  151.3662 H   0  0  0  0  0  0  0  0  0  0  0  0
  146.2201  139.2236  151.3493 H   0  0  0  0  0  0  0  0  0  0  0  0
  148.0565  140.0673  152.6671 H   0  0  0  0  0  0  0  0  0  0  0  0
  146.8343  140.9625  154.4176 H   0  0  0  0  0  0  0  0  0  0  0  0
  145.4760  140.2884  153.5296 H   0  0  0  0  0  0  0  0  0  0  0  0
  146.3527  139.5896  156.1594 H   0  0  0  0  0  0  0  0  0  0  0  0
  145.1633  138.6903  155.2388 H   0  0  0  0  0  0  0  0  0  0  0  0
  147.7122  137.8041  155.9950 H   0  0  0  0  0  0  0  0  0  0  0  0
  145.6353  136.4549  155.1225 H   0  0  0  0  0  0  0  0  0  0  0  0
  147.2422  135.7972  155.0349 H   0  0  0  0  0  0  0  0  0  0  0  0
  152.5037  137.8337  154.5929 H   0  0  0  0  0  0  0  0  0  0  0  0
  149.0205  142.8023  156.7490 H   0  0  0  0  0  0  0  0  0  0  0  0
  152.7335  141.7613  156.9124 H   0  0  0  0  0  0  0  0  0  0  0  0
  151.9333  143.2423  156.4866 H   0  0  0  0  0  0  0  0  0  0  0  0
  151.2251  141.4603  160.3567 H   0  0  0  0  0  0  0  0  0  0  0  0
  150.5923  140.6850  158.9179 H   0  0  0  0  0  0  0  0  0  0  0  0
  152.8705  140.4804  158.2962 H   0  0  0  0  0  0  0  0  0  0  0  0
  153.0735  143.2997  159.9875 H   0  0  0  0  0  0  0  0  0  0  0  0
  153.0487  144.2462  158.4617 H   0  0  0  0  0  0  0  0  0  0  0  0
  150.1453  144.2119  157.9079 H   0  0  0  0  0  0  0  0  0  0  0  0
  149.5790  143.2713  159.3262 H   0  0  0  0  0  0  0  0  0  0  0  0
  147.4448  136.3693  152.8263 H   0  0  0  0  0  0  0  0  0  0  0  0
  1  2  1  0  0  0  0
  1 28  1  0  0  0  0
  1 29  1  0  0  0  0
  1 30  1  0  0  0  0
  2  3  1  0  0  0  0
  2 31  1  0  0  0  0
  2 32  1  0  0  0  0
  3 10  1  0  0  0  0
  3  4  1  0  0  0  0
  3 56  1  0  0  0  0
  4  5  1  0  0  0  0
  4 33  1  0  0  0  0
  4 34  1  0  0  0  0
  5  6  1  0  0  0  0
  5 35  1  0  0  0  0
  5 36  1  0  0  0  0
  6 11  1  0  0  0  0
  6  7  1  0  0  0  0
  6 37  1  0  0  0  0
  7  8  1  0  0  0  0
  7 38  1  0  0  0  0
  7 39  1  0  0  0  0
  8  9  1  0  0  0  0
  8 40  1  0  0  0  0
  8 41  1  0  0  0  0
  9 10  1  0  0  0  0
  9 11  1  0  0  0  0
  9 42  1  0  0  0  0
 10 43  1  0  0  0  0
 10 44  1  0  0  0  0
 11 12  1  0  0  0  0
 12 17  1  0  0  0  0
 12 13  2  0  0  0  0
 13 14  1  0  0  0  0
 14 15  2  0  0  0  0
 14 45  1  0  0  0  0
 15 16  1  0  0  0  0
 16 20  1  0  0  0  0
 16 17  2  0  0  0  0
 17 18  1  0  0  0  0
 18 19  2  0  0  0  0
 19 20  1  0  0  0  0
 19 46  1  0  0  0  0
 20 21  1  0  0  0  0
 21 22  1  0  0  0  0
 21 47  1  0  0  0  0
 21 48  1  0  0  0  0
 22 27  1  0  0  0  0
 22 23  1  0  0  0  0
 22 25  1  0  0  0  0
 23 24  1  0  0  0  0
 23 49  1  0  0  0  0
 23 50  1  0  0  0  0
 24 51  1  0  0  0  0
 25 26  1  0  0  0  0
 25 52  1  0  0  0  0
 25 53  1  0  0  0  0
 26 27  1  0  0  0  0
 27 54  1  0  0  0  0
 27 55  1  0  0  0  0
M  CHG  1   3   1
M  END
> <s_m_source_file>
AV-unprocessed.smi

> <i_m_source_file_index>
169

> <i_lp_mmshare_version>
43012

> <i_f3d_flags>
0

> <s_epik_input>
W0NASF0xMltDSDJdW0NIMl1OKFtDSDJdW0NIM10pW0NIMl1bQ0BIXShbQ0gyXVtDSDJdMSlOMmMobltjSF1uMyljKGMzNCluW2NIXW40W0NIMl1DNShbQ0gyXVtPSF0pW0NIMl1PW0NIMl01

> <s_epik_cmdline>
J2VwaWtfcHl0aG9uJywgJy1waCcsICc3LjAnLCAnLXRuJywgJzgnLCAnLW1hJywgJzIwMCcsICctbWV0YWxfYmluZGluZycsICctaW1hZScsICc8aW5maWxlLm1hZT4nLCAnLW9tYWUnLCAnPG91dGZpbGUubWFlPic=

> <r_lp_tautomer_probability>
1

> <r_epik_Ionization_Penalty>
0.00274162

> <r_epik_Ionization_Penalty_Charging>
0.00243722

> <r_epik_Ionization_Penalty_Neutral>
0.000304399

> <r_epik_State_Penalty>
-0

> <r_epik_Charging_Adjusted_Penalty>
0.00243722

> <i_epik_Tot_Q>
1

> <i_epik_Tot_abs_Q>
1

> <r_epik_Metal_State_Penalty>
-0

> <b_epik_Metal_Only>
0

> <s_lp_Force_Field>
OPLS_2005

> <r_lp_Energy>
78.3459

> <b_lp_Chiralities_Consistent>
1

> <s_lp_Variant>
AV-unprocessed.smi:169-2

> <Gold.Version>
5.8.1

> <Gold.Id.Protein>
6NUR|6NUR_protein|mol2

> <Gold.PLP.Fitness>
43.8734

> <Gold.PLP.PLP>
-35.9114

> <Gold.PLP.part.hbond>
-2.0000

> <Gold.PLP.part.metal>
0.0000

> <Gold.PLP.part.buried>
-2.4635

> <Gold.PLP.part.nonpolar>
-31.6370

> <Gold.PLP.part.repulsive>
0.6022

> <Gold.PLP.ligand.clash>
0.0000

> <Gold.PLP.ligand.torsion>
0.3648

> <Gold.PLP.Chemscore.Hbond>
2.0000

> <Gold.PLP.Chemscore.CHOScore>
0.7236

> <Gold.PLP.Chemscore.Metal>
0.0000

> <Gold.Chemscore.Hbonds>
donor molecule, donor type, donor heavy atom, donor atom, acceptor molecule, acceptor atom, score
      L1  H     3    56       P1  7948  2.00
      L1  C    19    46       P1  8028  0.88

> <Gold.PLP.Chemscore.Internal.Correction>
0.5208

> <Gold.Rescore>
     Score         DG    S(hbond)    S(metal)    S(lipo)     H(rot)  DE(clash)    DE(int)     intcor
     11.52     -14.74       1.73        0.00      87.03       2.62       1.86       1.36       ----

> <Gold.Chemscore.Fitness>
11.5241

> <Gold.Chemscore.DG>
-14.7441

> <Gold.Chemscore.ZeroCoef>
-5.4800

> <Gold.Chemscore.Hbond>
1.7341

> <Gold.Chemscore.Metal>
0.0000

> <Gold.Chemscore.Lipo>
87.0300

> <Gold.Chemscore.Internal_Hbond>
0.0000

> <Gold.Chemscore.DEClash>
1.8636

> <Gold.Chemscore.DEInternal>
1.3565

> <Gold.Chemscore.Rot>
2.6212

> <Gold.Chemscore.Internal.Correction>
   9.000000E+99

> <Gold.Chemscore.Hbonds>
donor molecule, donor type, donor heavy atom, donor atom, acceptor molecule, acceptor atom, score
      L1  H     3    56       P1  7948  1.00

> <Gold.Chemscore.Hbond.Weighted>
-5.7918

> <Gold.Chemscore.Metal.Weighted>
-0.0000

> <Gold.Chemscore.Lipo.Weighted>
-10.1825

> <Gold.Chemscore.Internal_Hbond.Weighted>
0.0000

> <Gold.Chemscore.DEClash.Weighted>
1.8636

> <Gold.Chemscore.DEInternal.Weighted>
1.3565

> <Gold.Chemscore.Rot.Weighted>
6.7102

> <Gold.Chemscore.Internal.Correction.Weighted>
   9.000000E+99

> <Gold.Protein.RotatedTorsions>
[ 6907 6896 6895 6894 ] final   -6.23 input  -60.11 | X-H torsion
[ 7974 7965 7964 7962 ] final -140.56 input  175.53 | X-H torsion
[ 8008 7997 7996 7995 ] final   69.49 input   59.86 | X-H torsion
[ 10167 10162 10161 10158 ] final   86.86 input  -65.29 | X-H torsion
[ 10718 10713 10712 10709 ] final  -73.46 input   66.30 | X-H torsion
[ 10763 10752 10751 10750 ] final   78.82 input  -60.55 | X-H torsion
[ 11005 11000 10999 10996 ] final  -30.92 input  -57.11 | X-H torsion

> <Gold.Protein.ActiveResidues>
 VAL166  LYS551  ARG553  GLY616  TRP617  ASP618  TYR619  PRO620  LYS621  CYS622 
 ASP623  PHE694  ASN695  SER759  ASP760  ASP761  ALA762  ILE779  LEU786  VAL792 
 PHE793  MET794  SER795  GLU796  ALA797  LYS798  CYS799  TRP800  GLU811  SER814 

> <Gold.Protein.RotatedAtoms>
  151.4689  135.1044  159.9745 H   0  0  0  0  0  0  0  0  0  0  0  0  # atno 6907 bound_to 6896
  152.4824  133.8284  159.7100 H   0  0  0  0  0  0  0  0  0  0  0  0  # atno 6908 bound_to 6896
  150.8906  133.7187  159.2932 H   0  0  0  0  0  0  0  0  0  0  0  0  # atno 6909 bound_to 6896
  144.8588  140.6185  143.5342 H   0  0  0  0  0  0  0  0  0  0  0  0  # atno 7974 bound_to 7965
  155.7243  140.3493  155.5030 H   0  0  0  0  0  0  0  0  0  0  0  0  # atno 8008 bound_to 7997
  155.9241  140.1072  157.1206 H   0  0  0  0  0  0  0  0  0  0  0  0  # atno 8009 bound_to 7997
  154.4074  140.1244  156.4704 H   0  0  0  0  0  0  0  0  0  0  0  0  # atno 8010 bound_to 7997
  139.8832  144.6428  150.8820 H   0  0  0  0  0  0  0  0  0  0  0  0  # atno 10167 bound_to 10162
  156.0279  130.4394  150.2745 H   0  0  0  0  0  0  0  0  0  0  0  0  # atno 10718 bound_to 10713
  153.0904  135.4863  154.8678 H   0  0  0  0  0  0  0  0  0  0  0  0  # atno 10763 bound_to 10752
  154.7262  135.3050  154.8970 H   0  0  0  0  0  0  0  0  0  0  0  0  # atno 10764 bound_to 10752
  153.9619  135.6811  153.4798 H   0  0  0  0  0  0  0  0  0  0  0  0  # atno 10765 bound_to 10752
  140.9424  133.7270  156.1096 H   0  0  0  0  0  0  0  0  0  0  0  0  # atno 11005 bound_to 11000
  145.4354  139.1543  143.3999 LP  0  0  0  0  0  0  0  0  0  0  0  0  # atno 17320 bound_to 7965
  146.2844  140.4472  142.8764 LP  0  0  0  0  0  0  0  0  0  0  0  0  # atno 17321 bound_to 7965
  140.7740  143.3569  151.1904 LP  0  0  0  0  0  0  0  0  0  0  0  0  # atno 17342 bound_to 10162
  139.7177  143.9274  152.2973 LP  0  0  0  0  0  0  0  0  0  0  0  0  # atno 17343 bound_to 10162
  157.0848  131.0153  151.3143 LP  0  0  0  0  0  0  0  0  0  0  0  0  # atno 17370 bound_to 10713
  157.4899  130.7816  149.7497 LP  0  0  0  0  0  0  0  0  0  0  0  0  # atno 17371 bound_to 10713
  140.7715  134.3827  157.5506 LP  0  0  0  0  0  0  0  0  0  0  0  0  # atno 17394 bound_to 11000
  139.8824  134.9025  156.2834 LP  0  0  0  0  0  0  0  0  0  0  0  0  # atno 17395 bound_to 11000

$$$$
