AV-unprocessed.smi:1514|AV-procd|sdf|6116|dock10
  -GOLD-   22720 6253D 1   1.00000     0.00000
 Structure written by MMmdl.
 47 48  0  0  0  0  0  0  0  0  1 V2000
  152.8696  143.2999  159.5445 C   0  0  0  0  0  0  0  0  0  0  0  0
  151.4376  142.9403  159.1235 C   0  0  0  0  0  0  0  0  0  0  0  0
  151.3220  142.3096  157.8103 N   0  0  0  0  0  0  0  0  0  0  0  0
  149.9196  142.1762  157.4159 C   0  0  0  0  0  0  0  0  0  0  0  0
  149.7775  141.5309  156.0250 C   0  0  0  0  0  0  0  0  0  0  0  0
  150.3937  140.2021  155.9822 N   0  0  0  0  0  0  0  0  0  0  0  0
  150.2822  139.5755  154.6667 C   0  0  0  0  0  0  0  0  0  0  0  0
  151.3207  138.4790  154.3805 C   0  0  0  0  0  0  0  0  0  0  0  0
  150.6538  137.2198  154.0823 N   0  0  0  0  0  0  0  0  0  0  0  0
  150.9609  136.0460  154.6502 C   0  0  0  0  0  0  0  0  0  0  0  0
  151.8429  135.9148  155.4991 O   0  0  0  0  0  0  0  0  0  0  0  0
  150.1834  135.0589  154.1720 N   0  0  0  0  0  0  0  0  0  0  0  0
  150.2154  133.7321  154.4667 C   0  0  0  0  0  0  0  0  0  0  0  0
  151.0558  133.0568  155.3091 C   0  0  0  0  0  0  0  0  0  0  0  0
  150.6045  131.7101  155.1887 C   0  0  0  0  0  0  0  0  0  0  0  0
  151.1425  130.4896  155.8755 C   0  0  0  0  0  0  0  0  0  0  0  0
  149.5810  131.5855  154.3513 N   0  0  0  0  0  0  0  0  0  0  0  0
  149.3379  132.8349  153.8999 N   0  0  0  0  0  0  0  0  0  0  0  0
  148.2681  133.0678  152.9493 C   0  0  0  0  0  0  0  0  0  0  0  0
  151.7956  140.3353  156.3789 C   0  0  0  0  0  0  0  0  0  0  0  0
  151.9364  140.9804  157.7701 C   0  0  0  0  0  0  0  0  0  0  0  0
  152.8638  143.8591  160.4801 H   0  0  0  0  0  0  0  0  0  0  0  0
  153.3566  143.9203  158.7917 H   0  0  0  0  0  0  0  0  0  0  0  0
  153.4837  142.4135  159.7021 H   0  0  0  0  0  0  0  0  0  0  0  0
  150.9831  142.3030  159.8835 H   0  0  0  0  0  0  0  0  0  0  0  0
  150.8574  143.8641  159.1210 H   0  0  0  0  0  0  0  0  0  0  0  0
  149.3787  141.5799  158.1525 H   0  0  0  0  0  0  0  0  0  0  0  0
  149.4458  143.1582  157.4026 H   0  0  0  0  0  0  0  0  0  0  0  0
  148.7174  141.4632  155.7837 H   0  0  0  0  0  0  0  0  0  0  0  0
  150.2295  142.1787  155.2721 H   0  0  0  0  0  0  0  0  0  0  0  0
  149.2771  139.1711  154.5359 H   0  0  0  0  0  0  0  0  0  0  0  0
  150.3968  140.3462  153.9031 H   0  0  0  0  0  0  0  0  0  0  0  0
  151.9461  138.7701  153.5348 H   0  0  0  0  0  0  0  0  0  0  0  0
  151.9789  138.3283  155.2365 H   0  0  0  0  0  0  0  0  0  0  0  0
  149.9156  137.2440  153.3942 H   0  0  0  0  0  0  0  0  0  0  0  0
  149.4905  135.3303  153.4901 H   0  0  0  0  0  0  0  0  0  0  0  0
  151.8634  133.4399  155.9144 H   0  0  0  0  0  0  0  0  0  0  0  0
  152.0582  130.7161  156.4215 H   0  0  0  0  0  0  0  0  0  0  0  0
  151.3722  129.7027  155.1566 H   0  0  0  0  0  0  0  0  0  0  0  0
  150.4204  130.0906  156.5882 H   0  0  0  0  0  0  0  0  0  0  0  0
  148.6588  133.5961  152.0793 H   0  0  0  0  0  0  0  0  0  0  0  0
  147.4910  133.6737  153.4156 H   0  0  0  0  0  0  0  0  0  0  0  0
  147.8324  132.1229  152.6216 H   0  0  0  0  0  0  0  0  0  0  0  0
  152.2688  139.3529  156.3935 H   0  0  0  0  0  0  0  0  0  0  0  0
  152.3382  140.9312  155.6432 H   0  0  0  0  0  0  0  0  0  0  0  0
  152.9963  141.0477  158.0133 H   0  0  0  0  0  0  0  0  0  0  0  0
  151.4823  140.3337  158.5226 H   0  0  0  0  0  0  0  0  0  0  0  0
  1  2  1  0  0  0  0
  1 22  1  0  0  0  0
  1 23  1  0  0  0  0
  1 24  1  0  0  0  0
  2  3  1  0  0  0  0
  2 25  1  0  0  0  0
  2 26  1  0  0  0  0
  3 21  1  0  0  0  0
  3  4  1  0  0  0  0
  4  5  1  0  0  0  0
  4 27  1  0  0  0  0
  4 28  1  0  0  0  0
  5  6  1  0  0  0  0
  5 29  1  0  0  0  0
  5 30  1  0  0  0  0
  6  7  1  0  0  0  0
  6 20  1  0  0  0  0
  7  8  1  0  0  0  0
  7 31  1  0  0  0  0
  7 32  1  0  0  0  0
  8  9  1  0  0  0  0
  8 33  1  0  0  0  0
  8 34  1  0  0  0  0
  9 10  1  0  0  0  0
  9 35  1  0  0  0  0
 10 11  2  0  0  0  0
 10 12  1  0  0  0  0
 12 13  1  0  0  0  0
 12 36  1  0  0  0  0
 13 18  1  0  0  0  0
 13 14  2  0  0  0  0
 14 15  1  0  0  0  0
 14 37  1  0  0  0  0
 15 16  1  0  0  0  0
 15 17  2  0  0  0  0
 16 38  1  0  0  0  0
 16 39  1  0  0  0  0
 16 40  1  0  0  0  0
 17 18  1  0  0  0  0
 18 19  1  0  0  0  0
 19 41  1  0  0  0  0
 19 42  1  0  0  0  0
 19 43  1  0  0  0  0
 20 21  1  0  0  0  0
 20 44  1  0  0  0  0
 20 45  1  0  0  0  0
 21 46  1  0  0  0  0
 21 47  1  0  0  0  0
M  END
> <s_m_source_file>
AV-unprocessed.smi

> <i_m_source_file_index>
1514

> <i_lp_mmshare_version>
43012

> <i_f3d_flags>
0

> <s_epik_input>
W0NIM11bQ0gyXU4xW0NIMl1bQ0gyXU4oW0NIMl1bQ0gyXTEpW0NIMl1bQ0gyXVtOSF1DKD1PKVtOSF1jMltjSF1jKFtDSDNdKW5uMltDSDNd

> <s_epik_cmdline>
J2VwaWtfcHl0aG9uJywgJy1waCcsICc3LjAnLCAnLXRuJywgJzgnLCAnLW1hJywgJzIwMCcsICctbWV0YWxfYmluZGluZycsICctaW1hZScsICc8aW5maWxlLm1hZT4nLCAnLW9tYWUnLCAnPG91dGZpbGUubWFlPic=

> <r_lp_tautomer_probability>
1

> <r_epik_Ionization_Penalty>
2.12169

> <r_epik_Ionization_Penalty_Charging>
0

> <r_epik_Ionization_Penalty_Neutral>
2.12169

> <r_epik_State_Penalty>
1.63644

> <r_epik_Charging_Adjusted_Penalty>
1.63644

> <i_epik_Tot_Q>
0

> <i_epik_Tot_abs_Q>
0

> <r_epik_Metal_State_Penalty>
1.63644

> <b_epik_Metal_Only>
0

> <s_lp_Force_Field>
OPLS_2005

> <r_lp_Energy>
34.6539

> <b_lp_Chiralities_Consistent>
1

> <s_lp_Variant>
AV-unprocessed.smi:1514-3

> <Gold.Version>
5.8.1

> <Gold.Id.Protein>
6NUR|6NUR_protein|mol2

> <Gold.PLP.Fitness>
46.5573

> <Gold.PLP.PLP>
-39.2619

> <Gold.PLP.part.hbond>
-4.6759

> <Gold.PLP.part.metal>
0.0000

> <Gold.PLP.part.buried>
-1.1535

> <Gold.PLP.part.nonpolar>
-33.5898

> <Gold.PLP.part.repulsive>
0.2726

> <Gold.PLP.ligand.clash>
0.0000

> <Gold.PLP.ligand.torsion>
0.6955

> <Gold.PLP.Chemscore.Hbond>
2.8780

> <Gold.PLP.Chemscore.CHOScore>
0.0000

> <Gold.PLP.Chemscore.Metal>
0.0000

> <Gold.Chemscore.Hbonds>
donor molecule, donor type, donor heavy atom, donor atom, acceptor molecule, acceptor atom, score
      L1  H     9    35       P1  7948  0.90
      L1  H    12    36       P1  7948  0.75
      P1  H 10752 10765       L1    11  0.83

> <Gold.PLP.Chemscore.Internal.Correction>
0.0523

> <Gold.Rescore>
     Score         DG    S(hbond)    S(metal)    S(lipo)     H(rot)  DE(clash)    DE(int)     intcor
     16.27     -18.01       2.10        0.00      83.04       1.64       0.04       1.70       ----

> <Gold.Chemscore.Fitness>
16.2692

> <Gold.Chemscore.DG>
-18.0119

> <Gold.Chemscore.ZeroCoef>
-5.4800

> <Gold.Chemscore.Hbond>
2.1027

> <Gold.Chemscore.Metal>
0.0000

> <Gold.Chemscore.Lipo>
83.0377

> <Gold.Chemscore.Internal_Hbond>
0.0000

> <Gold.Chemscore.DEClash>
0.0392

> <Gold.Chemscore.DEInternal>
1.7035

> <Gold.Chemscore.Rot>
1.6432

> <Gold.Chemscore.Internal.Correction>
   9.000000E+99

> <Gold.Chemscore.Hbonds>
donor molecule, donor type, donor heavy atom, donor atom, acceptor molecule, acceptor atom, score
      L1  H     9    35       P1  7948  0.32
      L1  H    12    36       P1  7948  0.09
      P1  H 10752 10765       L1    11  0.77

> <Gold.Chemscore.Hbond.Weighted>
-7.0229

> <Gold.Chemscore.Metal.Weighted>
-0.0000

> <Gold.Chemscore.Lipo.Weighted>
-9.7154

> <Gold.Chemscore.Internal_Hbond.Weighted>
0.0000

> <Gold.Chemscore.DEClash.Weighted>
0.0392

> <Gold.Chemscore.DEInternal.Weighted>
1.7035

> <Gold.Chemscore.Rot.Weighted>
4.2065

> <Gold.Chemscore.Internal.Correction.Weighted>
   9.000000E+99

> <Gold.Protein.RotatedTorsions>
[ 6907 6896 6895 6894 ] final  147.06 input  -60.11 | X-H torsion
[ 7974 7965 7964 7962 ] final  -44.50 input  175.53 | X-H torsion
[ 8008 7997 7996 7995 ] final  145.59 input   59.86 | X-H torsion
[ 10167 10162 10161 10158 ] final  -76.26 input  -65.29 | X-H torsion
[ 10718 10713 10712 10709 ] final  -35.53 input   66.30 | X-H torsion
[ 10763 10752 10751 10750 ] final -146.57 input  -60.55 | X-H torsion
[ 11005 11000 10999 10996 ] final   18.64 input  -57.11 | X-H torsion

> <Gold.Protein.ActiveResidues>
 VAL166  LYS551  ARG553  GLY616  TRP617  ASP618  TYR619  PRO620  LYS621  CYS622 
 ASP623  PHE694  ASN695  SER759  ASP760  ASP761  ALA762  ILE779  LEU786  VAL792 
 PHE793  MET794  SER795  GLU796  ALA797  LYS798  CYS799  TRP800  GLU811  SER814 

> <Gold.Protein.RotatedAtoms>
  152.1597  133.4574  159.4854 H   0  0  0  0  0  0  0  0  0  0  0  0  # atno 6907 bound_to 6896
  150.6905  134.2087  159.4360 H   0  0  0  0  0  0  0  0  0  0  0  0  # atno 6908 bound_to 6896
  151.9988  134.9939  160.0615 H   0  0  0  0  0  0  0  0  0  0  0  0  # atno 6909 bound_to 6896
  145.9915  140.7176  142.9315 H   0  0  0  0  0  0  0  0  0  0  0  0  # atno 7974 bound_to 7965
  156.2879  140.2205  156.5240 H   0  0  0  0  0  0  0  0  0  0  0  0  # atno 8008 bound_to 7997
  154.7504  140.0481  157.0910 H   0  0  0  0  0  0  0  0  0  0  0  0  # atno 8009 bound_to 7997
  155.0117  140.3113  155.4830 H   0  0  0  0  0  0  0  0  0  0  0  0  # atno 8010 bound_to 7997
  140.4872  143.2388  151.7965 H   0  0  0  0  0  0  0  0  0  0  0  0  # atno 10167 bound_to 10162
  156.3376  130.4288  149.7816 H   0  0  0  0  0  0  0  0  0  0  0  0  # atno 10718 bound_to 10713
  154.8329  135.3383  154.6682 H   0  0  0  0  0  0  0  0  0  0  0  0  # atno 10763 bound_to 10752
  153.7300  135.6952  153.4996 H   0  0  0  0  0  0  0  0  0  0  0  0  # atno 10764 bound_to 10752
  153.2319  135.4413  155.0557 H   0  0  0  0  0  0  0  0  0  0  0  0  # atno 10765 bound_to 10752
  140.4225  134.1503  155.7674 H   0  0  0  0  0  0  0  0  0  0  0  0  # atno 11005 bound_to 11000
  144.6890  140.3077  143.7253 LP  0  0  0  0  0  0  0  0  0  0  0  0  # atno 17320 bound_to 7965
  145.7623  139.1829  143.2260 LP  0  0  0  0  0  0  0  0  0  0  0  0  # atno 17321 bound_to 7965
  139.4844  144.4697  151.9441 LP  0  0  0  0  0  0  0  0  0  0  0  0  # atno 17342 bound_to 10162
  140.3783  144.2769  150.5911 LP  0  0  0  0  0  0  0  0  0  0  0  0  # atno 17343 bound_to 10162
  156.5065  130.8152  151.3152 LP  0  0  0  0  0  0  0  0  0  0  0  0  # atno 17370 bound_to 10713
  157.7441  130.9928  150.2648 LP  0  0  0  0  0  0  0  0  0  0  0  0  # atno 17371 bound_to 10713
  141.1778  133.8477  157.1362 LP  0  0  0  0  0  0  0  0  0  0  0  0  # atno 17394 bound_to 11000
  140.0190  134.9954  157.0552 LP  0  0  0  0  0  0  0  0  0  0  0  0  # atno 17395 bound_to 11000

$$$$
