AV-unprocessed.smi:1362|AV-procd|sdf|5563|dock3
  -GOLD-   22720 5153D 1   1.00000     0.00000
 Structure written by MMmdl.
 38 38  0  0  0  0  0  0  0  0  2 V2000
  153.3605  142.9917  163.6289 C   0  0  0  0  0  0  0  0  0  0  0  0
  152.9663  143.0609  162.1690 C   0  0  0  0  0  0  0  0  0  0  0  0
  152.3488  144.0936  161.7368 N   0  0  0  0  0  0  0  0  0  0  0  0
  151.9799  144.1620  160.3824 C   0  0  0  0  0  0  0  0  0  0  0  0
  151.2463  145.4223  159.9566 C   0  0  0  0  0  0  0  0  0  0  0  0
  152.2717  143.1468  159.5194 C   0  0  0  0  0  0  0  0  0  0  0  0
  151.8878  143.1733  158.0401 C   0  0  0  0  0  0  0  0  0  0  0  0
  150.8978  142.0983  157.5853 C   0  0  0  0  0  0  0  0  0  0  0  0
  150.3013  141.4064  158.4109 O   0  0  0  0  0  0  0  0  0  0  0  0
  150.7375  141.9678  156.2593 N   0  0  0  0  0  0  0  0  0  0  0  0
  149.8779  140.9885  155.5959 C   0  0  1  0  0  0  0  0  0  0  0  0
  148.8567  141.7358  154.7171 C   0  0  0  0  0  0  0  0  0  0  0  0
  150.7425  139.9713  154.8047 C   0  0  0  0  0  0  0  0  0  0  0  0
  149.8906  138.9052  154.0921 C   0  0  0  0  0  0  0  0  0  0  0  0
  151.7903  139.2764  155.6971 C   0  0  0  0  0  0  0  0  0  0  0  0
  152.9897  141.9770  160.0564 C   0  0  0  0  0  0  0  0  0  0  0  0
  153.2904  141.0396  159.3182 O   0  0  0  0  0  0  0  0  0  0  0  0
  153.3031  141.9817  161.3834 N   0  5  0  0  0  0  0  0  0  0  0  0
  153.2591  143.9659  164.1091 H   0  0  0  0  0  0  0  0  0  0  0  0
  154.3975  142.6698  163.7298 H   0  0  0  0  0  0  0  0  0  0  0  0
  152.7242  142.2804  164.1561 H   0  0  0  0  0  0  0  0  0  0  0  0
  150.2391  145.1819  159.6162 H   0  0  0  0  0  0  0  0  0  0  0  0
  151.7776  145.9223  159.1464 H   0  0  0  0  0  0  0  0  0  0  0  0
  151.1609  146.1274  160.7844 H   0  0  0  0  0  0  0  0  0  0  0  0
  151.4850  144.1470  157.7606 H   0  0  0  0  0  0  0  0  0  0  0  0
  152.8013  143.0748  157.4529 H   0  0  0  0  0  0  0  0  0  0  0  0
  151.2694  142.5823  155.6605 H   0  0  0  0  0  0  0  0  0  0  0  0
  149.3282  140.4345  156.3596 H   0  0  0  0  0  0  0  0  0  0  0  0
  148.1148  141.0591  154.2943 H   0  0  0  0  0  0  0  0  0  0  0  0
  149.3466  142.2561  153.8934 H   0  0  0  0  0  0  0  0  0  0  0  0
  148.3074  142.4784  155.2967 H   0  0  0  0  0  0  0  0  0  0  0  0
  151.2880  140.5191  154.0347 H   0  0  0  0  0  0  0  0  0  0  0  0
  149.2636  138.3612  154.7993 H   0  0  0  0  0  0  0  0  0  0  0  0
  150.5213  138.1767  153.5816 H   0  0  0  0  0  0  0  0  0  0  0  0
  149.2413  139.3428  153.3345 H   0  0  0  0  0  0  0  0  0  0  0  0
  151.3145  138.7397  156.5185 H   0  0  0  0  0  0  0  0  0  0  0  0
  152.4961  139.9860  156.1289 H   0  0  0  0  0  0  0  0  0  0  0  0
  152.3761  138.5558  155.1257 H   0  0  0  0  0  0  0  0  0  0  0  0
  1  2  1  0  0  0  0
  1 19  1  0  0  0  0
  1 20  1  0  0  0  0
  1 21  1  0  0  0  0
  2 18  1  0  0  0  0
  2  3  2  0  0  0  0
  3  4  1  0  0  0  0
  4  5  1  0  0  0  0
  4  6  2  0  0  0  0
  5 22  1  0  0  0  0
  5 23  1  0  0  0  0
  5 24  1  0  0  0  0
  6  7  1  0  0  0  0
  6 16  1  0  0  0  0
  7  8  1  0  0  0  0
  7 25  1  0  0  0  0
  7 26  1  0  0  0  0
  8  9  2  0  0  0  0
  8 10  1  0  0  0  0
 10 11  1  0  0  0  0
 10 27  1  0  0  0  0
 11 12  1  0  0  0  0
 11 13  1  0  0  0  0
 11 28  1  0  0  0  0
 12 29  1  0  0  0  0
 12 30  1  0  0  0  0
 12 31  1  0  0  0  0
 13 14  1  0  0  0  0
 13 15  1  0  0  0  0
 13 32  1  0  0  0  0
 14 33  1  0  0  0  0
 14 34  1  0  0  0  0
 14 35  1  0  0  0  0
 15 36  1  0  0  0  0
 15 37  1  0  0  0  0
 15 38  1  0  0  0  0
 16 17  2  0  0  0  0
 16 18  1  0  0  0  0
M  CHG  1  18  -1
M  END
> <s_m_source_file>
AV-unprocessed.smi

> <i_m_source_file_index>
1362

> <i_lp_mmshare_version>
43012

> <i_f3d_flags>
0

> <s_epik_input>
W0NIM11jMW5jKFtDSDNdKWMoYyg9TylbbkhdMSlbQ0gyXUMoPU8pW05IXVtDQEhdKFtDSDNdKVtDSF0oW0NIM10pW0NIM10=

> <s_epik_cmdline>
J2VwaWtfcHl0aG9uJywgJy1waCcsICc3LjAnLCAnLXRuJywgJzgnLCAnLW1hJywgJzIwMCcsICctbWV0YWxfYmluZGluZycsICctaW1hZScsICc8aW5maWxlLm1hZT4nLCAnLW9tYWUnLCAnPG91dGZpbGUubWFlPic=

> <r_lp_tautomer_probability>
0.839158

> <r_epik_Ionization_Penalty>
6.62204

> <r_epik_Ionization_Penalty_Charging>
7.30593e-08

> <r_epik_Ionization_Penalty_Neutral>
6.62204

> <r_epik_State_Penalty>
4.44062

> <r_epik_Charging_Adjusted_Penalty>
4.44062

> <i_epik_Tot_Q>
-1

> <i_epik_Tot_abs_Q>
1

> <r_epik_Metal_State_Penalty>
0.802984

> <b_epik_Metal_Only>
1

> <s_lp_Force_Field>
OPLS_2005

> <r_lp_Energy>
10.9313

> <b_lp_Chiralities_Consistent>
1

> <s_lp_Variant>
AV-unprocessed.smi:1362-6

> <Gold.Version>
5.8.1

> <Gold.Id.Protein>
6NUR|6NUR_protein|mol2

> <Gold.PLP.Fitness>
42.5468

> <Gold.PLP.PLP>
-42.8217

> <Gold.PLP.part.hbond>
0.0000

> <Gold.PLP.part.metal>
0.0000

> <Gold.PLP.part.buried>
-4.8526

> <Gold.PLP.part.nonpolar>
-38.7062

> <Gold.PLP.part.repulsive>
0.3147

> <Gold.PLP.ligand.clash>
0.0000

> <Gold.PLP.ligand.torsion>
0.1570

> <Gold.PLP.Chemscore.Hbond>
0.0000

> <Gold.PLP.Chemscore.CHOScore>
0.0000

> <Gold.PLP.Chemscore.Metal>
0.0000

> <Gold.PLP.Chemscore.Internal.Correction>
0.0392

> <Gold.Rescore>
     Score         DG    S(hbond)    S(metal)    S(lipo)     H(rot)  DE(clash)    DE(int)     intcor
     11.33     -11.45       0.00        0.00      86.94       1.64       0.02       0.10       ----

> <Gold.Chemscore.Fitness>
11.3291

> <Gold.Chemscore.DG>
-11.4451

> <Gold.Chemscore.ZeroCoef>
-5.4800

> <Gold.Chemscore.Hbond>
0.0000

> <Gold.Chemscore.Metal>
0.0000

> <Gold.Chemscore.Lipo>
86.9401

> <Gold.Chemscore.Internal_Hbond>
0.0000

> <Gold.Chemscore.DEClash>
0.0160

> <Gold.Chemscore.DEInternal>
0.1000

> <Gold.Chemscore.Rot>
1.6433

> <Gold.Chemscore.Internal.Correction>
   9.000000E+99

> <Gold.Chemscore.Hbond.Weighted>
-0.0000

> <Gold.Chemscore.Metal.Weighted>
-0.0000

> <Gold.Chemscore.Lipo.Weighted>
-10.1720

> <Gold.Chemscore.Internal_Hbond.Weighted>
0.0000

> <Gold.Chemscore.DEClash.Weighted>
0.0160

> <Gold.Chemscore.DEInternal.Weighted>
0.1000

> <Gold.Chemscore.Rot.Weighted>
4.2069

> <Gold.Chemscore.Internal.Correction.Weighted>
   9.000000E+99

> <Gold.Protein.RotatedTorsions>
[ 6907 6896 6895 6894 ] final  153.09 input  -60.11 | X-H torsion
[ 7974 7965 7964 7962 ] final -118.40 input  175.53 | X-H torsion
[ 8008 7997 7996 7995 ] final   34.14 input   59.86 | X-H torsion
[ 10167 10162 10161 10158 ] final  -32.95 input  -65.29 | X-H torsion
[ 10718 10713 10712 10709 ] final  -55.47 input   66.30 | X-H torsion
[ 10763 10752 10751 10750 ] final  -80.04 input  -60.55 | X-H torsion
[ 11005 11000 10999 10996 ] final  -38.47 input  -57.11 | X-H torsion

> <Gold.Protein.ActiveResidues>
 VAL166  LYS551  ARG553  GLY616  TRP617  ASP618  TYR619  PRO620  LYS621  CYS622 
 ASP623  PHE694  ASN695  SER759  ASP760  ASP761  ALA762  ILE779  LEU786  VAL792 
 PHE793  MET794  SER795  GLU796  ALA797  LYS798  CYS799  TRP800  GLU811  SER814 

> <Gold.Protein.RotatedAtoms>
  152.0776  133.4137  159.4486 H   0  0  0  0  0  0  0  0  0  0  0  0  # atno 6907 bound_to 6896
  150.6862  134.3019  159.4719 H   0  0  0  0  0  0  0  0  0  0  0  0  # atno 6908 bound_to 6896
  152.0858  134.9440  160.0623 H   0  0  0  0  0  0  0  0  0  0  0  0  # atno 6909 bound_to 6896
  145.0742  140.8381  143.4077 H   0  0  0  0  0  0  0  0  0  0  0  0  # atno 7974 bound_to 7965
  155.1500  140.3274  155.4433 H   0  0  0  0  0  0  0  0  0  0  0  0  # atno 8008 bound_to 7997
  156.2577  140.1978  156.6563 H   0  0  0  0  0  0  0  0  0  0  0  0  # atno 8009 bound_to 7997
  154.6480  140.0562  156.9909 H   0  0  0  0  0  0  0  0  0  0  0  0  # atno 8010 bound_to 7997
  140.7213  143.3656  151.1877 H   0  0  0  0  0  0  0  0  0  0  0  0  # atno 10167 bound_to 10162
  156.1366  130.4156  150.0175 H   0  0  0  0  0  0  0  0  0  0  0  0  # atno 10718 bound_to 10713
  154.5462  135.5675  153.6882 H   0  0  0  0  0  0  0  0  0  0  0  0  # atno 10763 bound_to 10752
  152.9977  135.6240  154.2435 H   0  0  0  0  0  0  0  0  0  0  0  0  # atno 10764 bound_to 10752
  154.2368  135.2864  155.2849 H   0  0  0  0  0  0  0  0  0  0  0  0  # atno 10765 bound_to 10752
  141.0030  133.6946  156.2057 H   0  0  0  0  0  0  0  0  0  0  0  0  # atno 11005 bound_to 11000
  145.1255  139.2665  143.5566 LP  0  0  0  0  0  0  0  0  0  0  0  0  # atno 17320 bound_to 7965
  146.3529  140.0891  142.8613 LP  0  0  0  0  0  0  0  0  0  0  0  0  # atno 17321 bound_to 7965
  139.7217  143.9212  152.2988 LP  0  0  0  0  0  0  0  0  0  0  0  0  # atno 17342 bound_to 10162
  139.8972  144.6932  150.8705 LP  0  0  0  0  0  0  0  0  0  0  0  0  # atno 17343 bound_to 10162
  156.8073  130.9312  151.3645 LP  0  0  0  0  0  0  0  0  0  0  0  0  # atno 17370 bound_to 10713
  157.6538  130.8906  149.9686 LP  0  0  0  0  0  0  0  0  0  0  0  0  # atno 17371 bound_to 10713
  140.6859  134.4718  157.5589 LP  0  0  0  0  0  0  0  0  0  0  0  0  # atno 17394 bound_to 11000
  139.9048  134.8473  156.1749 LP  0  0  0  0  0  0  0  0  0  0  0  0  # atno 17395 bound_to 11000

$$$$
