AV-unprocessed.smi:2955|AV-procd|sdf|11303|dock5
  -GOLD-   2272016203D 1   1.00000     0.00000
 Structure written by MMmdl.
 46 48  0  0  0  0  0  0  0  0  2 V2000
  150.9574  144.6050  159.2605 C   0  0  0  0  0  0  0  0  0  0  0  0
  151.8602  143.3888  159.2790 C   0  0  0  0  0  0  0  0  0  0  0  0
  152.6500  143.1055  160.4112 C   0  0  0  0  0  0  0  0  0  0  0  0
  153.4842  141.9727  160.4198 C   0  0  0  0  0  0  0  0  0  0  0  0
  153.5300  141.1230  159.2984 C   0  0  0  0  0  0  0  0  0  0  0  0
  152.7475  141.3920  158.1569 C   0  0  0  0  0  0  0  0  0  0  0  0
  152.8551  140.5092  157.1037 O   0  0  0  0  0  0  0  0  0  0  0  0
  151.9388  140.6346  156.0262 C   0  0  0  0  0  0  0  0  0  0  0  0
  150.6920  139.8042  156.3496 C   0  0  0  0  0  0  0  0  0  0  0  0
  149.9251  139.4829  155.1383 N   0  0  0  0  0  0  0  0  0  0  0  0
  150.0158  138.4179  154.2885 C   0  0  0  0  0  0  0  0  0  0  0  0
  150.9539  137.2507  154.3968 C   0  0  2  0  0  0  0  0  0  0  0  0
  152.4165  137.7182  154.4236 C   0  0  0  0  0  0  0  0  0  0  0  0
  150.7597  136.3032  153.3065 N   0  0  0  0  0  0  0  0  0  0  0  0
  151.1457  135.0219  153.3459 C   0  0  0  0  0  0  0  0  0  0  0  0
  151.7065  134.5194  154.3159 O   0  0  0  0  0  0  0  0  0  0  0  0
  149.0636  138.5919  153.3270 N   0  3  0  0  0  0  0  0  0  0  0  0
  148.3781  139.7865  153.5477 C   0  0  0  0  0  0  0  0  0  0  0  0
  147.3431  140.3874  152.8381 C   0  0  0  0  0  0  0  0  0  0  0  0
  146.8689  141.6199  153.3333 C   0  0  0  0  0  0  0  0  0  0  0  0
  147.4215  142.2080  154.4896 C   0  0  0  0  0  0  0  0  0  0  0  0
  148.4698  141.5882  155.2013 C   0  0  0  0  0  0  0  0  0  0  0  0
  148.9305  140.3679  154.7069 C   0  0  0  0  0  0  0  0  0  0  0  0
  151.9085  142.5356  158.1572 C   0  0  0  0  0  0  0  0  0  0  0  0
  151.0909  145.2144  160.1550 H   0  0  0  0  0  0  0  0  0  0  0  0
  149.9126  144.2978  159.2099 H   0  0  0  0  0  0  0  0  0  0  0  0
  151.1759  145.2259  158.3913 H   0  0  0  0  0  0  0  0  0  0  0  0
  152.6194  143.7531  161.2752 H   0  0  0  0  0  0  0  0  0  0  0  0
  154.0899  141.7549  161.2871 H   0  0  0  0  0  0  0  0  0  0  0  0
  154.1740  140.2560  159.3139 H   0  0  0  0  0  0  0  0  0  0  0  0
  151.6615  141.6803  155.8840 H   0  0  0  0  0  0  0  0  0  0  0  0
  152.3920  140.2712  155.1023 H   0  0  0  0  0  0  0  0  0  0  0  0
  150.9752  138.8667  156.8277 H   0  0  0  0  0  0  0  0  0  0  0  0
  150.0465  140.3219  157.0594 H   0  0  0  0  0  0  0  0  0  0  0  0
  150.7638  136.7327  155.3377 H   0  0  0  0  0  0  0  0  0  0  0  0
  152.5927  138.4008  155.2555 H   0  0  0  0  0  0  0  0  0  0  0  0
  152.6929  138.2351  153.5039 H   0  0  0  0  0  0  0  0  0  0  0  0
  153.0951  136.8730  154.5443 H   0  0  0  0  0  0  0  0  0  0  0  0
  150.3062  136.6414  152.4701 H   0  0  0  0  0  0  0  0  0  0  0  0
  150.8999  134.4891  152.4138 H   0  0  0  0  0  0  0  0  0  0  0  0
  146.9194  139.9394  151.9512 H   0  0  0  0  0  0  0  0  0  0  0  0
  146.0663  142.1248  152.8154 H   0  0  0  0  0  0  0  0  0  0  0  0
  147.0334  143.1541  154.8386 H   0  0  0  0  0  0  0  0  0  0  0  0
  148.8861  142.0494  156.0846 H   0  0  0  0  0  0  0  0  0  0  0  0
  151.2907  142.7789  157.3062 H   0  0  0  0  0  0  0  0  0  0  0  0
  148.9003  137.9383  152.5720 H   0  0  0  0  0  0  0  0  0  0  0  0
  1  2  1  0  0  0  0
  1 25  1  0  0  0  0
  1 26  1  0  0  0  0
  1 27  1  0  0  0  0
  2 24  1  0  0  0  0
  2  3  2  0  0  0  0
  3  4  1  0  0  0  0
  3 28  1  0  0  0  0
  4  5  2  0  0  0  0
  4 29  1  0  0  0  0
  5  6  1  0  0  0  0
  5 30  1  0  0  0  0
  6  7  1  0  0  0  0
  6 24  2  0  0  0  0
  7  8  1  0  0  0  0
  8  9  1  0  0  0  0
  8 31  1  0  0  0  0
  8 32  1  0  0  0  0
  9 10  1  0  0  0  0
  9 33  1  0  0  0  0
  9 34  1  0  0  0  0
 10 23  1  0  0  0  0
 10 11  1  0  0  0  0
 11 12  1  0  0  0  0
 11 17  2  0  0  0  0
 12 13  1  0  0  0  0
 12 14  1  0  0  0  0
 12 35  1  0  0  0  0
 13 36  1  0  0  0  0
 13 37  1  0  0  0  0
 13 38  1  0  0  0  0
 14 15  1  0  0  0  0
 14 39  1  0  0  0  0
 15 16  2  0  0  0  0
 15 40  1  0  0  0  0
 17 18  1  0  0  0  0
 17 46  1  0  0  0  0
 18 23  2  0  0  0  0
 18 19  1  0  0  0  0
 19 20  2  0  0  0  0
 19 41  1  0  0  0  0
 20 21  1  0  0  0  0
 20 42  1  0  0  0  0
 21 22  2  0  0  0  0
 21 43  1  0  0  0  0
 22 23  1  0  0  0  0
 22 44  1  0  0  0  0
 24 45  1  0  0  0  0
M  CHG  1  17   1
M  END
> <s_m_source_file>
AV-unprocessed.smi

> <i_m_source_file_index>
2955

> <i_lp_mmshare_version>
43012

> <i_f3d_flags>
0

> <s_epik_input>
W0NIM11jMVtjSF1bY0hdW2NIXWMoW2NIXTEpT1tDSDJdW0NIMl1uKGMobjIpW0NASF0oW0NIM10pW05IXVtDSF09TyljKGMyMylbY0hdW2NIXVtjSF1bY0hdMw==

> <s_epik_cmdline>
J2VwaWtfcHl0aG9uJywgJy1waCcsICc3LjAnLCAnLXRuJywgJzgnLCAnLW1hJywgJzIwMCcsICctbWV0YWxfYmluZGluZycsICctaW1hZScsICc8aW5maWxlLm1hZT4nLCAnLW9tYWUnLCAnPG91dGZpbGUubWFlPic=

> <r_lp_tautomer_probability>
1

> <r_epik_Ionization_Penalty>
1.15027

> <r_epik_Ionization_Penalty_Charging>
1.15027

> <r_epik_Ionization_Penalty_Neutral>
5.5802e-08

> <r_epik_State_Penalty>
1.21159

> <r_epik_Charging_Adjusted_Penalty>
2.36186

> <i_epik_Tot_Q>
1

> <i_epik_Tot_abs_Q>
1

> <r_epik_Metal_State_Penalty>
1.29223

> <b_epik_Metal_Only>
0

> <s_lp_Force_Field>
OPLS_2005

> <r_lp_Energy>
18.7975

> <b_lp_Chiralities_Consistent>
1

> <s_lp_Variant>
AV-unprocessed.smi:2955-3

> <Gold.Version>
5.8.1

> <Gold.Id.Protein>
6NUR|6NUR_protein|mol2

> <Gold.PLP.Fitness>
53.5417

> <Gold.PLP.PLP>
-44.0223

> <Gold.PLP.part.hbond>
-3.5190

> <Gold.PLP.part.metal>
0.0000

> <Gold.PLP.part.buried>
-0.5128

> <Gold.PLP.part.nonpolar>
-37.9174

> <Gold.PLP.part.repulsive>
0.0875

> <Gold.PLP.ligand.clash>
0.0000

> <Gold.PLP.ligand.torsion>
0.9953

> <Gold.PLP.Chemscore.Hbond>
3.7917

> <Gold.PLP.Chemscore.CHOScore>
0.0000

> <Gold.PLP.Chemscore.Metal>
0.0000

> <Gold.Chemscore.Hbonds>
donor molecule, donor type, donor heavy atom, donor atom, acceptor molecule, acceptor atom, score
      L1  H    17    46       P1  7948  2.00
      P1  H  7997  8009       L1     7  0.77
      P1  H 10752 10763       L1    16  0.05

> <Gold.PLP.Chemscore.Internal.Correction>
0.1349

> <Gold.Rescore>
     Score         DG    S(hbond)    S(metal)    S(lipo)     H(rot)  DE(clash)    DE(int)     intcor
     17.80     -19.96       1.64        0.00     127.58       2.32       1.43       0.73       ----

> <Gold.Chemscore.Fitness>
17.7990

> <Gold.Chemscore.DG>
-19.9554

> <Gold.Chemscore.ZeroCoef>
-5.4800

> <Gold.Chemscore.Hbond>
1.6448

> <Gold.Chemscore.Metal>
0.0000

> <Gold.Chemscore.Lipo>
127.5805

> <Gold.Chemscore.Internal_Hbond>
0.0000

> <Gold.Chemscore.DEClash>
1.4267

> <Gold.Chemscore.DEInternal>
0.7297

> <Gold.Chemscore.Rot>
2.3223

> <Gold.Chemscore.Internal.Correction>
   9.000000E+99

> <Gold.Chemscore.Hbonds>
donor molecule, donor type, donor heavy atom, donor atom, acceptor molecule, acceptor atom, score
      L1  H    17    46       P1  7948  0.96
      P1  H  7997  8009       L1     7  0.64

> <Gold.Chemscore.Hbond.Weighted>
-5.4935

> <Gold.Chemscore.Metal.Weighted>
-0.0000

> <Gold.Chemscore.Lipo.Weighted>
-14.9269

> <Gold.Chemscore.Internal_Hbond.Weighted>
0.0000

> <Gold.Chemscore.DEClash.Weighted>
1.4267

> <Gold.Chemscore.DEInternal.Weighted>
0.7297

> <Gold.Chemscore.Rot.Weighted>
5.9450

> <Gold.Chemscore.Internal.Correction.Weighted>
   9.000000E+99

> <Gold.Protein.RotatedTorsions>
[ 6907 6896 6895 6894 ] final -134.50 input  -60.11 | X-H torsion
[ 7974 7965 7964 7962 ] final  -96.52 input  175.53 | X-H torsion
[ 8008 7997 7996 7995 ] final  171.24 input   59.86 | X-H torsion
[ 10167 10162 10161 10158 ] final   -6.66 input  -65.29 | X-H torsion
[ 10718 10713 10712 10709 ] final  135.14 input   66.30 | X-H torsion
[ 10763 10752 10751 10750 ] final   27.47 input  -60.55 | X-H torsion
[ 11005 11000 10999 10996 ] final  -52.64 input  -57.11 | X-H torsion

> <Gold.Protein.ActiveResidues>
 VAL166  LYS551  ARG553  GLY616  TRP617  ASP618  TYR619  PRO620  LYS621  CYS622 
 ASP623  PHE694  ASN695  SER759  ASP760  ASP761  ALA762  ILE779  LEU786  VAL792 
 PHE793  MET794  SER795  GLU796  ALA797  LYS798  CYS799  TRP800  GLU811  SER814 

> <Gold.Protein.RotatedAtoms>
  150.9866  133.6191  159.2714 H   0  0  0  0  0  0  0  0  0  0  0  0  # atno 6907 bound_to 6896
  151.3427  135.0866  159.9386 H   0  0  0  0  0  0  0  0  0  0  0  0  # atno 6908 bound_to 6896
  152.5233  133.9474  159.7710 H   0  0  0  0  0  0  0  0  0  0  0  0  # atno 6909 bound_to 6896
  145.3458  140.9468  143.2582 H   0  0  0  0  0  0  0  0  0  0  0  0  # atno 7974 bound_to 7965
  156.1289  140.1517  156.9094 H   0  0  0  0  0  0  0  0  0  0  0  0  # atno 8008 bound_to 7997
  154.4893  140.0856  156.7599 H   0  0  0  0  0  0  0  0  0  0  0  0  # atno 8009 bound_to 7997
  155.4292  140.3426  155.4280 H   0  0  0  0  0  0  0  0  0  0  0  0  # atno 8010 bound_to 7997
  140.7004  143.6168  150.8650 H   0  0  0  0  0  0  0  0  0  0  0  0  # atno 10167 bound_to 10162
  157.4601  131.1073  150.9930 H   0  0  0  0  0  0  0  0  0  0  0  0  # atno 10718 bound_to 10713
  153.0554  135.6536  154.0590 H   0  0  0  0  0  0  0  0  0  0  0  0  # atno 10763 bound_to 10752
  154.0270  135.2915  155.3375 H   0  0  0  0  0  0  0  0  0  0  0  0  # atno 10764 bound_to 10752
  154.6866  135.5299  153.8402 H   0  0  0  0  0  0  0  0  0  0  0  0  # atno 10765 bound_to 10752
  141.0935  133.6628  156.4054 H   0  0  0  0  0  0  0  0  0  0  0  0  # atno 11005 bound_to 11000
  144.8755  139.4977  143.6747 LP  0  0  0  0  0  0  0  0  0  0  0  0  # atno 17320 bound_to 7965
  146.2988  139.7362  142.9106 LP  0  0  0  0  0  0  0  0  0  0  0  0  # atno 17321 bound_to 7965
  139.9890  143.5868  152.2917 LP  0  0  0  0  0  0  0  0  0  0  0  0  # atno 17342 bound_to 10162
  139.6516  144.7661  151.2137 LP  0  0  0  0  0  0  0  0  0  0  0  0  # atno 17343 bound_to 10162
  157.0730  130.5872  149.5406 LP  0  0  0  0  0  0  0  0  0  0  0  0  # atno 17370 bound_to 10713
  156.0025  130.5106  150.7713 LP  0  0  0  0  0  0  0  0  0  0  0  0  # atno 17371 bound_to 10713
  140.5196  134.6317  157.5313 LP  0  0  0  0  0  0  0  0  0  0  0  0  # atno 17394 bound_to 11000
  139.9766  134.7205  155.9938 LP  0  0  0  0  0  0  0  0  0  0  0  0  # atno 17395 bound_to 11000

$$$$
