AV-unprocessed.smi:2135|AV-procd|sdf|8699|dock2
  -GOLD-   2272011453D 1   1.00000     0.00000
 Structure written by MMmdl.
 42 43  0  0  0  0  0  0  0  0  1 V2000
  152.7924  138.5591  160.6499 C   0  0  0  0  0  0  0  0  0  0  0  0
  153.3701  139.7500  159.3723 S   0  0  0  0  0  0  0  0  0  0  0  0
  154.4892  140.5204  159.9362 O   0  0  0  0  0  0  0  0  0  0  0  0
  153.5533  139.0144  158.1119 O   0  0  0  0  0  0  0  0  0  0  0  0
  152.0269  140.8366  159.1620 N   0  0  0  0  0  0  0  0  0  0  0  0
  152.1461  142.2477  159.5812 C   0  0  0  0  0  0  0  0  0  0  0  0
  152.3870  143.1783  158.3795 C   0  0  0  0  0  0  0  0  0  0  0  0
  151.3187  142.9775  157.2985 C   0  0  0  0  0  0  0  0  0  0  0  0
  151.2866  141.5004  156.8669 C   0  0  2  0  0  0  0  0  0  0  0  0
  150.2189  141.2572  155.7922 C   0  0  0  0  0  0  0  0  0  0  0  0
  150.5179  140.7063  154.7322 O   0  0  0  0  0  0  0  0  0  0  0  0
  148.9770  141.6796  156.0756 N   0  0  0  0  0  0  0  0  0  0  0  0
  147.8318  141.5707  155.1804 C   0  0  0  0  0  0  0  0  0  0  0  0
  146.6277  142.3696  155.7053 C   0  0  0  0  0  0  0  0  0  0  0  0
  146.0995  143.3469  154.6745 C   0  0  0  0  0  0  0  0  0  0  0  0
  145.0883  144.2727  155.0039 C   0  0  0  0  0  0  0  0  0  0  0  0
  144.6285  145.1568  154.0091 C   0  0  0  0  0  0  0  0  0  0  0  0
  145.2011  145.0766  152.7238 C   0  0  0  0  0  0  0  0  0  0  0  0
  146.1696  144.1939  152.3974 N   0  0  0  0  0  0  0  0  0  0  0  0
  146.6054  143.3499  153.3573 C   0  0  0  0  0  0  0  0  0  0  0  0
  151.0383  140.5930  158.0918 C   0  0  0  0  0  0  0  0  0  0  0  0
  153.5777  137.8261  160.8325 H   0  0  0  0  0  0  0  0  0  0  0  0
  151.9017  138.0415  160.2982 H   0  0  0  0  0  0  0  0  0  0  0  0
  152.5784  139.0843  161.5787 H   0  0  0  0  0  0  0  0  0  0  0  0
  151.2224  142.5353  160.0845 H   0  0  0  0  0  0  0  0  0  0  0  0
  152.9439  142.3605  160.3150 H   0  0  0  0  0  0  0  0  0  0  0  0
  152.3839  144.2163  158.7130 H   0  0  0  0  0  0  0  0  0  0  0  0
  153.3744  142.9986  157.9563 H   0  0  0  0  0  0  0  0  0  0  0  0
  150.3466  143.2849  157.6872 H   0  0  0  0  0  0  0  0  0  0  0  0
  151.5323  143.6206  156.4437 H   0  0  0  0  0  0  0  0  0  0  0  0
  152.2576  141.2536  156.4376 H   0  0  0  0  0  0  0  0  0  0  0  0
  148.8170  142.1208  156.9696 H   0  0  0  0  0  0  0  0  0  0  0  0
  148.1079  141.9040  154.1785 H   0  0  0  0  0  0  0  0  0  0  0  0
  147.5692  140.5159  155.0961 H   0  0  0  0  0  0  0  0  0  0  0  0
  145.8262  141.6904  155.9990 H   0  0  0  0  0  0  0  0  0  0  0  0
  146.9026  142.9259  156.6024 H   0  0  0  0  0  0  0  0  0  0  0  0
  144.6700  144.3051  155.9993 H   0  0  0  0  0  0  0  0  0  0  0  0
  143.8551  145.8789  154.2255 H   0  0  0  0  0  0  0  0  0  0  0  0
  144.8715  145.7387  151.9368 H   0  0  0  0  0  0  0  0  0  0  0  0
  147.3782  142.6544  153.0644 H   0  0  0  0  0  0  0  0  0  0  0  0
  151.0546  139.5431  157.7993 H   0  0  0  0  0  0  0  0  0  0  0  0
  150.0441  140.7790  158.5011 H   0  0  0  0  0  0  0  0  0  0  0  0
  1  2  1  0  0  0  0
  1 22  1  0  0  0  0
  1 23  1  0  0  0  0
  1 24  1  0  0  0  0
  2  3  2  0  0  0  0
  2  4  2  0  0  0  0
  2  5  1  0  0  0  0
  5 21  1  0  0  0  0
  5  6  1  0  0  0  0
  6  7  1  0  0  0  0
  6 25  1  0  0  0  0
  6 26  1  0  0  0  0
  7  8  1  0  0  0  0
  7 27  1  0  0  0  0
  7 28  1  0  0  0  0
  8  9  1  0  0  0  0
  8 29  1  0  0  0  0
  8 30  1  0  0  0  0
  9 10  1  0  0  0  0
  9 21  1  0  0  0  0
  9 31  1  0  0  0  0
 10 11  2  0  0  0  0
 10 12  1  0  0  0  0
 12 13  1  0  0  0  0
 12 32  1  0  0  0  0
 13 14  1  0  0  0  0
 13 33  1  0  0  0  0
 13 34  1  0  0  0  0
 14 15  1  0  0  0  0
 14 35  1  0  0  0  0
 14 36  1  0  0  0  0
 15 20  1  0  0  0  0
 15 16  2  0  0  0  0
 16 17  1  0  0  0  0
 16 37  1  0  0  0  0
 17 18  2  0  0  0  0
 17 38  1  0  0  0  0
 18 19  1  0  0  0  0
 18 39  1  0  0  0  0
 19 20  2  0  0  0  0
 20 40  1  0  0  0  0
 21 41  1  0  0  0  0
 21 42  1  0  0  0  0
M  END
> <s_m_source_file>
AV-unprocessed.smi

> <i_m_source_file_index>
2135

> <i_lp_mmshare_version>
43012

> <i_f3d_flags>
0

> <s_epik_input>
W0NIM11TKD1PKSg9TylOMVtDSDJdW0NIMl1bQ0gyXVtDQEhdKFtDSDJdMSlDKD1PKVtOSF1bQ0gyXVtDSDJdYzJbY0hdW2NIXVtjSF1uW2NIXTI=

> <s_epik_cmdline>
J2VwaWtfcHl0aG9uJywgJy1waCcsICc3LjAnLCAnLXRuJywgJzgnLCAnLW1hJywgJzIwMCcsICctbWV0YWxfYmluZGluZycsICctaW1hZScsICc8aW5maWxlLm1hZT4nLCAnLW9tYWUnLCAnPG91dGZpbGUubWFlPic=

> <r_epik_Ionization_Penalty>
0.0134582

> <r_epik_Ionization_Penalty_Charging>
0

> <r_epik_Ionization_Penalty_Neutral>
0.0134582

> <r_epik_State_Penalty>
0.010475

> <r_epik_Charging_Adjusted_Penalty>
0.010475

> <i_epik_Tot_Q>
0

> <i_epik_Tot_abs_Q>
0

> <r_epik_Metal_State_Penalty>
0.0102416

> <b_epik_Metal_Only>
0

> <s_lp_Force_Field>
OPLS_2005

> <r_lp_Energy>
-1.59051

> <b_lp_Chiralities_Consistent>
1

> <s_lp_Variant>
AV-unprocessed.smi:2135-2

> <Gold.Version>
5.8.1

> <Gold.Id.Protein>
6NUR|6NUR_protein|mol2

> <Gold.PLP.Fitness>
42.4270

> <Gold.PLP.PLP>
-38.2471

> <Gold.PLP.part.hbond>
-3.6344

> <Gold.PLP.part.metal>
0.0000

> <Gold.PLP.part.buried>
-4.6659

> <Gold.PLP.part.nonpolar>
-30.3807

> <Gold.PLP.part.repulsive>
0.3618

> <Gold.PLP.ligand.clash>
0.0000

> <Gold.PLP.ligand.torsion>
1.6282

> <Gold.PLP.Chemscore.Hbond>
1.7840

> <Gold.PLP.Chemscore.CHOScore>
0.0000

> <Gold.PLP.Chemscore.Metal>
0.0000

> <Gold.Chemscore.Hbonds>
donor molecule, donor type, donor heavy atom, donor atom, acceptor molecule, acceptor atom, score
      P1  H  7989  7998       L1    11  0.90
      P1  H  7997  8010       L1     4  0.93

> <Gold.PLP.Chemscore.Internal.Correction>
2.0843

> <Gold.Rescore>
     Score         DG    S(hbond)    S(metal)    S(lipo)     H(rot)  DE(clash)    DE(int)     intcor
     15.09     -16.85       1.58        0.00      86.14       1.56       0.20       1.56       ----

> <Gold.Chemscore.Fitness>
15.0859

> <Gold.Chemscore.DG>
-16.8473

> <Gold.Chemscore.ZeroCoef>
-5.4800

> <Gold.Chemscore.Hbond>
1.5849

> <Gold.Chemscore.Metal>
0.0000

> <Gold.Chemscore.Lipo>
86.1404

> <Gold.Chemscore.Internal_Hbond>
0.0000

> <Gold.Chemscore.DEClash>
0.2036

> <Gold.Chemscore.DEInternal>
1.5578

> <Gold.Chemscore.Rot>
1.5643

> <Gold.Chemscore.Internal.Correction>
   9.000000E+99

> <Gold.Chemscore.Hbonds>
donor molecule, donor type, donor heavy atom, donor atom, acceptor molecule, acceptor atom, score
      P1  H  7989  7998       L1    11  0.86
      P1  H  7997  8010       L1     4  0.76

> <Gold.Chemscore.Hbond.Weighted>
-5.2935

> <Gold.Chemscore.Metal.Weighted>
-0.0000

> <Gold.Chemscore.Lipo.Weighted>
-10.0784

> <Gold.Chemscore.Internal_Hbond.Weighted>
0.0000

> <Gold.Chemscore.DEClash.Weighted>
0.2036

> <Gold.Chemscore.DEInternal.Weighted>
1.5578

> <Gold.Chemscore.Rot.Weighted>
4.0046

> <Gold.Chemscore.Internal.Correction.Weighted>
   9.000000E+99

> <Gold.Protein.RotatedTorsions>
[ 6907 6896 6895 6894 ] final  -54.65 input  -60.11 | X-H torsion
[ 7974 7965 7964 7962 ] final  -30.66 input  175.53 | X-H torsion
[ 8008 7997 7996 7995 ] final   54.37 input   59.86 | X-H torsion
[ 10167 10162 10161 10158 ] final -121.06 input  -65.29 | X-H torsion
[ 10718 10713 10712 10709 ] final   71.83 input   66.30 | X-H torsion
[ 10763 10752 10751 10750 ] final  -30.05 input  -60.55 | X-H torsion
[ 11005 11000 10999 10996 ] final  -90.46 input  -57.11 | X-H torsion

> <Gold.Protein.ActiveResidues>
 VAL166  LYS551  ARG553  GLY616  TRP617  ASP618  TYR619  PRO620  LYS621  CYS622 
 ASP623  PHE694  ASN695  SER759  ASP760  ASP761  ALA762  ILE779  LEU786  VAL792 
 PHE793  MET794  SER795  GLU796  ALA797  LYS798  CYS799  TRP800  GLU811  SER814 

> <Gold.Protein.RotatedAtoms>
  150.8319  134.7576  159.6860 H   0  0  0  0  0  0  0  0  0  0  0  0  # atno 6907 bound_to 6896
  152.4422  134.5563  159.9891 H   0  0  0  0  0  0  0  0  0  0  0  0  # atno 6908 bound_to 6896
  151.5722  133.3351  159.3028 H   0  0  0  0  0  0  0  0  0  0  0  0  # atno 6909 bound_to 6896
  146.1126  140.5569  142.8771 H   0  0  0  0  0  0  0  0  0  0  0  0  # atno 7974 bound_to 7965
  155.4836  140.3469  155.4343 H   0  0  0  0  0  0  0  0  0  0  0  0  # atno 8008 bound_to 7997
  156.1023  140.1438  156.9479 H   0  0  0  0  0  0  0  0  0  0  0  0  # atno 8009 bound_to 7997
  154.4701  140.0903  156.7102 H   0  0  0  0  0  0  0  0  0  0  0  0  # atno 8010 bound_to 7997
  140.0291  143.5266  152.2185 H   0  0  0  0  0  0  0  0  0  0  0  0  # atno 10167 bound_to 10162
  157.6471  130.9548  150.0843 H   0  0  0  0  0  0  0  0  0  0  0  0  # atno 10718 bound_to 10713
  153.7747  135.6909  153.4900 H   0  0  0  0  0  0  0  0  0  0  0  0  # atno 10763 bound_to 10752
  153.1851  135.4492  155.0077 H   0  0  0  0  0  0  0  0  0  0  0  0  # atno 10764 bound_to 10752
  154.8104  135.3375  154.7254 H   0  0  0  0  0  0  0  0  0  0  0  0  # atno 10765 bound_to 10752
  141.1565  133.7694  156.9741 H   0  0  0  0  0  0  0  0  0  0  0  0  # atno 11005 bound_to 11000
  144.7525  140.5226  143.6792 LP  0  0  0  0  0  0  0  0  0  0  0  0  # atno 17320 bound_to 7965
  145.5632  139.1480  143.3329 LP  0  0  0  0  0  0  0  0  0  0  0  0  # atno 17321 bound_to 7965
  139.6088  144.7603  151.3000 LP  0  0  0  0  0  0  0  0  0  0  0  0  # atno 17342 bound_to 10162
  140.7310  143.6865  150.7957 LP  0  0  0  0  0  0  0  0  0  0  0  0  # atno 17343 bound_to 10162
  156.1810  130.3650  149.9035 LP  0  0  0  0  0  0  0  0  0  0  0  0  # atno 17370 bound_to 10713
  156.6987  130.8924  151.3597 LP  0  0  0  0  0  0  0  0  0  0  0  0  # atno 17371 bound_to 10713
  140.1109  134.9477  157.2064 LP  0  0  0  0  0  0  0  0  0  0  0  0  # atno 17394 bound_to 11000
  140.3194  134.2933  155.7249 LP  0  0  0  0  0  0  0  0  0  0  0  0  # atno 17395 bound_to 11000

$$$$
