AV-unprocessed.smi:658|AV-procd|sdf|3230|dock10
  -GOLD-   22720 0173D 1   1.00000     0.00000
 Structure written by MMmdl.
 38 38  0  0  0  0  0  0  0  0  2 V2000
  152.6235  139.8278  158.7644 C   0  0  0  0  0  0  0  0  0  0  0  0
  151.9723  141.2202  158.7195 C   0  0  2  0  0  0  0  0  0  0  0  0
  151.6278  141.5279  157.3112 N   0  3  0  0  0  0  0  0  0  0  0  0
  150.3871  140.8981  156.8140 C   0  0  0  0  0  0  0  0  0  0  0  0
  149.7195  141.7740  155.7478 C   0  0  0  0  0  0  0  0  0  0  0  0
  148.9503  140.9479  154.7076 C   0  0  0  0  0  0  0  0  0  0  0  0
  149.6211  139.2354  154.5695 S   0  0  0  0  0  0  0  0  0  0  0  0
  148.8471  138.6572  153.1472 N   0  0  0  0  0  0  0  0  0  0  0  0
  151.0636  139.3012  154.2895 O   0  0  0  0  0  0  0  0  0  0  0  0
  149.1068  138.4412  155.6949 O   0  0  0  0  0  0  0  0  0  0  0  0
  152.8878  142.3255  159.3146 C   0  0  2  0  0  0  0  0  0  0  0  0
  153.5465  141.9257  160.6490 C   0  0  0  0  0  0  0  0  0  0  0  0
  152.1660  143.5826  159.4781 N   0  0  0  0  0  0  0  0  0  0  0  0
  152.1165  144.4200  160.5757 C   0  0  0  0  0  0  0  0  0  0  0  0
  151.2807  145.4536  160.2643 C   0  0  0  0  0  0  0  0  0  0  0  0
  150.8511  145.1544  158.9420 C   0  0  0  0  0  0  0  0  0  0  0  0
  151.3733  144.0302  158.4788 N   0  0  0  0  0  0  0  0  0  0  0  0
  152.7803  139.4872  159.7877 H   0  0  0  0  0  0  0  0  0  0  0  0
  153.5889  139.8226  158.2569 H   0  0  0  0  0  0  0  0  0  0  0  0
  151.9901  139.0848  158.2785 H   0  0  0  0  0  0  0  0  0  0  0  0
  151.0534  141.1672  159.3067 H   0  0  0  0  0  0  0  0  0  0  0  0
  151.5451  142.5306  157.2182 H   0  0  0  0  0  0  0  0  0  0  0  0
  150.6260  139.9172  156.4011 H   0  0  0  0  0  0  0  0  0  0  0  0
  149.6954  140.7387  157.6410 H   0  0  0  0  0  0  0  0  0  0  0  0
  149.0345  142.4721  156.2311 H   0  0  0  0  0  0  0  0  0  0  0  0
  150.4771  142.3776  155.2469 H   0  0  0  0  0  0  0  0  0  0  0  0
  147.9033  140.8664  155.0014 H   0  0  0  0  0  0  0  0  0  0  0  0
  148.9781  141.4094  153.7201 H   0  0  0  0  0  0  0  0  0  0  0  0
  149.1237  137.7076  152.8980 H   0  0  0  0  0  0  0  0  0  0  0  0
  148.8645  139.3278  152.3791 H   0  0  0  0  0  0  0  0  0  0  0  0
  153.6988  142.5073  158.6063 H   0  0  0  0  0  0  0  0  0  0  0  0
  154.2472  141.1012  160.5210 H   0  0  0  0  0  0  0  0  0  0  0  0
  152.8057  141.6210  161.3887 H   0  0  0  0  0  0  0  0  0  0  0  0
  154.1130  142.7578  161.0690 H   0  0  0  0  0  0  0  0  0  0  0  0
  152.6729  144.2145  161.4784 H   0  0  0  0  0  0  0  0  0  0  0  0
  151.0150  146.2951  160.8871 H   0  0  0  0  0  0  0  0  0  0  0  0
  150.1765  145.7144  158.3112 H   0  0  0  0  0  0  0  0  0  0  0  0
  152.3877  141.2145  156.7242 H   0  0  0  0  0  0  0  0  0  0  0  0
  1  2  1  0  0  0  0
  1 18  1  0  0  0  0
  1 19  1  0  0  0  0
  1 20  1  0  0  0  0
  2  3  1  0  0  0  0
  2 11  1  0  0  0  0
  2 21  1  0  0  0  0
  3  4  1  0  0  0  0
  3 22  1  0  0  0  0
  3 38  1  0  0  0  0
  4  5  1  0  0  0  0
  4 23  1  0  0  0  0
  4 24  1  0  0  0  0
  5  6  1  0  0  0  0
  5 25  1  0  0  0  0
  5 26  1  0  0  0  0
  6  7  1  0  0  0  0
  6 27  1  0  0  0  0
  6 28  1  0  0  0  0
  7  8  1  0  0  0  0
  7  9  2  0  0  0  0
  7 10  2  0  0  0  0
  8 29  1  0  0  0  0
  8 30  1  0  0  0  0
 11 12  1  0  0  0  0
 11 13  1  0  0  0  0
 11 31  1  0  0  0  0
 12 32  1  0  0  0  0
 12 33  1  0  0  0  0
 12 34  1  0  0  0  0
 13 17  1  0  0  0  0
 13 14  1  0  0  0  0
 14 15  2  0  0  0  0
 14 35  1  0  0  0  0
 15 16  1  0  0  0  0
 15 36  1  0  0  0  0
 16 17  2  0  0  0  0
 16 37  1  0  0  0  0
M  CHG  1   3   1
M  END
> <s_m_source_file>
AV-unprocessed.smi

> <i_m_source_file_index>
658

> <i_lp_mmshare_version>
43012

> <i_f3d_flags>
0

> <s_epik_input>
bjFbY0hdW2NIXVtjSF1uMVtDQEBIXShbQ0gzXSlbQ0BIXShbQ0gzXSlbTkhdW0NIMl1bQ0gyXVtDSDJdUyg9TykoPU8pW05IMl0=

> <s_epik_cmdline>
J2VwaWtfcHl0aG9uJywgJy1waCcsICc3LjAnLCAnLXRuJywgJzgnLCAnLW1hJywgJzIwMCcsICctbWV0YWxfYmluZGluZycsICctaW1hZScsICc8aW5maWxlLm1hZT4nLCAnLW9tYWUnLCAnPG91dGZpbGUubWFlPic=

> <r_lp_tautomer_probability>
1

> <r_epik_Ionization_Penalty>
0.00535781

> <r_epik_Ionization_Penalty_Charging>
0.00511015

> <r_epik_Ionization_Penalty_Neutral>
0.000247661

> <r_epik_State_Penalty>
-0

> <r_epik_Charging_Adjusted_Penalty>
0.00511015

> <i_epik_Tot_Q>
1

> <i_epik_Tot_abs_Q>
1

> <r_epik_Metal_State_Penalty>
0.149106

> <b_epik_Metal_Only>
0

> <s_lp_Force_Field>
OPLS_2005

> <r_lp_Energy>
8.18413

> <b_lp_Chiralities_Consistent>
1

> <s_lp_Variant>
AV-unprocessed.smi:658-1

> <Gold.Version>
5.8.1

> <Gold.Id.Protein>
6NUR|6NUR_protein|mol2

> <Gold.PLP.Fitness>
48.4155

> <Gold.PLP.PLP>
-39.0487

> <Gold.PLP.part.hbond>
-3.0000

> <Gold.PLP.part.metal>
0.0000

> <Gold.PLP.part.buried>
-4.0678

> <Gold.PLP.part.nonpolar>
-32.6731

> <Gold.PLP.part.repulsive>
0.3708

> <Gold.PLP.ligand.clash>
0.0000

> <Gold.PLP.ligand.torsion>
1.3850

> <Gold.PLP.Chemscore.Hbond>
2.9600

> <Gold.PLP.Chemscore.CHOScore>
0.9996

> <Gold.PLP.Chemscore.Metal>
0.0000

> <Gold.Chemscore.Hbonds>
donor molecule, donor type, donor heavy atom, donor atom, acceptor molecule, acceptor atom, score
      L1  H     8    29       P1  7948  1.00
      L1  H     8    30       P1  7957  1.00
      P1  H  7989  7998       L1     9  1.00
      L1  C    16    37       P1  8029  1.00

> <Gold.PLP.Chemscore.Internal.Correction>
0.2578

> <Gold.Rescore>
     Score         DG    S(hbond)    S(metal)    S(lipo)     H(rot)  DE(clash)    DE(int)     intcor
     13.68     -17.70       2.91        0.00      89.88       3.13       0.42       3.59       ----

> <Gold.Chemscore.Fitness>
13.6840

> <Gold.Chemscore.DG>
-17.6977

> <Gold.Chemscore.ZeroCoef>
-5.4800

> <Gold.Chemscore.Hbond>
2.9096

> <Gold.Chemscore.Metal>
0.0000

> <Gold.Chemscore.Lipo>
89.8761

> <Gold.Chemscore.Internal_Hbond>
0.0000

> <Gold.Chemscore.DEClash>
0.4208

> <Gold.Chemscore.DEInternal>
3.5928

> <Gold.Chemscore.Rot>
3.1312

> <Gold.Chemscore.Internal.Correction>
   9.000000E+99

> <Gold.Chemscore.Hbonds>
donor molecule, donor type, donor heavy atom, donor atom, acceptor molecule, acceptor atom, score
      L1  H     8    29       P1  7948  0.95
      L1  H     8    30       P1  7957  0.93
      P1  H  7989  7998       L1     9  0.91

> <Gold.Chemscore.Hbond.Weighted>
-9.7181

> <Gold.Chemscore.Metal.Weighted>
-0.0000

> <Gold.Chemscore.Lipo.Weighted>
-10.5155

> <Gold.Chemscore.Internal_Hbond.Weighted>
0.0000

> <Gold.Chemscore.DEClash.Weighted>
0.4208

> <Gold.Chemscore.DEInternal.Weighted>
3.5928

> <Gold.Chemscore.Rot.Weighted>
8.0160

> <Gold.Chemscore.Internal.Correction.Weighted>
   9.000000E+99

> <Gold.Protein.RotatedTorsions>
[ 6907 6896 6895 6894 ] final   78.52 input  -60.11 | X-H torsion
[ 7974 7965 7964 7962 ] final   45.47 input  175.53 | X-H torsion
[ 8008 7997 7996 7995 ] final  -66.52 input   59.86 | X-H torsion
[ 10167 10162 10161 10158 ] final  164.67 input  -65.29 | X-H torsion
[ 10718 10713 10712 10709 ] final -138.21 input   66.30 | X-H torsion
[ 10763 10752 10751 10750 ] final  161.42 input  -60.55 | X-H torsion
[ 11005 11000 10999 10996 ] final    3.49 input  -57.11 | X-H torsion

> <Gold.Protein.ActiveResidues>
 VAL166  LYS551  ARG553  GLY616  TRP617  ASP618  TYR619  PRO620  LYS621  CYS622 
 ASP623  PHE694  ASN695  SER759  ASP760  ASP761  ALA762  ILE779  LEU786  VAL792 
 PHE793  MET794  SER795  GLU796  ALA797  LYS798  CYS799  TRP800  GLU811  SER814 

> <Gold.Protein.RotatedAtoms>
  152.5163  134.3651  159.9298 H   0  0  0  0  0  0  0  0  0  0  0  0  # atno 6907 bound_to 6896
  151.3604  133.3885  159.2697 H   0  0  0  0  0  0  0  0  0  0  0  0  # atno 6908 bound_to 6896
  150.9656  134.9056  159.7815 H   0  0  0  0  0  0  0  0  0  0  0  0  # atno 6909 bound_to 6896
  146.0477  139.4961  142.9738 H   0  0  0  0  0  0  0  0  0  0  0  0  # atno 7974 bound_to 7965
  154.4740  140.0911  156.7215 H   0  0  0  0  0  0  0  0  0  0  0  0  # atno 8008 bound_to 7997
  155.4647  140.3462  155.4299 H   0  0  0  0  0  0  0  0  0  0  0  0  # atno 8009 bound_to 7997
  156.1086  140.1441  156.9358 H   0  0  0  0  0  0  0  0  0  0  0  0  # atno 8010 bound_to 7997
  139.4893  144.4211  151.9185 H   0  0  0  0  0  0  0  0  0  0  0  0  # atno 10167 bound_to 10162
  156.2967  130.7406  151.1446 H   0  0  0  0  0  0  0  0  0  0  0  0  # atno 10718 bound_to 10713
  154.2627  135.2768  155.2771 H   0  0  0  0  0  0  0  0  0  0  0  0  # atno 10763 bound_to 10752
  154.5370  135.5713  153.6810 H   0  0  0  0  0  0  0  0  0  0  0  0  # atno 10764 bound_to 10752
  152.9959  135.6242  154.2778 H   0  0  0  0  0  0  0  0  0  0  0  0  # atno 10765 bound_to 10752
  140.5925  133.9910  155.8095 H   0  0  0  0  0  0  0  0  0  0  0  0  # atno 11005 bound_to 11000
  145.6777  141.0199  143.1623 LP  0  0  0  0  0  0  0  0  0  0  0  0  # atno 17320 bound_to 7965
  144.7106  139.8385  143.7415 LP  0  0  0  0  0  0  0  0  0  0  0  0  # atno 17321 bound_to 7965
  140.3655  144.2920  150.5927 LP  0  0  0  0  0  0  0  0  0  0  0  0  # atno 17342 bound_to 10162
  140.5365  143.2232  151.8155 LP  0  0  0  0  0  0  0  0  0  0  0  0  # atno 17343 bound_to 10162
  157.7357  131.0569  150.5454 LP  0  0  0  0  0  0  0  0  0  0  0  0  # atno 17370 bound_to 10713
  156.5577  130.4247  149.6078 LP  0  0  0  0  0  0  0  0  0  0  0  0  # atno 17371 bound_to 10713
  141.0925  133.9894  157.3213 LP  0  0  0  0  0  0  0  0  0  0  0  0  # atno 17394 bound_to 11000
  139.9268  135.0201  156.8261 LP  0  0  0  0  0  0  0  0  0  0  0  0  # atno 17395 bound_to 11000

$$$$
