AV-unprocessed.smi:195|AV-procd|sdf|1525|dock9
  -GOLD-   2262019373D 1   1.00000     0.00000
 Structure written by MMmdl.
 45 48  0  0  0  0  0  0  0  0  1 V2000
  146.3513  131.1018  151.9444 N   0  0  0  0  0  0  0  0  0  0  0  0
  146.4886  132.1980  151.6004 C   0  0  0  0  0  0  0  0  0  0  0  0
  146.6633  133.5921  151.1619 C   0  0  0  0  0  0  0  0  0  0  0  0
  145.3410  134.3440  150.9861 C   0  0  0  0  0  0  0  0  0  0  0  0
  144.7524  133.7372  149.8543 O   0  0  0  0  0  0  0  0  0  0  0  0
  144.4229  134.4601  152.2060 C   0  0  0  0  0  0  0  0  0  0  0  0
  144.6740  135.8973  152.2258 N   0  0  0  0  0  0  0  0  0  0  0  0
  145.4383  136.3293  153.3471 C   0  0  0  0  0  0  0  0  0  0  0  0
  145.5780  135.5563  154.4583 N   0  0  0  0  0  0  0  0  0  0  0  0
  146.2964  135.9783  155.5032 C   0  0  0  0  0  0  0  0  0  0  0  0
  146.9568  137.1275  155.6502 N   0  0  0  0  0  0  0  0  0  0  0  0
  146.8258  137.9114  154.5431 C   0  0  0  0  0  0  0  0  0  0  0  0
  146.0906  137.5919  153.3666 C   0  0  0  0  0  0  0  0  0  0  0  0
  146.1801  138.6359  152.4542 N   0  0  0  0  0  0  0  0  0  0  0  0
  146.9299  139.5202  153.0541 C   0  0  0  0  0  0  0  0  0  0  0  0
  147.3608  139.1662  154.3123 N   0  0  0  0  0  0  0  0  0  0  0  0
  148.2032  139.9564  155.1933 C   0  0  0  0  0  0  0  0  0  0  0  0
  149.6137  140.1815  154.6155 C   0  0  1  0  0  0  0  0  0  0  0  0
  149.5205  140.9857  153.4552 O   0  0  0  0  0  0  0  0  0  0  0  0
  150.5498  140.8714  155.6243 C   0  0  2  0  0  0  0  0  0  0  0  0
  150.7741  140.0910  156.9221 C   0  0  0  0  0  0  0  0  0  0  0  0
  151.0834  141.1698  157.9499 C   0  0  0  0  0  0  0  0  0  0  0  0
  150.7155  142.4765  157.2433 C   0  0  0  0  0  0  0  0  0  0  0  0
  149.9698  142.0750  156.1038 O   0  0  0  0  0  0  0  0  0  0  0  0
  145.3792  135.8754  150.9473 C   0  0  0  0  0  0  0  0  0  0  0  0
  147.3078  134.0918  151.8861 H   0  0  0  0  0  0  0  0  0  0  0  0
  147.2257  133.5613  150.2302 H   0  0  0  0  0  0  0  0  0  0  0  0
  144.8894  134.3224  149.1247 H   0  0  0  0  0  0  0  0  0  0  0  0
  143.3780  134.2349  151.9893 H   0  0  0  0  0  0  0  0  0  0  0  0
  144.7775  133.9239  153.0878 H   0  0  0  0  0  0  0  0  0  0  0  0
  146.3490  135.2978  156.3403 H   0  0  0  0  0  0  0  0  0  0  0  0
  147.1906  140.4623  152.5937 H   0  0  0  0  0  0  0  0  0  0  0  0
  147.7128  140.9111  155.3886 H   0  0  0  0  0  0  0  0  0  0  0  0
  148.2657  139.4391  156.1513 H   0  0  0  0  0  0  0  0  0  0  0  0
  150.0409  139.2206  154.3251 H   0  0  0  0  0  0  0  0  0  0  0  0
  149.3654  140.4224  152.7126 H   0  0  0  0  0  0  0  0  0  0  0  0
  151.5100  141.1044  155.1589 H   0  0  0  0  0  0  0  0  0  0  0  0
  149.8631  139.5652  157.2109 H   0  0  0  0  0  0  0  0  0  0  0  0
  151.5711  139.3525  156.8314 H   0  0  0  0  0  0  0  0  0  0  0  0
  150.4879  141.0227  158.8516 H   0  0  0  0  0  0  0  0  0  0  0  0
  152.1354  141.1669  158.2372 H   0  0  0  0  0  0  0  0  0  0  0  0
  150.1382  143.1499  157.8773 H   0  0  0  0  0  0  0  0  0  0  0  0
  151.6140  143.0021  156.9166 H   0  0  0  0  0  0  0  0  0  0  0  0
  146.3798  136.3095  150.9609 H   0  0  0  0  0  0  0  0  0  0  0  0
  144.7721  136.3020  150.1480 H   0  0  0  0  0  0  0  0  0  0  0  0
  1  2  3  0  0  0  0
  2  3  1  0  0  0  0
  3  4  1  0  0  0  0
  3 26  1  0  0  0  0
  3 27  1  0  0  0  0
  4 25  1  0  0  0  0
  4  5  1  0  0  0  0
  4  6  1  0  0  0  0
  5 28  1  0  0  0  0
  6  7  1  0  0  0  0
  6 29  1  0  0  0  0
  6 30  1  0  0  0  0
  7  8  1  0  0  0  0
  7 25  1  0  0  0  0
  8 13  1  0  0  0  0
  8  9  2  0  0  0  0
  9 10  1  0  0  0  0
 10 11  2  0  0  0  0
 10 31  1  0  0  0  0
 11 12  1  0  0  0  0
 12 16  1  0  0  0  0
 12 13  2  0  0  0  0
 13 14  1  0  0  0  0
 14 15  2  0  0  0  0
 15 16  1  0  0  0  0
 15 32  1  0  0  0  0
 16 17  1  0  0  0  0
 17 18  1  0  0  0  0
 17 33  1  0  0  0  0
 17 34  1  0  0  0  0
 18 19  1  0  0  0  0
 18 20  1  0  0  0  0
 18 35  1  0  0  0  0
 19 36  1  0  0  0  0
 20 24  1  0  0  0  0
 20 21  1  0  0  0  0
 20 37  1  0  0  0  0
 21 22  1  0  0  0  0
 21 38  1  0  0  0  0
 21 39  1  0  0  0  0
 22 23  1  0  0  0  0
 22 40  1  0  0  0  0
 22 41  1  0  0  0  0
 23 24  1  0  0  0  0
 23 42  1  0  0  0  0
 23 43  1  0  0  0  0
 25 44  1  0  0  0  0
 25 45  1  0  0  0  0
M  END
> <s_m_source_file>
AV-unprocessed.smi

> <i_m_source_file_index>
195

> <i_lp_mmshare_version>
43012

> <i_f3d_flags>
0

> <s_epik_input>
TiNDW0NIMl1DMShbT0hdKVtDSDJdTihbQ0gyXTEpYyhuW2NIXW4yKWMoYzIzKW5bY0hdbjNbQ0gyXVtDQEhdKFtPSF0pW0NAQEhdNFtDSDJdW0NIMl1bQ0gyXU80

> <s_epik_cmdline>
J2VwaWtfcHl0aG9uJywgJy1waCcsICc3LjAnLCAnLXRuJywgJzgnLCAnLW1hJywgJzIwMCcsICctbWV0YWxfYmluZGluZycsICctaW1hZScsICc8aW5maWxlLm1hZT4nLCAnLW9tYWUnLCAnPG91dGZpbGUubWFlPic=

> <r_lp_tautomer_probability>
1

> <r_epik_Ionization_Penalty>
0.00307146

> <r_epik_Ionization_Penalty_Charging>
0

> <r_epik_Ionization_Penalty_Neutral>
0.00307146

> <r_epik_State_Penalty>
0.0020279

> <r_epik_Charging_Adjusted_Penalty>
0.0020279

> <i_epik_Tot_Q>
0

> <i_epik_Tot_abs_Q>
0

> <r_epik_Metal_State_Penalty>
-0

> <b_epik_Metal_Only>
0

> <s_lp_Force_Field>
OPLS_2005

> <r_lp_Energy>
44.0633

> <b_lp_Chiralities_Consistent>
1

> <s_lp_Variant>
AV-unprocessed.smi:195-2

> <Gold.Version>
5.8.1

> <Gold.Id.Protein>
6NUR|6NUR_protein|mol2

> <Gold.PLP.Fitness>
43.2506

> <Gold.PLP.PLP>
-33.1429

> <Gold.PLP.part.hbond>
-3.3440

> <Gold.PLP.part.metal>
0.0000

> <Gold.PLP.part.buried>
-5.4131

> <Gold.PLP.part.nonpolar>
-25.2611

> <Gold.PLP.part.repulsive>
1.2924

> <Gold.PLP.ligand.clash>
0.0000

> <Gold.PLP.ligand.torsion>
0.4158

> <Gold.PLP.Chemscore.Hbond>
2.8782

> <Gold.PLP.Chemscore.CHOScore>
0.6708

> <Gold.PLP.Chemscore.Metal>
0.0000

> <Gold.Chemscore.Hbonds>
donor molecule, donor type, donor heavy atom, donor atom, acceptor molecule, acceptor atom, score
      L1  H     5    28       P1  7921  0.90
      L1  H    19    36       P1  7957  0.99
      P1  H  7989  7998       L1    19  0.05
      P1  H  8011  8017       L1    19  0.50
      L1  C    15    32       P1  7957  0.15

> <Gold.PLP.Chemscore.Internal.Correction>
0.2920

> <Gold.Rescore>
     Score         DG    S(hbond)    S(metal)    S(lipo)     H(rot)  DE(clash)    DE(int)     intcor
      9.57     -10.77       2.43        0.00      57.21       3.72       0.43       0.77       ----

> <Gold.Chemscore.Fitness>
9.5722

> <Gold.Chemscore.DG>
-10.7737

> <Gold.Chemscore.ZeroCoef>
-5.4800

> <Gold.Chemscore.Hbond>
2.4328

> <Gold.Chemscore.Metal>
0.0000

> <Gold.Chemscore.Lipo>
57.2109

> <Gold.Chemscore.Internal_Hbond>
0.0000

> <Gold.Chemscore.DEClash>
0.4319

> <Gold.Chemscore.DEInternal>
0.7696

> <Gold.Chemscore.Rot>
3.7210

> <Gold.Chemscore.Internal.Correction>
   9.000000E+99

> <Gold.Chemscore.Hbonds>
donor molecule, donor type, donor heavy atom, donor atom, acceptor molecule, acceptor atom, score
      L1  H     5    28       P1  7921  0.85
      L1  H    19    36       P1  7957  0.94
      P1  H  8011  8017       L1    19  0.02

> <Gold.Chemscore.Hbond.Weighted>
-8.1257

> <Gold.Chemscore.Metal.Weighted>
-0.0000

> <Gold.Chemscore.Lipo.Weighted>
-6.6937

> <Gold.Chemscore.Internal_Hbond.Weighted>
0.0000

> <Gold.Chemscore.DEClash.Weighted>
0.4319

> <Gold.Chemscore.DEInternal.Weighted>
0.7696

> <Gold.Chemscore.Rot.Weighted>
9.5256

> <Gold.Chemscore.Internal.Correction.Weighted>
   9.000000E+99

> <Gold.Protein.RotatedTorsions>
[ 6907 6896 6895 6894 ] final   24.22 input  -60.11 | X-H torsion
[ 7974 7965 7964 7962 ] final -170.82 input  175.53 | X-H torsion
[ 8008 7997 7996 7995 ] final  -11.49 input   59.86 | X-H torsion
[ 10167 10162 10161 10158 ] final  146.57 input  -65.29 | X-H torsion
[ 10718 10713 10712 10709 ] final  -66.40 input   66.30 | X-H torsion
[ 10763 10752 10751 10750 ] final   33.05 input  -60.55 | X-H torsion
[ 11005 11000 10999 10996 ] final  -30.90 input  -57.11 | X-H torsion

> <Gold.Protein.ActiveResidues>
 VAL166  LYS551  ARG553  GLY616  TRP617  ASP618  TYR619  PRO620  LYS621  CYS622 
 ASP623  PHE694  ASN695  SER759  ASP760  ASP761  ALA762  ILE779  LEU786  VAL792 
 PHE793  MET794  SER795  GLU796  ALA797  LYS798  CYS799  TRP800  GLU811  SER814 

> <Gold.Protein.RotatedAtoms>
  151.9542  135.0155  160.0543 H   0  0  0  0  0  0  0  0  0  0  0  0  # atno 6907 bound_to 6896
  152.1926  133.4779  159.5024 H   0  0  0  0  0  0  0  0  0  0  0  0  # atno 6908 bound_to 6896
  150.6938  134.1610  159.4219 H   0  0  0  0  0  0  0  0  0  0  0  0  # atno 6909 bound_to 6896
  144.7165  140.2015  143.6338 H   0  0  0  0  0  0  0  0  0  0  0  0  # atno 7974 bound_to 7965
  154.5460  140.2301  155.8563 H   0  0  0  0  0  0  0  0  0  0  0  0  # atno 8008 bound_to 7997
  156.1903  140.3079  155.9281 H   0  0  0  0  0  0  0  0  0  0  0  0  # atno 8009 bound_to 7997
  155.3164  140.0438  157.3028 H   0  0  0  0  0  0  0  0  0  0  0  0  # atno 8010 bound_to 7997
  139.4905  144.5819  151.6854 H   0  0  0  0  0  0  0  0  0  0  0  0  # atno 10167 bound_to 10162
  156.0614  130.4261  150.1703 H   0  0  0  0  0  0  0  0  0  0  0  0  # atno 10718 bound_to 10713
  153.0231  135.6397  154.1451 H   0  0  0  0  0  0  0  0  0  0  0  0  # atno 10763 bound_to 10752
  154.1183  135.2848  155.3216 H   0  0  0  0  0  0  0  0  0  0  0  0  # atno 10764 bound_to 10752
  154.6282  135.5502  153.7713 H   0  0  0  0  0  0  0  0  0  0  0  0  # atno 10765 bound_to 10752
  140.9422  133.7272  156.1093 H   0  0  0  0  0  0  0  0  0  0  0  0  # atno 11005 bound_to 11000
  145.8676  139.2255  143.1680 LP  0  0  0  0  0  0  0  0  0  0  0  0  # atno 17320 bound_to 7965
  146.0115  140.8431  142.9968 LP  0  0  0  0  0  0  0  0  0  0  0  0  # atno 17321 bound_to 7965
  140.5427  144.0553  150.6095 LP  0  0  0  0  0  0  0  0  0  0  0  0  # atno 17342 bound_to 10162
  140.3580  143.2924  152.0414 LP  0  0  0  0  0  0  0  0  0  0  0  0  # atno 17343 bound_to 10162
  156.9771  130.9852  151.3446 LP  0  0  0  0  0  0  0  0  0  0  0  0  # atno 17370 bound_to 10713
  157.5626  130.8256  149.8285 LP  0  0  0  0  0  0  0  0  0  0  0  0  # atno 17371 bound_to 10713
  140.7718  134.3824  157.5506 LP  0  0  0  0  0  0  0  0  0  0  0  0  # atno 17394 bound_to 11000
  139.8823  134.9027  156.2838 LP  0  0  0  0  0  0  0  0  0  0  0  0  # atno 17395 bound_to 11000

$$$$
