AV-unprocessed.smi:2008|AV-procd|sdf|8142|dock10
  -GOLD-   2272010383D 1   1.00000     0.00000
 Structure written by MMmdl.
 46 47  0  0  0  0  0  0  0  0  2 V2000
  151.2272  141.4560  158.0466 C   0  0  0  0  0  0  0  0  0  0  0  0
  151.5315  141.1266  156.6955 O   0  0  0  0  0  0  0  0  0  0  0  0
  150.8624  140.0697  156.1131 C   0  0  0  0  0  0  0  0  0  0  0  0
  150.1684  139.1694  156.9455 C   0  0  0  0  0  0  0  0  0  0  0  0
  149.4854  138.0894  156.3554 C   0  0  0  0  0  0  0  0  0  0  0  0
  149.5224  137.9330  154.9549 C   0  0  0  0  0  0  0  0  0  0  0  0
  148.8132  136.8395  154.3876 N   0  0  0  0  0  0  0  0  0  0  0  0
  147.9443  136.0050  154.9840 C   0  0  0  0  0  0  0  0  0  0  0  0
  147.6127  136.0447  156.1687 O   0  0  0  0  0  0  0  0  0  0  0  0
  147.4543  135.1096  154.1144 N   0  0  0  0  0  0  0  0  0  0  0  0
  146.4667  134.0874  154.4413 C   0  0  0  0  0  0  0  0  0  0  0  0
  145.1004  134.3982  153.7988 C   0  0  0  0  0  0  0  0  0  0  0  0
  144.5950  133.3050  152.9242 N   0  3  1  0  0  0  0  0  0  0  0  0
  143.6758  133.8166  151.8715 C   0  0  0  0  0  0  0  0  0  0  0  0
  142.9942  132.6676  151.1119 C   0  0  0  0  0  0  0  0  0  0  0  0
  144.0323  131.7164  150.5082 C   0  0  0  0  0  0  0  0  0  0  0  0
  144.9761  131.2138  151.6088 C   0  0  0  0  0  0  0  0  0  0  0  0
  145.6367  132.3719  152.3872 C   0  0  1  0  0  0  0  0  0  0  0  0
  146.7352  133.0761  151.5614 C   0  0  0  0  0  0  0  0  0  0  0  0
  150.2367  138.8986  154.2042 C   0  0  0  0  0  0  0  0  0  0  0  0
  150.8921  139.9377  154.7640 N   0  0  0  0  0  0  0  0  0  0  0  0
  151.8445  142.2974  158.3614 H   0  0  0  0  0  0  0  0  0  0  0  0
  151.4383  140.6228  158.7185 H   0  0  0  0  0  0  0  0  0  0  0  0
  150.1829  141.7511  158.1589 H   0  0  0  0  0  0  0  0  0  0  0  0
  150.1597  139.3055  158.0168 H   0  0  0  0  0  0  0  0  0  0  0  0
  148.9445  137.3883  156.9741 H   0  0  0  0  0  0  0  0  0  0  0  0
  148.9297  136.7211  153.3918 H   0  0  0  0  0  0  0  0  0  0  0  0
  147.7756  135.1476  153.1577 H   0  0  0  0  0  0  0  0  0  0  0  0
  146.8510  133.1188  154.1212 H   0  0  0  0  0  0  0  0  0  0  0  0
  146.3677  134.0424  155.5262 H   0  0  0  0  0  0  0  0  0  0  0  0
  144.3820  134.5533  154.6052 H   0  0  0  0  0  0  0  0  0  0  0  0
  145.1298  135.3375  153.2463 H   0  0  0  0  0  0  0  0  0  0  0  0
  142.9048  134.4377  152.3292 H   0  0  0  0  0  0  0  0  0  0  0  0
  144.2203  134.4601  151.1798 H   0  0  0  0  0  0  0  0  0  0  0  0
  142.3427  132.1155  151.7906 H   0  0  0  0  0  0  0  0  0  0  0  0
  142.3535  133.0681  150.3257 H   0  0  0  0  0  0  0  0  0  0  0  0
  143.5344  130.8743  150.0265 H   0  0  0  0  0  0  0  0  0  0  0  0
  144.5988  132.2282  149.7296 H   0  0  0  0  0  0  0  0  0  0  0  0
  144.4087  130.5938  152.3045 H   0  0  0  0  0  0  0  0  0  0  0  0
  145.7380  130.5627  151.1787 H   0  0  0  0  0  0  0  0  0  0  0  0
  146.1333  131.9040  153.2362 H   0  0  0  0  0  0  0  0  0  0  0  0
  147.4485  132.3487  151.1734 H   0  0  0  0  0  0  0  0  0  0  0  0
  147.3078  133.7804  152.1645 H   0  0  0  0  0  0  0  0  0  0  0  0
  146.3304  133.6186  150.7075 H   0  0  0  0  0  0  0  0  0  0  0  0
  150.2814  138.8689  153.1269 H   0  0  0  0  0  0  0  0  0  0  0  0
  144.0124  132.7356  153.5213 H   0  0  0  0  0  0  0  0  0  0  0  0
  1  2  1  0  0  0  0
  1 22  1  0  0  0  0
  1 23  1  0  0  0  0
  1 24  1  0  0  0  0
  2  3  1  0  0  0  0
  3 21  1  0  0  0  0
  3  4  2  0  0  0  0
  4  5  1  0  0  0  0
  4 25  1  0  0  0  0
  5  6  2  0  0  0  0
  5 26  1  0  0  0  0
  6  7  1  0  0  0  0
  6 20  1  0  0  0  0
  7  8  1  0  0  0  0
  7 27  1  0  0  0  0
  8  9  2  0  0  0  0
  8 10  1  0  0  0  0
 10 11  1  0  0  0  0
 10 28  1  0  0  0  0
 11 12  1  0  0  0  0
 11 29  1  0  0  0  0
 11 30  1  0  0  0  0
 12 13  1  0  0  0  0
 12 31  1  0  0  0  0
 12 32  1  0  0  0  0
 13 18  1  0  0  0  0
 13 14  1  0  0  0  0
 13 46  1  0  0  0  0
 14 15  1  0  0  0  0
 14 33  1  0  0  0  0
 14 34  1  0  0  0  0
 15 16  1  0  0  0  0
 15 35  1  0  0  0  0
 15 36  1  0  0  0  0
 16 17  1  0  0  0  0
 16 37  1  0  0  0  0
 16 38  1  0  0  0  0
 17 18  1  0  0  0  0
 17 39  1  0  0  0  0
 17 40  1  0  0  0  0
 18 19  1  0  0  0  0
 18 41  1  0  0  0  0
 19 42  1  0  0  0  0
 19 43  1  0  0  0  0
 19 44  1  0  0  0  0
 20 21  2  0  0  0  0
 20 45  1  0  0  0  0
M  CHG  1  13   1
M  END
> <s_m_source_file>
AV-unprocessed.smi

> <i_m_source_file_index>
2008

> <i_lp_mmshare_version>
43012

> <i_f3d_flags>
0

> <s_epik_input>
W0NIM11PYzFbY0hdW2NIXWMoW2NIXW4xKVtOSF1DKD1PKVtOSF1bQ0gyXVtDSDJdTjJbQ0gyXVtDSDJdW0NIMl1bQ0gyXVtDQEhdMltDSDNd

> <s_epik_cmdline>
J2VwaWtfcHl0aG9uJywgJy1waCcsICc3LjAnLCAnLXRuJywgJzgnLCAnLW1hJywgJzIwMCcsICctbWV0YWxfYmluZGluZycsICctaW1hZScsICc8aW5maWxlLm1hZT4nLCAnLW9tYWUnLCAnPG91dGZpbGUubWFlPic=

> <r_lp_tautomer_probability>
1

> <r_epik_Ionization_Penalty>
0.00219526

> <r_epik_Ionization_Penalty_Charging>
0.00211816

> <r_epik_Ionization_Penalty_Neutral>
7.71003e-05

> <r_epik_State_Penalty>
0.00145254

> <r_epik_Charging_Adjusted_Penalty>
0.0035707

> <i_epik_Tot_Q>
1

> <i_epik_Tot_abs_Q>
1

> <r_epik_Metal_State_Penalty>
-0

> <b_epik_Metal_Only>
0

> <s_lp_Force_Field>
OPLS_2005

> <r_lp_Energy>
23.0137

> <b_lp_Chiralities_Consistent>
1

> <s_lp_Variant>
AV-unprocessed.smi:2008-2

> <Gold.Version>
5.8.1

> <Gold.Id.Protein>
6NUR|6NUR_protein|mol2

> <Gold.PLP.Fitness>
43.4217

> <Gold.PLP.PLP>
-28.6432

> <Gold.PLP.part.hbond>
-3.8074

> <Gold.PLP.part.metal>
0.0000

> <Gold.PLP.part.buried>
-3.7223

> <Gold.PLP.part.nonpolar>
-21.9989

> <Gold.PLP.part.repulsive>
0.0997

> <Gold.PLP.ligand.clash>
0.0008

> <Gold.PLP.ligand.torsion>
1.0574

> <Gold.PLP.Chemscore.Hbond>
4.6130

> <Gold.PLP.Chemscore.CHOScore>
1.0000

> <Gold.PLP.Chemscore.Metal>
0.0000

> <Gold.Chemscore.Hbonds>
donor molecule, donor type, donor heavy atom, donor atom, acceptor molecule, acceptor atom, score
      L1  H     7    27       P1  7948  1.00
      L1  H    10    28       P1  7948  0.86
      L1  H    13    46       P1 10957  1.79
      P1  H  7989  7998       L1    21  1.00
      L1  C    20    45       P1  7957  1.00

> <Gold.PLP.Chemscore.Internal.Correction>
0.0551

> <Gold.Rescore>
     Score         DG    S(hbond)    S(metal)    S(lipo)     H(rot)  DE(clash)    DE(int)     intcor
     18.12     -20.58       3.32        0.00      71.70       1.71       0.21       2.26       ----

> <Gold.Chemscore.Fitness>
18.1168

> <Gold.Chemscore.DG>
-20.5791

> <Gold.Chemscore.ZeroCoef>
-5.4800

> <Gold.Chemscore.Hbond>
3.3203

> <Gold.Chemscore.Metal>
0.0000

> <Gold.Chemscore.Lipo>
71.6992

> <Gold.Chemscore.Internal_Hbond>
0.0000

> <Gold.Chemscore.DEClash>
0.2066

> <Gold.Chemscore.DEInternal>
2.2557

> <Gold.Chemscore.Rot>
1.7107

> <Gold.Chemscore.Internal.Correction>
   9.000000E+99

> <Gold.Chemscore.Hbonds>
donor molecule, donor type, donor heavy atom, donor atom, acceptor molecule, acceptor atom, score
      L1  H     7    27       P1  7948  0.98
      L1  H    10    28       P1  7948  0.79
      L1  H    13    46       P1 10957  0.47
      P1  H  7989  7998       L1    21  0.65

> <Gold.Chemscore.Hbond.Weighted>
-11.0898

> <Gold.Chemscore.Metal.Weighted>
-0.0000

> <Gold.Chemscore.Lipo.Weighted>
-8.3888

> <Gold.Chemscore.Internal_Hbond.Weighted>
0.0000

> <Gold.Chemscore.DEClash.Weighted>
0.2066

> <Gold.Chemscore.DEInternal.Weighted>
2.2557

> <Gold.Chemscore.Rot.Weighted>
4.3794

> <Gold.Chemscore.Internal.Correction.Weighted>
   9.000000E+99

> <Gold.Protein.RotatedTorsions>
[ 6907 6896 6895 6894 ] final   24.51 input  -60.11 | X-H torsion
[ 7974 7965 7964 7962 ] final  -39.93 input  175.53 | X-H torsion
[ 8008 7997 7996 7995 ] final   -0.88 input   59.86 | X-H torsion
[ 10167 10162 10161 10158 ] final  -36.78 input  -65.29 | X-H torsion
[ 10718 10713 10712 10709 ] final   90.57 input   66.30 | X-H torsion
[ 10763 10752 10751 10750 ] final   24.09 input  -60.55 | X-H torsion
[ 11005 11000 10999 10996 ] final  -82.07 input  -57.11 | X-H torsion

> <Gold.Protein.ActiveResidues>
 VAL166  LYS551  ARG553  GLY616  TRP617  ASP618  TYR619  PRO620  LYS621  CYS622 
 ASP623  PHE694  ASN695  SER759  ASP760  ASP761  ALA762  ILE779  LEU786  VAL792 
 PHE793  MET794  SER795  GLU796  ALA797  LYS798  CYS799  TRP800  GLU811  SER814 

> <Gold.Protein.RotatedAtoms>
  151.9586  135.0135  160.0546 H   0  0  0  0  0  0  0  0  0  0  0  0  # atno 6907 bound_to 6896
  152.1889  133.4754  159.5006 H   0  0  0  0  0  0  0  0  0  0  0  0  # atno 6908 bound_to 6896
  150.6931  134.1655  159.4235 H   0  0  0  0  0  0  0  0  0  0  0  0  # atno 6909 bound_to 6896
  146.0351  140.6682  142.9114 H   0  0  0  0  0  0  0  0  0  0  0  0  # atno 7974 bound_to 7965
  154.6531  140.2573  155.7192 H   0  0  0  0  0  0  0  0  0  0  0  0  # atno 8008 bound_to 7997
  156.2584  140.2864  156.0893 H   0  0  0  0  0  0  0  0  0  0  0  0  # atno 8009 bound_to 7997
  155.1421  140.0380  157.2791 H   0  0  0  0  0  0  0  0  0  0  0  0  # atno 8010 bound_to 7997
  140.7134  143.3386  151.2408 H   0  0  0  0  0  0  0  0  0  0  0  0  # atno 10167 bound_to 10162
  157.6959  131.0375  150.3597 H   0  0  0  0  0  0  0  0  0  0  0  0  # atno 10718 bound_to 10713
  153.0789  135.6613  154.0086 H   0  0  0  0  0  0  0  0  0  0  0  0  # atno 10763 bound_to 10752
  153.9713  135.2964  155.3428 H   0  0  0  0  0  0  0  0  0  0  0  0  # atno 10764 bound_to 10752
  154.7184  135.5175  153.8845 H   0  0  0  0  0  0  0  0  0  0  0  0  # atno 10765 bound_to 10752
  141.1664  133.7227  156.8517 H   0  0  0  0  0  0  0  0  0  0  0  0  # atno 11005 bound_to 11000
  144.7048  140.3805  143.7127 LP  0  0  0  0  0  0  0  0  0  0  0  0  # atno 17320 bound_to 7965
  145.6977  139.1654  143.2610 LP  0  0  0  0  0  0  0  0  0  0  0  0  # atno 17321 bound_to 7965
  139.6887  143.9729  152.2848 LP  0  0  0  0  0  0  0  0  0  0  0  0  # atno 17342 bound_to 10162
  139.9383  144.6697  150.8292 LP  0  0  0  0  0  0  0  0  0  0  0  0  # atno 17343 bound_to 10162
  156.4035  130.3920  149.6942 LP  0  0  0  0  0  0  0  0  0  0  0  0  # atno 17370 bound_to 10713
  156.4251  130.7788  151.2806 LP  0  0  0  0  0  0  0  0  0  0  0  0  # atno 17371 bound_to 10713
  140.1911  134.8965  157.3061 LP  0  0  0  0  0  0  0  0  0  0  0  0  # atno 17394 bound_to 11000
  140.2289  134.3933  155.7531 LP  0  0  0  0  0  0  0  0  0  0  0  0  # atno 17395 bound_to 11000

$$$$
