AV-unprocessed.smi:1795|AV-procd|sdf|7244|dock9
  -GOLD-   22720 8493D 1   1.00000     0.00000
 Structure written by MMmdl.
 48 49  0  0  0  0  0  0  0  0  2 V2000
  149.2337  141.5564  154.5907 C   0  0  0  0  0  0  0  0  0  0  0  0
  149.5757  140.0972  154.9107 C   0  0  1  0  0  0  0  0  0  0  0  0
  148.9819  139.1220  153.8684 C   0  0  0  0  0  0  0  0  0  0  0  0
  149.4077  137.7174  154.1214 N   0  3  2  0  0  0  0  0  0  0  0  0
  148.6687  137.0389  155.2392 C   0  0  2  0  0  0  0  0  0  0  0  0
  148.8863  137.7153  156.6150 C   0  0  0  0  0  0  0  0  0  0  0  0
  149.0634  135.5387  155.3202 C   0  0  0  0  0  0  0  0  0  0  0  0
  148.8191  134.8216  154.0738 N   0  0  0  0  0  0  0  0  0  0  0  0
  148.1960  133.6365  153.9774 C   0  0  0  0  0  0  0  0  0  0  0  0
  147.7272  133.0408  154.9468 O   0  0  0  0  0  0  0  0  0  0  0  0
  148.1080  133.0142  152.5799 C   0  0  0  0  0  0  0  0  0  0  0  0
  146.7269  132.9988  152.0707 N   0  0  0  0  0  0  0  0  0  0  0  0
  146.1601  134.2462  151.7419 C   0  0  0  0  0  0  0  0  0  0  0  0
  144.9063  134.3569  151.2751 C   0  0  0  0  0  0  0  0  0  0  0  0
  144.1317  133.1503  151.1081 C   0  0  0  0  0  0  0  0  0  0  0  0
  144.6611  131.9524  151.4258 C   0  0  0  0  0  0  0  0  0  0  0  0
  146.0273  131.8283  151.9467 C   0  0  0  0  0  0  0  0  0  0  0  0
  146.5094  130.7395  152.2600 O   0  0  0  0  0  0  0  0  0  0  0  0
  150.8945  137.6816  154.1800 C   0  0  0  0  0  0  0  0  0  0  0  0
  151.4326  138.6550  155.2484 C   0  0  1  0  0  0  0  0  0  0  0  0
  152.9642  138.6652  155.3009 C   0  0  0  0  0  0  0  0  0  0  0  0
  150.9938  139.9698  154.9235 O   0  0  0  0  0  0  0  0  0  0  0  0
  148.1547  141.7135  154.5784 H   0  0  0  0  0  0  0  0  0  0  0  0
  149.6260  141.8507  153.6169 H   0  0  0  0  0  0  0  0  0  0  0  0
  149.6579  142.2285  155.3372 H   0  0  0  0  0  0  0  0  0  0  0  0
  149.1896  139.8734  155.9056 H   0  0  0  0  0  0  0  0  0  0  0  0
  147.8998  139.2237  153.8311 H   0  0  0  0  0  0  0  0  0  0  0  0
  149.3338  139.4036  152.8748 H   0  0  0  0  0  0  0  0  0  0  0  0
  147.6021  137.1058  155.0293 H   0  0  0  0  0  0  0  0  0  0  0  0
  148.3807  137.1769  157.4168 H   0  0  0  0  0  0  0  0  0  0  0  0
  148.4793  138.7256  156.6443 H   0  0  0  0  0  0  0  0  0  0  0  0
  149.9447  137.7637  156.8724 H   0  0  0  0  0  0  0  0  0  0  0  0
  150.1108  135.3959  155.5812 H   0  0  0  0  0  0  0  0  0  0  0  0
  148.4878  135.0488  156.1062 H   0  0  0  0  0  0  0  0  0  0  0  0
  149.1714  135.2423  153.2252 H   0  0  0  0  0  0  0  0  0  0  0  0
  148.7491  133.5753  151.8979 H   0  0  0  0  0  0  0  0  0  0  0  0
  148.5361  132.0107  152.6072 H   0  0  0  0  0  0  0  0  0  0  0  0
  146.8050  135.0987  151.9007 H   0  0  0  0  0  0  0  0  0  0  0  0
  144.4874  135.3226  151.0327 H   0  0  0  0  0  0  0  0  0  0  0  0
  143.1234  133.2080  150.7252 H   0  0  0  0  0  0  0  0  0  0  0  0
  144.0669  131.0601  151.2929 H   0  0  0  0  0  0  0  0  0  0  0  0
  151.2813  136.6735  154.3203 H   0  0  0  0  0  0  0  0  0  0  0  0
  151.2737  137.9870  153.2035 H   0  0  0  0  0  0  0  0  0  0  0  0
  151.0560  138.3807  156.2352 H   0  0  0  0  0  0  0  0  0  0  0  0
  153.3548  137.6794  155.5547 H   0  0  0  0  0  0  0  0  0  0  0  0
  153.3236  139.3678  156.0532 H   0  0  0  0  0  0  0  0  0  0  0  0
  153.3912  138.9582  154.3413 H   0  0  0  0  0  0  0  0  0  0  0  0
  149.1616  137.1909  153.2953 H   0  0  0  0  0  0  0  0  0  0  0  0
  1  2  1  0  0  0  0
  1 23  1  0  0  0  0
  1 24  1  0  0  0  0
  1 25  1  0  0  0  0
  2 22  1  0  0  0  0
  2  3  1  0  0  0  0
  2 26  1  0  0  0  0
  3  4  1  0  0  0  0
  3 27  1  0  0  0  0
  3 28  1  0  0  0  0
  4  5  1  0  0  0  0
  4 19  1  0  0  0  0
  4 48  1  0  0  0  0
  5  6  1  0  0  0  0
  5  7  1  0  0  0  0
  5 29  1  0  0  0  0
  6 30  1  0  0  0  0
  6 31  1  0  0  0  0
  6 32  1  0  0  0  0
  7  8  1  0  0  0  0
  7 33  1  0  0  0  0
  7 34  1  0  0  0  0
  8  9  1  0  0  0  0
  8 35  1  0  0  0  0
  9 10  2  0  0  0  0
  9 11  1  0  0  0  0
 11 12  1  0  0  0  0
 11 36  1  0  0  0  0
 11 37  1  0  0  0  0
 12 17  1  0  0  0  0
 12 13  1  0  0  0  0
 13 14  2  0  0  0  0
 13 38  1  0  0  0  0
 14 15  1  0  0  0  0
 14 39  1  0  0  0  0
 15 16  2  0  0  0  0
 15 40  1  0  0  0  0
 16 17  1  0  0  0  0
 16 41  1  0  0  0  0
 17 18  2  0  0  0  0
 19 20  1  0  0  0  0
 19 42  1  0  0  0  0
 19 43  1  0  0  0  0
 20 21  1  0  0  0  0
 20 22  1  0  0  0  0
 20 44  1  0  0  0  0
 21 45  1  0  0  0  0
 21 46  1  0  0  0  0
 21 47  1  0  0  0  0
M  CHG  1   4   1
M  END
> <s_m_source_file>
AV-unprocessed.smi

> <i_m_source_file_index>
1795

> <i_lp_mmshare_version>
43012

> <i_f3d_flags>
0

> <s_epik_input>
W0NIM11bQ0BASF0xW0NIMl1OKFtDSDJdW0NASF0oTzEpW0NIM10pW0NASF0oW0NIM10pW0NIMl1bTkhdQyg9TylbQ0gyXW4yW2NIXVtjSF1bY0hdW2NIXWMyPU8=

> <s_epik_cmdline>
J2VwaWtfcHl0aG9uJywgJy1waCcsICc3LjAnLCAnLXRuJywgJzgnLCAnLW1hJywgJzIwMCcsICctbWV0YWxfYmluZGluZycsICctaW1hZScsICc8aW5maWxlLm1hZT4nLCAnLW9tYWUnLCAnPG91dGZpbGUubWFlPic=

> <r_lp_tautomer_probability>
1

> <r_epik_Ionization_Penalty>
0.656654

> <r_epik_Ionization_Penalty_Charging>
0.656654

> <r_epik_Ionization_Penalty_Neutral>
8.90321e-08

> <r_epik_State_Penalty>
0.675641

> <r_epik_Charging_Adjusted_Penalty>
1.33229

> <i_epik_Tot_Q>
1

> <i_epik_Tot_abs_Q>
1

> <r_epik_Metal_State_Penalty>
0.675691

> <b_epik_Metal_Only>
0

> <s_lp_Force_Field>
OPLS_2005

> <r_lp_Energy>
32.228

> <b_lp_Chiralities_Consistent>
1

> <s_lp_Variant>
AV-unprocessed.smi:1795-8

> <Gold.Version>
5.8.1

> <Gold.Id.Protein>
6NUR|6NUR_protein|mol2

> <Gold.PLP.Fitness>
51.9309

> <Gold.PLP.PLP>
-37.7059

> <Gold.PLP.part.hbond>
-3.0000

> <Gold.PLP.part.metal>
0.0000

> <Gold.PLP.part.buried>
-1.2796

> <Gold.PLP.part.nonpolar>
-33.6423

> <Gold.PLP.part.repulsive>
0.2390

> <Gold.PLP.ligand.clash>
0.0000

> <Gold.PLP.ligand.torsion>
0.2667

> <Gold.PLP.Chemscore.Hbond>
3.9000

> <Gold.PLP.Chemscore.CHOScore>
1.0000

> <Gold.PLP.Chemscore.Metal>
0.0000

> <Gold.Chemscore.Hbonds>
donor molecule, donor type, donor heavy atom, donor atom, acceptor molecule, acceptor atom, score
      L1  H     4    48       P1  7948  2.00
      L1  H     8    35       P1  7948  0.90
      P1  H  7989  7998       L1    22  1.00
      L1  C    13    38       P1  7948  1.00

> <Gold.PLP.Chemscore.Internal.Correction>
0.0585

> <Gold.Rescore>
     Score         DG    S(hbond)    S(metal)    S(lipo)     H(rot)  DE(clash)    DE(int)     intcor
     16.04     -18.20       2.41        0.00      81.16       1.89       0.30       1.87       ----

> <Gold.Chemscore.Fitness>
16.0378

> <Gold.Chemscore.DG>
-18.2029

> <Gold.Chemscore.ZeroCoef>
-5.4800

> <Gold.Chemscore.Hbond>
2.4125

> <Gold.Chemscore.Metal>
0.0000

> <Gold.Chemscore.Lipo>
81.1613

> <Gold.Chemscore.Internal_Hbond>
0.0000

> <Gold.Chemscore.DEClash>
0.2974

> <Gold.Chemscore.DEInternal>
1.8677

> <Gold.Chemscore.Rot>
1.8870

> <Gold.Chemscore.Internal.Correction>
   9.000000E+99

> <Gold.Chemscore.Hbonds>
donor molecule, donor type, donor heavy atom, donor atom, acceptor molecule, acceptor atom, score
      L1  H     4    48       P1  7948  1.00
      L1  H     8    35       P1  7948  0.17
      P1  H  7989  7998       L1    22  0.65

> <Gold.Chemscore.Hbond.Weighted>
-8.0577

> <Gold.Chemscore.Metal.Weighted>
-0.0000

> <Gold.Chemscore.Lipo.Weighted>
-9.4959

> <Gold.Chemscore.Internal_Hbond.Weighted>
0.0000

> <Gold.Chemscore.DEClash.Weighted>
0.2974

> <Gold.Chemscore.DEInternal.Weighted>
1.8677

> <Gold.Chemscore.Rot.Weighted>
4.8308

> <Gold.Chemscore.Internal.Correction.Weighted>
   9.000000E+99

> <Gold.Protein.RotatedTorsions>
[ 6907 6896 6895 6894 ] final  -93.87 input  -60.11 | X-H torsion
[ 7974 7965 7964 7962 ] final -165.51 input  175.53 | X-H torsion
[ 8008 7997 7996 7995 ] final  120.36 input   59.86 | X-H torsion
[ 10167 10162 10161 10158 ] final -160.06 input  -65.29 | X-H torsion
[ 10718 10713 10712 10709 ] final  101.75 input   66.30 | X-H torsion
[ 10763 10752 10751 10750 ] final  169.66 input  -60.55 | X-H torsion
[ 11005 11000 10999 10996 ] final -145.21 input  -57.11 | X-H torsion

> <Gold.Protein.ActiveResidues>
 VAL166  LYS551  ARG553  GLY616  TRP617  ASP618  TYR619  PRO620  LYS621  CYS622 
 ASP623  PHE694  ASN695  SER759  ASP760  ASP761  ALA762  ILE779  LEU786  VAL792 
 PHE793  MET794  SER795  GLU796  ALA797  LYS798  CYS799  TRP800  GLU811  SER814 

> <Gold.Protein.RotatedAtoms>
  150.6930  134.1901  159.4281 H   0  0  0  0  0  0  0  0  0  0  0  0  # atno 6907 bound_to 6896
  151.9872  134.9996  160.0569 H   0  0  0  0  0  0  0  0  0  0  0  0  # atno 6908 bound_to 6896
  152.1701  133.4603  159.4941 H   0  0  0  0  0  0  0  0  0  0  0  0  # atno 6909 bound_to 6896
  144.7268  140.2802  143.6237 H   0  0  0  0  0  0  0  0  0  0  0  0  # atno 7974 bound_to 7965
  156.2639  140.2832  156.1138 H   0  0  0  0  0  0  0  0  0  0  0  0  # atno 8008 bound_to 7997
  155.1229  140.0392  157.2772 H   0  0  0  0  0  0  0  0  0  0  0  0  # atno 8009 bound_to 7997
  154.6657  140.2576  155.7067 H   0  0  0  0  0  0  0  0  0  0  0  0  # atno 8010 bound_to 7997
  139.6568  143.9985  152.2199 H   0  0  0  0  0  0  0  0  0  0  0  0  # atno 10167 bound_to 10162
  157.6821  131.0734  150.5300 H   0  0  0  0  0  0  0  0  0  0  0  0  # atno 10718 bound_to 10713
  154.3863  135.2753  155.2181 H   0  0  0  0  0  0  0  0  0  0  0  0  # atno 10763 bound_to 10752
  154.4267  135.5987  153.6046 H   0  0  0  0  0  0  0  0  0  0  0  0  # atno 10764 bound_to 10752
  152.9833  135.5985  154.4112 H   0  0  0  0  0  0  0  0  0  0  0  0  # atno 10765 bound_to 10752
  140.7945  134.2929  157.5001 H   0  0  0  0  0  0  0  0  0  0  0  0  # atno 11005 bound_to 11000
  145.7956  139.1944  143.2077 LP  0  0  0  0  0  0  0  0  0  0  0  0  # atno 17320 bound_to 7965
  146.0719  140.7859  142.9684 LP  0  0  0  0  0  0  0  0  0  0  0  0  # atno 17321 bound_to 7965
  139.9713  144.6492  150.7986 LP  0  0  0  0  0  0  0  0  0  0  0  0  # atno 17342 bound_to 10162
  140.7562  143.3062  151.2956 LP  0  0  0  0  0  0  0  0  0  0  0  0  # atno 17343 bound_to 10162
  156.5610  130.4255  149.6063 LP  0  0  0  0  0  0  0  0  0  0  0  0  # atno 17370 bound_to 10713
  156.2821  130.7077  151.1903 LP  0  0  0  0  0  0  0  0  0  0  0  0  # atno 17371 bound_to 10713
  139.8727  134.9394  156.3740 LP  0  0  0  0  0  0  0  0  0  0  0  0  # atno 17394 bound_to 11000
  140.9356  133.7549  156.0080 LP  0  0  0  0  0  0  0  0  0  0  0  0  # atno 17395 bound_to 11000

$$$$
