AV-unprocessed.smi:1401|AV-procd|sdf|5692|dock8
  -GOLD-   22720 5323D 1   1.00000     0.00000
 Structure written by MMmdl.
 48 50  0  0  0  0  0  0  0  0  1 V2000
  152.1183  141.9021  158.9002 C   0  0  0  0  0  0  0  0  0  0  0  0
  152.3703  140.5184  159.4363 C   0  0  0  0  0  0  0  0  0  0  0  0
  151.6083  139.5758  158.9877 N   0  0  0  0  0  0  0  0  0  0  0  0
  151.7548  138.2689  159.4108 N   0  0  0  0  0  0  0  0  0  0  0  0
  150.7902  137.3344  158.8120 C   0  0  0  0  0  0  0  0  0  0  0  0
  150.9665  137.1542  157.2967 C   0  0  0  0  0  0  0  0  0  0  0  0
  151.6472  136.2331  156.8427 O   0  0  0  0  0  0  0  0  0  0  0  0
  150.3267  138.0472  156.5258 N   0  0  0  0  0  0  0  0  0  0  0  0
  150.3439  138.0815  155.0639 C   0  0  2  0  0  0  0  0  0  0  0  0
  151.8049  137.9882  154.5891 C   0  0  0  0  0  0  0  0  0  0  0  0
  149.6277  139.3616  154.5658 C   0  0  2  0  0  0  0  0  0  0  0  0
  150.0004  140.6349  155.3675 C   0  0  0  0  0  0  0  0  0  0  0  0
  148.6346  141.2011  155.7934 C   0  0  1  0  0  0  0  0  0  0  0  0
  147.8900  141.7388  154.5582 C   0  0  0  0  0  0  0  0  0  0  0  0
  147.4835  140.4489  153.8219 C   0  0  0  0  0  0  0  0  0  0  0  0
  148.0844  139.3442  154.7127 C   0  0  2  0  0  0  0  0  0  0  0  0
  147.8618  139.9272  156.1048 C   0  0  0  0  0  0  0  0  0  0  0  0
  152.6948  137.8423  160.3032 C   0  0  0  0  0  0  0  0  0  0  0  0
  152.7988  136.6625  160.6427 O   0  0  0  0  0  0  0  0  0  0  0  0
  153.5524  138.9159  160.8098 C   0  0  0  0  0  0  0  0  0  0  0  0
  154.5497  138.5135  161.7483 C   0  0  0  0  0  0  0  0  0  0  0  0
  155.3444  138.1886  162.5251 N   0  0  0  0  0  0  0  0  0  0  0  0
  153.4093  140.2050  160.4125 C   0  0  0  0  0  0  0  0  0  0  0  0
  154.2769  141.3532  160.9094 C   0  0  0  0  0  0  0  0  0  0  0  0
  153.0375  142.3438  158.5146 H   0  0  0  0  0  0  0  0  0  0  0  0
  151.7309  142.5543  159.6833 H   0  0  0  0  0  0  0  0  0  0  0  0
  151.3919  141.8962  158.0859 H   0  0  0  0  0  0  0  0  0  0  0  0
  150.8765  136.3526  159.2811 H   0  0  0  0  0  0  0  0  0  0  0  0
  149.7714  137.6672  159.0190 H   0  0  0  0  0  0  0  0  0  0  0  0
  149.7873  138.7652  156.9874 H   0  0  0  0  0  0  0  0  0  0  0  0
  149.8048  137.2161  154.6753 H   0  0  0  0  0  0  0  0  0  0  0  0
  151.8771  137.9221  153.5043 H   0  0  0  0  0  0  0  0  0  0  0  0
  152.2913  137.1001  154.9941 H   0  0  0  0  0  0  0  0  0  0  0  0
  152.3824  138.8560  154.9093 H   0  0  0  0  0  0  0  0  0  0  0  0
  149.8902  139.5055  153.5163 H   0  0  0  0  0  0  0  0  0  0  0  0
  150.5887  140.3933  156.2539 H   0  0  0  0  0  0  0  0  0  0  0  0
  150.5775  141.3446  154.7737 H   0  0  0  0  0  0  0  0  0  0  0  0
  148.6945  141.9160  156.6144 H   0  0  0  0  0  0  0  0  0  0  0  0
  147.0065  142.3073  154.8515 H   0  0  0  0  0  0  0  0  0  0  0  0
  148.5192  142.3874  153.9476 H   0  0  0  0  0  0  0  0  0  0  0  0
  146.3972  140.3604  153.7786 H   0  0  0  0  0  0  0  0  0  0  0  0
  147.8604  140.4143  152.7991 H   0  0  0  0  0  0  0  0  0  0  0  0
  147.6190  138.3735  154.5477 H   0  0  0  0  0  0  0  0  0  0  0  0
  148.3071  139.3341  156.9051 H   0  0  0  0  0  0  0  0  0  0  0  0
  146.8103  140.1058  156.3364 H   0  0  0  0  0  0  0  0  0  0  0  0
  154.8854  141.0647  161.7660 H   0  0  0  0  0  0  0  0  0  0  0  0
  153.6650  142.1998  161.2219 H   0  0  0  0  0  0  0  0  0  0  0  0
  154.9503  141.6867  160.1193 H   0  0  0  0  0  0  0  0  0  0  0  0
  1  2  1  0  0  0  0
  1 25  1  0  0  0  0
  1 26  1  0  0  0  0
  1 27  1  0  0  0  0
  2 23  1  0  0  0  0
  2  3  2  0  0  0  0
  3  4  1  0  0  0  0
  4  5  1  0  0  0  0
  4 18  1  0  0  0  0
  5  6  1  0  0  0  0
  5 28  1  0  0  0  0
  5 29  1  0  0  0  0
  6  7  2  0  0  0  0
  6  8  1  0  0  0  0
  8  9  1  0  0  0  0
  8 30  1  0  0  0  0
  9 10  1  0  0  0  0
  9 11  1  0  0  0  0
  9 31  1  0  0  0  0
 10 32  1  0  0  0  0
 10 33  1  0  0  0  0
 10 34  1  0  0  0  0
 11 16  1  0  0  0  0
 11 12  1  0  0  0  0
 11 35  1  0  0  0  0
 12 13  1  0  0  0  0
 12 36  1  0  0  0  0
 12 37  1  0  0  0  0
 13 17  1  0  0  0  0
 13 14  1  0  0  0  0
 13 38  1  0  0  0  0
 14 15  1  0  0  0  0
 14 39  1  0  0  0  0
 14 40  1  0  0  0  0
 15 16  1  0  0  0  0
 15 41  1  0  0  0  0
 15 42  1  0  0  0  0
 16 17  1  0  0  0  0
 16 43  1  0  0  0  0
 17 44  1  0  0  0  0
 17 45  1  0  0  0  0
 18 19  2  0  0  0  0
 18 20  1  0  0  0  0
 20 21  1  0  0  0  0
 20 23  2  0  0  0  0
 21 22  3  0  0  0  0
 23 24  1  0  0  0  0
 24 46  1  0  0  0  0
 24 47  1  0  0  0  0
 24 48  1  0  0  0  0
M  END
> <s_m_source_file>
AV-unprocessed.smi

> <i_m_source_file_index>
1401

> <i_lp_mmshare_version>
43012

> <i_f3d_flags>
0

> <s_epik_input>
TiNDYyhjMVtDSDNdKWMoPU8pbihuYzFbQ0gzXSlbQ0gyXUMoPU8pW05IXVtDQEhdKFtDSDNdKVtDQEhdKFtDSDJdW0NASF0yMylbQ0BIXShbQ0gyXTMpW0NIMl1bQ0gyXTI=

> <s_epik_cmdline>
J2VwaWtfcHl0aG9uJywgJy1waCcsICc3LjAnLCAnLXRuJywgJzgnLCAnLW1hJywgJzIwMCcsICctbWV0YWxfYmluZGluZycsICctaW1hZScsICc8aW5maWxlLm1hZT4nLCAnLW9tYWUnLCAnPG91dGZpbGUubWFlPic=

> <r_lp_tautomer_probability>
1

> <r_epik_Ionization_Penalty>
2.16501e-08

> <r_epik_Ionization_Penalty_Charging>
2.29436e-11

> <r_epik_Ionization_Penalty_Neutral>
2.16271e-08

> <r_epik_State_Penalty>
-0

> <r_epik_Charging_Adjusted_Penalty>
2.29436e-11

> <i_epik_Tot_Q>
0

> <i_epik_Tot_abs_Q>
0

> <r_epik_Metal_State_Penalty>
-0

> <b_epik_Metal_Only>
0

> <s_lp_Force_Field>
OPLS_2005

> <r_lp_Energy>
66.5869

> <b_lp_Chiralities_Consistent>
1

> <s_lp_Variant>
AV-unprocessed.smi:1401-5

> <Gold.Version>
5.8.1

> <Gold.Id.Protein>
6NUR|6NUR_protein|mol2

> <Gold.PLP.Fitness>
42.1740

> <Gold.PLP.PLP>
-37.5675

> <Gold.PLP.part.hbond>
-2.0000

> <Gold.PLP.part.metal>
0.0000

> <Gold.PLP.part.buried>
-2.9796

> <Gold.PLP.part.nonpolar>
-32.3907

> <Gold.PLP.part.repulsive>
0.0138

> <Gold.PLP.ligand.clash>
0.0000

> <Gold.PLP.ligand.torsion>
0.7099

> <Gold.PLP.Chemscore.Hbond>
2.0000

> <Gold.PLP.Chemscore.CHOScore>
0.0000

> <Gold.PLP.Chemscore.Metal>
0.0000

> <Gold.Chemscore.Hbonds>
donor molecule, donor type, donor heavy atom, donor atom, acceptor molecule, acceptor atom, score
      P1  H  6896  6907       L1    19  1.00

> <Gold.PLP.Chemscore.Internal.Correction>
0.0265

> <Gold.Rescore>
     Score         DG    S(hbond)    S(metal)    S(lipo)     H(rot)  DE(clash)    DE(int)     intcor
     17.60     -19.62       1.96        0.00     100.46       1.63       0.28       1.74       ----

> <Gold.Chemscore.Fitness>
17.5985

> <Gold.Chemscore.DG>
-19.6216

> <Gold.Chemscore.ZeroCoef>
-5.4800

> <Gold.Chemscore.Hbond>
1.9626

> <Gold.Chemscore.Metal>
0.0000

> <Gold.Chemscore.Lipo>
100.4636

> <Gold.Chemscore.Internal_Hbond>
0.0000

> <Gold.Chemscore.DEClash>
0.2847

> <Gold.Chemscore.DEInternal>
1.7384

> <Gold.Chemscore.Rot>
1.6281

> <Gold.Chemscore.Internal.Correction>
   9.000000E+99

> <Gold.Chemscore.Hbonds>
donor molecule, donor type, donor heavy atom, donor atom, acceptor molecule, acceptor atom, score
      P1  H  6896  6907       L1    19  1.00
      P1  H 10752 10765       L1     7  0.05

> <Gold.Chemscore.Hbond.Weighted>
-6.5552

> <Gold.Chemscore.Metal.Weighted>
-0.0000

> <Gold.Chemscore.Lipo.Weighted>
-11.7542

> <Gold.Chemscore.Internal_Hbond.Weighted>
0.0000

> <Gold.Chemscore.DEClash.Weighted>
0.2847

> <Gold.Chemscore.DEInternal.Weighted>
1.7384

> <Gold.Chemscore.Rot.Weighted>
4.1678

> <Gold.Chemscore.Internal.Correction.Weighted>
   9.000000E+99

> <Gold.Protein.RotatedTorsions>
[ 6907 6896 6895 6894 ] final   23.17 input  -60.11 | X-H torsion
[ 7974 7965 7964 7962 ] final   94.12 input  175.53 | X-H torsion
[ 8008 7997 7996 7995 ] final   20.47 input   59.86 | X-H torsion
[ 10167 10162 10161 10158 ] final  101.53 input  -65.29 | X-H torsion
[ 10718 10713 10712 10709 ] final -159.97 input   66.30 | X-H torsion
[ 10763 10752 10751 10750 ] final -141.28 input  -60.55 | X-H torsion
[ 11005 11000 10999 10996 ] final  136.50 input  -57.11 | X-H torsion

> <Gold.Protein.ActiveResidues>
 VAL166  LYS551  ARG553  GLY616  TRP617  ASP618  TYR619  PRO620  LYS621  CYS622 
 ASP623  PHE694  ASN695  SER759  ASP760  ASP761  ALA762  ILE779  LEU786  VAL792 
 PHE793  MET794  SER795  GLU796  ALA797  LYS798  CYS799  TRP800  GLU811  SER814 

> <Gold.Protein.RotatedAtoms>
  151.9383  135.0225  160.0533 H   0  0  0  0  0  0  0  0  0  0  0  0  # atno 6907 bound_to 6896
  152.2059  133.4870  159.5092 H   0  0  0  0  0  0  0  0  0  0  0  0  # atno 6908 bound_to 6896
  150.6965  134.1447  159.4161 H   0  0  0  0  0  0  0  0  0  0  0  0  # atno 6909 bound_to 6896
  145.4698  139.2282  143.2941 H   0  0  0  0  0  0  0  0  0  0  0  0  # atno 7974 bound_to 7965
  154.9361  140.3047  155.5144 H   0  0  0  0  0  0  0  0  0  0  0  0  # atno 8008 bound_to 7997
  156.3000  140.2345  156.4362 H   0  0  0  0  0  0  0  0  0  0  0  0  # atno 8009 bound_to 7997
  154.8191  140.0424  157.1386 H   0  0  0  0  0  0  0  0  0  0  0  0  # atno 8010 bound_to 7997
  139.7430  144.7006  151.0547 H   0  0  0  0  0  0  0  0  0  0  0  0  # atno 10167 bound_to 10162
  156.5755  130.8707  151.2850 H   0  0  0  0  0  0  0  0  0  0  0  0  # atno 10718 bound_to 10713
  154.8550  135.3529  154.5842 H   0  0  0  0  0  0  0  0  0  0  0  0  # atno 10763 bound_to 10752
  153.6453  135.6996  153.5232 H   0  0  0  0  0  0  0  0  0  0  0  0  # atno 10764 bound_to 10752
  153.2938  135.4227  155.1149 H   0  0  0  0  0  0  0  0  0  0  0  0  # atno 10765 bound_to 10752
  140.0050  134.9463  157.0155 H   0  0  0  0  0  0  0  0  0  0  0  0  # atno 11005 bound_to 11000
  146.2403  140.5475  142.8937 LP  0  0  0  0  0  0  0  0  0  0  0  0  # atno 17320 bound_to 7965
  144.7952  140.6109  143.6515 LP  0  0  0  0  0  0  0  0  0  0  0  0  # atno 17321 bound_to 7965
  140.7788  143.4901  150.9904 LP  0  0  0  0  0  0  0  0  0  0  0  0  # atno 17342 bound_to 10162
  139.8589  143.7340  152.3174 LP  0  0  0  0  0  0  0  0  0  0  0  0  # atno 17343 bound_to 10162
  157.7338  130.9737  150.1998 LP  0  0  0  0  0  0  0  0  0  0  0  0  # atno 17370 bound_to 10713
  156.2677  130.3718  149.8064 LP  0  0  0  0  0  0  0  0  0  0  0  0  # atno 17371 bound_to 10713
  140.4658  134.1437  155.7197 LP  0  0  0  0  0  0  0  0  0  0  0  0  # atno 17394 bound_to 11000
  141.1670  133.8683  157.1685 LP  0  0  0  0  0  0  0  0  0  0  0  0  # atno 17395 bound_to 11000

$$$$
