AV-unprocessed.smi:2510|AV-procd|sdf|9884|dock10
  -GOLD-   2272013523D 1   1.00000     0.00000
 Structure written by MMmdl.
 48 49  0  0  0  0  0  0  0  0  1 V2000
  150.5548  137.4889  159.2024 C   0  0  0  0  0  0  0  0  0  0  0  0
  150.5230  138.7876  158.3747 C   0  0  0  0  0  0  0  0  0  0  0  0
  151.8935  139.4312  158.0166 C   0  0  0  0  0  0  0  0  0  0  0  0
  152.7348  138.4204  157.2070 C   0  0  0  0  0  0  0  0  0  0  0  0
  151.9768  137.7163  156.0700 C   0  0  0  0  0  0  0  0  0  0  0  0
  151.8959  140.8831  157.4604 C   0  0  1  0  0  0  0  0  0  0  0  0
  150.6814  141.2952  156.7669 N   0  0  0  0  0  0  0  0  0  0  0  0
  150.3077  140.8474  155.5590 C   0  0  0  0  0  0  0  0  0  0  0  0
  150.9434  140.0105  154.9182 O   0  0  0  0  0  0  0  0  0  0  0  0
  149.0165  141.4311  154.9865 C   0  0  0  0  0  0  0  0  0  0  0  0
  148.2365  140.3814  154.2628 C   0  0  0  0  0  0  0  0  0  0  0  0
  147.8508  140.2856  152.9550 C   0  0  0  0  0  0  0  0  0  0  0  0
  147.1283  139.0584  152.8889 C   0  0  0  0  0  0  0  0  0  0  0  0
  146.4637  138.4380  151.6954 C   0  0  0  0  0  0  0  0  0  0  0  0
  147.0748  138.4391  154.0588 N   0  0  0  0  0  0  0  0  0  0  0  0
  147.7548  139.2528  154.8875 N   0  0  0  0  0  0  0  0  0  0  0  0
  151.9592  141.4184  158.8939 C   0  0  2  0  0  0  0  0  0  0  0  0
  152.6789  142.7318  159.1757 C   0  0  0  0  0  0  0  0  0  0  0  0
  152.6060  140.0662  159.2459 C   0  0  2  0  0  0  0  0  0  0  0  0
  154.0223  140.0859  159.0973 O   0  0  0  0  0  0  0  0  0  0  0  0
  154.6864  140.7257  160.1739 C   0  0  0  0  0  0  0  0  0  0  0  0
  147.8782  139.0290  155.8645 H   0  0  0  0  0  0  0  0  0  0  0  0
  149.5516  137.0712  159.2876 H   0  0  0  0  0  0  0  0  0  0  0  0
  150.9100  137.6616  160.2179 H   0  0  0  0  0  0  0  0  0  0  0  0
  151.1852  136.7251  158.7524 H   0  0  0  0  0  0  0  0  0  0  0  0
  149.9619  138.5757  157.4649 H   0  0  0  0  0  0  0  0  0  0  0  0
  149.9060  139.5116  158.9072 H   0  0  0  0  0  0  0  0  0  0  0  0
  153.6329  138.8926  156.8104 H   0  0  0  0  0  0  0  0  0  0  0  0
  153.1197  137.6477  157.8731 H   0  0  0  0  0  0  0  0  0  0  0  0
  152.6099  136.9669  155.5947 H   0  0  0  0  0  0  0  0  0  0  0  0
  151.6659  138.4157  155.2946 H   0  0  0  0  0  0  0  0  0  0  0  0
  151.0868  137.2071  156.4399 H   0  0  0  0  0  0  0  0  0  0  0  0
  152.8139  141.1192  156.9159 H   0  0  0  0  0  0  0  0  0  0  0  0
  150.0978  141.9785  157.2273 H   0  0  0  0  0  0  0  0  0  0  0  0
  148.4198  141.8443  155.8004 H   0  0  0  0  0  0  0  0  0  0  0  0
  149.2469  142.2623  154.3182 H   0  0  0  0  0  0  0  0  0  0  0  0
  148.0515  140.9910  152.1621 H   0  0  0  0  0  0  0  0  0  0  0  0
  146.5712  139.0678  150.8122 H   0  0  0  0  0  0  0  0  0  0  0  0
  145.3974  138.2931  151.8705 H   0  0  0  0  0  0  0  0  0  0  0  0
  146.9002  137.4662  151.4644 H   0  0  0  0  0  0  0  0  0  0  0  0
  150.9575  141.4495  159.3265 H   0  0  0  0  0  0  0  0  0  0  0  0
  153.6833  142.7388  158.7519 H   0  0  0  0  0  0  0  0  0  0  0  0
  152.7685  142.9118  160.2469 H   0  0  0  0  0  0  0  0  0  0  0  0
  152.1377  143.5741  158.7448 H   0  0  0  0  0  0  0  0  0  0  0  0
  152.2753  139.6433  160.1966 H   0  0  0  0  0  0  0  0  0  0  0  0
  155.7593  140.7436  159.9833 H   0  0  0  0  0  0  0  0  0  0  0  0
  154.5211  140.1873  161.1079 H   0  0  0  0  0  0  0  0  0  0  0  0
  154.3496  141.7543  160.3016 H   0  0  0  0  0  0  0  0  0  0  0  0
  1  2  1  0  0  0  0
  1 23  1  0  0  0  0
  1 24  1  0  0  0  0
  1 25  1  0  0  0  0
  2  3  1  0  0  0  0
  2 26  1  0  0  0  0
  2 27  1  0  0  0  0
  3 19  1  0  0  0  0
  3  4  1  0  0  0  0
  3  6  1  0  0  0  0
  4  5  1  0  0  0  0
  4 28  1  0  0  0  0
  4 29  1  0  0  0  0
  5 30  1  0  0  0  0
  5 31  1  0  0  0  0
  5 32  1  0  0  0  0
  6  7  1  0  0  0  0
  6 17  1  0  0  0  0
  6 33  1  0  0  0  0
  7  8  1  0  0  0  0
  7 34  1  0  0  0  0
  8  9  2  0  0  0  0
  8 10  1  0  0  0  0
 10 35  1  0  0  0  0
 10 36  1  0  0  0  0
 10 11  1  0  0  0  0
 11 16  1  0  0  0  0
 11 12  2  0  0  0  0
 12 13  1  0  0  0  0
 12 37  1  0  0  0  0
 13 14  1  0  0  0  0
 13 15  2  0  0  0  0
 14 38  1  0  0  0  0
 14 39  1  0  0  0  0
 14 40  1  0  0  0  0
 15 16  1  0  0  0  0
 16 22  1  0  0  0  0
 17 18  1  0  0  0  0
 17 19  1  0  0  0  0
 17 41  1  0  0  0  0
 18 42  1  0  0  0  0
 18 43  1  0  0  0  0
 18 44  1  0  0  0  0
 19 20  1  0  0  0  0
 19 45  1  0  0  0  0
 20 21  1  0  0  0  0
 21 46  1  0  0  0  0
 21 47  1  0  0  0  0
 21 48  1  0  0  0  0
M  END
> <s_m_source_file>
AV-unprocessed.smi

> <i_m_source_file_index>
2510

> <i_lp_mmshare_version>
43012

> <i_f3d_flags>
0

> <s_epik_input>
W0NIM11PW0NAQEhdMVtDQEhdKFtDSDNdKVtDQEBIXShDMShbQ0gyXVtDSDNdKVtDSDJdW0NIM10pW05IXUMoPU8pW0NIMl1jMltjSF1jKFtDSDNdKVtuSF1uMg==

> <s_epik_cmdline>
J2VwaWtfcHl0aG9uJywgJy1waCcsICc3LjAnLCAnLXRuJywgJzgnLCAnLW1hJywgJzIwMCcsICctbWV0YWxfYmluZGluZycsICctaW1hZScsICc8aW5maWxlLm1hZT4nLCAnLW9tYWUnLCAnPG91dGZpbGUubWFlPic=

> <r_lp_tautomer_probability>
0.5

> <r_epik_Ionization_Penalty>
0.000134763

> <r_epik_Ionization_Penalty_Charging>
0

> <r_epik_Ionization_Penalty_Neutral>
0.000134763

> <r_epik_State_Penalty>
0.41068

> <r_epik_Charging_Adjusted_Penalty>
0.41068

> <i_epik_Tot_Q>
0

> <i_epik_Tot_abs_Q>
0

> <r_epik_Metal_State_Penalty>
0.410661

> <b_epik_Metal_Only>
0

> <s_lp_Force_Field>
OPLS_2005

> <r_lp_Energy>
27.4462

> <b_lp_Chiralities_Consistent>
1

> <s_lp_Variant>
AV-unprocessed.smi:2510-15

> <Gold.Version>
5.8.1

> <Gold.Id.Protein>
6NUR|6NUR_protein|mol2

> <Gold.PLP.Fitness>
39.2574

> <Gold.PLP.PLP>
-34.1866

> <Gold.PLP.part.hbond>
-2.0000

> <Gold.PLP.part.metal>
0.0000

> <Gold.PLP.part.buried>
0.7554

> <Gold.PLP.part.nonpolar>
-33.9621

> <Gold.PLP.part.repulsive>
0.2657

> <Gold.PLP.ligand.clash>
0.0000

> <Gold.PLP.ligand.torsion>
0.7865

> <Gold.PLP.Chemscore.Hbond>
1.9920

> <Gold.PLP.Chemscore.CHOScore>
0.0000

> <Gold.PLP.Chemscore.Metal>
0.0000

> <Gold.Chemscore.Hbonds>
donor molecule, donor type, donor heavy atom, donor atom, acceptor molecule, acceptor atom, score
      P1  H  7989  7998       L1     9  1.00
      P1  H  7997  8010       L1    20  0.98

> <Gold.PLP.Chemscore.Internal.Correction>
0.6678

> <Gold.Rescore>
     Score         DG    S(hbond)    S(metal)    S(lipo)     H(rot)  DE(clash)    DE(int)     intcor
     15.94     -19.38       1.95        0.00     102.80       1.81       1.18       2.26       ----

> <Gold.Chemscore.Fitness>
15.9354

> <Gold.Chemscore.DG>
-19.3767

> <Gold.Chemscore.ZeroCoef>
-5.4800

> <Gold.Chemscore.Hbond>
1.9470

> <Gold.Chemscore.Metal>
0.0000

> <Gold.Chemscore.Lipo>
102.8034

> <Gold.Chemscore.Internal_Hbond>
0.0000

> <Gold.Chemscore.DEClash>
1.1826

> <Gold.Chemscore.DEInternal>
2.2587

> <Gold.Chemscore.Rot>
1.8102

> <Gold.Chemscore.Internal.Correction>
   9.000000E+99

> <Gold.Chemscore.Hbonds>
donor molecule, donor type, donor heavy atom, donor atom, acceptor molecule, acceptor atom, score
      P1  H  7989  7998       L1     9  0.60
      P1  H  7997  8010       L1    20  0.84

> <Gold.Chemscore.Hbond.Weighted>
-6.5028

> <Gold.Chemscore.Metal.Weighted>
-0.0000

> <Gold.Chemscore.Lipo.Weighted>
-12.0280

> <Gold.Chemscore.Internal_Hbond.Weighted>
0.0000

> <Gold.Chemscore.DEClash.Weighted>
1.1826

> <Gold.Chemscore.DEInternal.Weighted>
2.2587

> <Gold.Chemscore.Rot.Weighted>
4.6341

> <Gold.Chemscore.Internal.Correction.Weighted>
   9.000000E+99

> <Gold.Protein.RotatedTorsions>
[ 6907 6896 6895 6894 ] final  168.50 input  -60.11 | X-H torsion
[ 7974 7965 7964 7962 ] final  103.42 input  175.53 | X-H torsion
[ 8008 7997 7996 7995 ] final   11.76 input   59.86 | X-H torsion
[ 10167 10162 10161 10158 ] final  -72.77 input  -65.29 | X-H torsion
[ 10718 10713 10712 10709 ] final  166.76 input   66.30 | X-H torsion
[ 10763 10752 10751 10750 ] final  -53.01 input  -60.55 | X-H torsion
[ 11005 11000 10999 10996 ] final -138.34 input  -57.11 | X-H torsion

> <Gold.Protein.ActiveResidues>
 VAL166  LYS551  ARG553  GLY616  TRP617  ASP618  TYR619  PRO620  LYS621  CYS622 
 ASP623  PHE694  ASN695  SER759  ASP760  ASP761  ALA762  ILE779  LEU786  VAL792 
 PHE793  MET794  SER795  GLU796  ALA797  LYS798  CYS799  TRP800  GLU811  SER814 

> <Gold.Protein.RotatedAtoms>
  151.8466  133.3432  159.3659 H   0  0  0  0  0  0  0  0  0  0  0  0  # atno 6907 bound_to 6896
  150.7219  134.5340  159.5723 H   0  0  0  0  0  0  0  0  0  0  0  0  # atno 6908 bound_to 6896
  152.2825  134.7814  160.0445 H   0  0  0  0  0  0  0  0  0  0  0  0  # atno 6909 bound_to 6896
  145.3462  139.2450  143.3583 H   0  0  0  0  0  0  0  0  0  0  0  0  # atno 7974 bound_to 7965
  154.8113  140.2868  155.5851 H   0  0  0  0  0  0  0  0  0  0  0  0  # atno 8008 bound_to 7997
  156.2988  140.2568  156.2931 H   0  0  0  0  0  0  0  0  0  0  0  0  # atno 8009 bound_to 7997
  154.9444  140.0380  157.2102 H   0  0  0  0  0  0  0  0  0  0  0  0  # atno 8010 bound_to 7997
  140.5165  143.2337  151.7504 H   0  0  0  0  0  0  0  0  0  0  0  0  # atno 10167 bound_to 10162
  157.0613  131.0340  151.2646 H   0  0  0  0  0  0  0  0  0  0  0  0  # atno 10718 bound_to 10713
  154.1519  135.6488  153.4965 H   0  0  0  0  0  0  0  0  0  0  0  0  # atno 10763 bound_to 10752
  153.0135  135.5340  154.6799 H   0  0  0  0  0  0  0  0  0  0  0  0  # atno 10764 bound_to 10752
  154.6089  135.2952  155.0425 H   0  0  0  0  0  0  0  0  0  0  0  0  # atno 10765 bound_to 10752
  140.8625  134.2151  157.4699 H   0  0  0  0  0  0  0  0  0  0  0  0  # atno 11005 bound_to 11000
  146.2987  140.4069  142.8712 LP  0  0  0  0  0  0  0  0  0  0  0  0  # atno 17320 bound_to 7965
  144.8752  140.7327  143.6021 LP  0  0  0  0  0  0  0  0  0  0  0  0  # atno 17321 bound_to 7965
  139.4911  144.4316  151.9866 LP  0  0  0  0  0  0  0  0  0  0  0  0  # atno 17342 bound_to 10162
  140.3411  144.3203  150.5967 LP  0  0  0  0  0  0  0  0  0  0  0  0  # atno 17343 bound_to 10162
  157.4952  130.7846  149.7548 LP  0  0  0  0  0  0  0  0  0  0  0  0  # atno 17370 bound_to 10713
  155.9978  130.3898  150.2728 LP  0  0  0  0  0  0  0  0  0  0  0  0  # atno 17371 bound_to 10713
  139.8707  134.9736  156.4816 LP  0  0  0  0  0  0  0  0  0  0  0  0  # atno 17394 bound_to 11000
  140.8666  133.8019  155.9320 LP  0  0  0  0  0  0  0  0  0  0  0  0  # atno 17395 bound_to 11000

$$$$
