AV-unprocessed.smi:1702|AV-procd|sdf|6849|dock6
  -GOLD-   22720 8 23D 1   1.00000     0.00000
 Structure written by MMmdl.
 45 47  0  0  0  0  0  0  0  0  3 V2000
  146.2551  132.7064  153.0624 C   0  0  0  0  0  0  0  0  0  0  0  0
  146.9984  133.5622  154.0977 C   0  0  2  0  0  0  0  0  0  0  0  0
  146.4478  134.9970  154.1506 C   0  0  0  0  0  0  0  0  0  0  0  0
  147.2180  135.8537  155.1693 C   0  0  0  0  0  0  0  0  0  0  0  0
  148.6732  135.8725  154.8624 N   0  3  1  0  0  0  0  0  0  0  0  0
  149.4501  136.7839  155.7419 C   0  0  0  0  0  0  0  0  0  0  0  0
  149.6569  138.1886  155.1309 C   0  0  2  0  0  0  0  0  0  0  0  0
  149.8687  138.0615  153.7393 O   0  0  0  0  0  0  0  0  0  0  0  0
  150.8749  138.9380  155.7074 C   0  0  0  0  0  0  0  0  0  0  0  0
  150.5692  140.3206  156.1034 N   0  0  0  0  0  0  0  0  0  0  0  0
  149.7311  141.2212  155.5206 C   0  0  0  0  0  0  0  0  0  0  0  0
  149.7966  142.3733  156.2437 N   0  3  0  0  0  0  0  0  0  0  0  0
  150.6938  142.2105  157.3012 C   0  0  0  0  0  0  0  0  0  0  0  0
  151.0943  143.0933  158.2990 C   0  0  0  0  0  0  0  0  0  0  0  0
  152.0346  142.6120  159.2335 C   0  0  0  0  0  0  0  0  0  0  0  0
  152.4590  143.4302  160.2254 F   0  0  0  0  0  0  0  0  0  0  0  0
  152.5393  141.2970  159.1547 C   0  0  0  0  0  0  0  0  0  0  0  0
  153.4387  140.8730  160.0738 F   0  0  0  0  0  0  0  0  0  0  0  0
  152.1255  140.4108  158.1383 C   0  0  0  0  0  0  0  0  0  0  0  0
  151.1967  140.8945  157.2170 C   0  0  0  0  0  0  0  0  0  0  0  0
  149.2401  134.4991  154.8396 C   0  0  0  0  0  0  0  0  0  0  0  0
  148.5099  133.6111  153.8180 C   0  0  0  0  0  0  0  0  0  0  0  0
  146.3687  133.1109  152.0562 H   0  0  0  0  0  0  0  0  0  0  0  0
  145.1885  132.6611  153.2841 H   0  0  0  0  0  0  0  0  0  0  0  0
  146.6330  131.6836  153.0543 H   0  0  0  0  0  0  0  0  0  0  0  0
  146.8475  133.1034  155.0762 H   0  0  0  0  0  0  0  0  0  0  0  0
  146.5146  135.4570  153.1635 H   0  0  0  0  0  0  0  0  0  0  0  0
  145.3888  134.9809  154.4118 H   0  0  0  0  0  0  0  0  0  0  0  0
  146.8106  136.8636  155.1548 H   0  0  0  0  0  0  0  0  0  0  0  0
  147.0619  135.4661  156.1772 H   0  0  0  0  0  0  0  0  0  0  0  0
  148.9446  136.8478  156.7061 H   0  0  0  0  0  0  0  0  0  0  0  0
  150.4320  136.3520  155.9423 H   0  0  0  0  0  0  0  0  0  0  0  0
  148.7743  138.8093  155.2823 H   0  0  0  0  0  0  0  0  0  0  0  0
  149.3311  137.3591  153.4067 H   0  0  0  0  0  0  0  0  0  0  0  0
  151.3039  138.4026  156.5545 H   0  0  0  0  0  0  0  0  0  0  0  0
  151.6641  138.9933  154.9562 H   0  0  0  0  0  0  0  0  0  0  0  0
  149.1260  141.0544  154.6407 H   0  0  0  0  0  0  0  0  0  0  0  0
  150.7107  144.1012  158.3631 H   0  0  0  0  0  0  0  0  0  0  0  0
  152.5222  139.4077  158.0924 H   0  0  0  0  0  0  0  0  0  0  0  0
  150.2986  134.5414  154.5794 H   0  0  0  0  0  0  0  0  0  0  0  0
  149.1759  134.0594  155.8362 H   0  0  0  0  0  0  0  0  0  0  0  0
  148.9273  132.6037  153.8444 H   0  0  0  0  0  0  0  0  0  0  0  0
  148.6889  133.9923  152.8116 H   0  0  0  0  0  0  0  0  0  0  0  0
  148.7732  136.2287  153.9227 H   0  0  0  0  0  0  0  0  0  0  0  0
  149.2715  143.2106  156.0244 H   0  0  0  0  0  0  0  0  0  0  0  0
  1  2  1  0  0  0  0
  1 23  1  0  0  0  0
  1 24  1  0  0  0  0
  1 25  1  0  0  0  0
  2 22  1  0  0  0  0
  2  3  1  0  0  0  0
  2 26  1  0  0  0  0
  3  4  1  0  0  0  0
  3 27  1  0  0  0  0
  3 28  1  0  0  0  0
  4  5  1  0  0  0  0
  4 29  1  0  0  0  0
  4 30  1  0  0  0  0
  5  6  1  0  0  0  0
  5 21  1  0  0  0  0
  5 44  1  0  0  0  0
  6  7  1  0  0  0  0
  6 31  1  0  0  0  0
  6 32  1  0  0  0  0
  7  8  1  0  0  0  0
  7  9  1  0  0  0  0
  7 33  1  0  0  0  0
  8 34  1  0  0  0  0
  9 10  1  0  0  0  0
  9 35  1  0  0  0  0
  9 36  1  0  0  0  0
 10 20  1  0  0  0  0
 10 11  1  0  0  0  0
 11 12  2  0  0  0  0
 11 37  1  0  0  0  0
 12 13  1  0  0  0  0
 12 45  1  0  0  0  0
 13 20  2  0  0  0  0
 13 14  1  0  0  0  0
 14 15  2  0  0  0  0
 14 38  1  0  0  0  0
 15 16  1  0  0  0  0
 15 17  1  0  0  0  0
 17 18  1  0  0  0  0
 17 19  2  0  0  0  0
 19 20  1  0  0  0  0
 19 39  1  0  0  0  0
 21 22  1  0  0  0  0
 21 40  1  0  0  0  0
 21 41  1  0  0  0  0
 22 42  1  0  0  0  0
 22 43  1  0  0  0  0
M  CHG  1   5   1
M  CHG  1  12   1
M  END
> <s_m_source_file>
AV-unprocessed.smi

> <i_m_source_file_index>
1702

> <i_lp_mmshare_version>
43012

> <i_f3d_flags>
0

> <s_epik_input>
W0NIM11bQ0hdMVtDSDJdW0NIMl1OKFtDSDJdW0NIMl0xKVtDSDJdW0NASF0oW09IXSlbQ0gyXW4oW2NIXW4yKWMoYzIzKVtjSF1jKEYpYyhGKVtjSF0z

> <s_epik_cmdline>
J2VwaWtfcHl0aG9uJywgJy1waCcsICc3LjAnLCAnLXRuJywgJzgnLCAnLW1hJywgJzIwMCcsICctbWV0YWxfYmluZGluZycsICctaW1hZScsICc8aW5maWxlLm1hZT4nLCAnLW9tYWUnLCAnPG91dGZpbGUubWFlPic=

> <r_epik_Ionization_Penalty>
2.33291

> <r_epik_Ionization_Penalty_Charging>
2.33291

> <r_epik_Ionization_Penalty_Neutral>
6.90208e-07

> <r_epik_State_Penalty>
2.4838

> <r_epik_Charging_Adjusted_Penalty>
4.81672

> <i_epik_Tot_Q>
2

> <i_epik_Tot_abs_Q>
2

> <r_epik_Metal_State_Penalty>
6.56754

> <b_epik_Metal_Only>
0

> <s_lp_Force_Field>
OPLS_2005

> <r_lp_Energy>
33.9441

> <b_lp_Chiralities_Consistent>
1

> <s_lp_Variant>
AV-unprocessed.smi:1702-5

> <Gold.Version>
5.8.1

> <Gold.Id.Protein>
6NUR|6NUR_protein|mol2

> <Gold.PLP.Fitness>
56.4505

> <Gold.PLP.PLP>
-45.0105

> <Gold.PLP.part.hbond>
-4.2172

> <Gold.PLP.part.metal>
0.0000

> <Gold.PLP.part.buried>
-2.8477

> <Gold.PLP.part.nonpolar>
-37.2188

> <Gold.PLP.part.repulsive>
0.1587

> <Gold.PLP.ligand.clash>
0.0000

> <Gold.PLP.ligand.torsion>
1.7843

> <Gold.PLP.Chemscore.Hbond>
4.9913

> <Gold.PLP.Chemscore.CHOScore>
0.0000

> <Gold.PLP.Chemscore.Metal>
0.0000

> <Gold.Chemscore.Hbonds>
donor molecule, donor type, donor heavy atom, donor atom, acceptor molecule, acceptor atom, score
      L1  H     5    44       P1  7948  1.89
      L1  H     8    34       P1  7948  0.86
      L1  H    12    45       P1  8028  2.00

> <Gold.PLP.Chemscore.Internal.Correction>
0.0347

> <Gold.Rescore>
     Score         DG    S(hbond)    S(metal)    S(lipo)     H(rot)  DE(clash)    DE(int)     intcor
     16.60     -18.31       2.70        0.00      83.48       2.32       0.00       1.71       ----

> <Gold.Chemscore.Fitness>
16.6002

> <Gold.Chemscore.DG>
-18.3106

> <Gold.Chemscore.ZeroCoef>
-5.4800

> <Gold.Chemscore.Hbond>
2.6961

> <Gold.Chemscore.Metal>
0.0000

> <Gold.Chemscore.Lipo>
83.4815

> <Gold.Chemscore.Internal_Hbond>
0.0000

> <Gold.Chemscore.DEClash>
0.0000

> <Gold.Chemscore.DEInternal>
1.7104

> <Gold.Chemscore.Rot>
2.3210

> <Gold.Chemscore.Internal.Correction>
   9.000000E+99

> <Gold.Chemscore.Hbonds>
donor molecule, donor type, donor heavy atom, donor atom, acceptor molecule, acceptor atom, score
      L1  H     5    44       P1  7948  0.89
      L1  H     8    34       P1  7948  0.84
      L1  H    12    45       P1  8028  0.98

> <Gold.Chemscore.Hbond.Weighted>
-9.0049

> <Gold.Chemscore.Metal.Weighted>
-0.0000

> <Gold.Chemscore.Lipo.Weighted>
-9.7673

> <Gold.Chemscore.Internal_Hbond.Weighted>
0.0000

> <Gold.Chemscore.DEClash.Weighted>
0.0000

> <Gold.Chemscore.DEInternal.Weighted>
1.7104

> <Gold.Chemscore.Rot.Weighted>
5.9416

> <Gold.Chemscore.Internal.Correction.Weighted>
   9.000000E+99

> <Gold.Protein.RotatedTorsions>
[ 6907 6896 6895 6894 ] final  102.36 input  -60.11 | X-H torsion
[ 7974 7965 7964 7962 ] final  163.79 input  175.53 | X-H torsion
[ 8008 7997 7996 7995 ] final  114.88 input   59.86 | X-H torsion
[ 10167 10162 10161 10158 ] final  -82.95 input  -65.29 | X-H torsion
[ 10718 10713 10712 10709 ] final  122.81 input   66.30 | X-H torsion
[ 10763 10752 10751 10750 ] final  156.89 input  -60.55 | X-H torsion
[ 11005 11000 10999 10996 ] final  -70.58 input  -57.11 | X-H torsion

> <Gold.Protein.ActiveResidues>
 VAL166  LYS551  ARG553  GLY616  TRP617  ASP618  TYR619  PRO620  LYS621  CYS622 
 ASP623  PHE694  ASN695  SER759  ASP760  ASP761  ALA762  ILE779  LEU786  VAL792 
 PHE793  MET794  SER795  GLU796  ALA797  LYS798  CYS799  TRP800  GLU811  SER814 

> <Gold.Protein.RotatedAtoms>
  152.5326  133.9987  159.7884 H   0  0  0  0  0  0  0  0  0  0  0  0  # atno 6907 bound_to 6896
  151.0210  133.5869  159.2678 H   0  0  0  0  0  0  0  0  0  0  0  0  # atno 6908 bound_to 6896
  151.2909  135.0748  159.9257 H   0  0  0  0  0  0  0  0  0  0  0  0  # atno 6909 bound_to 6896
  144.7574  139.8233  143.6345 H   0  0  0  0  0  0  0  0  0  0  0  0  # atno 7974 bound_to 7965
  156.2348  140.2950  156.0284 H   0  0  0  0  0  0  0  0  0  0  0  0  # atno 8008 bound_to 7997
  155.2122  140.0413  157.2952 H   0  0  0  0  0  0  0  0  0  0  0  0  # atno 8009 bound_to 7997
  154.6059  140.2439  155.7738 H   0  0  0  0  0  0  0  0  0  0  0  0  # atno 8010 bound_to 7997
  140.4272  143.2562  151.8809 H   0  0  0  0  0  0  0  0  0  0  0  0  # atno 10167 bound_to 10162
  157.5714  131.1083  150.8361 H   0  0  0  0  0  0  0  0  0  0  0  0  # atno 10718 bound_to 10713
  154.1915  135.2794  155.3020 H   0  0  0  0  0  0  0  0  0  0  0  0  # atno 10763 bound_to 10752
  154.5925  135.5555  153.7296 H   0  0  0  0  0  0  0  0  0  0  0  0  # atno 10764 bound_to 10752
  153.0111  135.6372  154.2054 H   0  0  0  0  0  0  0  0  0  0  0  0  # atno 10765 bound_to 10752
  141.1576  133.6794  156.6774 H   0  0  0  0  0  0  0  0  0  0  0  0  # atno 11005 bound_to 11000
  146.1599  139.4710  142.9995 LP  0  0  0  0  0  0  0  0  0  0  0  0  # atno 17320 bound_to 7965
  145.6733  141.0210  143.1645 LP  0  0  0  0  0  0  0  0  0  0  0  0  # atno 17321 bound_to 7965
  139.4784  144.5374  151.8578 LP  0  0  0  0  0  0  0  0  0  0  0  0  # atno 17342 bound_to 10162
  140.4468  144.1910  150.5894 LP  0  0  0  0  0  0  0  0  0  0  0  0  # atno 17343 bound_to 10162
  156.8831  130.5186  149.5290 LP  0  0  0  0  0  0  0  0  0  0  0  0  # atno 17370 bound_to 10713
  156.0759  130.5781  150.9472 LP  0  0  0  0  0  0  0  0  0  0  0  0  # atno 17371 bound_to 10713
  140.3128  134.8072  157.4190 LP  0  0  0  0  0  0  0  0  0  0  0  0  # atno 17394 bound_to 11000
  140.1163  134.5278  155.8222 LP  0  0  0  0  0  0  0  0  0  0  0  0  # atno 17395 bound_to 11000

$$$$
