AV-unprocessed.smi:2922|AV-procd|sdf|11201|dock2
  -GOLD-   2272016 93D 1   1.00000     0.00000
 Structure written by MMmdl.
 30 31  0  0  0  0  0  0  0  0  1 V2000
  144.9676  138.9045  153.8565 N   0  0  0  0  0  0  0  0  0  0  0  0
  146.2445  138.9161  154.2504 C   0  0  0  0  0  0  0  0  0  0  0  0
  146.6377  138.2345  155.1950 O   0  0  0  0  0  0  0  0  0  0  0  0
  147.2141  139.8415  153.4935 C   0  0  1  0  0  0  0  0  0  0  0  0
  146.8277  141.3335  153.5487 C   0  0  0  0  0  0  0  0  0  0  0  0
  148.0346  142.0048  154.1823 C   0  0  0  0  0  0  0  0  0  0  0  0
  148.6706  140.8724  154.9792 C   0  0  2  0  0  0  0  0  0  0  0  0
  150.1528  141.1023  155.3127 C   0  0  0  0  0  0  0  0  0  0  0  0
  150.3600  142.3406  156.0515 N   0  0  0  0  0  0  0  0  0  0  0  0
  150.9814  142.4230  157.2846 C   0  0  0  0  0  0  0  0  0  0  0  0
  151.2844  141.2865  157.9243 N   0  0  0  0  0  0  0  0  0  0  0  0
  151.8819  141.3988  159.1305 C   0  0  0  0  0  0  0  0  0  0  0  0
  152.1780  142.6569  159.6913 C   0  0  0  0  0  0  0  0  0  0  0  0
  152.9385  142.8079  161.2323 Cl  0  0  0  0  0  0  0  0  0  0  0  0
  151.8196  143.7853  158.9271 C   0  0  0  0  0  0  0  0  0  0  0  0
  151.2205  143.6625  157.7219 N   0  0  0  0  0  0  0  0  0  0  0  0
  148.5110  139.7789  154.0870 O   0  0  0  0  0  0  0  0  0  0  0  0
  144.3010  138.3081  154.3252 H   0  0  0  0  0  0  0  0  0  0  0  0
  144.6771  139.4914  153.0877 H   0  0  0  0  0  0  0  0  0  0  0  0
  147.2882  139.4970  152.4616 H   0  0  0  0  0  0  0  0  0  0  0  0
  146.6186  141.7387  152.5582 H   0  0  0  0  0  0  0  0  0  0  0  0
  145.9452  141.5091  154.1657 H   0  0  0  0  0  0  0  0  0  0  0  0
  148.7182  142.3462  153.4034 H   0  0  0  0  0  0  0  0  0  0  0  0
  147.7687  142.8628  154.8004 H   0  0  0  0  0  0  0  0  0  0  0  0
  148.0933  140.6941  155.8887 H   0  0  0  0  0  0  0  0  0  0  0  0
  150.5681  140.2519  155.8549 H   0  0  0  0  0  0  0  0  0  0  0  0
  150.7209  141.1833  154.3859 H   0  0  0  0  0  0  0  0  0  0  0  0
  149.8306  143.1492  155.7590 H   0  0  0  0  0  0  0  0  0  0  0  0
  152.1227  140.4818  159.6479 H   0  0  0  0  0  0  0  0  0  0  0  0
  152.0109  144.7871  159.2819 H   0  0  0  0  0  0  0  0  0  0  0  0
  1  2  1  0  0  0  0
  1 18  1  0  0  0  0
  1 19  1  0  0  0  0
  2  3  2  0  0  0  0
  2  4  1  0  0  0  0
  4 17  1  0  0  0  0
  4  5  1  0  0  0  0
  4 20  1  0  0  0  0
  5  6  1  0  0  0  0
  5 21  1  0  0  0  0
  5 22  1  0  0  0  0
  6  7  1  0  0  0  0
  6 23  1  0  0  0  0
  6 24  1  0  0  0  0
  7  8  1  0  0  0  0
  7 17  1  0  0  0  0
  7 25  1  0  0  0  0
  8  9  1  0  0  0  0
  8 26  1  0  0  0  0
  8 27  1  0  0  0  0
  9 10  1  0  0  0  0
  9 28  1  0  0  0  0
 10 16  1  0  0  0  0
 10 11  2  0  0  0  0
 11 12  1  0  0  0  0
 12 13  2  0  0  0  0
 12 29  1  0  0  0  0
 13 14  1  0  0  0  0
 13 15  1  0  0  0  0
 15 16  2  0  0  0  0
 15 30  1  0  0  0  0
M  END
> <s_m_source_file>
AV-unprocessed.smi

> <i_m_source_file_index>
2922

> <i_lp_mmshare_version>
43012

> <i_f3d_flags>
0

> <s_epik_input>
W05IMl1DKD1PKVtDQEBIXTFbQ0gyXVtDSDJdW0NASF0oTzEpW0NIMl1bTkhdYzJuW2NIXWMoQ2wpW2NIXW4y

> <s_epik_cmdline>
J2VwaWtfcHl0aG9uJywgJy1waCcsICc3LjAnLCAnLXRuJywgJzgnLCAnLW1hJywgJzIwMCcsICctbWV0YWxfYmluZGluZycsICctaW1hZScsICc8aW5maWxlLm1hZT4nLCAnLW9tYWUnLCAnPG91dGZpbGUubWFlPic=

> <r_lp_tautomer_probability>
1

> <r_epik_Ionization_Penalty>
6.13883e-06

> <r_epik_Ionization_Penalty_Charging>
0

> <r_epik_Ionization_Penalty_Neutral>
6.13883e-06

> <r_epik_State_Penalty>
-0

> <r_epik_Charging_Adjusted_Penalty>
0

> <i_epik_Tot_Q>
0

> <i_epik_Tot_abs_Q>
0

> <r_epik_Metal_State_Penalty>
-0

> <b_epik_Metal_Only>
0

> <s_lp_Force_Field>
OPLS_2005

> <r_lp_Energy>
9.79995

> <b_lp_Chiralities_Consistent>
1

> <s_lp_Variant>
AV-unprocessed.smi:2922-4

> <Gold.Version>
5.8.1

> <Gold.Id.Protein>
6NUR|6NUR_protein|mol2

> <Gold.PLP.Fitness>
37.7097

> <Gold.PLP.PLP>
-31.7708

> <Gold.PLP.part.hbond>
-1.8306

> <Gold.PLP.part.metal>
0.0000

> <Gold.PLP.part.buried>
-3.3795

> <Gold.PLP.part.nonpolar>
-26.2007

> <Gold.PLP.part.repulsive>
0.4582

> <Gold.PLP.ligand.clash>
0.0000

> <Gold.PLP.ligand.torsion>
0.0506

> <Gold.PLP.Chemscore.Hbond>
2.0000

> <Gold.PLP.Chemscore.CHOScore>
0.0000

> <Gold.PLP.Chemscore.Metal>
0.0000

> <Gold.Chemscore.Hbonds>
donor molecule, donor type, donor heavy atom, donor atom, acceptor molecule, acceptor atom, score
      L1  H     1    19       P1 10175  0.98
      L1  H     9    28       P1  8028  1.00

> <Gold.PLP.Chemscore.Internal.Correction>
0.0400

> <Gold.Rescore>
     Score         DG    S(hbond)    S(metal)    S(lipo)     H(rot)  DE(clash)    DE(int)     intcor
     16.08     -16.30       1.99        0.00      77.57       1.91       0.16       0.06       ----

> <Gold.Chemscore.Fitness>
16.0791

> <Gold.Chemscore.DG>
-16.2966

> <Gold.Chemscore.ZeroCoef>
-5.4800

> <Gold.Chemscore.Hbond>
1.9883

> <Gold.Chemscore.Metal>
0.0000

> <Gold.Chemscore.Lipo>
77.5724

> <Gold.Chemscore.Internal_Hbond>
0.0000

> <Gold.Chemscore.DEClash>
0.1617

> <Gold.Chemscore.DEInternal>
0.0558

> <Gold.Chemscore.Rot>
1.9142

> <Gold.Chemscore.Internal.Correction>
   9.000000E+99

> <Gold.Chemscore.Hbonds>
donor molecule, donor type, donor heavy atom, donor atom, acceptor molecule, acceptor atom, score
      L1  H     1    19       P1 10175  0.87
      L1  H     9    28       P1  8028  1.00

> <Gold.Chemscore.Hbond.Weighted>
-6.6409

> <Gold.Chemscore.Metal.Weighted>
-0.0000

> <Gold.Chemscore.Lipo.Weighted>
-9.0760

> <Gold.Chemscore.Internal_Hbond.Weighted>
0.0000

> <Gold.Chemscore.DEClash.Weighted>
0.1617

> <Gold.Chemscore.DEInternal.Weighted>
0.0558

> <Gold.Chemscore.Rot.Weighted>
4.9002

> <Gold.Chemscore.Internal.Correction.Weighted>
   9.000000E+99

> <Gold.Protein.RotatedTorsions>
[ 6907 6896 6895 6894 ] final -111.47 input  -60.11 | X-H torsion
[ 7974 7965 7964 7962 ] final -120.46 input  175.53 | X-H torsion
[ 8008 7997 7996 7995 ] final   29.06 input   59.86 | X-H torsion
[ 10167 10162 10161 10158 ] final  -94.52 input  -65.29 | X-H torsion
[ 10718 10713 10712 10709 ] final -170.05 input   66.30 | X-H torsion
[ 10763 10752 10751 10750 ] final   26.35 input  -60.55 | X-H torsion
[ 11005 11000 10999 10996 ] final   -7.99 input  -57.11 | X-H torsion

> <Gold.Protein.ActiveResidues>
 VAL166  LYS551  ARG553  GLY616  TRP617  ASP618  TYR619  PRO620  LYS621  CYS622 
 ASP623  PHE694  ASN695  SER759  ASP760  ASP761  ALA762  ILE779  LEU786  VAL792 
 PHE793  MET794  SER795  GLU796  ALA797  LYS798  CYS799  TRP800  GLU811  SER814 

> <Gold.Protein.RotatedAtoms>
  150.7693  133.9230  159.3403 H   0  0  0  0  0  0  0  0  0  0  0  0  # atno 6907 bound_to 6896
  151.7120  135.0909  160.0279 H   0  0  0  0  0  0  0  0  0  0  0  0  # atno 6908 bound_to 6896
  152.3703  133.6372  159.6118 H   0  0  0  0  0  0  0  0  0  0  0  0  # atno 6909 bound_to 6896
  145.0511  140.8219  143.4209 H   0  0  0  0  0  0  0  0  0  0  0  0  # atno 7974 bound_to 7965
  155.0685  140.3198  155.4638 H   0  0  0  0  0  0  0  0  0  0  0  0  # atno 8008 bound_to 7997
  156.2796  140.2116  156.5757 H   0  0  0  0  0  0  0  0  0  0  0  0  # atno 8009 bound_to 7997
  154.7074  140.0501  157.0504 H   0  0  0  0  0  0  0  0  0  0  0  0  # atno 8010 bound_to 7997
  140.3136  143.3090  152.0122 H   0  0  0  0  0  0  0  0  0  0  0  0  # atno 10167 bound_to 10162
  156.7204  130.9268  151.3097 H   0  0  0  0  0  0  0  0  0  0  0  0  # atno 10718 bound_to 10713
  153.0628  135.6562  154.0422 H   0  0  0  0  0  0  0  0  0  0  0  0  # atno 10763 bound_to 10752
  154.0086  135.2930  155.3396 H   0  0  0  0  0  0  0  0  0  0  0  0  # atno 10764 bound_to 10752
  154.6974  135.5258  153.8546 H   0  0  0  0  0  0  0  0  0  0  0  0  # atno 10765 bound_to 10752
  140.7187  133.8847  155.8804 H   0  0  0  0  0  0  0  0  0  0  0  0  # atno 11005 bound_to 11000
  145.1526  139.2505  143.5433 LP  0  0  0  0  0  0  0  0  0  0  0  0  # atno 17320 bound_to 7965
  146.3518  140.1233  142.8599 LP  0  0  0  0  0  0  0  0  0  0  0  0  # atno 17321 bound_to 7965
  139.4888  144.6366  151.6963 LP  0  0  0  0  0  0  0  0  0  0  0  0  # atno 17342 bound_to 10162
  140.5546  144.0368  150.6142 LP  0  0  0  0  0  0  0  0  0  0  0  0  # atno 17343 bound_to 10162
  157.6900  130.9224  150.0488 LP  0  0  0  0  0  0  0  0  0  0  0  0  # atno 17370 bound_to 10713
  156.1598  130.3643  149.9316 LP  0  0  0  0  0  0  0  0  0  0  0  0  # atno 17371 bound_to 10713
  141.0022  134.1134  157.4305 LP  0  0  0  0  0  0  0  0  0  0  0  0  # atno 17394 bound_to 11000
  139.8853  135.0071  156.6428 LP  0  0  0  0  0  0  0  0  0  0  0  0  # atno 17395 bound_to 11000

$$$$
