AV-unprocessed.smi:1424|AV-procd|sdf|5800|dock9
  -GOLD-   22720 5453D 1   1.00000     0.00000
 Structure written by MMmdl.
 45 47  0  0  0  0  0  0  0  0  1 V2000
  145.3813  138.6586  154.2395 O   0  0  0  0  0  0  0  0  0  0  0  0
  146.0209  137.8968  153.5149 C   0  0  0  0  0  0  0  0  0  0  0  0
  147.2949  138.1131  153.1625 N   0  0  0  0  0  0  0  0  0  0  0  0
  148.0737  139.2748  153.5720 C   0  0  0  0  0  0  0  0  0  0  0  0
  149.1374  138.8942  154.6162 C   0  0  1  0  0  0  0  0  0  0  0  0
  150.0727  137.7749  154.1187 C   0  0  0  0  0  0  0  0  0  0  0  0
  151.2473  137.6514  155.0935 C   0  0  0  0  0  0  0  0  0  0  0  0
  151.5862  139.3556  155.6698 S   0  0  0  0  0  0  0  0  0  0  0  0
  151.5979  139.3712  157.1404 O   0  0  0  0  0  0  0  0  0  0  0  0
  152.7032  139.9205  154.8975 O   0  0  0  0  0  0  0  0  0  0  0  0
  150.0154  140.0788  155.0582 C   0  0  0  0  0  0  0  0  0  0  0  0
  145.5603  136.7493  152.9886 N   0  0  0  0  0  0  0  0  0  0  0  0
  144.2710  136.1564  153.1232 C   0  0  0  0  0  0  0  0  0  0  0  0
  143.2502  136.6975  153.9430 C   0  0  0  0  0  0  0  0  0  0  0  0
  142.0004  136.0543  153.9977 C   0  0  0  0  0  0  0  0  0  0  0  0
  141.8097  134.8955  153.2244 C   0  0  0  0  0  0  0  0  0  0  0  0
  142.7653  134.3746  152.4284 N   0  0  0  0  0  0  0  0  0  0  0  0
  143.9716  134.9904  152.3719 C   0  0  0  0  0  0  0  0  0  0  0  0
  144.9503  134.4306  151.5312 N   0  0  0  0  0  0  0  0  0  0  0  0
  146.1230  133.8938  152.2006 C   0  0  0  0  0  0  0  0  0  0  0  0
  146.8375  133.0514  151.1424 C   0  0  0  0  0  0  0  0  0  0  0  0
  145.7409  132.6701  150.1400 C   0  0  0  0  0  0  0  0  0  0  0  0
  144.4804  133.3843  150.6382 C   0  0  0  0  0  0  0  0  0  0  0  0
  147.7536  137.4348  152.5720 H   0  0  0  0  0  0  0  0  0  0  0  0
  148.5561  139.7081  152.6944 H   0  0  0  0  0  0  0  0  0  0  0  0
  147.4030  140.0351  153.9756 H   0  0  0  0  0  0  0  0  0  0  0  0
  148.6282  138.5145  155.5037 H   0  0  0  0  0  0  0  0  0  0  0  0
  149.5462  136.8263  154.0092 H   0  0  0  0  0  0  0  0  0  0  0  0
  150.4595  138.0406  153.1337 H   0  0  0  0  0  0  0  0  0  0  0  0
  150.9684  137.0514  155.9599 H   0  0  0  0  0  0  0  0  0  0  0  0
  152.1393  137.2192  154.6401 H   0  0  0  0  0  0  0  0  0  0  0  0
  150.2550  140.7271  154.2147 H   0  0  0  0  0  0  0  0  0  0  0  0
  149.5533  140.6836  155.8384 H   0  0  0  0  0  0  0  0  0  0  0  0
  146.2341  136.1931  152.4826 H   0  0  0  0  0  0  0  0  0  0  0  0
  143.3927  137.5985  154.5183 H   0  0  0  0  0  0  0  0  0  0  0  0
  141.2045  136.4442  154.6148 H   0  0  0  0  0  0  0  0  0  0  0  0
  140.8628  134.3765  153.2406 H   0  0  0  0  0  0  0  0  0  0  0  0
  146.7618  134.6931  152.5776 H   0  0  0  0  0  0  0  0  0  0  0  0
  145.8322  133.2668  153.0446 H   0  0  0  0  0  0  0  0  0  0  0  0
  147.6036  133.6464  150.6436 H   0  0  0  0  0  0  0  0  0  0  0  0
  147.3256  132.1804  151.5803 H   0  0  0  0  0  0  0  0  0  0  0  0
  146.0099  133.0178  149.1418 H   0  0  0  0  0  0  0  0  0  0  0  0
  145.5892  131.5916  150.0862 H   0  0  0  0  0  0  0  0  0  0  0  0
  143.8378  132.6832  151.1729 H   0  0  0  0  0  0  0  0  0  0  0  0
  143.9053  133.8047  149.8127 H   0  0  0  0  0  0  0  0  0  0  0  0
  1  2  2  0  0  0  0
  2  3  1  0  0  0  0
  2 12  1  0  0  0  0
  3  4  1  0  0  0  0
  3 24  1  0  0  0  0
  4  5  1  0  0  0  0
  4 25  1  0  0  0  0
  4 26  1  0  0  0  0
  5 11  1  0  0  0  0
  5  6  1  0  0  0  0
  5 27  1  0  0  0  0
  6  7  1  0  0  0  0
  6 28  1  0  0  0  0
  6 29  1  0  0  0  0
  7  8  1  0  0  0  0
  7 30  1  0  0  0  0
  7 31  1  0  0  0  0
  8  9  2  0  0  0  0
  8 10  2  0  0  0  0
  8 11  1  0  0  0  0
 11 32  1  0  0  0  0
 11 33  1  0  0  0  0
 12 13  1  0  0  0  0
 12 34  1  0  0  0  0
 13 18  1  0  0  0  0
 13 14  2  0  0  0  0
 14 15  1  0  0  0  0
 14 35  1  0  0  0  0
 15 16  2  0  0  0  0
 15 36  1  0  0  0  0
 16 17  1  0  0  0  0
 16 37  1  0  0  0  0
 17 18  2  0  0  0  0
 18 19  1  0  0  0  0
 19 23  1  0  0  0  0
 19 20  1  0  0  0  0
 20 21  1  0  0  0  0
 20 38  1  0  0  0  0
 20 39  1  0  0  0  0
 21 22  1  0  0  0  0
 21 40  1  0  0  0  0
 21 41  1  0  0  0  0
 22 23  1  0  0  0  0
 22 42  1  0  0  0  0
 22 43  1  0  0  0  0
 23 44  1  0  0  0  0
 23 45  1  0  0  0  0
M  END
> <s_m_source_file>
AV-unprocessed.smi

> <i_m_source_file_index>
1424

> <i_lp_mmshare_version>
43012

> <i_f3d_flags>
0

> <s_epik_input>
Tz1TMSg9TylbQ0gyXVtDSDJdW0NASF0oW0NIMl0xKVtDSDJdW05IXUMoPU8pW05IXWMyW2NIXVtjSF1bY0hdbmMyTjNbQ0gyXVtDSDJdW0NIMl1bQ0gyXTM=

> <s_epik_cmdline>
J2VwaWtfcHl0aG9uJywgJy1waCcsICc3LjAnLCAnLXRuJywgJzgnLCAnLW1hJywgJzIwMCcsICctbWV0YWxfYmluZGluZycsICctaW1hZScsICc8aW5maWxlLm1hZT4nLCAnLW9tYWUnLCAnPG91dGZpbGUubWFlPic=

> <r_lp_tautomer_probability>
1

> <r_epik_Ionization_Penalty>
0.0965651

> <r_epik_Ionization_Penalty_Charging>
0

> <r_epik_Ionization_Penalty_Neutral>
0.0965651

> <r_epik_State_Penalty>
0.0861592

> <r_epik_Charging_Adjusted_Penalty>
0.0861592

> <i_epik_Tot_Q>
0

> <i_epik_Tot_abs_Q>
0

> <r_epik_Metal_State_Penalty>
0.0740444

> <b_epik_Metal_Only>
0

> <s_lp_Force_Field>
OPLS_2005

> <r_lp_Energy>
37.4342

> <b_lp_Chiralities_Consistent>
1

> <s_lp_Variant>
AV-unprocessed.smi:1424-2

> <Gold.Version>
5.8.1

> <Gold.Id.Protein>
6NUR|6NUR_protein|mol2

> <Gold.PLP.Fitness>
39.2278

> <Gold.PLP.PLP>
-32.1625

> <Gold.PLP.part.hbond>
-3.0000

> <Gold.PLP.part.metal>
0.0000

> <Gold.PLP.part.buried>
-1.5418

> <Gold.PLP.part.nonpolar>
-28.4707

> <Gold.PLP.part.repulsive>
0.9197

> <Gold.PLP.ligand.clash>
0.0000

> <Gold.PLP.ligand.torsion>
0.2038

> <Gold.PLP.Chemscore.Hbond>
2.4800

> <Gold.PLP.Chemscore.CHOScore>
0.0000

> <Gold.PLP.Chemscore.Metal>
0.0000

> <Gold.Chemscore.Hbonds>
donor molecule, donor type, donor heavy atom, donor atom, acceptor molecule, acceptor atom, score
      L1  H     3    24       P1  7948  1.00
      P1  H  7989  7998       L1    10  0.48
      P1  H  7997  8009       L1    10  1.00

> <Gold.PLP.Chemscore.Internal.Correction>
0.0329

> <Gold.Rescore>
     Score         DG    S(hbond)    S(metal)    S(lipo)     H(rot)  DE(clash)    DE(int)     intcor
     15.41     -17.21       2.03        0.00      74.65       1.47       0.18       1.63       ----

> <Gold.Chemscore.Fitness>
15.4092

> <Gold.Chemscore.DG>
-17.2136

> <Gold.Chemscore.ZeroCoef>
-5.4800

> <Gold.Chemscore.Hbond>
2.0281

> <Gold.Chemscore.Metal>
0.0000

> <Gold.Chemscore.Lipo>
74.6518

> <Gold.Chemscore.Internal_Hbond>
0.0000

> <Gold.Chemscore.DEClash>
0.1771

> <Gold.Chemscore.DEInternal>
1.6272

> <Gold.Chemscore.Rot>
1.4744

> <Gold.Chemscore.Internal.Correction>
   9.000000E+99

> <Gold.Chemscore.Hbonds>
donor molecule, donor type, donor heavy atom, donor atom, acceptor molecule, acceptor atom, score
      L1  H     3    24       P1  7948  1.00
      P1  H  7989  7998       L1    10  0.12
      P1  H  7997  8009       L1    10  0.90

> <Gold.Chemscore.Hbond.Weighted>
-6.7738

> <Gold.Chemscore.Metal.Weighted>
-0.0000

> <Gold.Chemscore.Lipo.Weighted>
-8.7343

> <Gold.Chemscore.Internal_Hbond.Weighted>
0.0000

> <Gold.Chemscore.DEClash.Weighted>
0.1771

> <Gold.Chemscore.DEInternal.Weighted>
1.6272

> <Gold.Chemscore.Rot.Weighted>
3.7744

> <Gold.Chemscore.Internal.Correction.Weighted>
   9.000000E+99

> <Gold.Protein.RotatedTorsions>
[ 6907 6896 6895 6894 ] final  119.54 input  -60.11 | X-H torsion
[ 7974 7965 7964 7962 ] final   63.74 input  175.53 | X-H torsion
[ 8008 7997 7996 7995 ] final -133.09 input   59.86 | X-H torsion
[ 10167 10162 10161 10158 ] final   32.55 input  -65.29 | X-H torsion
[ 10718 10713 10712 10709 ] final  134.21 input   66.30 | X-H torsion
[ 10763 10752 10751 10750 ] final  -98.52 input  -60.55 | X-H torsion
[ 11005 11000 10999 10996 ] final   99.18 input  -57.11 | X-H torsion

> <Gold.Protein.ActiveResidues>
 VAL166  LYS551  ARG553  GLY616  TRP617  ASP618  TYR619  PRO620  LYS621  CYS622 
 ASP623  PHE694  ASN695  SER759  ASP760  ASP761  ALA762  ILE779  LEU786  VAL792 
 PHE793  MET794  SER795  GLU796  ALA797  LYS798  CYS799  TRP800  GLU811  SER814 

> <Gold.Protein.RotatedAtoms>
  152.4464  133.7544  159.6711 H   0  0  0  0  0  0  0  0  0  0  0  0  # atno 6907 bound_to 6896
  150.8365  133.7995  159.3084 H   0  0  0  0  0  0  0  0  0  0  0  0  # atno 6908 bound_to 6896
  151.5633  135.1067  160.0029 H   0  0  0  0  0  0  0  0  0  0  0  0  # atno 6909 bound_to 6896
  145.8583  139.3298  143.0834 H   0  0  0  0  0  0  0  0  0  0  0  0  # atno 7974 bound_to 7965
  155.3398  140.0471  157.3044 H   0  0  0  0  0  0  0  0  0  0  0  0  # atno 8008 bound_to 7997
  154.5283  140.2248  155.8814 H   0  0  0  0  0  0  0  0  0  0  0  0  # atno 8009 bound_to 7997
  156.1762  140.3084  155.9070 H   0  0  0  0  0  0  0  0  0  0  0  0  # atno 8010 bound_to 7997
  140.4488  144.1079  150.6187 H   0  0  0  0  0  0  0  0  0  0  0  0  # atno 10167 bound_to 10162
  157.4696  131.1079  150.9819 H   0  0  0  0  0  0  0  0  0  0  0  0  # atno 10718 bound_to 10713
  154.7421  135.5006  153.9140 H   0  0  0  0  0  0  0  0  0  0  0  0  # atno 10763 bound_to 10752
  153.1054  135.6696  153.9605 H   0  0  0  0  0  0  0  0  0  0  0  0  # atno 10764 bound_to 10752
  153.9379  135.3071  155.3423 H   0  0  0  0  0  0  0  0  0  0  0  0  # atno 10765 bound_to 10752
  139.8771  134.9083  156.4567 H   0  0  0  0  0  0  0  0  0  0  0  0  # atno 11005 bound_to 11000
  145.9277  140.9070  143.0372 LP  0  0  0  0  0  0  0  0  0  0  0  0  # atno 17320 bound_to 7965
  144.6727  140.1376  143.7439 LP  0  0  0  0  0  0  0  0  0  0  0  0  # atno 17321 bound_to 7965
  140.4232  143.2602  151.9689 LP  0  0  0  0  0  0  0  0  0  0  0  0  # atno 17342 bound_to 10162
  139.4795  144.5812  151.7929 LP  0  0  0  0  0  0  0  0  0  0  0  0  # atno 17343 bound_to 10162
  157.0589  130.5817  149.5382 LP  0  0  0  0  0  0  0  0  0  0  0  0  # atno 17370 bound_to 10713
  156.0067  130.5154  150.7853 LP  0  0  0  0  0  0  0  0  0  0  0  0  # atno 17371 bound_to 10713
  140.8893  133.7860  155.9554 LP  0  0  0  0  0  0  0  0  0  0  0  0  # atno 17394 bound_to 11000
  140.8770  134.2657  157.5163 LP  0  0  0  0  0  0  0  0  0  0  0  0  # atno 17395 bound_to 11000

$$$$
