AV-unprocessed.smi:103|AV-procd|sdf|981|dock7
  -GOLD-   2262017543D 1   1.00000     0.00000
 Structure written by MMmdl.
 53 55  0  0  0  0  0  0  0  0  1 V2000
  147.5919  136.0915  162.5384 C   0  0  0  0  0  0  0  0  0  0  0  0
  147.5973  136.6423  161.1186 C   0  0  0  0  0  0  0  0  0  0  0  0
  147.0714  137.7226  160.8506 O   0  0  0  0  0  0  0  0  0  0  0  0
  148.2306  135.8293  160.2552 O   0  0  0  0  0  0  0  0  0  0  0  0
  148.1181  136.0321  158.8537 C   0  0  0  0  0  0  0  0  0  0  0  0
  149.5122  136.0310  158.2066 C   0  0  2  0  0  0  0  0  0  0  0  0
  150.2551  137.1737  158.6180 O   0  0  0  0  0  0  0  0  0  0  0  0
  150.1079  138.1755  157.6734 C   0  0  1  0  0  0  0  0  0  0  0  0
  151.1948  139.2048  157.8870 N   0  0  0  0  0  0  0  0  0  0  0  0
  152.4743  139.0130  158.3902 C   0  0  0  0  0  0  0  0  0  0  0  0
  153.2258  137.4762  158.9374 S   0  0  0  0  0  0  0  0  0  0  0  0
  152.7832  136.3041  157.5906 C   0  0  0  0  0  0  0  0  0  0  0  0
  154.6814  137.6759  158.9634 O   0  0  0  0  0  0  0  0  0  0  0  0
  152.5167  137.0691  160.1611 O   0  0  0  0  0  0  0  0  0  0  0  0
  153.2159  140.0755  158.5382 N   0  0  0  0  0  0  0  0  0  0  0  0
  152.3962  141.1011  158.1061 C   0  0  0  0  0  0  0  0  0  0  0  0
  152.5646  142.5051  158.0019 C   0  0  0  0  0  0  0  0  0  0  0  0
  153.6991  143.1321  158.3419 N   0  0  0  0  0  0  0  0  0  0  0  0
  151.5335  143.2496  157.5433 N   0  0  0  0  0  0  0  0  0  0  0  0
  150.3913  142.6471  157.2061 C   0  0  0  0  0  0  0  0  0  0  0  0
  150.0918  141.3474  157.2511 N   0  0  0  0  0  0  0  0  0  0  0  0
  151.1299  140.5830  157.7052 C   0  0  0  0  0  0  0  0  0  0  0  0
  150.1445  137.4380  156.3344 C   0  0  2  0  0  0  0  0  0  0  0  0
  149.4340  138.1757  155.3474 O   0  0  0  0  0  0  0  0  0  0  0  0
  150.0831  139.0504  154.5596 C   0  0  0  0  0  0  0  0  0  0  0  0
  149.1319  139.9822  153.8212 C   0  0  0  0  0  0  0  0  0  0  0  0
  151.3032  139.1330  154.4189 O   0  0  0  0  0  0  0  0  0  0  0  0
  149.4251  136.1381  156.6743 C   0  0  1  0  0  0  0  0  0  0  0  0
  150.0884  135.0550  156.0352 O   0  0  0  0  0  0  0  0  0  0  0  0
  149.7038  133.7903  156.2729 C   0  0  0  0  0  0  0  0  0  0  0  0
  150.2159  132.8211  155.2162 C   0  0  0  0  0  0  0  0  0  0  0  0
  149.0198  133.4069  157.2219 O   0  0  0  0  0  0  0  0  0  0  0  0
  148.4681  136.4470  163.0809 H   0  0  0  0  0  0  0  0  0  0  0  0
  147.6074  135.0013  162.5300 H   0  0  0  0  0  0  0  0  0  0  0  0
  146.6988  136.4193  163.0703 H   0  0  0  0  0  0  0  0  0  0  0  0
  147.5340  135.2029  158.4538 H   0  0  0  0  0  0  0  0  0  0  0  0
  147.5759  136.9428  158.5956 H   0  0  0  0  0  0  0  0  0  0  0  0
  150.0552  135.1340  158.5079 H   0  0  0  0  0  0  0  0  0  0  0  0
  149.1733  138.7135  157.8286 H   0  0  0  0  0  0  0  0  0  0  0  0
  153.1378  135.3077  157.8527 H   0  0  0  0  0  0  0  0  0  0  0  0
  153.2490  136.6102  156.6567 H   0  0  0  0  0  0  0  0  0  0  0  0
  151.7006  136.2825  157.4696 H   0  0  0  0  0  0  0  0  0  0  0  0
  154.4831  142.5994  158.6909 H   0  0  0  0  0  0  0  0  0  0  0  0
  153.7695  144.1347  158.2450 H   0  0  0  0  0  0  0  0  0  0  0  0
  149.6057  143.2965  156.8491 H   0  0  0  0  0  0  0  0  0  0  0  0
  151.1806  137.2275  156.0685 H   0  0  0  0  0  0  0  0  0  0  0  0
  148.6467  140.6592  154.5243 H   0  0  0  0  0  0  0  0  0  0  0  0
  148.3631  139.4082  153.3036 H   0  0  0  0  0  0  0  0  0  0  0  0
  149.6730  140.5769  153.0852 H   0  0  0  0  0  0  0  0  0  0  0  0
  148.3825  136.2041  156.3569 H   0  0  0  0  0  0  0  0  0  0  0  0
  149.7361  133.0204  154.2576 H   0  0  0  0  0  0  0  0  0  0  0  0
  150.0014  131.7918  155.5038 H   0  0  0  0  0  0  0  0  0  0  0  0
  151.2939  132.9277  155.0934 H   0  0  0  0  0  0  0  0  0  0  0  0
  1  2  1  0  0  0  0
  1 33  1  0  0  0  0
  1 34  1  0  0  0  0
  1 35  1  0  0  0  0
  2  3  2  0  0  0  0
  2  4  1  0  0  0  0
  4  5  1  0  0  0  0
  5  6  1  0  0  0  0
  5 36  1  0  0  0  0
  5 37  1  0  0  0  0
  6 28  1  0  0  0  0
  6  7  1  0  0  0  0
  6 38  1  0  0  0  0
  7  8  1  0  0  0  0
  8  9  1  0  0  0  0
  8 23  1  0  0  0  0
  8 39  1  0  0  0  0
  9 22  1  0  0  0  0
  9 10  1  0  0  0  0
 10 11  1  0  0  0  0
 10 15  2  0  0  0  0
 11 12  1  0  0  0  0
 11 13  2  0  0  0  0
 11 14  2  0  0  0  0
 12 40  1  0  0  0  0
 12 41  1  0  0  0  0
 12 42  1  0  0  0  0
 15 16  1  0  0  0  0
 16 22  2  0  0  0  0
 16 17  1  0  0  0  0
 17 18  1  0  0  0  0
 17 19  2  0  0  0  0
 18 43  1  0  0  0  0
 18 44  1  0  0  0  0
 19 20  1  0  0  0  0
 20 21  2  0  0  0  0
 20 45  1  0  0  0  0
 21 22  1  0  0  0  0
 23 24  1  0  0  0  0
 23 28  1  0  0  0  0
 23 46  1  0  0  0  0
 24 25  1  0  0  0  0
 25 26  1  0  0  0  0
 25 27  2  0  0  0  0
 26 47  1  0  0  0  0
 26 48  1  0  0  0  0
 26 49  1  0  0  0  0
 28 29  1  0  0  0  0
 28 50  1  0  0  0  0
 29 30  1  0  0  0  0
 30 31  1  0  0  0  0
 30 32  2  0  0  0  0
 31 51  1  0  0  0  0
 31 52  1  0  0  0  0
 31 53  1  0  0  0  0
M  END
> <s_m_source_file>
AV-unprocessed.smi

> <i_m_source_file_index>
103

> <i_lp_mmshare_version>
43012

> <i_f3d_flags>
0

> <s_epik_input>
W0NIM11DKD1PKU9bQ0gyXVtDQEBIXTFPW0NASF0oW0NAQEhdKE9DKD1PKVtDSDNdKVtDQEhdMU9DKD1PKVtDSDNdKW4oYyhuMilTKD1PKSg9TylbQ0gzXSljKGMyMyluW2NIXW5jM1tOSDJd

> <s_epik_cmdline>
J2VwaWtfcHl0aG9uJywgJy1waCcsICc3LjAnLCAnLXRuJywgJzgnLCAnLW1hJywgJzIwMCcsICctbWV0YWxfYmluZGluZycsICctaW1hZScsICc8aW5maWxlLm1hZT4nLCAnLW9tYWUnLCAnPG91dGZpbGUubWFlPic=

> <r_lp_tautomer_probability>
1

> <r_epik_Ionization_Penalty>
1.51338e-05

> <r_epik_Ionization_Penalty_Charging>
0

> <r_epik_Ionization_Penalty_Neutral>
1.51338e-05

> <r_epik_State_Penalty>
-0

> <r_epik_Charging_Adjusted_Penalty>
0

> <i_epik_Tot_Q>
0

> <i_epik_Tot_abs_Q>
0

> <r_epik_Metal_State_Penalty>
-0

> <b_epik_Metal_Only>
0

> <s_epik_Chemistry_Notes>
This compound has an ester and may undergo hydrolysis at high or low pH. This compound contains an acetal/aminal-like group ( X-CH(R)-Y where X, Y are N, S, or O) that may be acid/base labile, releasing an aldehyde.

> <s_lp_Force_Field>
OPLS_2005

> <r_lp_Energy>
16.7775

> <b_lp_Chiralities_Consistent>
1

> <s_lp_Variant>
AV-unprocessed.smi:103-5

> <Gold.Version>
5.8.1

> <Gold.Id.Protein>
6NUR|6NUR_protein|mol2

> <Gold.PLP.Fitness>
47.0665

> <Gold.PLP.PLP>
-38.6546

> <Gold.PLP.part.hbond>
-4.0418

> <Gold.PLP.part.metal>
0.0000

> <Gold.PLP.part.buried>
-7.7790

> <Gold.PLP.part.nonpolar>
-26.7363

> <Gold.PLP.part.repulsive>
0.3497

> <Gold.PLP.ligand.clash>
0.0000

> <Gold.PLP.ligand.torsion>
3.0893

> <Gold.PLP.Chemscore.Hbond>
3.0879

> <Gold.PLP.Chemscore.CHOScore>
1.0544

> <Gold.PLP.Chemscore.Metal>
0.0000

> <Gold.Chemscore.Hbonds>
donor molecule, donor type, donor heavy atom, donor atom, acceptor molecule, acceptor atom, score
      P1  H  6896  6908       L1    14  0.94
      P1  H  6934  6947       L1     3  0.44
      P1  H  7989  7998       L1    27  1.00
      P1  H  7997  8009       L1    15  0.01
      L1  C    20    45       P1  8028  0.88

> <Gold.PLP.Chemscore.Internal.Correction>
2.1634

> <Gold.Rescore>
     Score         DG    S(hbond)    S(metal)    S(lipo)     H(rot)  DE(clash)    DE(int)     intcor
      5.29      -9.83       2.97        0.00      45.20       4.25       0.00       4.54       ----

> <Gold.Chemscore.Fitness>
5.2882

> <Gold.Chemscore.DG>
-9.8283

> <Gold.Chemscore.ZeroCoef>
-5.4800

> <Gold.Chemscore.Hbond>
2.9725

> <Gold.Chemscore.Metal>
0.0000

> <Gold.Chemscore.Lipo>
45.2038

> <Gold.Chemscore.Internal_Hbond>
0.0000

> <Gold.Chemscore.DEClash>
0.0000

> <Gold.Chemscore.DEInternal>
4.5401

> <Gold.Chemscore.Rot>
4.2456

> <Gold.Chemscore.Internal.Correction>
   9.000000E+99

> <Gold.Chemscore.Hbonds>
donor molecule, donor type, donor heavy atom, donor atom, acceptor molecule, acceptor atom, score
      P1  H  6896  6908       L1    14  0.71
      P1  H  6934  6947       L1     3  0.43
      P1  H  7989  7998       L1    27  0.58

> <Gold.Chemscore.Hbond.Weighted>
-9.9281

> <Gold.Chemscore.Metal.Weighted>
-0.0000

> <Gold.Chemscore.Lipo.Weighted>
-5.2888

> <Gold.Chemscore.Internal_Hbond.Weighted>
0.0000

> <Gold.Chemscore.DEClash.Weighted>
0.0000

> <Gold.Chemscore.DEInternal.Weighted>
4.5401

> <Gold.Chemscore.Rot.Weighted>
10.8687

> <Gold.Chemscore.Internal.Correction.Weighted>
   9.000000E+99

> <Gold.Protein.RotatedTorsions>
[ 6907 6896 6895 6894 ] final -100.54 input  -60.11 | X-H torsion
[ 7974 7965 7964 7962 ] final  177.41 input  175.53 | X-H torsion
[ 8008 7997 7996 7995 ] final -163.85 input   59.86 | X-H torsion
[ 10167 10162 10161 10158 ] final -118.63 input  -65.29 | X-H torsion
[ 10718 10713 10712 10709 ] final   76.18 input   66.30 | X-H torsion
[ 10763 10752 10751 10750 ] final -122.61 input  -60.55 | X-H torsion
[ 11005 11000 10999 10996 ] final -133.51 input  -57.11 | X-H torsion

> <Gold.Protein.ActiveResidues>
 VAL166  LYS551  ARG553  GLY616  TRP617  ASP618  TYR619  PRO620  LYS621  CYS622 
 ASP623  PHE694  ASN695  SER759  ASP760  ASP761  ALA762  ILE779  LEU786  VAL792 
 PHE793  MET794  SER795  GLU796  ALA797  LYS798  CYS799  TRP800  GLU811  SER814 

> <Gold.Protein.RotatedAtoms>
  150.7120  134.0872  159.3918 H   0  0  0  0  0  0  0  0  0  0  0  0  # atno 6907 bound_to 6896
  151.8857  135.0434  160.0502 H   0  0  0  0  0  0  0  0  0  0  0  0  # atno 6908 bound_to 6896
  152.2532  133.5197  159.5374 H   0  0  0  0  0  0  0  0  0  0  0  0  # atno 6909 bound_to 6896
  144.7169  140.0243  143.6439 H   0  0  0  0  0  0  0  0  0  0  0  0  # atno 7974 bound_to 7965
  155.8272  140.0928  157.1814 H   0  0  0  0  0  0  0  0  0  0  0  0  # atno 8008 bound_to 7997
  154.3979  140.1425  156.3631 H   0  0  0  0  0  0  0  0  0  0  0  0  # atno 8009 bound_to 7997
  155.8204  140.3446  155.5513 H   0  0  0  0  0  0  0  0  0  0  0  0  # atno 8010 bound_to 7997
  140.0554  143.5019  152.2060 H   0  0  0  0  0  0  0  0  0  0  0  0  # atno 10167 bound_to 10162
  157.6663  130.9762  150.1460 H   0  0  0  0  0  0  0  0  0  0  0  0  # atno 10718 bound_to 10713
  154.8693  135.4127  154.2810 H   0  0  0  0  0  0  0  0  0  0  0  0  # atno 10763 bound_to 10752
  153.3703  135.7007  153.6649 H   0  0  0  0  0  0  0  0  0  0  0  0  # atno 10764 bound_to 10752
  153.5513  135.3628  155.2732 H   0  0  0  0  0  0  0  0  0  0  0  0  # atno 10765 bound_to 10752
  140.9074  134.1612  157.4415 H   0  0  0  0  0  0  0  0  0  0  0  0  # atno 11005 bound_to 11000
  146.0155  139.3206  143.0844 LP  0  0  0  0  0  0  0  0  0  0  0  0  # atno 17320 bound_to 7965
  145.8631  140.9464  143.0690 LP  0  0  0  0  0  0  0  0  0  0  0  0  # atno 17321 bound_to 7965
  139.5927  144.7556  151.3362 LP  0  0  0  0  0  0  0  0  0  0  0  0  # atno 17342 bound_to 10162
  140.7197  143.7170  150.7725 LP  0  0  0  0  0  0  0  0  0  0  0  0  # atno 17343 bound_to 10162
  156.2271  130.3679  149.8488 LP  0  0  0  0  0  0  0  0  0  0  0  0  # atno 17370 bound_to 10713
  156.6325  130.8671  151.3498 LP  0  0  0  0  0  0  0  0  0  0  0  0  # atno 17371 bound_to 10713
  139.8751  134.9922  156.5586 LP  0  0  0  0  0  0  0  0  0  0  0  0  # atno 17394 bound_to 11000
  140.8154  133.8396  155.8847 LP  0  0  0  0  0  0  0  0  0  0  0  0  # atno 17395 bound_to 11000

$$$$
