AV-unprocessed.smi:3133|AV-procd|sdf|11938|dock5
  -GOLD-   2272017323D 1   1.00000     0.00000
 Structure written by MMmdl.
 32 33  0  0  0  0  0  0  0  0  1 V2000
  151.4742  137.7735  158.7864 C   0  0  0  0  0  0  0  0  0  0  0  0
  151.6314  139.2118  158.2518 C   0  0  1  0  0  0  0  0  0  0  0  0
  152.7728  139.9728  158.9409 C   0  0  0  0  0  0  0  0  0  0  0  0
  153.9320  139.5641  158.8668 O   0  0  0  0  0  0  0  0  0  0  0  0
  152.4281  141.0990  159.5848 N   0  0  0  0  0  0  0  0  0  0  0  0
  153.3556  142.0366  160.2074 C   0  0  0  0  0  0  0  0  0  0  0  0
  153.0978  143.4742  159.7263 C   0  0  2  0  0  0  0  0  0  0  0  0
  152.1491  144.2932  160.6016 C   0  0  0  0  0  0  0  0  0  0  0  0
  151.5995  145.3372  159.6433 C   0  0  0  0  0  0  0  0  0  0  0  0
  151.9295  144.7817  158.2538 C   0  0  0  0  0  0  0  0  0  0  0  0
  152.4263  143.4690  158.4778 O   0  0  0  0  0  0  0  0  0  0  0  0
  151.8161  139.2579  156.8058 N   0  0  0  0  0  0  0  0  0  0  0  0
  151.1305  139.9289  155.8775 C   0  0  0  0  0  0  0  0  0  0  0  0
  151.6100  139.7936  154.6492 N   0  0  0  0  0  0  0  0  0  0  0  0
  152.6758  138.9797  154.9093 C   0  0  0  0  0  0  0  0  0  0  0  0
  152.8529  138.6400  156.1858 N   0  0  0  0  0  0  0  0  0  0  0  0
  151.2916  137.7735  159.8615 H   0  0  0  0  0  0  0  0  0  0  0  0
  152.3615  137.1658  158.6041 H   0  0  0  0  0  0  0  0  0  0  0  0
  150.6288  137.2736  158.3127 H   0  0  0  0  0  0  0  0  0  0  0  0
  150.7009  139.7386  158.4701 H   0  0  0  0  0  0  0  0  0  0  0  0
  151.4510  141.3527  159.6019 H   0  0  0  0  0  0  0  0  0  0  0  0
  153.2122  141.9829  161.2869 H   0  0  0  0  0  0  0  0  0  0  0  0
  154.3927  141.7505  160.0233 H   0  0  0  0  0  0  0  0  0  0  0  0
  154.0446  144.0050  159.6084 H   0  0  0  0  0  0  0  0  0  0  0  0
  151.3335  143.6651  160.9622 H   0  0  0  0  0  0  0  0  0  0  0  0
  152.6447  144.7306  161.4691 H   0  0  0  0  0  0  0  0  0  0  0  0
  150.5264  145.4705  159.7840 H   0  0  0  0  0  0  0  0  0  0  0  0
  152.0809  146.3043  159.7920 H   0  0  0  0  0  0  0  0  0  0  0  0
  151.0618  144.7618  157.5942 H   0  0  0  0  0  0  0  0  0  0  0  0
  152.7057  145.3818  157.7767 H   0  0  0  0  0  0  0  0  0  0  0  0
  150.2667  140.5353  156.1067 H   0  0  0  0  0  0  0  0  0  0  0  0
  153.3458  138.6336  154.1361 H   0  0  0  0  0  0  0  0  0  0  0  0
  1  2  1  0  0  0  0
  1 17  1  0  0  0  0
  1 18  1  0  0  0  0
  1 19  1  0  0  0  0
  2  3  1  0  0  0  0
  2 12  1  0  0  0  0
  2 20  1  0  0  0  0
  3  4  2  0  0  0  0
  3  5  1  0  0  0  0
  5  6  1  0  0  0  0
  5 21  1  0  0  0  0
  6  7  1  0  0  0  0
  6 22  1  0  0  0  0
  6 23  1  0  0  0  0
  7 11  1  0  0  0  0
  7  8  1  0  0  0  0
  7 24  1  0  0  0  0
  8  9  1  0  0  0  0
  8 25  1  0  0  0  0
  8 26  1  0  0  0  0
  9 10  1  0  0  0  0
  9 27  1  0  0  0  0
  9 28  1  0  0  0  0
 10 11  1  0  0  0  0
 10 29  1  0  0  0  0
 10 30  1  0  0  0  0
 12 16  1  0  0  0  0
 12 13  1  0  0  0  0
 13 14  2  0  0  0  0
 13 31  1  0  0  0  0
 14 15  1  0  0  0  0
 15 16  2  0  0  0  0
 15 32  1  0  0  0  0
M  END
> <s_m_source_file>
AV-unprocessed.smi

> <i_m_source_file_index>
3133

> <i_lp_mmshare_version>
43012

> <i_f3d_flags>
0

> <s_epik_input>
bjFbY0hdbltjSF1uMVtDQEhdKFtDSDNdKUMoPU8pW05IXVtDSDJdW0NAQEhdMltDSDJdW0NIMl1bQ0gyXU8y

> <s_epik_cmdline>
J2VwaWtfcHl0aG9uJywgJy1waCcsICc3LjAnLCAnLXRuJywgJzgnLCAnLW1hJywgJzIwMCcsICctbWV0YWxfYmluZGluZycsICctaW1hZScsICc8aW5maWxlLm1hZT4nLCAnLW9tYWUnLCAnPG91dGZpbGUubWFlPic=

> <r_lp_tautomer_probability>
1

> <r_epik_Ionization_Penalty>
1.2027e-05

> <r_epik_Ionization_Penalty_Charging>
0

> <r_epik_Ionization_Penalty_Neutral>
1.2027e-05

> <r_epik_State_Penalty>
-0

> <r_epik_Charging_Adjusted_Penalty>
0

> <i_epik_Tot_Q>
0

> <i_epik_Tot_abs_Q>
0

> <r_epik_Metal_State_Penalty>
-0

> <b_epik_Metal_Only>
0

> <s_lp_Force_Field>
OPLS_2005

> <r_lp_Energy>
22.7356

> <b_lp_Chiralities_Consistent>
1

> <s_lp_Variant>
AV-unprocessed.smi:3133-2

> <Gold.Version>
5.8.1

> <Gold.Id.Protein>
6NUR|6NUR_protein|mol2

> <Gold.PLP.Fitness>
42.6769

> <Gold.PLP.PLP>
-37.8270

> <Gold.PLP.part.hbond>
-3.0000

> <Gold.PLP.part.metal>
0.0000

> <Gold.PLP.part.buried>
-5.8729

> <Gold.PLP.part.nonpolar>
-29.2167

> <Gold.PLP.part.repulsive>
0.2079

> <Gold.PLP.ligand.clash>
0.0000

> <Gold.PLP.ligand.torsion>
0.6333

> <Gold.PLP.Chemscore.Hbond>
2.0000

> <Gold.PLP.Chemscore.CHOScore>
0.0000

> <Gold.PLP.Chemscore.Metal>
0.0000

> <Gold.Chemscore.Hbonds>
donor molecule, donor type, donor heavy atom, donor atom, acceptor molecule, acceptor atom, score
      P1  H  7989  7998       L1    14  1.00
      P1  H  7997  8010       L1     4  1.00

> <Gold.PLP.Chemscore.Internal.Correction>
0.1166

> <Gold.Rescore>
     Score         DG    S(hbond)    S(metal)    S(lipo)     H(rot)  DE(clash)    DE(int)     intcor
     13.51     -14.16       1.87        0.00      70.26       2.26       0.00       0.64       ----

> <Gold.Chemscore.Fitness>
13.5121

> <Gold.Chemscore.DG>
-14.1581

> <Gold.Chemscore.ZeroCoef>
-5.4800

> <Gold.Chemscore.Hbond>
1.8661

> <Gold.Chemscore.Metal>
0.0000

> <Gold.Chemscore.Lipo>
70.2566

> <Gold.Chemscore.Internal_Hbond>
0.0000

> <Gold.Chemscore.DEClash>
0.0015

> <Gold.Chemscore.DEInternal>
0.6446

> <Gold.Chemscore.Rot>
2.2558

> <Gold.Chemscore.Internal.Correction>
   9.000000E+99

> <Gold.Chemscore.Hbonds>
donor molecule, donor type, donor heavy atom, donor atom, acceptor molecule, acceptor atom, score
      P1  H  7989  7998       L1    14  0.94
      P1  H  7997  8010       L1     4  0.81

> <Gold.Chemscore.Hbond.Weighted>
-6.2328

> <Gold.Chemscore.Metal.Weighted>
-0.0000

> <Gold.Chemscore.Lipo.Weighted>
-8.2200

> <Gold.Chemscore.Internal_Hbond.Weighted>
0.0000

> <Gold.Chemscore.DEClash.Weighted>
0.0015

> <Gold.Chemscore.DEInternal.Weighted>
0.6446

> <Gold.Chemscore.Rot.Weighted>
5.7747

> <Gold.Chemscore.Internal.Correction.Weighted>
   9.000000E+99

> <Gold.Protein.RotatedTorsions>
[ 6907 6896 6895 6894 ] final  -82.71 input  -60.11 | X-H torsion
[ 7974 7965 7964 7962 ] final -178.54 input  175.53 | X-H torsion
[ 8008 7997 7996 7995 ] final   23.51 input   59.86 | X-H torsion
[ 10167 10162 10161 10158 ] final -130.06 input  -65.29 | X-H torsion
[ 10718 10713 10712 10709 ] final  122.75 input   66.30 | X-H torsion
[ 10763 10752 10751 10750 ] final  155.12 input  -60.55 | X-H torsion
[ 11005 11000 10999 10996 ] final -134.43 input  -57.11 | X-H torsion

> <Gold.Protein.ActiveResidues>
 VAL166  LYS551  ARG553  GLY616  TRP617  ASP618  TYR619  PRO620  LYS621  CYS622 
 ASP623  PHE694  ASN695  SER759  ASP760  ASP761  ALA762  ILE779  LEU786  VAL792 
 PHE793  MET794  SER795  GLU796  ALA797  LYS798  CYS799  TRP800  GLU811  SER814 

> <Gold.Protein.RotatedAtoms>
  150.6894  134.3623  159.4955 H   0  0  0  0  0  0  0  0  0  0  0  0  # atno 6907 bound_to 6896
  152.1450  134.9030  160.0561 H   0  0  0  0  0  0  0  0  0  0  0  0  # atno 6908 bound_to 6896
  152.0149  133.3841  159.4272 H   0  0  0  0  0  0  0  0  0  0  0  0  # atno 6909 bound_to 6896
  144.7131  140.0853  143.6424 H   0  0  0  0  0  0  0  0  0  0  0  0  # atno 7974 bound_to 7965
  154.9821  140.3103  155.4942 H   0  0  0  0  0  0  0  0  0  0  0  0  # atno 8008 bound_to 7997
  156.2952  140.2264  156.4860 H   0  0  0  0  0  0  0  0  0  0  0  0  # atno 8009 bound_to 7997
  154.7780  140.0448  157.1093 H   0  0  0  0  0  0  0  0  0  0  0  0  # atno 8010 bound_to 7997
  139.9332  143.6248  152.2524 H   0  0  0  0  0  0  0  0  0  0  0  0  # atno 10167 bound_to 10162
  157.5718  131.1082  150.8353 H   0  0  0  0  0  0  0  0  0  0  0  0  # atno 10718 bound_to 10713
  154.1633  135.2808  155.3102 H   0  0  0  0  0  0  0  0  0  0  0  0  # atno 10763 bound_to 10752
  154.6130  135.5492  153.7497 H   0  0  0  0  0  0  0  0  0  0  0  0  # atno 10764 bound_to 10752
  153.0186  135.6420  154.1774 H   0  0  0  0  0  0  0  0  0  0  0  0  # atno 10765 bound_to 10752
  140.8990  134.1714  157.4474 H   0  0  0  0  0  0  0  0  0  0  0  0  # atno 11005 bound_to 11000
  145.9667  139.2840  143.1123 LP  0  0  0  0  0  0  0  0  0  0  0  0  # atno 17320 bound_to 7965
  145.9161  140.9147  143.0429 LP  0  0  0  0  0  0  0  0  0  0  0  0  # atno 17321 bound_to 7965
  139.6765  144.7658  151.1687 LP  0  0  0  0  0  0  0  0  0  0  0  0  # atno 17342 bound_to 10162
  140.7631  143.5788  150.8917 LP  0  0  0  0  0  0  0  0  0  0  0  0  # atno 17343 bound_to 10162
  156.8822  130.5183  149.5290 LP  0  0  0  0  0  0  0  0  0  0  0  0  # atno 17370 bound_to 10713
  156.0763  130.5784  150.9480 LP  0  0  0  0  0  0  0  0  0  0  0  0  # atno 17371 bound_to 10713
  139.8739  134.9890  156.5438 LP  0  0  0  0  0  0  0  0  0  0  0  0  # atno 17394 bound_to 11000
  140.8253  133.8321  155.8933 LP  0  0  0  0  0  0  0  0  0  0  0  0  # atno 17395 bound_to 11000

$$$$
