AV-unprocessed.smi:1260|AV-procd|sdf|5297|dock8
  -GOLD-   22720 4413D 1   1.00000     0.00000
 Structure written by MMmdl.
 37 39  0  0  0  0  0  0  0  0  2 V2000
  153.7927  138.9365  157.9220 O   0  0  0  0  0  0  0  0  0  0  0  0
  152.6121  139.2823  157.9206 C   0  0  0  0  0  0  0  0  0  0  0  0
  151.5687  138.4292  157.1940 C   0  0  0  0  0  0  0  0  0  0  0  0
  150.7782  137.6361  158.1186 N   0  0  0  0  0  0  0  0  0  0  0  0
  150.0035  136.5684  157.9166 C   0  0  0  0  0  0  0  0  0  0  0  0
  149.4440  136.1501  159.0413 N   0  0  0  0  0  0  0  0  0  0  0  0
  149.9325  137.0380  159.9852 N   0  0  0  0  0  0  0  0  0  0  0  0
  150.7266  137.9207  159.4442 N   0  0  0  0  0  0  0  0  0  0  0  0
  152.1724  140.4013  158.5198 N   0  0  0  0  0  0  0  0  0  0  0  0
  152.9976  141.3246  159.2964 C   0  0  2  0  0  0  0  0  0  0  0  0
  152.8476  141.1243  160.8168 C   0  0  0  0  0  0  0  0  0  0  0  0
  152.8131  142.5429  161.3948 C   0  0  0  0  0  0  0  0  0  0  0  0
  152.1520  143.3144  160.3357 N   0  3  1  0  0  0  0  0  0  0  0  0
  152.1609  144.7885  160.4262 C   0  0  0  0  0  0  0  0  0  0  0  0
  151.2543  145.3513  159.3103 C   0  0  0  0  0  0  0  0  0  0  0  0
  151.6265  144.7948  157.9172 C   0  0  0  0  0  0  0  0  0  0  0  0
  151.7275  143.2539  157.9222 C   0  0  0  0  0  0  0  0  0  0  0  0
  152.6783  142.8188  159.0519 C   0  0  2  0  0  0  0  0  0  0  0  0
  150.9027  139.0767  156.6225 H   0  0  0  0  0  0  0  0  0  0  0  0
  152.0567  137.7599  156.4837 H   0  0  0  0  0  0  0  0  0  0  0  0
  149.8461  136.1050  156.9535 H   0  0  0  0  0  0  0  0  0  0  0  0
  151.1859  140.6093  158.4637 H   0  0  0  0  0  0  0  0  0  0  0  0
  154.0461  141.1547  159.0424 H   0  0  0  0  0  0  0  0  0  0  0  0
  151.9056  140.6220  161.0423 H   0  0  0  0  0  0  0  0  0  0  0  0
  153.6502  140.5208  161.2423 H   0  0  0  0  0  0  0  0  0  0  0  0
  152.2730  142.5998  162.3404 H   0  0  0  0  0  0  0  0  0  0  0  0
  153.8255  142.9201  161.5494 H   0  0  0  0  0  0  0  0  0  0  0  0
  151.7923  145.1004  161.4040 H   0  0  0  0  0  0  0  0  0  0  0  0
  153.1800  145.1657  160.3282 H   0  0  0  0  0  0  0  0  0  0  0  0
  150.2172  145.0934  159.5294 H   0  0  0  0  0  0  0  0  0  0  0  0
  151.3032  146.4405  159.3031 H   0  0  0  0  0  0  0  0  0  0  0  0
  150.8960  145.1198  157.1758 H   0  0  0  0  0  0  0  0  0  0  0  0
  152.5838  145.2167  157.6082 H   0  0  0  0  0  0  0  0  0  0  0  0
  150.7393  142.8146  158.0649 H   0  0  0  0  0  0  0  0  0  0  0  0
  152.0953  142.9073  156.9560 H   0  0  0  0  0  0  0  0  0  0  0  0
  153.6395  143.3095  158.8830 H   0  0  0  0  0  0  0  0  0  0  0  0
  151.1824  143.0330  160.3654 H   0  0  0  0  0  0  0  0  0  0  0  0
  1  2  2  0  0  0  0
  2  3  1  0  0  0  0
  2  9  1  0  0  0  0
  3  4  1  0  0  0  0
  3 19  1  0  0  0  0
  3 20  1  0  0  0  0
  4  8  1  0  0  0  0
  4  5  1  0  0  0  0
  5  6  2  0  0  0  0
  5 21  1  0  0  0  0
  6  7  1  0  0  0  0
  7  8  2  0  0  0  0
  9 10  1  0  0  0  0
  9 22  1  0  0  0  0
 10 18  1  0  0  0  0
 10 11  1  0  0  0  0
 10 23  1  0  0  0  0
 11 12  1  0  0  0  0
 11 24  1  0  0  0  0
 11 25  1  0  0  0  0
 12 13  1  0  0  0  0
 12 26  1  0  0  0  0
 12 27  1  0  0  0  0
 13 18  1  0  0  0  0
 13 14  1  0  0  0  0
 13 37  1  0  0  0  0
 14 15  1  0  0  0  0
 14 28  1  0  0  0  0
 14 29  1  0  0  0  0
 15 16  1  0  0  0  0
 15 30  1  0  0  0  0
 15 31  1  0  0  0  0
 16 17  1  0  0  0  0
 16 32  1  0  0  0  0
 16 33  1  0  0  0  0
 17 18  1  0  0  0  0
 17 34  1  0  0  0  0
 17 35  1  0  0  0  0
 18 36  1  0  0  0  0
M  CHG  1  13   1
M  END
> <s_m_source_file>
AV-unprocessed.smi

> <i_m_source_file_index>
1260

> <i_lp_mmshare_version>
43012

> <i_f3d_flags>
0

> <s_epik_input>
bjFubltjSF1uMVtDSDJdQyg9TylbTkhdW0NASF0oW0NIMl1bQ0gyXTIpW0NAQEhdKE4yMylbQ0gyXVtDSDJdW0NIMl1bQ0gyXTM=

> <s_epik_cmdline>
J2VwaWtfcHl0aG9uJywgJy1waCcsICc3LjAnLCAnLXRuJywgJzgnLCAnLW1hJywgJzIwMCcsICctbWV0YWxfYmluZGluZycsICctaW1hZScsICc8aW5maWxlLm1hZT4nLCAnLW9tYWUnLCAnPG91dGZpbGUubWFlPic=

> <r_lp_tautomer_probability>
1

> <r_epik_Ionization_Penalty>
0.00234324

> <r_epik_Ionization_Penalty_Charging>
0.00233897

> <r_epik_Ionization_Penalty_Neutral>
4.26861e-06

> <r_epik_State_Penalty>
0.00161477

> <r_epik_Charging_Adjusted_Penalty>
0.00395374

> <i_epik_Tot_Q>
1

> <i_epik_Tot_abs_Q>
1

> <r_epik_Metal_State_Penalty>
-0

> <b_epik_Metal_Only>
0

> <s_lp_Force_Field>
OPLS_2005

> <r_lp_Energy>
44.4325

> <b_lp_Chiralities_Consistent>
1

> <s_lp_Variant>
AV-unprocessed.smi:1260-5

> <Gold.Version>
5.8.1

> <Gold.Id.Protein>
6NUR|6NUR_protein|mol2

> <Gold.PLP.Fitness>
38.9498

> <Gold.PLP.PLP>
-34.2467

> <Gold.PLP.part.hbond>
-4.0493

> <Gold.PLP.part.metal>
0.0000

> <Gold.PLP.part.buried>
-5.1661

> <Gold.PLP.part.nonpolar>
-25.3214

> <Gold.PLP.part.repulsive>
0.1741

> <Gold.PLP.ligand.clash>
0.0000

> <Gold.PLP.ligand.torsion>
0.7365

> <Gold.PLP.Chemscore.Hbond>
2.0582

> <Gold.PLP.Chemscore.CHOScore>
0.0000

> <Gold.PLP.Chemscore.Metal>
0.0000

> <Gold.Chemscore.Hbonds>
donor molecule, donor type, donor heavy atom, donor atom, acceptor molecule, acceptor atom, score
      P1  H  6896  6907       L1     6  0.75
      P1  H  6931  6943       L1     7  0.02
      P1  H  7997  8008       L1     1  1.00

> <Gold.PLP.Chemscore.Internal.Correction>
0.0013

> <Gold.Rescore>
     Score         DG    S(hbond)    S(metal)    S(lipo)     H(rot)  DE(clash)    DE(int)     intcor
     14.33     -15.14       1.10        0.00      94.22       1.98       0.20       0.60       ----

> <Gold.Chemscore.Fitness>
14.3335

> <Gold.Chemscore.DG>
-15.1356

> <Gold.Chemscore.ZeroCoef>
-5.4800

> <Gold.Chemscore.Hbond>
1.1047

> <Gold.Chemscore.Metal>
0.0000

> <Gold.Chemscore.Lipo>
94.2204

> <Gold.Chemscore.Internal_Hbond>
0.0000

> <Gold.Chemscore.DEClash>
0.2018

> <Gold.Chemscore.DEInternal>
0.6004

> <Gold.Chemscore.Rot>
1.9757

> <Gold.Chemscore.Internal.Correction>
   9.000000E+99

> <Gold.Chemscore.Hbonds>
donor molecule, donor type, donor heavy atom, donor atom, acceptor molecule, acceptor atom, score
      P1  H  6896  6907       L1     6  0.03
      P1  H  6931  6943       L1     7  0.01
      P1  H  7997  8008       L1     1  0.90

> <Gold.Chemscore.Hbond.Weighted>
-3.6896

> <Gold.Chemscore.Metal.Weighted>
-0.0000

> <Gold.Chemscore.Lipo.Weighted>
-11.0238

> <Gold.Chemscore.Internal_Hbond.Weighted>
0.0000

> <Gold.Chemscore.DEClash.Weighted>
0.2018

> <Gold.Chemscore.DEInternal.Weighted>
0.6004

> <Gold.Chemscore.Rot.Weighted>
5.0578

> <Gold.Chemscore.Internal.Correction.Weighted>
   9.000000E+99

> <Gold.Protein.RotatedTorsions>
[ 6907 6896 6895 6894 ] final  -70.39 input  -60.11 | X-H torsion
[ 7974 7965 7964 7962 ] final    1.01 input  175.53 | X-H torsion
[ 8008 7997 7996 7995 ] final -107.10 input   59.86 | X-H torsion
[ 10167 10162 10161 10158 ] final -100.48 input  -65.29 | X-H torsion
[ 10718 10713 10712 10709 ] final  -18.22 input   66.30 | X-H torsion
[ 10763 10752 10751 10750 ] final -158.96 input  -60.55 | X-H torsion
[ 11005 11000 10999 10996 ] final -139.27 input  -57.11 | X-H torsion

> <Gold.Protein.ActiveResidues>
 VAL166  LYS551  ARG553  GLY616  TRP617  ASP618  TYR619  PRO620  LYS621  CYS622 
 ASP623  PHE694  ASN695  SER759  ASP760  ASP761  ALA762  ILE779  LEU786  VAL792 
 PHE793  MET794  SER795  GLU796  ALA797  LYS798  CYS799  TRP800  GLU811  SER814 

> <Gold.Protein.RotatedAtoms>
  150.7260  134.5460  159.5770 H   0  0  0  0  0  0  0  0  0  0  0  0  # atno 6907 bound_to 6896
  152.2959  134.7664  160.0377 H   0  0  0  0  0  0  0  0  0  0  0  0  # atno 6908 bound_to 6896
  151.8262  133.3366  159.3636 H   0  0  0  0  0  0  0  0  0  0  0  0  # atno 6909 bound_to 6896
  146.2438  140.1051  142.8346 H   0  0  0  0  0  0  0  0  0  0  0  0  # atno 7974 bound_to 7965
  154.9244  140.0406  157.2015 H   0  0  0  0  0  0  0  0  0  0  0  0  # atno 8008 bound_to 7997
  154.8222  140.2885  155.5757 H   0  0  0  0  0  0  0  0  0  0  0  0  # atno 8009 bound_to 7997
  156.2981  140.2516  156.3132 H   0  0  0  0  0  0  0  0  0  0  0  0  # atno 8010 bound_to 7997
  140.2514  143.3470  152.0711 H   0  0  0  0  0  0  0  0  0  0  0  0  # atno 10167 bound_to 10162
  156.5626  130.4729  149.6400 H   0  0  0  0  0  0  0  0  0  0  0  0  # atno 10718 bound_to 10713
  154.7514  135.3093  154.8550 H   0  0  0  0  0  0  0  0  0  0  0  0  # atno 10763 bound_to 10752
  153.9337  135.6782  153.4749 H   0  0  0  0  0  0  0  0  0  0  0  0  # atno 10764 bound_to 10752
  153.1110  135.4866  154.8963 H   0  0  0  0  0  0  0  0  0  0  0  0  # atno 10765 bound_to 10752
  140.8536  134.2255  157.4747 H   0  0  0  0  0  0  0  0  0  0  0  0  # atno 11005 bound_to 11000
  145.0535  140.9035  143.4981 LP  0  0  0  0  0  0  0  0  0  0  0  0  # atno 17320 bound_to 7965
  145.1153  139.2730  143.5616 LP  0  0  0  0  0  0  0  0  0  0  0  0  # atno 17321 bound_to 7965
  139.5045  144.6776  151.6089 LP  0  0  0  0  0  0  0  0  0  0  0  0  # atno 17342 bound_to 10162
  140.6037  143.9563  150.6404 LP  0  0  0  0  0  0  0  0  0  0  0  0  # atno 17343 bound_to 10162
  156.2785  130.7057  151.1875 LP  0  0  0  0  0  0  0  0  0  0  0  0  # atno 17370 bound_to 10713
  157.7365  131.0561  150.5408 LP  0  0  0  0  0  0  0  0  0  0  0  0  # atno 17371 bound_to 10713
  139.8704  134.9695  156.4669 LP  0  0  0  0  0  0  0  0  0  0  0  0  # atno 17394 bound_to 11000
  140.8762  133.7951  155.9417 LP  0  0  0  0  0  0  0  0  0  0  0  0  # atno 17395 bound_to 11000

$$$$
