AV-unprocessed.smi:2079|AV-procd|sdf|8483|dock10
  -GOLD-   2272011193D 1   1.00000     0.00000
 Structure written by MMmdl.
 41 42  0  0  0  0  0  0  0  0  3 V2000
  151.1352  142.1316  157.5753 C   0  0  0  0  0  0  0  0  0  0  0  0
  150.6833  141.4043  156.3551 C   0  0  0  0  0  0  0  0  0  0  0  0
  149.5008  141.3877  155.6709 C   0  0  0  0  0  0  0  0  0  0  0  0
  149.7583  140.4840  154.6059 C   0  0  0  0  0  0  0  0  0  0  0  0
  148.7516  140.1851  153.6505 N   0  0  0  0  0  0  0  0  0  0  0  0
  147.4205  140.1073  153.8272 C   0  0  0  0  0  0  0  0  0  0  0  0
  146.9270  140.2706  154.9494 O   0  0  0  0  0  0  0  0  0  0  0  0
  146.7584  139.8582  152.6636 N   0  5  0  0  0  0  0  0  0  0  0  0
  146.6488  138.5467  152.0194 C   0  0  0  0  0  0  0  0  0  0  0  0
  146.0577  137.5004  152.9910 C   0  0  0  0  0  0  0  0  0  0  0  0
  146.2730  136.0995  152.5188 N   0  3  2  0  0  0  0  0  0  0  0  0
  145.3761  135.7726  151.3717 C   0  0  0  0  0  0  0  0  0  0  0  0
  145.6832  134.3972  150.7693 C   0  0  0  0  0  0  0  0  0  0  0  0
  145.5517  133.3160  151.8407 C   0  0  0  0  0  0  0  0  0  0  0  0
  146.4901  133.6460  153.0035 C   0  0  0  0  0  0  0  0  0  0  0  0
  146.2376  135.0531  153.5936 C   0  0  1  0  0  0  0  0  0  0  0  0
  147.2850  135.2894  154.7045 C   0  0  0  0  0  0  0  0  0  0  0  0
  150.9869  139.9891  154.6408 N   0  0  0  0  0  0  0  0  0  0  0  0
  151.5863  140.5780  155.7603 O   0  0  0  0  0  0  0  0  0  0  0  0
  150.4527  141.9521  158.4060 H   0  0  0  0  0  0  0  0  0  0  0  0
  151.1705  143.2056  157.3924 H   0  0  0  0  0  0  0  0  0  0  0  0
  152.1306  141.8084  157.8810 H   0  0  0  0  0  0  0  0  0  0  0  0
  148.5986  141.9366  155.8957 H   0  0  0  0  0  0  0  0  0  0  0  0
  149.0795  140.0163  152.7110 H   0  0  0  0  0  0  0  0  0  0  0  0
  146.0022  138.6033  151.1441 H   0  0  0  0  0  0  0  0  0  0  0  0
  147.6068  138.1857  151.6430 H   0  0  0  0  0  0  0  0  0  0  0  0
  146.4623  137.6703  153.9860 H   0  0  0  0  0  0  0  0  0  0  0  0
  144.9890  137.6872  153.1061 H   0  0  0  0  0  0  0  0  0  0  0  0
  144.3369  135.8057  151.7031 H   0  0  0  0  0  0  0  0  0  0  0  0
  145.4809  136.5288  150.5927 H   0  0  0  0  0  0  0  0  0  0  0  0
  145.0013  134.1902  149.9440 H   0  0  0  0  0  0  0  0  0  0  0  0
  146.6912  134.3911  150.3517 H   0  0  0  0  0  0  0  0  0  0  0  0
  144.5215  133.2605  152.1947 H   0  0  0  0  0  0  0  0  0  0  0  0
  145.7961  132.3387  151.4236 H   0  0  0  0  0  0  0  0  0  0  0  0
  146.3784  132.8896  153.7813 H   0  0  0  0  0  0  0  0  0  0  0  0
  147.5222  133.5761  152.6562 H   0  0  0  0  0  0  0  0  0  0  0  0
  145.2429  135.0693  154.0421 H   0  0  0  0  0  0  0  0  0  0  0  0
  147.2776  134.4675  155.4209 H   0  0  0  0  0  0  0  0  0  0  0  0
  147.1102  136.1950  155.2820 H   0  0  0  0  0  0  0  0  0  0  0  0
  148.2927  135.3469  154.2923 H   0  0  0  0  0  0  0  0  0  0  0  0
  147.2177  136.0861  152.1586 H   0  0  0  0  0  0  0  0  0  0  0  0
  1  2  1  0  0  0  0
  1 20  1  0  0  0  0
  1 21  1  0  0  0  0
  1 22  1  0  0  0  0
  2 19  1  0  0  0  0
  2  3  2  0  0  0  0
  3  4  1  0  0  0  0
  3 23  1  0  0  0  0
  4  5  1  0  0  0  0
  4 18  2  0  0  0  0
  5  6  1  0  0  0  0
  5 24  1  0  0  0  0
  6  7  2  0  0  0  0
  6  8  1  0  0  0  0
  8  9  1  0  0  0  0
  9 10  1  0  0  0  0
  9 25  1  0  0  0  0
  9 26  1  0  0  0  0
 10 11  1  0  0  0  0
 10 27  1  0  0  0  0
 10 28  1  0  0  0  0
 11 16  1  0  0  0  0
 11 12  1  0  0  0  0
 11 41  1  0  0  0  0
 12 13  1  0  0  0  0
 12 29  1  0  0  0  0
 12 30  1  0  0  0  0
 13 14  1  0  0  0  0
 13 31  1  0  0  0  0
 13 32  1  0  0  0  0
 14 15  1  0  0  0  0
 14 33  1  0  0  0  0
 14 34  1  0  0  0  0
 15 16  1  0  0  0  0
 15 35  1  0  0  0  0
 15 36  1  0  0  0  0
 16 17  1  0  0  0  0
 16 37  1  0  0  0  0
 17 38  1  0  0  0  0
 17 39  1  0  0  0  0
 17 40  1  0  0  0  0
 18 19  1  0  0  0  0
M  CHG  1   8  -1
M  CHG  1  11   1
M  END
> <s_m_source_file>
AV-unprocessed.smi

> <i_m_source_file_index>
2079

> <i_lp_mmshare_version>
43012

> <i_f3d_flags>
0

> <s_epik_input>
W0NIM11jMVtjSF1jKG5vMSlbTkhdQyg9TylbTkhdW0NIMl1bQ0gyXU4yW0NIMl1bQ0gyXVtDSDJdW0NIMl1bQ0BIXTJbQ0gzXQ==

> <s_epik_cmdline>
J2VwaWtfcHl0aG9uJywgJy1waCcsICc3LjAnLCAnLXRuJywgJzgnLCAnLW1hJywgJzIwMCcsICctbWV0YWxfYmluZGluZycsICctaW1hZScsICc8aW5maWxlLm1hZT4nLCAnLW9tYWUnLCAnPG91dGZpbGUubWFlPic=

> <r_epik_Ionization_Penalty>
6.7666

> <r_epik_Ionization_Penalty_Charging>
6.7666

> <r_epik_Ionization_Penalty_Neutral>
5.77131e-06

> <r_epik_State_Penalty>
6.79217

> <r_epik_Charging_Adjusted_Penalty>
13.5588

> <i_epik_Tot_Q>
0

> <i_epik_Tot_abs_Q>
2

> <r_epik_Metal_State_Penalty>
2.72569

> <b_epik_Metal_Only>
1

> <s_lp_Force_Field>
OPLS_2005

> <r_lp_Energy>
12.5834

> <b_lp_Chiralities_Consistent>
1

> <s_lp_Variant>
AV-unprocessed.smi:2079-9

> <Gold.Version>
5.8.1

> <Gold.Id.Protein>
6NUR|6NUR_protein|mol2

> <Gold.PLP.Fitness>
40.4115

> <Gold.PLP.PLP>
-30.7295

> <Gold.PLP.part.hbond>
-3.9640

> <Gold.PLP.part.metal>
0.0000

> <Gold.PLP.part.buried>
-4.2684

> <Gold.PLP.part.nonpolar>
-25.1322

> <Gold.PLP.part.repulsive>
0.6336

> <Gold.PLP.ligand.clash>
0.0000

> <Gold.PLP.ligand.torsion>
1.1863

> <Gold.PLP.Chemscore.Hbond>
4.0000

> <Gold.PLP.Chemscore.CHOScore>
0.0000

> <Gold.PLP.Chemscore.Metal>
0.0000

> <Gold.Chemscore.Hbonds>
donor molecule, donor type, donor heavy atom, donor atom, acceptor molecule, acceptor atom, score
      L1  H     5    24       P1  7957  1.00
      L1  H    11    41       P1  7948  2.00
      P1  H  7989  7998       L1    18  0.95

> <Gold.PLP.Chemscore.Internal.Correction>
0.0547

> <Gold.Rescore>
     Score         DG    S(hbond)    S(metal)    S(lipo)     H(rot)  DE(clash)    DE(int)     intcor
     14.59     -17.45       2.77        0.00      56.99       1.54       0.48       2.37       ----

> <Gold.Chemscore.Fitness>
14.5916

> <Gold.Chemscore.DG>
-17.4471

> <Gold.Chemscore.ZeroCoef>
-5.4800

> <Gold.Chemscore.Hbond>
2.7675

> <Gold.Chemscore.Metal>
0.0000

> <Gold.Chemscore.Lipo>
56.9930

> <Gold.Chemscore.Internal_Hbond>
0.0000

> <Gold.Chemscore.DEClash>
0.4810

> <Gold.Chemscore.DEInternal>
2.3746

> <Gold.Chemscore.Rot>
1.5409

> <Gold.Chemscore.Internal.Correction>
   9.000000E+99

> <Gold.Chemscore.Hbonds>
donor molecule, donor type, donor heavy atom, donor atom, acceptor molecule, acceptor atom, score
      L1  H     5    24       P1  7957  1.00
      L1  H    11    41       P1  7948  1.00
      P1  H  7989  7998       L1    18  0.05

> <Gold.Chemscore.Hbond.Weighted>
-9.2436

> <Gold.Chemscore.Metal.Weighted>
-0.0000

> <Gold.Chemscore.Lipo.Weighted>
-6.6682

> <Gold.Chemscore.Internal_Hbond.Weighted>
0.0000

> <Gold.Chemscore.DEClash.Weighted>
0.4810

> <Gold.Chemscore.DEInternal.Weighted>
2.3746

> <Gold.Chemscore.Rot.Weighted>
3.9446

> <Gold.Chemscore.Internal.Correction.Weighted>
   9.000000E+99

> <Gold.Protein.RotatedTorsions>
[ 6907 6896 6895 6894 ] final  172.62 input  -60.11 | X-H torsion
[ 7974 7965 7964 7962 ] final -129.80 input  175.53 | X-H torsion
[ 8008 7997 7996 7995 ] final   82.12 input   59.86 | X-H torsion
[ 10167 10162 10161 10158 ] final -160.82 input  -65.29 | X-H torsion
[ 10718 10713 10712 10709 ] final   26.46 input   66.30 | X-H torsion
[ 10763 10752 10751 10750 ] final  -37.82 input  -60.55 | X-H torsion
[ 11005 11000 10999 10996 ] final   14.05 input  -57.11 | X-H torsion

> <Gold.Protein.ActiveResidues>
 VAL166  LYS551  ARG553  GLY616  TRP617  ASP618  TYR619  PRO620  LYS621  CYS622 
 ASP623  PHE694  ASN695  SER759  ASP760  ASP761  ALA762  ILE779  LEU786  VAL792 
 PHE793  MET794  SER795  GLU796  ALA797  LYS798  CYS799  TRP800  GLU811  SER814 

> <Gold.Protein.RotatedAtoms>
  151.7813  133.3350  159.3472 H   0  0  0  0  0  0  0  0  0  0  0  0  # atno 6907 bound_to 6896
  150.7425  134.5928  159.6005 H   0  0  0  0  0  0  0  0  0  0  0  0  # atno 6908 bound_to 6896
  152.3274  134.7305  160.0350 H   0  0  0  0  0  0  0  0  0  0  0  0  # atno 6909 bound_to 6896
  144.9537  140.7372  143.4772 H   0  0  0  0  0  0  0  0  0  0  0  0  # atno 7974 bound_to 7965
  155.9063  140.3430  155.6065 H   0  0  0  0  0  0  0  0  0  0  0  0  # atno 8008 bound_to 7997
  155.7440  140.0811  157.2251 H   0  0  0  0  0  0  0  0  0  0  0  0  # atno 8009 bound_to 7997
  154.4050  140.1565  156.2636 H   0  0  0  0  0  0  0  0  0  0  0  0  # atno 8010 bound_to 7997
  139.6511  144.0082  152.2162 H   0  0  0  0  0  0  0  0  0  0  0  0  # atno 10167 bound_to 10162
  157.2071  130.6917  149.6212 H   0  0  0  0  0  0  0  0  0  0  0  0  # atno 10718 bound_to 10713
  153.9025  135.6801  153.4754 H   0  0  0  0  0  0  0  0  0  0  0  0  # atno 10763 bound_to 10752
  153.1121  135.4778  154.9051 H   0  0  0  0  0  0  0  0  0  0  0  0  # atno 10764 bound_to 10752
  154.7568  135.3199  154.8409 H   0  0  0  0  0  0  0  0  0  0  0  0  # atno 10765 bound_to 10752
  140.4738  134.1004  155.7738 H   0  0  0  0  0  0  0  0  0  0  0  0  # atno 11005 bound_to 11000
  145.2805  139.1920  143.4793 LP  0  0  0  0  0  0  0  0  0  0  0  0  # atno 17320 bound_to 7965
  146.3330  140.2766  142.8608 LP  0  0  0  0  0  0  0  0  0  0  0  0  # atno 17321 bound_to 7965
  139.9797  144.6437  150.7912 LP  0  0  0  0  0  0  0  0  0  0  0  0  # atno 17342 bound_to 10162
  140.7538  143.3015  151.3069 LP  0  0  0  0  0  0  0  0  0  0  0  0  # atno 17343 bound_to 10162
  155.9694  130.4563  150.5922 LP  0  0  0  0  0  0  0  0  0  0  0  0  # atno 17370 bound_to 10713
  157.3710  131.0765  151.1558 LP  0  0  0  0  0  0  0  0  0  0  0  0  # atno 17371 bound_to 10713
  141.1564  133.8875  157.1966 LP  0  0  0  0  0  0  0  0  0  0  0  0  # atno 17394 bound_to 11000
  139.9868  135.0079  156.9882 LP  0  0  0  0  0  0  0  0  0  0  0  0  # atno 17395 bound_to 11000

$$$$
