AV-unprocessed.smi:682|AV-procd|sdf|3326|dock4
  -GOLD-   22720 0293D 1   1.00000     0.00000
 Structure written by MMmdl.
 41 42  0  0  0  0  0  0  0  0  1 V2000
  148.9144  132.9656  153.3338 C   0  0  0  0  0  0  0  0  0  0  0  0
  147.8167  133.3860  152.5329 O   0  0  0  0  0  0  0  0  0  0  0  0
  146.5050  132.9725  152.9390 C   0  0  1  0  0  0  0  0  0  0  0  0
  146.3652  131.4498  152.8140 C   0  0  0  0  0  0  0  0  0  0  0  0
  146.1162  133.6583  154.2625 C   0  0  0  0  0  0  0  0  0  0  0  0
  145.5685  134.8381  153.4564 C   0  0  1  0  0  0  0  0  0  0  0  0
  146.5734  135.8915  153.3107 N   0  0  0  0  0  0  0  0  0  0  0  0
  146.4769  137.1186  153.8383 C   0  0  0  0  0  0  0  0  0  0  0  0
  145.5336  137.4870  154.5381 O   0  0  0  0  0  0  0  0  0  0  0  0
  147.5265  137.8802  153.4907 N   0  0  0  0  0  0  0  0  0  0  0  0
  147.7563  139.2341  153.8402 C   0  0  0  0  0  0  0  0  0  0  0  0
  148.9295  139.8417  154.3704 C   0  0  0  0  0  0  0  0  0  0  0  0
  148.7456  141.1392  154.5653 N   0  0  0  0  0  0  0  0  0  0  0  0
  147.4723  141.3782  154.1680 N   0  0  0  0  0  0  0  0  0  0  0  0
  146.9438  142.7228  154.2557 C   0  0  0  0  0  0  0  0  0  0  0  0
  146.8417  140.2363  153.7159 C   0  0  0  0  0  0  0  0  0  0  0  0
  145.4558  133.8908  152.2308 C   0  0  0  0  0  0  0  0  0  0  0  0
  145.8313  134.4395  150.8441 C   0  0  0  0  0  0  0  0  0  0  0  0
  144.0523  133.2909  152.0595 C   0  0  0  0  0  0  0  0  0  0  0  0
  149.8133  133.4854  153.0029 H   0  0  0  0  0  0  0  0  0  0  0  0
  149.1036  131.8976  153.2272 H   0  0  0  0  0  0  0  0  0  0  0  0
  148.7713  133.1923  154.3897 H   0  0  0  0  0  0  0  0  0  0  0  0
  145.3492  131.1166  153.0229 H   0  0  0  0  0  0  0  0  0  0  0  0
  147.0053  130.9218  153.5203 H   0  0  0  0  0  0  0  0  0  0  0  0
  146.6205  131.1097  151.8103 H   0  0  0  0  0  0  0  0  0  0  0  0
  145.3295  133.1213  154.7947 H   0  0  0  0  0  0  0  0  0  0  0  0
  146.9355  133.9053  154.9375 H   0  0  0  0  0  0  0  0  0  0  0  0
  144.6064  135.1909  153.8326 H   0  0  0  0  0  0  0  0  0  0  0  0
  147.3780  135.6767  152.7400 H   0  0  0  0  0  0  0  0  0  0  0  0
  148.2218  137.4526  152.8969 H   0  0  0  0  0  0  0  0  0  0  0  0
  149.8864  139.4060  154.6164 H   0  0  0  0  0  0  0  0  0  0  0  0
  145.8993  142.7360  153.9427 H   0  0  0  0  0  0  0  0  0  0  0  0
  147.5169  143.3875  153.6088 H   0  0  0  0  0  0  0  0  0  0  0  0
  147.0097  143.0792  155.2841 H   0  0  0  0  0  0  0  0  0  0  0  0
  145.8225  140.2370  153.3582 H   0  0  0  0  0  0  0  0  0  0  0  0
  145.1197  135.1948  150.5089 H   0  0  0  0  0  0  0  0  0  0  0  0
  145.8475  133.6478  150.0945 H   0  0  0  0  0  0  0  0  0  0  0  0
  146.8154  134.9074  150.8271 H   0  0  0  0  0  0  0  0  0  0  0  0
  143.3325  134.0469  151.7440 H   0  0  0  0  0  0  0  0  0  0  0  0
  143.6737  132.8652  152.9889 H   0  0  0  0  0  0  0  0  0  0  0  0
  144.0406  132.4975  151.3116 H   0  0  0  0  0  0  0  0  0  0  0  0
  1  2  1  0  0  0  0
  1 20  1  0  0  0  0
  1 21  1  0  0  0  0
  1 22  1  0  0  0  0
  2  3  1  0  0  0  0
  3 17  1  0  0  0  0
  3  4  1  0  0  0  0
  3  5  1  0  0  0  0
  4 23  1  0  0  0  0
  4 24  1  0  0  0  0
  4 25  1  0  0  0  0
  5  6  1  0  0  0  0
  5 26  1  0  0  0  0
  5 27  1  0  0  0  0
  6  7  1  0  0  0  0
  6 17  1  0  0  0  0
  6 28  1  0  0  0  0
  7  8  1  0  0  0  0
  7 29  1  0  0  0  0
  8  9  2  0  0  0  0
  8 10  1  0  0  0  0
 10 11  1  0  0  0  0
 10 30  1  0  0  0  0
 11 16  2  0  0  0  0
 11 12  1  0  0  0  0
 12 13  2  0  0  0  0
 12 31  1  0  0  0  0
 13 14  1  0  0  0  0
 14 15  1  0  0  0  0
 14 16  1  0  0  0  0
 15 32  1  0  0  0  0
 15 33  1  0  0  0  0
 15 34  1  0  0  0  0
 16 35  1  0  0  0  0
 17 18  1  0  0  0  0
 17 19  1  0  0  0  0
 18 36  1  0  0  0  0
 18 37  1  0  0  0  0
 18 38  1  0  0  0  0
 19 39  1  0  0  0  0
 19 40  1  0  0  0  0
 19 41  1  0  0  0  0
M  END
> <s_m_source_file>
AV-unprocessed.smi

> <i_m_source_file_index>
682

> <i_lp_mmshare_version>
43012

> <i_f3d_flags>
0

> <s_epik_input>
W0NIM11PW0NAQF0xKFtDSDNdKVtDSDJdW0NASF0oQzEoW0NIM10pW0NIM10pW05IXUMoPU8pW05IXWMyW2NIXW5uKFtDSDNdKVtjSF0y

> <s_epik_cmdline>
J2VwaWtfcHl0aG9uJywgJy1waCcsICc3LjAnLCAnLXRuJywgJzgnLCAnLW1hJywgJzIwMCcsICctbWV0YWxfYmluZGluZycsICctaW1hZScsICc8aW5maWxlLm1hZT4nLCAnLW9tYWUnLCAnPG91dGZpbGUubWFlPic=

> <r_lp_tautomer_probability>
1

> <r_epik_Ionization_Penalty>
0.000192302

> <r_epik_Ionization_Penalty_Charging>
0

> <r_epik_Ionization_Penalty_Neutral>
0.000192302

> <r_epik_State_Penalty>
-0

> <r_epik_Charging_Adjusted_Penalty>
0

> <i_epik_Tot_Q>
0

> <i_epik_Tot_abs_Q>
0

> <r_epik_Metal_State_Penalty>
-0

> <b_epik_Metal_Only>
0

> <s_lp_Force_Field>
OPLS_2005

> <r_lp_Energy>
26.143

> <b_lp_Chiralities_Consistent>
1

> <s_lp_Variant>
AV-unprocessed.smi:682-1

> <Gold.Version>
5.8.1

> <Gold.Id.Protein>
6NUR|6NUR_protein|mol2

> <Gold.PLP.Fitness>
34.8435

> <Gold.PLP.PLP>
-26.9094

> <Gold.PLP.part.hbond>
-2.0000

> <Gold.PLP.part.metal>
0.0000

> <Gold.PLP.part.buried>
-3.8162

> <Gold.PLP.part.nonpolar>
-22.0084

> <Gold.PLP.part.repulsive>
0.7059

> <Gold.PLP.ligand.clash>
0.0000

> <Gold.PLP.ligand.torsion>
0.7256

> <Gold.PLP.Chemscore.Hbond>
2.0000

> <Gold.PLP.Chemscore.CHOScore>
1.0000

> <Gold.PLP.Chemscore.Metal>
0.0000

> <Gold.Chemscore.Hbonds>
donor molecule, donor type, donor heavy atom, donor atom, acceptor molecule, acceptor atom, score
      L1  H     7    29       P1  7948  1.00
      L1  H    10    30       P1  7948  1.00
      L1  C    16    35       P1 10175  1.00

> <Gold.PLP.Chemscore.Internal.Correction>
0.3852

> <Gold.Rescore>
     Score         DG    S(hbond)    S(metal)    S(lipo)     H(rot)  DE(clash)    DE(int)     intcor
     15.08     -16.06       1.96        0.00      61.43       1.23       0.30       0.68       ----

> <Gold.Chemscore.Fitness>
15.0818

> <Gold.Chemscore.DG>
-16.0578

> <Gold.Chemscore.ZeroCoef>
-5.4800

> <Gold.Chemscore.Hbond>
1.9607

> <Gold.Chemscore.Metal>
0.0000

> <Gold.Chemscore.Lipo>
61.4290

> <Gold.Chemscore.Internal_Hbond>
0.0000

> <Gold.Chemscore.DEClash>
0.2995

> <Gold.Chemscore.DEInternal>
0.6765

> <Gold.Chemscore.Rot>
1.2336

> <Gold.Chemscore.Internal.Correction>
   9.000000E+99

> <Gold.Chemscore.Hbonds>
donor molecule, donor type, donor heavy atom, donor atom, acceptor molecule, acceptor atom, score
      L1  H     7    29       P1  7948  0.95
      L1  H    10    30       P1  7948  0.99

> <Gold.Chemscore.Hbond.Weighted>
-6.5487

> <Gold.Chemscore.Metal.Weighted>
-0.0000

> <Gold.Chemscore.Lipo.Weighted>
-7.1872

> <Gold.Chemscore.Internal_Hbond.Weighted>
0.0000

> <Gold.Chemscore.DEClash.Weighted>
0.2995

> <Gold.Chemscore.DEInternal.Weighted>
0.6765

> <Gold.Chemscore.Rot.Weighted>
3.1581

> <Gold.Chemscore.Internal.Correction.Weighted>
   9.000000E+99

> <Gold.Protein.RotatedTorsions>
[ 6907 6896 6895 6894 ] final -140.44 input  -60.11 | X-H torsion
[ 7974 7965 7964 7962 ] final  -55.34 input  175.53 | X-H torsion
[ 8008 7997 7996 7995 ] final  -26.03 input   59.86 | X-H torsion
[ 10167 10162 10161 10158 ] final -152.52 input  -65.29 | X-H torsion
[ 10718 10713 10712 10709 ] final -124.57 input   66.30 | X-H torsion
[ 10763 10752 10751 10750 ] final   44.24 input  -60.55 | X-H torsion
[ 11005 11000 10999 10996 ] final -109.86 input  -57.11 | X-H torsion

> <Gold.Protein.ActiveResidues>
 VAL166  LYS551  ARG553  GLY616  TRP617  ASP618  TYR619  PRO620  LYS621  CYS622 
 ASP623  PHE694  ASN695  SER759  ASP760  ASP761  ALA762  ILE779  LEU786  VAL792 
 PHE793  MET794  SER795  GLU796  ALA797  LYS798  CYS799  TRP800  GLU811  SER814 

> <Gold.Protein.RotatedAtoms>
  151.0608  133.5546  159.2634 H   0  0  0  0  0  0  0  0  0  0  0  0  # atno 6907 bound_to 6896
  151.2522  135.0625  159.9076 H   0  0  0  0  0  0  0  0  0  0  0  0  # atno 6908 bound_to 6896
  152.5397  134.0366  159.8102 H   0  0  0  0  0  0  0  0  0  0  0  0  # atno 6909 bound_to 6896
  145.8753  140.8186  142.9867 H   0  0  0  0  0  0  0  0  0  0  0  0  # atno 7974 bound_to 7965
  154.4446  140.1910  156.0711 H   0  0  0  0  0  0  0  0  0  0  0  0  # atno 8008 bound_to 7997
  156.0510  140.3308  155.7325 H   0  0  0  0  0  0  0  0  0  0  0  0  # atno 8009 bound_to 7997
  155.5556  140.0599  157.2831 H   0  0  0  0  0  0  0  0  0  0  0  0  # atno 8010 bound_to 7997
  139.7174  143.9011  152.2491 H   0  0  0  0  0  0  0  0  0  0  0  0  # atno 10167 bound_to 10162
  156.1599  130.6594  151.0035 H   0  0  0  0  0  0  0  0  0  0  0  0  # atno 10718 bound_to 10713
  152.9845  135.6076  154.3242 H   0  0  0  0  0  0  0  0  0  0  0  0  # atno 10763 bound_to 10752
  154.2950  135.2774  155.2639 H   0  0  0  0  0  0  0  0  0  0  0  0  # atno 10764 bound_to 10752
  154.4917  135.5890  153.6521 H   0  0  0  0  0  0  0  0  0  0  0  0  # atno 10765 bound_to 10752
  141.0824  133.9197  157.2260 H   0  0  0  0  0  0  0  0  0  0  0  0  # atno 11005 bound_to 11000
  144.6726  140.1301  143.7444 LP  0  0  0  0  0  0  0  0  0  0  0  0  # atno 17320 bound_to 7965
  145.9088  139.2475  143.1449 LP  0  0  0  0  0  0  0  0  0  0  0  0  # atno 17321 bound_to 7965
  139.8897  144.6972  150.8784 LP  0  0  0  0  0  0  0  0  0  0  0  0  # atno 17342 bound_to 10162
  140.7746  143.3596  151.1854 LP  0  0  0  0  0  0  0  0  0  0  0  0  # atno 17343 bound_to 10162
  157.6724  131.0858  150.7578 LP  0  0  0  0  0  0  0  0  0  0  0  0  # atno 17370 bound_to 10713
  156.7641  130.4808  149.5431 LP  0  0  0  0  0  0  0  0  0  0  0  0  # atno 17371 bound_to 10713
  139.9639  135.0147  156.9335 LP  0  0  0  0  0  0  0  0  0  0  0  0  # atno 17394 bound_to 11000
  140.5439  134.0693  155.7349 LP  0  0  0  0  0  0  0  0  0  0  0  0  # atno 17395 bound_to 11000

$$$$
