AV-unprocessed.smi:787|AV-procd|sdf|3725|dock6
  -GOLD-   22720 1153D 1   1.00000     0.00000
 Structure written by MMmdl.
 47 49  0  0  0  0  0  0  0  0  2 V2000
  150.8599  134.4062  153.7977 C   0  0  0  0  0  0  0  0  0  0  0  0
  150.3328  135.7450  154.0109 N   0  0  0  0  0  0  0  0  0  0  0  0
  151.2000  136.8097  154.2942 C   0  0  0  0  0  0  0  0  0  0  0  0
  152.5379  136.6072  154.2881 N   0  0  0  0  0  0  0  0  0  0  0  0
  153.3313  137.6456  154.5807 C   0  0  0  0  0  0  0  0  0  0  0  0
  152.9924  138.9051  154.8955 N   0  0  0  0  0  0  0  0  0  0  0  0
  151.6697  139.1171  154.9016 C   0  0  0  0  0  0  0  0  0  0  0  0
  151.0430  140.3150  155.1972 N   0  0  0  0  0  0  0  0  0  0  0  0
  149.7610  139.9894  155.0617 C   0  0  0  0  0  0  0  0  0  0  0  0
  149.4726  138.7255  154.6906 N   0  0  0  0  0  0  0  0  0  0  0  0
  148.1441  138.1794  154.4476 C   0  0  0  0  0  0  0  0  0  0  0  0
  147.5624  138.5548  153.0641 C   0  0  2  0  0  0  0  0  0  0  0  0
  147.3727  139.9550  152.9972 O   0  0  0  0  0  0  0  0  0  0  0  0
  146.2107  137.8749  152.7627 C   0  0  0  0  0  0  0  0  0  0  0  0
  146.3558  136.4103  152.5535 N   0  3  1  0  0  0  0  0  0  0  0  0
  146.5580  135.6694  153.8192 C   0  0  0  0  0  0  0  0  0  0  0  0
  145.2735  135.8198  151.7262 C   0  0  0  0  0  0  0  0  0  0  0  0
  145.5051  134.3397  151.4694 C   0  0  0  0  0  0  0  0  0  0  0  0
  144.4146  133.4727  151.2405 C   0  0  0  0  0  0  0  0  0  0  0  0
  144.6382  132.1069  150.9800 C   0  0  0  0  0  0  0  0  0  0  0  0
  145.9520  131.6005  150.9546 C   0  0  0  0  0  0  0  0  0  0  0  0
  147.0422  132.4603  151.1904 C   0  0  0  0  0  0  0  0  0  0  0  0
  146.8194  133.8269  151.4479 C   0  0  0  0  0  0  0  0  0  0  0  0
  150.7157  138.0989  154.5972 C   0  0  0  0  0  0  0  0  0  0  0  0
  150.0413  133.7057  153.6321 H   0  0  0  0  0  0  0  0  0  0  0  0
  151.4254  134.0704  154.6675 H   0  0  0  0  0  0  0  0  0  0  0  0
  151.5127  134.3814  152.9244 H   0  0  0  0  0  0  0  0  0  0  0  0
  149.3395  135.8612  154.1462 H   0  0  0  0  0  0  0  0  0  0  0  0
  154.3912  137.4393  154.5655 H   0  0  0  0  0  0  0  0  0  0  0  0
  148.9830  140.7214  155.2220 H   0  0  0  0  0  0  0  0  0  0  0  0
  148.1785  137.0968  154.5687 H   0  0  0  0  0  0  0  0  0  0  0  0
  147.4803  138.5446  155.2324 H   0  0  0  0  0  0  0  0  0  0  0  0
  148.2927  138.2820  152.3024 H   0  0  0  0  0  0  0  0  0  0  0  0
  147.9739  140.3152  152.3625 H   0  0  0  0  0  0  0  0  0  0  0  0
  145.4976  138.0624  153.5669 H   0  0  0  0  0  0  0  0  0  0  0  0
  145.7809  138.3371  151.8761 H   0  0  0  0  0  0  0  0  0  0  0  0
  145.6686  135.7224  154.4488 H   0  0  0  0  0  0  0  0  0  0  0  0
  147.3993  136.0739  154.3820 H   0  0  0  0  0  0  0  0  0  0  0  0
  146.7729  134.6187  153.6209 H   0  0  0  0  0  0  0  0  0  0  0  0
  144.3168  135.9195  152.2412 H   0  0  0  0  0  0  0  0  0  0  0  0
  145.1798  136.3653  150.7857 H   0  0  0  0  0  0  0  0  0  0  0  0
  143.4034  133.8527  151.2537 H   0  0  0  0  0  0  0  0  0  0  0  0
  143.8021  131.4472  150.7988 H   0  0  0  0  0  0  0  0  0  0  0  0
  146.1233  130.5527  150.7552 H   0  0  0  0  0  0  0  0  0  0  0  0
  148.0497  132.0717  151.1715 H   0  0  0  0  0  0  0  0  0  0  0  0
  147.6612  134.4810  151.6226 H   0  0  0  0  0  0  0  0  0  0  0  0
  147.2007  136.2905  152.0124 H   0  0  0  0  0  0  0  0  0  0  0  0
  1  2  1  0  0  0  0
  1 25  1  0  0  0  0
  1 26  1  0  0  0  0
  1 27  1  0  0  0  0
  2  3  1  0  0  0  0
  2 28  1  0  0  0  0
  3 24  1  0  0  0  0
  3  4  2  0  0  0  0
  4  5  1  0  0  0  0
  5  6  2  0  0  0  0
  5 29  1  0  0  0  0
  6  7  1  0  0  0  0
  7 24  2  0  0  0  0
  7  8  1  0  0  0  0
  8  9  2  0  0  0  0
  9 10  1  0  0  0  0
  9 30  1  0  0  0  0
 10 11  1  0  0  0  0
 10 24  1  0  0  0  0
 11 12  1  0  0  0  0
 11 31  1  0  0  0  0
 11 32  1  0  0  0  0
 12 13  1  0  0  0  0
 12 14  1  0  0  0  0
 12 33  1  0  0  0  0
 13 34  1  0  0  0  0
 14 15  1  0  0  0  0
 14 35  1  0  0  0  0
 14 36  1  0  0  0  0
 15 16  1  0  0  0  0
 15 17  1  0  0  0  0
 15 47  1  0  0  0  0
 16 37  1  0  0  0  0
 16 38  1  0  0  0  0
 16 39  1  0  0  0  0
 17 18  1  0  0  0  0
 17 40  1  0  0  0  0
 17 41  1  0  0  0  0
 18 23  1  0  0  0  0
 18 19  2  0  0  0  0
 19 20  1  0  0  0  0
 19 42  1  0  0  0  0
 20 21  2  0  0  0  0
 20 43  1  0  0  0  0
 21 22  1  0  0  0  0
 21 44  1  0  0  0  0
 22 23  2  0  0  0  0
 22 45  1  0  0  0  0
 23 46  1  0  0  0  0
M  CHG  1  15   1
M  END
> <s_m_source_file>
AV-unprocessed.smi

> <i_m_source_file_index>
787

> <i_lp_mmshare_version>
43012

> <i_f3d_flags>
0

> <s_epik_input>
bjFbY0hdbmMoW05IXVtDSDNdKWMoYzEyKW4oW2NIXW4yKVtDSDJdW0NASF0oW09IXSlbQ0gyXU4oW0NIM10pW0NIMl1jM1tjSF1bY0hdW2NIXVtjSF1bY0hdMw==

> <s_epik_cmdline>
J2VwaWtfcHl0aG9uJywgJy1waCcsICc3LjAnLCAnLXRuJywgJzgnLCAnLW1hJywgJzIwMCcsICctbWV0YWxfYmluZGluZycsICctaW1hZScsICc8aW5maWxlLm1hZT4nLCAnLW9tYWUnLCAnPG91dGZpbGUubWFlPic=

> <r_lp_tautomer_probability>
0.999987

> <r_epik_Ionization_Penalty>
0.0526284

> <r_epik_Ionization_Penalty_Charging>
0.0475377

> <r_epik_Ionization_Penalty_Neutral>
0.00509065

> <r_epik_State_Penalty>
0.0404888

> <r_epik_Charging_Adjusted_Penalty>
0.0880265

> <i_epik_Tot_Q>
1

> <i_epik_Tot_abs_Q>
1

> <r_epik_Metal_State_Penalty>
0.040507

> <b_epik_Metal_Only>
0

> <s_lp_Force_Field>
OPLS_2005

> <r_lp_Energy>
14.0859

> <b_lp_Chiralities_Consistent>
1

> <s_lp_Variant>
AV-unprocessed.smi:787-1

> <Gold.Version>
5.8.1

> <Gold.Id.Protein>
6NUR|6NUR_protein|mol2

> <Gold.PLP.Fitness>
54.1814

> <Gold.PLP.PLP>
-41.1639

> <Gold.PLP.part.hbond>
-5.2837

> <Gold.PLP.part.metal>
0.0000

> <Gold.PLP.part.buried>
-0.2338

> <Gold.PLP.part.nonpolar>
-36.0433

> <Gold.PLP.part.repulsive>
0.2285

> <Gold.PLP.ligand.clash>
0.0000

> <Gold.PLP.ligand.torsion>
0.9115

> <Gold.PLP.Chemscore.Hbond>
4.8360

> <Gold.PLP.Chemscore.CHOScore>
0.0000

> <Gold.PLP.Chemscore.Metal>
0.0000

> <Gold.Chemscore.Hbonds>
donor molecule, donor type, donor heavy atom, donor atom, acceptor molecule, acceptor atom, score
      L1  H    13    34       P1  7957  0.98
      L1  H    15    47       P1  7948  2.00
      P1  H  7989  7998       L1     8  0.30
      P1  H  7997  8008       L1     6  0.57

> <Gold.PLP.Chemscore.Internal.Correction>
0.3326

> <Gold.Rescore>
     Score         DG    S(hbond)    S(metal)    S(lipo)     H(rot)  DE(clash)    DE(int)     intcor
     13.43     -15.85       3.29        0.00      64.68       3.19       0.17       2.24       ----

> <Gold.Chemscore.Fitness>
13.4346

> <Gold.Chemscore.DG>
-15.8508

> <Gold.Chemscore.ZeroCoef>
-5.4800

> <Gold.Chemscore.Hbond>
3.2865

> <Gold.Chemscore.Metal>
0.0000

> <Gold.Chemscore.Lipo>
64.6794

> <Gold.Chemscore.Internal_Hbond>
0.0000

> <Gold.Chemscore.DEClash>
0.1739

> <Gold.Chemscore.DEInternal>
2.2423

> <Gold.Chemscore.Rot>
3.1928

> <Gold.Chemscore.Internal.Correction>
   9.000000E+99

> <Gold.Chemscore.Hbonds>
donor molecule, donor type, donor heavy atom, donor atom, acceptor molecule, acceptor atom, score
      L1  H    13    34       P1  7957  0.87
      L1  H    15    47       P1  7948  0.98
      P1  H  7997  8008       L1     6  0.56
      P1  H 10752 10764       L1     4  0.02

> <Gold.Chemscore.Hbond.Weighted>
-10.9770

> <Gold.Chemscore.Metal.Weighted>
-0.0000

> <Gold.Chemscore.Lipo.Weighted>
-7.5675

> <Gold.Chemscore.Internal_Hbond.Weighted>
0.0000

> <Gold.Chemscore.DEClash.Weighted>
0.1739

> <Gold.Chemscore.DEInternal.Weighted>
2.2423

> <Gold.Chemscore.Rot.Weighted>
8.1736

> <Gold.Chemscore.Internal.Correction.Weighted>
   9.000000E+99

> <Gold.Protein.RotatedTorsions>
[ 6907 6896 6895 6894 ] final  123.00 input  -60.11 | X-H torsion
[ 7974 7965 7964 7962 ] final   34.02 input  175.53 | X-H torsion
[ 8008 7997 7996 7995 ] final  -26.40 input   59.86 | X-H torsion
[ 10167 10162 10161 10158 ] final   50.38 input  -65.29 | X-H torsion
[ 10718 10713 10712 10709 ] final -178.56 input   66.30 | X-H torsion
[ 10763 10752 10751 10750 ] final  -61.01 input  -60.55 | X-H torsion
[ 11005 11000 10999 10996 ] final  178.63 input  -57.11 | X-H torsion

> <Gold.Protein.ActiveResidues>
 VAL166  LYS551  ARG553  GLY616  TRP617  ASP618  TYR619  PRO620  LYS621  CYS622 
 ASP623  PHE694  ASN695  SER759  ASP760  ASP761  ALA762  ILE779  LEU786  VAL792 
 PHE793  MET794  SER795  GLU796  ALA797  LYS798  CYS799  TRP800  GLU811  SER814 

> <Gold.Protein.RotatedAtoms>
  152.4197  133.7096  159.6470 H   0  0  0  0  0  0  0  0  0  0  0  0  # atno 6907 bound_to 6896
  150.8073  133.8475  159.3205 H   0  0  0  0  0  0  0  0  0  0  0  0  # atno 6908 bound_to 6896
  151.6195  135.1035  160.0150 H   0  0  0  0  0  0  0  0  0  0  0  0  # atno 6909 bound_to 6896
  146.1381  139.6322  142.9181 H   0  0  0  0  0  0  0  0  0  0  0  0  # atno 7974 bound_to 7965
  154.4427  140.1900  156.0769 H   0  0  0  0  0  0  0  0  0  0  0  0  # atno 8008 bound_to 7997
  156.0468  140.3313  155.7279 H   0  0  0  0  0  0  0  0  0  0  0  0  # atno 8009 bound_to 7997
  155.5617  140.0604  157.2818 H   0  0  0  0  0  0  0  0  0  0  0  0  # atno 8010 bound_to 7997
  140.2730  144.3243  150.6285 H   0  0  0  0  0  0  0  0  0  0  0  0  # atno 10167 bound_to 10162
  156.8461  130.9703  151.3096 H   0  0  0  0  0  0  0  0  0  0  0  0  # atno 10718 bound_to 10713
  154.2781  135.6277  153.5336 H   0  0  0  0  0  0  0  0  0  0  0  0  # atno 10763 bound_to 10752
  152.9870  135.5626  154.5526 H   0  0  0  0  0  0  0  0  0  0  0  0  # atno 10764 bound_to 10752
  154.5111  135.2877  155.1317 H   0  0  0  0  0  0  0  0  0  0  0  0  # atno 10765 bound_to 10752
  140.3972  134.6810  157.4541 H   0  0  0  0  0  0  0  0  0  0  0  0  # atno 11005 bound_to 11000
  145.5110  141.0435  143.2488 LP  0  0  0  0  0  0  0  0  0  0  0  0  # atno 17320 bound_to 7965
  144.7762  139.6625  143.7174 LP  0  0  0  0  0  0  0  0  0  0  0  0  # atno 17321 bound_to 7965
  140.5874  143.2169  151.7317 LP  0  0  0  0  0  0  0  0  0  0  0  0  # atno 17342 bound_to 10162
  139.4983  144.3991  152.0200 LP  0  0  0  0  0  0  0  0  0  0  0  0  # atno 17343 bound_to 10162
  157.6329  130.8743  149.9306 LP  0  0  0  0  0  0  0  0  0  0  0  0  # atno 17370 bound_to 10713
  156.0854  130.3668  150.0498 LP  0  0  0  0  0  0  0  0  0  0  0  0  # atno 17371 bound_to 10713
  140.0363  134.6332  155.9039 LP  0  0  0  0  0  0  0  0  0  0  0  0  # atno 17394 bound_to 11000
  141.1870  133.6558  156.5262 LP  0  0  0  0  0  0  0  0  0  0  0  0  # atno 17395 bound_to 11000

$$$$
