AV-unprocessed.smi:3078|AV-procd|sdf|11733|dock7
  -GOLD-   2272017133D 1   1.00000     0.00000
 Structure written by MMmdl.
 23 23  0  0  0  0  0  0  0  0  2 V2000
  146.3090  129.1287  152.6103 C   0  0  0  0  0  0  0  0  0  0  0  0
  145.9914  130.4250  152.0505 N   0  0  0  0  0  0  0  0  0  0  0  0
  144.9039  130.7894  151.2870 C   0  0  0  0  0  0  0  0  0  0  0  0
  145.0397  132.1162  150.9814 C   0  0  0  0  0  0  0  0  0  0  0  0
  144.1350  133.0102  150.1699 C   0  0  2  0  0  0  0  0  0  0  0  0
  142.8507  133.1762  150.8696 N   0  3  0  0  0  0  0  0  0  0  0  0
  143.9002  132.4873  148.7399 C   0  0  0  0  0  0  0  0  0  0  0  0
  143.2024  133.4730  147.9362 N   0  0  0  0  0  0  0  0  0  0  0  0
  146.2631  132.4733  151.6186 C   0  0  0  0  0  0  0  0  0  0  0  0
  146.8278  131.4621  152.2571 N   0  0  0  0  0  0  0  0  0  0  0  0
  145.4482  128.4645  152.5272 H   0  0  0  0  0  0  0  0  0  0  0  0
  146.5747  129.2324  153.6629 H   0  0  0  0  0  0  0  0  0  0  0  0
  147.1487  128.6913  152.0696 H   0  0  0  0  0  0  0  0  0  0  0  0
  144.1333  130.0797  151.0233 H   0  0  0  0  0  0  0  0  0  0  0  0
  144.5682  134.0091  150.0993 H   0  0  0  0  0  0  0  0  0  0  0  0
  143.0167  133.5542  151.7913 H   0  0  0  0  0  0  0  0  0  0  0  0
  142.3936  132.2796  150.9513 H   0  0  0  0  0  0  0  0  0  0  0  0
  144.8421  132.2256  148.2568 H   0  0  0  0  0  0  0  0  0  0  0  0
  143.2907  131.5834  148.7656 H   0  0  0  0  0  0  0  0  0  0  0  0
  142.6608  133.0115  147.2190 H   0  0  0  0  0  0  0  0  0  0  0  0
  142.5451  133.9848  148.5078 H   0  0  0  0  0  0  0  0  0  0  0  0
  146.7557  133.4345  151.6348 H   0  0  0  0  0  0  0  0  0  0  0  0
  142.2613  133.8087  150.3474 H   0  0  0  0  0  0  0  0  0  0  0  0
  1  2  1  0  0  0  0
  1 11  1  0  0  0  0
  1 12  1  0  0  0  0
  1 13  1  0  0  0  0
  2 10  1  0  0  0  0
  2  3  1  0  0  0  0
  3  4  2  0  0  0  0
  3 14  1  0  0  0  0
  4  5  1  0  0  0  0
  4  9  1  0  0  0  0
  5  6  1  0  0  0  0
  5  7  1  0  0  0  0
  5 15  1  0  0  0  0
  6 16  1  0  0  0  0
  6 17  1  0  0  0  0
  6 23  1  0  0  0  0
  7  8  1  0  0  0  0
  7 18  1  0  0  0  0
  7 19  1  0  0  0  0
  8 20  1  0  0  0  0
  8 21  1  0  0  0  0
  9 10  2  0  0  0  0
  9 22  1  0  0  0  0
M  CHG  1   6   1
M  END
> <s_m_source_file>
AV-unprocessed.smi

> <i_m_source_file_index>
3078

> <i_lp_mmshare_version>
43012

> <i_f3d_flags>
0

> <s_epik_input>
W0NIM11uMVtjSF1jKFtjSF1uMSlbQ0BIXShbTkgyXSlbQ0gyXVtOSDJd

> <s_epik_cmdline>
J2VwaWtfcHl0aG9uJywgJy1waCcsICc3LjAnLCAnLXRuJywgJzgnLCAnLW1hJywgJzIwMCcsICctbWV0YWxfYmluZGluZycsICctaW1hZScsICc8aW5maWxlLm1hZT4nLCAnLW9tYWUnLCAnPG91dGZpbGUubWFlPic=

> <r_epik_Ionization_Penalty>
0.19937

> <r_epik_Ionization_Penalty_Charging>
0.0290541

> <r_epik_Ionization_Penalty_Neutral>
0.170316

> <r_epik_State_Penalty>
1.07715

> <r_epik_Charging_Adjusted_Penalty>
1.1062

> <i_epik_Tot_Q>
1

> <i_epik_Tot_abs_Q>
1

> <r_epik_Metal_State_Penalty>
1.07718

> <b_epik_Metal_Only>
0

> <s_lp_Force_Field>
OPLS_2005

> <r_lp_Energy>
0.880803

> <b_lp_Chiralities_Consistent>
1

> <s_lp_Variant>
AV-unprocessed.smi:3078-3

> <Gold.Version>
5.8.1

> <Gold.Id.Protein>
6NUR|6NUR_protein|mol2

> <Gold.PLP.Fitness>
37.7446

> <Gold.PLP.PLP>
-25.8770

> <Gold.PLP.part.hbond>
-4.6258

> <Gold.PLP.part.metal>
0.0000

> <Gold.PLP.part.buried>
-4.6192

> <Gold.PLP.part.nonpolar>
-16.8274

> <Gold.PLP.part.repulsive>
0.7106

> <Gold.PLP.ligand.clash>
0.0000

> <Gold.PLP.ligand.torsion>
0.0730

> <Gold.PLP.Chemscore.Hbond>
4.0000

> <Gold.PLP.Chemscore.CHOScore>
0.0000

> <Gold.PLP.Chemscore.Metal>
0.0000

> <Gold.Chemscore.Hbonds>
donor molecule, donor type, donor heavy atom, donor atom, acceptor molecule, acceptor atom, score
      L1  H     6    23       P1 10186  2.00
      L1  H     8    20       P1 10195  0.91
      L1  H     8    21       P1 10186  1.00

> <Gold.PLP.Chemscore.Internal.Correction>
0.0134

> <Gold.Rescore>
     Score         DG    S(hbond)    S(metal)    S(lipo)     H(rot)  DE(clash)    DE(int)     intcor
     18.00     -18.13       2.94        0.00      54.95       1.40       0.07       0.05       ----

> <Gold.Chemscore.Fitness>
18.0045

> <Gold.Chemscore.DG>
-18.1266

> <Gold.Chemscore.ZeroCoef>
-5.4800

> <Gold.Chemscore.Hbond>
2.9381

> <Gold.Chemscore.Metal>
0.0000

> <Gold.Chemscore.Lipo>
54.9470

> <Gold.Chemscore.Internal_Hbond>
0.0000

> <Gold.Chemscore.DEClash>
0.0727

> <Gold.Chemscore.DEInternal>
0.0493

> <Gold.Chemscore.Rot>
1.4045

> <Gold.Chemscore.Internal.Correction>
   9.000000E+99

> <Gold.Chemscore.Hbonds>
donor molecule, donor type, donor heavy atom, donor atom, acceptor molecule, acceptor atom, score
      L1  H     6    23       P1 10186  0.95
      L1  H     8    20       P1 10195  0.89
      L1  H     8    21       P1 10186  1.00

> <Gold.Chemscore.Hbond.Weighted>
-9.8134

> <Gold.Chemscore.Metal.Weighted>
-0.0000

> <Gold.Chemscore.Lipo.Weighted>
-6.4288

> <Gold.Chemscore.Internal_Hbond.Weighted>
0.0000

> <Gold.Chemscore.DEClash.Weighted>
0.0727

> <Gold.Chemscore.DEInternal.Weighted>
0.0493

> <Gold.Chemscore.Rot.Weighted>
3.5956

> <Gold.Chemscore.Internal.Correction.Weighted>
   9.000000E+99

> <Gold.Protein.RotatedTorsions>
[ 6907 6896 6895 6894 ] final  -41.66 input  -60.11 | X-H torsion
[ 7974 7965 7964 7962 ] final  145.76 input  175.53 | X-H torsion
[ 8008 7997 7996 7995 ] final  -41.83 input   59.86 | X-H torsion
[ 10167 10162 10161 10158 ] final  159.43 input  -65.29 | X-H torsion
[ 10718 10713 10712 10709 ] final  100.56 input   66.30 | X-H torsion
[ 10763 10752 10751 10750 ] final   80.33 input  -60.55 | X-H torsion
[ 11005 11000 10999 10996 ] final   99.40 input  -57.11 | X-H torsion

> <Gold.Protein.ActiveResidues>
 VAL166  LYS551  ARG553  GLY616  TRP617  ASP618  TYR619  PRO620  LYS621  CYS622 
 ASP623  PHE694  ASN695  SER759  ASP760  ASP761  ALA762  ILE779  LEU786  VAL792 
 PHE793  MET794  SER795  GLU796  ALA797  LYS798  CYS799  TRP800  GLU811  SER814 

> <Gold.Protein.RotatedAtoms>
  150.9642  134.9025  159.7748 H   0  0  0  0  0  0  0  0  0  0  0  0  # atno 6907 bound_to 6896
  152.5167  134.3631  159.9302 H   0  0  0  0  0  0  0  0  0  0  0  0  # atno 6908 bound_to 6896
  151.3642  133.3837  159.2727 H   0  0  0  0  0  0  0  0  0  0  0  0  # atno 6909 bound_to 6896
  144.8726  139.5823  143.5880 H   0  0  0  0  0  0  0  0  0  0  0  0  # atno 7974 bound_to 7965
  154.4002  140.1489  156.3255 H   0  0  0  0  0  0  0  0  0  0  0  0  # atno 8008 bound_to 7997
  155.8490  140.3458  155.5660 H   0  0  0  0  0  0  0  0  0  0  0  0  # atno 8009 bound_to 7997
  155.8004  140.0869  157.1950 H   0  0  0  0  0  0  0  0  0  0  0  0  # atno 8010 bound_to 7997
  139.4832  144.4731  151.8549 H   0  0  0  0  0  0  0  0  0  0  0  0  # atno 10167 bound_to 10162
  157.6851  131.0702  150.5119 H   0  0  0  0  0  0  0  0  0  0  0  0  # atno 10718 bound_to 10713
  153.1025  135.4806  154.8891 H   0  0  0  0  0  0  0  0  0  0  0  0  # atno 10763 bound_to 10752
  154.7394  135.3078  154.8757 H   0  0  0  0  0  0  0  0  0  0  0  0  # atno 10764 bound_to 10752
  153.9370  135.6838  153.4798 H   0  0  0  0  0  0  0  0  0  0  0  0  # atno 10765 bound_to 10752
  139.8771  134.9094  156.4600 H   0  0  0  0  0  0  0  0  0  0  0  0  # atno 11005 bound_to 11000
  146.2940  139.7224  142.9140 LP  0  0  0  0  0  0  0  0  0  0  0  0  # atno 17320 bound_to 7965
  145.4103  141.0395  143.3021 LP  0  0  0  0  0  0  0  0  0  0  0  0  # atno 17321 bound_to 7965
  140.4201  144.2254  150.5887 LP  0  0  0  0  0  0  0  0  0  0  0  0  # atno 17342 bound_to 10162
  140.4882  143.2356  151.8857 LP  0  0  0  0  0  0  0  0  0  0  0  0  # atno 17343 bound_to 10162
  156.5436  130.4214  149.6142 LP  0  0  0  0  0  0  0  0  0  0  0  0  # atno 17370 bound_to 10713
  156.2963  130.7152  151.2013 LP  0  0  0  0  0  0  0  0  0  0  0  0  # atno 17371 bound_to 10713
  140.8871  133.7875  155.9530 LP  0  0  0  0  0  0  0  0  0  0  0  0  # atno 17394 bound_to 11000
  140.8793  134.2631  157.5152 LP  0  0  0  0  0  0  0  0  0  0  0  0  # atno 17395 bound_to 11000

$$$$
