AV-unprocessed.smi:102|AV-procd|sdf|970|dock9
  -GOLD-   2262017523D 1   1.00000     0.00000
 Structure written by MMmdl.
 43 44  0  0  0  0  0  0  0  0  2 V2000
  144.1439  137.8711  160.6627 C   0  0  0  0  0  0  0  0  0  0  0  0
  144.8890  138.1170  159.3574 C   0  0  0  0  0  0  0  0  0  0  0  0
  145.3090  139.2353  159.0588 O   0  0  0  0  0  0  0  0  0  0  0  0
  145.0162  136.9974  158.6223 O   0  0  0  0  0  0  0  0  0  0  0  0
  145.7647  137.0106  157.4143 C   0  0  0  0  0  0  0  0  0  0  0  0
  147.0996  136.2685  157.5850 C   0  0  1  0  0  0  0  0  0  0  0  0
  148.0178  136.6625  156.5788 O   0  0  0  0  0  0  0  0  0  0  0  0
  149.3049  136.3532  157.0062 C   0  0  1  0  0  0  0  0  0  0  0  0
  150.2776  137.3214  156.3700 N   0  0  0  0  0  0  0  0  0  0  0  0
  150.0835  138.6890  156.4704 C   0  0  0  0  0  0  0  0  0  0  0  0
  150.9572  139.5590  155.9242 C   0  0  0  0  0  0  0  0  0  0  0  0
  150.7450  140.8814  156.0382 F   0  0  0  0  0  0  0  0  0  0  0  0
  152.1331  139.0548  155.2165 C   0  0  0  0  0  0  0  0  0  0  0  0
  152.9211  139.8529  154.7115 O   0  0  0  0  0  0  0  0  0  0  0  0
  152.3074  137.7026  155.1504 N   0  5  0  0  0  0  0  0  0  0  0  0
  151.4299  136.8181  155.7088 C   0  0  0  0  0  0  0  0  0  0  0  0
  151.5907  135.5977  155.6784 O   0  0  0  0  0  0  0  0  0  0  0  0
  149.3043  136.4133  158.5479 C   0  0  1  0  0  0  0  0  0  0  0  0
  150.0972  137.4849  159.0499 O   0  0  0  0  0  0  0  0  0  0  0  0
  151.4358  137.4384  158.9622 C   0  0  0  0  0  0  0  0  0  0  0  0
  152.0884  138.7406  159.4054 C   0  0  0  0  0  0  0  0  0  0  0  0
  152.1060  136.4792  158.5795 O   0  0  0  0  0  0  0  0  0  0  0  0
  147.8318  136.6332  158.8788 C   0  0  2  0  0  0  0  0  0  0  0  0
  147.4612  135.7711  159.9472 O   0  0  0  0  0  0  0  0  0  0  0  0
  147.9285  135.9826  161.1889 C   0  0  0  0  0  0  0  0  0  0  0  0
  147.4872  134.9013  162.1658 C   0  0  0  0  0  0  0  0  0  0  0  0
  148.6344  136.9243  161.5497 O   0  0  0  0  0  0  0  0  0  0  0  0
  144.7358  137.2364  161.3224 H   0  0  0  0  0  0  0  0  0  0  0  0
  143.1913  137.3779  160.4690 H   0  0  0  0  0  0  0  0  0  0  0  0
  143.9468  138.8131  161.1747 H   0  0  0  0  0  0  0  0  0  0  0  0
  145.1934  136.6088  156.5760 H   0  0  0  0  0  0  0  0  0  0  0  0
  145.9639  138.0558  157.1788 H   0  0  0  0  0  0  0  0  0  0  0  0
  146.9563  135.1876  157.5290 H   0  0  0  0  0  0  0  0  0  0  0  0
  149.5543  135.3627  156.6217 H   0  0  0  0  0  0  0  0  0  0  0  0
  149.2255  139.0765  156.9994 H   0  0  0  0  0  0  0  0  0  0  0  0
  149.6632  135.4479  158.9093 H   0  0  0  0  0  0  0  0  0  0  0  0
  151.7988  139.5530  158.7386 H   0  0  0  0  0  0  0  0  0  0  0  0
  153.1747  138.6506  159.3906 H   0  0  0  0  0  0  0  0  0  0  0  0
  151.7761  138.9952  160.4182 H   0  0  0  0  0  0  0  0  0  0  0  0
  147.6719  137.6881  159.1096 H   0  0  0  0  0  0  0  0  0  0  0  0
  148.1032  134.0103  162.0442 H   0  0  0  0  0  0  0  0  0  0  0  0
  146.4456  134.6302  161.9917 H   0  0  0  0  0  0  0  0  0  0  0  0
  147.5845  135.2524  163.1931 H   0  0  0  0  0  0  0  0  0  0  0  0
  1  2  1  0  0  0  0
  1 28  1  0  0  0  0
  1 29  1  0  0  0  0
  1 30  1  0  0  0  0
  2  3  2  0  0  0  0
  2  4  1  0  0  0  0
  4  5  1  0  0  0  0
  5  6  1  0  0  0  0
  5 31  1  0  0  0  0
  5 32  1  0  0  0  0
  6 23  1  0  0  0  0
  6  7  1  0  0  0  0
  6 33  1  0  0  0  0
  7  8  1  0  0  0  0
  8  9  1  0  0  0  0
  8 18  1  0  0  0  0
  8 34  1  0  0  0  0
  9 16  1  0  0  0  0
  9 10  1  0  0  0  0
 10 11  2  0  0  0  0
 10 35  1  0  0  0  0
 11 12  1  0  0  0  0
 11 13  1  0  0  0  0
 13 14  2  0  0  0  0
 13 15  1  0  0  0  0
 15 16  1  0  0  0  0
 16 17  2  0  0  0  0
 18 19  1  0  0  0  0
 18 23  1  0  0  0  0
 18 36  1  0  0  0  0
 19 20  1  0  0  0  0
 20 21  1  0  0  0  0
 20 22  2  0  0  0  0
 21 37  1  0  0  0  0
 21 38  1  0  0  0  0
 21 39  1  0  0  0  0
 23 24  1  0  0  0  0
 23 40  1  0  0  0  0
 24 25  1  0  0  0  0
 25 26  1  0  0  0  0
 25 27  2  0  0  0  0
 26 41  1  0  0  0  0
 26 42  1  0  0  0  0
 26 43  1  0  0  0  0
M  CHG  1  15  -1
M  END
> <s_m_source_file>
AV-unprocessed.smi

> <i_m_source_file_index>
102

> <i_lp_mmshare_version>
43012

> <i_f3d_flags>
0

> <s_epik_input>
W0NIM11DKD1PKU9bQ0gyXVtDQEBIXTFPW0NASF0oW0NAQEhdKE9DKD1PKVtDSDNdKVtDQEhdMU9DKD1PKVtDSDNdKW4yW2NIXWMoRiljKD1PKVtuSF1jMj1P

> <s_epik_cmdline>
J2VwaWtfcHl0aG9uJywgJy1waCcsICc3LjAnLCAnLXRuJywgJzgnLCAnLW1hJywgJzIwMCcsICctbWV0YWxfYmluZGluZycsICctaW1hZScsICc8aW5maWxlLm1hZT4nLCAnLW9tYWUnLCAnPG91dGZpbGUubWFlPic=

> <r_epik_Ionization_Penalty>
1.40304

> <r_epik_Ionization_Penalty_Charging>
1.43915e-08

> <r_epik_Ionization_Penalty_Neutral>
1.40304

> <r_epik_State_Penalty>
1.48536

> <r_epik_Charging_Adjusted_Penalty>
1.48536

> <i_epik_Tot_Q>
-1

> <i_epik_Tot_abs_Q>
1

> <r_epik_Metal_State_Penalty>
0.00663881

> <b_epik_Metal_Only>
0

> <s_epik_Chemistry_Notes>
This compound has an ester and may undergo hydrolysis at high or low pH. This compound contains an acetal/aminal-like group ( X-CH(R)-Y where X, Y are N, S, or O) that may be acid/base labile, releasing an aldehyde.

> <s_lp_Force_Field>
OPLS_2005

> <r_lp_Energy>
20.3433

> <b_lp_Chiralities_Consistent>
1

> <s_lp_Variant>
AV-unprocessed.smi:102-26

> <Gold.Version>
5.8.1

> <Gold.Id.Protein>
6NUR|6NUR_protein|mol2

> <Gold.PLP.Fitness>
40.0180

> <Gold.PLP.PLP>
-30.1856

> <Gold.PLP.part.hbond>
-6.6457

> <Gold.PLP.part.metal>
0.0000

> <Gold.PLP.part.buried>
-4.0898

> <Gold.PLP.part.nonpolar>
-19.8908

> <Gold.PLP.part.repulsive>
0.1868

> <Gold.PLP.ligand.clash>
0.0000

> <Gold.PLP.ligand.torsion>
0.7645

> <Gold.PLP.Chemscore.Hbond>
3.7328

> <Gold.PLP.Chemscore.CHOScore>
0.0000

> <Gold.PLP.Chemscore.Metal>
0.0000

> <Gold.Chemscore.Hbonds>
donor molecule, donor type, donor heavy atom, donor atom, acceptor molecule, acceptor atom, score
      P1  H  6896  6907       L1    22  0.59
      P1  H  6931  6943       L1    27  0.73
      P1  H  7989  7998       L1    14  0.37
      P1  H  7997  8008       L1    14  1.00
      P1  H 10752 10764       L1    17  1.00

> <Gold.PLP.Chemscore.Internal.Correction>
0.1630

> <Gold.Rescore>
     Score         DG    S(hbond)    S(metal)    S(lipo)     H(rot)  DE(clash)    DE(int)     intcor
      6.24     -10.86       3.66        0.00      29.06       4.00       0.25       4.37       ----

> <Gold.Chemscore.Fitness>
6.2415

> <Gold.Chemscore.DG>
-10.8620

> <Gold.Chemscore.ZeroCoef>
-5.4800

> <Gold.Chemscore.Hbond>
3.6554

> <Gold.Chemscore.Metal>
0.0000

> <Gold.Chemscore.Lipo>
29.0629

> <Gold.Chemscore.Internal_Hbond>
0.0000

> <Gold.Chemscore.DEClash>
0.2484

> <Gold.Chemscore.DEInternal>
4.3721

> <Gold.Chemscore.Rot>
3.9951

> <Gold.Chemscore.Internal.Correction>
   9.000000E+99

> <Gold.Chemscore.Hbonds>
donor molecule, donor type, donor heavy atom, donor atom, acceptor molecule, acceptor atom, score
      P1  H  6896  6907       L1    22  0.26
      P1  H  6931  6943       L1    27  0.73
      P1  H  7989  7998       L1    14  0.10
      P1  H  7997  8008       L1    14  0.93
      P1  H 10752 10764       L1    17  0.35

> <Gold.Chemscore.Hbond.Weighted>
-12.2090

> <Gold.Chemscore.Metal.Weighted>
-0.0000

> <Gold.Chemscore.Lipo.Weighted>
-3.4004

> <Gold.Chemscore.Internal_Hbond.Weighted>
0.0000

> <Gold.Chemscore.DEClash.Weighted>
0.2484

> <Gold.Chemscore.DEInternal.Weighted>
4.3721

> <Gold.Chemscore.Rot.Weighted>
10.2274

> <Gold.Chemscore.Internal.Correction.Weighted>
   9.000000E+99

> <Gold.Protein.RotatedTorsions>
[ 6907 6896 6895 6894 ] final   16.17 input  -60.11 | X-H torsion
[ 7974 7965 7964 7962 ] final   -8.34 input  175.53 | X-H torsion
[ 8008 7997 7996 7995 ] final    4.41 input   59.86 | X-H torsion
[ 10167 10162 10161 10158 ] final  156.37 input  -65.29 | X-H torsion
[ 10718 10713 10712 10709 ] final  125.24 input   66.30 | X-H torsion
[ 10763 10752 10751 10750 ] final  -36.15 input  -60.55 | X-H torsion
[ 11005 11000 10999 10996 ] final -126.20 input  -57.11 | X-H torsion

> <Gold.Protein.ActiveResidues>
 VAL166  LYS551  ARG553  GLY616  TRP617  ASP618  TYR619  PRO620  LYS621  CYS622 
 ASP623  PHE694  ASN695  SER759  ASP760  ASP761  ALA762  ILE779  LEU786  VAL792 
 PHE793  MET794  SER795  GLU796  ALA797  LYS798  CYS799  TRP800  GLU811  SER814 

> <Gold.Protein.RotatedAtoms>
  151.8296  135.0625  160.0434 H   0  0  0  0  0  0  0  0  0  0  0  0  # atno 6907 bound_to 6896
  152.2890  133.5538  159.5554 H   0  0  0  0  0  0  0  0  0  0  0  0  # atno 6908 bound_to 6896
  150.7222  134.0372  159.3795 H   0  0  0  0  0  0  0  0  0  0  0  0  # atno 6909 bound_to 6896
  146.2283  140.2454  142.8345 H   0  0  0  0  0  0  0  0  0  0  0  0  # atno 7974 bound_to 7965
  154.7155  140.2701  155.6589 H   0  0  0  0  0  0  0  0  0  0  0  0  # atno 8008 bound_to 7997
  156.2808  140.2745  156.1735 H   0  0  0  0  0  0  0  0  0  0  0  0  # atno 8009 bound_to 7997
  155.0577  140.0371  157.2556 H   0  0  0  0  0  0  0  0  0  0  0  0  # atno 8010 bound_to 7997
  139.4821  144.5015  151.8161 H   0  0  0  0  0  0  0  0  0  0  0  0  # atno 10167 bound_to 10162
  157.5519  131.1093  150.8687 H   0  0  0  0  0  0  0  0  0  0  0  0  # atno 10718 bound_to 10713
  153.8750  135.6827  153.4771 H   0  0  0  0  0  0  0  0  0  0  0  0  # atno 10763 bound_to 10752
  153.1266  135.4716  154.9280 H   0  0  0  0  0  0  0  0  0  0  0  0  # atno 10764 bound_to 10752
  154.7696  135.3234  154.8167 H   0  0  0  0  0  0  0  0  0  0  0  0  # atno 10765 bound_to 10752
  140.9700  134.0818  157.3879 H   0  0  0  0  0  0  0  0  0  0  0  0  # atno 11005 bound_to 11000
  144.9452  140.8121  143.5606 LP  0  0  0  0  0  0  0  0  0  0  0  0  # atno 17320 bound_to 7965
  145.2409  139.2073  143.4993 LP  0  0  0  0  0  0  0  0  0  0  0  0  # atno 17321 bound_to 7965
  140.4508  144.1857  150.5897 LP  0  0  0  0  0  0  0  0  0  0  0  0  # atno 17342 bound_to 10162
  140.4586  143.2458  151.9250 LP  0  0  0  0  0  0  0  0  0  0  0  0  # atno 17343 bound_to 10162
  156.9209  130.5315  149.5279 LP  0  0  0  0  0  0  0  0  0  0  0  0  # atno 17370 bound_to 10713
  156.0584  130.5641  150.9141 LP  0  0  0  0  0  0  0  0  0  0  0  0  # atno 17371 bound_to 10713
  139.8909  135.0115  156.6760 LP  0  0  0  0  0  0  0  0  0  0  0  0  # atno 17394 bound_to 11000
  140.7342  133.9032  155.8233 LP  0  0  0  0  0  0  0  0  0  0  0  0  # atno 17395 bound_to 11000

$$$$
