AV-unprocessed.smi:2953|AV-procd|sdf|11296|dock7
  -GOLD-   2272016193D 1   1.00000     0.00000
 Structure written by MMmdl.
 46 48  0  0  0  0  0  0  0  0  2 V2000
  147.3604  137.0249  163.0260 C   0  0  0  0  0  0  0  0  0  0  0  0
  147.3231  135.8182  162.1078 C   0  0  0  0  0  0  0  0  0  0  0  0
  146.9541  134.5645  162.6389 C   0  0  0  0  0  0  0  0  0  0  0  0
  146.9120  133.4271  161.8132 C   0  0  0  0  0  0  0  0  0  0  0  0
  147.2419  133.5404  160.4516 C   0  0  0  0  0  0  0  0  0  0  0  0
  147.6126  134.7884  159.9162 C   0  0  0  0  0  0  0  0  0  0  0  0
  147.6579  135.9446  160.7379 C   0  0  0  0  0  0  0  0  0  0  0  0
  148.0152  137.1952  160.2742 O   0  0  0  0  0  0  0  0  0  0  0  0
  147.9523  137.4360  158.8740 C   0  0  0  0  0  0  0  0  0  0  0  0
  149.2107  136.8772  158.1961 C   0  0  0  0  0  0  0  0  0  0  0  0
  149.3104  137.2623  156.7797 N   0  0  0  0  0  0  0  0  0  0  0  0
  149.2529  136.5105  155.6401 C   0  0  0  0  0  0  0  0  0  0  0  0
  149.0833  135.0216  155.5398 C   0  0  1  0  0  0  0  0  0  0  0  0
  147.8076  134.5609  156.2608 C   0  0  0  0  0  0  0  0  0  0  0  0
  149.0354  134.5788  154.1515 N   0  0  0  0  0  0  0  0  0  0  0  0
  148.9545  133.2999  153.7639 C   0  0  0  0  0  0  0  0  0  0  0  0
  148.9101  132.3611  154.5544 O   0  0  0  0  0  0  0  0  0  0  0  0
  149.4282  137.3643  154.5901 N   0  3  0  0  0  0  0  0  0  0  0  0
  149.5791  138.6694  155.0572 C   0  0  0  0  0  0  0  0  0  0  0  0
  149.7739  139.8656  154.3735 C   0  0  0  0  0  0  0  0  0  0  0  0
  149.8951  141.0307  155.1590 C   0  0  0  0  0  0  0  0  0  0  0  0
  149.8205  140.9782  156.5661 C   0  0  0  0  0  0  0  0  0  0  0  0
  149.6218  139.7591  157.2473 C   0  0  0  0  0  0  0  0  0  0  0  0
  149.5043  138.6117  156.4630 C   0  0  0  0  0  0  0  0  0  0  0  0
  146.7392  136.8661  163.9080 H   0  0  0  0  0  0  0  0  0  0  0  0
  146.9947  137.9189  162.5202 H   0  0  0  0  0  0  0  0  0  0  0  0
  148.3821  137.2044  163.3589 H   0  0  0  0  0  0  0  0  0  0  0  0
  146.7017  134.4699  163.6849 H   0  0  0  0  0  0  0  0  0  0  0  0
  146.6279  132.4696  162.2243 H   0  0  0  0  0  0  0  0  0  0  0  0
  147.2118  132.6681  159.8155 H   0  0  0  0  0  0  0  0  0  0  0  0
  147.8619  134.8287  158.8669 H   0  0  0  0  0  0  0  0  0  0  0  0
  147.0629  136.9670  158.4506 H   0  0  0  0  0  0  0  0  0  0  0  0
  147.8922  138.5079  158.6795 H   0  0  0  0  0  0  0  0  0  0  0  0
  150.1106  137.2133  158.7125 H   0  0  0  0  0  0  0  0  0  0  0  0
  149.2149  135.7901  158.2583 H   0  0  0  0  0  0  0  0  0  0  0  0
  149.9296  134.5392  156.0310 H   0  0  0  0  0  0  0  0  0  0  0  0
  147.8076  134.8844  157.3011 H   0  0  0  0  0  0  0  0  0  0  0  0
  147.7238  133.4736  156.2536 H   0  0  0  0  0  0  0  0  0  0  0  0
  146.9098  134.9642  155.7906 H   0  0  0  0  0  0  0  0  0  0  0  0
  149.0640  135.2915  153.4366 H   0  0  0  0  0  0  0  0  0  0  0  0
  148.9314  133.2009  152.6682 H   0  0  0  0  0  0  0  0  0  0  0  0
  149.8318  139.9080  153.2956 H   0  0  0  0  0  0  0  0  0  0  0  0
  150.0489  141.9835  154.6729 H   0  0  0  0  0  0  0  0  0  0  0  0
  149.9188  141.8915  157.1352 H   0  0  0  0  0  0  0  0  0  0  0  0
  149.5653  139.7300  158.3253 H   0  0  0  0  0  0  0  0  0  0  0  0
  149.4421  137.0697  153.6223 H   0  0  0  0  0  0  0  0  0  0  0  0
  1  2  1  0  0  0  0
  1 25  1  0  0  0  0
  1 26  1  0  0  0  0
  1 27  1  0  0  0  0
  2  7  1  0  0  0  0
  2  3  2  0  0  0  0
  3  4  1  0  0  0  0
  3 28  1  0  0  0  0
  4  5  2  0  0  0  0
  4 29  1  0  0  0  0
  5  6  1  0  0  0  0
  5 30  1  0  0  0  0
  6  7  2  0  0  0  0
  6 31  1  0  0  0  0
  7  8  1  0  0  0  0
  8  9  1  0  0  0  0
  9 10  1  0  0  0  0
  9 32  1  0  0  0  0
  9 33  1  0  0  0  0
 10 11  1  0  0  0  0
 10 34  1  0  0  0  0
 10 35  1  0  0  0  0
 11 24  1  0  0  0  0
 11 12  1  0  0  0  0
 12 13  1  0  0  0  0
 12 18  2  0  0  0  0
 13 14  1  0  0  0  0
 13 15  1  0  0  0  0
 13 36  1  0  0  0  0
 14 37  1  0  0  0  0
 14 38  1  0  0  0  0
 14 39  1  0  0  0  0
 15 16  1  0  0  0  0
 15 40  1  0  0  0  0
 16 17  2  0  0  0  0
 16 41  1  0  0  0  0
 18 19  1  0  0  0  0
 18 46  1  0  0  0  0
 19 24  2  0  0  0  0
 19 20  1  0  0  0  0
 20 21  2  0  0  0  0
 20 42  1  0  0  0  0
 21 22  1  0  0  0  0
 21 43  1  0  0  0  0
 22 23  2  0  0  0  0
 22 44  1  0  0  0  0
 23 24  1  0  0  0  0
 23 45  1  0  0  0  0
M  CHG  1  18   1
M  END
> <s_m_source_file>
AV-unprocessed.smi

> <i_m_source_file_index>
2953

> <i_lp_mmshare_version>
43012

> <i_f3d_flags>
0

> <s_epik_input>
W0NIM11jMVtjSF1bY0hdW2NIXVtjSF1jMU9bQ0gyXVtDSDJdbihjKG4yKVtDQEhdKFtDSDNdKVtOSF1bQ0hdPU8pYyhjMjMpW2NIXVtjSF1bY0hdW2NIXTM=

> <s_epik_cmdline>
J2VwaWtfcHl0aG9uJywgJy1waCcsICc3LjAnLCAnLXRuJywgJzgnLCAnLW1hJywgJzIwMCcsICctbWV0YWxfYmluZGluZycsICctaW1hZScsICc8aW5maWxlLm1hZT4nLCAnLW9tYWUnLCAnPG91dGZpbGUubWFlPic=

> <r_lp_tautomer_probability>
1

> <r_epik_Ionization_Penalty>
1.14644

> <r_epik_Ionization_Penalty_Charging>
1.14644

> <r_epik_Ionization_Penalty_Neutral>
5.5802e-08

> <r_epik_State_Penalty>
1.20743

> <r_epik_Charging_Adjusted_Penalty>
2.35387

> <i_epik_Tot_Q>
1

> <i_epik_Tot_abs_Q>
1

> <r_epik_Metal_State_Penalty>
1.28856

> <b_epik_Metal_Only>
0

> <s_lp_Force_Field>
OPLS_2005

> <r_lp_Energy>
17.243

> <b_lp_Chiralities_Consistent>
1

> <s_lp_Variant>
AV-unprocessed.smi:2953-4

> <Gold.Version>
5.8.1

> <Gold.Id.Protein>
6NUR|6NUR_protein|mol2

> <Gold.PLP.Fitness>
52.9325

> <Gold.PLP.PLP>
-41.8138

> <Gold.PLP.part.hbond>
-4.0000

> <Gold.PLP.part.metal>
0.0000

> <Gold.PLP.part.buried>
-2.5196

> <Gold.PLP.part.nonpolar>
-34.0655

> <Gold.PLP.part.repulsive>
0.0542

> <Gold.PLP.ligand.clash>
0.0000

> <Gold.PLP.ligand.torsion>
0.4691

> <Gold.PLP.Chemscore.Hbond>
3.9950

> <Gold.PLP.Chemscore.CHOScore>
0.0000

> <Gold.PLP.Chemscore.Metal>
0.0000

> <Gold.Chemscore.Hbonds>
donor molecule, donor type, donor heavy atom, donor atom, acceptor molecule, acceptor atom, score
      L1  H    15    40       P1  7948  1.00
      L1  H    18    46       P1  7948  2.00
      P1  H  6931  6943       L1     8  0.42
      P1  H  6934  6947       L1     8  0.55

> <Gold.PLP.Chemscore.Internal.Correction>
0.0720

> <Gold.Rescore>
     Score         DG    S(hbond)    S(metal)    S(lipo)     H(rot)  DE(clash)    DE(int)     intcor
     18.45     -19.04       2.57        0.00      93.22       2.32       0.00       0.59       ----

> <Gold.Chemscore.Fitness>
18.4457

> <Gold.Chemscore.DG>
-19.0416

> <Gold.Chemscore.ZeroCoef>
-5.4800

> <Gold.Chemscore.Hbond>
2.5749

> <Gold.Chemscore.Metal>
0.0000

> <Gold.Chemscore.Lipo>
93.2190

> <Gold.Chemscore.Internal_Hbond>
0.0000

> <Gold.Chemscore.DEClash>
0.0038

> <Gold.Chemscore.DEInternal>
0.5921

> <Gold.Chemscore.Rot>
2.3223

> <Gold.Chemscore.Internal.Correction>
   9.000000E+99

> <Gold.Chemscore.Hbonds>
donor molecule, donor type, donor heavy atom, donor atom, acceptor molecule, acceptor atom, score
      L1  H    15    40       P1  7948  0.45
      L1  H    18    46       P1  7948  0.90
      P1  H  6931  6943       L1     8  0.30
      P1  H  6934  6947       L1     8  0.11

> <Gold.Chemscore.Hbond.Weighted>
-8.6000

> <Gold.Chemscore.Metal.Weighted>
-0.0000

> <Gold.Chemscore.Lipo.Weighted>
-10.9066

> <Gold.Chemscore.Internal_Hbond.Weighted>
0.0000

> <Gold.Chemscore.DEClash.Weighted>
0.0038

> <Gold.Chemscore.DEInternal.Weighted>
0.5921

> <Gold.Chemscore.Rot.Weighted>
5.9450

> <Gold.Chemscore.Internal.Correction.Weighted>
   9.000000E+99

> <Gold.Protein.RotatedTorsions>
[ 6907 6896 6895 6894 ] final  -56.70 input  -60.11 | X-H torsion
[ 7974 7965 7964 7962 ] final -138.08 input  175.53 | X-H torsion
[ 8008 7997 7996 7995 ] final   59.93 input   59.86 | X-H torsion
[ 10167 10162 10161 10158 ] final  -69.05 input  -65.29 | X-H torsion
[ 10718 10713 10712 10709 ] final  -48.91 input   66.30 | X-H torsion
[ 10763 10752 10751 10750 ] final  108.78 input  -60.55 | X-H torsion
[ 11005 11000 10999 10996 ] final  -77.62 input  -57.11 | X-H torsion

> <Gold.Protein.ActiveResidues>
 VAL166  LYS551  ARG553  GLY616  TRP617  ASP618  TYR619  PRO620  LYS621  CYS622 
 ASP623  PHE694  ASN695  SER759  ASP760  ASP761  ALA762  ILE779  LEU786  VAL792 
 PHE793  MET794  SER795  GLU796  ALA797  LYS798  CYS799  TRP800  GLU811  SER814 

> <Gold.Protein.RotatedAtoms>
  150.8146  134.7321  159.6718 H   0  0  0  0  0  0  0  0  0  0  0  0  # atno 6907 bound_to 6896
  152.4265  134.5855  159.9969 H   0  0  0  0  0  0  0  0  0  0  0  0  # atno 6908 bound_to 6896
  151.6055  133.3315  159.3092 H   0  0  0  0  0  0  0  0  0  0  0  0  # atno 6909 bound_to 6896
  144.8788  140.6477  143.5219 H   0  0  0  0  0  0  0  0  0  0  0  0  # atno 7974 bound_to 7965
  155.5741  140.3490  155.4523 H   0  0  0  0  0  0  0  0  0  0  0  0  # atno 8008 bound_to 7997
  156.0422  140.1298  157.0168 H   0  0  0  0  0  0  0  0  0  0  0  0  # atno 8009 bound_to 7997
  154.4397  140.1022  156.6239 H   0  0  0  0  0  0  0  0  0  0  0  0  # atno 8010 bound_to 7997
  140.5460  143.2313  151.7000 H   0  0  0  0  0  0  0  0  0  0  0  0  # atno 10167 bound_to 10162
  156.1943  130.4154  149.9328 H   0  0  0  0  0  0  0  0  0  0  0  0  # atno 10718 bound_to 10713
  153.4254  135.3801  155.2137 H   0  0  0  0  0  0  0  0  0  0  0  0  # atno 10763 bound_to 10752
  154.8747  135.3827  154.4333 H   0  0  0  0  0  0  0  0  0  0  0  0  # atno 10764 bound_to 10752
  153.4858  135.7088  153.5975 H   0  0  0  0  0  0  0  0  0  0  0  0  # atno 10765 bound_to 10752
  141.1661  133.7030  156.7849 H   0  0  0  0  0  0  0  0  0  0  0  0  # atno 11005 bound_to 11000
  145.3992  139.1601  143.4187 LP  0  0  0  0  0  0  0  0  0  0  0  0  # atno 17320 bound_to 7965
  146.2981  140.4087  142.8714 LP  0  0  0  0  0  0  0  0  0  0  0  0  # atno 17321 bound_to 7965
  139.5008  144.3893  152.0296 LP  0  0  0  0  0  0  0  0  0  0  0  0  # atno 17342 bound_to 10162
  140.3006  144.3650  150.6061 LP  0  0  0  0  0  0  0  0  0  0  0  0  # atno 17343 bound_to 10162
  156.7058  130.8951  151.3604 LP  0  0  0  0  0  0  0  0  0  0  0  0  # atno 17370 bound_to 10713
  157.6948  130.9270  150.0614 LP  0  0  0  0  0  0  0  0  0  0  0  0  # atno 17371 bound_to 10713
  140.2368  134.8644  157.3533 LP  0  0  0  0  0  0  0  0  0  0  0  0  # atno 17394 bound_to 11000
  140.1836  134.4459  155.7757 LP  0  0  0  0  0  0  0  0  0  0  0  0  # atno 17395 bound_to 11000

$$$$
