AV-unprocessed.smi:1451|AV-procd|sdf|5901|dock1
  -GOLD-   22720 5583D 1   1.00000     0.00000
 Structure written by MMmdl.
 47 48  0  0  0  0  0  0  0  0  2 V2000
  147.3124  144.7433  161.1039 C   0  0  0  0  0  0  0  0  0  0  0  0
  145.8328  144.9734  160.7491 C   0  0  2  0  0  0  0  0  0  0  0  0
  144.8945  143.9401  161.3992 C   0  0  0  0  0  0  0  0  0  0  0  0
  145.0006  142.5760  160.7032 C   0  0  0  0  0  0  0  0  0  0  0  0
  144.7851  142.7113  159.1876 C   0  0  0  0  0  0  0  0  0  0  0  0
  145.7357  143.6878  158.5955 N   0  3  1  0  0  0  0  0  0  0  0  0
  145.6527  143.7227  157.1134 C   0  0  0  0  0  0  0  0  0  0  0  0
  146.0276  142.3766  156.4717 C   0  0  0  0  0  0  0  0  0  0  0  0
  147.4496  142.3411  156.1580 N   0  0  0  0  0  0  0  0  0  0  0  0
  148.0877  141.2835  155.6367 C   0  0  0  0  0  0  0  0  0  0  0  0
  147.5195  140.2300  155.3471 O   0  0  0  0  0  0  0  0  0  0  0  0
  149.5924  141.4548  155.3871 C   0  0  0  0  0  0  0  0  0  0  0  0
  150.3841  141.4391  156.6286 N   0  0  0  0  0  0  0  0  0  0  0  0
  150.8441  142.6783  157.1163 C   0  0  0  0  0  0  0  0  0  0  0  0
  151.5907  142.7954  158.2312 C   0  0  0  0  0  0  0  0  0  0  0  0
  152.0297  144.1516  158.7612 C   0  0  0  0  0  0  0  0  0  0  0  0
  152.7133  144.0245  159.8989 F   0  0  0  0  0  0  0  0  0  0  0  0
  152.8155  144.7535  157.8696 F   0  0  0  0  0  0  0  0  0  0  0  0
  150.9799  144.9416  158.9899 F   0  0  0  0  0  0  0  0  0  0  0  0
  151.8815  141.5675  158.9453 C   0  0  0  0  0  0  0  0  0  0  0  0
  151.4434  140.3750  158.4965 C   0  0  0  0  0  0  0  0  0  0  0  0
  150.6527  140.2617  157.2689 C   0  0  0  0  0  0  0  0  0  0  0  0
  150.2562  139.1769  156.8419 O   0  0  0  0  0  0  0  0  0  0  0  0
  145.6011  145.0302  159.2248 C   0  0  0  0  0  0  0  0  0  0  0  0
  147.6824  143.7937  160.7175 H   0  0  0  0  0  0  0  0  0  0  0  0
  147.4605  144.7415  162.1841 H   0  0  0  0  0  0  0  0  0  0  0  0
  147.9405  145.5328  160.6901 H   0  0  0  0  0  0  0  0  0  0  0  0
  145.5694  145.9507  161.1560 H   0  0  0  0  0  0  0  0  0  0  0  0
  145.1101  143.8412  162.4637 H   0  0  0  0  0  0  0  0  0  0  0  0
  143.8655  144.2956  161.3283 H   0  0  0  0  0  0  0  0  0  0  0  0
  145.9770  142.1316  160.8984 H   0  0  0  0  0  0  0  0  0  0  0  0
  144.2644  141.8891  161.1219 H   0  0  0  0  0  0  0  0  0  0  0  0
  144.9192  141.7338  158.7228 H   0  0  0  0  0  0  0  0  0  0  0  0
  143.7612  143.0251  158.9777 H   0  0  0  0  0  0  0  0  0  0  0  0
  144.6304  143.9624  156.8166 H   0  0  0  0  0  0  0  0  0  0  0  0
  146.2823  144.5261  156.7271 H   0  0  0  0  0  0  0  0  0  0  0  0
  145.7869  141.5503  157.1411 H   0  0  0  0  0  0  0  0  0  0  0  0
  145.4589  142.2231  155.5535 H   0  0  0  0  0  0  0  0  0  0  0  0
  147.9889  143.1715  156.3572 H   0  0  0  0  0  0  0  0  0  0  0  0
  149.9150  140.6611  154.7121 H   0  0  0  0  0  0  0  0  0  0  0  0
  149.7738  142.3833  154.8418 H   0  0  0  0  0  0  0  0  0  0  0  0
  150.5542  143.5320  156.5210 H   0  0  0  0  0  0  0  0  0  0  0  0
  152.4653  141.6027  159.8532 H   0  0  0  0  0  0  0  0  0  0  0  0
  151.6815  139.4801  159.0527 H   0  0  0  0  0  0  0  0  0  0  0  0
  144.6025  145.4195  159.0193 H   0  0  0  0  0  0  0  0  0  0  0  0
  146.3024  145.7376  158.7841 H   0  0  0  0  0  0  0  0  0  0  0  0
  146.6604  143.3493  158.8209 H   0  0  0  0  0  0  0  0  0  0  0  0
  1  2  1  0  0  0  0
  1 25  1  0  0  0  0
  1 26  1  0  0  0  0
  1 27  1  0  0  0  0
  2 24  1  0  0  0  0
  2  3  1  0  0  0  0
  2 28  1  0  0  0  0
  3  4  1  0  0  0  0
  3 29  1  0  0  0  0
  3 30  1  0  0  0  0
  4  5  1  0  0  0  0
  4 31  1  0  0  0  0
  4 32  1  0  0  0  0
  5  6  1  0  0  0  0
  5 33  1  0  0  0  0
  5 34  1  0  0  0  0
  6  7  1  0  0  0  0
  6 24  1  0  0  0  0
  6 47  1  0  0  0  0
  7  8  1  0  0  0  0
  7 35  1  0  0  0  0
  7 36  1  0  0  0  0
  8  9  1  0  0  0  0
  8 37  1  0  0  0  0
  8 38  1  0  0  0  0
  9 10  1  0  0  0  0
  9 39  1  0  0  0  0
 10 11  2  0  0  0  0
 10 12  1  0  0  0  0
 12 13  1  0  0  0  0
 12 40  1  0  0  0  0
 12 41  1  0  0  0  0
 13 22  1  0  0  0  0
 13 14  1  0  0  0  0
 14 15  2  0  0  0  0
 14 42  1  0  0  0  0
 15 16  1  0  0  0  0
 15 20  1  0  0  0  0
 16 17  1  0  0  0  0
 16 18  1  0  0  0  0
 16 19  1  0  0  0  0
 20 21  2  0  0  0  0
 20 43  1  0  0  0  0
 21 22  1  0  0  0  0
 21 44  1  0  0  0  0
 22 23  2  0  0  0  0
 24 45  1  0  0  0  0
 24 46  1  0  0  0  0
M  CHG  1   6   1
M  END
> <s_m_source_file>
AV-unprocessed.smi

> <i_m_source_file_index>
1451

> <i_lp_mmshare_version>
43012

> <i_f3d_flags>
0

> <s_epik_input>
W0NIM11bQ0BASF0xW0NIMl1bQ0gyXVtDSDJdTihbQ0gyXTEpW0NIMl1bQ0gyXVtOSF1DKD1PKVtDSDJdbjJbY0hdYyhDKEYpKEYpRilbY0hdW2NIXWMyPU8=

> <s_epik_cmdline>
J2VwaWtfcHl0aG9uJywgJy1waCcsICc3LjAnLCAnLXRuJywgJzgnLCAnLW1hJywgJzIwMCcsICctbWV0YWxfYmluZGluZycsICctaW1hZScsICc8aW5maWxlLm1hZT4nLCAnLW9tYWUnLCAnPG91dGZpbGUubWFlPic=

> <r_lp_tautomer_probability>
1

> <r_epik_Ionization_Penalty>
0.00192452

> <r_epik_Ionization_Penalty_Charging>
0.00192444

> <r_epik_Ionization_Penalty_Neutral>
8.16761e-08

> <r_epik_State_Penalty>
0.00131115

> <r_epik_Charging_Adjusted_Penalty>
0.00323559

> <i_epik_Tot_Q>
1

> <i_epik_Tot_abs_Q>
1

> <r_epik_Metal_State_Penalty>
-0

> <b_epik_Metal_Only>
0

> <s_lp_Force_Field>
OPLS_2005

> <r_lp_Energy>
31.5843

> <b_lp_Chiralities_Consistent>
1

> <s_lp_Variant>
AV-unprocessed.smi:1451-3

> <Gold.Version>
5.8.1

> <Gold.Id.Protein>
6NUR|6NUR_protein|mol2

> <Gold.PLP.Fitness>
51.1120

> <Gold.PLP.PLP>
-46.4011

> <Gold.PLP.part.hbond>
-1.0000

> <Gold.PLP.part.metal>
0.0000

> <Gold.PLP.part.buried>
-6.4321

> <Gold.PLP.part.nonpolar>
-39.6419

> <Gold.PLP.part.repulsive>
0.0753

> <Gold.PLP.ligand.clash>
0.0000

> <Gold.PLP.ligand.torsion>
0.6180

> <Gold.PLP.Chemscore.Hbond>
0.8800

> <Gold.PLP.Chemscore.CHOScore>
1.0000

> <Gold.PLP.Chemscore.Metal>
0.0000

> <Gold.Chemscore.Hbonds>
donor molecule, donor type, donor heavy atom, donor atom, acceptor molecule, acceptor atom, score
      L1  H     9    39       P1  8028  0.94
      L1  C    14    42       P1  8028  1.00

> <Gold.PLP.Chemscore.Internal.Correction>
0.3069

> <Gold.Rescore>
     Score         DG    S(hbond)    S(metal)    S(lipo)     H(rot)  DE(clash)    DE(int)     intcor
     11.12     -11.87       0.86        0.00      75.59       2.08       0.15       0.60       ----

> <Gold.Chemscore.Fitness>
11.1198

> <Gold.Chemscore.DG>
-11.8665

> <Gold.Chemscore.ZeroCoef>
-5.4800

> <Gold.Chemscore.Hbond>
0.8556

> <Gold.Chemscore.Metal>
0.0000

> <Gold.Chemscore.Lipo>
75.5880

> <Gold.Chemscore.Internal_Hbond>
0.0000

> <Gold.Chemscore.DEClash>
0.1506

> <Gold.Chemscore.DEInternal>
0.5961

> <Gold.Chemscore.Rot>
2.0762

> <Gold.Chemscore.Internal.Correction>
   9.000000E+99

> <Gold.Chemscore.Hbonds>
donor molecule, donor type, donor heavy atom, donor atom, acceptor molecule, acceptor atom, score
      L1  H     9    39       P1  8028  0.23

> <Gold.Chemscore.Hbond.Weighted>
-2.8577

> <Gold.Chemscore.Metal.Weighted>
-0.0000

> <Gold.Chemscore.Lipo.Weighted>
-8.8438

> <Gold.Chemscore.Internal_Hbond.Weighted>
0.0000

> <Gold.Chemscore.DEClash.Weighted>
0.1506

> <Gold.Chemscore.DEInternal.Weighted>
0.5961

> <Gold.Chemscore.Rot.Weighted>
5.3150

> <Gold.Chemscore.Internal.Correction.Weighted>
   9.000000E+99

> <Gold.Protein.RotatedTorsions>
[ 6907 6896 6895 6894 ] final  103.61 input  -60.11 | X-H torsion
[ 7974 7965 7964 7962 ] final  113.09 input  175.53 | X-H torsion
[ 8008 7997 7996 7995 ] final  -28.60 input   59.86 | X-H torsion
[ 10167 10162 10161 10158 ] final  -97.53 input  -65.29 | X-H torsion
[ 10718 10713 10712 10709 ] final -112.18 input   66.30 | X-H torsion
[ 10763 10752 10751 10750 ] final -150.67 input  -60.55 | X-H torsion
[ 11005 11000 10999 10996 ] final    8.25 input  -57.11 | X-H torsion

> <Gold.Protein.ActiveResidues>
 VAL166  LYS551  ARG553  GLY616  TRP617  ASP618  TYR619  PRO620  LYS621  CYS622 
 ASP623  PHE694  ASN695  SER759  ASP760  ASP761  ALA762  ILE779  LEU786  VAL792 
 PHE793  MET794  SER795  GLU796  ALA797  LYS798  CYS799  TRP800  GLU811  SER814 

> <Gold.Protein.RotatedAtoms>
  152.5290  133.9799  159.7801 H   0  0  0  0  0  0  0  0  0  0  0  0  # atno 6907 bound_to 6896
  151.0055  133.6007  159.2696 H   0  0  0  0  0  0  0  0  0  0  0  0  # atno 6908 bound_to 6896
  151.3100  135.0798  159.9322 H   0  0  0  0  0  0  0  0  0  0  0  0  # atno 6909 bound_to 6896
  145.2213  139.2861  143.4217 H   0  0  0  0  0  0  0  0  0  0  0  0  # atno 7974 bound_to 7965
  154.4325  140.1841  156.1115 H   0  0  0  0  0  0  0  0  0  0  0  0  # atno 8008 bound_to 7997
  156.0214  140.3340  155.7017 H   0  0  0  0  0  0  0  0  0  0  0  0  # atno 8009 bound_to 7997
  155.5970  140.0636  157.2734 H   0  0  0  0  0  0  0  0  0  0  0  0  # atno 8010 bound_to 7997
  140.2825  143.3273  152.0427 H   0  0  0  0  0  0  0  0  0  0  0  0  # atno 10167 bound_to 10162
  156.0690  130.5906  150.8474 H   0  0  0  0  0  0  0  0  0  0  0  0  # atno 10718 bound_to 10713
  154.8105  135.3278  154.7318 H   0  0  0  0  0  0  0  0  0  0  0  0  # atno 10763 bound_to 10752
  153.7969  135.6906  153.4866 H   0  0  0  0  0  0  0  0  0  0  0  0  # atno 10764 bound_to 10752
  153.1880  135.4561  155.0059 H   0  0  0  0  0  0  0  0  0  0  0  0  # atno 10765 bound_to 10752
  140.5391  134.0392  155.7898 H   0  0  0  0  0  0  0  0  0  0  0  0  # atno 11005 bound_to 11000
  146.3375  140.2519  142.8599 LP  0  0  0  0  0  0  0  0  0  0  0  0  # atno 17320 bound_to 7965
  144.9763  140.8417  143.5424 LP  0  0  0  0  0  0  0  0  0  0  0  0  # atno 17321 bound_to 7965
  139.4959  144.6582  151.6525 LP  0  0  0  0  0  0  0  0  0  0  0  0  # atno 17342 bound_to 10162
  140.5800  143.9962  150.6263 LP  0  0  0  0  0  0  0  0  0  0  0  0  # atno 17343 bound_to 10162
  157.5750  131.0946  150.9359 LP  0  0  0  0  0  0  0  0  0  0  0  0  # atno 17370 bound_to 10713
  156.9567  130.5440  149.5284 LP  0  0  0  0  0  0  0  0  0  0  0  0  # atno 17371 bound_to 10713
  141.1237  133.9418  157.2678 LP  0  0  0  0  0  0  0  0  0  0  0  0  # atno 17394 bound_to 11000
  139.9513  135.0175  156.9002 LP  0  0  0  0  0  0  0  0  0  0  0  0  # atno 17395 bound_to 11000

$$$$
