AV-unprocessed.smi:2568|AV-procd|sdf|10089|dock10
  -GOLD-   2272014113D 1   1.00000     0.00000
 Structure written by MMmdl.
 25 26  0  0  0  0  0  0  0  0  2 V2000
  150.5332  137.5087  159.1861 C   0  0  0  0  0  0  0  0  0  0  0  0
  151.3624  138.6853  158.7961 C   0  0  0  0  0  0  0  0  0  0  0  0
  152.5769  138.5506  158.2604 N   0  0  0  0  0  0  0  0  0  0  0  0
  153.0898  139.7728  158.0043 N   0  0  0  0  0  0  0  0  0  0  0  0
  152.1200  140.5781  158.4361 C   0  0  0  0  0  0  0  0  0  0  0  0
  152.2448  142.0640  158.3030 C   0  0  1  0  0  0  0  0  0  0  0  0
  151.1547  142.6605  157.3929 C   0  0  0  0  0  0  0  0  0  0  0  0
  151.2677  144.1317  157.3740 N   0  3  0  0  0  0  0  0  0  0  0  0
  151.2268  144.6942  158.7387 C   0  0  0  0  0  0  0  0  0  0  0  0
  152.2977  144.0283  159.6214 C   0  0  0  0  0  0  0  0  0  0  0  0
  152.1212  142.6152  159.6125 O   0  0  0  0  0  0  0  0  0  0  0  0
  151.0026  139.9575  158.9263 N   0  0  0  0  0  0  0  0  0  0  0  0
  153.0669  137.6913  158.0552 H   0  0  0  0  0  0  0  0  0  0  0  0
  149.5879  137.8348  159.6211 H   0  0  0  0  0  0  0  0  0  0  0  0
  151.0643  136.9031  159.9210 H   0  0  0  0  0  0  0  0  0  0  0  0
  150.3210  136.8939  158.3112 H   0  0  0  0  0  0  0  0  0  0  0  0
  153.2358  142.2976  157.9078 H   0  0  0  0  0  0  0  0  0  0  0  0
  151.2474  142.2773  156.3761 H   0  0  0  0  0  0  0  0  0  0  0  0
  150.1627  142.3838  157.7529 H   0  0  0  0  0  0  0  0  0  0  0  0
  152.1478  144.3828  156.9461 H   0  0  0  0  0  0  0  0  0  0  0  0
  151.3843  145.7718  158.6907 H   0  0  0  0  0  0  0  0  0  0  0  0
  150.2350  144.5323  159.1629 H   0  0  0  0  0  0  0  0  0  0  0  0
  153.3009  144.2812  159.2745 H   0  0  0  0  0  0  0  0  0  0  0  0
  152.2164  144.3885  160.6469 H   0  0  0  0  0  0  0  0  0  0  0  0
  150.5127  144.5202  156.8268 H   0  0  0  0  0  0  0  0  0  0  0  0
  1 14  1  0  0  0  0
  1 15  1  0  0  0  0
  1 16  1  0  0  0  0
  1  2  1  0  0  0  0
  2 12  2  0  0  0  0
  2  3  1  0  0  0  0
  3  4  1  0  0  0  0
  3 13  1  0  0  0  0
  4  5  2  0  0  0  0
  5 12  1  0  0  0  0
  5  6  1  0  0  0  0
  6 11  1  0  0  0  0
  6  7  1  0  0  0  0
  6 17  1  0  0  0  0
  7  8  1  0  0  0  0
  7 18  1  0  0  0  0
  7 19  1  0  0  0  0
  8  9  1  0  0  0  0
  8 20  1  0  0  0  0
  8 25  1  0  0  0  0
  9 10  1  0  0  0  0
  9 21  1  0  0  0  0
  9 22  1  0  0  0  0
 10 11  1  0  0  0  0
 10 23  1  0  0  0  0
 10 24  1  0  0  0  0
M  CHG  1   8   1
M  END
> <s_m_source_file>
AV-unprocessed.smi

> <i_m_source_file_index>
2568

> <i_lp_mmshare_version>
43012

> <i_f3d_flags>
0

> <s_epik_input>
W0NIM11jMW5bbkhdYyhuMSlbQ0BASF0yW0NIMl1bTkhdW0NIMl1bQ0gyXU8y

> <s_epik_cmdline>
J2VwaWtfcHl0aG9uJywgJy1waCcsICc3LjAnLCAnLXRuJywgJzgnLCAnLW1hJywgJzIwMCcsICctbWV0YWxfYmluZGluZycsICctaW1hZScsICc8aW5maWxlLm1hZT4nLCAnLW9tYWUnLCAnPG91dGZpbGUubWFlPic=

> <r_lp_tautomer_probability>
0.948284

> <r_epik_Ionization_Penalty>
0.107151

> <r_epik_Ionization_Penalty_Charging>
0.100865

> <r_epik_Ionization_Penalty_Neutral>
0.00628602

> <r_epik_State_Penalty>
0.200426

> <r_epik_Charging_Adjusted_Penalty>
0.30129

> <i_epik_Tot_Q>
1

> <i_epik_Tot_abs_Q>
1

> <r_epik_Metal_State_Penalty>
0.501686

> <b_epik_Metal_Only>
0

> <s_lp_Force_Field>
OPLS_2005

> <r_lp_Energy>
11.0041

> <b_lp_Chiralities_Consistent>
1

> <s_lp_Variant>
AV-unprocessed.smi:2568-2

> <Gold.Version>
5.8.1

> <Gold.Id.Protein>
6NUR|6NUR_protein|mol2

> <Gold.PLP.Fitness>
30.1589

> <Gold.PLP.PLP>
-21.1614

> <Gold.PLP.part.hbond>
-2.0000

> <Gold.PLP.part.metal>
0.0000

> <Gold.PLP.part.buried>
-4.7944

> <Gold.PLP.part.nonpolar>
-14.2583

> <Gold.PLP.part.repulsive>
0.0981

> <Gold.PLP.ligand.clash>
0.0000

> <Gold.PLP.ligand.torsion>
0.0084

> <Gold.PLP.Chemscore.Hbond>
3.0000

> <Gold.PLP.Chemscore.CHOScore>
0.0000

> <Gold.PLP.Chemscore.Metal>
0.0000

> <Gold.Chemscore.Hbonds>
donor molecule, donor type, donor heavy atom, donor atom, acceptor molecule, acceptor atom, score
      L1  H     8    25       P1  8028  2.00
      P1  H  7997  8009       L1     4  1.00

> <Gold.PLP.Chemscore.Internal.Correction>
0.0143

> <Gold.Rescore>
     Score         DG    S(hbond)    S(metal)    S(lipo)     H(rot)  DE(clash)    DE(int)     intcor
     15.18     -15.22       1.99        0.00      48.33       1.00       0.04       0.01       ----

> <Gold.Chemscore.Fitness>
15.1766

> <Gold.Chemscore.DG>
-15.2196

> <Gold.Chemscore.ZeroCoef>
-5.4800

> <Gold.Chemscore.Hbond>
1.9894

> <Gold.Chemscore.Metal>
0.0000

> <Gold.Chemscore.Lipo>
48.3337

> <Gold.Chemscore.Internal_Hbond>
0.0000

> <Gold.Chemscore.DEClash>
0.0354

> <Gold.Chemscore.DEInternal>
0.0076

> <Gold.Chemscore.Rot>
1.0000

> <Gold.Chemscore.Internal.Correction>
   9.000000E+99

> <Gold.Chemscore.Hbonds>
donor molecule, donor type, donor heavy atom, donor atom, acceptor molecule, acceptor atom, score
      L1  H     8    25       P1  8028  0.89
      P1  H  7997  8009       L1     4  0.98

> <Gold.Chemscore.Hbond.Weighted>
-6.6445

> <Gold.Chemscore.Metal.Weighted>
-0.0000

> <Gold.Chemscore.Lipo.Weighted>
-5.6550

> <Gold.Chemscore.Internal_Hbond.Weighted>
0.0000

> <Gold.Chemscore.DEClash.Weighted>
0.0354

> <Gold.Chemscore.DEInternal.Weighted>
0.0076

> <Gold.Chemscore.Rot.Weighted>
2.5600

> <Gold.Chemscore.Internal.Correction.Weighted>
   9.000000E+99

> <Gold.Protein.RotatedTorsions>
[ 6907 6896 6895 6894 ] final  -59.71 input  -60.11 | X-H torsion
[ 7974 7965 7964 7962 ] final  112.61 input  175.53 | X-H torsion
[ 8008 7997 7996 7995 ] final  149.06 input   59.86 | X-H torsion
[ 10167 10162 10161 10158 ] final  155.41 input  -65.29 | X-H torsion
[ 10718 10713 10712 10709 ] final -123.51 input   66.30 | X-H torsion
[ 10763 10752 10751 10750 ] final   97.03 input  -60.55 | X-H torsion
[ 11005 11000 10999 10996 ] final   73.01 input  -57.11 | X-H torsion

> <Gold.Protein.ActiveResidues>
 VAL166  LYS551  ARG553  GLY616  TRP617  ASP618  TYR619  PRO620  LYS621  CYS622 
 ASP623  PHE694  ASN695  SER759  ASP760  ASP761  ALA762  ILE779  LEU786  VAL792 
 PHE793  MET794  SER795  GLU796  ALA797  LYS798  CYS799  TRP800  GLU811  SER814 

> <Gold.Protein.RotatedAtoms>
  150.7910  134.6933  159.6508 H   0  0  0  0  0  0  0  0  0  0  0  0  # atno 6907 bound_to 6896
  152.4015  134.6274  160.0076 H   0  0  0  0  0  0  0  0  0  0  0  0  # atno 6908 bound_to 6896
  151.6544  133.3282  159.3195 H   0  0  0  0  0  0  0  0  0  0  0  0  # atno 6909 bound_to 6896
  145.2274  139.2835  143.4186 H   0  0  0  0  0  0  0  0  0  0  0  0  # atno 7974 bound_to 7965
  156.2769  140.2112  156.5798 H   0  0  0  0  0  0  0  0  0  0  0  0  # atno 8008 bound_to 7997
  154.7068  140.0516  157.0535 H   0  0  0  0  0  0  0  0  0  0  0  0  # atno 8009 bound_to 7997
  155.0660  140.3171  155.4648 H   0  0  0  0  0  0  0  0  0  0  0  0  # atno 8010 bound_to 7997
  139.4821  144.5101  151.8038 H   0  0  0  0  0  0  0  0  0  0  0  0  # atno 10167 bound_to 10162
  156.1508  130.6533  150.9911 H   0  0  0  0  0  0  0  0  0  0  0  0  # atno 10718 bound_to 10713
  153.2720  135.4198  155.0996 H   0  0  0  0  0  0  0  0  0  0  0  0  # atno 10763 bound_to 10752
  154.8459  135.3474  154.6231 H   0  0  0  0  0  0  0  0  0  0  0  0  # atno 10764 bound_to 10752
  153.6651  135.7046  153.5222 H   0  0  0  0  0  0  0  0  0  0  0  0  # atno 10765 bound_to 10752
  139.9461  134.7310  156.0975 H   0  0  0  0  0  0  0  0  0  0  0  0  # atno 11005 bound_to 11000
  146.3361  140.2598  142.8601 LP  0  0  0  0  0  0  0  0  0  0  0  0  # atno 17320 bound_to 7965
  144.9708  140.8367  143.5456 LP  0  0  0  0  0  0  0  0  0  0  0  0  # atno 17321 bound_to 7965
  140.4603  144.1731  150.5905 LP  0  0  0  0  0  0  0  0  0  0  0  0  # atno 17342 bound_to 10162
  140.4491  143.2494  151.9371 LP  0  0  0  0  0  0  0  0  0  0  0  0  # atno 17343 bound_to 10162
  157.6655  131.0872  150.7738 LP  0  0  0  0  0  0  0  0  0  0  0  0  # atno 17370 bound_to 10713
  156.7806  130.4858  149.5402 LP  0  0  0  0  0  0  0  0  0  0  0  0  # atno 17371 bound_to 10713
  141.1112  133.6642  156.2983 LP  0  0  0  0  0  0  0  0  0  0  0  0  # atno 17394 bound_to 11000
  140.5830  134.5726  157.5483 LP  0  0  0  0  0  0  0  0  0  0  0  0  # atno 17395 bound_to 11000

$$$$
