AV-unprocessed.smi:3237|AV-procd|sdf|12366|dock3
  -GOLD-   2272018223D 1   1.00000     0.00000
 Structure written by MMmdl.
 37 39  0  0  0  0  0  0  0  0  2 V2000
  137.7375  137.1788  155.4512 C   0  0  0  0  0  0  0  0  0  0  0  0
  138.9926  137.7370  154.8733 C   0  0  0  0  0  0  0  0  0  0  0  0
  140.0649  137.1639  154.2499 C   0  0  0  0  0  0  0  0  0  0  0  0
  140.9002  138.2819  153.9605 C   0  0  0  0  0  0  0  0  0  0  0  0
  142.1559  138.2428  153.3019 N   0  0  0  0  0  0  0  0  0  0  0  0
  142.9001  137.1682  152.9918 C   0  0  0  0  0  0  0  0  0  0  0  0
  142.6027  135.9986  153.2343 O   0  0  0  0  0  0  0  0  0  0  0  0
  144.0408  137.5251  152.3844 N   0  0  0  0  0  0  0  0  0  0  0  0
  145.0758  136.5942  151.9462 C   0  0  1  0  0  0  0  0  0  0  0  0
  145.9007  136.0132  153.0944 C   0  0  0  0  0  0  0  0  0  0  0  0
  146.3437  134.6288  152.5894 C   0  0  0  0  0  0  0  0  0  0  0  0
  145.6034  134.3703  151.3316 N   0  3  1  0  0  0  0  0  0  0  0  0
  145.1774  132.9662  151.1529 C   0  0  0  0  0  0  0  0  0  0  0  0
  145.7356  132.3188  149.9081 C   0  0  0  0  0  0  0  0  0  0  0  0
  144.2868  132.7540  149.9522 C   0  0  0  0  0  0  0  0  0  0  0  0
  144.4989  135.3435  151.2834 C   0  0  0  0  0  0  0  0  0  0  0  0
  140.3767  139.4259  154.3603 N   0  0  0  0  0  0  0  0  0  0  0  0
  139.1553  139.0851  154.9529 O   0  0  0  0  0  0  0  0  0  0  0  0
  137.6784  136.1024  155.2888 H   0  0  0  0  0  0  0  0  0  0  0  0
  136.8625  137.6385  154.9914 H   0  0  0  0  0  0  0  0  0  0  0  0
  137.6924  137.3618  156.5249 H   0  0  0  0  0  0  0  0  0  0  0  0
  140.2100  136.1147  154.0413 H   0  0  0  0  0  0  0  0  0  0  0  0
  142.5450  139.1436  153.0650 H   0  0  0  0  0  0  0  0  0  0  0  0
  144.2071  138.5075  152.2200 H   0  0  0  0  0  0  0  0  0  0  0  0
  145.7503  137.0948  151.2482 H   0  0  0  0  0  0  0  0  0  0  0  0
  146.7446  136.6507  153.3609 H   0  0  0  0  0  0  0  0  0  0  0  0
  145.2823  135.8933  153.9853 H   0  0  0  0  0  0  0  0  0  0  0  0
  147.4149  134.6004  152.3869 H   0  0  0  0  0  0  0  0  0  0  0  0
  146.1283  133.8679  153.3413 H   0  0  0  0  0  0  0  0  0  0  0  0
  145.0300  132.3833  152.0605 H   0  0  0  0  0  0  0  0  0  0  0  0
  146.4156  132.8983  149.2864 H   0  0  0  0  0  0  0  0  0  0  0  0
  145.9364  131.2501  149.9450 H   0  0  0  0  0  0  0  0  0  0  0  0
  143.5342  131.9708  150.0169 H   0  0  0  0  0  0  0  0  0  0  0  0
  144.0046  133.6224  149.3597 H   0  0  0  0  0  0  0  0  0  0  0  0
  143.6476  134.9662  151.8537 H   0  0  0  0  0  0  0  0  0  0  0  0
  144.1703  135.5222  150.2589 H   0  0  0  0  0  0  0  0  0  0  0  0
  146.2286  134.6052  150.5738 H   0  0  0  0  0  0  0  0  0  0  0  0
  1  2  1  0  0  0  0
  1 19  1  0  0  0  0
  1 20  1  0  0  0  0
  1 21  1  0  0  0  0
  2 18  1  0  0  0  0
  2  3  2  0  0  0  0
  3  4  1  0  0  0  0
  3 22  1  0  0  0  0
  4  5  1  0  0  0  0
  4 17  2  0  0  0  0
  5  6  1  0  0  0  0
  5 23  1  0  0  0  0
  6  7  2  0  0  0  0
  6  8  1  0  0  0  0
  8  9  1  0  0  0  0
  8 24  1  0  0  0  0
  9 16  1  0  0  0  0
  9 10  1  0  0  0  0
  9 25  1  0  0  0  0
 10 11  1  0  0  0  0
 10 26  1  0  0  0  0
 10 27  1  0  0  0  0
 11 12  1  0  0  0  0
 11 28  1  0  0  0  0
 11 29  1  0  0  0  0
 12 13  1  0  0  0  0
 12 16  1  0  0  0  0
 12 37  1  0  0  0  0
 13 15  1  0  0  0  0
 13 14  1  0  0  0  0
 13 30  1  0  0  0  0
 14 15  1  0  0  0  0
 14 31  1  0  0  0  0
 14 32  1  0  0  0  0
 15 33  1  0  0  0  0
 15 34  1  0  0  0  0
 16 35  1  0  0  0  0
 16 36  1  0  0  0  0
 17 18  1  0  0  0  0
M  CHG  1  12   1
M  END
> <s_m_source_file>
AV-unprocessed.smi

> <i_m_source_file_index>
3237

> <i_lp_mmshare_version>
43012

> <i_f3d_flags>
0

> <s_epik_input>
W0NIM11jMVtjSF1jKG5vMSlbTkhdQyg9TylbTkhdW0NAQEhdMltDSDJdW0NIMl1OKFtDSDJdMilbQ0hdM1tDSDJdW0NIMl0z

> <s_epik_cmdline>
J2VwaWtfcHl0aG9uJywgJy1waCcsICc3LjAnLCAnLXRuJywgJzgnLCAnLW1hJywgJzIwMCcsICctbWV0YWxfYmluZGluZycsICctaW1hZScsICc8aW5maWxlLm1hZT4nLCAnLW9tYWUnLCAnPG91dGZpbGUubWFlPic=

> <r_epik_Ionization_Penalty>
0.000720579

> <r_epik_Ionization_Penalty_Charging>
0.000680516

> <r_epik_Ionization_Penalty_Neutral>
4.00628e-05

> <r_epik_State_Penalty>
0.000432256

> <r_epik_Charging_Adjusted_Penalty>
0.00111277

> <i_epik_Tot_Q>
1

> <i_epik_Tot_abs_Q>
1

> <r_epik_Metal_State_Penalty>
0.0255091

> <b_epik_Metal_Only>
0

> <s_lp_Force_Field>
OPLS_2005

> <r_lp_Energy>
35.1178

> <b_lp_Chiralities_Consistent>
1

> <s_lp_Variant>
AV-unprocessed.smi:3237-4

> <Gold.Version>
5.8.1

> <Gold.Id.Protein>
6NUR|6NUR_protein|mol2

> <Gold.PLP.Fitness>
37.3260

> <Gold.PLP.PLP>
-32.0814

> <Gold.PLP.part.hbond>
-3.0000

> <Gold.PLP.part.metal>
0.0000

> <Gold.PLP.part.buried>
-6.8263

> <Gold.PLP.part.nonpolar>
-23.1804

> <Gold.PLP.part.repulsive>
0.5311

> <Gold.PLP.ligand.clash>
0.0000

> <Gold.PLP.ligand.torsion>
1.0092

> <Gold.PLP.Chemscore.Hbond>
2.0000

> <Gold.PLP.Chemscore.CHOScore>
0.0000

> <Gold.PLP.Chemscore.Metal>
0.0000

> <Gold.Chemscore.Hbonds>
donor molecule, donor type, donor heavy atom, donor atom, acceptor molecule, acceptor atom, score
      L1  H     5    23       P1 10175  1.00
      L1  H     8    24       P1 10175  0.99

> <Gold.PLP.Chemscore.Internal.Correction>
1.2630

> <Gold.Rescore>
     Score         DG    S(hbond)    S(metal)    S(lipo)     H(rot)  DE(clash)    DE(int)     intcor
     13.16     -16.74       1.95        0.00      68.14       1.26       0.03       3.54       ----

> <Gold.Chemscore.Fitness>
13.1598

> <Gold.Chemscore.DG>
-16.7351

> <Gold.Chemscore.ZeroCoef>
-5.4800

> <Gold.Chemscore.Hbond>
1.9481

> <Gold.Chemscore.Metal>
0.0000

> <Gold.Chemscore.Lipo>
68.1379

> <Gold.Chemscore.Internal_Hbond>
0.0000

> <Gold.Chemscore.DEClash>
0.0312

> <Gold.Chemscore.DEInternal>
3.5441

> <Gold.Chemscore.Rot>
1.2593

> <Gold.Chemscore.Internal.Correction>
   9.000000E+99

> <Gold.Chemscore.Hbonds>
donor molecule, donor type, donor heavy atom, donor atom, acceptor molecule, acceptor atom, score
      L1  H     5    23       P1 10175  1.00
      L1  H     8    24       P1 10175  0.89

> <Gold.Chemscore.Hbond.Weighted>
-6.5067

> <Gold.Chemscore.Metal.Weighted>
-0.0000

> <Gold.Chemscore.Lipo.Weighted>
-7.9721

> <Gold.Chemscore.Internal_Hbond.Weighted>
0.0000

> <Gold.Chemscore.DEClash.Weighted>
0.0312

> <Gold.Chemscore.DEInternal.Weighted>
3.5441

> <Gold.Chemscore.Rot.Weighted>
3.2237

> <Gold.Chemscore.Internal.Correction.Weighted>
   9.000000E+99

> <Gold.Protein.RotatedTorsions>
[ 6907 6896 6895 6894 ] final  -57.58 input  -60.11 | X-H torsion
[ 7974 7965 7964 7962 ] final -164.95 input  175.53 | X-H torsion
[ 8008 7997 7996 7995 ] final    3.87 input   59.86 | X-H torsion
[ 10167 10162 10161 10158 ] final  -96.11 input  -65.29 | X-H torsion
[ 10718 10713 10712 10709 ] final  115.26 input   66.30 | X-H torsion
[ 10763 10752 10751 10750 ] final  125.82 input  -60.55 | X-H torsion
[ 11005 11000 10999 10996 ] final  124.08 input  -57.11 | X-H torsion

> <Gold.Protein.ActiveResidues>
 VAL166  LYS551  ARG553  GLY616  TRP617  ASP618  TYR619  PRO620  LYS621  CYS622 
 ASP623  PHE694  ASN695  SER759  ASP760  ASP761  ALA762  ILE779  LEU786  VAL792 
 PHE793  MET794  SER795  GLU796  ALA797  LYS798  CYS799  TRP800  GLU811  SER814 

> <Gold.Protein.RotatedAtoms>
  150.8074  134.7208  159.6656 H   0  0  0  0  0  0  0  0  0  0  0  0  # atno 6907 bound_to 6896
  152.4194  134.5979  160.0002 H   0  0  0  0  0  0  0  0  0  0  0  0  # atno 6908 bound_to 6896
  151.6199  133.3303  159.3122 H   0  0  0  0  0  0  0  0  0  0  0  0  # atno 6909 bound_to 6896
  144.7283  140.2886  143.6224 H   0  0  0  0  0  0  0  0  0  0  0  0  # atno 7974 bound_to 7965
  154.7089  140.2688  155.6648 H   0  0  0  0  0  0  0  0  0  0  0  0  # atno 8008 bound_to 7997
  156.2789  140.2757  156.1648 H   0  0  0  0  0  0  0  0  0  0  0  0  # atno 8009 bound_to 7997
  155.0662  140.0371  157.2583 H   0  0  0  0  0  0  0  0  0  0  0  0  # atno 8010 bound_to 7997
  140.2972  143.3185  152.0286 H   0  0  0  0  0  0  0  0  0  0  0  0  # atno 10167 bound_to 10162
  157.6233  131.1010  150.7304 H   0  0  0  0  0  0  0  0  0  0  0  0  # atno 10718 bound_to 10713
  153.6835  135.3310  155.3184 H   0  0  0  0  0  0  0  0  0  0  0  0  # atno 10763 bound_to 10752
  154.8459  135.4414  154.1582 H   0  0  0  0  0  0  0  0  0  0  0  0  # atno 10764 bound_to 10752
  153.2604  135.6990  153.7661 H   0  0  0  0  0  0  0  0  0  0  0  0  # atno 10765 bound_to 10752
  139.9342  134.9640  156.8355 H   0  0  0  0  0  0  0  0  0  0  0  0  # atno 11005 bound_to 11000
  145.7878  139.1915  143.2120 LP  0  0  0  0  0  0  0  0  0  0  0  0  # atno 17320 bound_to 7965
  146.0781  140.7795  142.9655 LP  0  0  0  0  0  0  0  0  0  0  0  0  # atno 17321 bound_to 7965
  139.4923  144.6482  151.6732 LP  0  0  0  0  0  0  0  0  0  0  0  0  # atno 17342 bound_to 10162
  140.5682  144.0154  150.6203 LP  0  0  0  0  0  0  0  0  0  0  0  0  # atno 17343 bound_to 10162
  156.7657  130.4813  149.5428 LP  0  0  0  0  0  0  0  0  0  0  0  0  # atno 17370 bound_to 10713
  156.1390  130.6231  151.0440 LP  0  0  0  0  0  0  0  0  0  0  0  0  # atno 17371 bound_to 10713
  140.6121  134.0073  155.7581 LP  0  0  0  0  0  0  0  0  0  0  0  0  # atno 17394 bound_to 11000
  141.0947  133.9862  157.3180 LP  0  0  0  0  0  0  0  0  0  0  0  0  # atno 17395 bound_to 11000

$$$$
