AV-unprocessed.smi:109|AV-procd|sdf|1037|dock1
  -GOLD-   2262018 53D 1   1.00000     0.00000
 Structure written by MMmdl.
 58 61  0  0  0  0  0  0  0  0  1 V2000
  151.1736  135.5948  155.7367 O   0  0  0  0  0  0  0  0  0  0  0  0
  149.7648  135.5914  155.6521 C   0  0  0  0  0  0  0  0  0  0  0  0
  149.1571  135.4360  157.0566 C   0  0  0  0  0  0  0  0  0  0  0  0
  147.6113  135.3430  157.0721 C   0  0  2  0  0  0  0  0  0  0  0  0
  147.0436  136.5688  156.5058 N   0  0  0  0  0  0  0  0  0  0  0  0
  146.3809  136.5789  155.3274 C   0  0  0  0  0  0  0  0  0  0  0  0
  145.4853  137.5543  155.0224 N   0  0  0  0  0  0  0  0  0  0  0  0
  144.8456  137.5345  153.8491 C   0  0  0  0  0  0  0  0  0  0  0  0
  144.9509  136.6490  152.8557 N   0  0  0  0  0  0  0  0  0  0  0  0
  145.8481  135.6671  153.1598 C   0  0  0  0  0  0  0  0  0  0  0  0
  146.5983  135.5615  154.3630 C   0  0  0  0  0  0  0  0  0  0  0  0
  147.4118  134.4371  154.3114 N   0  0  0  0  0  0  0  0  0  0  0  0
  147.1554  133.9141  153.1417 C   0  0  0  0  0  0  0  0  0  0  0  0
  146.2154  134.5866  152.3894 N   0  0  0  0  0  0  0  0  0  0  0  0
  145.6945  134.2802  151.0199 C   0  0  1  0  0  0  0  0  0  0  0  0
  146.3540  133.1460  150.5268 O   0  0  0  0  0  0  0  0  0  0  0  0
  145.4386  132.0869  150.2411 C   0  0  1  0  0  0  0  0  0  0  0  0
  145.4203  131.0947  151.4248 C   0  0  0  0  0  0  0  0  0  0  0  0
  146.7300  130.6390  151.6877 O   0  0  0  0  0  0  0  0  0  0  0  0
  144.1273  132.8459  149.9974 C   0  0  1  0  0  0  0  0  0  0  0  0
  142.9488  132.0643  150.0686 O   0  0  0  0  0  0  0  0  0  0  0  0
  144.1801  133.9856  151.0018 C   0  0  1  0  0  0  0  0  0  0  0  0
  143.6472  133.6212  152.2662 O   0  0  0  0  0  0  0  0  0  0  0  0
  147.0167  135.1050  158.4904 C   0  0  0  0  0  0  0  0  0  0  0  0
  147.2414  136.2997  159.4518 C   0  0  0  0  0  0  0  0  0  0  0  0
  146.6925  136.0336  160.8633 C   0  0  0  0  0  0  0  0  0  0  0  0
  147.2883  134.7563  161.4666 C   0  0  0  0  0  0  0  0  0  0  0  0
  147.0416  133.5592  160.5417 C   0  0  0  0  0  0  0  0  0  0  0  0
  147.6014  133.8213  159.1351 C   0  0  0  0  0  0  0  0  0  0  0  0
  145.9701  135.1486  150.4199 H   0  0  0  0  0  0  0  0  0  0  0  0
  145.7359  131.5653  149.3302 H   0  0  0  0  0  0  0  0  0  0  0  0
  144.1709  133.2763  148.9955 H   0  0  0  0  0  0  0  0  0  0  0  0
  143.6407  134.8633  150.6442 H   0  0  0  0  0  0  0  0  0  0  0  0
  151.4211  135.4353  156.6348 H   0  0  0  0  0  0  0  0  0  0  0  0
  149.4447  136.5212  155.1816 H   0  0  0  0  0  0  0  0  0  0  0  0
  149.4517  134.7714  155.0054 H   0  0  0  0  0  0  0  0  0  0  0  0
  149.5874  134.5325  157.4845 H   0  0  0  0  0  0  0  0  0  0  0  0
  149.4812  136.2617  157.6918 H   0  0  0  0  0  0  0  0  0  0  0  0
  147.3271  134.4783  156.4728 H   0  0  0  0  0  0  0  0  0  0  0  0
  147.1000  137.3838  157.0996 H   0  0  0  0  0  0  0  0  0  0  0  0
  144.1501  138.3439  153.6828 H   0  0  0  0  0  0  0  0  0  0  0  0
  147.6526  133.0187  152.7986 H   0  0  0  0  0  0  0  0  0  0  0  0
  144.9904  131.5313  152.3252 H   0  0  0  0  0  0  0  0  0  0  0  0
  144.8247  130.2152  151.1818 H   0  0  0  0  0  0  0  0  0  0  0  0
  147.2877  130.8976  150.9698 H   0  0  0  0  0  0  0  0  0  0  0  0
  142.2083  132.6195  149.8770 H   0  0  0  0  0  0  0  0  0  0  0  0
  142.7101  133.5348  152.1786 H   0  0  0  0  0  0  0  0  0  0  0  0
  145.9395  134.9647  158.3844 H   0  0  0  0  0  0  0  0  0  0  0  0
  148.3065  136.5277  159.5118 H   0  0  0  0  0  0  0  0  0  0  0  0
  146.7521  137.1973  159.0777 H   0  0  0  0  0  0  0  0  0  0  0  0
  146.9078  136.8839  161.5109 H   0  0  0  0  0  0  0  0  0  0  0  0
  145.6062  135.9452  160.8217 H   0  0  0  0  0  0  0  0  0  0  0  0
  148.3600  134.8869  161.6221 H   0  0  0  0  0  0  0  0  0  0  0  0
  146.8518  134.5670  162.4477 H   0  0  0  0  0  0  0  0  0  0  0  0
  147.5006  132.6642  160.9626 H   0  0  0  0  0  0  0  0  0  0  0  0
  145.9716  133.3580  160.4781 H   0  0  0  0  0  0  0  0  0  0  0  0
  147.3897  132.9472  158.5190 H   0  0  0  0  0  0  0  0  0  0  0  0
  148.6882  133.9006  159.1866 H   0  0  0  0  0  0  0  0  0  0  0  0
  1  2  1  0  0  0  0
  1 34  1  0  0  0  0
  2  3  1  0  0  0  0
  2 35  1  0  0  0  0
  2 36  1  0  0  0  0
  3  4  1  0  0  0  0
  3 37  1  0  0  0  0
  3 38  1  0  0  0  0
  4  5  1  0  0  0  0
  4 24  1  0  0  0  0
  4 39  1  0  0  0  0
  5  6  1  0  0  0  0
  5 40  1  0  0  0  0
  6 11  1  0  0  0  0
  6  7  2  0  0  0  0
  7  8  1  0  0  0  0
  8  9  2  0  0  0  0
  8 41  1  0  0  0  0
  9 10  1  0  0  0  0
 10 14  1  0  0  0  0
 10 11  2  0  0  0  0
 11 12  1  0  0  0  0
 12 13  2  0  0  0  0
 13 14  1  0  0  0  0
 13 42  1  0  0  0  0
 14 15  1  0  0  0  0
 15 30  1  0  0  0  0
 15 22  1  0  0  0  0
 15 16  1  0  0  0  0
 16 17  1  0  0  0  0
 17 31  1  0  0  0  0
 17 18  1  0  0  0  0
 17 20  1  0  0  0  0
 18 19  1  0  0  0  0
 18 43  1  0  0  0  0
 18 44  1  0  0  0  0
 19 45  1  0  0  0  0
 20 32  1  0  0  0  0
 20 21  1  0  0  0  0
 20 22  1  0  0  0  0
 21 46  1  0  0  0  0
 22 33  1  0  0  0  0
 22 23  1  0  0  0  0
 23 47  1  0  0  0  0
 24 29  1  0  0  0  0
 24 25  1  0  0  0  0
 24 48  1  0  0  0  0
 25 26  1  0  0  0  0
 25 49  1  0  0  0  0
 25 50  1  0  0  0  0
 26 27  1  0  0  0  0
 26 51  1  0  0  0  0
 26 52  1  0  0  0  0
 27 28  1  0  0  0  0
 27 53  1  0  0  0  0
 27 54  1  0  0  0  0
 28 29  1  0  0  0  0
 28 55  1  0  0  0  0
 28 56  1  0  0  0  0
 29 57  1  0  0  0  0
 29 58  1  0  0  0  0
M  END
> <s_m_source_file>
AV-unprocessed.smi

> <i_m_source_file_index>
109

> <i_lp_mmshare_version>
43012

> <i_f3d_flags>
0

> <s_epik_input>
W0NIMl0xW0NIMl1bQ0gyXVtDSDJdW0NIMl1bQ0hdMVtDQEhdKFtDSDJdW0NIMl1bT0hdKVtOSF1jKG5bY0hdbjIpYyhjMjMpbltjSF1uM1tDQEBIXTRPW0NASF0oW0NIMl1bT0hdKVtDQEBIXShbT0hdKVtDQEhdNFtPSF0=

> <s_epik_cmdline>
J2VwaWtfcHl0aG9uJywgJy1waCcsICc3LjAnLCAnLXRuJywgJzgnLCAnLW1hJywgJzIwMCcsICctbWV0YWxfYmluZGluZycsICctaW1hZScsICc8aW5maWxlLm1hZT4nLCAnLW9tYWUnLCAnPG91dGZpbGUubWFlPic=

> <r_lp_tautomer_probability>
1

> <r_epik_Ionization_Penalty>
0.000793976

> <r_epik_Ionization_Penalty_Charging>
0

> <r_epik_Ionization_Penalty_Neutral>
0.000793976

> <r_epik_State_Penalty>
-0

> <r_epik_Charging_Adjusted_Penalty>
0

> <i_epik_Tot_Q>
0

> <i_epik_Tot_abs_Q>
0

> <r_epik_Metal_State_Penalty>
-0

> <b_epik_Metal_Only>
0

> <s_epik_Chemistry_Notes>
This compound contains an acetal/aminal-like group ( X-CH(R)-Y where X, Y are N, S, or O) that may be acid/base labile, releasing an aldehyde.

> <s_lp_Force_Field>
OPLS_2005

> <r_lp_Energy>
61.3844

> <b_lp_Chiralities_Consistent>
1

> <s_lp_Variant>
AV-unprocessed.smi:109-7

> <Gold.Version>
5.8.1

> <Gold.Id.Protein>
6NUR|6NUR_protein|mol2

> <Gold.PLP.Fitness>
45.5672

> <Gold.PLP.PLP>
-34.0328

> <Gold.PLP.part.hbond>
-4.1119

> <Gold.PLP.part.metal>
0.0000

> <Gold.PLP.part.buried>
-6.3143

> <Gold.PLP.part.nonpolar>
-23.0860

> <Gold.PLP.part.repulsive>
0.4930

> <Gold.PLP.ligand.clash>
0.0000

> <Gold.PLP.ligand.torsion>
0.2124

> <Gold.PLP.Chemscore.Hbond>
2.9353

> <Gold.PLP.Chemscore.CHOScore>
0.9992

> <Gold.PLP.Chemscore.Metal>
0.0000

> <Gold.Chemscore.Hbonds>
donor molecule, donor type, donor heavy atom, donor atom, acceptor molecule, acceptor atom, score
      L1  H    19    45       P1 10747  0.91
      L1  H    21    46       P1 10186  0.62
      P1  H 10752 10765       L1     1  0.86
      P1  H 10785 10796       L1    21  0.21
      L1  C     8    41       P1 10175  1.00

> <Gold.PLP.Chemscore.Internal.Correction>
0.1560

> <Gold.Rescore>
     Score         DG    S(hbond)    S(metal)    S(lipo)     H(rot)  DE(clash)    DE(int)     intcor
      6.88      -8.54       2.80        0.00      65.90       5.47       0.15       1.51       ----

> <Gold.Chemscore.Fitness>
6.8760

> <Gold.Chemscore.DG>
-8.5368

> <Gold.Chemscore.ZeroCoef>
-5.4800

> <Gold.Chemscore.Hbond>
2.7965

> <Gold.Chemscore.Metal>
0.0000

> <Gold.Chemscore.Lipo>
65.8984

> <Gold.Chemscore.Internal_Hbond>
0.0000

> <Gold.Chemscore.DEClash>
0.1482

> <Gold.Chemscore.DEInternal>
1.5126

> <Gold.Chemscore.Rot>
5.4662

> <Gold.Chemscore.Internal.Correction>
   9.000000E+99

> <Gold.Chemscore.Hbonds>
donor molecule, donor type, donor heavy atom, donor atom, acceptor molecule, acceptor atom, score
      L1  H    19    45       P1 10747  0.90
      L1  H    21    46       P1 10186  0.62
      P1  H 10752 10765       L1     1  0.16
      P1  H 10785 10796       L1    21  0.15

> <Gold.Chemscore.Hbond.Weighted>
-9.3402

> <Gold.Chemscore.Metal.Weighted>
-0.0000

> <Gold.Chemscore.Lipo.Weighted>
-7.7101

> <Gold.Chemscore.Internal_Hbond.Weighted>
0.0000

> <Gold.Chemscore.DEClash.Weighted>
0.1482

> <Gold.Chemscore.DEInternal.Weighted>
1.5126

> <Gold.Chemscore.Rot.Weighted>
13.9935

> <Gold.Chemscore.Internal.Correction.Weighted>
   9.000000E+99

> <Gold.Protein.RotatedTorsions>
[ 6907 6896 6895 6894 ] final -104.92 input  -60.11 | X-H torsion
[ 7974 7965 7964 7962 ] final -175.86 input  175.53 | X-H torsion
[ 8008 7997 7996 7995 ] final  -67.12 input   59.86 | X-H torsion
[ 10167 10162 10161 10158 ] final -161.69 input  -65.29 | X-H torsion
[ 10718 10713 10712 10709 ] final  -42.92 input   66.30 | X-H torsion
[ 10763 10752 10751 10750 ] final -159.25 input  -60.55 | X-H torsion
[ 11005 11000 10999 10996 ] final  107.12 input  -57.11 | X-H torsion

> <Gold.Protein.ActiveResidues>
 VAL166  LYS551  ARG553  GLY616  TRP617  ASP618  TYR619  PRO620  LYS621  CYS622 
 ASP623  PHE694  ASN695  SER759  ASP760  ASP761  ALA762  ILE779  LEU786  VAL792 
 PHE793  MET794  SER795  GLU796  ALA797  LYS798  CYS799  TRP800  GLU811  SER814 

> <Gold.Protein.RotatedAtoms>
  150.7311  134.0205  159.3699 H   0  0  0  0  0  0  0  0  0  0  0  0  # atno 6907 bound_to 6896
  151.8170  135.0661  160.0429 H   0  0  0  0  0  0  0  0  0  0  0  0  # atno 6908 bound_to 6896
  152.3032  133.5640  159.5668 H   0  0  0  0  0  0  0  0  0  0  0  0  # atno 6909 bound_to 6896
  144.7127  140.1257  143.6402 H   0  0  0  0  0  0  0  0  0  0  0  0  # atno 7974 bound_to 7965
  154.4779  140.0899  156.7307 H   0  0  0  0  0  0  0  0  0  0  0  0  # atno 8008 bound_to 7997
  155.4548  140.3459  155.4287 H   0  0  0  0  0  0  0  0  0  0  0  0  # atno 8009 bound_to 7997
  156.1145  140.1457  156.9280 H   0  0  0  0  0  0  0  0  0  0  0  0  # atno 8010 bound_to 7997
  139.6447  144.0195  152.2118 H   0  0  0  0  0  0  0  0  0  0  0  0  # atno 10167 bound_to 10162
  156.2545  130.4191  149.8612 H   0  0  0  0  0  0  0  0  0  0  0  0  # atno 10718 bound_to 10713
  154.7490  135.3087  154.8591 H   0  0  0  0  0  0  0  0  0  0  0  0  # atno 10763 bound_to 10752
  153.9384  135.6777  153.4749 H   0  0  0  0  0  0  0  0  0  0  0  0  # atno 10764 bound_to 10752
  153.1086  135.4877  154.8923 H   0  0  0  0  0  0  0  0  0  0  0  0  # atno 10765 bound_to 10752
  139.8823  134.9391  156.5771 H   0  0  0  0  0  0  0  0  0  0  0  0  # atno 11005 bound_to 11000
  145.9331  139.2619  143.1313 LP  0  0  0  0  0  0  0  0  0  0  0  0  # atno 17320 bound_to 7965
  145.9502  140.8914  143.0263 LP  0  0  0  0  0  0  0  0  0  0  0  0  # atno 17321 bound_to 7965
  139.9893  144.6373  150.7828 LP  0  0  0  0  0  0  0  0  0  0  0  0  # atno 17342 bound_to 10162
  140.7508  143.2962  151.3198 LP  0  0  0  0  0  0  0  0  0  0  0  0  # atno 17343 bound_to 10162
  156.6149  130.8602  151.3462 LP  0  0  0  0  0  0  0  0  0  0  0  0  # atno 17370 bound_to 10713
  157.7227  130.9580  150.1505 LP  0  0  0  0  0  0  0  0  0  0  0  0  # atno 17371 bound_to 10713
  140.8055  133.8471  155.8763 LP  0  0  0  0  0  0  0  0  0  0  0  0  # atno 17394 bound_to 11000
  140.9554  134.1725  157.4696 LP  0  0  0  0  0  0  0  0  0  0  0  0  # atno 17395 bound_to 11000

$$$$
