AV-unprocessed.smi:1672|AV-procd|sdf|6707|dock1
  -GOLD-   22720 7453D 1   1.00000     0.00000
 Structure written by MMmdl.
 49 51  0  0  0  0  0  0  0  0  3 V2000
  146.9437  132.7859  152.9055 C   0  0  0  0  0  0  0  0  0  0  0  0
  145.6415  133.3951  153.4540 C   0  0  2  0  0  0  0  0  0  0  0  0
  144.7379  133.9657  152.3459 C   0  0  0  0  0  0  0  0  0  0  0  0
  145.2768  135.2914  151.7784 C   0  0  0  0  0  0  0  0  0  0  0  0
  145.4825  136.2940  152.8549 N   0  3  2  0  0  0  0  0  0  0  0  0
  145.8655  137.6267  152.3207 C   0  0  0  0  0  0  0  0  0  0  0  0
  146.5105  138.5281  153.3920 C   0  0  2  0  0  0  0  0  0  0  0  0
  145.4926  139.0266  154.2383 O   0  0  0  0  0  0  0  0  0  0  0  0
  147.2825  139.7052  152.7630 C   0  0  0  0  0  0  0  0  0  0  0  0
  147.9444  140.5561  153.7660 N   0  0  0  0  0  0  0  0  0  0  0  0
  147.5607  141.7596  154.2831 C   0  0  0  0  0  0  0  0  0  0  0  0
  146.3253  142.5275  153.9469 C   0  0  0  0  0  0  0  0  0  0  0  0
  145.1652  141.9412  154.4933 O   0  0  0  0  0  0  0  0  0  0  0  0
  148.5122  142.1358  155.1827 N   0  3  0  0  0  0  0  0  0  0  0  0
  149.5154  141.1682  155.2426 C   0  0  0  0  0  0  0  0  0  0  0  0
  150.6791  141.1105  156.0032 C   0  0  0  0  0  0  0  0  0  0  0  0
  151.4946  139.9736  155.8274 C   0  0  0  0  0  0  0  0  0  0  0  0
  151.1421  138.9509  154.9233 C   0  0  0  0  0  0  0  0  0  0  0  0
  149.9596  139.0206  154.1574 C   0  0  0  0  0  0  0  0  0  0  0  0
  149.1572  140.1479  154.3369 C   0  0  0  0  0  0  0  0  0  0  0  0
  146.4114  135.7903  153.9012 C   0  0  0  0  0  0  0  0  0  0  0  0
  145.8930  134.4790  154.5182 C   0  0  0  0  0  0  0  0  0  0  0  0
  147.5602  133.5238  152.3927 H   0  0  0  0  0  0  0  0  0  0  0  0
  146.7311  131.9854  152.1962 H   0  0  0  0  0  0  0  0  0  0  0  0
  147.5433  132.3581  153.7094 H   0  0  0  0  0  0  0  0  0  0  0  0
  145.0991  132.5799  153.9351 H   0  0  0  0  0  0  0  0  0  0  0  0
  144.6168  133.2366  151.5440 H   0  0  0  0  0  0  0  0  0  0  0  0
  143.7395  134.1355  152.7517 H   0  0  0  0  0  0  0  0  0  0  0  0
  146.2132  135.1297  151.2428 H   0  0  0  0  0  0  0  0  0  0  0  0
  144.5623  135.6776  151.0504 H   0  0  0  0  0  0  0  0  0  0  0  0
  146.5402  137.4918  151.4738 H   0  0  0  0  0  0  0  0  0  0  0  0
  144.9856  138.1374  151.9260 H   0  0  0  0  0  0  0  0  0  0  0  0
  147.2015  137.9511  154.0049 H   0  0  0  0  0  0  0  0  0  0  0  0
  144.9985  139.6798  153.7665 H   0  0  0  0  0  0  0  0  0  0  0  0
  148.0628  139.3246  152.1029 H   0  0  0  0  0  0  0  0  0  0  0  0
  146.6340  140.3185  152.1372 H   0  0  0  0  0  0  0  0  0  0  0  0
  146.4181  143.5461  154.3250 H   0  0  0  0  0  0  0  0  0  0  0  0
  146.2171  142.5967  152.8646 H   0  0  0  0  0  0  0  0  0  0  0  0
  144.5715  141.7307  153.7887 H   0  0  0  0  0  0  0  0  0  0  0  0
  150.9512  141.8932  156.6961 H   0  0  0  0  0  0  0  0  0  0  0  0
  152.4083  139.8840  156.3971 H   0  0  0  0  0  0  0  0  0  0  0  0
  151.7925  138.0949  154.8151 H   0  0  0  0  0  0  0  0  0  0  0  0
  149.7044  138.2303  153.4678 H   0  0  0  0  0  0  0  0  0  0  0  0
  147.4032  135.6427  153.4718 H   0  0  0  0  0  0  0  0  0  0  0  0
  146.5249  136.5283  154.6944 H   0  0  0  0  0  0  0  0  0  0  0  0
  144.9616  134.6821  155.0487 H   0  0  0  0  0  0  0  0  0  0  0  0
  146.5943  134.1150  155.2698 H   0  0  0  0  0  0  0  0  0  0  0  0
  144.5815  136.4166  153.2958 H   0  0  0  0  0  0  0  0  0  0  0  0
  148.4727  142.9928  155.7198 H   0  0  0  0  0  0  0  0  0  0  0  0
  1  2  1  0  0  0  0
  1 23  1  0  0  0  0
  1 24  1  0  0  0  0
  1 25  1  0  0  0  0
  2 22  1  0  0  0  0
  2  3  1  0  0  0  0
  2 26  1  0  0  0  0
  3  4  1  0  0  0  0
  3 27  1  0  0  0  0
  3 28  1  0  0  0  0
  4  5  1  0  0  0  0
  4 29  1  0  0  0  0
  4 30  1  0  0  0  0
  5  6  1  0  0  0  0
  5 21  1  0  0  0  0
  5 48  1  0  0  0  0
  6  7  1  0  0  0  0
  6 31  1  0  0  0  0
  6 32  1  0  0  0  0
  7  8  1  0  0  0  0
  7  9  1  0  0  0  0
  7 33  1  0  0  0  0
  8 34  1  0  0  0  0
  9 10  1  0  0  0  0
  9 35  1  0  0  0  0
  9 36  1  0  0  0  0
 10 20  1  0  0  0  0
 10 11  1  0  0  0  0
 11 12  1  0  0  0  0
 11 14  2  0  0  0  0
 12 13  1  0  0  0  0
 12 37  1  0  0  0  0
 12 38  1  0  0  0  0
 13 39  1  0  0  0  0
 14 15  1  0  0  0  0
 14 49  1  0  0  0  0
 15 20  2  0  0  0  0
 15 16  1  0  0  0  0
 16 17  2  0  0  0  0
 16 40  1  0  0  0  0
 17 18  1  0  0  0  0
 17 41  1  0  0  0  0
 18 19  2  0  0  0  0
 18 42  1  0  0  0  0
 19 20  1  0  0  0  0
 19 43  1  0  0  0  0
 21 22  1  0  0  0  0
 21 44  1  0  0  0  0
 21 45  1  0  0  0  0
 22 46  1  0  0  0  0
 22 47  1  0  0  0  0
M  CHG  1   5   1
M  CHG  1  14   1
M  END
> <s_m_source_file>
AV-unprocessed.smi

> <i_m_source_file_index>
1672

> <i_lp_mmshare_version>
43012

> <i_f3d_flags>
0

> <s_epik_input>
W0NIM11bQ0hdMVtDSDJdW0NIMl1OKFtDSDJdW0NIMl0xKVtDSDJdW0NASF0oW09IXSlbQ0gyXW4oYyhuMilbQ0gyXVtPSF0pYyhjMjMpW2NIXVtjSF1bY0hdW2NIXTM=

> <s_epik_cmdline>
J2VwaWtfcHl0aG9uJywgJy1waCcsICc3LjAnLCAnLXRuJywgJzgnLCAnLW1hJywgJzIwMCcsICctbWV0YWxfYmluZGluZycsICctaW1hZScsICc8aW5maWxlLm1hZT4nLCAnLW9tYWUnLCAnPG91dGZpbGUubWFlPic=

> <r_epik_Ionization_Penalty>
1.51642

> <r_epik_Ionization_Penalty_Charging>
1.51557

> <r_epik_Ionization_Penalty_Neutral>
0.000856474

> <r_epik_State_Penalty>
1.6048

> <r_epik_Charging_Adjusted_Penalty>
3.12037

> <i_epik_Tot_Q>
2

> <i_epik_Tot_abs_Q>
2

> <r_epik_Metal_State_Penalty>
5.65673

> <b_epik_Metal_Only>
0

> <s_lp_Force_Field>
OPLS_2005

> <r_lp_Energy>
31.2365

> <b_lp_Chiralities_Consistent>
1

> <s_lp_Variant>
AV-unprocessed.smi:1672-7

> <Gold.Version>
5.8.1

> <Gold.Id.Protein>
6NUR|6NUR_protein|mol2

> <Gold.PLP.Fitness>
49.1256

> <Gold.PLP.PLP>
-40.7034

> <Gold.PLP.part.hbond>
-3.0000

> <Gold.PLP.part.metal>
0.0000

> <Gold.PLP.part.buried>
0.0728

> <Gold.PLP.part.nonpolar>
-38.9360

> <Gold.PLP.part.repulsive>
0.1582

> <Gold.PLP.ligand.clash>
0.0000

> <Gold.PLP.ligand.torsion>
0.7900

> <Gold.PLP.Chemscore.Hbond>
3.2732

> <Gold.PLP.Chemscore.CHOScore>
0.0000

> <Gold.PLP.Chemscore.Metal>
0.0000

> <Gold.Chemscore.Hbonds>
donor molecule, donor type, donor heavy atom, donor atom, acceptor molecule, acceptor atom, score
      L1  H     8    34       P1 10175  1.00
      L1  H    13    39       P1 10175  0.55
      L1  H    14    49       P1  8028  1.70

> <Gold.PLP.Chemscore.Internal.Correction>
0.1825

> <Gold.Rescore>
     Score         DG    S(hbond)    S(metal)    S(lipo)     H(rot)  DE(clash)    DE(int)     intcor
     12.84     -14.80       1.87        0.00      90.84       2.96       1.33       0.63       ----

> <Gold.Chemscore.Fitness>
12.8449

> <Gold.Chemscore.DG>
-14.7995

> <Gold.Chemscore.ZeroCoef>
-5.4800

> <Gold.Chemscore.Hbond>
1.8733

> <Gold.Chemscore.Metal>
0.0000

> <Gold.Chemscore.Lipo>
90.8434

> <Gold.Chemscore.Internal_Hbond>
0.0000

> <Gold.Chemscore.DEClash>
1.3270

> <Gold.Chemscore.DEInternal>
0.6276

> <Gold.Chemscore.Rot>
2.9555

> <Gold.Chemscore.Internal.Correction>
   9.000000E+99

> <Gold.Chemscore.Hbonds>
donor molecule, donor type, donor heavy atom, donor atom, acceptor molecule, acceptor atom, score
      L1  H     8    34       P1 10175  0.95
      L1  H    13    39       P1 10175  0.03
      L1  H    14    49       P1  8028  0.84

> <Gold.Chemscore.Hbond.Weighted>
-6.2569

> <Gold.Chemscore.Metal.Weighted>
-0.0000

> <Gold.Chemscore.Lipo.Weighted>
-10.6287

> <Gold.Chemscore.Internal_Hbond.Weighted>
0.0000

> <Gold.Chemscore.DEClash.Weighted>
1.3270

> <Gold.Chemscore.DEInternal.Weighted>
0.6276

> <Gold.Chemscore.Rot.Weighted>
7.5660

> <Gold.Chemscore.Internal.Correction.Weighted>
   9.000000E+99

> <Gold.Protein.RotatedTorsions>
[ 6907 6896 6895 6894 ] final  129.09 input  -60.11 | X-H torsion
[ 7974 7965 7964 7962 ] final   26.86 input  175.53 | X-H torsion
[ 8008 7997 7996 7995 ] final  -61.18 input   59.86 | X-H torsion
[ 10167 10162 10161 10158 ] final -124.69 input  -65.29 | X-H torsion
[ 10718 10713 10712 10709 ] final  155.79 input   66.30 | X-H torsion
[ 10763 10752 10751 10750 ] final  -51.41 input  -60.55 | X-H torsion
[ 11005 11000 10999 10996 ] final   87.91 input  -57.11 | X-H torsion

> <Gold.Protein.ActiveResidues>
 VAL166  LYS551  ARG553  GLY616  TRP617  ASP618  TYR619  PRO620  LYS621  CYS622 
 ASP623  PHE694  ASN695  SER759  ASP760  ASP761  ALA762  ILE779  LEU786  VAL792 
 PHE793  MET794  SER795  GLU796  ALA797  LYS798  CYS799  TRP800  GLU811  SER814 

> <Gold.Protein.RotatedAtoms>
  152.3657  133.6353  159.6048 H   0  0  0  0  0  0  0  0  0  0  0  0  # atno 6907 bound_to 6896
  150.7632  133.9352  159.3448 H   0  0  0  0  0  0  0  0  0  0  0  0  # atno 6908 bound_to 6896
  151.7183  135.0900  160.0331 H   0  0  0  0  0  0  0  0  0  0  0  0  # atno 6909 bound_to 6896
  146.1815  139.7270  142.8897 H   0  0  0  0  0  0  0  0  0  0  0  0  # atno 7974 bound_to 7965
  154.4435  140.1023  156.6390 H   0  0  0  0  0  0  0  0  0  0  0  0  # atno 8008 bound_to 7997
  155.5522  140.3486  155.4453 H   0  0  0  0  0  0  0  0  0  0  0  0  # atno 8009 bound_to 7997
  156.0520  140.1306  157.0028 H   0  0  0  0  0  0  0  0  0  0  0  0  # atno 8010 bound_to 7997
  139.9901  143.5650  152.2345 H   0  0  0  0  0  0  0  0  0  0  0  0  # atno 10167 bound_to 10162
  157.2136  131.0703  151.1954 H   0  0  0  0  0  0  0  0  0  0  0  0  # atno 10718 bound_to 10713
  154.1262  135.6527  153.4913 H   0  0  0  0  0  0  0  0  0  0  0  0  # atno 10763 bound_to 10752
  153.0209  135.5282  154.7047 H   0  0  0  0  0  0  0  0  0  0  0  0  # atno 10764 bound_to 10752
  154.6269  135.2971  155.0232 H   0  0  0  0  0  0  0  0  0  0  0  0  # atno 10765 bound_to 10752
  139.8908  134.8453  156.2926 H   0  0  0  0  0  0  0  0  0  0  0  0  # atno 11005 bound_to 11000
  145.4062  141.0391  143.3042 LP  0  0  0  0  0  0  0  0  0  0  0  0  # atno 17320 bound_to 7965
  144.8323  139.5607  143.6938 LP  0  0  0  0  0  0  0  0  0  0  0  0  # atno 17321 bound_to 7965
  139.6346  144.7648  151.2464 LP  0  0  0  0  0  0  0  0  0  0  0  0  # atno 17342 bound_to 10162
  140.7458  143.6420  150.8326 LP  0  0  0  0  0  0  0  0  0  0  0  0  # atno 17343 bound_to 10162
  157.3647  130.7149  149.6525 LP  0  0  0  0  0  0  0  0  0  0  0  0  # atno 17370 bound_to 10713
  155.9688  130.4215  150.4475 LP  0  0  0  0  0  0  0  0  0  0  0  0  # atno 17371 bound_to 10713
  140.9966  133.7176  156.0896 LP  0  0  0  0  0  0  0  0  0  0  0  0  # atno 17394 bound_to 11000
  140.7554  134.3999  157.5534 LP  0  0  0  0  0  0  0  0  0  0  0  0  # atno 17395 bound_to 11000

$$$$
