AV-unprocessed.smi:54|AV-procd|sdf|545|dock3
  -GOLD-   2262016433D 1   1.00000     0.00000
 Structure written by MMmdl.
 43 45  0  0  0  0  0  0  0  0  2 V2000
  145.5145  136.7392  161.8232 C   0  0  0  0  0  0  0  0  0  0  0  0
  146.6001  135.8761  161.1591 C   0  0  0  0  0  0  0  0  0  0  0  0
  147.6800  135.4614  162.1725 C   0  0  0  0  0  0  0  0  0  0  0  0
  147.2265  136.6140  159.9672 C   0  0  0  0  0  0  0  0  0  0  0  0
  146.8808  137.7742  159.7331 O   0  0  0  0  0  0  0  0  0  0  0  0
  148.1393  135.9054  159.2652 N   0  0  0  0  0  0  0  0  0  0  0  0
  148.8919  136.2862  158.1472 C   0  0  0  0  0  0  0  0  0  0  0  0
  148.1967  136.9690  157.2695 N   0  0  0  0  0  0  0  0  0  0  0  0
  148.9500  137.3485  156.1753 C   0  0  0  0  0  0  0  0  0  0  0  0
  150.2749  137.1016  155.9426 C   0  0  0  0  0  0  0  0  0  0  0  0
  150.6899  137.6477  154.7340 N   0  0  0  0  0  0  0  0  0  0  0  0
  149.5695  138.2101  154.2844 C   0  0  0  0  0  0  0  0  0  0  0  0
  148.4911  138.0764  155.0842 N   0  0  0  0  0  0  0  0  0  0  0  0
  147.1074  138.6019  154.8671 C   0  0  2  0  0  0  0  0  0  0  0  0
  146.2497  137.5066  154.7179 O   0  0  0  0  0  0  0  0  0  0  0  0
  145.6451  137.4983  153.4246 C   0  0  2  0  0  0  0  0  0  0  0  0
  145.4965  136.0532  152.9246 C   0  0  0  0  0  0  0  0  0  0  0  0
  146.7349  135.3824  153.0104 O   0  0  0  0  0  0  0  0  0  0  0  0
  146.5922  138.3462  152.5735 C   0  0  1  0  0  0  0  0  0  0  0  0
  145.9706  138.9016  151.4302 O   0  0  0  0  0  0  0  0  0  0  0  0
  147.0678  139.4022  153.5612 C   0  0  1  0  0  0  0  0  0  0  0  0
  146.1843  140.5028  153.6704 O   0  0  0  0  0  0  0  0  0  0  0  0
  151.0041  136.3345  156.9787 C   0  0  0  0  0  0  0  0  0  0  0  0
  152.1975  136.0902  156.8136 O   0  0  0  0  0  0  0  0  0  0  0  0
  150.2600  135.9577  158.0613 N   0  5  0  0  0  0  0  0  0  0  0  0
  146.8860  139.1798  155.7654 H   0  0  0  0  0  0  0  0  0  0  0  0
  144.6753  137.9952  153.4897 H   0  0  0  0  0  0  0  0  0  0  0  0
  147.4445  137.7432  152.2562 H   0  0  0  0  0  0  0  0  0  0  0  0
  148.0565  139.7875  153.3069 H   0  0  0  0  0  0  0  0  0  0  0  0
  144.7457  137.0292  161.1060 H   0  0  0  0  0  0  0  0  0  0  0  0
  145.9322  137.6515  162.2514 H   0  0  0  0  0  0  0  0  0  0  0  0
  145.0213  136.1932  162.6276 H   0  0  0  0  0  0  0  0  0  0  0  0
  146.1233  134.9663  160.7903 H   0  0  0  0  0  0  0  0  0  0  0  0
  148.4573  134.8601  161.6990 H   0  0  0  0  0  0  0  0  0  0  0  0
  147.2498  134.8644  162.9769 H   0  0  0  0  0  0  0  0  0  0  0  0
  148.1603  136.3291  162.6268 H   0  0  0  0  0  0  0  0  0  0  0  0
  148.3343  134.9871  159.6359 H   0  0  0  0  0  0  0  0  0  0  0  0
  149.5371  138.7395  153.3444 H   0  0  0  0  0  0  0  0  0  0  0  0
  144.7867  135.5111  153.5502 H   0  0  0  0  0  0  0  0  0  0  0  0
  145.1178  136.0202  151.9030 H   0  0  0  0  0  0  0  0  0  0  0  0
  147.4066  135.9437  152.6542 H   0  0  0  0  0  0  0  0  0  0  0  0
  145.3291  139.5337  151.7170 H   0  0  0  0  0  0  0  0  0  0  0  0
  145.3982  140.3026  153.1854 H   0  0  0  0  0  0  0  0  0  0  0  0
  1  2  1  0  0  0  0
  1 30  1  0  0  0  0
  1 31  1  0  0  0  0
  1 32  1  0  0  0  0
  2  3  1  0  0  0  0
  2  4  1  0  0  0  0
  2 33  1  0  0  0  0
  3 34  1  0  0  0  0
  3 35  1  0  0  0  0
  3 36  1  0  0  0  0
  4  5  2  0  0  0  0
  4  6  1  0  0  0  0
  6 37  1  0  0  0  0
  6  7  1  0  0  0  0
  7 25  1  0  0  0  0
  7  8  2  0  0  0  0
  8  9  1  0  0  0  0
  9 13  1  0  0  0  0
  9 10  2  0  0  0  0
 10 11  1  0  0  0  0
 10 23  1  0  0  0  0
 11 12  2  0  0  0  0
 12 13  1  0  0  0  0
 12 38  1  0  0  0  0
 13 14  1  0  0  0  0
 14 26  1  0  0  0  0
 14 21  1  0  0  0  0
 14 15  1  0  0  0  0
 15 16  1  0  0  0  0
 16 27  1  0  0  0  0
 16 17  1  0  0  0  0
 16 19  1  0  0  0  0
 17 18  1  0  0  0  0
 17 39  1  0  0  0  0
 17 40  1  0  0  0  0
 18 41  1  0  0  0  0
 19 28  1  0  0  0  0
 19 20  1  0  0  0  0
 19 21  1  0  0  0  0
 20 42  1  0  0  0  0
 21 29  1  0  0  0  0
 21 22  1  0  0  0  0
 22 43  1  0  0  0  0
 23 24  2  0  0  0  0
 23 25  1  0  0  0  0
M  CHG  1  25  -1
M  END
> <s_m_source_file>
AV-unprocessed.smi

> <i_m_source_file_index>
54

> <i_lp_mmshare_version>
43012

> <i_f3d_flags>
0

> <s_epik_input>
W0NIM11bQ0hdKFtDSDNdKUMoPU8pW05IXWMobjEpW25IXWMoPU8pYyhjMTIpbltjSF1uMltDQEBIXTNPW0NASF0oW0NIMl1bT0hdKVtDQEBIXShbT0hdKVtDQEhdM1tPSF0=

> <s_epik_cmdline>
J2VwaWtfcHl0aG9uJywgJy1waCcsICc3LjAnLCAnLXRuJywgJzgnLCAnLW1hJywgJzIwMCcsICctbWV0YWxfYmluZGluZycsICctaW1hZScsICc8aW5maWxlLm1hZT4nLCAnLW9tYWUnLCAnPG91dGZpbGUubWFlPic=

> <r_lp_tautomer_probability>
0.85571

> <r_epik_Ionization_Penalty>
1.75936

> <r_epik_Ionization_Penalty_Charging>
4.55893e-11

> <r_epik_Ionization_Penalty_Neutral>
1.75936

> <r_epik_State_Penalty>
1.72072

> <r_epik_Charging_Adjusted_Penalty>
1.72072

> <i_epik_Tot_Q>
-1

> <i_epik_Tot_abs_Q>
1

> <r_epik_Metal_State_Penalty>
0.400338

> <b_epik_Metal_Only>
1

> <s_epik_Chemistry_Notes>
This compound contains an acetal/aminal-like group ( X-CH(R)-Y where X, Y are N, S, or O) that may be acid/base labile, releasing an aldehyde.

> <s_lp_Force_Field>
OPLS_2005

> <r_lp_Energy>
58.3918

> <b_lp_Chiralities_Consistent>
1

> <s_lp_Variant>
AV-unprocessed.smi:54-17

> <Gold.Version>
5.8.1

> <Gold.Id.Protein>
6NUR|6NUR_protein|mol2

> <Gold.PLP.Fitness>
48.8449

> <Gold.PLP.PLP>
-26.9862

> <Gold.PLP.part.hbond>
-6.9923

> <Gold.PLP.part.metal>
0.0000

> <Gold.PLP.part.buried>
-6.5000

> <Gold.PLP.part.nonpolar>
-15.6722

> <Gold.PLP.part.repulsive>
0.3508

> <Gold.PLP.ligand.clash>
0.0000

> <Gold.PLP.ligand.torsion>
0.4116

> <Gold.PLP.Chemscore.Hbond>
6.5440

> <Gold.PLP.Chemscore.CHOScore>
0.9990

> <Gold.PLP.Chemscore.Metal>
0.0000

> <Gold.Chemscore.Hbonds>
donor molecule, donor type, donor heavy atom, donor atom, acceptor molecule, acceptor atom, score
      L1  H    18    41       P1  7948  1.00
      L1  H    20    42       P1 10175  1.00
      L1  H    22    43       P1 10175  1.00
      P1  H  6896  6907       L1    25  1.62
      P1  H  6934  6947       L1     5  0.91
      P1  H 10752 10763       L1    24  0.93
      L1  C    12    38       P1  7957  0.99

> <Gold.PLP.Chemscore.Internal.Correction>
0.0529

> <Gold.Rescore>
     Score         DG    S(hbond)    S(metal)    S(lipo)     H(rot)  DE(clash)    DE(int)     intcor
     17.00     -18.39       5.44        0.00      42.95       4.02       0.00       1.39       ----

> <Gold.Chemscore.Fitness>
17.0045

> <Gold.Chemscore.DG>
-18.3906

> <Gold.Chemscore.ZeroCoef>
-5.4800

> <Gold.Chemscore.Hbond>
5.4416

> <Gold.Chemscore.Metal>
0.0000

> <Gold.Chemscore.Lipo>
42.9489

> <Gold.Chemscore.Internal_Hbond>
0.0000

> <Gold.Chemscore.DEClash>
0.0000

> <Gold.Chemscore.DEInternal>
1.3861

> <Gold.Chemscore.Rot>
4.0192

> <Gold.Chemscore.Internal.Correction>
   9.000000E+99

> <Gold.Chemscore.Hbonds>
donor molecule, donor type, donor heavy atom, donor atom, acceptor molecule, acceptor atom, score
      L1  H    18    41       P1  7948  0.96
      L1  H    20    42       P1 10175  0.74
      L1  H    22    43       P1 10175  0.98
      P1  H  6896  6907       L1    25  0.60
      P1  H  6934  6947       L1     5  0.88
      P1  H 10752 10763       L1    24  0.89

> <Gold.Chemscore.Hbond.Weighted>
-18.1749

> <Gold.Chemscore.Metal.Weighted>
-0.0000

> <Gold.Chemscore.Lipo.Weighted>
-5.0250

> <Gold.Chemscore.Internal_Hbond.Weighted>
0.0000

> <Gold.Chemscore.DEClash.Weighted>
0.0000

> <Gold.Chemscore.DEInternal.Weighted>
1.3861

> <Gold.Chemscore.Rot.Weighted>
10.2893

> <Gold.Chemscore.Internal.Correction.Weighted>
   9.000000E+99

> <Gold.Protein.RotatedTorsions>
[ 6907 6896 6895 6894 ] final  -53.47 input  -60.11 | X-H torsion
[ 7974 7965 7964 7962 ] final  -48.40 input  175.53 | X-H torsion
[ 8008 7997 7996 7995 ] final   54.47 input   59.86 | X-H torsion
[ 10167 10162 10161 10158 ] final -169.67 input  -65.29 | X-H torsion
[ 10718 10713 10712 10709 ] final  -59.56 input   66.30 | X-H torsion
[ 10763 10752 10751 10750 ] final   98.81 input  -60.55 | X-H torsion
[ 11005 11000 10999 10996 ] final  139.63 input  -57.11 | X-H torsion

> <Gold.Protein.ActiveResidues>
 VAL166  LYS551  ARG553  GLY616  TRP617  ASP618  TYR619  PRO620  LYS621  CYS622 
 ASP623  PHE694  ASN695  SER759  ASP760  ASP761  ALA762  ILE779  LEU786  VAL792 
 PHE793  MET794  SER795  GLU796  ALA797  LYS798  CYS799  TRP800  GLU811  SER814 

> <Gold.Protein.RotatedAtoms>
  150.8424  134.7720  159.6942 H   0  0  0  0  0  0  0  0  0  0  0  0  # atno 6907 bound_to 6896
  152.4508  134.5394  159.9844 H   0  0  0  0  0  0  0  0  0  0  0  0  # atno 6908 bound_to 6896
  151.5531  133.3376  159.2992 H   0  0  0  0  0  0  0  0  0  0  0  0  # atno 6909 bound_to 6896
  145.9515  140.7567  142.9502 H   0  0  0  0  0  0  0  0  0  0  0  0  # atno 7974 bound_to 7965
  155.4852  140.3469  155.4346 H   0  0  0  0  0  0  0  0  0  0  0  0  # atno 8008 bound_to 7997
  156.1013  140.1436  156.9492 H   0  0  0  0  0  0  0  0  0  0  0  0  # atno 8009 bound_to 7997
  154.4695  140.0905  156.7087 H   0  0  0  0  0  0  0  0  0  0  0  0  # atno 8010 bound_to 7997
  139.5909  144.1216  152.1632 H   0  0  0  0  0  0  0  0  0  0  0  0  # atno 10167 bound_to 10162
  156.1053  130.4181  150.0732 H   0  0  0  0  0  0  0  0  0  0  0  0  # atno 10718 bound_to 10713
  153.2936  135.4135  155.1189 H   0  0  0  0  0  0  0  0  0  0  0  0  # atno 10763 bound_to 10752
  154.8528  135.3524  154.5948 H   0  0  0  0  0  0  0  0  0  0  0  0  # atno 10764 bound_to 10752
  153.6371  135.7058  153.5313 H   0  0  0  0  0  0  0  0  0  0  0  0  # atno 10765 bound_to 10752
  140.0269  134.9370  157.0585 H   0  0  0  0  0  0  0  0  0  0  0  0  # atno 11005 bound_to 11000
  144.6797  140.2442  143.7340 LP  0  0  0  0  0  0  0  0  0  0  0  0  # atno 17320 bound_to 7965
  145.8164  139.2025  143.1963 LP  0  0  0  0  0  0  0  0  0  0  0  0  # atno 17321 bound_to 7965
  140.0790  144.5716  150.7136 LP  0  0  0  0  0  0  0  0  0  0  0  0  # atno 17342 bound_to 10162
  140.7172  143.2555  151.4397 LP  0  0  0  0  0  0  0  0  0  0  0  0  # atno 17343 bound_to 10162
  156.8709  130.9524  151.3609 LP  0  0  0  0  0  0  0  0  0  0  0  0  # atno 17370 bound_to 10713
  157.6229  130.8669  149.9139 LP  0  0  0  0  0  0  0  0  0  0  0  0  # atno 17371 bound_to 10713
  140.4292  134.1799  155.7167 LP  0  0  0  0  0  0  0  0  0  0  0  0  # atno 17394 bound_to 11000
  141.1808  133.8418  157.1265 LP  0  0  0  0  0  0  0  0  0  0  0  0  # atno 17395 bound_to 11000

$$$$
