AV-unprocessed.smi:48|AV-procd|sdf|452|dock3
  -GOLD-   2262016323D 1   1.00000     0.00000
 Structure written by MMmdl.
 30 32  0  0  0  0  0  0  0  0  1 V2000
  144.1708  142.2221  154.7761 O   0  0  0  0  0  0  0  0  0  0  0  0
  145.4404  142.6199  154.3042 C   0  0  0  0  0  0  0  0  0  0  0  0
  146.5172  141.6326  154.7871 C   0  0  2  0  0  0  0  0  0  0  0  0
  147.8038  142.2480  154.8021 O   0  0  0  0  0  0  0  0  0  0  0  0
  148.8068  141.3010  154.5841 C   0  0  1  0  0  0  0  0  0  0  0  0
  149.7105  141.2514  155.7806 N   0  0  0  0  0  0  0  0  0  0  0  0
  149.5643  141.9440  156.9283 C   0  0  0  0  0  0  0  0  0  0  0  0
  150.4770  141.7594  157.8805 N   0  0  0  0  0  0  0  0  0  0  0  0
  151.3146  140.8327  157.2830 C   0  0  0  0  0  0  0  0  0  0  0  0
  152.4952  140.1863  157.7227 C   0  0  0  0  0  0  0  0  0  0  0  0
  153.1515  140.5030  159.2871 Cl  0  0  0  0  0  0  0  0  0  0  0  0
  153.1018  139.3113  156.8861 N   0  0  0  0  0  0  0  0  0  0  0  0
  152.5708  139.0845  155.6785 C   0  0  0  0  0  0  0  0  0  0  0  0
  151.4713  139.6147  155.1316 N   0  0  0  0  0  0  0  0  0  0  0  0
  150.8594  140.4976  155.9751 C   0  0  0  0  0  0  0  0  0  0  0  0
  148.1293  139.9523  154.2657 C   0  0  1  0  0  0  0  0  0  0  0  0
  148.1204  139.0393  155.3489 O   0  0  0  0  0  0  0  0  0  0  0  0
  146.7141  140.3846  153.9148 C   0  0  2  0  0  0  0  0  0  0  0  0
  146.6242  140.6988  152.5366 O   0  0  0  0  0  0  0  0  0  0  0  0
  146.2780  141.2935  155.7956 H   0  0  0  0  0  0  0  0  0  0  0  0
  149.4438  141.6513  153.7709 H   0  0  0  0  0  0  0  0  0  0  0  0
  148.6382  139.4737  153.4278 H   0  0  0  0  0  0  0  0  0  0  0  0
  145.9742  139.6135  154.1337 H   0  0  0  0  0  0  0  0  0  0  0  0
  143.8898  141.4659  154.2838 H   0  0  0  0  0  0  0  0  0  0  0  0
  145.3952  142.6235  153.2150 H   0  0  0  0  0  0  0  0  0  0  0  0
  145.6605  143.6382  154.6260 H   0  0  0  0  0  0  0  0  0  0  0  0
  148.7386  142.6255  157.0729 H   0  0  0  0  0  0  0  0  0  0  0  0
  153.1035  138.3770  155.0603 H   0  0  0  0  0  0  0  0  0  0  0  0
  147.2546  138.6676  155.4199 H   0  0  0  0  0  0  0  0  0  0  0  0
  145.7334  140.5593  152.2542 H   0  0  0  0  0  0  0  0  0  0  0  0
  1  2  1  0  0  0  0
  1 24  1  0  0  0  0
  2  3  1  0  0  0  0
  2 25  1  0  0  0  0
  2 26  1  0  0  0  0
  3 20  1  0  0  0  0
  3 18  1  0  0  0  0
  3  4  1  0  0  0  0
  4  5  1  0  0  0  0
  5 21  1  0  0  0  0
  5  6  1  0  0  0  0
  5 16  1  0  0  0  0
  6 15  1  0  0  0  0
  6  7  1  0  0  0  0
  7  8  2  0  0  0  0
  7 27  1  0  0  0  0
  8  9  1  0  0  0  0
  9 15  2  0  0  0  0
  9 10  1  0  0  0  0
 10 11  1  0  0  0  0
 10 12  2  0  0  0  0
 12 13  1  0  0  0  0
 13 14  2  0  0  0  0
 13 28  1  0  0  0  0
 14 15  1  0  0  0  0
 16 22  1  0  0  0  0
 16 17  1  0  0  0  0
 16 18  1  0  0  0  0
 17 29  1  0  0  0  0
 18 23  1  0  0  0  0
 18 19  1  0  0  0  0
 19 30  1  0  0  0  0
M  END
> <s_m_source_file>
AV-unprocessed.smi

> <i_m_source_file_index>
48

> <i_lp_mmshare_version>
43012

> <i_f3d_flags>
0

> <s_epik_input>
W09IXVtDSDJdW0NASF0xT1tDQEhdKFtDQEhdKFtPSF0pW0NAQEhdMVtPSF0pbihbY0hdbjIpYyhjMjMpbltjSF1uYzNDbA==

> <s_epik_cmdline>
J2VwaWtfcHl0aG9uJywgJy1waCcsICc3LjAnLCAnLXRuJywgJzgnLCAnLW1hJywgJzIwMCcsICctbWV0YWxfYmluZGluZycsICctaW1hZScsICc8aW5maWxlLm1hZT4nLCAnLW9tYWUnLCAnPG91dGZpbGUubWFlPic=

> <r_lp_tautomer_probability>
1

> <r_epik_Ionization_Penalty>
3.45505e-06

> <r_epik_Ionization_Penalty_Charging>
0

> <r_epik_Ionization_Penalty_Neutral>
3.45505e-06

> <r_epik_State_Penalty>
-0

> <r_epik_Charging_Adjusted_Penalty>
0

> <i_epik_Tot_Q>
0

> <i_epik_Tot_abs_Q>
0

> <r_epik_Metal_State_Penalty>
-0

> <b_epik_Metal_Only>
0

> <s_epik_Chemistry_Notes>
This compound contains an acetal/aminal-like group ( X-CH(R)-Y where X, Y are N, S, or O) that may be acid/base labile, releasing an aldehyde.

> <s_lp_Force_Field>
OPLS_2005

> <r_lp_Energy>
39.5324

> <b_lp_Chiralities_Consistent>
1

> <s_lp_Variant>
AV-unprocessed.smi:48-6

> <Gold.Version>
5.8.1

> <Gold.Id.Protein>
6NUR|6NUR_protein|mol2

> <Gold.PLP.Fitness>
38.5665

> <Gold.PLP.PLP>
-25.7963

> <Gold.PLP.part.hbond>
-4.9749

> <Gold.PLP.part.metal>
0.0000

> <Gold.PLP.part.buried>
-1.2009

> <Gold.PLP.part.nonpolar>
-23.0440

> <Gold.PLP.part.repulsive>
2.2504

> <Gold.PLP.ligand.clash>
0.0000

> <Gold.PLP.ligand.torsion>
0.2778

> <Gold.PLP.Chemscore.Hbond>
3.7464

> <Gold.PLP.Chemscore.CHOScore>
0.6949

> <Gold.PLP.Chemscore.Metal>
0.0000

> <Gold.Chemscore.Hbonds>
donor molecule, donor type, donor heavy atom, donor atom, acceptor molecule, acceptor atom, score
      L1  H     1    24       P1 10175  0.99
      L1  H    19    30       P1 10175  0.96
      P1  H  7989  7998       L1    14  0.83
      P1  H  7997  8008       L1    12  0.94
      L1  C     7    27       P1  8028  0.69

> <Gold.PLP.Chemscore.Internal.Correction>
0.0019

> <Gold.Rescore>
     Score         DG    S(hbond)    S(metal)    S(lipo)     H(rot)  DE(clash)    DE(int)     intcor
      8.43      -8.74       2.65        0.00      35.34       3.80       0.23       0.08       ----

> <Gold.Chemscore.Fitness>
8.4318

> <Gold.Chemscore.DG>
-8.7437

> <Gold.Chemscore.ZeroCoef>
-5.4800

> <Gold.Chemscore.Hbond>
2.6530

> <Gold.Chemscore.Metal>
0.0000

> <Gold.Chemscore.Lipo>
35.3415

> <Gold.Chemscore.Internal_Hbond>
0.0000

> <Gold.Chemscore.DEClash>
0.2273

> <Gold.Chemscore.DEInternal>
0.0846

> <Gold.Chemscore.Rot>
3.8017

> <Gold.Chemscore.Internal.Correction>
   9.000000E+99

> <Gold.Chemscore.Hbonds>
donor molecule, donor type, donor heavy atom, donor atom, acceptor molecule, acceptor atom, score
      L1  H     1    24       P1 10175  0.23
      L1  H    19    30       P1 10175  0.23
      P1  H  7989  7998       L1    14  0.15
      P1  H  7997  8008       L1    12  0.10

> <Gold.Chemscore.Hbond.Weighted>
-8.8612

> <Gold.Chemscore.Metal.Weighted>
-0.0000

> <Gold.Chemscore.Lipo.Weighted>
-4.1350

> <Gold.Chemscore.Internal_Hbond.Weighted>
0.0000

> <Gold.Chemscore.DEClash.Weighted>
0.2273

> <Gold.Chemscore.DEInternal.Weighted>
0.0846

> <Gold.Chemscore.Rot.Weighted>
9.7324

> <Gold.Chemscore.Internal.Correction.Weighted>
   9.000000E+99

> <Gold.Protein.RotatedTorsions>
[ 6907 6896 6895 6894 ] final  149.83 input  -60.11 | X-H torsion
[ 7974 7965 7964 7962 ] final   28.45 input  175.53 | X-H torsion
[ 8008 7997 7996 7995 ] final  -56.71 input   59.86 | X-H torsion
[ 10167 10162 10161 10158 ] final   -9.00 input  -65.29 | X-H torsion
[ 10718 10713 10712 10709 ] final   48.01 input   66.30 | X-H torsion
[ 10763 10752 10751 10750 ] final  -87.03 input  -60.55 | X-H torsion
[ 11005 11000 10999 10996 ] final -126.64 input  -57.11 | X-H torsion

> <Gold.Protein.ActiveResidues>
 VAL166  LYS551  ARG553  GLY616  TRP617  ASP618  TYR619  PRO620  LYS621  CYS622 
 ASP623  PHE694  ASN695  SER759  ASP760  ASP761  ALA762  ILE779  LEU786  VAL792 
 PHE793  MET794  SER795  GLU796  ALA797  LYS798  CYS799  TRP800  GLU811  SER814 

> <Gold.Protein.RotatedAtoms>
  152.1227  133.4362  159.4682 H   0  0  0  0  0  0  0  0  0  0  0  0  # atno 6907 bound_to 6896
  150.6873  134.2516  159.4522 H   0  0  0  0  0  0  0  0  0  0  0  0  # atno 6908 bound_to 6896
  152.0394  134.9720  160.0624 H   0  0  0  0  0  0  0  0  0  0  0  0  # atno 6909 bound_to 6896
  146.1728  139.7055  142.8955 H   0  0  0  0  0  0  0  0  0  0  0  0  # atno 7974 bound_to 7965
  154.4240  140.1123  156.5681 H   0  0  0  0  0  0  0  0  0  0  0  0  # atno 8008 bound_to 7997
  155.6241  140.3495  155.4642 H   0  0  0  0  0  0  0  0  0  0  0  0  # atno 8009 bound_to 7997
  156.0001  140.1197  157.0545 H   0  0  0  0  0  0  0  0  0  0  0  0  # atno 8010 bound_to 7997
  140.7075  143.5906  150.8898 H   0  0  0  0  0  0  0  0  0  0  0  0  # atno 10167 bound_to 10162
  157.4643  130.8216  149.7920 H   0  0  0  0  0  0  0  0  0  0  0  0  # atno 10718 bound_to 10713
  154.6291  135.5428  153.7660 H   0  0  0  0  0  0  0  0  0  0  0  0  # atno 10763 bound_to 10752
  153.0275  135.6431  154.1328 H   0  0  0  0  0  0  0  0  0  0  0  0  # atno 10764 bound_to 10752
  154.1259  135.2917  155.3177 H   0  0  0  0  0  0  0  0  0  0  0  0  # atno 10765 bound_to 10752
  140.9665  134.0865  157.3914 H   0  0  0  0  0  0  0  0  0  0  0  0  # atno 11005 bound_to 11000
  145.4293  141.0414  143.2919 LP  0  0  0  0  0  0  0  0  0  0  0  0  # atno 17320 bound_to 7965
  144.8189  139.5826  143.6995 LP  0  0  0  0  0  0  0  0  0  0  0  0  # atno 17321 bound_to 7965
  139.9631  143.6141  152.2996 LP  0  0  0  0  0  0  0  0  0  0  0  0  # atno 17342 bound_to 10162
  139.6701  144.7661  151.1800 LP  0  0  0  0  0  0  0  0  0  0  0  0  # atno 17343 bound_to 10162
  156.0043  130.3863  150.2488 LP  0  0  0  0  0  0  0  0  0  0  0  0  # atno 17370 bound_to 10713
  157.0667  131.0105  151.3204 LP  0  0  0  0  0  0  0  0  0  0  0  0  # atno 17371 bound_to 10713
  139.8896  135.0106  156.6690 LP  0  0  0  0  0  0  0  0  0  0  0  0  # atno 17394 bound_to 11000
  140.7392  133.8993  155.8265 LP  0  0  0  0  0  0  0  0  0  0  0  0  # atno 17395 bound_to 11000

$$$$
