AV-unprocessed.smi:1809|AV-procd|sdf|7321|dock1
  -GOLD-   22720 8573D 1   1.00000     0.00000
 Structure written by MMmdl.
 39 41  0  0  0  0  0  0  0  0  3 V2000
  149.0834  141.1179  154.9610 C   0  0  0  0  0  0  0  0  0  0  0  0
  149.9494  139.9154  154.8025 C   0  0  0  0  0  0  0  0  0  0  0  0
  151.2816  139.9871  154.7513 N   0  0  0  0  0  0  0  0  0  0  0  0
  151.8670  138.7380  154.6039 N   0  0  0  0  0  0  0  0  0  0  0  0
  150.9730  137.7403  154.5566 C   0  0  0  0  0  0  0  0  0  0  0  0
  151.3374  136.4550  154.4140 N   0  5  0  0  0  0  0  0  0  0  0  0
  150.6433  135.4812  155.0442 C   0  0  0  0  0  0  0  0  0  0  0  0
  150.8846  135.0154  156.1603 O   0  0  0  0  0  0  0  0  0  0  0  0
  149.5998  135.0213  154.3398 N   0  0  0  0  0  0  0  0  0  0  0  0
  148.6691  133.9862  154.7762 C   0  0  0  0  0  0  0  0  0  0  0  0
  148.6861  132.7725  153.8316 C   0  0  2  0  0  0  0  0  0  0  0  0
  147.2582  132.3152  153.4537 C   0  0  0  0  0  0  0  0  0  0  0  0
  147.3697  131.0927  152.6376 N   0  3  2  0  0  0  0  0  0  0  0  0
  146.1337  130.4739  152.1297 C   0  0  0  0  0  0  0  0  0  0  0  0
  146.5085  128.9999  151.8752 C   0  0  0  0  0  0  0  0  0  0  0  0
  147.9296  128.8252  152.4425 C   0  0  0  0  0  0  0  0  0  0  0  0
  148.0886  130.0374  153.3548 C   0  0  1  0  0  0  0  0  0  0  0  0
  149.5071  130.5269  153.6742 C   0  0  0  0  0  0  0  0  0  0  0  0
  149.3843  131.7011  154.4781 O   0  0  0  0  0  0  0  0  0  0  0  0
  149.3010  138.2890  154.6738 S   0  0  0  0  0  0  0  0  0  0  0  0
  149.0624  141.4255  156.0064 H   0  0  0  0  0  0  0  0  0  0  0  0
  148.0657  140.8965  154.6395 H   0  0  0  0  0  0  0  0  0  0  0  0
  149.4669  141.9423  154.3593 H   0  0  0  0  0  0  0  0  0  0  0  0
  149.4392  135.4281  153.4298 H   0  0  0  0  0  0  0  0  0  0  0  0
  148.9425  133.6805  155.7864 H   0  0  0  0  0  0  0  0  0  0  0  0
  147.6631  134.4045  154.8415 H   0  0  0  0  0  0  0  0  0  0  0  0
  149.2210  133.0348  152.9169 H   0  0  0  0  0  0  0  0  0  0  0  0
  146.6652  132.1165  154.3479 H   0  0  0  0  0  0  0  0  0  0  0  0
  146.7442  133.0908  152.8850 H   0  0  0  0  0  0  0  0  0  0  0  0
  145.3482  130.5365  152.8844 H   0  0  0  0  0  0  0  0  0  0  0  0
  145.7834  130.9800  151.2298 H   0  0  0  0  0  0  0  0  0  0  0  0
  145.8031  128.3400  152.3818 H   0  0  0  0  0  0  0  0  0  0  0  0
  146.4818  128.7549  150.8128 H   0  0  0  0  0  0  0  0  0  0  0  0
  148.0620  127.8802  152.9704 H   0  0  0  0  0  0  0  0  0  0  0  0
  148.6600  128.8642  151.6329 H   0  0  0  0  0  0  0  0  0  0  0  0
  147.5647  129.8329  154.2915 H   0  0  0  0  0  0  0  0  0  0  0  0
  150.0594  129.7678  154.2282 H   0  0  0  0  0  0  0  0  0  0  0  0
  150.0710  130.7449  152.7657 H   0  0  0  0  0  0  0  0  0  0  0  0
  147.9303  131.3219  151.8289 H   0  0  0  0  0  0  0  0  0  0  0  0
  1  2  1  0  0  0  0
  1 21  1  0  0  0  0
  1 22  1  0  0  0  0
  1 23  1  0  0  0  0
  2 20  1  0  0  0  0
  2  3  2  0  0  0  0
  3  4  1  0  0  0  0
  4  5  2  0  0  0  0
  5  6  1  0  0  0  0
  5 20  1  0  0  0  0
  6  7  1  0  0  0  0
  7  8  2  0  0  0  0
  7  9  1  0  0  0  0
  9 10  1  0  0  0  0
  9 24  1  0  0  0  0
 10 11  1  0  0  0  0
 10 25  1  0  0  0  0
 10 26  1  0  0  0  0
 11 19  1  0  0  0  0
 11 12  1  0  0  0  0
 11 27  1  0  0  0  0
 12 13  1  0  0  0  0
 12 28  1  0  0  0  0
 12 29  1  0  0  0  0
 13 17  1  0  0  0  0
 13 14  1  0  0  0  0
 13 39  1  0  0  0  0
 14 15  1  0  0  0  0
 14 30  1  0  0  0  0
 14 31  1  0  0  0  0
 15 16  1  0  0  0  0
 15 32  1  0  0  0  0
 15 33  1  0  0  0  0
 16 17  1  0  0  0  0
 16 34  1  0  0  0  0
 16 35  1  0  0  0  0
 17 18  1  0  0  0  0
 17 36  1  0  0  0  0
 18 19  1  0  0  0  0
 18 37  1  0  0  0  0
 18 38  1  0  0  0  0
M  CHG  1   6  -1
M  CHG  1  13   1
M  END
> <s_m_source_file>
AV-unprocessed.smi

> <i_m_source_file_index>
1809

> <i_lp_mmshare_version>
43012

> <i_f3d_flags>
0

> <s_epik_input>
W0NIM11jMW5uYyhzMSlbTkhdQyg9TylbTkhdW0NIMl1bQ0BIXShbQ0gyXTIpT1tDSDJdW0NAQEhdKE4yMylbQ0gyXVtDSDJdW0NIMl0z

> <s_epik_cmdline>
J2VwaWtfcHl0aG9uJywgJy1waCcsICc3LjAnLCAnLXRuJywgJzgnLCAnLW1hJywgJzIwMCcsICctbWV0YWxfYmluZGluZycsICctaW1hZScsICc8aW5maWxlLm1hZT4nLCAnLW9tYWUnLCAnPG91dGZpbGUubWFlPic=

> <r_lp_tautomer_probability>
1

> <r_epik_Ionization_Penalty>
3.2601

> <r_epik_Ionization_Penalty_Charging>
3.1406

> <r_epik_Ionization_Penalty_Neutral>
0.119497

> <r_epik_State_Penalty>
3.08894

> <r_epik_Charging_Adjusted_Penalty>
6.22954

> <i_epik_Tot_Q>
0

> <i_epik_Tot_abs_Q>
2

> <r_epik_Metal_State_Penalty>
0.510807

> <b_epik_Metal_Only>
1

> <s_lp_Force_Field>
OPLS_2005

> <r_lp_Energy>
28.6606

> <b_lp_Chiralities_Consistent>
1

> <s_lp_Variant>
AV-unprocessed.smi:1809-13

> <Gold.Version>
5.8.1

> <Gold.Id.Protein>
6NUR|6NUR_protein|mol2

> <Gold.PLP.Fitness>
46.3461

> <Gold.PLP.PLP>
-35.2717

> <Gold.PLP.part.hbond>
-4.0000

> <Gold.PLP.part.metal>
0.0000

> <Gold.PLP.part.buried>
-6.3291

> <Gold.PLP.part.nonpolar>
-26.6298

> <Gold.PLP.part.repulsive>
0.4574

> <Gold.PLP.ligand.clash>
0.0000

> <Gold.PLP.ligand.torsion>
1.6679

> <Gold.PLP.Chemscore.Hbond>
4.8000

> <Gold.PLP.Chemscore.CHOScore>
0.0000

> <Gold.PLP.Chemscore.Metal>
0.0000

> <Gold.Chemscore.Hbonds>
donor molecule, donor type, donor heavy atom, donor atom, acceptor molecule, acceptor atom, score
      L1  H     9    24       P1  7948  0.85
      L1  H    13    39       P1 10747  1.00
      P1  H  7989  7998       L1     3  1.00
      P1  H 10752 10764       L1     6  2.00

> <Gold.PLP.Chemscore.Internal.Correction>
0.0103

> <Gold.Rescore>
     Score         DG    S(hbond)    S(metal)    S(lipo)     H(rot)  DE(clash)    DE(int)     intcor
     17.58     -19.30       2.75        0.00      68.73       1.32       0.07       1.65       ----

> <Gold.Chemscore.Fitness>
17.5831

> <Gold.Chemscore.DG>
-19.3020

> <Gold.Chemscore.ZeroCoef>
-5.4800

> <Gold.Chemscore.Hbond>
2.7458

> <Gold.Chemscore.Metal>
0.0000

> <Gold.Chemscore.Lipo>
68.7343

> <Gold.Chemscore.Internal_Hbond>
0.0000

> <Gold.Chemscore.DEClash>
0.0727

> <Gold.Chemscore.DEInternal>
1.6462

> <Gold.Chemscore.Rot>
1.3246

> <Gold.Chemscore.Internal.Correction>
   9.000000E+99

> <Gold.Chemscore.Hbonds>
donor molecule, donor type, donor heavy atom, donor atom, acceptor molecule, acceptor atom, score
      L1  H     9    24       P1  7948  0.15
      L1  H    13    39       P1 10747  0.96
      P1  H  7989  7998       L1     3  0.41
      P1  H 10752 10764       L1     6  0.30

> <Gold.Chemscore.Hbond.Weighted>
-9.1711

> <Gold.Chemscore.Metal.Weighted>
-0.0000

> <Gold.Chemscore.Lipo.Weighted>
-8.0419

> <Gold.Chemscore.Internal_Hbond.Weighted>
0.0000

> <Gold.Chemscore.DEClash.Weighted>
0.0727

> <Gold.Chemscore.DEInternal.Weighted>
1.6462

> <Gold.Chemscore.Rot.Weighted>
3.3910

> <Gold.Chemscore.Internal.Correction.Weighted>
   9.000000E+99

> <Gold.Protein.RotatedTorsions>
[ 6907 6896 6895 6894 ] final   78.90 input  -60.11 | X-H torsion
[ 7974 7965 7964 7962 ] final  151.56 input  175.53 | X-H torsion
[ 8008 7997 7996 7995 ] final   -9.71 input   59.86 | X-H torsion
[ 10167 10162 10161 10158 ] final   36.71 input  -65.29 | X-H torsion
[ 10718 10713 10712 10709 ] final  141.39 input   66.30 | X-H torsion
[ 10763 10752 10751 10750 ] final  -81.68 input  -60.55 | X-H torsion
[ 11005 11000 10999 10996 ] final  172.34 input  -57.11 | X-H torsion

> <Gold.Protein.ActiveResidues>
 VAL166  LYS551  ARG553  GLY616  TRP617  ASP618  TYR619  PRO620  LYS621  CYS622 
 ASP623  PHE694  ASN695  SER759  ASP760  ASP761  ALA762  ILE779  LEU786  VAL792 
 PHE793  MET794  SER795  GLU796  ALA797  LYS798  CYS799  TRP800  GLU811  SER814 

> <Gold.Protein.RotatedAtoms>
  152.5177  134.3594  159.9279 H   0  0  0  0  0  0  0  0  0  0  0  0  # atno 6907 bound_to 6896
  151.3546  133.3906  159.2691 H   0  0  0  0  0  0  0  0  0  0  0  0  # atno 6908 bound_to 6896
  150.9700  134.9093  159.7840 H   0  0  0  0  0  0  0  0  0  0  0  0  # atno 6909 bound_to 6896
  144.8284  139.6553  143.6070 H   0  0  0  0  0  0  0  0  0  0  0  0  # atno 7974 bound_to 7965
  154.5622  140.2348  155.8318 H   0  0  0  0  0  0  0  0  0  0  0  0  # atno 8008 bound_to 7997
  156.2038  140.3045  155.9543 H   0  0  0  0  0  0  0  0  0  0  0  0  # atno 8009 bound_to 7997
  155.2868  140.0425  157.3010 H   0  0  0  0  0  0  0  0  0  0  0  0  # atno 8010 bound_to 7997
  140.4102  144.1603  150.6139 H   0  0  0  0  0  0  0  0  0  0  0  0  # atno 10167 bound_to 10162
  157.3925  131.1006  151.0632 H   0  0  0  0  0  0  0  0  0  0  0  0  # atno 10718 bound_to 10713
  154.5666  135.5617  153.7056 H   0  0  0  0  0  0  0  0  0  0  0  0  # atno 10763 bound_to 10752
  153.0035  135.6287  154.2172 H   0  0  0  0  0  0  0  0  0  0  0  0  # atno 10764 bound_to 10752
  154.2111  135.2873  155.2938 H   0  0  0  0  0  0  0  0  0  0  0  0  # atno 10765 bound_to 10752
  140.3286  134.7376  157.4118 H   0  0  0  0  0  0  0  0  0  0  0  0  # atno 11005 bound_to 11000
  146.2588  139.6363  142.9376 LP  0  0  0  0  0  0  0  0  0  0  0  0  # atno 17320 bound_to 7965
  145.4950  141.0438  143.2572 LP  0  0  0  0  0  0  0  0  0  0  0  0  # atno 17321 bound_to 7965
  140.4646  143.2435  151.9172 LP  0  0  0  0  0  0  0  0  0  0  0  0  # atno 17342 bound_to 10162
  139.4783  144.5432  151.8497 LP  0  0  0  0  0  0  0  0  0  0  0  0  # atno 17343 bound_to 10162
  157.1661  130.6247  149.5626 LP  0  0  0  0  0  0  0  0  0  0  0  0  # atno 17370 bound_to 10713
  155.9802  130.4801  150.6758 LP  0  0  0  0  0  0  0  0  0  0  0  0  # atno 17371 bound_to 10713
  140.0880  134.5640  155.8473 LP  0  0  0  0  0  0  0  0  0  0  0  0  # atno 17394 bound_to 11000
  141.2069  133.6659  156.6271 LP  0  0  0  0  0  0  0  0  0  0  0  0  # atno 17395 bound_to 11000

$$$$
