AV-unprocessed.smi:1744|AV-procd|sdf|7025|dock2
  -GOLD-   22720 8243D 1   1.00000     0.00000
 Structure written by MMmdl.
 44 45  0  0  0  0  0  0  0  0  2 V2000
  151.9959  144.3916  161.1963 C   0  0  0  0  0  0  0  0  0  0  0  0
  152.0902  144.6540  159.6885 C   0  0  0  0  0  0  0  0  0  0  0  0
  151.5112  143.5705  158.9186 N   0  0  0  0  0  0  0  0  0  0  0  0
  150.4111  143.6092  158.0854 C   0  0  0  0  0  0  0  0  0  0  0  0
  150.2765  142.3479  157.5888 C   0  0  0  0  0  0  0  0  0  0  0  0
  149.2665  141.9401  156.6825 N   0  0  0  0  0  0  0  0  0  0  0  0
  148.7809  140.7002  156.5102 C   0  0  0  0  0  0  0  0  0  0  0  0
  149.1424  139.7033  157.1351 O   0  0  0  0  0  0  0  0  0  0  0  0
  147.8415  140.6744  155.5540 N   0  0  0  0  0  0  0  0  0  0  0  0
  147.1211  139.4838  155.1134 C   0  0  2  0  0  0  0  0  0  0  0  0
  147.1225  139.3796  153.5765 C   0  0  0  0  0  0  0  0  0  0  0  0
  146.2658  138.1971  153.0944 C   0  0  0  0  0  0  0  0  0  0  0  0
  144.8774  138.2961  153.6122 N   0  3  1  0  0  0  0  0  0  0  0  0
  143.9831  137.2531  153.0469 C   0  0  0  0  0  0  0  0  0  0  0  0
  142.5323  137.3873  153.5219 C   0  0  0  0  0  0  0  0  0  0  0  0
  141.8958  138.5168  153.2035 N   0  0  0  0  0  0  0  0  0  0  0  0
  141.9960  136.4953  154.1771 O   0  0  0  0  0  0  0  0  0  0  0  0
  144.8539  138.3445  155.0987 C   0  0  0  0  0  0  0  0  0  0  0  0
  145.6724  139.5344  155.6253 C   0  0  0  0  0  0  0  0  0  0  0  0
  151.3318  141.5873  158.1675 C   0  0  0  0  0  0  0  0  0  0  0  0
  152.0731  142.3374  158.9692 N   0  0  0  0  0  0  0  0  0  0  0  0
  152.4468  145.2080  161.7608 H   0  0  0  0  0  0  0  0  0  0  0  0
  152.5148  143.4720  161.4688 H   0  0  0  0  0  0  0  0  0  0  0  0
  150.9579  144.2991  161.5172 H   0  0  0  0  0  0  0  0  0  0  0  0
  151.5795  145.5828  159.4308 H   0  0  0  0  0  0  0  0  0  0  0  0
  153.1331  144.7729  159.3925 H   0  0  0  0  0  0  0  0  0  0  0  0
  149.8384  144.5102  157.9212 H   0  0  0  0  0  0  0  0  0  0  0  0
  148.8824  142.6667  156.0964 H   0  0  0  0  0  0  0  0  0  0  0  0
  147.6086  141.5438  155.0964 H   0  0  0  0  0  0  0  0  0  0  0  0
  147.6026  138.5978  155.5327 H   0  0  0  0  0  0  0  0  0  0  0  0
  146.7386  140.3039  153.1422 H   0  0  0  0  0  0  0  0  0  0  0  0
  148.1421  139.2658  153.2061 H   0  0  0  0  0  0  0  0  0  0  0  0
  146.2534  138.1878  152.0039 H   0  0  0  0  0  0  0  0  0  0  0  0
  146.7096  137.2533  153.4153 H   0  0  0  0  0  0  0  0  0  0  0  0
  143.9632  137.3374  151.9596 H   0  0  0  0  0  0  0  0  0  0  0  0
  144.3727  136.2601  153.2775 H   0  0  0  0  0  0  0  0  0  0  0  0
  140.9362  138.6579  153.4858 H   0  0  0  0  0  0  0  0  0  0  0  0
  142.3772  139.2293  152.6734 H   0  0  0  0  0  0  0  0  0  0  0  0
  143.8279  138.4319  155.4572 H   0  0  0  0  0  0  0  0  0  0  0  0
  145.2488  137.4104  155.5013 H   0  0  0  0  0  0  0  0  0  0  0  0
  145.6608  139.5353  156.7160 H   0  0  0  0  0  0  0  0  0  0  0  0
  145.1982  140.4654  155.3103 H   0  0  0  0  0  0  0  0  0  0  0  0
  151.5873  140.5457  158.0425 H   0  0  0  0  0  0  0  0  0  0  0  0
  144.5146  139.1799  153.2832 H   0  0  0  0  0  0  0  0  0  0  0  0
  1  2  1  0  0  0  0
  1 22  1  0  0  0  0
  1 23  1  0  0  0  0
  1 24  1  0  0  0  0
  2  3  1  0  0  0  0
  2 25  1  0  0  0  0
  2 26  1  0  0  0  0
  3 21  1  0  0  0  0
  3  4  1  0  0  0  0
  4  5  2  0  0  0  0
  4 27  1  0  0  0  0
  5  6  1  0  0  0  0
  5 20  1  0  0  0  0
  6  7  1  0  0  0  0
  6 28  1  0  0  0  0
  7  8  2  0  0  0  0
  7  9  1  0  0  0  0
  9 10  1  0  0  0  0
  9 29  1  0  0  0  0
 10 19  1  0  0  0  0
 10 11  1  0  0  0  0
 10 30  1  0  0  0  0
 11 12  1  0  0  0  0
 11 31  1  0  0  0  0
 11 32  1  0  0  0  0
 12 13  1  0  0  0  0
 12 33  1  0  0  0  0
 12 34  1  0  0  0  0
 13 14  1  0  0  0  0
 13 18  1  0  0  0  0
 13 44  1  0  0  0  0
 14 15  1  0  0  0  0
 14 35  1  0  0  0  0
 14 36  1  0  0  0  0
 15 16  1  0  0  0  0
 15 17  2  0  0  0  0
 16 37  1  0  0  0  0
 16 38  1  0  0  0  0
 18 19  1  0  0  0  0
 18 39  1  0  0  0  0
 18 40  1  0  0  0  0
 19 41  1  0  0  0  0
 19 42  1  0  0  0  0
 20 21  2  0  0  0  0
 20 43  1  0  0  0  0
M  CHG  1  13   1
M  END
> <s_m_source_file>
AV-unprocessed.smi

> <i_m_source_file_index>
1744

> <i_lp_mmshare_version>
43012

> <i_f3d_flags>
0

> <s_epik_input>
W0NIM11bQ0gyXW4xW2NIXWMoW2NIXW4xKVtOSF1DKD1PKVtOSF1bQ0hdMltDSDJdW0NIMl1OKFtDSDJdW0NIMl0yKVtDSDJdQyg9TylbTkgyXQ==

> <s_epik_cmdline>
J2VwaWtfcHl0aG9uJywgJy1waCcsICc3LjAnLCAnLXRuJywgJzgnLCAnLW1hJywgJzIwMCcsICctbWV0YWxfYmluZGluZycsICctaW1hZScsICc8aW5maWxlLm1hZT4nLCAnLW9tYWUnLCAnPG91dGZpbGUubWFlPic=

> <r_lp_tautomer_probability>
1

> <r_epik_Ionization_Penalty>
0.839033

> <r_epik_Ionization_Penalty_Charging>
0.838844

> <r_epik_Ionization_Penalty_Neutral>
0.000189439

> <r_epik_State_Penalty>
0.8734

> <r_epik_Charging_Adjusted_Penalty>
1.71224

> <i_epik_Tot_Q>
1

> <i_epik_Tot_abs_Q>
1

> <r_epik_Metal_State_Penalty>
0.89072

> <b_epik_Metal_Only>
0

> <s_lp_Force_Field>
OPLS_2005

> <r_lp_Energy>
16.914

> <b_lp_Chiralities_Consistent>
1

> <s_lp_Variant>
AV-unprocessed.smi:1744-2

> <Gold.Version>
5.8.1

> <Gold.Id.Protein>
6NUR|6NUR_protein|mol2

> <Gold.PLP.Fitness>
44.4556

> <Gold.PLP.PLP>
-30.4360

> <Gold.PLP.part.hbond>
-3.0000

> <Gold.PLP.part.metal>
0.0000

> <Gold.PLP.part.buried>
-2.3141

> <Gold.PLP.part.nonpolar>
-25.2681

> <Gold.PLP.part.repulsive>
0.1831

> <Gold.PLP.ligand.clash>
0.0000

> <Gold.PLP.ligand.torsion>
0.2945

> <Gold.PLP.Chemscore.Hbond>
3.9280

> <Gold.PLP.Chemscore.CHOScore>
0.9296

> <Gold.PLP.Chemscore.Metal>
0.0000

> <Gold.Chemscore.Hbonds>
donor molecule, donor type, donor heavy atom, donor atom, acceptor molecule, acceptor atom, score
      L1  H     6    28       P1  8028  0.76
      L1  H    13    44       P1 10175  2.00
      L1  H    16    38       P1 10175  1.00
      L1  C     4    27       P1  8028  0.45
      L1  C     4    27       P1  8029  0.49

> <Gold.PLP.Chemscore.Internal.Correction>
0.0357

> <Gold.Rescore>
     Score         DG    S(hbond)    S(metal)    S(lipo)     H(rot)  DE(clash)    DE(int)     intcor
     16.03     -17.49       2.84        0.00      70.28       2.22       0.21       1.25       ----

> <Gold.Chemscore.Fitness>
16.0329

> <Gold.Chemscore.DG>
-17.4905

> <Gold.Chemscore.ZeroCoef>
-5.4800

> <Gold.Chemscore.Hbond>
2.8363

> <Gold.Chemscore.Metal>
0.0000

> <Gold.Chemscore.Lipo>
70.2839

> <Gold.Chemscore.Internal_Hbond>
0.0000

> <Gold.Chemscore.DEClash>
0.2096

> <Gold.Chemscore.DEInternal>
1.2480

> <Gold.Chemscore.Rot>
2.2211

> <Gold.Chemscore.Internal.Correction>
   9.000000E+99

> <Gold.Chemscore.Hbonds>
donor molecule, donor type, donor heavy atom, donor atom, acceptor molecule, acceptor atom, score
      L1  H     6    28       P1  8028  0.74
      L1  H    13    44       P1 10175  1.00
      L1  H    16    38       P1 10175  0.92

> <Gold.Chemscore.Hbond.Weighted>
-9.4733

> <Gold.Chemscore.Metal.Weighted>
-0.0000

> <Gold.Chemscore.Lipo.Weighted>
-8.2232

> <Gold.Chemscore.Internal_Hbond.Weighted>
0.0000

> <Gold.Chemscore.DEClash.Weighted>
0.2096

> <Gold.Chemscore.DEInternal.Weighted>
1.2480

> <Gold.Chemscore.Rot.Weighted>
5.6860

> <Gold.Chemscore.Internal.Correction.Weighted>
   9.000000E+99

> <Gold.Protein.RotatedTorsions>
[ 6907 6896 6895 6894 ] final  -37.88 input  -60.11 | X-H torsion
[ 7974 7965 7964 7962 ] final -124.57 input  175.53 | X-H torsion
[ 8008 7997 7996 7995 ] final  109.27 input   59.86 | X-H torsion
[ 10167 10162 10161 10158 ] final -118.85 input  -65.29 | X-H torsion
[ 10718 10713 10712 10709 ] final  -34.84 input   66.30 | X-H torsion
[ 10763 10752 10751 10750 ] final  122.16 input  -60.55 | X-H torsion
[ 11005 11000 10999 10996 ] final  -45.95 input  -57.11 | X-H torsion

> <Gold.Protein.ActiveResidues>
 VAL166  LYS551  ARG553  GLY616  TRP617  ASP618  TYR619  PRO620  LYS621  CYS622 
 ASP623  PHE694  ASN695  SER759  ASP760  ASP761  ALA762  ILE779  LEU786  VAL792 
 PHE793  MET794  SER795  GLU796  ALA797  LYS798  CYS799  TRP800  GLU811  SER814 

> <Gold.Protein.RotatedAtoms>
  151.0092  134.9383  159.7997 H   0  0  0  0  0  0  0  0  0  0  0  0  # atno 6907 bound_to 6896
  152.5298  134.3050  159.9102 H   0  0  0  0  0  0  0  0  0  0  0  0  # atno 6908 bound_to 6896
  151.3056  133.4061  159.2677 H   0  0  0  0  0  0  0  0  0  0  0  0  # atno 6909 bound_to 6896
  145.0067  140.7869  143.4463 H   0  0  0  0  0  0  0  0  0  0  0  0  # atno 7974 bound_to 7965
  156.1966  140.3061  155.9441 H   0  0  0  0  0  0  0  0  0  0  0  0  # atno 8008 bound_to 7997
  155.3050  140.0448  157.3049 H   0  0  0  0  0  0  0  0  0  0  0  0  # atno 8009 bound_to 7997
  154.5518  140.2293  155.8482 H   0  0  0  0  0  0  0  0  0  0  0  0  # atno 8010 bound_to 7997
  140.0530  143.5042  152.2072 H   0  0  0  0  0  0  0  0  0  0  0  0  # atno 10167 bound_to 10162
  156.3458  130.4300  149.7747 H   0  0  0  0  0  0  0  0  0  0  0  0  # atno 10718 bound_to 10713
  153.6253  135.3406  155.3024 H   0  0  0  0  0  0  0  0  0  0  0  0  # atno 10763 bound_to 10752
  154.8591  135.4283  154.2163 H   0  0  0  0  0  0  0  0  0  0  0  0  # atno 10764 bound_to 10752
  153.3046  135.7027  153.7244 H   0  0  0  0  0  0  0  0  0  0  0  0  # atno 10765 bound_to 10752
  141.0548  133.6730  156.3085 H   0  0  0  0  0  0  0  0  0  0  0  0  # atno 11005 bound_to 11000
  145.2079  139.2219  143.5158 LP  0  0  0  0  0  0  0  0  0  0  0  0  # atno 17320 bound_to 7965
  146.3462  140.1910  142.8589 LP  0  0  0  0  0  0  0  0  0  0  0  0  # atno 17321 bound_to 7965
  139.5941  144.7561  151.3328 LP  0  0  0  0  0  0  0  0  0  0  0  0  # atno 17342 bound_to 10162
  140.7208  143.7141  150.7746 LP  0  0  0  0  0  0  0  0  0  0  0  0  # atno 17343 bound_to 10162
  156.4966  130.8110  151.3116 LP  0  0  0  0  0  0  0  0  0  0  0  0  # atno 17370 bound_to 10713
  157.7454  130.9958  150.2757 LP  0  0  0  0  0  0  0  0  0  0  0  0  # atno 17371 bound_to 10713
  140.5986  134.5578  157.5513 LP  0  0  0  0  0  0  0  0  0  0  0  0  # atno 17394 bound_to 11000
  139.9380  134.7839  156.0751 LP  0  0  0  0  0  0  0  0  0  0  0  0  # atno 17395 bound_to 11000

$$$$
