AV-unprocessed.smi:1196|AV-procd|sdf|5000|dock4
  -GOLD-   22720 4 03D 1   1.00000     0.00000
 Structure written by MMmdl.
 36 37  0  0  0  0  0  0  0  0  2 V2000
  148.6724  127.2943  152.7435 C   0  0  0  0  0  0  0  0  0  0  0  0
  147.9460  127.1888  151.3936 C   0  0  2  0  0  0  0  0  0  0  0  0
  148.8904  126.6867  150.2839 C   0  0  0  0  0  0  0  0  0  0  0  0
  149.2840  125.3021  150.4751 N   0  0  0  0  0  0  0  0  0  0  0  0
  150.5486  124.7899  150.6765 C   0  0  0  0  0  0  0  0  0  0  0  0
  150.4239  123.4356  150.7967 C   0  0  0  0  0  0  0  0  0  0  0  0
  149.0261  123.2114  150.6539 C   0  0  0  0  0  0  0  0  0  0  0  0
  148.3461  124.3305  150.4640 N   0  0  0  0  0  0  0  0  0  0  0  0
  147.3882  128.4890  151.0261 N   0  0  0  0  0  0  0  0  0  0  0  0
  146.4559  129.1622  151.7177 C   0  0  0  0  0  0  0  0  0  0  0  0
  145.9616  128.7494  152.7671 O   0  0  0  0  0  0  0  0  0  0  0  0
  146.0099  130.5021  151.1280 C   0  0  0  0  0  0  0  0  0  0  0  0
  145.1813  131.3369  152.1229 C   0  0  0  0  0  0  0  0  0  0  0  0
  144.4201  132.4966  151.4468 C   0  0  2  0  0  0  0  0  0  0  0  0
  143.5002  132.0111  150.4321 N   0  5  0  0  0  0  0  0  0  0  0  0
  143.8309  132.5766  149.2470 C   0  0  0  0  0  0  0  0  0  0  0  0
  143.2800  132.4200  148.1597 O   0  0  0  0  0  0  0  0  0  0  0  0
  144.8936  133.3763  149.3845 N   0  0  0  0  0  0  0  0  0  0  0  0
  145.3361  133.3949  150.6376 C   0  0  0  0  0  0  0  0  0  0  0  0
  146.3011  134.0162  151.0805 O   0  0  0  0  0  0  0  0  0  0  0  0
  149.0840  126.3300  153.0428 H   0  0  0  0  0  0  0  0  0  0  0  0
  147.9942  127.6193  153.5331 H   0  0  0  0  0  0  0  0  0  0  0  0
  149.4956  128.0079  152.6965 H   0  0  0  0  0  0  0  0  0  0  0  0
  147.1355  126.4656  151.5018 H   0  0  0  0  0  0  0  0  0  0  0  0
  148.4197  126.7854  149.3045 H   0  0  0  0  0  0  0  0  0  0  0  0
  149.7956  127.2952  150.2557 H   0  0  0  0  0  0  0  0  0  0  0  0
  151.4218  125.4242  150.7135 H   0  0  0  0  0  0  0  0  0  0  0  0
  151.2113  122.7149  150.9601 H   0  0  0  0  0  0  0  0  0  0  0  0
  148.4889  122.2751  150.6831 H   0  0  0  0  0  0  0  0  0  0  0  0
  147.7367  128.9109  150.1775 H   0  0  0  0  0  0  0  0  0  0  0  0
  146.8859  131.0681  150.8075 H   0  0  0  0  0  0  0  0  0  0  0  0
  145.4235  130.3040  150.2304 H   0  0  0  0  0  0  0  0  0  0  0  0
  144.4627  130.6825  152.6195 H   0  0  0  0  0  0  0  0  0  0  0  0
  145.8295  131.7245  152.9116 H   0  0  0  0  0  0  0  0  0  0  0  0
  143.9237  133.1074  152.2022 H   0  0  0  0  0  0  0  0  0  0  0  0
  145.3139  133.8929  148.6267 H   0  0  0  0  0  0  0  0  0  0  0  0
  1  2  1  0  0  0  0
  1 21  1  0  0  0  0
  1 22  1  0  0  0  0
  1 23  1  0  0  0  0
  2  3  1  0  0  0  0
  2  9  1  0  0  0  0
  2 24  1  0  0  0  0
  3  4  1  0  0  0  0
  3 25  1  0  0  0  0
  3 26  1  0  0  0  0
  4  8  1  0  0  0  0
  4  5  1  0  0  0  0
  5  6  2  0  0  0  0
  5 27  1  0  0  0  0
  6  7  1  0  0  0  0
  6 28  1  0  0  0  0
  7  8  2  0  0  0  0
  7 29  1  0  0  0  0
  9 10  1  0  0  0  0
  9 30  1  0  0  0  0
 10 11  2  0  0  0  0
 10 12  1  0  0  0  0
 12 13  1  0  0  0  0
 12 31  1  0  0  0  0
 12 32  1  0  0  0  0
 13 14  1  0  0  0  0
 13 33  1  0  0  0  0
 13 34  1  0  0  0  0
 14 19  1  0  0  0  0
 14 15  1  0  0  0  0
 14 35  1  0  0  0  0
 15 16  1  0  0  0  0
 16 17  2  0  0  0  0
 16 18  1  0  0  0  0
 18 19  1  0  0  0  0
 18 36  1  0  0  0  0
 19 20  2  0  0  0  0
M  CHG  1  15  -1
M  END
> <s_m_source_file>
AV-unprocessed.smi

> <i_m_source_file_index>
1196

> <i_lp_mmshare_version>
43012

> <i_f3d_flags>
0

> <s_epik_input>
bjFbY0hdW2NIXVtjSF1uMVtDSDJdW0NAQEhdKFtDSDNdKVtOSF1DKD1PKVtDSDJdW0NIMl1bQ0BASF0yW05IXUMoPU8pW05IXUMyPU8=

> <s_epik_cmdline>
J2VwaWtfcHl0aG9uJywgJy1waCcsICc3LjAnLCAnLXRuJywgJzgnLCAnLW1hJywgJzIwMCcsICctbWV0YWxfYmluZGluZycsICctaW1hZScsICc8aW5maWxlLm1hZT4nLCAnLW9tYWUnLCAnPG91dGZpbGUubWFlPic=

> <r_lp_tautomer_probability>
1

> <r_epik_Ionization_Penalty>
5.79547

> <r_epik_Ionization_Penalty_Charging>
5.79516

> <r_epik_Ionization_Penalty_Neutral>
0.000313087

> <r_epik_State_Penalty>
5.80096

> <r_epik_Charging_Adjusted_Penalty>
11.5961

> <i_epik_Tot_Q>
-1

> <i_epik_Tot_abs_Q>
1

> <r_epik_Metal_State_Penalty>
2.14443

> <b_epik_Metal_Only>
1

> <s_lp_Force_Field>
OPLS_2005

> <r_lp_Energy>
13.4847

> <b_lp_Chiralities_Consistent>
1

> <s_lp_Variant>
AV-unprocessed.smi:1196-5

> <Gold.Version>
5.8.1

> <Gold.Id.Protein>
6NUR|6NUR_protein|mol2

> <Gold.PLP.Fitness>
42.4122

> <Gold.PLP.PLP>
-35.9995

> <Gold.PLP.part.hbond>
-2.7748

> <Gold.PLP.part.metal>
0.0000

> <Gold.PLP.part.buried>
-7.6449

> <Gold.PLP.part.nonpolar>
-26.5503

> <Gold.PLP.part.repulsive>
1.2599

> <Gold.PLP.ligand.clash>
0.0000

> <Gold.PLP.ligand.torsion>
0.2679

> <Gold.PLP.Chemscore.Hbond>
1.2754

> <Gold.PLP.Chemscore.CHOScore>
1.0000

> <Gold.PLP.Chemscore.Metal>
0.0000

> <Gold.Chemscore.Hbonds>
donor molecule, donor type, donor heavy atom, donor atom, acceptor molecule, acceptor atom, score
      L1  H     9    30       P1 10747  0.19
      L1  H    18    36       P1  7921  1.00
      P1  H 10785 10796       L1    17  0.05
      L1  C     5    27       P1 10737  1.00

> <Gold.PLP.Chemscore.Internal.Correction>
0.1223

> <Gold.Rescore>
     Score         DG    S(hbond)    S(metal)    S(lipo)     H(rot)  DE(clash)    DE(int)     intcor
      8.07      -8.54       1.10        0.00      58.22       2.89       0.16       0.31       ----

> <Gold.Chemscore.Fitness>
8.0742

> <Gold.Chemscore.DG>
-8.5428

> <Gold.Chemscore.ZeroCoef>
-5.4800

> <Gold.Chemscore.Hbond>
1.0963

> <Gold.Chemscore.Metal>
0.0000

> <Gold.Chemscore.Lipo>
58.2159

> <Gold.Chemscore.Internal_Hbond>
0.0000

> <Gold.Chemscore.DEClash>
0.1551

> <Gold.Chemscore.DEInternal>
0.3134

> <Gold.Chemscore.Rot>
2.8946

> <Gold.Chemscore.Internal.Correction>
   9.000000E+99

> <Gold.Chemscore.Hbonds>
donor molecule, donor type, donor heavy atom, donor atom, acceptor molecule, acceptor atom, score
      L1  H     9    30       P1 10747  0.06
      L1  H    18    36       P1  7921  0.80

> <Gold.Chemscore.Hbond.Weighted>
-3.6617

> <Gold.Chemscore.Metal.Weighted>
-0.0000

> <Gold.Chemscore.Lipo.Weighted>
-6.8113

> <Gold.Chemscore.Internal_Hbond.Weighted>
0.0000

> <Gold.Chemscore.DEClash.Weighted>
0.1551

> <Gold.Chemscore.DEInternal.Weighted>
0.3134

> <Gold.Chemscore.Rot.Weighted>
7.4101

> <Gold.Chemscore.Internal.Correction.Weighted>
   9.000000E+99

> <Gold.Protein.RotatedTorsions>
[ 6907 6896 6895 6894 ] final  116.36 input  -60.11 | X-H torsion
[ 7974 7965 7964 7962 ] final  114.38 input  175.53 | X-H torsion
[ 8008 7997 7996 7995 ] final   67.67 input   59.86 | X-H torsion
[ 10167 10162 10161 10158 ] final   83.26 input  -65.29 | X-H torsion
[ 10718 10713 10712 10709 ] final  -91.03 input   66.30 | X-H torsion
[ 10763 10752 10751 10750 ] final   -9.01 input  -60.55 | X-H torsion
[ 11005 11000 10999 10996 ] final  -37.41 input  -57.11 | X-H torsion

> <Gold.Protein.ActiveResidues>
 VAL166  LYS551  ARG553  GLY616  TRP617  ASP618  TYR619  PRO620  LYS621  CYS622 
 ASP623  PHE694  ASN695  SER759  ASP760  ASP761  ALA762  ILE779  LEU786  VAL792 
 PHE793  MET794  SER795  GLU796  ALA797  LYS798  CYS799  TRP800  GLU811  SER814 

> <Gold.Protein.RotatedAtoms>
  152.4683  133.7972  159.6933 H   0  0  0  0  0  0  0  0  0  0  0  0  # atno 6907 bound_to 6896
  150.8659  133.7566  159.2983 H   0  0  0  0  0  0  0  0  0  0  0  0  # atno 6908 bound_to 6896
  151.5117  135.1068  159.9907 H   0  0  0  0  0  0  0  0  0  0  0  0  # atno 6909 bound_to 6896
  145.2051  139.2933  143.4298 H   0  0  0  0  0  0  0  0  0  0  0  0  # atno 7974 bound_to 7965
  155.6965  140.3495  155.4915 H   0  0  0  0  0  0  0  0  0  0  0  0  # atno 8008 bound_to 7997
  155.9478  140.1113  157.1024 H   0  0  0  0  0  0  0  0  0  0  0  0  # atno 8009 bound_to 7997
  154.4115  140.1200  156.4999 H   0  0  0  0  0  0  0  0  0  0  0  0  # atno 8010 bound_to 7997
  139.9202  144.6217  150.8448 H   0  0  0  0  0  0  0  0  0  0  0  0  # atno 10167 bound_to 10162
  155.9991  130.4932  150.5412 H   0  0  0  0  0  0  0  0  0  0  0  0  # atno 10718 bound_to 10713
  153.4486  135.7015  153.6123 H   0  0  0  0  0  0  0  0  0  0  0  0  # atno 10763 bound_to 10752
  153.4467  135.3767  155.2260 H   0  0  0  0  0  0  0  0  0  0  0  0  # atno 10764 bound_to 10752
  154.8728  135.3987  154.3895 H   0  0  0  0  0  0  0  0  0  0  0  0  # atno 10765 bound_to 10752
  140.9950  133.6985  156.1918 H   0  0  0  0  0  0  0  0  0  0  0  0  # atno 11005 bound_to 11000
  146.3409  140.2309  142.8593 LP  0  0  0  0  0  0  0  0  0  0  0  0  # atno 17320 bound_to 7965
  144.9910  140.8546  143.5339 LP  0  0  0  0  0  0  0  0  0  0  0  0  # atno 17321 bound_to 7965
  140.7664  143.3302  151.2426 LP  0  0  0  0  0  0  0  0  0  0  0  0  # atno 17342 bound_to 10162
  139.6868  143.9760  152.2838 LP  0  0  0  0  0  0  0  0  0  0  0  0  # atno 17343 bound_to 10162
  157.3348  131.0706  151.1833 LP  0  0  0  0  0  0  0  0  0  0  0  0  # atno 17370 bound_to 10713
  157.2702  130.6700  149.6015 LP  0  0  0  0  0  0  0  0  0  0  0  0  # atno 17371 bound_to 10713
  140.6980  134.4594  157.5587 LP  0  0  0  0  0  0  0  0  0  0  0  0  # atno 17394 bound_to 11000
  139.9010  134.8556  156.1896 LP  0  0  0  0  0  0  0  0  0  0  0  0  # atno 17395 bound_to 11000

$$$$
