AV-unprocessed.smi:1288|AV-procd|sdf|5381|dock6
  -GOLD-   22720 4533D 1   1.00000     0.00000
 Structure written by MMmdl.
 42 44  0  0  0  0  0  0  0  0  1 V2000
  151.5491  139.2446  156.0477 C   0  0  0  0  0  0  0  0  0  0  0  0
  151.7629  140.3826  156.9945 C   0  0  0  0  0  0  0  0  0  0  0  0
  152.3786  140.2266  158.1666 N   0  0  0  0  0  0  0  0  0  0  0  0
  152.3458  141.5015  158.6980 C   0  0  0  0  0  0  0  0  0  0  0  0
  152.8386  141.9972  159.9263 C   0  0  0  0  0  0  0  0  0  0  0  0
  152.6875  143.3594  160.2585 C   0  0  0  0  0  0  0  0  0  0  0  0
  152.0421  144.2436  159.3699 C   0  0  0  0  0  0  0  0  0  0  0  0
  151.5441  143.7706  158.1405 C   0  0  0  0  0  0  0  0  0  0  0  0
  151.6978  142.4099  157.8133 C   0  0  0  0  0  0  0  0  0  0  0  0
  151.3365  141.6384  156.7126 N   0  0  0  0  0  0  0  0  0  0  0  0
  150.6411  142.1007  155.5185 C   0  0  0  0  0  0  0  0  0  0  0  0
  149.4569  141.1938  155.1261 C   0  0  2  0  0  0  0  0  0  0  0  0
  149.3881  141.1093  153.7159 O   0  0  0  0  0  0  0  0  0  0  0  0
  148.1191  141.7422  155.6474 C   0  0  0  0  0  0  0  0  0  0  0  0
  147.0537  141.0525  155.0138 O   0  0  0  0  0  0  0  0  0  0  0  0
  145.7876  141.3716  155.5658 C   0  0  0  0  0  0  0  0  0  0  0  0
  145.2653  142.6886  155.0260 C   0  0  0  0  0  0  0  0  0  0  0  0
  145.7705  143.2048  153.8139 C   0  0  0  0  0  0  0  0  0  0  0  0
  145.2887  144.4285  153.3094 C   0  0  0  0  0  0  0  0  0  0  0  0
  144.2988  145.1402  154.0141 C   0  0  0  0  0  0  0  0  0  0  0  0
  143.7900  144.6268  155.2227 C   0  0  0  0  0  0  0  0  0  0  0  0
  144.2706  143.4030  155.7288 C   0  0  0  0  0  0  0  0  0  0  0  0
  143.7726  142.9174  156.8913 F   0  0  0  0  0  0  0  0  0  0  0  0
  151.9814  138.3273  156.4489 H   0  0  0  0  0  0  0  0  0  0  0  0
  152.0213  139.4530  155.0880 H   0  0  0  0  0  0  0  0  0  0  0  0
  150.4832  139.0794  155.8900 H   0  0  0  0  0  0  0  0  0  0  0  0
  153.3345  141.3280  160.6139 H   0  0  0  0  0  0  0  0  0  0  0  0
  153.0688  143.7277  161.1995 H   0  0  0  0  0  0  0  0  0  0  0  0
  151.9301  145.2855  159.6322 H   0  0  0  0  0  0  0  0  0  0  0  0
  151.0522  144.4464  157.4570 H   0  0  0  0  0  0  0  0  0  0  0  0
  150.2971  143.1213  155.6887 H   0  0  0  0  0  0  0  0  0  0  0  0
  151.3590  142.1598  154.6994 H   0  0  0  0  0  0  0  0  0  0  0  0
  149.6207  140.1943  155.5301 H   0  0  0  0  0  0  0  0  0  0  0  0
  149.5466  140.2128  153.4619 H   0  0  0  0  0  0  0  0  0  0  0  0
  148.0449  141.5663  156.7219 H   0  0  0  0  0  0  0  0  0  0  0  0
  148.0471  142.8202  155.4914 H   0  0  0  0  0  0  0  0  0  0  0  0
  145.0688  140.5832  155.3369 H   0  0  0  0  0  0  0  0  0  0  0  0
  145.8604  141.4284  156.6532 H   0  0  0  0  0  0  0  0  0  0  0  0
  146.5284  142.6636  153.2664 H   0  0  0  0  0  0  0  0  0  0  0  0
  145.6787  144.8205  152.3815 H   0  0  0  0  0  0  0  0  0  0  0  0
  143.9291  146.0784  153.6271 H   0  0  0  0  0  0  0  0  0  0  0  0
  143.0298  145.1716  155.7625 H   0  0  0  0  0  0  0  0  0  0  0  0
  1  2  1  0  0  0  0
  1 24  1  0  0  0  0
  1 25  1  0  0  0  0
  1 26  1  0  0  0  0
  2 10  1  0  0  0  0
  2  3  2  0  0  0  0
  3  4  1  0  0  0  0
  4  9  2  0  0  0  0
  4  5  1  0  0  0  0
  5  6  2  0  0  0  0
  5 27  1  0  0  0  0
  6  7  1  0  0  0  0
  6 28  1  0  0  0  0
  7  8  2  0  0  0  0
  7 29  1  0  0  0  0
  8  9  1  0  0  0  0
  8 30  1  0  0  0  0
  9 10  1  0  0  0  0
 10 11  1  0  0  0  0
 11 12  1  0  0  0  0
 11 31  1  0  0  0  0
 11 32  1  0  0  0  0
 12 13  1  0  0  0  0
 12 14  1  0  0  0  0
 12 33  1  0  0  0  0
 13 34  1  0  0  0  0
 14 15  1  0  0  0  0
 14 35  1  0  0  0  0
 14 36  1  0  0  0  0
 15 16  1  0  0  0  0
 16 17  1  0  0  0  0
 16 37  1  0  0  0  0
 16 38  1  0  0  0  0
 17 22  1  0  0  0  0
 17 18  2  0  0  0  0
 18 19  1  0  0  0  0
 18 39  1  0  0  0  0
 19 20  2  0  0  0  0
 19 40  1  0  0  0  0
 20 21  1  0  0  0  0
 20 41  1  0  0  0  0
 21 22  2  0  0  0  0
 21 42  1  0  0  0  0
 22 23  1  0  0  0  0
M  END
> <s_m_source_file>
AV-unprocessed.smi

> <i_m_source_file_index>
1288

> <i_lp_mmshare_version>
43012

> <i_f3d_flags>
0

> <s_epik_input>
W2NIXTFbY0hdW2NIXVtjSF1jKGMxMiluKGMobjIpW0NIM10pW0NIMl1bQ0BIXShbT0hdKVtDSDJdT1tDSDJdYzNbY0hdW2NIXVtjSF1bY0hdYzNG

> <s_epik_cmdline>
J2VwaWtfcHl0aG9uJywgJy1waCcsICc3LjAnLCAnLXRuJywgJzgnLCAnLW1hJywgJzIwMCcsICctbWV0YWxfYmluZGluZycsICctaW1hZScsICc8aW5maWxlLm1hZT4nLCAnLW9tYWUnLCAnPG91dGZpbGUubWFlPic=

> <r_epik_Ionization_Penalty>
0.132603

> <r_epik_Ionization_Penalty_Charging>
0

> <r_epik_Ionization_Penalty_Neutral>
0.132603

> <r_epik_State_Penalty>
0.121982

> <r_epik_Charging_Adjusted_Penalty>
0.121982

> <i_epik_Tot_Q>
0

> <i_epik_Tot_abs_Q>
0

> <r_epik_Metal_State_Penalty>
0.000135431

> <b_epik_Metal_Only>
0

> <s_lp_Force_Field>
OPLS_2005

> <r_lp_Energy>
16.1737

> <b_lp_Chiralities_Consistent>
1

> <s_lp_Variant>
AV-unprocessed.smi:1288-1

> <Gold.Version>
5.8.1

> <Gold.Id.Protein>
6NUR|6NUR_protein|mol2

> <Gold.PLP.Fitness>
49.6032

> <Gold.PLP.PLP>
-48.7232

> <Gold.PLP.part.hbond>
-3.0000

> <Gold.PLP.part.metal>
0.0000

> <Gold.PLP.part.buried>
-3.2437

> <Gold.PLP.part.nonpolar>
-41.1561

> <Gold.PLP.part.repulsive>
0.1030

> <Gold.PLP.ligand.clash>
0.0000

> <Gold.PLP.ligand.torsion>
1.1312

> <Gold.PLP.Chemscore.Hbond>
0.9982

> <Gold.PLP.Chemscore.CHOScore>
0.0000

> <Gold.PLP.Chemscore.Metal>
0.0000

> <Gold.Chemscore.Hbonds>
donor molecule, donor type, donor heavy atom, donor atom, acceptor molecule, acceptor atom, score
      L1  H    13    34       P1  7957  0.06
      P1  H  8011  8017       L1    13  0.96

> <Gold.PLP.Chemscore.Internal.Correction>
0.1477

> <Gold.Rescore>
     Score         DG    S(hbond)    S(metal)    S(lipo)     H(rot)  DE(clash)    DE(int)     intcor
     14.90     -18.63       0.97        0.00     134.63       2.29       1.72       2.01       ----

> <Gold.Chemscore.Fitness>
14.8950

> <Gold.Chemscore.DG>
-18.6268

> <Gold.Chemscore.ZeroCoef>
-5.4800

> <Gold.Chemscore.Hbond>
0.9725

> <Gold.Chemscore.Metal>
0.0000

> <Gold.Chemscore.Lipo>
134.6298

> <Gold.Chemscore.Internal_Hbond>
0.0000

> <Gold.Chemscore.DEClash>
1.7231

> <Gold.Chemscore.DEInternal>
2.0087

> <Gold.Chemscore.Rot>
2.2863

> <Gold.Chemscore.Internal.Correction>
   9.000000E+99

> <Gold.Chemscore.Hbonds>
donor molecule, donor type, donor heavy atom, donor atom, acceptor molecule, acceptor atom, score
      L1  H    13    34       P1  7957  0.06
      P1  H  8011  8017       L1    13  0.81

> <Gold.Chemscore.Hbond.Weighted>
-3.2481

> <Gold.Chemscore.Metal.Weighted>
-0.0000

> <Gold.Chemscore.Lipo.Weighted>
-15.7517

> <Gold.Chemscore.Internal_Hbond.Weighted>
0.0000

> <Gold.Chemscore.DEClash.Weighted>
1.7231

> <Gold.Chemscore.DEInternal.Weighted>
2.0087

> <Gold.Chemscore.Rot.Weighted>
5.8530

> <Gold.Chemscore.Internal.Correction.Weighted>
   9.000000E+99

> <Gold.Protein.RotatedTorsions>
[ 6907 6896 6895 6894 ] final   52.77 input  -60.11 | X-H torsion
[ 7974 7965 7964 7962 ] final  -90.73 input  175.53 | X-H torsion
[ 8008 7997 7996 7995 ] final  144.15 input   59.86 | X-H torsion
[ 10167 10162 10161 10158 ] final  -97.65 input  -65.29 | X-H torsion
[ 10718 10713 10712 10709 ] final  -87.76 input   66.30 | X-H torsion
[ 10763 10752 10751 10750 ] final  -47.91 input  -60.55 | X-H torsion
[ 11005 11000 10999 10996 ] final -141.97 input  -57.11 | X-H torsion

> <Gold.Protein.ActiveResidues>
 VAL166  LYS551  ARG553  GLY616  TRP617  ASP618  TYR619  PRO620  LYS621  CYS622 
 ASP623  PHE694  ASN695  SER759  ASP760  ASP761  ALA762  ILE779  LEU786  VAL792 
 PHE793  MET794  SER795  GLU796  ALA797  LYS798  CYS799  TRP800  GLU811  SER814 

> <Gold.Protein.RotatedAtoms>
  152.3268  134.7311  160.0299 H   0  0  0  0  0  0  0  0  0  0  0  0  # atno 6907 bound_to 6896
  151.7741  133.3338  159.3461 H   0  0  0  0  0  0  0  0  0  0  0  0  # atno 6908 bound_to 6896
  150.7400  134.5923  159.6038 H   0  0  0  0  0  0  0  0  0  0  0  0  # atno 6909 bound_to 6896
  145.4226  140.9552  143.2172 H   0  0  0  0  0  0  0  0  0  0  0  0  # atno 7974 bound_to 7965
  156.2914  140.2243  156.5007 H   0  0  0  0  0  0  0  0  0  0  0  0  # atno 8008 bound_to 7997
  154.7692  140.0468  157.1059 H   0  0  0  0  0  0  0  0  0  0  0  0  # atno 8009 bound_to 7997
  154.9895  140.3088  155.4915 H   0  0  0  0  0  0  0  0  0  0  0  0  # atno 8010 bound_to 7997
  140.2812  143.3281  152.0439 H   0  0  0  0  0  0  0  0  0  0  0  0  # atno 10167 bound_to 10162
  155.9984  130.4811  150.4916 H   0  0  0  0  0  0  0  0  0  0  0  0  # atno 10718 bound_to 10713
  154.0691  135.6607  153.4822 H   0  0  0  0  0  0  0  0  0  0  0  0  # atno 10763 bound_to 10752
  153.0397  135.5153  154.7584 H   0  0  0  0  0  0  0  0  0  0  0  0  # atno 10764 bound_to 10752
  154.6644  135.3020  154.9791 H   0  0  0  0  0  0  0  0  0  0  0  0  # atno 10765 bound_to 10752
  140.8271  134.2561  157.4874 H   0  0  0  0  0  0  0  0  0  0  0  0  # atno 11005 bound_to 11000
  144.8235  139.5750  143.6976 LP  0  0  0  0  0  0  0  0  0  0  0  0  # atno 17320 bound_to 7965
  146.2649  139.6496  142.9336 LP  0  0  0  0  0  0  0  0  0  0  0  0  # atno 17321 bound_to 7965
  139.4962  144.6590  151.6507 LP  0  0  0  0  0  0  0  0  0  0  0  0  # atno 17342 bound_to 10162
  140.5810  143.9946  150.6268 LP  0  0  0  0  0  0  0  0  0  0  0  0  # atno 17343 bound_to 10162
  157.2911  131.0626  151.2133 LP  0  0  0  0  0  0  0  0  0  0  0  0  # atno 17370 bound_to 10713
  157.3146  130.6906  149.6234 LP  0  0  0  0  0  0  0  0  0  0  0  0  # atno 17371 bound_to 10713
  139.8706  134.9566  156.4244 LP  0  0  0  0  0  0  0  0  0  0  0  0  # atno 17394 bound_to 11000
  140.9037  133.7761  155.9710 LP  0  0  0  0  0  0  0  0  0  0  0  0  # atno 17395 bound_to 11000

$$$$
