AV-unprocessed.smi:2849|AV-procd|sdf|10957|dock3
  -GOLD-   2272015413D 1   1.00000     0.00000
 Structure written by MMmdl.
 55 58  0  0  0  0  0  0  0  0  2 V2000
  142.8416  133.2277  151.6900 C   0  0  0  0  0  0  0  0  0  0  0  0
  143.9746  133.5495  152.5903 N   0  3  2  0  0  0  0  0  0  0  0  0
  143.8821  134.8687  153.2602 C   0  0  2  0  0  0  0  0  0  0  0  0
  144.0857  136.0300  152.2551 C   0  0  0  0  0  0  0  0  0  0  0  0
  145.3556  135.9010  151.3953 C   0  0  0  0  0  0  0  0  0  0  0  0
  145.5993  134.4597  150.9138 C   0  0  0  0  0  0  0  0  0  0  0  0
  145.3177  133.3783  151.9865 C   0  0  1  0  0  0  0  0  0  0  0  0
  146.3707  133.2828  153.1149 C   0  0  0  0  0  0  0  0  0  0  0  0
  146.2680  134.3617  154.2280 C   0  0  1  0  0  0  0  0  0  0  0  0
  147.2157  135.4596  154.0477 N   0  0  0  0  0  0  0  0  0  0  0  0
  147.6959  136.2478  155.0210 C   0  0  0  0  0  0  0  0  0  0  0  0
  147.4020  136.1148  156.2086 O   0  0  0  0  0  0  0  0  0  0  0  0
  148.5432  137.1664  154.5271 N   0  0  0  0  0  0  0  0  0  0  0  0
  149.1983  138.2254  155.2122 C   0  0  0  0  0  0  0  0  0  0  0  0
  149.3986  138.2676  156.6115 C   0  0  0  0  0  0  0  0  0  0  0  0
  150.0365  139.3886  157.1764 C   0  0  0  0  0  0  0  0  0  0  0  0
  150.4504  140.4462  156.3323 C   0  0  0  0  0  0  0  0  0  0  0  0
  151.0909  141.5854  156.8594 N   0  0  0  0  0  0  0  0  0  0  0  0
  150.6858  142.9315  156.4840 C   0  0  0  0  0  0  0  0  0  0  0  0
  151.5009  143.8492  157.3934 C   0  0  0  0  0  0  0  0  0  0  0  0
  151.6397  143.0290  158.6756 C   0  0  0  0  0  0  0  0  0  0  0  0
  151.6902  141.5764  158.1872 C   0  0  0  0  0  0  0  0  0  0  0  0
  150.2559  140.4041  154.9926 N   0  0  0  0  0  0  0  0  0  0  0  0
  149.6426  139.3286  154.4565 C   0  0  0  0  0  0  0  0  0  0  0  0
  144.8298  134.8822  154.4825 C   0  0  0  0  0  0  0  0  0  0  0  0
  142.7887  133.8998  150.8339 H   0  0  0  0  0  0  0  0  0  0  0  0
  141.8966  133.2943  152.2298 H   0  0  0  0  0  0  0  0  0  0  0  0
  142.9340  132.2086  151.3137 H   0  0  0  0  0  0  0  0  0  0  0  0
  142.8712  134.9681  153.6585 H   0  0  0  0  0  0  0  0  0  0  0  0
  143.2235  136.0712  151.5890 H   0  0  0  0  0  0  0  0  0  0  0  0
  144.0906  136.9857  152.7802 H   0  0  0  0  0  0  0  0  0  0  0  0
  145.2784  136.5636  150.5328 H   0  0  0  0  0  0  0  0  0  0  0  0
  146.2193  136.2668  151.9401 H   0  0  0  0  0  0  0  0  0  0  0  0
  144.9585  134.2733  150.0516 H   0  0  0  0  0  0  0  0  0  0  0  0
  146.6196  134.3630  150.5415 H   0  0  0  0  0  0  0  0  0  0  0  0
  145.3310  132.4141  151.4759 H   0  0  0  0  0  0  0  0  0  0  0  0
  146.2299  132.3145  153.5974 H   0  0  0  0  0  0  0  0  0  0  0  0
  147.3761  133.2411  152.6941 H   0  0  0  0  0  0  0  0  0  0  0  0
  146.5740  133.8799  155.1591 H   0  0  0  0  0  0  0  0  0  0  0  0
  147.5215  135.6424  153.1031 H   0  0  0  0  0  0  0  0  0  0  0  0
  148.7654  137.0867  153.5457 H   0  0  0  0  0  0  0  0  0  0  0  0
  149.0648  137.4758  157.2638 H   0  0  0  0  0  0  0  0  0  0  0  0
  150.1986  139.4205  158.2435 H   0  0  0  0  0  0  0  0  0  0  0  0
  150.8805  143.1319  155.4299 H   0  0  0  0  0  0  0  0  0  0  0  0
  149.6182  143.0563  156.6699 H   0  0  0  0  0  0  0  0  0  0  0  0
  152.4861  144.0221  156.9584 H   0  0  0  0  0  0  0  0  0  0  0  0
  151.0267  144.8179  157.5536 H   0  0  0  0  0  0  0  0  0  0  0  0
  152.5124  143.3073  159.2667 H   0  0  0  0  0  0  0  0  0  0  0  0
  150.7547  143.1744  159.2967 H   0  0  0  0  0  0  0  0  0  0  0  0
  151.1603  140.9171  158.8758 H   0  0  0  0  0  0  0  0  0  0  0  0
  152.7214  141.2312  158.1050 H   0  0  0  0  0  0  0  0  0  0  0  0
  149.5043  139.3508  153.3854 H   0  0  0  0  0  0  0  0  0  0  0  0
  144.8478  135.8711  154.9428 H   0  0  0  0  0  0  0  0  0  0  0  0
  144.3828  134.2309  155.2350 H   0  0  0  0  0  0  0  0  0  0  0  0
  143.9163  132.8627  153.3285 H   0  0  0  0  0  0  0  0  0  0  0  0
  1  2  1  0  0  0  0
  1 26  1  0  0  0  0
  1 27  1  0  0  0  0
  1 28  1  0  0  0  0
  2  7  1  0  0  0  0
  2  3  1  0  0  0  0
  2 55  1  0  0  0  0
  3 25  1  0  0  0  0
  3  4  1  0  0  0  0
  3 29  1  0  0  0  0
  4  5  1  0  0  0  0
  4 30  1  0  0  0  0
  4 31  1  0  0  0  0
  5  6  1  0  0  0  0
  5 32  1  0  0  0  0
  5 33  1  0  0  0  0
  6  7  1  0  0  0  0
  6 34  1  0  0  0  0
  6 35  1  0  0  0  0
  7  8  1  0  0  0  0
  7 36  1  0  0  0  0
  8  9  1  0  0  0  0
  8 37  1  0  0  0  0
  8 38  1  0  0  0  0
  9 10  1  0  0  0  0
  9 25  1  0  0  0  0
  9 39  1  0  0  0  0
 10 11  1  0  0  0  0
 10 40  1  0  0  0  0
 11 12  2  0  0  0  0
 11 13  1  0  0  0  0
 13 14  1  0  0  0  0
 13 41  1  0  0  0  0
 14 24  1  0  0  0  0
 14 15  2  0  0  0  0
 15 16  1  0  0  0  0
 15 42  1  0  0  0  0
 16 17  2  0  0  0  0
 16 43  1  0  0  0  0
 17 18  1  0  0  0  0
 17 23  1  0  0  0  0
 18 22  1  0  0  0  0
 18 19  1  0  0  0  0
 19 20  1  0  0  0  0
 19 44  1  0  0  0  0
 19 45  1  0  0  0  0
 20 21  1  0  0  0  0
 20 46  1  0  0  0  0
 20 47  1  0  0  0  0
 21 22  1  0  0  0  0
 21 48  1  0  0  0  0
 21 49  1  0  0  0  0
 22 50  1  0  0  0  0
 22 51  1  0  0  0  0
 23 24  2  0  0  0  0
 24 52  1  0  0  0  0
 25 53  1  0  0  0  0
 25 54  1  0  0  0  0
M  CHG  1   2   1
M  END
> <s_m_source_file>
AV-unprocessed.smi

> <i_m_source_file_index>
2849

> <i_lp_mmshare_version>
43012

> <i_f3d_flags>
0

> <s_epik_input>
W0NIMl0xW0NIMl1bQ0gyXVtDQEhdKE4oW0NIM10pW0NIXTEyKVtDSDJdW0NASF0oW0NIMl0yKVtOSF1DKD1PKVtOSF1jM1tjSF1bY0hdYyhuW2NIXTMpTjRbQ0gyXVtDSDJdW0NIMl1bQ0gyXTQ=

> <s_epik_cmdline>
J2VwaWtfcHl0aG9uJywgJy1waCcsICc3LjAnLCAnLXRuJywgJzgnLCAnLW1hJywgJzIwMCcsICctbWV0YWxfYmluZGluZycsICctaW1hZScsICc8aW5maWxlLm1hZT4nLCAnLW9tYWUnLCAnPG91dGZpbGUubWFlPic=

> <r_lp_tautomer_probability>
1

> <r_epik_Ionization_Penalty>
0.07954

> <r_epik_Ionization_Penalty_Charging>
0.00089841

> <r_epik_Ionization_Penalty_Neutral>
0.0786416

> <r_epik_State_Penalty>
0.0689917

> <r_epik_Charging_Adjusted_Penalty>
0.0698901

> <i_epik_Tot_Q>
1

> <i_epik_Tot_abs_Q>
1

> <r_epik_Metal_State_Penalty>
0.060891

> <b_epik_Metal_Only>
0

> <s_lp_Force_Field>
OPLS_2005

> <r_lp_Energy>
63.0915

> <b_lp_Chiralities_Consistent>
1

> <s_lp_Variant>
AV-unprocessed.smi:2849-1

> <Gold.Version>
5.8.1

> <Gold.Id.Protein>
6NUR|6NUR_protein|mol2

> <Gold.PLP.Fitness>
47.7960

> <Gold.PLP.PLP>
-33.8644

> <Gold.PLP.part.hbond>
-3.6970

> <Gold.PLP.part.metal>
0.0000

> <Gold.PLP.part.buried>
-2.6746

> <Gold.PLP.part.nonpolar>
-29.0480

> <Gold.PLP.part.repulsive>
0.0912

> <Gold.PLP.ligand.clash>
0.0000

> <Gold.PLP.ligand.torsion>
0.8434

> <Gold.PLP.Chemscore.Hbond>
4.1208

> <Gold.PLP.Chemscore.CHOScore>
1.0000

> <Gold.PLP.Chemscore.Metal>
0.0000

> <Gold.Chemscore.Hbonds>
donor molecule, donor type, donor heavy atom, donor atom, acceptor molecule, acceptor atom, score
      L1  H     2    55       P1 10957  1.11
      L1  H    10    40       P1  7948  0.99
      L1  H    13    41       P1  7948  1.00
      P1  H  7989  7998       L1    23  0.88
      L1  C    24    52       P1  7957  1.00

> <Gold.PLP.Chemscore.Internal.Correction>
0.2561

> <Gold.Rescore>
     Score         DG    S(hbond)    S(metal)    S(lipo)     H(rot)  DE(clash)    DE(int)     intcor
     20.64     -24.56       3.31        0.00      90.45       1.00       2.18       1.73       ----

> <Gold.Chemscore.Fitness>
20.6420

> <Gold.Chemscore.DG>
-24.5556

> <Gold.Chemscore.ZeroCoef>
-5.4800

> <Gold.Chemscore.Hbond>
3.3092

> <Gold.Chemscore.Metal>
0.0000

> <Gold.Chemscore.Lipo>
90.4511

> <Gold.Chemscore.Internal_Hbond>
0.0000

> <Gold.Chemscore.DEClash>
2.1808

> <Gold.Chemscore.DEInternal>
1.7327

> <Gold.Chemscore.Rot>
1.0000

> <Gold.Chemscore.Internal.Correction>
   9.000000E+99

> <Gold.Chemscore.Hbonds>
donor molecule, donor type, donor heavy atom, donor atom, acceptor molecule, acceptor atom, score
      L1  H     2    55       P1 10957  0.33
      L1  H    10    40       P1  7948  0.92
      L1  H    13    41       P1  7948  0.99
      P1  H  7989  7998       L1    23  0.24

> <Gold.Chemscore.Hbond.Weighted>
-11.0528

> <Gold.Chemscore.Metal.Weighted>
-0.0000

> <Gold.Chemscore.Lipo.Weighted>
-10.5828

> <Gold.Chemscore.Internal_Hbond.Weighted>
0.0000

> <Gold.Chemscore.DEClash.Weighted>
2.1808

> <Gold.Chemscore.DEInternal.Weighted>
1.7327

> <Gold.Chemscore.Rot.Weighted>
2.5600

> <Gold.Chemscore.Internal.Correction.Weighted>
   9.000000E+99

> <Gold.Protein.RotatedTorsions>
[ 6907 6896 6895 6894 ] final    0.48 input  -60.11 | X-H torsion
[ 7974 7965 7964 7962 ] final  -31.04 input  175.53 | X-H torsion
[ 8008 7997 7996 7995 ] final -163.52 input   59.86 | X-H torsion
[ 10167 10162 10161 10158 ] final -106.52 input  -65.29 | X-H torsion
[ 10718 10713 10712 10709 ] final -148.91 input   66.30 | X-H torsion
[ 10763 10752 10751 10750 ] final  154.14 input  -60.55 | X-H torsion
[ 11005 11000 10999 10996 ] final -139.02 input  -57.11 | X-H torsion

> <Gold.Protein.ActiveResidues>
 VAL166  LYS551  ARG553  GLY616  TRP617  ASP618  TYR619  PRO620  LYS621  CYS622 
 ASP623  PHE694  ASN695  SER759  ASP760  ASP761  ALA762  ILE779  LEU786  VAL792 
 PHE793  MET794  SER795  GLU796  ALA797  LYS798  CYS799  TRP800  GLU811  SER814 

> <Gold.Protein.RotatedAtoms>
  151.5772  135.1060  160.0008 H   0  0  0  0  0  0  0  0  0  0  0  0  # atno 6907 bound_to 6896
  152.4372  133.7378  159.6634 H   0  0  0  0  0  0  0  0  0  0  0  0  # atno 6908 bound_to 6896
  150.8271  133.8083  159.3137 H   0  0  0  0  0  0  0  0  0  0  0  0  # atno 6909 bound_to 6896
  146.1097  140.5617  142.8783 H   0  0  0  0  0  0  0  0  0  0  0  0  # atno 7974 bound_to 7965
  155.8224  140.0921  157.1841 H   0  0  0  0  0  0  0  0  0  0  0  0  # atno 8008 bound_to 7997
  154.3979  140.1434  156.3576 H   0  0  0  0  0  0  0  0  0  0  0  0  # atno 8009 bound_to 7997
  155.8252  140.3445  155.5541 H   0  0  0  0  0  0  0  0  0  0  0  0  # atno 8010 bound_to 7997
  140.1868  143.3923  152.1238 H   0  0  0  0  0  0  0  0  0  0  0  0  # atno 10167 bound_to 10162
  156.4263  130.8054  151.2279 H   0  0  0  0  0  0  0  0  0  0  0  0  # atno 10718 bound_to 10713
  154.1475  135.2817  155.3144 H   0  0  0  0  0  0  0  0  0  0  0  0  # atno 10763 bound_to 10752
  154.6242  135.5457  153.7611 H   0  0  0  0  0  0  0  0  0  0  0  0  # atno 10764 bound_to 10752
  153.0231  135.6446  154.1620 H   0  0  0  0  0  0  0  0  0  0  0  0  # atno 10765 bound_to 10752
  140.8560  134.2228  157.4734 H   0  0  0  0  0  0  0  0  0  0  0  0  # atno 11005 bound_to 11000
  144.7501  140.5169  143.6808 LP  0  0  0  0  0  0  0  0  0  0  0  0  # atno 17320 bound_to 7965
  145.5688  139.1482  143.3300 LP  0  0  0  0  0  0  0  0  0  0  0  0  # atno 17321 bound_to 7965
  139.5272  144.7117  151.5185 LP  0  0  0  0  0  0  0  0  0  0  0  0  # atno 17342 bound_to 10162
  140.6482  143.8750  150.6759 LP  0  0  0  0  0  0  0  0  0  0  0  0  # atno 17343 bound_to 10162
  157.7508  131.0212  150.3741 LP  0  0  0  0  0  0  0  0  0  0  0  0  # atno 17370 bound_to 10713
  156.4069  130.3926  149.6919 LP  0  0  0  0  0  0  0  0  0  0  0  0  # atno 17371 bound_to 10713
  139.8705  134.9706  156.4708 LP  0  0  0  0  0  0  0  0  0  0  0  0  # atno 17394 bound_to 11000
  140.8737  133.7969  155.9392 LP  0  0  0  0  0  0  0  0  0  0  0  0  # atno 17395 bound_to 11000

$$$$
