AV-unprocessed.smi:240|AV-procd|sdf|1836|dock6
  -GOLD-   2262020443D 1   1.00000     0.00000
 Structure written by MMmdl.
 55 59  0  0  0  0  0  0  0  0  1 V2000
  151.1186  136.5705  154.0676 O   0  0  0  0  0  0  0  0  0  0  0  0
  151.2979  137.9640  154.2123 C   0  0  2  0  0  0  0  0  0  0  0  0
  152.6833  138.2774  154.7739 C   0  0  0  0  0  0  0  0  0  0  0  0
  152.5448  139.6945  155.3316 C   0  0  0  0  0  0  0  0  0  0  0  0
  151.0757  139.8402  155.7576 C   0  0  0  0  0  0  0  0  0  0  0  0
  150.3378  138.5867  155.2435 C   0  0  1  0  0  0  0  0  0  0  0  0
  148.8660  138.8426  154.7840 C   0  0  1  0  0  0  0  0  0  0  0  0
  148.7692  139.7346  153.5186 C   0  0  0  0  0  0  0  0  0  0  0  0
  147.4074  139.9585  153.1763 O   0  0  0  0  0  0  0  0  0  0  0  0
  146.7489  138.7450  152.8415 C   0  0  0  0  0  0  0  0  0  0  0  0
  146.7448  137.8265  154.0701 C   0  0  0  0  0  0  0  0  0  0  0  0
  148.1029  137.6043  154.5582 N   0  0  0  0  0  0  0  0  0  0  0  0
  148.0795  136.6887  155.5559 C   0  0  0  0  0  0  0  0  0  0  0  0
  147.8116  135.3829  155.2858 N   0  0  0  0  0  0  0  0  0  0  0  0
  147.7927  134.4860  156.2764 C   0  0  0  0  0  0  0  0  0  0  0  0
  148.0158  134.6754  157.5791 N   0  0  0  0  0  0  0  0  0  0  0  0
  148.3020  135.9821  157.8480 C   0  0  0  0  0  0  0  0  0  0  0  0
  148.3602  137.0424  156.9018 C   0  0  0  0  0  0  0  0  0  0  0  0
  148.6828  138.2338  157.5384 N   0  0  0  0  0  0  0  0  0  0  0  0
  148.8033  137.8978  158.7938 C   0  0  0  0  0  0  0  0  0  0  0  0
  148.5972  136.5641  159.0685 N   0  0  0  0  0  0  0  0  0  0  0  0
  148.6619  135.9217  160.3722 C   0  0  0  0  0  0  0  0  0  0  0  0
  147.3870  136.1091  161.2337 C   0  0  2  0  0  0  0  0  0  0  0  0
  147.2054  137.4879  161.4998 O   0  0  0  0  0  0  0  0  0  0  0  0
  147.4052  135.3407  162.5536 C   0  0  0  0  0  0  0  0  0  0  0  0
  146.7614  134.0182  162.1680 C   0  0  0  0  0  0  0  0  0  0  0  0
  145.7040  134.4251  161.3152 O   0  0  0  0  0  0  0  0  0  0  0  0
  146.1409  135.5326  160.5316 C   0  0  0  0  0  0  0  0  0  0  0  0
  150.9174  136.3851  153.1632 H   0  0  0  0  0  0  0  0  0  0  0  0
  151.2037  138.4404  153.2379 H   0  0  0  0  0  0  0  0  0  0  0  0
  152.9246  137.5913  155.5875 H   0  0  0  0  0  0  0  0  0  0  0  0
  153.4708  138.1951  154.0241 H   0  0  0  0  0  0  0  0  0  0  0  0
  153.2362  139.8793  156.1542 H   0  0  0  0  0  0  0  0  0  0  0  0
  152.7687  140.4184  154.5470 H   0  0  0  0  0  0  0  0  0  0  0  0
  150.9889  139.9090  156.8427 H   0  0  0  0  0  0  0  0  0  0  0  0
  150.6669  140.7658  155.3556 H   0  0  0  0  0  0  0  0  0  0  0  0
  150.3282  137.9134  156.1009 H   0  0  0  0  0  0  0  0  0  0  0  0
  148.3638  139.3797  155.5900 H   0  0  0  0  0  0  0  0  0  0  0  0
  149.2330  140.7057  153.6818 H   0  0  0  0  0  0  0  0  0  0  0  0
  149.2735  139.2842  152.6640 H   0  0  0  0  0  0  0  0  0  0  0  0
  145.7267  138.9677  152.5354 H   0  0  0  0  0  0  0  0  0  0  0  0
  147.2401  138.2653  151.9933 H   0  0  0  0  0  0  0  0  0  0  0  0
  146.1434  138.2749  154.8623 H   0  0  0  0  0  0  0  0  0  0  0  0
  146.2770  136.8754  153.8113 H   0  0  0  0  0  0  0  0  0  0  0  0
  147.5658  133.4715  155.9832 H   0  0  0  0  0  0  0  0  0  0  0  0
  149.0502  138.6184  159.5602 H   0  0  0  0  0  0  0  0  0  0  0  0
  148.8561  134.8595  160.2164 H   0  0  0  0  0  0  0  0  0  0  0  0
  149.5332  136.3119  160.8997 H   0  0  0  0  0  0  0  0  0  0  0  0
  146.5300  137.5796  162.1545 H   0  0  0  0  0  0  0  0  0  0  0  0
  148.3918  135.2215  162.9990 H   0  0  0  0  0  0  0  0  0  0  0  0
  146.7727  135.8334  163.2940 H   0  0  0  0  0  0  0  0  0  0  0  0
  147.4601  133.3863  161.6173 H   0  0  0  0  0  0  0  0  0  0  0  0
  146.3927  133.4599  163.0287 H   0  0  0  0  0  0  0  0  0  0  0  0
  145.3271  136.2557  160.4614 H   0  0  0  0  0  0  0  0  0  0  0  0
  146.3650  135.1978  159.5179 H   0  0  0  0  0  0  0  0  0  0  0  0
  1  2  1  0  0  0  0
  1 29  1  0  0  0  0
  2  6  1  0  0  0  0
  2  3  1  0  0  0  0
  2 30  1  0  0  0  0
  3  4  1  0  0  0  0
  3 31  1  0  0  0  0
  3 32  1  0  0  0  0
  4  5  1  0  0  0  0
  4 33  1  0  0  0  0
  4 34  1  0  0  0  0
  5  6  1  0  0  0  0
  5 35  1  0  0  0  0
  5 36  1  0  0  0  0
  6  7  1  0  0  0  0
  6 37  1  0  0  0  0
  7 12  1  0  0  0  0
  7  8  1  0  0  0  0
  7 38  1  0  0  0  0
  8  9  1  0  0  0  0
  8 39  1  0  0  0  0
  8 40  1  0  0  0  0
  9 10  1  0  0  0  0
 10 11  1  0  0  0  0
 10 41  1  0  0  0  0
 10 42  1  0  0  0  0
 11 12  1  0  0  0  0
 11 43  1  0  0  0  0
 11 44  1  0  0  0  0
 12 13  1  0  0  0  0
 13 18  1  0  0  0  0
 13 14  2  0  0  0  0
 14 15  1  0  0  0  0
 15 16  2  0  0  0  0
 15 45  1  0  0  0  0
 16 17  1  0  0  0  0
 17 21  1  0  0  0  0
 17 18  2  0  0  0  0
 18 19  1  0  0  0  0
 19 20  2  0  0  0  0
 20 21  1  0  0  0  0
 20 46  1  0  0  0  0
 21 22  1  0  0  0  0
 22 23  1  0  0  0  0
 22 47  1  0  0  0  0
 22 48  1  0  0  0  0
 23 28  1  0  0  0  0
 23 24  1  0  0  0  0
 23 25  1  0  0  0  0
 24 49  1  0  0  0  0
 25 26  1  0  0  0  0
 25 50  1  0  0  0  0
 25 51  1  0  0  0  0
 26 27  1  0  0  0  0
 26 52  1  0  0  0  0
 26 53  1  0  0  0  0
 27 28  1  0  0  0  0
 28 54  1  0  0  0  0
 28 55  1  0  0  0  0
M  END
> <s_m_source_file>
AV-unprocessed.smi

> <i_m_source_file_index>
240

> <i_lp_mmshare_version>
43012

> <i_f3d_flags>
0

> <s_epik_input>
W09IXVtDQEBIXTFbQ0gyXVtDSDJdW0NIMl1bQ0BIXTFbQ0BASF0yW0NIMl1PW0NIMl1bQ0gyXU4yYyhuW2NIXW4zKWMoYzM0KW5bY0hdbjRbQ0gyXVtDQEBdNShbT0hdKVtDSDJdW0NIMl1PW0NIMl01

> <s_epik_cmdline>
J2VwaWtfcHl0aG9uJywgJy1waCcsICc3LjAnLCAnLXRuJywgJzgnLCAnLW1hJywgJzIwMCcsICctbWV0YWxfYmluZGluZycsICctaW1hZScsICc8aW5maWxlLm1hZT4nLCAnLW9tYWUnLCAnPG91dGZpbGUubWFlPic=

> <r_lp_tautomer_probability>
1

> <r_epik_Ionization_Penalty>
0.000130618

> <r_epik_Ionization_Penalty_Charging>
0

> <r_epik_Ionization_Penalty_Neutral>
0.000130618

> <r_epik_State_Penalty>
-0

> <r_epik_Charging_Adjusted_Penalty>
0

> <i_epik_Tot_Q>
0

> <i_epik_Tot_abs_Q>
0

> <r_epik_Metal_State_Penalty>
-0

> <b_epik_Metal_Only>
0

> <s_lp_Force_Field>
OPLS_2005

> <r_lp_Energy>
59.7423

> <b_lp_Chiralities_Consistent>
1

> <s_lp_Variant>
AV-unprocessed.smi:240-13

> <Gold.Version>
5.8.1

> <Gold.Id.Protein>
6NUR|6NUR_protein|mol2

> <Gold.PLP.Fitness>
44.2923

> <Gold.PLP.PLP>
-35.2341

> <Gold.PLP.part.hbond>
-4.6177

> <Gold.PLP.part.metal>
0.0000

> <Gold.PLP.part.buried>
2.3301

> <Gold.PLP.part.nonpolar>
-33.5303

> <Gold.PLP.part.repulsive>
1.2322

> <Gold.PLP.ligand.clash>
0.0000

> <Gold.PLP.ligand.torsion>
0.7611

> <Gold.PLP.Chemscore.Hbond>
3.4690

> <Gold.PLP.Chemscore.CHOScore>
0.0000

> <Gold.PLP.Chemscore.Metal>
0.0000

> <Gold.Chemscore.Hbonds>
donor molecule, donor type, donor heavy atom, donor atom, acceptor molecule, acceptor atom, score
      L1  H     1    29       P1  7949  0.80
      P1  H  6931  6943       L1    24  0.72
      P1  H  6934  6947       L1    24  0.79
      P1  H 10752 10763       L1     1  0.98

> <Gold.PLP.Chemscore.Internal.Correction>
0.1736

> <Gold.Rescore>
     Score         DG    S(hbond)    S(metal)    S(lipo)     H(rot)  DE(clash)    DE(int)     intcor
      7.59     -12.73       1.29        0.00      90.82       3.00       0.91       4.23       ----

> <Gold.Chemscore.Fitness>
7.5877

> <Gold.Chemscore.DG>
-12.7251

> <Gold.Chemscore.ZeroCoef>
-5.4800

> <Gold.Chemscore.Hbond>
1.2900

> <Gold.Chemscore.Metal>
0.0000

> <Gold.Chemscore.Lipo>
90.8246

> <Gold.Chemscore.Internal_Hbond>
0.0000

> <Gold.Chemscore.DEClash>
0.9089

> <Gold.Chemscore.DEInternal>
4.2285

> <Gold.Chemscore.Rot>
3.0039

> <Gold.Chemscore.Internal.Correction>
   9.000000E+99

> <Gold.Chemscore.Hbonds>
donor molecule, donor type, donor heavy atom, donor atom, acceptor molecule, acceptor atom, score
      L1  H     1    29       P1  7949  0.12
      P1  H  6931  6943       L1    24  0.42
      P1  H  6934  6947       L1    24  0.13
      P1  H 10752 10763       L1     1  0.19

> <Gold.Chemscore.Hbond.Weighted>
-4.3085

> <Gold.Chemscore.Metal.Weighted>
-0.0000

> <Gold.Chemscore.Lipo.Weighted>
-10.6265

> <Gold.Chemscore.Internal_Hbond.Weighted>
0.0000

> <Gold.Chemscore.DEClash.Weighted>
0.9089

> <Gold.Chemscore.DEInternal.Weighted>
4.2285

> <Gold.Chemscore.Rot.Weighted>
7.6899

> <Gold.Chemscore.Internal.Correction.Weighted>
   9.000000E+99

> <Gold.Protein.RotatedTorsions>
[ 6907 6896 6895 6894 ] final  160.47 input  -60.11 | X-H torsion
[ 7974 7965 7964 7962 ] final   32.69 input  175.53 | X-H torsion
[ 8008 7997 7996 7995 ] final  117.94 input   59.86 | X-H torsion
[ 10167 10162 10161 10158 ] final  -73.86 input  -65.29 | X-H torsion
[ 10718 10713 10712 10709 ] final   88.83 input   66.30 | X-H torsion
[ 10763 10752 10751 10750 ] final   40.36 input  -60.55 | X-H torsion
[ 11005 11000 10999 10996 ] final  162.63 input  -57.11 | X-H torsion

> <Gold.Protein.ActiveResidues>
 VAL166  LYS551  ARG553  GLY616  TRP617  ASP618  TYR619  PRO620  LYS621  CYS622 
 ASP623  PHE694  ASN695  SER759  ASP760  ASP761  ALA762  ILE779  LEU786  VAL792 
 PHE793  MET794  SER795  GLU796  ALA797  LYS798  CYS799  TRP800  GLU811  SER814 

> <Gold.Protein.RotatedAtoms>
  151.9701  133.3723  159.4067 H   0  0  0  0  0  0  0  0  0  0  0  0  # atno 6907 bound_to 6896
  150.6950  134.4149  159.5188 H   0  0  0  0  0  0  0  0  0  0  0  0  # atno 6908 bound_to 6896
  152.1851  134.8720  160.0573 H   0  0  0  0  0  0  0  0  0  0  0  0  # atno 6909 bound_to 6896
  146.1470  139.6493  142.9125 H   0  0  0  0  0  0  0  0  0  0  0  0  # atno 7974 bound_to 7965
  156.2520  140.2885  156.0757 H   0  0  0  0  0  0  0  0  0  0  0  0  # atno 8008 bound_to 7997
  155.1622  140.0400  157.2862 H   0  0  0  0  0  0  0  0  0  0  0  0  # atno 8009 bound_to 7997
  154.6384  140.2516  155.7357 H   0  0  0  0  0  0  0  0  0  0  0  0  # atno 8010 bound_to 7997
  140.5075  143.2350  151.7649 H   0  0  0  0  0  0  0  0  0  0  0  0  # atno 10167 bound_to 10162
  157.6951  131.0310  150.3334 H   0  0  0  0  0  0  0  0  0  0  0  0  # atno 10718 bound_to 10713
  152.9939  135.6193  154.2614 H   0  0  0  0  0  0  0  0  0  0  0  0  # atno 10763 bound_to 10752
  154.2349  135.2790  155.2877 H   0  0  0  0  0  0  0  0  0  0  0  0  # atno 10764 bound_to 10752
  154.5418  135.5759  153.6904 H   0  0  0  0  0  0  0  0  0  0  0  0  # atno 10765 bound_to 10752
  140.2277  134.8148  157.3285 H   0  0  0  0  0  0  0  0  0  0  0  0  # atno 11005 bound_to 11000
  145.4914  141.0438  143.2591 LP  0  0  0  0  0  0  0  0  0  0  0  0  # atno 17320 bound_to 7965
  144.7858  139.6430  143.7135 LP  0  0  0  0  0  0  0  0  0  0  0  0  # atno 17321 bound_to 7965
  139.4887  144.4437  151.9735 LP  0  0  0  0  0  0  0  0  0  0  0  0  # atno 17342 bound_to 10162
  140.3528  144.3068  150.5946 LP  0  0  0  0  0  0  0  0  0  0  0  0  # atno 17343 bound_to 10162
  156.3805  130.3879  149.7106 LP  0  0  0  0  0  0  0  0  0  0  0  0  # atno 17370 bound_to 10713
  156.4490  130.7897  151.2919 LP  0  0  0  0  0  0  0  0  0  0  0  0  # atno 17371 bound_to 10713
  140.1783  134.4522  155.7788 LP  0  0  0  0  0  0  0  0  0  0  0  0  # atno 17394 bound_to 11000
  141.2219  133.6972  156.7825 LP  0  0  0  0  0  0  0  0  0  0  0  0  # atno 17395 bound_to 11000

$$$$
