AV-unprocessed.smi:942|AV-procd|sdf|4226|dock8
  -GOLD-   22720 2133D 1   1.00000     0.00000
 Structure written by MMmdl.
 42 44  0  0  0  0  0  0  0  0  1 V2000
  152.7617  139.8431  156.9532 O   0  0  0  0  0  0  0  0  0  0  0  0
  151.7314  140.5155  157.0060 C   0  0  0  0  0  0  0  0  0  0  0  0
  150.7334  140.4105  156.1159 N   0  0  0  0  0  0  0  0  0  0  0  0
  150.7274  139.5509  154.9303 C   0  0  1  0  0  0  0  0  0  0  0  0
  151.2500  138.1450  155.2911 C   0  0  0  0  0  0  0  0  0  0  0  0
  150.0631  137.1805  155.1507 C   0  0  0  0  0  0  0  0  0  0  0  0
  148.8180  138.0655  155.1201 C   0  0  0  0  0  0  0  0  0  0  0  0
  149.2964  139.3278  154.3955 C   0  0  1  0  0  0  0  0  0  0  0  0
  148.4158  140.4880  154.5050 N   0  0  0  0  0  0  0  0  0  0  0  0
  148.0403  141.3909  153.5144 C   0  0  0  0  0  0  0  0  0  0  0  0
  147.2029  142.3065  154.1099 C   0  0  0  0  0  0  0  0  0  0  0  0
  147.0594  142.0022  155.4604 N   0  0  0  0  0  0  0  0  0  0  0  0
  147.8114  140.9217  155.6211 C   0  0  0  0  0  0  0  0  0  0  0  0
  151.5397  141.5522  158.1204 C   0  0  0  0  0  0  0  0  0  0  0  0
  151.3494  142.9650  157.5279 C   0  0  0  0  0  0  0  0  0  0  0  0
  151.1683  144.0162  158.6354 C   0  0  0  0  0  0  0  0  0  0  0  0
  152.3437  143.9912  159.6256 C   0  0  0  0  0  0  0  0  0  0  0  0
  152.5450  142.5861  160.2152 C   0  0  0  0  0  0  0  0  0  0  0  0
  152.7281  141.5381  159.1054 C   0  0  0  0  0  0  0  0  0  0  0  0
  149.9270  141.0045  156.2447 H   0  0  0  0  0  0  0  0  0  0  0  0
  151.3396  139.9881  154.1396 H   0  0  0  0  0  0  0  0  0  0  0  0
  152.0630  137.8466  154.6283 H   0  0  0  0  0  0  0  0  0  0  0  0
  151.6457  138.1154  156.3075 H   0  0  0  0  0  0  0  0  0  0  0  0
  150.1451  136.6363  154.2090 H   0  0  0  0  0  0  0  0  0  0  0  0
  150.0278  136.4436  155.9534 H   0  0  0  0  0  0  0  0  0  0  0  0
  147.9758  137.5850  154.6213 H   0  0  0  0  0  0  0  0  0  0  0  0
  148.5204  138.2965  156.1440 H   0  0  0  0  0  0  0  0  0  0  0  0
  149.3689  139.0868  153.3335 H   0  0  0  0  0  0  0  0  0  0  0  0
  148.3810  141.3162  152.4927 H   0  0  0  0  0  0  0  0  0  0  0  0
  146.7014  143.1579  153.6737 H   0  0  0  0  0  0  0  0  0  0  0  0
  147.9179  140.4249  156.5745 H   0  0  0  0  0  0  0  0  0  0  0  0
  150.6364  141.2948  158.6768 H   0  0  0  0  0  0  0  0  0  0  0  0
  152.2104  143.2362  156.9147 H   0  0  0  0  0  0  0  0  0  0  0  0
  150.4826  142.9810  156.8655 H   0  0  0  0  0  0  0  0  0  0  0  0
  151.0756  145.0089  158.1937 H   0  0  0  0  0  0  0  0  0  0  0  0
  150.2360  143.8277  159.1692 H   0  0  0  0  0  0  0  0  0  0  0  0
  153.2557  144.3079  159.1177 H   0  0  0  0  0  0  0  0  0  0  0  0
  152.1705  144.7097  160.4270 H   0  0  0  0  0  0  0  0  0  0  0  0
  153.4113  142.5812  160.8772 H   0  0  0  0  0  0  0  0  0  0  0  0
  151.6844  142.3207  160.8303 H   0  0  0  0  0  0  0  0  0  0  0  0
  152.8337  140.5488  159.5526 H   0  0  0  0  0  0  0  0  0  0  0  0
  153.6608  141.7384  158.5753 H   0  0  0  0  0  0  0  0  0  0  0  0
  1  2  2  0  0  0  0
  2  3  1  0  0  0  0
  2 14  1  0  0  0  0
  3  4  1  0  0  0  0
  3 20  1  0  0  0  0
  4  8  1  0  0  0  0
  4  5  1  0  0  0  0
  4 21  1  0  0  0  0
  5  6  1  0  0  0  0
  5 22  1  0  0  0  0
  5 23  1  0  0  0  0
  6  7  1  0  0  0  0
  6 24  1  0  0  0  0
  6 25  1  0  0  0  0
  7  8  1  0  0  0  0
  7 26  1  0  0  0  0
  7 27  1  0  0  0  0
  8  9  1  0  0  0  0
  8 28  1  0  0  0  0
  9 13  1  0  0  0  0
  9 10  1  0  0  0  0
 10 11  2  0  0  0  0
 10 29  1  0  0  0  0
 11 12  1  0  0  0  0
 11 30  1  0  0  0  0
 12 13  2  0  0  0  0
 13 31  1  0  0  0  0
 14 19  1  0  0  0  0
 14 15  1  0  0  0  0
 14 32  1  0  0  0  0
 15 16  1  0  0  0  0
 15 33  1  0  0  0  0
 15 34  1  0  0  0  0
 16 17  1  0  0  0  0
 16 35  1  0  0  0  0
 16 36  1  0  0  0  0
 17 18  1  0  0  0  0
 17 37  1  0  0  0  0
 17 38  1  0  0  0  0
 18 19  1  0  0  0  0
 18 39  1  0  0  0  0
 18 40  1  0  0  0  0
 19 41  1  0  0  0  0
 19 42  1  0  0  0  0
M  END
> <s_m_source_file>
AV-unprocessed.smi

> <i_m_source_file_index>
942

> <i_lp_mmshare_version>
43012

> <i_f3d_flags>
0

> <s_epik_input>
W0NIMl0xW0NIMl1bQ0gyXVtDSDJdW0NIMl1bQ0hdMUMoPU8pW05IXVtDQEBIXTJbQ0gyXVtDSDJdW0NIMl1bQ0BIXTJuM1tjSF1bY0hdbltjSF0z

> <s_epik_cmdline>
J2VwaWtfcHl0aG9uJywgJy1waCcsICc3LjAnLCAnLXRuJywgJzgnLCAnLW1hJywgJzIwMCcsICctbWV0YWxfYmluZGluZycsICctaW1hZScsICc8aW5maWxlLm1hZT4nLCAnLW9tYWUnLCAnPG91dGZpbGUubWFlPic=

> <r_lp_tautomer_probability>
1

> <r_epik_Ionization_Penalty>
0.778458

> <r_epik_Ionization_Penalty_Charging>
0.778458

> <r_epik_Ionization_Penalty_Neutral>
2.79355e-08

> <r_epik_State_Penalty>
0.807804

> <r_epik_Charging_Adjusted_Penalty>
1.58626

> <i_epik_Tot_Q>
0

> <i_epik_Tot_abs_Q>
0

> <r_epik_Metal_State_Penalty>
0.343007

> <b_epik_Metal_Only>
0

> <s_lp_Force_Field>
OPLS_2005

> <r_lp_Energy>
33.2342

> <b_lp_Chiralities_Consistent>
1

> <s_lp_Variant>
AV-unprocessed.smi:942-6

> <Gold.Version>
5.8.1

> <Gold.Id.Protein>
6NUR|6NUR_protein|mol2

> <Gold.PLP.Fitness>
42.8955

> <Gold.PLP.PLP>
-38.2500

> <Gold.PLP.part.hbond>
-1.0000

> <Gold.PLP.part.metal>
0.0000

> <Gold.PLP.part.buried>
-2.3518

> <Gold.PLP.part.nonpolar>
-34.0092

> <Gold.PLP.part.repulsive>
0.2200

> <Gold.PLP.ligand.clash>
0.0000

> <Gold.PLP.ligand.torsion>
0.6896

> <Gold.PLP.Chemscore.Hbond>
1.0000

> <Gold.PLP.Chemscore.CHOScore>
1.0000

> <Gold.PLP.Chemscore.Metal>
0.0000

> <Gold.Chemscore.Hbonds>
donor molecule, donor type, donor heavy atom, donor atom, acceptor molecule, acceptor atom, score
      P1  H  7997  8008       L1     1  1.00
      L1  C    10    29       P1  7957  1.00

> <Gold.PLP.Chemscore.Internal.Correction>
0.0246

> <Gold.Rescore>
     Score         DG    S(hbond)    S(metal)    S(lipo)     H(rot)  DE(clash)    DE(int)     intcor
     14.04     -17.28       0.99        0.00     104.07       1.44       0.14       3.09       ----

> <Gold.Chemscore.Fitness>
14.0426

> <Gold.Chemscore.DG>
-17.2799

> <Gold.Chemscore.ZeroCoef>
-5.4800

> <Gold.Chemscore.Hbond>
0.9907

> <Gold.Chemscore.Metal>
0.0000

> <Gold.Chemscore.Lipo>
104.0699

> <Gold.Chemscore.Internal_Hbond>
0.0000

> <Gold.Chemscore.DEClash>
0.1427

> <Gold.Chemscore.DEInternal>
3.0946

> <Gold.Chemscore.Rot>
1.4395

> <Gold.Chemscore.Internal.Correction>
   9.000000E+99

> <Gold.Chemscore.Hbonds>
donor molecule, donor type, donor heavy atom, donor atom, acceptor molecule, acceptor atom, score
      P1  H  7997  8008       L1     1  1.00

> <Gold.Chemscore.Hbond.Weighted>
-3.3090

> <Gold.Chemscore.Metal.Weighted>
-0.0000

> <Gold.Chemscore.Lipo.Weighted>
-12.1762

> <Gold.Chemscore.Internal_Hbond.Weighted>
0.0000

> <Gold.Chemscore.DEClash.Weighted>
0.1427

> <Gold.Chemscore.DEInternal.Weighted>
3.0946

> <Gold.Chemscore.Rot.Weighted>
3.6852

> <Gold.Chemscore.Internal.Correction.Weighted>
   9.000000E+99

> <Gold.Protein.RotatedTorsions>
[ 6907 6896 6895 6894 ] final   15.57 input  -60.11 | X-H torsion
[ 7974 7965 7964 7962 ] final -166.24 input  175.53 | X-H torsion
[ 8008 7997 7996 7995 ] final  -52.27 input   59.86 | X-H torsion
[ 10167 10162 10161 10158 ] final  137.55 input  -65.29 | X-H torsion
[ 10718 10713 10712 10709 ] final   75.34 input   66.30 | X-H torsion
[ 10763 10752 10751 10750 ] final -158.74 input  -60.55 | X-H torsion
[ 11005 11000 10999 10996 ] final  107.80 input  -57.11 | X-H torsion

> <Gold.Protein.ActiveResidues>
 VAL166  LYS551  ARG553  GLY616  TRP617  ASP618  TYR619  PRO620  LYS621  CYS622 
 ASP623  PHE694  ASN695  SER759  ASP760  ASP761  ALA762  ILE779  LEU786  VAL792 
 PHE793  MET794  SER795  GLU796  ALA797  LYS798  CYS799  TRP800  GLU811  SER814 

> <Gold.Protein.RotatedAtoms>
  151.8202  135.0654  160.0423 H   0  0  0  0  0  0  0  0  0  0  0  0  # atno 6907 bound_to 6896
  152.2957  133.5600  159.5594 H   0  0  0  0  0  0  0  0  0  0  0  0  # atno 6908 bound_to 6896
  150.7250  134.0281  159.3766 H   0  0  0  0  0  0  0  0  0  0  0  0  # atno 6909 bound_to 6896
  144.7250  140.2695  143.6253 H   0  0  0  0  0  0  0  0  0  0  0  0  # atno 7974 bound_to 7965
  154.4102  140.1228  156.4965 H   0  0  0  0  0  0  0  0  0  0  0  0  # atno 8008 bound_to 7997
  155.6938  140.3495  155.4885 H   0  0  0  0  0  0  0  0  0  0  0  0  # atno 8009 bound_to 7997
  155.9445  140.1093  157.1018 H   0  0  0  0  0  0  0  0  0  0  0  0  # atno 8010 bound_to 7997
  139.5140  144.6403  151.5586 H   0  0  0  0  0  0  0  0  0  0  0  0  # atno 10167 bound_to 10162
  157.6630  130.9721  150.1339 H   0  0  0  0  0  0  0  0  0  0  0  0  # atno 10718 bound_to 10713
  154.7532  135.3098  154.8519 H   0  0  0  0  0  0  0  0  0  0  0  0  # atno 10763 bound_to 10752
  153.9301  135.6786  153.4750 H   0  0  0  0  0  0  0  0  0  0  0  0  # atno 10764 bound_to 10752
  153.1128  135.4858  154.8993 H   0  0  0  0  0  0  0  0  0  0  0  0  # atno 10765 bound_to 10752
  139.8834  134.9411  156.5874 H   0  0  0  0  0  0  0  0  0  0  0  0  # atno 11005 bound_to 11000
  145.8057  139.1982  143.2022 LP  0  0  0  0  0  0  0  0  0  0  0  0  # atno 17320 bound_to 7965
  146.0639  140.7941  142.9721 LP  0  0  0  0  0  0  0  0  0  0  0  0  # atno 17321 bound_to 7965
  140.6168  143.9334  150.6494 LP  0  0  0  0  0  0  0  0  0  0  0  0  # atno 17342 bound_to 10162
  140.2595  143.3534  152.1336 LP  0  0  0  0  0  0  0  0  0  0  0  0  # atno 17343 bound_to 10162
  156.2179  130.3671  149.8591 LP  0  0  0  0  0  0  0  0  0  0  0  0  # atno 17370 bound_to 10713
  156.6452  130.8721  151.3521 LP  0  0  0  0  0  0  0  0  0  0  0  0  # atno 17371 bound_to 10713
  140.7981  133.8528  155.8703 LP  0  0  0  0  0  0  0  0  0  0  0  0  # atno 17394 bound_to 11000
  140.9617  134.1647  157.4648 LP  0  0  0  0  0  0  0  0  0  0  0  0  # atno 17395 bound_to 11000

$$$$
