AV-unprocessed.smi:1011|AV-procd|sdf|4419|dock10
  -GOLD-   22720 2363D 1   1.00000     0.00000
 Structure written by MMmdl.
 44 46  0  0  0  0  0  0  0  0  2 V2000
  151.1228  140.4207  158.6550 C   0  0  0  0  0  0  0  0  0  0  0  0
  150.9934  140.1972  157.1757 C   0  0  0  0  0  0  0  0  0  0  0  0
  151.6160  140.9293  156.1253 C   0  0  0  0  0  0  0  0  0  0  0  0
  151.2979  140.4753  154.9240 N   0  0  0  0  0  0  0  0  0  0  0  0
  150.4613  139.4427  155.1638 N   0  0  0  0  0  0  0  0  0  0  0  0
  149.9157  138.6804  154.0540 C   0  0  0  0  0  0  0  0  0  0  0  0
  148.3871  138.8130  153.9675 C   0  0  0  0  0  0  0  0  0  0  0  0
  147.9097  138.5872  152.5899 N   0  3  0  0  0  0  0  0  0  0  0  0
  146.4963  138.9420  152.3688 C   0  0  0  0  0  0  0  0  0  0  0  0
  145.8527  137.6152  152.1056 C   0  0  0  0  0  0  0  0  0  0  0  0
  146.2089  136.8578  151.0680 N   0  0  0  0  0  0  0  0  0  0  0  0
  145.3880  135.7545  151.2001 C   0  0  0  0  0  0  0  0  0  0  0  0
  145.2786  134.5908  150.4060 C   0  0  0  0  0  0  0  0  0  0  0  0
  144.3532  133.5808  150.7428 C   0  0  0  0  0  0  0  0  0  0  0  0
  144.2318  132.1670  149.7617 Cl  0  0  0  0  0  0  0  0  0  0  0  0
  143.5268  133.7206  151.8769 C   0  0  0  0  0  0  0  0  0  0  0  0
  143.6206  134.8718  152.6825 C   0  0  0  0  0  0  0  0  0  0  0  0
  144.5453  135.8765  152.3412 C   0  0  0  0  0  0  0  0  0  0  0  0
  144.8816  137.1029  152.9059 N   0  0  0  0  0  0  0  0  0  0  0  0
  144.2906  137.6788  154.1084 C   0  0  0  0  0  0  0  0  0  0  0  0
  142.7575  137.5674  154.1218 C   0  0  0  0  0  0  0  0  0  0  0  0
  142.1670  138.6052  153.3678 O   0  0  0  0  0  0  0  0  0  0  0  0
  150.2606  139.2527  156.5145 C   0  0  0  0  0  0  0  0  0  0  0  0
  151.1592  141.4822  158.9005 H   0  0  0  0  0  0  0  0  0  0  0  0
  152.0317  139.9675  159.0510 H   0  0  0  0  0  0  0  0  0  0  0  0
  150.2840  139.9937  159.2052 H   0  0  0  0  0  0  0  0  0  0  0  0
  152.2879  141.7717  156.2004 H   0  0  0  0  0  0  0  0  0  0  0  0
  150.3717  139.0465  153.1334 H   0  0  0  0  0  0  0  0  0  0  0  0
  150.2118  137.6351  154.1561 H   0  0  0  0  0  0  0  0  0  0  0  0
  147.9220  138.0939  154.6435 H   0  0  0  0  0  0  0  0  0  0  0  0
  148.0727  139.8054  154.2914 H   0  0  0  0  0  0  0  0  0  0  0  0
  148.4881  139.1046  151.9433 H   0  0  0  0  0  0  0  0  0  0  0  0
  146.0541  139.4219  153.2418 H   0  0  0  0  0  0  0  0  0  0  0  0
  146.3887  139.6060  151.5101 H   0  0  0  0  0  0  0  0  0  0  0  0
  145.9076  134.4756  149.5356 H   0  0  0  0  0  0  0  0  0  0  0  0
  142.8198  132.9434  152.1290 H   0  0  0  0  0  0  0  0  0  0  0  0
  142.9877  134.9807  153.5507 H   0  0  0  0  0  0  0  0  0  0  0  0
  144.7035  137.1566  154.9723 H   0  0  0  0  0  0  0  0  0  0  0  0
  144.5963  138.7192  154.2149 H   0  0  0  0  0  0  0  0  0  0  0  0
  142.4386  136.6073  153.7150 H   0  0  0  0  0  0  0  0  0  0  0  0
  142.3862  137.6213  155.1455 H   0  0  0  0  0  0  0  0  0  0  0  0
  142.8518  139.0741  152.9151 H   0  0  0  0  0  0  0  0  0  0  0  0
  149.6221  138.4666  156.8905 H   0  0  0  0  0  0  0  0  0  0  0  0
  148.0103  137.6019  152.3893 H   0  0  0  0  0  0  0  0  0  0  0  0
  1  2  1  0  0  0  0
  1 24  1  0  0  0  0
  1 25  1  0  0  0  0
  1 26  1  0  0  0  0
  2 23  2  0  0  0  0
  2  3  1  0  0  0  0
  3  4  2  0  0  0  0
  3 27  1  0  0  0  0
  4  5  1  0  0  0  0
  5  6  1  0  0  0  0
  5 23  1  0  0  0  0
  6  7  1  0  0  0  0
  6 28  1  0  0  0  0
  6 29  1  0  0  0  0
  7  8  1  0  0  0  0
  7 30  1  0  0  0  0
  7 31  1  0  0  0  0
  8  9  1  0  0  0  0
  8 32  1  0  0  0  0
  8 44  1  0  0  0  0
  9 10  1  0  0  0  0
  9 33  1  0  0  0  0
  9 34  1  0  0  0  0
 10 19  1  0  0  0  0
 10 11  2  0  0  0  0
 11 12  1  0  0  0  0
 12 18  2  0  0  0  0
 12 13  1  0  0  0  0
 13 14  2  0  0  0  0
 13 35  1  0  0  0  0
 14 15  1  0  0  0  0
 14 16  1  0  0  0  0
 16 17  2  0  0  0  0
 16 36  1  0  0  0  0
 17 18  1  0  0  0  0
 17 37  1  0  0  0  0
 18 19  1  0  0  0  0
 19 20  1  0  0  0  0
 20 21  1  0  0  0  0
 20 38  1  0  0  0  0
 20 39  1  0  0  0  0
 21 22  1  0  0  0  0
 21 40  1  0  0  0  0
 21 41  1  0  0  0  0
 22 42  1  0  0  0  0
 23 43  1  0  0  0  0
M  CHG  1   8   1
M  END
> <s_m_source_file>
AV-unprocessed.smi

> <i_m_source_file_index>
1011

> <i_lp_mmshare_version>
43012

> <i_f3d_flags>
0

> <s_epik_input>
W0NIM11jMVtjSF1ubihbY0hdMSlbQ0gyXVtDSDJdW05IXVtDSDJdYyhuMiluKFtDSDJdW0NIMl1bT0hdKWMoYzIzKVtjSF1bY0hdYyhDbClbY0hdMw==

> <s_epik_cmdline>
J2VwaWtfcHl0aG9uJywgJy1waCcsICc3LjAnLCAnLXRuJywgJzgnLCAnLW1hJywgJzIwMCcsICctbWV0YWxfYmluZGluZycsICctaW1hZScsICc8aW5maWxlLm1hZT4nLCAnLW9tYWUnLCAnPG91dGZpbGUubWFlPic=

> <r_lp_tautomer_probability>
1

> <r_epik_Ionization_Penalty>
0.234823

> <r_epik_Ionization_Penalty_Charging>
0.2345

> <r_epik_Ionization_Penalty_Neutral>
0.00032281

> <r_epik_State_Penalty>
0.238632

> <r_epik_Charging_Adjusted_Penalty>
0.473132

> <i_epik_Tot_Q>
1

> <i_epik_Tot_abs_Q>
1

> <r_epik_Metal_State_Penalty>
0.25397

> <b_epik_Metal_Only>
0

> <s_lp_Force_Field>
OPLS_2005

> <r_lp_Energy>
6.60255

> <b_lp_Chiralities_Consistent>
1

> <s_lp_Variant>
AV-unprocessed.smi:1011-1

> <Gold.Version>
5.8.1

> <Gold.Id.Protein>
6NUR|6NUR_protein|mol2

> <Gold.PLP.Fitness>
52.5225

> <Gold.PLP.PLP>
-39.1251

> <Gold.PLP.part.hbond>
-3.6051

> <Gold.PLP.part.metal>
0.0000

> <Gold.PLP.part.buried>
-3.1312

> <Gold.PLP.part.nonpolar>
-34.2684

> <Gold.PLP.part.repulsive>
1.9100

> <Gold.PLP.ligand.clash>
0.0000

> <Gold.PLP.ligand.torsion>
0.8498

> <Gold.PLP.Chemscore.Hbond>
5.0000

> <Gold.PLP.Chemscore.CHOScore>
0.0000

> <Gold.PLP.Chemscore.Metal>
0.0000

> <Gold.Chemscore.Hbonds>
donor molecule, donor type, donor heavy atom, donor atom, acceptor molecule, acceptor atom, score
      L1  H     8    32       P1  7957  1.00
      L1  H     8    44       P1  7948  2.00
      L1  H    22    42       P1 10175  1.00
      P1  H  7989  7998       L1     4  0.95

> <Gold.PLP.Chemscore.Internal.Correction>
0.0970

> <Gold.Rescore>
     Score         DG    S(hbond)    S(metal)    S(lipo)     H(rot)  DE(clash)    DE(int)     intcor
     19.05     -21.06       3.90        0.00      86.20       2.94       0.83       1.18       ----

> <Gold.Chemscore.Fitness>
19.0477

> <Gold.Chemscore.DG>
-21.0562

> <Gold.Chemscore.ZeroCoef>
-5.4800

> <Gold.Chemscore.Hbond>
3.8957

> <Gold.Chemscore.Metal>
0.0000

> <Gold.Chemscore.Lipo>
86.2014

> <Gold.Chemscore.Internal_Hbond>
0.0000

> <Gold.Chemscore.DEClash>
0.8290

> <Gold.Chemscore.DEInternal>
1.1794

> <Gold.Chemscore.Rot>
2.9378

> <Gold.Chemscore.Internal.Correction>
   9.000000E+99

> <Gold.Chemscore.Hbonds>
donor molecule, donor type, donor heavy atom, donor atom, acceptor molecule, acceptor atom, score
      L1  H     8    32       P1  7957  0.97
      L1  H     8    44       P1  7948  0.95
      L1  H    22    42       P1 10175  0.95
      P1  H  7954  7966       L1    11  0.02
      P1  H  7989  7998       L1     4  0.84

> <Gold.Chemscore.Hbond.Weighted>
-13.0115

> <Gold.Chemscore.Metal.Weighted>
-0.0000

> <Gold.Chemscore.Lipo.Weighted>
-10.0856

> <Gold.Chemscore.Internal_Hbond.Weighted>
0.0000

> <Gold.Chemscore.DEClash.Weighted>
0.8290

> <Gold.Chemscore.DEInternal.Weighted>
1.1794

> <Gold.Chemscore.Rot.Weighted>
7.5209

> <Gold.Chemscore.Internal.Correction.Weighted>
   9.000000E+99

> <Gold.Protein.RotatedTorsions>
[ 6907 6896 6895 6894 ] final   75.57 input  -60.11 | X-H torsion
[ 7974 7965 7964 7962 ] final  -23.53 input  175.53 | X-H torsion
[ 8008 7997 7996 7995 ] final   35.08 input   59.86 | X-H torsion
[ 10167 10162 10161 10158 ] final  170.41 input  -65.29 | X-H torsion
[ 10718 10713 10712 10709 ] final  107.18 input   66.30 | X-H torsion
[ 10763 10752 10751 10750 ] final -140.48 input  -60.55 | X-H torsion
[ 11005 11000 10999 10996 ] final -135.08 input  -57.11 | X-H torsion

> <Gold.Protein.ActiveResidues>
 VAL166  LYS551  ARG553  GLY616  TRP617  ASP618  TYR619  PRO620  LYS621  CYS622 
 ASP623  PHE694  ASN695  SER759  ASP760  ASP761  ALA762  ILE779  LEU786  VAL792 
 PHE793  MET794  SER795  GLU796  ALA797  LYS798  CYS799  TRP800  GLU811  SER814 

> <Gold.Protein.RotatedAtoms>
  152.5032  134.4100  159.9445 H   0  0  0  0  0  0  0  0  0  0  0  0  # atno 6907 bound_to 6896
  151.4068  133.3734  159.2747 H   0  0  0  0  0  0  0  0  0  0  0  0  # atno 6908 bound_to 6896
  150.9321  134.8757  159.7617 H   0  0  0  0  0  0  0  0  0  0  0  0  # atno 6909 bound_to 6896
  146.1610  140.4629  142.8571 H   0  0  0  0  0  0  0  0  0  0  0  0  # atno 7974 bound_to 7965
  155.1653  140.3287  155.4403 H   0  0  0  0  0  0  0  0  0  0  0  0  # atno 8008 bound_to 7997
  156.2529  140.1953  156.6709 H   0  0  0  0  0  0  0  0  0  0  0  0  # atno 8009 bound_to 7997
  154.6376  140.0574  156.9793 H   0  0  0  0  0  0  0  0  0  0  0  0  # atno 8010 bound_to 7997
  139.5018  144.3599  151.9835 H   0  0  0  0  0  0  0  0  0  0  0  0  # atno 10167 bound_to 10162
  157.6639  131.0867  150.6117 H   0  0  0  0  0  0  0  0  0  0  0  0  # atno 10718 bound_to 10713
  154.8577  135.3552  154.5713 H   0  0  0  0  0  0  0  0  0  0  0  0  # atno 10763 bound_to 10752
  153.6326  135.7001  153.5274 H   0  0  0  0  0  0  0  0  0  0  0  0  # atno 10764 bound_to 10752
  153.3037  135.4199  155.1234 H   0  0  0  0  0  0  0  0  0  0  0  0  # atno 10765 bound_to 10752
  140.8931  134.1787  157.4514 H   0  0  0  0  0  0  0  0  0  0  0  0  # atno 11005 bound_to 11000
  144.8027  140.6243  143.6467 LP  0  0  0  0  0  0  0  0  0  0  0  0  # atno 17320 bound_to 7965
  145.4587  139.1515  143.3878 LP  0  0  0  0  0  0  0  0  0  0  0  0  # atno 17321 bound_to 7965
  140.3036  144.3619  150.6053 LP  0  0  0  0  0  0  0  0  0  0  0  0  # atno 17342 bound_to 10162
  140.5854  143.2170  151.7351 LP  0  0  0  0  0  0  0  0  0  0  0  0  # atno 17343 bound_to 10162
  156.6419  130.4461  149.5749 LP  0  0  0  0  0  0  0  0  0  0  0  0  # atno 17370 bound_to 10713
  156.2203  130.6733  151.1361 LP  0  0  0  0  0  0  0  0  0  0  0  0  # atno 17371 bound_to 10713
  139.8732  134.9867  156.5334 LP  0  0  0  0  0  0  0  0  0  0  0  0  # atno 17394 bound_to 11000
  140.8323  133.8269  155.8995 LP  0  0  0  0  0  0  0  0  0  0  0  0  # atno 17395 bound_to 11000

$$$$
