AV-unprocessed.smi:2021|AV-procd|sdf|8177|dock2
  -GOLD-   2272010423D 1   1.00000     0.00000
 Structure written by MMmdl.
 42 43  0  0  0  0  0  0  0  0  2 V2000
  151.4298  140.4346  157.3280 C   0  0  0  0  0  0  0  0  0  0  0  0
  150.5637  141.4084  156.5114 C   0  0  0  0  0  0  0  0  0  0  0  0
  150.9775  142.8601  156.7956 C   0  0  0  0  0  0  0  0  0  0  0  0
  149.0564  141.2117  156.7857 C   0  0  0  0  0  0  0  0  0  0  0  0
  148.1852  142.0388  155.9061 N   0  3  1  0  0  0  0  0  0  0  0  0
  148.3252  141.7181  154.4649 C   0  0  0  0  0  0  0  0  0  0  0  0
  147.5564  140.4342  154.1056 C   0  0  0  0  0  0  0  0  0  0  0  0
  146.1916  140.5849  154.4734 O   0  0  0  0  0  0  0  0  0  0  0  0
  146.0148  140.7752  155.8741 C   0  0  2  0  0  0  0  0  0  0  0  0
  144.5080  140.8592  156.1777 C   0  0  0  0  0  0  0  0  0  0  0  0
  143.7076  140.2127  155.1430 N   0  0  0  0  0  0  0  0  0  0  0  0
  142.8051  139.2443  155.3558 C   0  0  0  0  0  0  0  0  0  0  0  0
  142.5437  138.7939  156.4714 O   0  0  0  0  0  0  0  0  0  0  0  0
  142.2399  138.8458  154.2027 N   0  0  0  0  0  0  0  0  0  0  0  0
  141.2555  137.8418  154.0050 C   0  0  0  0  0  0  0  0  0  0  0  0
  141.2552  136.6623  154.6456 N   0  0  0  0  0  0  0  0  0  0  0  0
  140.1827  135.8656  154.2659 N   0  0  0  0  0  0  0  0  0  0  0  0
  139.4174  136.4751  153.3559 C   0  0  0  0  0  0  0  0  0  0  0  0
  139.9309  138.0829  152.8749 S   0  0  0  0  0  0  0  0  0  0  0  0
  146.7498  142.0691  156.2901 C   0  0  0  0  0  0  0  0  0  0  0  0
  151.2804  140.5725  158.3993 H   0  0  0  0  0  0  0  0  0  0  0  0
  152.4896  140.5851  157.1198 H   0  0  0  0  0  0  0  0  0  0  0  0
  151.1985  139.3963  157.0895 H   0  0  0  0  0  0  0  0  0  0  0  0
  150.7645  141.2298  155.4557 H   0  0  0  0  0  0  0  0  0  0  0  0
  150.8190  143.1212  157.8425 H   0  0  0  0  0  0  0  0  0  0  0  0
  150.4033  143.5593  156.1872 H   0  0  0  0  0  0  0  0  0  0  0  0
  152.0322  143.0204  156.5695 H   0  0  0  0  0  0  0  0  0  0  0  0
  148.8215  140.1571  156.6331 H   0  0  0  0  0  0  0  0  0  0  0  0
  148.8320  141.4164  157.8324 H   0  0  0  0  0  0  0  0  0  0  0  0
  147.9224  142.5514  153.8874 H   0  0  0  0  0  0  0  0  0  0  0  0
  149.3762  141.6340  154.1864 H   0  0  0  0  0  0  0  0  0  0  0  0
  147.6120  140.2530  153.0322 H   0  0  0  0  0  0  0  0  0  0  0  0
  147.9876  139.5609  154.5971 H   0  0  0  0  0  0  0  0  0  0  0  0
  146.4286  139.9208  156.4118 H   0  0  0  0  0  0  0  0  0  0  0  0
  144.2949  140.3457  157.1155 H   0  0  0  0  0  0  0  0  0  0  0  0
  144.1983  141.8962  156.3194 H   0  0  0  0  0  0  0  0  0  0  0  0
  143.8592  140.5198  154.1934 H   0  0  0  0  0  0  0  0  0  0  0  0
  142.5581  139.3084  153.3641 H   0  0  0  0  0  0  0  0  0  0  0  0
  138.5442  135.9744  152.9649 H   0  0  0  0  0  0  0  0  0  0  0  0
  146.6315  142.2522  157.3570 H   0  0  0  0  0  0  0  0  0  0  0  0
  146.2883  142.9202  155.7875 H   0  0  0  0  0  0  0  0  0  0  0  0
  148.5313  142.9821  156.0114 H   0  0  0  0  0  0  0  0  0  0  0  0
  1  2  1  0  0  0  0
  1 21  1  0  0  0  0
  1 22  1  0  0  0  0
  1 23  1  0  0  0  0
  2  3  1  0  0  0  0
  2  4  1  0  0  0  0
  2 24  1  0  0  0  0
  3 25  1  0  0  0  0
  3 26  1  0  0  0  0
  3 27  1  0  0  0  0
  4  5  1  0  0  0  0
  4 28  1  0  0  0  0
  4 29  1  0  0  0  0
  5 20  1  0  0  0  0
  5  6  1  0  0  0  0
  5 42  1  0  0  0  0
  6  7  1  0  0  0  0
  6 30  1  0  0  0  0
  6 31  1  0  0  0  0
  7  8  1  0  0  0  0
  7 32  1  0  0  0  0
  7 33  1  0  0  0  0
  8  9  1  0  0  0  0
  9 10  1  0  0  0  0
  9 20  1  0  0  0  0
  9 34  1  0  0  0  0
 10 11  1  0  0  0  0
 10 35  1  0  0  0  0
 10 36  1  0  0  0  0
 11 12  1  0  0  0  0
 11 37  1  0  0  0  0
 12 13  2  0  0  0  0
 12 14  1  0  0  0  0
 14 15  1  0  0  0  0
 14 38  1  0  0  0  0
 15 19  1  0  0  0  0
 15 16  2  0  0  0  0
 16 17  1  0  0  0  0
 17 18  2  0  0  0  0
 18 19  1  0  0  0  0
 18 39  1  0  0  0  0
 20 40  1  0  0  0  0
 20 41  1  0  0  0  0
M  CHG  1   5   1
M  END
> <s_m_source_file>
AV-unprocessed.smi

> <i_m_source_file_index>
2021

> <i_lp_mmshare_version>
43012

> <i_f3d_flags>
0

> <s_epik_input>
W0NIM11bQ0hdKFtDSDNdKVtDSDJdTjFbQ0gyXVtDSDJdT1tDQEhdKFtDSDJdMSlbQ0gyXVtOSF1DKD1PKVtOSF1jMm5uW2NIXXMy

> <s_epik_cmdline>
J2VwaWtfcHl0aG9uJywgJy1waCcsICc3LjAnLCAnLXRuJywgJzgnLCAnLW1hJywgJzIwMCcsICctbWV0YWxfYmluZGluZycsICctaW1hZScsICc8aW5maWxlLm1hZT4nLCAnLW9tYWUnLCAnPG91dGZpbGUubWFlPic=

> <r_lp_tautomer_probability>
1

> <r_epik_Ionization_Penalty>
0.102019

> <r_epik_Ionization_Penalty_Charging>
0.098413

> <r_epik_Ionization_Penalty_Neutral>
0.00360555

> <r_epik_State_Penalty>
0.0884988

> <r_epik_Charging_Adjusted_Penalty>
0.186912

> <i_epik_Tot_Q>
1

> <i_epik_Tot_abs_Q>
1

> <r_epik_Metal_State_Penalty>
0.454709

> <b_epik_Metal_Only>
0

> <s_lp_Force_Field>
OPLS_2005

> <r_lp_Energy>
19.4379

> <b_lp_Chiralities_Consistent>
1

> <s_lp_Variant>
AV-unprocessed.smi:2021-3

> <Gold.Version>
5.8.1

> <Gold.Id.Protein>
6NUR|6NUR_protein|mol2

> <Gold.PLP.Fitness>
40.6250

> <Gold.PLP.PLP>
-25.9643

> <Gold.PLP.part.hbond>
-4.1613

> <Gold.PLP.part.metal>
0.0000

> <Gold.PLP.part.buried>
-1.9320

> <Gold.PLP.part.nonpolar>
-19.5233

> <Gold.PLP.part.repulsive>
0.3199

> <Gold.PLP.ligand.clash>
0.0000

> <Gold.PLP.ligand.torsion>
0.8882

> <Gold.PLP.Chemscore.Hbond>
5.0000

> <Gold.PLP.Chemscore.CHOScore>
0.4293

> <Gold.PLP.Chemscore.Metal>
0.0000

> <Gold.Chemscore.Hbonds>
donor molecule, donor type, donor heavy atom, donor atom, acceptor molecule, acceptor atom, score
      L1  H     5    42       P1  8028  2.00
      L1  H    11    37       P1 10175  1.00
      L1  H    14    38       P1 10175  1.00
      P1  H 11000 11005       L1    17  0.85
      L1  C    18    39       P1 10187  0.50

> <Gold.PLP.Chemscore.Internal.Correction>
0.1492

> <Gold.Rescore>
     Score         DG    S(hbond)    S(metal)    S(lipo)     H(rot)  DE(clash)    DE(int)     intcor
     18.90     -20.46       3.81        0.00      60.48       1.88       0.05       1.51       ----

> <Gold.Chemscore.Fitness>
18.8953

> <Gold.Chemscore.DG>
-20.4633

> <Gold.Chemscore.ZeroCoef>
-5.4800

> <Gold.Chemscore.Hbond>
3.8092

> <Gold.Chemscore.Metal>
0.0000

> <Gold.Chemscore.Lipo>
60.4818

> <Gold.Chemscore.Internal_Hbond>
0.0000

> <Gold.Chemscore.DEClash>
0.0546

> <Gold.Chemscore.DEInternal>
1.5134

> <Gold.Chemscore.Rot>
1.8812

> <Gold.Chemscore.Internal.Correction>
   9.000000E+99

> <Gold.Chemscore.Hbonds>
donor molecule, donor type, donor heavy atom, donor atom, acceptor molecule, acceptor atom, score
      L1  H     5    42       P1  8028  0.97
      L1  H    11    37       P1 10175  0.98
      L1  H    14    38       P1 10175  0.97
      P1  H 11000 11005       L1    17  0.18

> <Gold.Chemscore.Hbond.Weighted>
-12.7228

> <Gold.Chemscore.Metal.Weighted>
-0.0000

> <Gold.Chemscore.Lipo.Weighted>
-7.0764

> <Gold.Chemscore.Internal_Hbond.Weighted>
0.0000

> <Gold.Chemscore.DEClash.Weighted>
0.0546

> <Gold.Chemscore.DEInternal.Weighted>
1.5134

> <Gold.Chemscore.Rot.Weighted>
4.8159

> <Gold.Chemscore.Internal.Correction.Weighted>
   9.000000E+99

> <Gold.Protein.RotatedTorsions>
[ 6907 6896 6895 6894 ] final   52.21 input  -60.11 | X-H torsion
[ 7974 7965 7964 7962 ] final  120.50 input  175.53 | X-H torsion
[ 8008 7997 7996 7995 ] final -149.63 input   59.86 | X-H torsion
[ 10167 10162 10161 10158 ] final  -91.96 input  -65.29 | X-H torsion
[ 10718 10713 10712 10709 ] final   34.86 input   66.30 | X-H torsion
[ 10763 10752 10751 10750 ] final   89.89 input  -60.55 | X-H torsion
[ 11005 11000 10999 10996 ] final   69.07 input  -57.11 | X-H torsion

> <Gold.Protein.ActiveResidues>
 VAL166  LYS551  ARG553  GLY616  TRP617  ASP618  TYR619  PRO620  LYS621  CYS622 
 ASP623  PHE694  ASN695  SER759  ASP760  ASP761  ALA762  ILE779  LEU786  VAL792 
 PHE793  MET794  SER795  GLU796  ALA797  LYS798  CYS799  TRP800  GLU811  SER814 

> <Gold.Protein.RotatedAtoms>
  152.3209  134.7381  160.0313 H   0  0  0  0  0  0  0  0  0  0  0  0  # atno 6907 bound_to 6896
  151.7830  133.3346  159.3485 H   0  0  0  0  0  0  0  0  0  0  0  0  # atno 6908 bound_to 6896
  150.7369  134.5844  159.6000 H   0  0  0  0  0  0  0  0  0  0  0  0  # atno 6909 bound_to 6896
  145.1304  139.3331  143.4668 H   0  0  0  0  0  0  0  0  0  0  0  0  # atno 7974 bound_to 7965
  155.6107  140.0671  157.2707 H   0  0  0  0  0  0  0  0  0  0  0  0  # atno 8008 bound_to 7997
  154.4254  140.1802  156.1317 H   0  0  0  0  0  0  0  0  0  0  0  0  # atno 8009 bound_to 7997
  156.0087  140.3329  155.6922 H   0  0  0  0  0  0  0  0  0  0  0  0  # atno 8010 bound_to 7997
  140.3396  143.2949  151.9850 H   0  0  0  0  0  0  0  0  0  0  0  0  # atno 10167 bound_to 10162
  157.3156  130.7421  149.6752 H   0  0  0  0  0  0  0  0  0  0  0  0  # atno 10718 bound_to 10713
  153.1918  135.4454  155.0159 H   0  0  0  0  0  0  0  0  0  0  0  0  # atno 10763 bound_to 10752
  154.8095  135.3288  154.7346 H   0  0  0  0  0  0  0  0  0  0  0  0  # atno 10764 bound_to 10752
  153.7799  135.6978  153.4945 H   0  0  0  0  0  0  0  0  0  0  0  0  # atno 10765 bound_to 10752
  139.9675  134.6956  156.0515 H   0  0  0  0  0  0  0  0  0  0  0  0  # atno 11005 bound_to 11000
  146.3514  140.1300  142.8597 LP  0  0  0  0  0  0  0  0  0  0  0  0  # atno 17320 bound_to 7965
  145.0641  140.9109  143.4921 LP  0  0  0  0  0  0  0  0  0  0  0  0  # atno 17321 bound_to 7965
  139.4842  144.6168  151.7332 LP  0  0  0  0  0  0  0  0  0  0  0  0  # atno 17342 bound_to 10162
  140.5321  144.0713  150.6057 LP  0  0  0  0  0  0  0  0  0  0  0  0  # atno 17343 bound_to 10162
  155.9681  130.4238  150.4581 LP  0  0  0  0  0  0  0  0  0  0  0  0  # atno 17370 bound_to 10713
  157.2587  131.0562  151.2334 LP  0  0  0  0  0  0  0  0  0  0  0  0  # atno 17371 bound_to 10713
  141.1355  133.6576  156.3581 LP  0  0  0  0  0  0  0  0  0  0  0  0  # atno 17394 bound_to 11000
  140.5365  134.6162  157.5366 LP  0  0  0  0  0  0  0  0  0  0  0  0  # atno 17395 bound_to 11000

$$$$
