AV-unprocessed.smi:1830|AV-procd|sdf|7449|dock2
  -GOLD-   22720 9133D 1   1.00000     0.00000
 Structure written by MMmdl.
 54 57  0  0  0  0  0  0  0  0  3 V2000
  150.5260  136.4045  156.0807 O   0  0  0  0  0  0  0  0  0  0  0  0
  150.0645  136.4630  154.9416 C   0  0  0  0  0  0  0  0  0  0  0  0
  149.8943  137.6096  154.2693 N   0  0  0  0  0  0  0  0  0  0  0  0
  150.1982  138.9421  154.7834 C   0  0  0  0  0  0  0  0  0  0  0  0
  148.9514  139.8380  154.9257 C   0  0  1  0  0  0  0  0  0  0  0  0
  149.2830  141.2827  155.3568 C   0  0  0  0  0  0  0  0  0  0  0  0
  148.0838  142.1522  155.3417 N   0  3  2  0  0  0  0  0  0  0  0  0
  147.1824  142.0522  156.5110 C   0  0  0  0  0  0  0  0  0  0  0  0
  145.7706  142.3739  155.9954 C   0  0  0  0  0  0  0  0  0  0  0  0
  145.9439  142.7109  154.5104 C   0  0  0  0  0  0  0  0  0  0  0  0
  147.2593  142.0340  154.1220 C   0  0  2  0  0  0  0  0  0  0  0  0
  147.0585  140.5559  153.7182 C   0  0  0  0  0  0  0  0  0  0  0  0
  148.3096  139.8853  153.6573 O   0  0  0  0  0  0  0  0  0  0  0  0
  149.6899  135.4054  154.2031 N   0  0  0  0  0  0  0  0  0  0  0  0
  149.7879  134.0248  154.5372 C   0  0  0  0  0  0  0  0  0  0  0  0
  150.8025  133.5311  155.3969 C   0  0  0  0  0  0  0  0  0  0  0  0
  150.8343  132.1632  155.7294 C   0  0  0  0  0  0  0  0  0  0  0  0
  149.8450  131.3113  155.2072 C   0  0  0  0  0  0  0  0  0  0  0  0
  148.8844  131.8147  154.4047 N   0  3  0  0  0  0  0  0  0  0  0  0
  148.8028  133.1213  154.0511 C   0  0  0  0  0  0  0  0  0  0  0  0
  147.7649  133.5301  153.1862 N   0  0  0  0  0  0  0  0  0  0  0  0
  147.8090  132.9180  151.8605 C   0  0  0  0  0  0  0  0  0  0  0  0
  146.3557  132.6917  151.4380 C   0  0  0  0  0  0  0  0  0  0  0  0
  145.6245  132.5587  152.7682 C   0  0  0  0  0  0  0  0  0  0  0  0
  146.3813  133.5411  153.6599 C   0  0  0  0  0  0  0  0  0  0  0  0
  149.5074  137.5626  153.3377 H   0  0  0  0  0  0  0  0  0  0  0  0
  150.6779  138.8217  155.7552 H   0  0  0  0  0  0  0  0  0  0  0  0
  150.9336  139.4219  154.1358 H   0  0  0  0  0  0  0  0  0  0  0  0
  148.2722  139.3809  155.6468 H   0  0  0  0  0  0  0  0  0  0  0  0
  149.7391  141.3091  156.3472 H   0  0  0  0  0  0  0  0  0  0  0  0
  150.0117  141.7065  154.6648 H   0  0  0  0  0  0  0  0  0  0  0  0
  147.2024  141.0497  156.9401 H   0  0  0  0  0  0  0  0  0  0  0  0
  147.5022  142.7499  157.2853 H   0  0  0  0  0  0  0  0  0  0  0  0
  145.1274  141.5005  156.1099 H   0  0  0  0  0  0  0  0  0  0  0  0
  145.3082  143.1948  156.5442 H   0  0  0  0  0  0  0  0  0  0  0  0
  145.0982  142.3914  153.9003 H   0  0  0  0  0  0  0  0  0  0  0  0
  146.0432  143.7911  154.3941 H   0  0  0  0  0  0  0  0  0  0  0  0
  147.7475  142.5651  153.3038 H   0  0  0  0  0  0  0  0  0  0  0  0
  146.3996  140.0357  154.4156 H   0  0  0  0  0  0  0  0  0  0  0  0
  146.5805  140.4994  152.7401 H   0  0  0  0  0  0  0  0  0  0  0  0
  149.4032  135.6036  153.2555 H   0  0  0  0  0  0  0  0  0  0  0  0
  151.5501  134.1834  155.8224 H   0  0  0  0  0  0  0  0  0  0  0  0
  151.6032  131.7754  156.3818 H   0  0  0  0  0  0  0  0  0  0  0  0
  149.7899  130.2511  155.4082 H   0  0  0  0  0  0  0  0  0  0  0  0
  148.3310  133.5560  151.1467 H   0  0  0  0  0  0  0  0  0  0  0  0
  148.3377  131.9639  151.9054 H   0  0  0  0  0  0  0  0  0  0  0  0
  145.9851  133.5660  150.9009 H   0  0  0  0  0  0  0  0  0  0  0  0
  146.2317  131.8218  150.7925 H   0  0  0  0  0  0  0  0  0  0  0  0
  144.5598  132.7835  152.6965 H   0  0  0  0  0  0  0  0  0  0  0  0
  145.7335  131.5438  153.1535 H   0  0  0  0  0  0  0  0  0  0  0  0
  146.2572  133.3042  154.7162 H   0  0  0  0  0  0  0  0  0  0  0  0
  145.9901  134.5487  153.5158 H   0  0  0  0  0  0  0  0  0  0  0  0
  148.4177  143.1054  155.3547 H   0  0  0  0  0  0  0  0  0  0  0  0
  148.1797  131.1727  154.0411 H   0  0  0  0  0  0  0  0  0  0  0  0
  1  2  2  0  0  0  0
  2  3  1  0  0  0  0
  2 14  1  0  0  0  0
  3  4  1  0  0  0  0
  3 26  1  0  0  0  0
  4  5  1  0  0  0  0
  4 27  1  0  0  0  0
  4 28  1  0  0  0  0
  5 13  1  0  0  0  0
  5  6  1  0  0  0  0
  5 29  1  0  0  0  0
  6  7  1  0  0  0  0
  6 30  1  0  0  0  0
  6 31  1  0  0  0  0
  7 11  1  0  0  0  0
  7  8  1  0  0  0  0
  7 53  1  0  0  0  0
  8  9  1  0  0  0  0
  8 32  1  0  0  0  0
  8 33  1  0  0  0  0
  9 10  1  0  0  0  0
  9 34  1  0  0  0  0
  9 35  1  0  0  0  0
 10 11  1  0  0  0  0
 10 36  1  0  0  0  0
 10 37  1  0  0  0  0
 11 12  1  0  0  0  0
 11 38  1  0  0  0  0
 12 13  1  0  0  0  0
 12 39  1  0  0  0  0
 12 40  1  0  0  0  0
 14 15  1  0  0  0  0
 14 41  1  0  0  0  0
 15 20  1  0  0  0  0
 15 16  2  0  0  0  0
 16 17  1  0  0  0  0
 16 42  1  0  0  0  0
 17 18  2  0  0  0  0
 17 43  1  0  0  0  0
 18 19  1  0  0  0  0
 18 44  1  0  0  0  0
 19 20  2  0  0  0  0
 19 54  1  0  0  0  0
 20 21  1  0  0  0  0
 21 25  1  0  0  0  0
 21 22  1  0  0  0  0
 22 23  1  0  0  0  0
 22 45  1  0  0  0  0
 22 46  1  0  0  0  0
 23 24  1  0  0  0  0
 23 47  1  0  0  0  0
 23 48  1  0  0  0  0
 24 25  1  0  0  0  0
 24 49  1  0  0  0  0
 24 50  1  0  0  0  0
 25 51  1  0  0  0  0
 25 52  1  0  0  0  0
M  CHG  1   7   1
M  CHG  1  19   1
M  END
> <s_m_source_file>
AV-unprocessed.smi

> <i_m_source_file_index>
1830

> <i_lp_mmshare_version>
43012

> <i_f3d_flags>
0

> <s_epik_input>
W0NIMl0xW0NIMl1bQ0gyXVtDQEhdKE4xMilbQ0gyXU9bQ0BASF0oW0NIMl0yKVtDSDJdW05IXUMoPU8pW05IXWMzW2NIXVtjSF1bY0hdbmMzTjRbQ0gyXVtDSDJdW0NIMl1bQ0gyXTQ=

> <s_epik_cmdline>
J2VwaWtfcHl0aG9uJywgJy1waCcsICc3LjAnLCAnLXRuJywgJzgnLCAnLW1hJywgJzIwMCcsICctbWV0YWxfYmluZGluZycsICctaW1hZScsICc8aW5maWxlLm1hZT4nLCAnLW9tYWUnLCAnPG91dGZpbGUubWFlPic=

> <r_lp_tautomer_probability>
0.999994

> <r_epik_Ionization_Penalty>
1.29113

> <r_epik_Ionization_Penalty_Charging>
1.29111

> <r_epik_Ionization_Penalty_Neutral>
1.88144e-05

> <r_epik_State_Penalty>
1.32676

> <r_epik_Charging_Adjusted_Penalty>
2.61787

> <i_epik_Tot_Q>
2

> <i_epik_Tot_abs_Q>
2

> <r_epik_Metal_State_Penalty>
1.40425

> <b_epik_Metal_Only>
0

> <s_lp_Force_Field>
OPLS_2005

> <r_lp_Energy>
74.6229

> <b_lp_Chiralities_Consistent>
1

> <s_lp_Variant>
AV-unprocessed.smi:1830-18

> <Gold.Version>
5.8.1

> <Gold.Id.Protein>
6NUR|6NUR_protein|mol2

> <Gold.PLP.Fitness>
48.1087

> <Gold.PLP.PLP>
-36.8784

> <Gold.PLP.part.hbond>
-3.2913

> <Gold.PLP.part.metal>
0.0000

> <Gold.PLP.part.buried>
-4.4875

> <Gold.PLP.part.nonpolar>
-32.2766

> <Gold.PLP.part.repulsive>
3.0546

> <Gold.PLP.ligand.clash>
0.0000

> <Gold.PLP.ligand.torsion>
0.3062

> <Gold.PLP.Chemscore.Hbond>
3.8882

> <Gold.PLP.Chemscore.CHOScore>
0.0000

> <Gold.PLP.Chemscore.Metal>
0.0000

> <Gold.Chemscore.Hbonds>
donor molecule, donor type, donor heavy atom, donor atom, acceptor molecule, acceptor atom, score
      L1  H     3    26       P1  7948  0.84
      L1  H     7    53       P1  8028  2.00
      L1  H    14    41       P1  7948  0.90

> <Gold.PLP.Chemscore.Internal.Correction>
0.1782

> <Gold.Rescore>
     Score         DG    S(hbond)    S(metal)    S(lipo)     H(rot)  DE(clash)    DE(int)     intcor
     17.87     -19.55       2.64        0.00      76.17       1.43       0.21       1.47       ----

> <Gold.Chemscore.Fitness>
17.8743

> <Gold.Chemscore.DG>
-19.5507

> <Gold.Chemscore.ZeroCoef>
-5.4800

> <Gold.Chemscore.Hbond>
2.6388

> <Gold.Chemscore.Metal>
0.0000

> <Gold.Chemscore.Lipo>
76.1733

> <Gold.Chemscore.Internal_Hbond>
0.0000

> <Gold.Chemscore.DEClash>
0.2090

> <Gold.Chemscore.DEInternal>
1.4674

> <Gold.Chemscore.Rot>
1.4278

> <Gold.Chemscore.Internal.Correction>
   9.000000E+99

> <Gold.Chemscore.Hbonds>
donor molecule, donor type, donor heavy atom, donor atom, acceptor molecule, acceptor atom, score
      L1  H     3    26       P1  7948  0.72
      L1  H     7    53       P1  8028  0.99
      L1  H    14    41       P1  7948  0.17

> <Gold.Chemscore.Hbond.Weighted>
-8.8135

> <Gold.Chemscore.Metal.Weighted>
-0.0000

> <Gold.Chemscore.Lipo.Weighted>
-8.9123

> <Gold.Chemscore.Internal_Hbond.Weighted>
0.0000

> <Gold.Chemscore.DEClash.Weighted>
0.2090

> <Gold.Chemscore.DEInternal.Weighted>
1.4674

> <Gold.Chemscore.Rot.Weighted>
3.6551

> <Gold.Chemscore.Internal.Correction.Weighted>
   9.000000E+99

> <Gold.Protein.RotatedTorsions>
[ 6907 6896 6895 6894 ] final  -83.22 input  -60.11 | X-H torsion
[ 7974 7965 7964 7962 ] final   56.14 input  175.53 | X-H torsion
[ 8008 7997 7996 7995 ] final  149.82 input   59.86 | X-H torsion
[ 10167 10162 10161 10158 ] final  121.23 input  -65.29 | X-H torsion
[ 10718 10713 10712 10709 ] final  -22.97 input   66.30 | X-H torsion
[ 10763 10752 10751 10750 ] final   21.48 input  -60.55 | X-H torsion
[ 11005 11000 10999 10996 ] final  -50.32 input  -57.11 | X-H torsion

> <Gold.Protein.ActiveResidues>
 VAL166  LYS551  ARG553  GLY616  TRP617  ASP618  TYR619  PRO620  LYS621  CYS622 
 ASP623  PHE694  ASN695  SER759  ASP760  ASP761  ALA762  ILE779  LEU786  VAL792 
 PHE793  MET794  SER795  GLU796  ALA797  LYS798  CYS799  TRP800  GLU811  SER814 

> <Gold.Protein.RotatedAtoms>
  150.6888  134.3546  159.4923 H   0  0  0  0  0  0  0  0  0  0  0  0  # atno 6907 bound_to 6896
  152.1383  134.9080  160.0564 H   0  0  0  0  0  0  0  0  0  0  0  0  # atno 6908 bound_to 6896
  152.0223  133.3869  159.4300 H   0  0  0  0  0  0  0  0  0  0  0  0  # atno 6909 bound_to 6896
  145.9430  139.3905  143.0352 H   0  0  0  0  0  0  0  0  0  0  0  0  # atno 7974 bound_to 7965
  156.2740  140.2091  156.5919 H   0  0  0  0  0  0  0  0  0  0  0  0  # atno 8008 bound_to 7997
  154.6976  140.0524  157.0449 H   0  0  0  0  0  0  0  0  0  0  0  0  # atno 8009 bound_to 7997
  155.0780  140.3183  155.4613 H   0  0  0  0  0  0  0  0  0  0  0  0  # atno 8010 bound_to 7997
  139.5932  144.7033  151.3238 H   0  0  0  0  0  0  0  0  0  0  0  0  # atno 10167 bound_to 10162
  156.4974  130.4580  149.6721 H   0  0  0  0  0  0  0  0  0  0  0  0  # atno 10718 bound_to 10713
  153.0992  135.6668  153.9706 H   0  0  0  0  0  0  0  0  0  0  0  0  # atno 10763 bound_to 10752
  153.9281  135.3007  155.3447 H   0  0  0  0  0  0  0  0  0  0  0  0  # atno 10764 bound_to 10752
  154.7412  135.5079  153.9200 H   0  0  0  0  0  0  0  0  0  0  0  0  # atno 10765 bound_to 10752
  141.0809  133.6653  156.3714 H   0  0  0  0  0  0  0  0  0  0  0  0  # atno 11005 bound_to 11000
  145.8274  140.9648  143.0867 LP  0  0  0  0  0  0  0  0  0  0  0  0  # atno 17320 bound_to 7965
  144.6782  140.0119  143.7484 LP  0  0  0  0  0  0  0  0  0  0  0  0  # atno 17321 bound_to 7965
  140.7191  143.7186  150.7713 LP  0  0  0  0  0  0  0  0  0  0  0  0  # atno 17342 bound_to 10162
  140.0746  143.5027  152.2562 LP  0  0  0  0  0  0  0  0  0  0  0  0  # atno 17343 bound_to 10162
  156.3367  130.7360  151.2298 LP  0  0  0  0  0  0  0  0  0  0  0  0  # atno 17370 bound_to 10713
  157.7467  131.0415  150.4649 LP  0  0  0  0  0  0  0  0  0  0  0  0  # atno 17371 bound_to 10713
  140.5470  134.6065  157.5396 LP  0  0  0  0  0  0  0  0  0  0  0  0  # atno 17394 bound_to 11000
  139.9623  134.7431  156.0210 LP  0  0  0  0  0  0  0  0  0  0  0  0  # atno 17395 bound_to 11000

$$$$
