AV-unprocessed.smi:2007|AV-procd|sdf|8133|dock10
  -GOLD-   2272010363D 1   1.00000     0.00000
 Structure written by MMmdl.
 36 37  0  0  0  0  0  0  0  0  1 V2000
  147.1257  141.5293  154.3091 C   0  0  0  0  0  0  0  0  0  0  0  0
  147.2298  140.0159  154.5409 C   0  0  2  0  0  0  0  0  0  0  0  0
  148.5544  139.4575  153.9750 C   0  0  0  0  0  0  0  0  0  0  0  0
  149.7003  139.5001  154.8845 N   0  0  0  0  0  0  0  0  0  0  0  0
  150.8554  138.8169  154.3142 C   0  0  0  0  0  0  0  0  0  0  0  0
  152.0611  138.8377  155.2698 C   0  0  0  0  0  0  0  0  0  0  0  0
  152.3847  140.1844  155.5999 O   0  0  0  0  0  0  0  0  0  0  0  0
  151.2949  140.8807  156.1961 C   0  0  0  0  0  0  0  0  0  0  0  0
  150.0871  140.8631  155.2435 C   0  0  0  0  0  0  0  0  0  0  0  0
  146.0890  139.3591  153.9044 N   0  0  0  0  0  0  0  0  0  0  0  0
  145.9462  138.0376  153.7222 C   0  0  0  0  0  0  0  0  0  0  0  0
  146.7621  137.2025  154.1131 O   0  0  0  0  0  0  0  0  0  0  0  0
  144.8087  137.7592  153.0616 N   0  0  0  0  0  0  0  0  0  0  0  0
  144.3352  136.4940  152.6257 C   0  0  0  0  0  0  0  0  0  0  0  0
  143.5117  135.7112  153.3328 N   0  0  0  0  0  0  0  0  0  0  0  0
  143.2185  134.5194  152.6656 C   0  0  0  0  0  0  0  0  0  0  0  0
  143.8310  134.4106  151.4418 C   0  0  0  0  0  0  0  0  0  0  0  0
  144.8071  135.8087  151.0775 S   0  0  0  0  0  0  0  0  0  0  0  0
  147.9484  142.0563  154.7929 H   0  0  0  0  0  0  0  0  0  0  0  0
  146.1961  141.9264  154.7182 H   0  0  0  0  0  0  0  0  0  0  0  0
  147.1540  141.7732  153.2465 H   0  0  0  0  0  0  0  0  0  0  0  0
  147.1953  139.8631  155.6199 H   0  0  0  0  0  0  0  0  0  0  0  0
  148.3767  138.4223  153.6794 H   0  0  0  0  0  0  0  0  0  0  0  0
  148.8065  139.9865  153.0546 H   0  0  0  0  0  0  0  0  0  0  0  0
  150.5978  137.7822  154.0849 H   0  0  0  0  0  0  0  0  0  0  0  0
  151.1345  139.2861  153.3695 H   0  0  0  0  0  0  0  0  0  0  0  0
  151.8427  138.2756  156.1792 H   0  0  0  0  0  0  0  0  0  0  0  0
  152.9256  138.3672  154.8014 H   0  0  0  0  0  0  0  0  0  0  0  0
  151.0379  140.4207  157.1519 H   0  0  0  0  0  0  0  0  0  0  0  0
  151.5984  141.9064  156.4054 H   0  0  0  0  0  0  0  0  0  0  0  0
  150.3294  141.4287  154.3425 H   0  0  0  0  0  0  0  0  0  0  0  0
  149.2593  141.3826  155.7237 H   0  0  0  0  0  0  0  0  0  0  0  0
  145.3636  139.9644  153.5493 H   0  0  0  0  0  0  0  0  0  0  0  0
  144.2250  138.5466  152.8211 H   0  0  0  0  0  0  0  0  0  0  0  0
  142.5629  133.8019  153.1364 H   0  0  0  0  0  0  0  0  0  0  0  0
  143.7682  133.5954  150.7366 H   0  0  0  0  0  0  0  0  0  0  0  0
  1  2  1  0  0  0  0
  1 19  1  0  0  0  0
  1 20  1  0  0  0  0
  1 21  1  0  0  0  0
  2  3  1  0  0  0  0
  2 10  1  0  0  0  0
  2 22  1  0  0  0  0
  3  4  1  0  0  0  0
  3 23  1  0  0  0  0
  3 24  1  0  0  0  0
  4  9  1  0  0  0  0
  4  5  1  0  0  0  0
  5  6  1  0  0  0  0
  5 25  1  0  0  0  0
  5 26  1  0  0  0  0
  6  7  1  0  0  0  0
  6 27  1  0  0  0  0
  6 28  1  0  0  0  0
  7  8  1  0  0  0  0
  8  9  1  0  0  0  0
  8 29  1  0  0  0  0
  8 30  1  0  0  0  0
  9 31  1  0  0  0  0
  9 32  1  0  0  0  0
 10 11  1  0  0  0  0
 10 33  1  0  0  0  0
 11 12  2  0  0  0  0
 11 13  1  0  0  0  0
 13 14  1  0  0  0  0
 13 34  1  0  0  0  0
 14 18  1  0  0  0  0
 14 15  2  0  0  0  0
 15 16  1  0  0  0  0
 16 17  2  0  0  0  0
 16 35  1  0  0  0  0
 17 18  1  0  0  0  0
 17 36  1  0  0  0  0
M  END
> <s_m_source_file>
AV-unprocessed.smi

> <i_m_source_file_index>
2007

> <i_lp_mmshare_version>
43012

> <i_f3d_flags>
0

> <s_epik_input>
W0NIMl0xW0NIMl1PW0NIMl1bQ0gyXU4xW0NIMl1bQ0BASF0oW0NIM10pW05IXUMoPU8pW05IXWMybltjSF1bY0hdczI=

> <s_epik_cmdline>
J2VwaWtfcHl0aG9uJywgJy1waCcsICc3LjAnLCAnLXRuJywgJzgnLCAnLW1hJywgJzIwMCcsICctbWV0YWxfYmluZGluZycsICctaW1hZScsICc8aW5maWxlLm1hZT4nLCAnLW9tYWUnLCAnPG91dGZpbGUubWFlPic=

> <r_lp_tautomer_probability>
0.999

> <r_epik_Ionization_Penalty>
0.219197

> <r_epik_Ionization_Penalty_Charging>
0

> <r_epik_Ionization_Penalty_Neutral>
0.219197

> <r_epik_State_Penalty>
0.209349

> <r_epik_Charging_Adjusted_Penalty>
0.209349

> <i_epik_Tot_Q>
0

> <i_epik_Tot_abs_Q>
0

> <r_epik_Metal_State_Penalty>
0.254604

> <b_epik_Metal_Only>
0

> <s_lp_Force_Field>
OPLS_2005

> <r_lp_Energy>
23.8142

> <b_lp_Chiralities_Consistent>
1

> <s_lp_Variant>
AV-unprocessed.smi:2007-1

> <Gold.Version>
5.8.1

> <Gold.Id.Protein>
6NUR|6NUR_protein|mol2

> <Gold.PLP.Fitness>
37.7203

> <Gold.PLP.PLP>
-28.1213

> <Gold.PLP.part.hbond>
-3.8310

> <Gold.PLP.part.metal>
0.0000

> <Gold.PLP.part.buried>
-1.7297

> <Gold.PLP.part.nonpolar>
-23.6360

> <Gold.PLP.part.repulsive>
0.2512

> <Gold.PLP.ligand.clash>
0.0000

> <Gold.PLP.ligand.torsion>
1.2212

> <Gold.PLP.Chemscore.Hbond>
3.0087

> <Gold.PLP.Chemscore.CHOScore>
0.9949

> <Gold.PLP.Chemscore.Metal>
0.0000

> <Gold.Chemscore.Hbonds>
donor molecule, donor type, donor heavy atom, donor atom, acceptor molecule, acceptor atom, score
      L1  H    10    33       P1 10175  0.93
      L1  H    13    34       P1 10175  1.00
      P1  H  7989  7998       L1     7  0.04
      P1  H  7997  8009       L1     7  0.98
      L1  C    16    35       P1 10957  0.80

> <Gold.PLP.Chemscore.Internal.Correction>
0.0305

> <Gold.Rescore>
     Score         DG    S(hbond)    S(metal)    S(lipo)     H(rot)  DE(clash)    DE(int)     intcor
     15.14     -17.95       2.78        0.00      61.76       1.58       0.33       2.47       ----

> <Gold.Chemscore.Fitness>
15.1449

> <Gold.Chemscore.DG>
-17.9464

> <Gold.Chemscore.ZeroCoef>
-5.4800

> <Gold.Chemscore.Hbond>
2.7818

> <Gold.Chemscore.Metal>
0.0000

> <Gold.Chemscore.Lipo>
61.7639

> <Gold.Chemscore.Internal_Hbond>
0.0000

> <Gold.Chemscore.DEClash>
0.3287

> <Gold.Chemscore.DEInternal>
2.4729

> <Gold.Chemscore.Rot>
1.5825

> <Gold.Chemscore.Internal.Correction>
   9.000000E+99

> <Gold.Chemscore.Hbonds>
donor molecule, donor type, donor heavy atom, donor atom, acceptor molecule, acceptor atom, score
      L1  H    10    33       P1 10175  0.88
      L1  H    13    34       P1 10175  0.95
      P1  H  7997  8009       L1     7  0.50

> <Gold.Chemscore.Hbond.Weighted>
-9.2913

> <Gold.Chemscore.Metal.Weighted>
-0.0000

> <Gold.Chemscore.Lipo.Weighted>
-7.2264

> <Gold.Chemscore.Internal_Hbond.Weighted>
0.0000

> <Gold.Chemscore.DEClash.Weighted>
0.3287

> <Gold.Chemscore.DEInternal.Weighted>
2.4729

> <Gold.Chemscore.Rot.Weighted>
4.0512

> <Gold.Chemscore.Internal.Correction.Weighted>
   9.000000E+99

> <Gold.Protein.RotatedTorsions>
[ 6907 6896 6895 6894 ] final -109.29 input  -60.11 | X-H torsion
[ 7974 7965 7964 7962 ] final   -6.07 input  175.53 | X-H torsion
[ 8008 7997 7996 7995 ] final -151.98 input   59.86 | X-H torsion
[ 10167 10162 10161 10158 ] final  155.55 input  -65.29 | X-H torsion
[ 10718 10713 10712 10709 ] final    2.70 input   66.30 | X-H torsion
[ 10763 10752 10751 10750 ] final  -37.92 input  -60.55 | X-H torsion
[ 11005 11000 10999 10996 ] final   39.29 input  -57.11 | X-H torsion

> <Gold.Protein.ActiveResidues>
 VAL166  LYS551  ARG553  GLY616  TRP617  ASP618  TYR619  PRO620  LYS621  CYS622 
 ASP623  PHE694  ASN695  SER759  ASP760  ASP761  ALA762  ILE779  LEU786  VAL792 
 PHE793  MET794  SER795  GLU796  ALA797  LYS798  CYS799  TRP800  GLU811  SER814 

> <Gold.Protein.RotatedAtoms>
  150.7553  133.9550  159.3497 H   0  0  0  0  0  0  0  0  0  0  0  0  # atno 6907 bound_to 6896
  151.7471  135.0839  160.0334 H   0  0  0  0  0  0  0  0  0  0  0  0  # atno 6908 bound_to 6896
  152.3490  133.6120  159.5967 H   0  0  0  0  0  0  0  0  0  0  0  0  # atno 6909 bound_to 6896
  146.2339  140.2116  142.8335 H   0  0  0  0  0  0  0  0  0  0  0  0  # atno 7974 bound_to 7965
  155.6479  140.0709  157.2597 H   0  0  0  0  0  0  0  0  0  0  0  0  # atno 8008 bound_to 7997
  154.4169  140.1738  156.1693 H   0  0  0  0  0  0  0  0  0  0  0  0  # atno 8009 bound_to 7997
  155.9801  140.3354  155.6658 H   0  0  0  0  0  0  0  0  0  0  0  0  # atno 8010 bound_to 7997
  139.4821  144.5088  151.8056 H   0  0  0  0  0  0  0  0  0  0  0  0  # atno 10167 bound_to 10162
  156.8669  130.5606  149.5659 H   0  0  0  0  0  0  0  0  0  0  0  0  # atno 10718 bound_to 10713
  153.9043  135.6799  153.4754 H   0  0  0  0  0  0  0  0  0  0  0  0  # atno 10763 bound_to 10752
  153.1112  135.4782  154.9036 H   0  0  0  0  0  0  0  0  0  0  0  0  # atno 10764 bound_to 10752
  154.7559  135.3197  154.8425 H   0  0  0  0  0  0  0  0  0  0  0  0  # atno 10765 bound_to 10752
  140.2043  134.3832  155.8080 H   0  0  0  0  0  0  0  0  0  0  0  0  # atno 11005 bound_to 11000
  144.9702  140.8361  143.5460 LP  0  0  0  0  0  0  0  0  0  0  0  0  # atno 17320 bound_to 7965
  145.2097  139.2211  143.5149 LP  0  0  0  0  0  0  0  0  0  0  0  0  # atno 17321 bound_to 7965
  140.4589  144.1750  150.5904 LP  0  0  0  0  0  0  0  0  0  0  0  0  # atno 17342 bound_to 10162
  140.4506  143.2488  151.9353 LP  0  0  0  0  0  0  0  0  0  0  0  0  # atno 17343 bound_to 10162
  156.0747  130.5772  150.9451 LP  0  0  0  0  0  0  0  0  0  0  0  0  # atno 17370 bound_to 10713
  157.6218  131.0929  150.8608 LP  0  0  0  0  0  0  0  0  0  0  0  0  # atno 17371 bound_to 10713
  141.2227  133.7110  156.8310 LP  0  0  0  0  0  0  0  0  0  0  0  0  # atno 17394 bound_to 11000
  140.2020  134.8890  157.3179 LP  0  0  0  0  0  0  0  0  0  0  0  0  # atno 17395 bound_to 11000

$$$$
