AV-unprocessed.smi:1947|AV-procd|sdf|7866|dock9
  -GOLD-   2272010 13D 1   1.00000     0.00000
 Structure written by MMmdl.
 39 40  0  0  0  0  0  0  0  0  1 V2000
  148.1808  139.9381  154.1864 C   0  0  0  0  0  0  0  0  0  0  0  0
  149.6674  140.0654  154.5556 C   0  0  1  0  0  0  0  0  0  0  0  0
  149.8584  140.6027  155.9878 C   0  0  0  0  0  0  0  0  0  0  0  0
  151.3473  140.7580  156.3363 C   0  0  0  0  0  0  0  0  0  0  0  0
  152.1049  139.4349  156.1478 C   0  0  0  0  0  0  0  0  0  0  0  0
  151.9203  138.8827  154.7242 C   0  0  0  0  0  0  0  0  0  0  0  0
  150.4328  138.7386  154.3522 C   0  0  1  0  0  0  0  0  0  0  0  0
  149.8564  137.7392  155.1842 O   0  0  0  0  0  0  0  0  0  0  0  0
  149.9263  136.4258  154.6527 C   0  0  0  0  0  0  0  0  0  0  0  0
  149.9478  135.4226  155.8154 C   0  0  0  0  0  0  0  0  0  0  0  0
  149.3580  135.9893  157.0239 N   0  0  0  0  0  0  0  0  0  0  0  0
  149.0527  135.2994  158.1316 C   0  0  0  0  0  0  0  0  0  0  0  0
  149.2901  134.0997  158.2703 O   0  0  0  0  0  0  0  0  0  0  0  0
  148.4557  136.0846  159.0425 N   0  0  0  0  0  0  0  0  0  0  0  0
  147.9399  135.7131  160.3089 C   0  0  0  0  0  0  0  0  0  0  0  0
  147.5664  136.6881  161.1460 N   0  0  0  0  0  0  0  0  0  0  0  0
  147.0787  136.1855  162.3463 N   0  0  0  0  0  0  0  0  0  0  0  0
  147.1017  134.8494  162.3664 C   0  0  0  0  0  0  0  0  0  0  0  0
  147.7211  134.0708  160.9210 S   0  0  0  0  0  0  0  0  0  0  0  0
  147.6592  139.2562  154.8580 H   0  0  0  0  0  0  0  0  0  0  0  0
  148.0588  139.5617  153.1705 H   0  0  0  0  0  0  0  0  0  0  0  0
  147.6787  140.9042  154.2428 H   0  0  0  0  0  0  0  0  0  0  0  0
  150.1015  140.7967  153.8722 H   0  0  0  0  0  0  0  0  0  0  0  0
  149.3568  141.5649  156.0950 H   0  0  0  0  0  0  0  0  0  0  0  0
  149.3850  139.9287  156.7034 H   0  0  0  0  0  0  0  0  0  0  0  0
  151.7926  141.5272  155.7039 H   0  0  0  0  0  0  0  0  0  0  0  0
  151.4539  141.1036  157.3649 H   0  0  0  0  0  0  0  0  0  0  0  0
  153.1653  139.5815  156.3543 H   0  0  0  0  0  0  0  0  0  0  0  0
  151.7482  138.7037  156.8741 H   0  0  0  0  0  0  0  0  0  0  0  0
  152.4055  139.5532  154.0137 H   0  0  0  0  0  0  0  0  0  0  0  0
  152.4239  137.9201  154.6297 H   0  0  0  0  0  0  0  0  0  0  0  0
  150.3674  138.4584  153.2988 H   0  0  0  0  0  0  0  0  0  0  0  0
  149.0708  136.2325  154.0034 H   0  0  0  0  0  0  0  0  0  0  0  0
  150.8270  136.3209  154.0464 H   0  0  0  0  0  0  0  0  0  0  0  0
  149.4216  134.5083  155.5374 H   0  0  0  0  0  0  0  0  0  0  0  0
  150.9762  135.1364  156.0378 H   0  0  0  0  0  0  0  0  0  0  0  0
  149.1262  136.9714  156.9954 H   0  0  0  0  0  0  0  0  0  0  0  0
  148.3370  137.0556  158.7936 H   0  0  0  0  0  0  0  0  0  0  0  0
  146.7508  134.3187  163.2389 H   0  0  0  0  0  0  0  0  0  0  0  0
  1  2  1  0  0  0  0
  1 20  1  0  0  0  0
  1 21  1  0  0  0  0
  1 22  1  0  0  0  0
  2  7  1  0  0  0  0
  2  3  1  0  0  0  0
  2 23  1  0  0  0  0
  3  4  1  0  0  0  0
  3 24  1  0  0  0  0
  3 25  1  0  0  0  0
  4  5  1  0  0  0  0
  4 26  1  0  0  0  0
  4 27  1  0  0  0  0
  5  6  1  0  0  0  0
  5 28  1  0  0  0  0
  5 29  1  0  0  0  0
  6  7  1  0  0  0  0
  6 30  1  0  0  0  0
  6 31  1  0  0  0  0
  7  8  1  0  0  0  0
  7 32  1  0  0  0  0
  8  9  1  0  0  0  0
  9 10  1  0  0  0  0
  9 33  1  0  0  0  0
  9 34  1  0  0  0  0
 10 11  1  0  0  0  0
 10 35  1  0  0  0  0
 10 36  1  0  0  0  0
 11 12  1  0  0  0  0
 11 37  1  0  0  0  0
 12 13  2  0  0  0  0
 12 14  1  0  0  0  0
 14 15  1  0  0  0  0
 14 38  1  0  0  0  0
 15 19  1  0  0  0  0
 15 16  2  0  0  0  0
 16 17  1  0  0  0  0
 17 18  2  0  0  0  0
 18 19  1  0  0  0  0
 18 39  1  0  0  0  0
M  END
> <s_m_source_file>
AV-unprocessed.smi

> <i_m_source_file_index>
1947

> <i_lp_mmshare_version>
43012

> <i_f3d_flags>
0

> <s_epik_input>
W0NIM11bQ0BASF0xW0NIMl1bQ0gyXVtDSDJdW0NIMl1bQ0BIXTFPW0NIMl1bQ0gyXVtOSF1DKD1PKVtOSF1jMm5uW2NIXXMy

> <s_epik_cmdline>
J2VwaWtfcHl0aG9uJywgJy1waCcsICc3LjAnLCAnLXRuJywgJzgnLCAnLW1hJywgJzIwMCcsICctbWV0YWxfYmluZGluZycsICctaW1hZScsICc8aW5maWxlLm1hZT4nLCAnLW9tYWUnLCAnPG91dGZpbGUubWFlPic=

> <r_lp_tautomer_probability>
1

> <r_epik_Ionization_Penalty>
0.00220897

> <r_epik_Ionization_Penalty_Charging>
0

> <r_epik_Ionization_Penalty_Neutral>
0.00220897

> <r_epik_State_Penalty>
-0

> <r_epik_Charging_Adjusted_Penalty>
0

> <i_epik_Tot_Q>
0

> <i_epik_Tot_abs_Q>
0

> <r_epik_Metal_State_Penalty>
0.345002

> <b_epik_Metal_Only>
0

> <s_lp_Force_Field>
OPLS_2005

> <r_lp_Energy>
8.88806

> <b_lp_Chiralities_Consistent>
1

> <s_lp_Variant>
AV-unprocessed.smi:1947-2

> <Gold.Version>
5.8.1

> <Gold.Id.Protein>
6NUR|6NUR_protein|mol2

> <Gold.PLP.Fitness>
39.0049

> <Gold.PLP.PLP>
-32.1774

> <Gold.PLP.part.hbond>
-3.0000

> <Gold.PLP.part.metal>
0.0000

> <Gold.PLP.part.buried>
-2.4585

> <Gold.PLP.part.nonpolar>
-26.9394

> <Gold.PLP.part.repulsive>
0.3030

> <Gold.PLP.ligand.clash>
0.0000

> <Gold.PLP.ligand.torsion>
0.8830

> <Gold.PLP.Chemscore.Hbond>
2.8560

> <Gold.PLP.Chemscore.CHOScore>
0.0000

> <Gold.PLP.Chemscore.Metal>
0.0000

> <Gold.Chemscore.Hbonds>
donor molecule, donor type, donor heavy atom, donor atom, acceptor molecule, acceptor atom, score
      P1  H  6896  6909       L1    13  1.00
      P1  H  6931  6943       L1    16  0.39
      P1  H  6934  6947       L1    16  0.14

> <Gold.PLP.Chemscore.Internal.Correction>
0.0256

> <Gold.Rescore>
     Score         DG    S(hbond)    S(metal)    S(lipo)     H(rot)  DE(clash)    DE(int)     intcor
     15.53     -16.45       2.26        0.00      71.77       1.94       0.00       0.92       ----

> <Gold.Chemscore.Fitness>
15.5346

> <Gold.Chemscore.DG>
-16.4499

> <Gold.Chemscore.ZeroCoef>
-5.4800

> <Gold.Chemscore.Hbond>
2.2559

> <Gold.Chemscore.Metal>
0.0000

> <Gold.Chemscore.Lipo>
71.7742

> <Gold.Chemscore.Internal_Hbond>
0.0000

> <Gold.Chemscore.DEClash>
0.0000

> <Gold.Chemscore.DEInternal>
0.9152

> <Gold.Chemscore.Rot>
1.9385

> <Gold.Chemscore.Internal.Correction>
   9.000000E+99

> <Gold.Chemscore.Hbonds>
donor molecule, donor type, donor heavy atom, donor atom, acceptor molecule, acceptor atom, score
      P1  H  6896  6909       L1    13  0.45
      P1  H  6931  6943       L1    16  0.11
      P1  H  6934  6947       L1    16  0.12

> <Gold.Chemscore.Hbond.Weighted>
-7.5348

> <Gold.Chemscore.Metal.Weighted>
-0.0000

> <Gold.Chemscore.Lipo.Weighted>
-8.3976

> <Gold.Chemscore.Internal_Hbond.Weighted>
0.0000

> <Gold.Chemscore.DEClash.Weighted>
0.0000

> <Gold.Chemscore.DEInternal.Weighted>
0.9152

> <Gold.Chemscore.Rot.Weighted>
4.9625

> <Gold.Chemscore.Internal.Correction.Weighted>
   9.000000E+99

> <Gold.Protein.RotatedTorsions>
[ 6907 6896 6895 6894 ] final   17.05 input  -60.11 | X-H torsion
[ 7974 7965 7964 7962 ] final  -13.05 input  175.53 | X-H torsion
[ 8008 7997 7996 7995 ] final -166.43 input   59.86 | X-H torsion
[ 10167 10162 10161 10158 ] final   26.53 input  -65.29 | X-H torsion
[ 10718 10713 10712 10709 ] final -176.38 input   66.30 | X-H torsion
[ 10763 10752 10751 10750 ] final  -17.83 input  -60.55 | X-H torsion
[ 11005 11000 10999 10996 ] final -148.25 input  -57.11 | X-H torsion

> <Gold.Protein.ActiveResidues>
 VAL166  LYS551  ARG553  GLY616  TRP617  ASP618  TYR619  PRO620  LYS621  CYS622 
 ASP623  PHE694  ASN695  SER759  ASP760  ASP761  ALA762  ILE779  LEU786  VAL792 
 PHE793  MET794  SER795  GLU796  ALA797  LYS798  CYS799  TRP800  GLU811  SER814 

> <Gold.Protein.RotatedAtoms>
  151.8436  135.0582  160.0450 H   0  0  0  0  0  0  0  0  0  0  0  0  # atno 6907 bound_to 6896
  152.2790  133.5448  159.5494 H   0  0  0  0  0  0  0  0  0  0  0  0  # atno 6908 bound_to 6896
  150.7182  134.0507  159.3839 H   0  0  0  0  0  0  0  0  0  0  0  0  # atno 6909 bound_to 6896
  146.2129  140.3147  142.8385 H   0  0  0  0  0  0  0  0  0  0  0  0  # atno 7974 bound_to 7965
  155.8636  140.0982  157.1597 H   0  0  0  0  0  0  0  0  0  0  0  0  # atno 8008 bound_to 7997
  154.3992  140.1360  156.4054 H   0  0  0  0  0  0  0  0  0  0  0  0  # atno 8009 bound_to 7997
  155.7829  140.3458  155.5309 H   0  0  0  0  0  0  0  0  0  0  0  0  # atno 8010 bound_to 7997
  140.5015  144.0308  150.6334 H   0  0  0  0  0  0  0  0  0  0  0  0  # atno 10167 bound_to 10162
  156.8138  130.9595  151.3115 H   0  0  0  0  0  0  0  0  0  0  0  0  # atno 10718 bound_to 10713
  153.5799  135.7005  153.5468 H   0  0  0  0  0  0  0  0  0  0  0  0  # atno 10763 bound_to 10752
  153.3270  135.4058  155.1464 H   0  0  0  0  0  0  0  0  0  0  0  0  # atno 10764 bound_to 10752
  154.8619  135.3709  154.5326 H   0  0  0  0  0  0  0  0  0  0  0  0  # atno 10765 bound_to 10752
  140.7632  134.3274  157.5096 H   0  0  0  0  0  0  0  0  0  0  0  0  # atno 11005 bound_to 11000
  144.8963  140.7587  143.5895 LP  0  0  0  0  0  0  0  0  0  0  0  0  # atno 17320 bound_to 7965
  145.3072  139.1831  143.4658 LP  0  0  0  0  0  0  0  0  0  0  0  0  # atno 17321 bound_to 7965
  140.3605  143.2911  152.0389 LP  0  0  0  0  0  0  0  0  0  0  0  0  # atno 17342 bound_to 10162
  139.4873  144.6307  151.7076 LP  0  0  0  0  0  0  0  0  0  0  0  0  # atno 17343 bound_to 10162
  157.6492  130.8870  149.9599 LP  0  0  0  0  0  0  0  0  0  0  0  0  # atno 17370 bound_to 10713
  156.1029  130.3654  150.0186 LP  0  0  0  0  0  0  0  0  0  0  0  0  # atno 17371 bound_to 10713
  139.8767  134.9215  156.3276 LP  0  0  0  0  0  0  0  0  0  0  0  0  # atno 17394 bound_to 11000
  140.9644  133.7368  156.0446 LP  0  0  0  0  0  0  0  0  0  0  0  0  # atno 17395 bound_to 11000

$$$$
