AV-unprocessed.smi:734|AV-procd|sdf|3530|dock3
  -GOLD-   22720 0523D 1   1.00000     0.00000
 Structure written by MMmdl.
 39 40  0  0  0  0  0  0  0  0  2 V2000
  151.6764  143.5222  157.7741 C   0  0  0  0  0  0  0  0  0  0  0  0
  150.9425  142.1945  158.0124 C   0  0  0  0  0  0  0  0  0  0  0  0
  151.6389  141.2991  159.0479 C   0  0  0  0  0  0  0  0  0  0  0  0
  150.6631  141.4665  156.7343 C   0  0  0  0  0  0  0  0  0  0  0  0
  151.6088  140.8139  156.0450 N   0  0  0  0  0  0  0  0  0  0  0  0
  151.1089  140.2166  154.8971 N   0  0  0  0  0  0  0  0  0  0  0  0
  149.7946  140.4324  154.7531 C   0  0  0  0  0  0  0  0  0  0  0  0
  149.0288  139.9351  153.6649 N   0  0  0  0  0  0  0  0  0  0  0  0
  147.8215  139.3437  153.7002 C   0  0  0  0  0  0  0  0  0  0  0  0
  147.1571  139.1395  154.7162 O   0  0  0  0  0  0  0  0  0  0  0  0
  147.4132  138.9925  152.4721 N   0  0  0  0  0  0  0  0  0  0  0  0
  146.1249  138.3775  152.1590 C   0  0  0  0  0  0  0  0  0  0  0  0
  146.2453  136.9451  151.5949 C   0  0  0  0  0  0  0  0  0  0  0  0
  144.9319  136.3286  151.2914 N   0  3  0  0  0  0  0  0  0  0  0  0
  143.9317  136.4059  152.3939 C   0  0  0  0  0  0  0  0  0  0  0  0
  143.2236  135.0835  152.3065 C   0  0  0  0  0  0  0  0  0  0  0  0
  143.8170  134.2713  151.4389 C   0  0  0  0  0  0  0  0  0  0  0  0
  145.0159  134.9221  150.8081 C   0  0  0  0  0  0  0  0  0  0  0  0
  149.0558  141.3992  156.0178 S   0  0  0  0  0  0  0  0  0  0  0  0
  151.1142  144.1654  157.0965 H   0  0  0  0  0  0  0  0  0  0  0  0
  152.6620  143.3579  157.3372 H   0  0  0  0  0  0  0  0  0  0  0  0
  151.8148  144.0673  158.7080 H   0  0  0  0  0  0  0  0  0  0  0  0
  149.9717  142.4542  158.4364 H   0  0  0  0  0  0  0  0  0  0  0  0
  151.0470  140.4073  159.2567 H   0  0  0  0  0  0  0  0  0  0  0  0
  151.7833  141.8278  159.9904 H   0  0  0  0  0  0  0  0  0  0  0  0
  152.6188  140.9738  158.6969 H   0  0  0  0  0  0  0  0  0  0  0  0
  149.4469  140.0522  152.7538 H   0  0  0  0  0  0  0  0  0  0  0  0
  148.0184  139.2043  151.6917 H   0  0  0  0  0  0  0  0  0  0  0  0
  145.4932  138.3773  153.0486 H   0  0  0  0  0  0  0  0  0  0  0  0
  145.6235  139.0174  151.4327 H   0  0  0  0  0  0  0  0  0  0  0  0
  146.8295  136.9730  150.6742 H   0  0  0  0  0  0  0  0  0  0  0  0
  146.8010  136.3121  152.2881 H   0  0  0  0  0  0  0  0  0  0  0  0
  144.4021  136.5017  153.3737 H   0  0  0  0  0  0  0  0  0  0  0  0
  143.2465  137.2398  152.2412 H   0  0  0  0  0  0  0  0  0  0  0  0
  142.3562  134.8437  152.9041 H   0  0  0  0  0  0  0  0  0  0  0  0
  143.5132  133.2598  151.2120 H   0  0  0  0  0  0  0  0  0  0  0  0
  144.9712  134.8807  149.7195 H   0  0  0  0  0  0  0  0  0  0  0  0
  145.9232  134.4217  151.1496 H   0  0  0  0  0  0  0  0  0  0  0  0
  144.5364  136.8503  150.5224 H   0  0  0  0  0  0  0  0  0  0  0  0
  1  2  1  0  0  0  0
  1 20  1  0  0  0  0
  1 21  1  0  0  0  0
  1 22  1  0  0  0  0
  2  3  1  0  0  0  0
  2  4  1  0  0  0  0
  2 23  1  0  0  0  0
  3 24  1  0  0  0  0
  3 25  1  0  0  0  0
  3 26  1  0  0  0  0
  4 19  1  0  0  0  0
  4  5  2  0  0  0  0
  5  6  1  0  0  0  0
  6  7  2  0  0  0  0
  7  8  1  0  0  0  0
  7 19  1  0  0  0  0
  8  9  1  0  0  0  0
  8 27  1  0  0  0  0
  9 10  2  0  0  0  0
  9 11  1  0  0  0  0
 11 12  1  0  0  0  0
 11 28  1  0  0  0  0
 12 13  1  0  0  0  0
 12 29  1  0  0  0  0
 12 30  1  0  0  0  0
 13 14  1  0  0  0  0
 13 31  1  0  0  0  0
 13 32  1  0  0  0  0
 14 18  1  0  0  0  0
 14 15  1  0  0  0  0
 14 39  1  0  0  0  0
 15 16  1  0  0  0  0
 15 33  1  0  0  0  0
 15 34  1  0  0  0  0
 16 17  2  0  0  0  0
 16 35  1  0  0  0  0
 17 18  1  0  0  0  0
 17 36  1  0  0  0  0
 18 37  1  0  0  0  0
 18 38  1  0  0  0  0
M  CHG  1  14   1
M  END
> <s_m_source_file>
AV-unprocessed.smi

> <i_m_source_file_index>
734

> <i_lp_mmshare_version>
43012

> <i_f3d_flags>
0

> <s_epik_input>
W0NIM11bQ0hdKFtDSDNdKWMxbm5jKHMxKVtOSF1DKD1PKVtOSF1bQ0gyXVtDSDJdTjJbQ0gyXVtDSF09W0NIXVtDSDJdMg==

> <s_epik_cmdline>
J2VwaWtfcHl0aG9uJywgJy1waCcsICc3LjAnLCAnLXRuJywgJzgnLCAnLW1hJywgJzIwMCcsICctbWV0YWxfYmluZGluZycsICctaW1hZScsICc8aW5maWxlLm1hZT4nLCAnLW9tYWUnLCAnPG91dGZpbGUubWFlPic=

> <r_lp_tautomer_probability>
1

> <r_epik_Ionization_Penalty>
0.00760515

> <r_epik_Ionization_Penalty_Charging>
0.00331807

> <r_epik_Ionization_Penalty_Neutral>
0.00428708

> <r_epik_State_Penalty>
0.0025644

> <r_epik_Charging_Adjusted_Penalty>
0.00588246

> <i_epik_Tot_Q>
1

> <i_epik_Tot_abs_Q>
1

> <r_epik_Metal_State_Penalty>
0.375529

> <b_epik_Metal_Only>
0

> <s_lp_Force_Field>
OPLS_2005

> <r_lp_Energy>
21.5214

> <b_lp_Chiralities_Consistent>
1

> <s_lp_Variant>
AV-unprocessed.smi:734-1

> <Gold.Version>
5.8.1

> <Gold.Id.Protein>
6NUR|6NUR_protein|mol2

> <Gold.PLP.Fitness>
43.8058

> <Gold.PLP.PLP>
-33.1223

> <Gold.PLP.part.hbond>
-4.6000

> <Gold.PLP.part.metal>
0.0000

> <Gold.PLP.part.buried>
-1.3443

> <Gold.PLP.part.nonpolar>
-27.5875

> <Gold.PLP.part.repulsive>
0.3878

> <Gold.PLP.ligand.clash>
0.0000

> <Gold.PLP.ligand.torsion>
0.6377

> <Gold.PLP.Chemscore.Hbond>
3.9360

> <Gold.PLP.Chemscore.CHOScore>
0.0000

> <Gold.PLP.Chemscore.Metal>
0.0000

> <Gold.Chemscore.Hbonds>
donor molecule, donor type, donor heavy atom, donor atom, acceptor molecule, acceptor atom, score
      L1  H     8    27       P1  7957  1.00
      L1  H    11    28       P1  7957  0.94
      L1  H    14    39       P1 10171  0.99
      P1  H  7989  7998       L1     6  0.95

> <Gold.PLP.Chemscore.Internal.Correction>
0.1509

> <Gold.Rescore>
     Score         DG    S(hbond)    S(metal)    S(lipo)     H(rot)  DE(clash)    DE(int)     intcor
     20.09     -21.19       3.53        0.00      71.17       1.72       0.62       0.48       ----

> <Gold.Chemscore.Fitness>
20.0946

> <Gold.Chemscore.DG>
-21.1932

> <Gold.Chemscore.ZeroCoef>
-5.4800

> <Gold.Chemscore.Hbond>
3.5317

> <Gold.Chemscore.Metal>
0.0000

> <Gold.Chemscore.Lipo>
71.1748

> <Gold.Chemscore.Internal_Hbond>
0.0000

> <Gold.Chemscore.DEClash>
0.6231

> <Gold.Chemscore.DEInternal>
0.4755

> <Gold.Chemscore.Rot>
1.7227

> <Gold.Chemscore.Internal.Correction>
   9.000000E+99

> <Gold.Chemscore.Hbonds>
donor molecule, donor type, donor heavy atom, donor atom, acceptor molecule, acceptor atom, score
      L1  H     8    27       P1  7957  0.98
      L1  H    11    28       P1  7957  0.88
      L1  H    14    39       P1 10171  0.92
      P1  H  7989  7998       L1     6  0.19

> <Gold.Chemscore.Hbond.Weighted>
-11.7960

> <Gold.Chemscore.Metal.Weighted>
-0.0000

> <Gold.Chemscore.Lipo.Weighted>
-8.3274

> <Gold.Chemscore.Internal_Hbond.Weighted>
0.0000

> <Gold.Chemscore.DEClash.Weighted>
0.6231

> <Gold.Chemscore.DEInternal.Weighted>
0.4755

> <Gold.Chemscore.Rot.Weighted>
4.4102

> <Gold.Chemscore.Internal.Correction.Weighted>
   9.000000E+99

> <Gold.Protein.RotatedTorsions>
[ 6907 6896 6895 6894 ] final   44.42 input  -60.11 | X-H torsion
[ 7974 7965 7964 7962 ] final  127.35 input  175.53 | X-H torsion
[ 8008 7997 7996 7995 ] final    2.50 input   59.86 | X-H torsion
[ 10167 10162 10161 10158 ] final  124.34 input  -65.29 | X-H torsion
[ 10718 10713 10712 10709 ] final  -32.55 input   66.30 | X-H torsion
[ 10763 10752 10751 10750 ] final -166.01 input  -60.55 | X-H torsion
[ 11005 11000 10999 10996 ] final -171.46 input  -57.11 | X-H torsion

> <Gold.Protein.ActiveResidues>
 VAL166  LYS551  ARG553  GLY616  TRP617  ASP618  TYR619  PRO620  LYS621  CYS622 
 ASP623  PHE694  ASN695  SER759  ASP760  ASP761  ALA762  ILE779  LEU786  VAL792 
 PHE793  MET794  SER795  GLU796  ALA797  LYS798  CYS799  TRP800  GLU811  SER814 

> <Gold.Protein.RotatedAtoms>
  152.2323  134.8310  160.0471 H   0  0  0  0  0  0  0  0  0  0  0  0  # atno 6907 bound_to 6896
  151.9055  133.3543  159.3853 H   0  0  0  0  0  0  0  0  0  0  0  0  # atno 6908 bound_to 6896
  150.7029  134.4711  159.5470 H   0  0  0  0  0  0  0  0  0  0  0  0  # atno 6909 bound_to 6896
  145.0515  139.3879  143.5051 H   0  0  0  0  0  0  0  0  0  0  0  0  # atno 7974 bound_to 7965
  154.6923  140.2656  155.6800 H   0  0  0  0  0  0  0  0  0  0  0  0  # atno 8008 bound_to 7997
  156.2736  140.2788  156.1429 H   0  0  0  0  0  0  0  0  0  0  0  0  # atno 8009 bound_to 7997
  155.0879  140.0373  157.2649 H   0  0  0  0  0  0  0  0  0  0  0  0  # atno 8010 bound_to 7997
  139.5747  144.6957  151.3684 H   0  0  0  0  0  0  0  0  0  0  0  0  # atno 10167 bound_to 10162
  156.3735  130.4343  149.7526 H   0  0  0  0  0  0  0  0  0  0  0  0  # atno 10718 bound_to 10713
  154.6875  135.2965  154.9526 H   0  0  0  0  0  0  0  0  0  0  0  0  # atno 10763 bound_to 10752
  154.0501  135.6645  153.4803 H   0  0  0  0  0  0  0  0  0  0  0  0  # atno 10764 bound_to 10752
  153.0589  135.5127  154.7950 H   0  0  0  0  0  0  0  0  0  0  0  0  # atno 10765 bound_to 10752
  140.5080  134.5829  157.5009 H   0  0  0  0  0  0  0  0  0  0  0  0  # atno 11005 bound_to 11000
  146.3518  140.0167  142.8662 LP  0  0  0  0  0  0  0  0  0  0  0  0  # atno 17320 bound_to 7965
  145.1521  140.9628  143.4426 LP  0  0  0  0  0  0  0  0  0  0  0  0  # atno 17321 bound_to 7965
  140.7030  143.7583  150.7435 LP  0  0  0  0  0  0  0  0  0  0  0  0  # atno 17342 bound_to 10162
  140.1100  143.4708  152.2376 LP  0  0  0  0  0  0  0  0  0  0  0  0  # atno 17343 bound_to 10162
  156.4645  130.7967  151.2987 LP  0  0  0  0  0  0  0  0  0  0  0  0  # atno 17370 bound_to 10713
  157.7486  131.0055  150.3117 LP  0  0  0  0  0  0  0  0  0  0  0  0  # atno 17371 bound_to 10713
  139.9675  134.7348  156.0108 LP  0  0  0  0  0  0  0  0  0  0  0  0  # atno 17394 bound_to 11000
  141.1401  133.6566  156.3704 LP  0  0  0  0  0  0  0  0  0  0  0  0  # atno 17395 bound_to 11000

$$$$
