AV-unprocessed.smi:1586|AV-procd|sdf|6380|dock4
  -GOLD-   22720 7 13D 1   1.00000     0.00000
 Structure written by MMmdl.
 46 47  0  0  0  0  0  0  0  0  3 V2000
  152.4900  144.1919  159.7469 C   0  0  0  0  0  0  0  0  0  0  0  0
  152.4128  142.6721  159.9506 C   0  0  0  0  0  0  0  0  0  0  0  0
  152.3555  141.9262  158.6690 N   0  3  0  0  0  0  0  0  0  0  0  0
  151.2341  142.3723  157.8065 C   0  0  0  0  0  0  0  0  0  0  0  0
  151.2448  141.6097  156.4650 C   0  0  0  0  0  0  0  0  0  0  0  0
  151.1371  140.1579  156.6607 N   0  0  0  0  0  0  0  0  0  0  0  0
  149.8280  139.6827  157.1605 C   0  0  1  0  0  0  0  0  0  0  0  0
  148.7375  139.8029  156.0741 C   0  0  0  0  0  0  0  0  0  0  0  0
  149.8915  138.2237  157.6750 C   0  0  0  0  0  0  0  0  0  0  0  0
  148.9412  137.9855  158.7561 N   0  0  0  0  0  0  0  0  0  0  0  0
  148.6894  136.7956  159.3161 C   0  0  0  0  0  0  0  0  0  0  0  0
  149.2870  135.7928  158.9190 O   0  0  0  0  0  0  0  0  0  0  0  0
  147.7630  136.8431  160.3007 N   0  5  0  0  0  0  0  0  0  0  0  0
  146.9091  135.8228  160.4759 C   0  0  0  0  0  0  0  0  0  0  0  0
  146.1860  135.5339  161.6652 C   0  0  0  0  0  0  0  0  0  0  0  0
  145.4582  134.4282  161.3279 C   0  0  0  0  0  0  0  0  0  0  0  0
  144.4863  133.5874  162.0831 C   0  0  0  0  0  0  0  0  0  0  0  0
  145.7071  134.0751  160.0382 O   0  0  0  0  0  0  0  0  0  0  0  0
  146.6329  134.9760  159.4983 N   0  0  0  0  0  0  0  0  0  0  0  0
  152.2999  139.7520  157.4619 C   0  0  0  0  0  0  0  0  0  0  0  0
  152.3227  140.4512  158.8373 C   0  0  0  0  0  0  0  0  0  0  0  0
  152.4351  144.7087  160.7053 H   0  0  0  0  0  0  0  0  0  0  0  0
  151.6643  144.5511  159.1320 H   0  0  0  0  0  0  0  0  0  0  0  0
  153.4225  144.4946  159.2712 H   0  0  0  0  0  0  0  0  0  0  0  0
  153.2533  142.3212  160.5510 H   0  0  0  0  0  0  0  0  0  0  0  0
  151.5109  142.4581  160.5259 H   0  0  0  0  0  0  0  0  0  0  0  0
  150.2834  142.2459  158.3257 H   0  0  0  0  0  0  0  0  0  0  0  0
  151.3386  143.4395  157.6074 H   0  0  0  0  0  0  0  0  0  0  0  0
  150.4607  141.9788  155.8062 H   0  0  0  0  0  0  0  0  0  0  0  0
  152.1779  141.8194  155.9402 H   0  0  0  0  0  0  0  0  0  0  0  0
  149.5161  140.3014  158.0008 H   0  0  0  0  0  0  0  0  0  0  0  0
  147.8141  139.3204  156.3950 H   0  0  0  0  0  0  0  0  0  0  0  0
  149.0453  139.3306  155.1404 H   0  0  0  0  0  0  0  0  0  0  0  0
  148.4804  140.8401  155.8621 H   0  0  0  0  0  0  0  0  0  0  0  0
  149.7228  137.5101  156.8685 H   0  0  0  0  0  0  0  0  0  0  0  0
  150.8970  138.0111  158.0414 H   0  0  0  0  0  0  0  0  0  0  0  0
  148.4307  138.7844  159.1031 H   0  0  0  0  0  0  0  0  0  0  0  0
  146.2023  136.0526  162.6117 H   0  0  0  0  0  0  0  0  0  0  0  0
  143.5945  134.1619  162.3338 H   0  0  0  0  0  0  0  0  0  0  0  0
  144.9291  133.2265  163.0114 H   0  0  0  0  0  0  0  0  0  0  0  0
  144.1766  132.7212  161.4977 H   0  0  0  0  0  0  0  0  0  0  0  0
  152.3419  138.6705  157.5790 H   0  0  0  0  0  0  0  0  0  0  0  0
  153.2061  140.0107  156.9124 H   0  0  0  0  0  0  0  0  0  0  0  0
  153.2093  140.1216  159.3776 H   0  0  0  0  0  0  0  0  0  0  0  0
  151.4645  140.1573  159.4430 H   0  0  0  0  0  0  0  0  0  0  0  0
  153.2022  142.1446  158.1635 H   0  0  0  0  0  0  0  0  0  0  0  0
  1  2  1  0  0  0  0
  1 22  1  0  0  0  0
  1 23  1  0  0  0  0
  1 24  1  0  0  0  0
  2  3  1  0  0  0  0
  2 25  1  0  0  0  0
  2 26  1  0  0  0  0
  3 21  1  0  0  0  0
  3  4  1  0  0  0  0
  3 46  1  0  0  0  0
  4  5  1  0  0  0  0
  4 27  1  0  0  0  0
  4 28  1  0  0  0  0
  5  6  1  0  0  0  0
  5 29  1  0  0  0  0
  5 30  1  0  0  0  0
  6  7  1  0  0  0  0
  6 20  1  0  0  0  0
  7  8  1  0  0  0  0
  7  9  1  0  0  0  0
  7 31  1  0  0  0  0
  8 32  1  0  0  0  0
  8 33  1  0  0  0  0
  8 34  1  0  0  0  0
  9 10  1  0  0  0  0
  9 35  1  0  0  0  0
  9 36  1  0  0  0  0
 10 11  1  0  0  0  0
 10 37  1  0  0  0  0
 11 12  2  0  0  0  0
 11 13  1  0  0  0  0
 13 14  1  0  0  0  0
 14 19  2  0  0  0  0
 14 15  1  0  0  0  0
 15 16  2  0  0  0  0
 15 38  1  0  0  0  0
 16 17  1  0  0  0  0
 16 18  1  0  0  0  0
 17 39  1  0  0  0  0
 17 40  1  0  0  0  0
 17 41  1  0  0  0  0
 18 19  1  0  0  0  0
 20 21  1  0  0  0  0
 20 42  1  0  0  0  0
 20 43  1  0  0  0  0
 21 44  1  0  0  0  0
 21 45  1  0  0  0  0
M  CHG  1   3   1
M  CHG  1  13  -1
M  END
> <s_m_source_file>
AV-unprocessed.smi

> <i_m_source_file_index>
1586

> <i_lp_mmshare_version>
43012

> <i_f3d_flags>
0

> <s_epik_input>
W0NIM11bQ0gyXU4xW0NIMl1bQ0gyXU4oW0NIMl1bQ0gyXTEpW0NASF0oW0NIM10pW0NIMl1bTkhdQyg9TylbTkhdYzJbY0hdYyhbQ0gzXSlvbjI=

> <s_epik_cmdline>
J2VwaWtfcHl0aG9uJywgJy1waCcsICc3LjAnLCAnLXRuJywgJzgnLCAnLW1hJywgJzIwMCcsICctbWV0YWxfYmluZGluZycsICctaW1hZScsICc8aW5maWxlLm1hZT4nLCAnLW9tYWUnLCAnPG91dGZpbGUubWFlPic=

> <r_epik_Ionization_Penalty>
6.66134

> <r_epik_Ionization_Penalty_Charging>
6.66063

> <r_epik_Ionization_Penalty_Neutral>
0.000714131

> <r_epik_State_Penalty>
6.77843

> <r_epik_Charging_Adjusted_Penalty>
13.4391

> <i_epik_Tot_Q>
0

> <i_epik_Tot_abs_Q>
2

> <r_epik_Metal_State_Penalty>
2.70494

> <b_epik_Metal_Only>
1

> <s_lp_Force_Field>
OPLS_2005

> <r_lp_Energy>
15.0096

> <b_lp_Chiralities_Consistent>
1

> <s_lp_Variant>
AV-unprocessed.smi:1586-8

> <Gold.Version>
5.8.1

> <Gold.Id.Protein>
6NUR|6NUR_protein|mol2

> <Gold.PLP.Fitness>
43.9463

> <Gold.PLP.PLP>
-33.6851

> <Gold.PLP.part.hbond>
-3.0000

> <Gold.PLP.part.metal>
0.0000

> <Gold.PLP.part.buried>
-4.2669

> <Gold.PLP.part.nonpolar>
-26.8919

> <Gold.PLP.part.repulsive>
0.2945

> <Gold.PLP.ligand.clash>
0.0000

> <Gold.PLP.ligand.torsion>
0.9602

> <Gold.PLP.Chemscore.Hbond>
4.0160

> <Gold.PLP.Chemscore.CHOScore>
0.0000

> <Gold.PLP.Chemscore.Metal>
0.0000

> <Gold.Chemscore.Hbonds>
donor molecule, donor type, donor heavy atom, donor atom, acceptor molecule, acceptor atom, score
      P1  H  6896  6909       L1    12  1.00
      P1  H  6934  6947       L1    13  0.42

> <Gold.PLP.Chemscore.Internal.Correction>
0.1337

> <Gold.Rescore>
     Score         DG    S(hbond)    S(metal)    S(lipo)     H(rot)  DE(clash)    DE(int)     intcor
     14.44     -16.03       1.60        0.00      82.14       1.73       0.16       1.43       ----

> <Gold.Chemscore.Fitness>
14.4433

> <Gold.Chemscore.DG>
-16.0337

> <Gold.Chemscore.ZeroCoef>
-5.4800

> <Gold.Chemscore.Hbond>
1.6048

> <Gold.Chemscore.Metal>
0.0000

> <Gold.Chemscore.Lipo>
82.1352

> <Gold.Chemscore.Internal_Hbond>
0.0000

> <Gold.Chemscore.DEClash>
0.1569

> <Gold.Chemscore.DEInternal>
1.4335

> <Gold.Chemscore.Rot>
1.7250

> <Gold.Chemscore.Internal.Correction>
   9.000000E+99

> <Gold.Chemscore.Hbonds>
donor molecule, donor type, donor heavy atom, donor atom, acceptor molecule, acceptor atom, score
      P1  H  6896  6909       L1    12  0.99
      P1  H  6934  6947       L1    13  0.19

> <Gold.Chemscore.Hbond.Weighted>
-5.3600

> <Gold.Chemscore.Metal.Weighted>
-0.0000

> <Gold.Chemscore.Lipo.Weighted>
-9.6098

> <Gold.Chemscore.Internal_Hbond.Weighted>
0.0000

> <Gold.Chemscore.DEClash.Weighted>
0.1569

> <Gold.Chemscore.DEInternal.Weighted>
1.4335

> <Gold.Chemscore.Rot.Weighted>
4.4161

> <Gold.Chemscore.Internal.Correction.Weighted>
   9.000000E+99

> <Gold.Protein.RotatedTorsions>
[ 6907 6896 6895 6894 ] final   50.21 input  -60.11 | X-H torsion
[ 7974 7965 7964 7962 ] final  167.27 input  175.53 | X-H torsion
[ 8008 7997 7996 7995 ] final  -63.93 input   59.86 | X-H torsion
[ 10167 10162 10161 10158 ] final -141.13 input  -65.29 | X-H torsion
[ 10718 10713 10712 10709 ] final   13.43 input   66.30 | X-H torsion
[ 10763 10752 10751 10750 ] final  -53.80 input  -60.55 | X-H torsion
[ 11005 11000 10999 10996 ] final   38.40 input  -57.11 | X-H torsion

> <Gold.Protein.ActiveResidues>
 VAL166  LYS551  ARG553  GLY616  TRP617  ASP618  TYR619  PRO620  LYS621  CYS622 
 ASP623  PHE694  ASN695  SER759  ASP760  ASP761  ALA762  ILE779  LEU786  VAL792 
 PHE793  MET794  SER795  GLU796  ALA797  LYS798  CYS799  TRP800  GLU811  SER814 

> <Gold.Protein.RotatedAtoms>
  152.2993  134.7630  160.0361 H   0  0  0  0  0  0  0  0  0  0  0  0  # atno 6907 bound_to 6896
  151.8149  133.3381  159.3574 H   0  0  0  0  0  0  0  0  0  0  0  0  # atno 6908 bound_to 6896
  150.7266  134.5558  159.5862 H   0  0  0  0  0  0  0  0  0  0  0  0  # atno 6909 bound_to 6896
  144.7430  139.8737  143.6391 H   0  0  0  0  0  0  0  0  0  0  0  0  # atno 7974 bound_to 7965
  154.4582  140.0964  156.6819 H   0  0  0  0  0  0  0  0  0  0  0  0  # atno 8008 bound_to 7997
  155.5073  140.3475  155.4363 H   0  0  0  0  0  0  0  0  0  0  0  0  # atno 8009 bound_to 7997
  156.0820  140.1375  156.9689 H   0  0  0  0  0  0  0  0  0  0  0  0  # atno 8010 bound_to 7997
  139.8215  143.7568  152.2666 H   0  0  0  0  0  0  0  0  0  0  0  0  # atno 10167 bound_to 10162
  157.0245  130.6168  149.5726 H   0  0  0  0  0  0  0  0  0  0  0  0  # atno 10718 bound_to 10713
  154.1646  135.6469  153.4994 H   0  0  0  0  0  0  0  0  0  0  0  0  # atno 10763 bound_to 10752
  153.0101  135.5369  154.6675 H   0  0  0  0  0  0  0  0  0  0  0  0  # atno 10764 bound_to 10752
  154.5998  135.2942  155.0519 H   0  0  0  0  0  0  0  0  0  0  0  0  # atno 10765 bound_to 10752
  140.2130  134.3733  155.8040 H   0  0  0  0  0  0  0  0  0  0  0  0  # atno 11005 bound_to 11000
  146.1262  139.4288  143.0197 LP  0  0  0  0  0  0  0  0  0  0  0  0  # atno 17320 bound_to 7965
  145.7232  141.0068  143.1391 LP  0  0  0  0  0  0  0  0  0  0  0  0  # atno 17321 bound_to 7965
  139.7747  144.7465  151.0173 LP  0  0  0  0  0  0  0  0  0  0  0  0  # atno 17342 bound_to 10162
  140.7813  143.4606  151.0283 LP  0  0  0  0  0  0  0  0  0  0  0  0  # atno 17343 bound_to 10162
  156.0091  130.5180  150.7928 LP  0  0  0  0  0  0  0  0  0  0  0  0  # atno 17370 bound_to 10713
  157.5224  131.0932  151.0061 LP  0  0  0  0  0  0  0  0  0  0  0  0  # atno 17371 bound_to 10713
  141.2225  133.7153  156.8449 LP  0  0  0  0  0  0  0  0  0  0  0  0  # atno 17394 bound_to 11000
  140.1931  134.8951  157.3083 LP  0  0  0  0  0  0  0  0  0  0  0  0  # atno 17395 bound_to 11000

$$$$
