AV-unprocessed.smi:72|AV-procd|sdf|683|dock3
  -GOLD-   2262016593D 1   1.00000     0.00000
 Structure written by MMmdl.
 29 30  0  0  0  0  0  0  0  0  1 V2000
  149.4811  135.1344  158.2529 N   0  0  0  0  0  0  0  0  0  0  0  0
  149.4897  136.1377  157.4506 C   0  0  0  0  0  0  0  0  0  0  0  0
  148.4958  137.1232  157.3711 N   0  0  0  0  0  0  0  0  0  0  0  0
  148.6217  138.0624  156.4848 C   0  0  0  0  0  0  0  0  0  0  0  0
  149.7323  138.1028  155.5391 N   0  0  0  0  0  0  0  0  0  0  0  0
  149.8875  139.2378  154.5344 C   0  0  2  0  0  0  0  0  0  0  0  0
  150.8513  140.1468  154.9941 O   0  0  0  0  0  0  0  0  0  0  0  0
  150.2582  141.3495  155.4816 C   0  0  2  0  0  0  0  0  0  0  0  0
  149.9127  141.2255  156.9836 C   0  0  0  0  0  0  0  0  0  0  0  0
  149.4180  142.4566  157.4656 O   0  0  0  0  0  0  0  0  0  0  0  0
  149.0532  141.4895  154.5458 C   0  0  2  0  0  0  0  0  0  0  0  0
  148.0261  142.3038  155.0767 O   0  0  0  0  0  0  0  0  0  0  0  0
  148.5859  140.0541  154.3426 C   0  0  1  0  0  0  0  0  0  0  0  0
  148.0634  139.9150  153.0365 O   0  0  0  0  0  0  0  0  0  0  0  0
  150.7950  137.1731  155.6859 C   0  0  0  0  0  0  0  0  0  0  0  0
  151.8254  137.2300  155.0158 O   0  0  0  0  0  0  0  0  0  0  0  0
  150.6099  136.2111  156.6152 N   0  0  0  0  0  0  0  0  0  0  0  0
  150.2468  138.7494  153.6269 H   0  0  0  0  0  0  0  0  0  0  0  0
  150.9409  142.1878  155.3364 H   0  0  0  0  0  0  0  0  0  0  0  0
  149.3960  141.9147  153.6008 H   0  0  0  0  0  0  0  0  0  0  0  0
  147.8474  139.7789  155.0975 H   0  0  0  0  0  0  0  0  0  0  0  0
  148.6453  135.1508  158.8198 H   0  0  0  0  0  0  0  0  0  0  0  0
  147.8996  138.8746  156.3989 H   0  0  0  0  0  0  0  0  0  0  0  0
  149.1163  140.4968  157.1336 H   0  0  0  0  0  0  0  0  0  0  0  0
  150.7582  140.8902  157.5822 H   0  0  0  0  0  0  0  0  0  0  0  0
  149.1889  142.9986  156.7260 H   0  0  0  0  0  0  0  0  0  0  0  0
  148.3204  143.2019  155.0580 H   0  0  0  0  0  0  0  0  0  0  0  0
  148.7391  140.1538  152.4194 H   0  0  0  0  0  0  0  0  0  0  0  0
  151.3368  135.5191  156.7250 H   0  0  0  0  0  0  0  0  0  0  0  0
  1  2  2  0  0  0  0
  1 22  1  0  0  0  0
  2 17  1  0  0  0  0
  2  3  1  0  0  0  0
  3  4  2  0  0  0  0
  4  5  1  0  0  0  0
  4 23  1  0  0  0  0
  5  6  1  0  0  0  0
  5 15  1  0  0  0  0
  6 18  1  0  0  0  0
  6 13  1  0  0  0  0
  6  7  1  0  0  0  0
  7  8  1  0  0  0  0
  8 19  1  0  0  0  0
  8  9  1  0  0  0  0
  8 11  1  0  0  0  0
  9 10  1  0  0  0  0
  9 24  1  0  0  0  0
  9 25  1  0  0  0  0
 10 26  1  0  0  0  0
 11 20  1  0  0  0  0
 11 12  1  0  0  0  0
 11 13  1  0  0  0  0
 12 27  1  0  0  0  0
 13 21  1  0  0  0  0
 13 14  1  0  0  0  0
 14 28  1  0  0  0  0
 15 16  2  0  0  0  0
 15 17  1  0  0  0  0
 17 29  1  0  0  0  0
M  END
> <s_m_source_file>
AV-unprocessed.smi

> <i_m_source_file_index>
72

> <i_lp_mmshare_version>
43012

> <i_f3d_flags>
0

> <s_epik_input>
W05IMl1jMW5bY0hdbihjKD1PKW4xKVtDQEBIXTJPW0NASF0oW0NIMl1bT0hdKVtDQEBIXShbT0hdKVtDQEhdMltPSF0=

> <s_epik_cmdline>
J2VwaWtfcHl0aG9uJywgJy1waCcsICc3LjAnLCAnLXRuJywgJzgnLCAnLW1hJywgJzIwMCcsICctbWV0YWxfYmluZGluZycsICctaW1hZScsICc8aW5maWxlLm1hZT4nLCAnLW9tYWUnLCAnPG91dGZpbGUubWFlPic=

> <r_lp_tautomer_probability>
7.17554e-07

> <r_epik_Ionization_Penalty>
0.0066451

> <r_epik_Ionization_Penalty_Charging>
0.00663793

> <r_epik_Ionization_Penalty_Neutral>
7.17052e-06

> <r_epik_State_Penalty>
0.419231

> <r_epik_Charging_Adjusted_Penalty>
0.425868

> <i_epik_Tot_Q>
0

> <i_epik_Tot_abs_Q>
0

> <r_epik_Metal_State_Penalty>
1.44144

> <b_epik_Metal_Only>
0

> <s_epik_Chemistry_Notes>
This compound contains an acetal/aminal-like group ( X-CH(R)-Y where X, Y are N, S, or O) that may be acid/base labile, releasing an aldehyde.

> <s_lp_Force_Field>
OPLS_2005

> <r_lp_Energy>
40.5404

> <b_lp_Chiralities_Consistent>
1

> <s_lp_Variant>
AV-unprocessed.smi:72-21

> <Gold.Version>
5.8.1

> <Gold.Id.Protein>
6NUR|6NUR_protein|mol2

> <Gold.PLP.Fitness>
39.2612

> <Gold.PLP.PLP>
-22.3356

> <Gold.PLP.part.hbond>
-5.6739

> <Gold.PLP.part.metal>
0.0000

> <Gold.PLP.part.buried>
-4.8180

> <Gold.PLP.part.nonpolar>
-12.6770

> <Gold.PLP.part.repulsive>
0.2430

> <Gold.PLP.ligand.clash>
0.0000

> <Gold.PLP.ligand.torsion>
0.3498

> <Gold.PLP.Chemscore.Hbond>
5.8420

> <Gold.PLP.Chemscore.CHOScore>
0.0000

> <Gold.PLP.Chemscore.Metal>
0.0000

> <Gold.Chemscore.Hbonds>
donor molecule, donor type, donor heavy atom, donor atom, acceptor molecule, acceptor atom, score
      L1  H    10    26       P1  8028  0.96
      L1  H    12    27       P1  8028  1.00
      L1  H    14    28       P1  7957  0.99
      P1  H  6896  6907       L1     1  0.94
      P1  H  7989  7998       L1     7  0.85
      P1  H 10752 10765       L1    16  0.99

> <Gold.PLP.Chemscore.Internal.Correction>
0.0993

> <Gold.Rescore>
     Score         DG    S(hbond)    S(metal)    S(lipo)     H(rot)  DE(clash)    DE(int)     intcor
     13.03     -13.55       4.58        0.00      27.15       4.06       0.08       0.45       ----

> <Gold.Chemscore.Fitness>
13.0269

> <Gold.Chemscore.DG>
-13.5500

> <Gold.Chemscore.ZeroCoef>
-5.4800

> <Gold.Chemscore.Hbond>
4.5768

> <Gold.Chemscore.Metal>
0.0000

> <Gold.Chemscore.Lipo>
27.1536

> <Gold.Chemscore.Internal_Hbond>
0.0000

> <Gold.Chemscore.DEClash>
0.0772

> <Gold.Chemscore.DEInternal>
0.4459

> <Gold.Chemscore.Rot>
4.0600

> <Gold.Chemscore.Internal.Correction>
   9.000000E+99

> <Gold.Chemscore.Hbonds>
donor molecule, donor type, donor heavy atom, donor atom, acceptor molecule, acceptor atom, score
      L1  H    10    26       P1  8028  0.89
      L1  H    12    27       P1  8028  0.98
      L1  H    14    28       P1  7957  0.91
      P1  H  6896  6907       L1     1  0.20
      P1  H  7989  7998       L1     7  0.09
      P1  H 10752 10765       L1    16  0.89

> <Gold.Chemscore.Hbond.Weighted>
-15.2866

> <Gold.Chemscore.Metal.Weighted>
-0.0000

> <Gold.Chemscore.Lipo.Weighted>
-3.1770

> <Gold.Chemscore.Internal_Hbond.Weighted>
0.0000

> <Gold.Chemscore.DEClash.Weighted>
0.0772

> <Gold.Chemscore.DEInternal.Weighted>
0.4459

> <Gold.Chemscore.Rot.Weighted>
10.3936

> <Gold.Chemscore.Internal.Correction.Weighted>
   9.000000E+99

> <Gold.Protein.RotatedTorsions>
[ 6907 6896 6895 6894 ] final  -61.07 input  -60.11 | X-H torsion
[ 7974 7965 7964 7962 ] final -133.80 input  175.53 | X-H torsion
[ 8008 7997 7996 7995 ] final  170.46 input   59.86 | X-H torsion
[ 10167 10162 10161 10158 ] final  156.69 input  -65.29 | X-H torsion
[ 10718 10713 10712 10709 ] final   36.61 input   66.30 | X-H torsion
[ 10763 10752 10751 10750 ] final -178.73 input  -60.55 | X-H torsion
[ 11005 11000 10999 10996 ] final  171.48 input  -57.11 | X-H torsion

> <Gold.Protein.ActiveResidues>
 VAL166  LYS551  ARG553  GLY616  TRP617  ASP618  TYR619  PRO620  LYS621  CYS622 
 ASP623  PHE694  ASN695  SER759  ASP760  ASP761  ALA762  ILE779  LEU786  VAL792 
 PHE793  MET794  SER795  GLU796  ALA797  LYS798  CYS799  TRP800  GLU811  SER814 

> <Gold.Protein.RotatedAtoms>
  150.7810  134.6753  159.6413 H   0  0  0  0  0  0  0  0  0  0  0  0  # atno 6907 bound_to 6896
  152.3895  134.6461  160.0122 H   0  0  0  0  0  0  0  0  0  0  0  0  # atno 6908 bound_to 6896
  151.6766  133.3276  159.3245 H   0  0  0  0  0  0  0  0  0  0  0  0  # atno 6909 bound_to 6896
  144.9160  140.6955  143.4995 H   0  0  0  0  0  0  0  0  0  0  0  0  # atno 7974 bound_to 7965
  156.1363  140.1537  156.8989 H   0  0  0  0  0  0  0  0  0  0  0  0  # atno 8008 bound_to 7997
  154.4950  140.0840  156.7716 H   0  0  0  0  0  0  0  0  0  0  0  0  # atno 8009 bound_to 7997
  155.4162  140.3421  155.4270 H   0  0  0  0  0  0  0  0  0  0  0  0  # atno 8010 bound_to 7997
  139.4821  144.4986  151.8203 H   0  0  0  0  0  0  0  0  0  0  0  0  # atno 10167 bound_to 10162
  157.3370  130.7527  149.6885 H   0  0  0  0  0  0  0  0  0  0  0  0  # atno 10718 bound_to 10713
  154.5440  135.2808  155.1070 H   0  0  0  0  0  0  0  0  0  0  0  0  # atno 10763 bound_to 10752
  154.2541  135.6334  153.5254 H   0  0  0  0  0  0  0  0  0  0  0  0  # atno 10764 bound_to 10752
  152.9986  135.5590  154.5987 H   0  0  0  0  0  0  0  0  0  0  0  0  # atno 10765 bound_to 10752
  140.3194  134.7450  157.4052 H   0  0  0  0  0  0  0  0  0  0  0  0  # atno 11005 bound_to 11000
  145.3375  139.1742  143.4504 LP  0  0  0  0  0  0  0  0  0  0  0  0  # atno 17320 bound_to 7965
  146.3182  140.3412  142.8648 LP  0  0  0  0  0  0  0  0  0  0  0  0  # atno 17321 bound_to 7965
  140.4477  144.1899  150.5895 LP  0  0  0  0  0  0  0  0  0  0  0  0  # atno 17342 bound_to 10162
  140.4618  143.2446  151.9210 LP  0  0  0  0  0  0  0  0  0  0  0  0  # atno 17343 bound_to 10162
  155.9702  130.4179  150.4300 LP  0  0  0  0  0  0  0  0  0  0  0  0  # atno 17370 bound_to 10713
  157.2341  131.0511  151.2475 LP  0  0  0  0  0  0  0  0  0  0  0  0  # atno 17371 bound_to 10713
  140.0955  134.5543  155.8403 LP  0  0  0  0  0  0  0  0  0  0  0  0  # atno 17394 bound_to 11000
  141.2090  133.6679  156.6409 LP  0  0  0  0  0  0  0  0  0  0  0  0  # atno 17395 bound_to 11000

$$$$
