AV-unprocessed.smi:597|AV-procd|sdf|3020|dock3
  -GOLD-   2262023533D 1   1.00000     0.00000
 Structure written by MMmdl.
 37 38  0  0  0  0  0  0  0  0  3 V2000
  150.5233  140.4780  155.1548 O   0  0  0  0  0  0  0  0  0  0  0  0
  149.7959  141.4594  155.3136 C   0  0  0  0  0  0  0  0  0  0  0  0
  148.5247  141.6443  154.4724 C   0  0  0  0  0  0  0  0  0  0  0  0
  147.5648  140.5360  154.6121 N   0  0  0  0  0  0  0  0  0  0  0  0
  147.2903  139.7779  153.4566 C   0  0  0  0  0  0  0  0  0  0  0  0
  146.4236  138.7461  153.4662 C   0  0  0  0  0  0  0  0  0  0  0  0
  146.1500  137.9819  152.2690 N   0  3  0  0  0  0  0  0  0  0  0  0
  145.3981  137.0155  152.3467 O   0  0  0  0  0  0  0  0  0  0  0  0
  146.6771  138.3200  151.2132 O   0  5  0  0  0  0  0  0  0  0  0  0
  145.7692  138.4273  154.7205 C   0  0  0  0  0  0  0  0  0  0  0  0
  146.0243  139.1514  155.8280 C   0  0  0  0  0  0  0  0  0  0  0  0
  146.9639  140.2773  155.8139 C   0  0  0  0  0  0  0  0  0  0  0  0
  147.1964  140.9465  156.8208 O   0  0  0  0  0  0  0  0  0  0  0  0
  150.0387  142.4139  156.2246 N   0  0  0  0  0  0  0  0  0  0  0  0
  151.1810  142.4433  157.1332 C   0  0  0  0  0  0  0  0  0  0  0  0
  150.8510  141.7098  158.4505 C   0  0  0  0  0  0  0  0  0  0  0  0
  152.0154  141.7978  159.4506 C   0  0  0  0  0  0  0  0  0  0  0  0
  152.4142  143.2577  159.7171 C   0  0  0  0  0  0  0  0  0  0  0  0
  152.7490  143.9886  158.4074 C   0  0  0  0  0  0  0  0  0  0  0  0
  151.5831  143.9047  157.4091 C   0  0  0  0  0  0  0  0  0  0  0  0
  148.0607  142.5887  154.7608 H   0  0  0  0  0  0  0  0  0  0  0  0
  148.8026  141.7732  153.4245 H   0  0  0  0  0  0  0  0  0  0  0  0
  147.8233  140.0992  152.5733 H   0  0  0  0  0  0  0  0  0  0  0  0
  145.0697  137.6065  154.7810 H   0  0  0  0  0  0  0  0  0  0  0  0
  145.5249  138.8973  156.7514 H   0  0  0  0  0  0  0  0  0  0  0  0
  149.3862  143.1817  156.2908 H   0  0  0  0  0  0  0  0  0  0  0  0
  152.0261  141.9451  156.6539 H   0  0  0  0  0  0  0  0  0  0  0  0
  149.9560  142.1426  158.9000 H   0  0  0  0  0  0  0  0  0  0  0  0
  150.6212  140.6621  158.2530 H   0  0  0  0  0  0  0  0  0  0  0  0
  151.7387  141.3112  160.3864 H   0  0  0  0  0  0  0  0  0  0  0  0
  152.8738  141.2499  159.0592 H   0  0  0  0  0  0  0  0  0  0  0  0
  151.5978  143.7727  160.2250 H   0  0  0  0  0  0  0  0  0  0  0  0
  153.2697  143.2929  160.3922 H   0  0  0  0  0  0  0  0  0  0  0  0
  152.9865  145.0323  158.6142 H   0  0  0  0  0  0  0  0  0  0  0  0
  153.6431  143.5502  157.9621 H   0  0  0  0  0  0  0  0  0  0  0  0
  151.8628  144.3987  156.4777 H   0  0  0  0  0  0  0  0  0  0  0  0
  150.7291  144.4551  157.8065 H   0  0  0  0  0  0  0  0  0  0  0  0
  1  2  2  0  0  0  0
  2  3  1  0  0  0  0
  2 14  1  0  0  0  0
  3  4  1  0  0  0  0
  3 21  1  0  0  0  0
  3 22  1  0  0  0  0
  4 12  1  0  0  0  0
  4  5  1  0  0  0  0
  5  6  2  0  0  0  0
  5 23  1  0  0  0  0
  6  7  1  0  0  0  0
  6 10  1  0  0  0  0
  7  8  2  0  0  0  0
  7  9  1  0  0  0  0
 10 11  2  0  0  0  0
 10 24  1  0  0  0  0
 11 12  1  0  0  0  0
 11 25  1  0  0  0  0
 12 13  2  0  0  0  0
 14 15  1  0  0  0  0
 14 26  1  0  0  0  0
 15 20  1  0  0  0  0
 15 16  1  0  0  0  0
 15 27  1  0  0  0  0
 16 17  1  0  0  0  0
 16 28  1  0  0  0  0
 16 29  1  0  0  0  0
 17 18  1  0  0  0  0
 17 30  1  0  0  0  0
 17 31  1  0  0  0  0
 18 19  1  0  0  0  0
 18 32  1  0  0  0  0
 18 33  1  0  0  0  0
 19 20  1  0  0  0  0
 19 34  1  0  0  0  0
 19 35  1  0  0  0  0
 20 36  1  0  0  0  0
 20 37  1  0  0  0  0
M  CHG  1   7   1
M  CHG  1   9  -1
M  END
> <s_m_source_file>
AV-unprocessed.smi

> <i_m_source_file_index>
597

> <i_lp_mmshare_version>
43012

> <i_f3d_flags>
0

> <s_epik_input>
W0NIMl0xW0NIMl1bQ0gyXVtDSDJdW0NIMl1bQ0hdMVtOSF1DKD1PKVtDSDJdbjJbY0hdYyhbTitdKD1PKVtPLV0pW2NIXVtjSF1jMj1P

> <s_epik_cmdline>
J2VwaWtfcHl0aG9uJywgJy1waCcsICc3LjAnLCAnLXRuJywgJzgnLCAnLW1hJywgJzIwMCcsICctbWV0YWxfYmluZGluZycsICctaW1hZScsICc8aW5maWxlLm1hZT4nLCAnLW9tYWUnLCAnPG91dGZpbGUubWFlPic=

> <r_lp_tautomer_probability>
1

> <r_epik_Ionization_Penalty>
1.91289e-08

> <r_epik_Ionization_Penalty_Charging>
8.20451e-11

> <r_epik_Ionization_Penalty_Neutral>
1.90469e-08

> <r_epik_State_Penalty>
-0

> <r_epik_Charging_Adjusted_Penalty>
8.20451e-11

> <i_epik_Tot_Q>
0

> <i_epik_Tot_abs_Q>
2

> <r_epik_Metal_State_Penalty>
-0

> <b_epik_Metal_Only>
0

> <s_lp_Force_Field>
OPLS_2005

> <r_lp_Energy>
19.9817

> <b_lp_Chiralities_Consistent>
1

> <s_lp_Variant>
AV-unprocessed.smi:597-1

> <Gold.Version>
5.8.1

> <Gold.Id.Protein>
6NUR|6NUR_protein|mol2

> <Gold.PLP.Fitness>
47.3470

> <Gold.PLP.PLP>
-36.5513

> <Gold.PLP.part.hbond>
-3.0000

> <Gold.PLP.part.metal>
0.0000

> <Gold.PLP.part.buried>
-4.2083

> <Gold.PLP.part.nonpolar>
-31.4745

> <Gold.PLP.part.repulsive>
0.7914

> <Gold.PLP.ligand.clash>
0.0000

> <Gold.PLP.ligand.torsion>
0.3926

> <Gold.PLP.Chemscore.Hbond>
2.8560

> <Gold.PLP.Chemscore.CHOScore>
1.0000

> <Gold.PLP.Chemscore.Metal>
0.0000

> <Gold.Chemscore.Hbonds>
donor molecule, donor type, donor heavy atom, donor atom, acceptor molecule, acceptor atom, score
      L1  H    14    26       P1  8028  0.94
      P1  H  7954  7966       L1     9  0.99
      P1  H  7989  7998       L1     1  1.00
      L1  C     5    23       P1  7957  1.00

> <Gold.PLP.Chemscore.Internal.Correction>
0.0129

> <Gold.Rescore>
     Score         DG    S(hbond)    S(metal)    S(lipo)     H(rot)  DE(clash)    DE(int)     intcor
     18.42     -19.77       2.53        0.00      84.15       1.56       0.31       1.04       ----

> <Gold.Chemscore.Fitness>
18.4197

> <Gold.Chemscore.DG>
-19.7659

> <Gold.Chemscore.ZeroCoef>
-5.4800

> <Gold.Chemscore.Hbond>
2.5285

> <Gold.Chemscore.Metal>
0.0000

> <Gold.Chemscore.Lipo>
84.1529

> <Gold.Chemscore.Internal_Hbond>
0.0000

> <Gold.Chemscore.DEClash>
0.3053

> <Gold.Chemscore.DEInternal>
1.0409

> <Gold.Chemscore.Rot>
1.5646

> <Gold.Chemscore.Internal.Correction>
   9.000000E+99

> <Gold.Chemscore.Hbonds>
donor molecule, donor type, donor heavy atom, donor atom, acceptor molecule, acceptor atom, score
      L1  H    14    26       P1  8028  0.91
      P1  H  7954  7966       L1     9  0.92
      P1  H  7989  7998       L1     1  0.45

> <Gold.Chemscore.Hbond.Weighted>
-8.4453

> <Gold.Chemscore.Metal.Weighted>
-0.0000

> <Gold.Chemscore.Lipo.Weighted>
-9.8459

> <Gold.Chemscore.Internal_Hbond.Weighted>
0.0000

> <Gold.Chemscore.DEClash.Weighted>
0.3053

> <Gold.Chemscore.DEInternal.Weighted>
1.0409

> <Gold.Chemscore.Rot.Weighted>
4.0053

> <Gold.Chemscore.Internal.Correction.Weighted>
   9.000000E+99

> <Gold.Protein.RotatedTorsions>
[ 6907 6896 6895 6894 ] final  131.52 input  -60.11 | X-H torsion
[ 7974 7965 7964 7962 ] final  125.00 input  175.53 | X-H torsion
[ 8008 7997 7996 7995 ] final -139.39 input   59.86 | X-H torsion
[ 10167 10162 10161 10158 ] final  -92.14 input  -65.29 | X-H torsion
[ 10718 10713 10712 10709 ] final   53.31 input   66.30 | X-H torsion
[ 10763 10752 10751 10750 ] final   53.29 input  -60.55 | X-H torsion
[ 11005 11000 10999 10996 ] final   -5.53 input  -57.11 | X-H torsion

> <Gold.Protein.ActiveResidues>
 VAL166  LYS551  ARG553  GLY616  TRP617  ASP618  TYR619  PRO620  LYS621  CYS622 
 ASP623  PHE694  ASN695  SER759  ASP760  ASP761  ALA762  ILE779  LEU786  VAL792 
 PHE793  MET794  SER795  GLU796  ALA797  LYS798  CYS799  TRP800  GLU811  SER814 

> <Gold.Protein.RotatedAtoms>
  152.3418  133.6075  159.5881 H   0  0  0  0  0  0  0  0  0  0  0  0  # atno 6907 bound_to 6896
  150.7483  133.9711  159.3555 H   0  0  0  0  0  0  0  0  0  0  0  0  # atno 6908 bound_to 6896
  151.7574  135.0819  160.0391 H   0  0  0  0  0  0  0  0  0  0  0  0  # atno 6909 bound_to 6896
  145.0780  139.3679  143.4924 H   0  0  0  0  0  0  0  0  0  0  0  0  # atno 7974 bound_to 7965
  155.4441  140.0534  157.3007 H   0  0  0  0  0  0  0  0  0  0  0  0  # atno 8008 bound_to 7997
  154.4805  140.2079  155.9731 H   0  0  0  0  0  0  0  0  0  0  0  0  # atno 8009 bound_to 7997
  156.1198  140.3190  155.8197 H   0  0  0  0  0  0  0  0  0  0  0  0  # atno 8010 bound_to 7997
  140.3378  143.2959  151.9869 H   0  0  0  0  0  0  0  0  0  0  0  0  # atno 10167 bound_to 10162
  157.5155  130.8529  149.8490 H   0  0  0  0  0  0  0  0  0  0  0  0  # atno 10718 bound_to 10713
  152.9794  135.5783  154.4718 H   0  0  0  0  0  0  0  0  0  0  0  0  # atno 10763 bound_to 10752
  154.4279  135.2773  155.1934 H   0  0  0  0  0  0  0  0  0  0  0  0  # atno 10764 bound_to 10752
  154.3654  135.6179  153.5766 H   0  0  0  0  0  0  0  0  0  0  0  0  # atno 10765 bound_to 10752
  140.6922  133.9062  155.8625 H   0  0  0  0  0  0  0  0  0  0  0  0  # atno 11005 bound_to 11000
  146.3530  140.0556  142.8633 LP  0  0  0  0  0  0  0  0  0  0  0  0  # atno 17320 bound_to 7965
  145.1212  140.9464  143.4599 LP  0  0  0  0  0  0  0  0  0  0  0  0  # atno 17321 bound_to 7965
  139.4845  144.6182  151.7306 LP  0  0  0  0  0  0  0  0  0  0  0  0  # atno 17342 bound_to 10162
  140.5337  144.0689  150.6063 LP  0  0  0  0  0  0  0  0  0  0  0  0  # atno 17343 bound_to 10162
  156.0317  130.3762  150.1669 LP  0  0  0  0  0  0  0  0  0  0  0  0  # atno 17370 bound_to 10713
  156.9858  130.9878  151.3426 LP  0  0  0  0  0  0  0  0  0  0  0  0  # atno 17371 bound_to 10713
  141.0232  134.0860  157.4097 LP  0  0  0  0  0  0  0  0  0  0  0  0  # atno 17394 bound_to 11000
  139.8920  135.0122  156.6823 LP  0  0  0  0  0  0  0  0  0  0  0  0  # atno 17395 bound_to 11000

$$$$
