AV-unprocessed.smi:1802|AV-procd|sdf|7272|dock2
  -GOLD-   22720 8533D 1   1.00000     0.00000
 Structure written by MMmdl.
 41 42  0  0  0  0  0  0  0  0  2 V2000
  143.8366  132.7268  148.6096 C   0  0  0  0  0  0  0  0  0  0  0  0
  143.8494  132.8297  150.1449 C   0  0  1  0  0  0  0  0  0  0  0  0
  144.9003  131.9120  150.7976 C   0  0  0  0  0  0  0  0  0  0  0  0
  146.3201  132.4643  150.6045 C   0  0  0  0  0  0  0  0  0  0  0  0
  146.4164  133.9220  151.0820 C   0  0  0  0  0  0  0  0  0  0  0  0
  145.4120  134.7757  150.3970 N   0  3  2  0  0  0  0  0  0  0  0  0
  145.5800  136.2161  150.7146 C   0  0  0  0  0  0  0  0  0  0  0  0
  145.2086  136.5340  152.1727 C   0  0  0  0  0  0  0  0  0  0  0  0
  145.7945  137.8747  152.6461 C   0  0  0  0  0  0  0  0  0  0  0  0
  147.2408  137.7994  152.8200 N   0  0  0  0  0  0  0  0  0  0  0  0
  147.9496  138.5597  153.6678 C   0  0  0  0  0  0  0  0  0  0  0  0
  147.4403  139.4062  154.4031 O   0  0  0  0  0  0  0  0  0  0  0  0
  149.2614  138.2701  153.6057 N   0  0  0  0  0  0  0  0  0  0  0  0
  150.3256  138.8508  154.3457 C   0  0  0  0  0  0  0  0  0  0  0  0
  150.2901  140.0949  154.8485 N   0  0  0  0  0  0  0  0  0  0  0  0
  151.4578  140.4137  155.5296 N   0  0  0  0  0  0  0  0  0  0  0  0
  152.3267  139.3990  155.5140 C   0  0  0  0  0  0  0  0  0  0  0  0
  151.8048  137.9554  154.6630 S   0  0  0  0  0  0  0  0  0  0  0  0
  144.0267  134.2838  150.6277 C   0  0  0  0  0  0  0  0  0  0  0  0
  144.7734  133.0685  148.1696 H   0  0  0  0  0  0  0  0  0  0  0  0
  143.0351  133.3320  148.1852 H   0  0  0  0  0  0  0  0  0  0  0  0
  143.6748  131.6980  148.2868 H   0  0  0  0  0  0  0  0  0  0  0  0
  142.8692  132.4903  150.4827 H   0  0  0  0  0  0  0  0  0  0  0  0
  144.6929  131.8324  151.8656 H   0  0  0  0  0  0  0  0  0  0  0  0
  144.8286  130.9002  150.3970 H   0  0  0  0  0  0  0  0  0  0  0  0
  147.0344  131.8470  151.1506 H   0  0  0  0  0  0  0  0  0  0  0  0
  146.6048  132.4014  149.5536 H   0  0  0  0  0  0  0  0  0  0  0  0
  146.2697  133.9782  152.1619 H   0  0  0  0  0  0  0  0  0  0  0  0
  147.4208  134.2950  150.8777 H   0  0  0  0  0  0  0  0  0  0  0  0
  146.5998  136.5337  150.4915 H   0  0  0  0  0  0  0  0  0  0  0  0
  144.9267  136.8046  150.0687 H   0  0  0  0  0  0  0  0  0  0  0  0
  144.1218  136.5570  152.2631 H   0  0  0  0  0  0  0  0  0  0  0  0
  145.5560  135.7426  152.8366 H   0  0  0  0  0  0  0  0  0  0  0  0
  145.5800  138.6535  151.9136 H   0  0  0  0  0  0  0  0  0  0  0  0
  145.3255  138.1902  153.5798 H   0  0  0  0  0  0  0  0  0  0  0  0
  147.7360  137.1291  152.2499 H   0  0  0  0  0  0  0  0  0  0  0  0
  149.5317  137.5467  152.9559 H   0  0  0  0  0  0  0  0  0  0  0  0
  153.2820  139.5018  156.0066 H   0  0  0  0  0  0  0  0  0  0  0  0
  143.3030  134.9223  150.1215 H   0  0  0  0  0  0  0  0  0  0  0  0
  143.8008  134.3477  151.6934 H   0  0  0  0  0  0  0  0  0  0  0  0
  145.5966  134.6815  149.4082 H   0  0  0  0  0  0  0  0  0  0  0  0
  1  2  1  0  0  0  0
  1 20  1  0  0  0  0
  1 21  1  0  0  0  0
  1 22  1  0  0  0  0
  2 19  1  0  0  0  0
  2  3  1  0  0  0  0
  2 23  1  0  0  0  0
  3  4  1  0  0  0  0
  3 24  1  0  0  0  0
  3 25  1  0  0  0  0
  4  5  1  0  0  0  0
  4 26  1  0  0  0  0
  4 27  1  0  0  0  0
  5  6  1  0  0  0  0
  5 28  1  0  0  0  0
  5 29  1  0  0  0  0
  6  7  1  0  0  0  0
  6 19  1  0  0  0  0
  6 41  1  0  0  0  0
  7  8  1  0  0  0  0
  7 30  1  0  0  0  0
  7 31  1  0  0  0  0
  8  9  1  0  0  0  0
  8 32  1  0  0  0  0
  8 33  1  0  0  0  0
  9 10  1  0  0  0  0
  9 34  1  0  0  0  0
  9 35  1  0  0  0  0
 10 11  1  0  0  0  0
 10 36  1  0  0  0  0
 11 12  2  0  0  0  0
 11 13  1  0  0  0  0
 13 14  1  0  0  0  0
 13 37  1  0  0  0  0
 14 18  1  0  0  0  0
 14 15  2  0  0  0  0
 15 16  1  0  0  0  0
 16 17  2  0  0  0  0
 17 18  1  0  0  0  0
 17 38  1  0  0  0  0
 19 39  1  0  0  0  0
 19 40  1  0  0  0  0
M  CHG  1   6   1
M  END
> <s_m_source_file>
AV-unprocessed.smi

> <i_m_source_file_index>
1802

> <i_lp_mmshare_version>
43012

> <i_f3d_flags>
0

> <s_epik_input>
W0NIM11bQ0BASF0xW0NIMl1bQ0gyXVtDSDJdTihbQ0gyXTEpW0NIMl1bQ0gyXVtDSDJdW05IXUMoPU8pW05IXWMybm5bY0hdczI=

> <s_epik_cmdline>
J2VwaWtfcHl0aG9uJywgJy1waCcsICc3LjAnLCAnLXRuJywgJzgnLCAnLW1hJywgJzIwMCcsICctbWV0YWxfYmluZGluZycsICctaW1hZScsICc8aW5maWxlLm1hZT4nLCAnLW9tYWUnLCAnPG91dGZpbGUubWFlPic=

> <r_lp_tautomer_probability>
1

> <r_epik_Ionization_Penalty>
0.00272894

> <r_epik_Ionization_Penalty_Charging>
0.000288442

> <r_epik_Ionization_Penalty_Neutral>
0.0024405

> <r_epik_State_Penalty>
-0

> <r_epik_Charging_Adjusted_Penalty>
0.000288442

> <i_epik_Tot_Q>
1

> <i_epik_Tot_abs_Q>
1

> <r_epik_Metal_State_Penalty>
0.350525

> <b_epik_Metal_Only>
0

> <s_lp_Force_Field>
OPLS_2005

> <r_lp_Energy>
17.5372

> <b_lp_Chiralities_Consistent>
1

> <s_lp_Variant>
AV-unprocessed.smi:1802-2

> <Gold.Version>
5.8.1

> <Gold.Id.Protein>
6NUR|6NUR_protein|mol2

> <Gold.PLP.Fitness>
47.3218

> <Gold.PLP.PLP>
-39.3928

> <Gold.PLP.part.hbond>
-5.9386

> <Gold.PLP.part.metal>
0.0000

> <Gold.PLP.part.buried>
-1.3997

> <Gold.PLP.part.nonpolar>
-32.1002

> <Gold.PLP.part.repulsive>
0.3905

> <Gold.PLP.ligand.clash>
0.0000

> <Gold.PLP.ligand.torsion>
0.4702

> <Gold.PLP.Chemscore.Hbond>
2.9440

> <Gold.PLP.Chemscore.CHOScore>
0.0000

> <Gold.PLP.Chemscore.Metal>
0.0000

> <Gold.Chemscore.Hbonds>
donor molecule, donor type, donor heavy atom, donor atom, acceptor molecule, acceptor atom, score
      L1  H     6    41       P1  7921  1.00
      L1  H    10    36       P1  7948  1.00
      L1  H    13    37       P1  7948  0.94

> <Gold.PLP.Chemscore.Internal.Correction>
0.0375

> <Gold.Rescore>
     Score         DG    S(hbond)    S(metal)    S(lipo)     H(rot)  DE(clash)    DE(int)     intcor
     18.47     -20.80       2.83        0.00      93.55       1.98       0.70       1.63       ----

> <Gold.Chemscore.Fitness>
18.4682

> <Gold.Chemscore.DG>
-20.7957

> <Gold.Chemscore.ZeroCoef>
-5.4800

> <Gold.Chemscore.Hbond>
2.8256

> <Gold.Chemscore.Metal>
0.0000

> <Gold.Chemscore.Lipo>
93.5490

> <Gold.Chemscore.Internal_Hbond>
0.0000

> <Gold.Chemscore.DEClash>
0.7016

> <Gold.Chemscore.DEInternal>
1.6259

> <Gold.Chemscore.Rot>
1.9793

> <Gold.Chemscore.Internal.Correction>
   9.000000E+99

> <Gold.Chemscore.Hbonds>
donor molecule, donor type, donor heavy atom, donor atom, acceptor molecule, acceptor atom, score
      L1  H     6    41       P1  7921  0.96
      L1  H    10    36       P1  7948  0.94
      L1  H    13    37       P1  7948  0.71

> <Gold.Chemscore.Hbond.Weighted>
-9.4375

> <Gold.Chemscore.Metal.Weighted>
-0.0000

> <Gold.Chemscore.Lipo.Weighted>
-10.9452

> <Gold.Chemscore.Internal_Hbond.Weighted>
0.0000

> <Gold.Chemscore.DEClash.Weighted>
0.7016

> <Gold.Chemscore.DEInternal.Weighted>
1.6259

> <Gold.Chemscore.Rot.Weighted>
5.0670

> <Gold.Chemscore.Internal.Correction.Weighted>
   9.000000E+99

> <Gold.Protein.RotatedTorsions>
[ 6907 6896 6895 6894 ] final  158.49 input  -60.11 | X-H torsion
[ 7974 7965 7964 7962 ] final  -35.92 input  175.53 | X-H torsion
[ 8008 7997 7996 7995 ] final  104.74 input   59.86 | X-H torsion
[ 10167 10162 10161 10158 ] final  -44.87 input  -65.29 | X-H torsion
[ 10718 10713 10712 10709 ] final -126.89 input   66.30 | X-H torsion
[ 10763 10752 10751 10750 ] final -112.71 input  -60.55 | X-H torsion
[ 11005 11000 10999 10996 ] final   67.20 input  -57.11 | X-H torsion

> <Gold.Protein.ActiveResidues>
 VAL166  LYS551  ARG553  GLY616  TRP617  ASP618  TYR619  PRO620  LYS621  CYS622 
 ASP623  PHE694  ASN695  SER759  ASP760  ASP761  ALA762  ILE779  LEU786  VAL792 
 PHE793  MET794  SER795  GLU796  ALA797  LYS798  CYS799  TRP800  GLU811  SER814 

> <Gold.Protein.RotatedAtoms>
  151.9996  133.3820  159.4176 H   0  0  0  0  0  0  0  0  0  0  0  0  # atno 6907 bound_to 6896
  150.6911  134.3849  159.5059 H   0  0  0  0  0  0  0  0  0  0  0  0  # atno 6908 bound_to 6896
  152.1594  134.8924  160.0593 H   0  0  0  0  0  0  0  0  0  0  0  0  # atno 6909 bound_to 6896
  146.0706  140.6216  142.8954 H   0  0  0  0  0  0  0  0  0  0  0  0  # atno 7974 bound_to 7965
  156.1599  140.3142  155.8789 H   0  0  0  0  0  0  0  0  0  0  0  0  # atno 8008 bound_to 7997
  155.3804  140.0487  157.3061 H   0  0  0  0  0  0  0  0  0  0  0  0  # atno 8009 bound_to 7997
  154.5136  140.2173  155.9119 H   0  0  0  0  0  0  0  0  0  0  0  0  # atno 8010 bound_to 7997
  140.6880  143.2908  151.3558 H   0  0  0  0  0  0  0  0  0  0  0  0  # atno 10167 bound_to 10162
  156.1807  130.6730  151.0301 H   0  0  0  0  0  0  0  0  0  0  0  0  # atno 10718 bound_to 10713
  154.8362  135.4481  154.1236 H   0  0  0  0  0  0  0  0  0  0  0  0  # atno 10763 bound_to 10752
  153.2465  135.6922  153.7732 H   0  0  0  0  0  0  0  0  0  0  0  0  # atno 10764 bound_to 10752
  153.7060  135.3364  155.3211 H   0  0  0  0  0  0  0  0  0  0  0  0  # atno 10765 bound_to 10752
  139.9785  134.6782  156.0307 H   0  0  0  0  0  0  0  0  0  0  0  0  # atno 11005 bound_to 11000
  144.7229  140.4432  143.6994 LP  0  0  0  0  0  0  0  0  0  0  0  0  # atno 17320 bound_to 7965
  145.6398  139.1548  143.2922 LP  0  0  0  0  0  0  0  0  0  0  0  0  # atno 17321 bound_to 7965
  139.6256  144.0822  152.2431 LP  0  0  0  0  0  0  0  0  0  0  0  0  # atno 17342 bound_to 10162
  140.0280  144.6103  150.7512 LP  0  0  0  0  0  0  0  0  0  0  0  0  # atno 17343 bound_to 10162
  157.6866  131.0823  150.7225 LP  0  0  0  0  0  0  0  0  0  0  0  0  # atno 17370 bound_to 10713
  156.7283  130.4701  149.5506 LP  0  0  0  0  0  0  0  0  0  0  0  0  # atno 17371 bound_to 10713
  141.1460  133.6556  156.3869 LP  0  0  0  0  0  0  0  0  0  0  0  0  # atno 17394 bound_to 11000
  140.5145  134.6364  157.5296 LP  0  0  0  0  0  0  0  0  0  0  0  0  # atno 17395 bound_to 11000

$$$$
