AV-unprocessed.smi:2210|AV-procd|sdf|8949|dock5
  -GOLD-   2272012163D 1   1.00000     0.00000
 Structure written by MMmdl.
 37 38  0  0  0  0  0  0  0  0  1 V2000
  149.9414  140.6893  157.1226 O   0  0  0  0  0  0  0  0  0  0  0  0
  149.5374  141.7866  156.7381 C   0  0  0  0  0  0  0  0  0  0  0  0
  148.7364  141.9478  155.6751 N   0  0  0  0  0  0  0  0  0  0  0  0
  148.2317  140.8677  154.8351 C   0  0  0  0  0  0  0  0  0  0  0  0
  147.4096  141.4080  153.6517 C   0  0  0  0  0  0  0  0  0  0  0  0
  146.3116  142.3646  154.0861 C   0  0  0  0  0  0  0  0  0  0  0  0
  146.0150  143.4753  153.3833 C   0  0  0  0  0  0  0  0  0  0  0  0
  144.9394  144.4725  153.7769 C   0  0  0  0  0  0  0  0  0  0  0  0
  144.4619  144.2778  155.2257 C   0  0  0  0  0  0  0  0  0  0  0  0
  144.2597  142.7918  155.5464 C   0  0  0  0  0  0  0  0  0  0  0  0
  145.5647  141.9964  155.3634 C   0  0  0  0  0  0  0  0  0  0  0  0
  149.8436  142.9689  157.2994 N   0  0  0  0  0  0  0  0  0  0  0  0
  150.6566  143.2239  158.4368 C   0  0  0  0  0  0  0  0  0  0  0  0
  151.5728  142.2944  158.9864 C   0  0  0  0  0  0  0  0  0  0  0  0
  152.3111  142.6619  160.1280 C   0  0  0  0  0  0  0  0  0  0  0  0
  152.1008  143.9393  160.6828 C   0  0  0  0  0  0  0  0  0  0  0  0
  151.2202  144.8291  160.1788 N   0  0  0  0  0  0  0  0  0  0  0  0
  150.5162  144.4700  159.0842 C   0  0  0  0  0  0  0  0  0  0  0  0
  148.4586  142.8858  155.4258 H   0  0  0  0  0  0  0  0  0  0  0  0
  149.0907  140.3027  154.4732 H   0  0  0  0  0  0  0  0  0  0  0  0
  147.6341  140.1768  155.4324 H   0  0  0  0  0  0  0  0  0  0  0  0
  148.0699  141.9189  152.9495 H   0  0  0  0  0  0  0  0  0  0  0  0
  146.9561  140.5837  153.1004 H   0  0  0  0  0  0  0  0  0  0  0  0
  146.5529  143.6950  152.4724 H   0  0  0  0  0  0  0  0  0  0  0  0
  145.3221  145.4849  153.6455 H   0  0  0  0  0  0  0  0  0  0  0  0
  144.1042  144.3564  153.0858 H   0  0  0  0  0  0  0  0  0  0  0  0
  145.2009  144.6937  155.9119 H   0  0  0  0  0  0  0  0  0  0  0  0
  143.5383  144.8329  155.3926 H   0  0  0  0  0  0  0  0  0  0  0  0
  143.8900  142.6699  156.5649 H   0  0  0  0  0  0  0  0  0  0  0  0
  143.4904  142.3854  154.8885 H   0  0  0  0  0  0  0  0  0  0  0  0
  145.3415  140.9291  155.3614 H   0  0  0  0  0  0  0  0  0  0  0  0
  146.2265  142.1797  156.2103 H   0  0  0  0  0  0  0  0  0  0  0  0
  149.5011  143.7892  156.8207 H   0  0  0  0  0  0  0  0  0  0  0  0
  151.7139  141.3100  158.5684 H   0  0  0  0  0  0  0  0  0  0  0  0
  153.0193  141.9774  160.5710 H   0  0  0  0  0  0  0  0  0  0  0  0
  152.6498  144.2518  161.5588 H   0  0  0  0  0  0  0  0  0  0  0  0
  149.8201  145.2066  158.7100 H   0  0  0  0  0  0  0  0  0  0  0  0
  1  2  2  0  0  0  0
  2  3  1  0  0  0  0
  2 12  1  0  0  0  0
  3  4  1  0  0  0  0
  3 19  1  0  0  0  0
  4  5  1  0  0  0  0
  4 20  1  0  0  0  0
  4 21  1  0  0  0  0
  5  6  1  0  0  0  0
  5 22  1  0  0  0  0
  5 23  1  0  0  0  0
  6 11  1  0  0  0  0
  6  7  2  0  0  0  0
  7  8  1  0  0  0  0
  7 24  1  0  0  0  0
  8  9  1  0  0  0  0
  8 25  1  0  0  0  0
  8 26  1  0  0  0  0
  9 10  1  0  0  0  0
  9 27  1  0  0  0  0
  9 28  1  0  0  0  0
 10 11  1  0  0  0  0
 10 29  1  0  0  0  0
 10 30  1  0  0  0  0
 11 31  1  0  0  0  0
 11 32  1  0  0  0  0
 12 13  1  0  0  0  0
 12 33  1  0  0  0  0
 13 18  1  0  0  0  0
 13 14  2  0  0  0  0
 14 15  1  0  0  0  0
 14 34  1  0  0  0  0
 15 16  2  0  0  0  0
 15 35  1  0  0  0  0
 16 17  1  0  0  0  0
 16 36  1  0  0  0  0
 17 18  2  0  0  0  0
 18 37  1  0  0  0  0
M  END
> <s_m_source_file>
AV-unprocessed.smi

> <i_m_source_file_index>
2210

> <i_lp_mmshare_version>
43012

> <i_f3d_flags>
0

> <s_epik_input>
W2NIXTFuW2NIXVtjSF1bY0hdYzFbTkhdQyg9TylbTkhdW0NIMl1bQ0gyXUMyPVtDSF1bQ0gyXVtDSDJdW0NIMl1bQ0gyXTI=

> <s_epik_cmdline>
J2VwaWtfcHl0aG9uJywgJy1waCcsICc3LjAnLCAnLXRuJywgJzgnLCAnLW1hJywgJzIwMCcsICctbWV0YWxfYmluZGluZycsICctaW1hZScsICc8aW5maWxlLm1hZT4nLCAnLW9tYWUnLCAnPG91dGZpbGUubWFlPic=

> <r_epik_Ionization_Penalty>
0.00482236

> <r_epik_Ionization_Penalty_Charging>
0

> <r_epik_Ionization_Penalty_Neutral>
0.00482236

> <r_epik_State_Penalty>
0.0034674

> <r_epik_Charging_Adjusted_Penalty>
0.0034674

> <i_epik_Tot_Q>
0

> <i_epik_Tot_abs_Q>
0

> <r_epik_Metal_State_Penalty>
-0

> <b_epik_Metal_Only>
0

> <s_lp_Force_Field>
OPLS_2005

> <r_lp_Energy>
10.3884

> <b_lp_Chiralities_Consistent>
1

> <s_lp_Variant>
AV-unprocessed.smi:2210-1

> <Gold.Version>
5.8.1

> <Gold.Id.Protein>
6NUR|6NUR_protein|mol2

> <Gold.PLP.Fitness>
44.6219

> <Gold.PLP.PLP>
-36.7550

> <Gold.PLP.part.hbond>
-2.0000

> <Gold.PLP.part.metal>
0.0000

> <Gold.PLP.part.buried>
-7.2309

> <Gold.PLP.part.nonpolar>
-28.4982

> <Gold.PLP.part.repulsive>
0.2726

> <Gold.PLP.ligand.clash>
0.0000

> <Gold.PLP.ligand.torsion>
0.3804

> <Gold.PLP.Chemscore.Hbond>
1.8800

> <Gold.PLP.Chemscore.CHOScore>
0.9946

> <Gold.PLP.Chemscore.Metal>
0.0000

> <Gold.Chemscore.Hbonds>
donor molecule, donor type, donor heavy atom, donor atom, acceptor molecule, acceptor atom, score
      L1  H     3    19       P1  8028  0.90
      L1  H    12    33       P1  8028  1.00
      L1  C    18    37       P1  8029  1.00

> <Gold.PLP.Chemscore.Internal.Correction>
0.0038

> <Gold.Rescore>
     Score         DG    S(hbond)    S(metal)    S(lipo)     H(rot)  DE(clash)    DE(int)     intcor
     17.63     -19.11       1.86        0.00      93.34       1.37       0.01       1.47       ----

> <Gold.Chemscore.Fitness>
17.6333

> <Gold.Chemscore.DG>
-19.1100

> <Gold.Chemscore.ZeroCoef>
-5.4800

> <Gold.Chemscore.Hbond>
1.8648

> <Gold.Chemscore.Metal>
0.0000

> <Gold.Chemscore.Lipo>
93.3406

> <Gold.Chemscore.Internal_Hbond>
0.0000

> <Gold.Chemscore.DEClash>
0.0107

> <Gold.Chemscore.DEInternal>
1.4660

> <Gold.Chemscore.Rot>
1.3747

> <Gold.Chemscore.Internal.Correction>
   9.000000E+99

> <Gold.Chemscore.Hbonds>
donor molecule, donor type, donor heavy atom, donor atom, acceptor molecule, acceptor atom, score
      L1  H     3    19       P1  8028  0.88
      L1  H    12    33       P1  8028  0.91

> <Gold.Chemscore.Hbond.Weighted>
-6.2284

> <Gold.Chemscore.Metal.Weighted>
-0.0000

> <Gold.Chemscore.Lipo.Weighted>
-10.9209

> <Gold.Chemscore.Internal_Hbond.Weighted>
0.0000

> <Gold.Chemscore.DEClash.Weighted>
0.0107

> <Gold.Chemscore.DEInternal.Weighted>
1.4660

> <Gold.Chemscore.Rot.Weighted>
3.5192

> <Gold.Chemscore.Internal.Correction.Weighted>
   9.000000E+99

> <Gold.Protein.RotatedTorsions>
[ 6907 6896 6895 6894 ] final  163.74 input  -60.11 | X-H torsion
[ 7974 7965 7964 7962 ] final  -21.08 input  175.53 | X-H torsion
[ 8008 7997 7996 7995 ] final  164.01 input   59.86 | X-H torsion
[ 10167 10162 10161 10158 ] final -158.00 input  -65.29 | X-H torsion
[ 10718 10713 10712 10709 ] final -135.99 input   66.30 | X-H torsion
[ 10763 10752 10751 10750 ] final  -54.65 input  -60.55 | X-H torsion
[ 11005 11000 10999 10996 ] final  -96.84 input  -57.11 | X-H torsion

> <Gold.Protein.ActiveResidues>
 VAL166  LYS551  ARG553  GLY616  TRP617  ASP618  TYR619  PRO620  LYS621  CYS622 
 ASP623  PHE694  ASN695  SER759  ASP760  ASP761  ALA762  ILE779  LEU786  VAL792 
 PHE793  MET794  SER795  GLU796  ALA797  LYS798  CYS799  TRP800  GLU811  SER814 

> <Gold.Protein.RotatedAtoms>
  151.9205  133.3584  159.3895 H   0  0  0  0  0  0  0  0  0  0  0  0  # atno 6907 bound_to 6896
  150.7038  134.4640  159.5403 H   0  0  0  0  0  0  0  0  0  0  0  0  # atno 6908 bound_to 6896
  152.2262  134.8365  160.0530 H   0  0  0  0  0  0  0  0  0  0  0  0  # atno 6909 bound_to 6896
  146.1753  140.4292  142.8516 H   0  0  0  0  0  0  0  0  0  0  0  0  # atno 7974 bound_to 7965
  156.1913  140.1708  156.8086 H   0  0  0  0  0  0  0  0  0  0  0  0  # atno 8008 bound_to 7997
  154.5475  140.0724  156.8645 H   0  0  0  0  0  0  0  0  0  0  0  0  # atno 8009 bound_to 7997
  155.3094  140.3366  155.4247 H   0  0  0  0  0  0  0  0  0  0  0  0  # atno 8010 bound_to 7997
  139.6726  143.9718  152.2292 H   0  0  0  0  0  0  0  0  0  0  0  0  # atno 10167 bound_to 10162
  156.2722  130.7272  151.1243 H   0  0  0  0  0  0  0  0  0  0  0  0  # atno 10718 bound_to 10713
  154.1782  135.6448  153.5027 H   0  0  0  0  0  0  0  0  0  0  0  0  # atno 10763 bound_to 10752
  153.0066  135.5399  154.6542 H   0  0  0  0  0  0  0  0  0  0  0  0  # atno 10764 bound_to 10752
  154.5899  135.2933  155.0619 H   0  0  0  0  0  0  0  0  0  0  0  0  # atno 10765 bound_to 10752
  141.1398  133.8127  157.0626 H   0  0  0  0  0  0  0  0  0  0  0  0  # atno 11005 bound_to 11000
  144.8226  140.6575  143.6343 LP  0  0  0  0  0  0  0  0  0  0  0  0  # atno 17320 bound_to 7965
  145.4230  139.1561  143.4064 LP  0  0  0  0  0  0  0  0  0  0  0  0  # atno 17321 bound_to 7965
  139.9486  144.6635  150.8194 LP  0  0  0  0  0  0  0  0  0  0  0  0  # atno 17342 bound_to 10162
  140.7624  143.3197  151.2651 LP  0  0  0  0  0  0  0  0  0  0  0  0  # atno 17343 bound_to 10162
  157.7287  131.0629  150.5806 LP  0  0  0  0  0  0  0  0  0  0  0  0  # atno 17370 bound_to 10713
  156.5903  130.4327  149.5939 LP  0  0  0  0  0  0  0  0  0  0  0  0  # atno 17371 bound_to 10713
  140.0562  134.9779  157.1224 LP  0  0  0  0  0  0  0  0  0  0  0  0  # atno 17394 bound_to 11000
  140.3916  134.2178  155.7166 LP  0  0  0  0  0  0  0  0  0  0  0  0  # atno 17395 bound_to 11000

$$$$
