AV-unprocessed.smi:1679|AV-procd|sdf|6735|dock5
  -GOLD-   22720 7483D 1   1.00000     0.00000
 Structure written by MMmdl.
 44 45  0  0  0  0  0  0  0  0  2 V2000
  153.6934  141.5064  160.2001 C   0  0  0  0  0  0  0  0  0  0  0  0
  153.1571  142.9427  160.1138 C   0  0  2  0  0  0  0  0  0  0  0  0
  152.0665  143.2074  161.1711 C   0  0  0  0  0  0  0  0  0  0  0  0
  151.5761  144.6623  161.1263 C   0  0  0  0  0  0  0  0  0  0  0  0
  151.0885  145.0446  159.7210 C   0  0  0  0  0  0  0  0  0  0  0  0
  152.1718  144.7795  158.6607 C   0  0  0  0  0  0  0  0  0  0  0  0
  152.6629  143.3203  158.6955 C   0  0  2  0  0  0  0  0  0  0  0  0
  151.5647  142.5005  158.3169 O   0  0  0  0  0  0  0  0  0  0  0  0
  151.0058  142.7809  157.0430 C   0  0  0  0  0  0  0  0  0  0  0  0
  150.9169  141.4750  156.2377 C   0  0  0  0  0  0  0  0  0  0  0  0
  149.5314  141.0558  156.0462 N   0  0  0  0  0  0  0  0  0  0  0  0
  148.9447  140.8523  154.8559 C   0  0  0  0  0  0  0  0  0  0  0  0
  149.5458  140.9481  153.7855 O   0  0  0  0  0  0  0  0  0  0  0  0
  147.4610  140.4616  154.8829 C   0  0  0  0  0  0  0  0  0  0  0  0
  146.5750  141.6326  154.7787 N   0  0  0  0  0  0  0  0  0  0  0  0
  146.5764  142.3316  153.5588 C   0  0  0  0  0  0  0  0  0  0  0  0
  145.7807  143.3965  153.3463 C   0  0  0  0  0  0  0  0  0  0  0  0
  144.8985  143.8236  154.4246 C   0  0  0  0  0  0  0  0  0  0  0  0
  144.1547  144.7858  154.2439 O   0  0  0  0  0  0  0  0  0  0  0  0
  144.9436  143.1235  155.5955 N   0  5  0  0  0  0  0  0  0  0  0  0
  145.7612  142.0437  155.7982 C   0  0  0  0  0  0  0  0  0  0  0  0
  145.7883  141.4315  156.8658 O   0  0  0  0  0  0  0  0  0  0  0  0
  152.9058  140.7764  160.0154 H   0  0  0  0  0  0  0  0  0  0  0  0
  154.1048  141.3018  161.1888 H   0  0  0  0  0  0  0  0  0  0  0  0
  154.4861  141.3374  159.4713 H   0  0  0  0  0  0  0  0  0  0  0  0
  153.9963  143.6000  160.3457 H   0  0  0  0  0  0  0  0  0  0  0  0
  151.2233  142.5347  161.0128 H   0  0  0  0  0  0  0  0  0  0  0  0
  152.4502  142.9861  162.1674 H   0  0  0  0  0  0  0  0  0  0  0  0
  150.7727  144.8039  161.8497 H   0  0  0  0  0  0  0  0  0  0  0  0
  152.3845  145.3298  161.4266 H   0  0  0  0  0  0  0  0  0  0  0  0
  150.1908  144.4734  159.4802 H   0  0  0  0  0  0  0  0  0  0  0  0
  150.7988  146.0953  159.7018 H   0  0  0  0  0  0  0  0  0  0  0  0
  151.7861  145.0189  157.6693 H   0  0  0  0  0  0  0  0  0  0  0  0
  153.0148  145.4499  158.8318 H   0  0  0  0  0  0  0  0  0  0  0  0
  153.4822  143.2207  157.9809 H   0  0  0  0  0  0  0  0  0  0  0  0
  150.0102  143.2057  157.1769 H   0  0  0  0  0  0  0  0  0  0  0  0
  151.6007  143.5164  156.5008 H   0  0  0  0  0  0  0  0  0  0  0  0
  151.4281  141.5781  155.2790 H   0  0  0  0  0  0  0  0  0  0  0  0
  151.4315  140.6801  156.7780 H   0  0  0  0  0  0  0  0  0  0  0  0
  148.9686  140.9430  156.8765 H   0  0  0  0  0  0  0  0  0  0  0  0
  147.2717  139.7561  154.0724 H   0  0  0  0  0  0  0  0  0  0  0  0
  147.2401  139.9078  155.7971 H   0  0  0  0  0  0  0  0  0  0  0  0
  147.2532  141.9470  152.8103 H   0  0  0  0  0  0  0  0  0  0  0  0
  145.7911  143.9172  152.4003 H   0  0  0  0  0  0  0  0  0  0  0  0
  1  2  1  0  0  0  0
  1 23  1  0  0  0  0
  1 24  1  0  0  0  0
  1 25  1  0  0  0  0
  2  7  1  0  0  0  0
  2  3  1  0  0  0  0
  2 26  1  0  0  0  0
  3  4  1  0  0  0  0
  3 27  1  0  0  0  0
  3 28  1  0  0  0  0
  4  5  1  0  0  0  0
  4 29  1  0  0  0  0
  4 30  1  0  0  0  0
  5  6  1  0  0  0  0
  5 31  1  0  0  0  0
  5 32  1  0  0  0  0
  6  7  1  0  0  0  0
  6 33  1  0  0  0  0
  6 34  1  0  0  0  0
  7  8  1  0  0  0  0
  7 35  1  0  0  0  0
  8  9  1  0  0  0  0
  9 10  1  0  0  0  0
  9 36  1  0  0  0  0
  9 37  1  0  0  0  0
 10 11  1  0  0  0  0
 10 38  1  0  0  0  0
 10 39  1  0  0  0  0
 11 12  1  0  0  0  0
 11 40  1  0  0  0  0
 12 13  2  0  0  0  0
 12 14  1  0  0  0  0
 14 15  1  0  0  0  0
 14 41  1  0  0  0  0
 14 42  1  0  0  0  0
 15 21  1  0  0  0  0
 15 16  1  0  0  0  0
 16 17  2  0  0  0  0
 16 43  1  0  0  0  0
 17 18  1  0  0  0  0
 17 44  1  0  0  0  0
 18 19  2  0  0  0  0
 18 20  1  0  0  0  0
 20 21  1  0  0  0  0
 21 22  2  0  0  0  0
M  CHG  1  20  -1
M  END
> <s_m_source_file>
AV-unprocessed.smi

> <i_m_source_file_index>
1679

> <i_lp_mmshare_version>
43012

> <i_f3d_flags>
0

> <s_epik_input>
W0NIM11bQ0BASF0xW0NIMl1bQ0gyXVtDSDJdW0NIMl1bQ0BIXTFPW0NIMl1bQ0gyXVtOSF1DKD1PKVtDSDJdbjJbY0hdW2NIXWMoPU8pW25IXWMyPU8=

> <s_epik_cmdline>
J2VwaWtfcHl0aG9uJywgJy1waCcsICc3LjAnLCAnLXRuJywgJzgnLCAnLW1hJywgJzIwMCcsICctbWV0YWxfYmluZGluZycsICctaW1hZScsICc8aW5maWxlLm1hZT4nLCAnLW9tYWUnLCAnPG91dGZpbGUubWFlPic=

> <r_lp_tautomer_probability>
0.999537

> <r_epik_Ionization_Penalty>
3.07454

> <r_epik_Ionization_Penalty_Charging>
2.80088e-08

> <r_epik_Ionization_Penalty_Neutral>
3.07454

> <r_epik_State_Penalty>
3.07357

> <r_epik_Charging_Adjusted_Penalty>
3.07357

> <i_epik_Tot_Q>
-1

> <i_epik_Tot_abs_Q>
1

> <r_epik_Metal_State_Penalty>
0.45948

> <b_epik_Metal_Only>
1

> <s_lp_Force_Field>
OPLS_2005

> <r_lp_Energy>
19.9019

> <b_lp_Chiralities_Consistent>
1

> <s_lp_Variant>
AV-unprocessed.smi:1679-7

> <Gold.Version>
5.8.1

> <Gold.Id.Protein>
6NUR|6NUR_protein|mol2

> <Gold.PLP.Fitness>
50.9259

> <Gold.PLP.PLP>
-49.5817

> <Gold.PLP.part.hbond>
-2.0000

> <Gold.PLP.part.metal>
0.0000

> <Gold.PLP.part.buried>
-7.2296

> <Gold.PLP.part.nonpolar>
-42.0206

> <Gold.PLP.part.repulsive>
2.2918

> <Gold.PLP.ligand.clash>
0.0000

> <Gold.PLP.ligand.torsion>
1.1346

> <Gold.PLP.Chemscore.Hbond>
1.1792

> <Gold.PLP.Chemscore.CHOScore>
0.0000

> <Gold.PLP.Chemscore.Metal>
0.0000

> <Gold.Chemscore.Hbonds>
donor molecule, donor type, donor heavy atom, donor atom, acceptor molecule, acceptor atom, score
      P1  H  7989  7998       L1    13  0.34
      P1  H  8011  8017       L1    13  0.86

> <Gold.PLP.Chemscore.Internal.Correction>
0.0760

> <Gold.Rescore>
     Score         DG    S(hbond)    S(metal)    S(lipo)     H(rot)  DE(clash)    DE(int)     intcor
     14.83     -17.19       1.13        0.00     121.36       2.45       1.20       1.16       ----

> <Gold.Chemscore.Fitness>
14.8317

> <Gold.Chemscore.DG>
-17.1946

> <Gold.Chemscore.ZeroCoef>
-5.4800

> <Gold.Chemscore.Hbond>
1.1331

> <Gold.Chemscore.Metal>
0.0000

> <Gold.Chemscore.Lipo>
121.3641

> <Gold.Chemscore.Internal_Hbond>
0.0000

> <Gold.Chemscore.DEClash>
1.2029

> <Gold.Chemscore.DEInternal>
1.1600

> <Gold.Chemscore.Rot>
2.4490

> <Gold.Chemscore.Internal.Correction>
   9.000000E+99

> <Gold.Chemscore.Hbonds>
donor molecule, donor type, donor heavy atom, donor atom, acceptor molecule, acceptor atom, score
      P1  H  7989  7998       L1    13  0.33
      P1  H  8011  8017       L1    13  0.80

> <Gold.Chemscore.Hbond.Weighted>
-3.7844

> <Gold.Chemscore.Metal.Weighted>
-0.0000

> <Gold.Chemscore.Lipo.Weighted>
-14.1996

> <Gold.Chemscore.Internal_Hbond.Weighted>
0.0000

> <Gold.Chemscore.DEClash.Weighted>
1.2029

> <Gold.Chemscore.DEInternal.Weighted>
1.1600

> <Gold.Chemscore.Rot.Weighted>
6.2694

> <Gold.Chemscore.Internal.Correction.Weighted>
   9.000000E+99

> <Gold.Protein.RotatedTorsions>
[ 6907 6896 6895 6894 ] final    7.21 input  -60.11 | X-H torsion
[ 7974 7965 7964 7962 ] final -139.00 input  175.53 | X-H torsion
[ 8008 7997 7996 7995 ] final   32.38 input   59.86 | X-H torsion
[ 10167 10162 10161 10158 ] final  173.65 input  -65.29 | X-H torsion
[ 10718 10713 10712 10709 ] final  -91.16 input   66.30 | X-H torsion
[ 10763 10752 10751 10750 ] final   -2.49 input  -60.55 | X-H torsion
[ 11005 11000 10999 10996 ] final -122.28 input  -57.11 | X-H torsion

> <Gold.Protein.ActiveResidues>
 VAL166  LYS551  ARG553  GLY616  TRP617  ASP618  TYR619  PRO620  LYS621  CYS622 
 ASP623  PHE694  ASN695  SER759  ASP760  ASP761  ALA762  ILE779  LEU786  VAL792 
 PHE793  MET794  SER795  GLU796  ALA797  LYS798  CYS799  TRP800  GLU811  SER814 

> <Gold.Protein.RotatedAtoms>
  151.6861  135.0954  160.0224 H   0  0  0  0  0  0  0  0  0  0  0  0  # atno 6907 bound_to 6896
  152.3806  133.6537  159.6167 H   0  0  0  0  0  0  0  0  0  0  0  0  # atno 6908 bound_to 6896
  150.7744  133.9036  159.3390 H   0  0  0  0  0  0  0  0  0  0  0  0  # atno 6909 bound_to 6896
  144.8712  140.6370  143.5265 H   0  0  0  0  0  0  0  0  0  0  0  0  # atno 7974 bound_to 7965
  155.1215  140.3248  155.4496 H   0  0  0  0  0  0  0  0  0  0  0  0  # atno 8008 bound_to 7997
  156.2661  140.2026  156.6285 H   0  0  0  0  0  0  0  0  0  0  0  0  # atno 8009 bound_to 7997
  154.6680  140.0539  157.0122 H   0  0  0  0  0  0  0  0  0  0  0  0  # atno 8010 bound_to 7997
  139.5115  144.3236  152.0179 H   0  0  0  0  0  0  0  0  0  0  0  0  # atno 10167 bound_to 10162
  155.9992  130.4937  150.5432 H   0  0  0  0  0  0  0  0  0  0  0  0  # atno 10718 bound_to 10713
  153.3587  135.6989  153.6730 H   0  0  0  0  0  0  0  0  0  0  0  0  # atno 10763 bound_to 10752
  153.5427  135.3569  155.2726 H   0  0  0  0  0  0  0  0  0  0  0  0  # atno 10764 bound_to 10752
  154.8665  135.4207  154.2839 H   0  0  0  0  0  0  0  0  0  0  0  0  # atno 10765 bound_to 10752
  141.0007  134.0407  157.3541 H   0  0  0  0  0  0  0  0  0  0  0  0  # atno 11005 bound_to 11000
  145.4126  139.1577  143.4117 LP  0  0  0  0  0  0  0  0  0  0  0  0  # atno 17320 bound_to 7965
  146.2932  140.4231  142.8732 LP  0  0  0  0  0  0  0  0  0  0  0  0  # atno 17321 bound_to 7965
  140.2677  144.3998  150.6162 LP  0  0  0  0  0  0  0  0  0  0  0  0  # atno 17342 bound_to 10162
  140.6111  143.2169  151.6884 LP  0  0  0  0  0  0  0  0  0  0  0  0  # atno 17343 bound_to 10162
  157.3365  131.0709  151.1821 LP  0  0  0  0  0  0  0  0  0  0  0  0  # atno 17370 bound_to 10713
  157.2683  130.6692  149.6007 LP  0  0  0  0  0  0  0  0  0  0  0  0  # atno 17371 bound_to 10713
  139.9037  135.0173  156.7388 LP  0  0  0  0  0  0  0  0  0  0  0  0  # atno 17394 bound_to 11000
  140.6894  133.9403  155.7957 LP  0  0  0  0  0  0  0  0  0  0  0  0  # atno 17395 bound_to 11000

$$$$
