AV-unprocessed.smi:528|AV-procd|sdf|2832|dock4
  -GOLD-   2262023323D 1   1.00000     0.00000
 Structure written by MMmdl.
 45 47  0  0  0  0  0  0  0  0  1 V2000
  151.5831  137.1792  157.5275 C   0  0  0  0  0  0  0  0  0  0  0  0
  150.3138  137.9664  157.1586 C   0  0  1  0  0  0  0  0  0  0  0  0
  149.1304  137.2112  157.5651 N   0  0  0  0  0  0  0  0  0  0  0  0
  148.8361  136.8334  158.8186 C   0  0  0  0  0  0  0  0  0  0  0  0
  149.5377  137.1135  159.7916 O   0  0  0  0  0  0  0  0  0  0  0  0
  147.5364  136.0338  158.9879 C   0  0  0  0  0  0  0  0  0  0  0  0
  147.4851  135.2586  160.2388 N   0  0  0  0  0  0  0  0  0  0  0  0
  147.5717  133.8565  160.1294 C   0  0  0  0  0  0  0  0  0  0  0  0
  147.5247  133.0339  161.1949 C   0  0  0  0  0  0  0  0  0  0  0  0
  147.6727  131.5273  161.0503 C   0  0  0  0  0  0  0  0  0  0  0  0
  148.7224  131.0801  161.7398 F   0  0  0  0  0  0  0  0  0  0  0  0
  146.5823  130.9183  161.5132 F   0  0  0  0  0  0  0  0  0  0  0  0
  147.8320  131.1790  159.7728 F   0  0  0  0  0  0  0  0  0  0  0  0
  147.4116  133.6670  162.4942 C   0  0  0  0  0  0  0  0  0  0  0  0
  147.3314  135.0065  162.6167 C   0  0  0  0  0  0  0  0  0  0  0  0
  147.3598  135.8866  161.4464 C   0  0  0  0  0  0  0  0  0  0  0  0
  147.2783  137.1113  161.5449 O   0  0  0  0  0  0  0  0  0  0  0  0
  150.2753  139.3657  157.8171 C   0  0  2  0  0  0  0  0  0  0  0  0
  148.9758  140.1655  157.5660 C   0  0  0  0  0  0  0  0  0  0  0  0
  149.4972  141.5407  157.1099 C   0  0  2  0  0  0  0  0  0  0  0  0
  150.0345  141.4224  155.6722 C   0  0  0  0  0  0  0  0  0  0  0  0
  151.3460  140.6394  155.8659 C   0  0  0  0  0  0  0  0  0  0  0  0
  151.3675  140.3766  157.3862 C   0  0  1  0  0  0  0  0  0  0  0  0
  150.7830  141.6823  157.9164 C   0  0  0  0  0  0  0  0  0  0  0  0
  152.4814  137.6933  157.1856 H   0  0  0  0  0  0  0  0  0  0  0  0
  151.5838  136.1912  157.0664 H   0  0  0  0  0  0  0  0  0  0  0  0
  151.6669  137.0433  158.6062 H   0  0  0  0  0  0  0  0  0  0  0  0
  150.2818  138.0859  156.0752 H   0  0  0  0  0  0  0  0  0  0  0  0
  148.4917  136.9430  156.8304 H   0  0  0  0  0  0  0  0  0  0  0  0
  146.6999  136.7319  158.9340 H   0  0  0  0  0  0  0  0  0  0  0  0
  147.4076  135.3691  158.1314 H   0  0  0  0  0  0  0  0  0  0  0  0
  147.6747  133.4900  159.1183 H   0  0  0  0  0  0  0  0  0  0  0  0
  147.3844  133.0569  163.3850 H   0  0  0  0  0  0  0  0  0  0  0  0
  147.2436  135.4435  163.6007 H   0  0  0  0  0  0  0  0  0  0  0  0
  150.3761  139.2238  158.8951 H   0  0  0  0  0  0  0  0  0  0  0  0
  148.3316  139.7106  156.8122 H   0  0  0  0  0  0  0  0  0  0  0  0
  148.3965  140.2510  158.4861 H   0  0  0  0  0  0  0  0  0  0  0  0
  148.7763  142.3479  157.2416 H   0  0  0  0  0  0  0  0  0  0  0  0
  149.3365  140.9091  155.0098 H   0  0  0  0  0  0  0  0  0  0  0  0
  150.2351  142.4072  155.2485 H   0  0  0  0  0  0  0  0  0  0  0  0
  151.3919  139.7321  155.2653 H   0  0  0  0  0  0  0  0  0  0  0  0
  152.1972  141.2575  155.5775 H   0  0  0  0  0  0  0  0  0  0  0  0
  152.3589  140.1399  157.7732 H   0  0  0  0  0  0  0  0  0  0  0  0
  151.3690  142.5627  157.6455 H   0  0  0  0  0  0  0  0  0  0  0  0
  150.6199  141.6808  158.9956 H   0  0  0  0  0  0  0  0  0  0  0  0
  1  2  1  0  0  0  0
  1 25  1  0  0  0  0
  1 26  1  0  0  0  0
  1 27  1  0  0  0  0
  2  3  1  0  0  0  0
  2 18  1  0  0  0  0
  2 28  1  0  0  0  0
  3  4  1  0  0  0  0
  3 29  1  0  0  0  0
  4  5  2  0  0  0  0
  4  6  1  0  0  0  0
  6  7  1  0  0  0  0
  6 30  1  0  0  0  0
  6 31  1  0  0  0  0
  7 16  1  0  0  0  0
  7  8  1  0  0  0  0
  8  9  2  0  0  0  0
  8 32  1  0  0  0  0
  9 10  1  0  0  0  0
  9 14  1  0  0  0  0
 10 11  1  0  0  0  0
 10 12  1  0  0  0  0
 10 13  1  0  0  0  0
 14 15  2  0  0  0  0
 14 33  1  0  0  0  0
 15 16  1  0  0  0  0
 15 34  1  0  0  0  0
 16 17  2  0  0  0  0
 18 23  1  0  0  0  0
 18 19  1  0  0  0  0
 18 35  1  0  0  0  0
 19 20  1  0  0  0  0
 19 36  1  0  0  0  0
 19 37  1  0  0  0  0
 20 24  1  0  0  0  0
 20 21  1  0  0  0  0
 20 38  1  0  0  0  0
 21 22  1  0  0  0  0
 21 39  1  0  0  0  0
 21 40  1  0  0  0  0
 22 23  1  0  0  0  0
 22 41  1  0  0  0  0
 22 42  1  0  0  0  0
 23 24  1  0  0  0  0
 23 43  1  0  0  0  0
 24 44  1  0  0  0  0
 24 45  1  0  0  0  0
M  END
> <s_m_source_file>
AV-unprocessed.smi

> <i_m_source_file_index>
528

> <i_lp_mmshare_version>
43012

> <i_f3d_flags>
0

> <s_epik_input>
W0NIMl0xW0NIMl1bQ0BASF0oW0NIMl0yKVtDQEBIXShbQ0gyXVtDQEhdMTIpW0NASF0oW0NIM10pW05IXUMoPU8pW0NIMl1uM1tjSF1jKEMoRikoRilGKVtjSF1bY0hdYzM9Tw==

> <s_epik_cmdline>
J2VwaWtfcHl0aG9uJywgJy1waCcsICc3LjAnLCAnLXRuJywgJzgnLCAnLW1hJywgJzIwMCcsICctbWV0YWxfYmluZGluZycsICctaW1hZScsICc8aW5maWxlLm1hZT4nLCAnLW9tYWUnLCAnPG91dGZpbGUubWFlPic=

> <r_lp_tautomer_probability>
1

> <r_epik_Ionization_Penalty>
4.09479e-08

> <r_epik_Ionization_Penalty_Charging>
1.9321e-08

> <r_epik_Ionization_Penalty_Neutral>
2.16269e-08

> <r_epik_State_Penalty>
-0

> <r_epik_Charging_Adjusted_Penalty>
1.9321e-08

> <i_epik_Tot_Q>
0

> <i_epik_Tot_abs_Q>
0

> <r_epik_Metal_State_Penalty>
-0

> <b_epik_Metal_Only>
0

> <s_lp_Force_Field>
OPLS_2005

> <r_lp_Energy>
63.1325

> <b_lp_Chiralities_Consistent>
1

> <s_lp_Variant>
AV-unprocessed.smi:528-2

> <Gold.Version>
5.8.1

> <Gold.Id.Protein>
6NUR|6NUR_protein|mol2

> <Gold.PLP.Fitness>
45.1115

> <Gold.PLP.PLP>
-41.8526

> <Gold.PLP.part.hbond>
-3.0000

> <Gold.PLP.part.metal>
0.0000

> <Gold.PLP.part.buried>
-6.4907

> <Gold.PLP.part.nonpolar>
-32.5709

> <Gold.PLP.part.repulsive>
0.0608

> <Gold.PLP.ligand.clash>
1.3126

> <Gold.PLP.ligand.torsion>
0.4422

> <Gold.PLP.Chemscore.Hbond>
1.7760

> <Gold.PLP.Chemscore.CHOScore>
0.0000

> <Gold.PLP.Chemscore.Metal>
0.0000

> <Gold.Chemscore.Hbonds>
donor molecule, donor type, donor heavy atom, donor atom, acceptor molecule, acceptor atom, score
      P1  H  6931  6943       L1    17  0.71
      P1  H  6934  6947       L1    17  0.94

> <Gold.PLP.Chemscore.Internal.Correction>
0.1279

> <Gold.Rescore>
     Score         DG    S(hbond)    S(metal)    S(lipo)     H(rot)  DE(clash)    DE(int)     intcor
     12.87     -14.89       1.31        0.00      80.59       1.71       0.16       1.86       ----

> <Gold.Chemscore.Fitness>
12.8724

> <Gold.Chemscore.DG>
-14.8924

> <Gold.Chemscore.ZeroCoef>
-5.4800

> <Gold.Chemscore.Hbond>
1.3077

> <Gold.Chemscore.Metal>
0.0000

> <Gold.Chemscore.Lipo>
80.5872

> <Gold.Chemscore.Internal_Hbond>
0.0000

> <Gold.Chemscore.DEClash>
0.1649

> <Gold.Chemscore.DEInternal>
1.8552

> <Gold.Chemscore.Rot>
1.7125

> <Gold.Chemscore.Internal.Correction>
   9.000000E+99

> <Gold.Chemscore.Hbonds>
donor molecule, donor type, donor heavy atom, donor atom, acceptor molecule, acceptor atom, score
      P1  H  6931  6943       L1    17  0.67
      P1  H  6934  6947       L1    17  0.87

> <Gold.Chemscore.Hbond.Weighted>
-4.3677

> <Gold.Chemscore.Metal.Weighted>
-0.0000

> <Gold.Chemscore.Lipo.Weighted>
-9.4287

> <Gold.Chemscore.Internal_Hbond.Weighted>
0.0000

> <Gold.Chemscore.DEClash.Weighted>
0.1649

> <Gold.Chemscore.DEInternal.Weighted>
1.8552

> <Gold.Chemscore.Rot.Weighted>
4.3840

> <Gold.Chemscore.Internal.Correction.Weighted>
   9.000000E+99

> <Gold.Protein.RotatedTorsions>
[ 6907 6896 6895 6894 ] final  -39.86 input  -60.11 | X-H torsion
[ 7974 7965 7964 7962 ] final   85.31 input  175.53 | X-H torsion
[ 8008 7997 7996 7995 ] final -142.63 input   59.86 | X-H torsion
[ 10167 10162 10161 10158 ] final   23.06 input  -65.29 | X-H torsion
[ 10718 10713 10712 10709 ] final  158.40 input   66.30 | X-H torsion
[ 10763 10752 10751 10750 ] final  112.37 input  -60.55 | X-H torsion
[ 11005 11000 10999 10996 ] final -168.56 input  -57.11 | X-H torsion

> <Gold.Protein.ActiveResidues>
 VAL166  LYS551  ARG553  GLY616  TRP617  ASP618  TYR619  PRO620  LYS621  CYS622 
 ASP623  PHE694  ASN695  SER759  ASP760  ASP761  ALA762  ILE779  LEU786  VAL792 
 PHE793  MET794  SER795  GLU796  ALA797  LYS798  CYS799  TRP800  GLU811  SER814 

> <Gold.Protein.RotatedAtoms>
  150.9853  134.9199  159.7867 H   0  0  0  0  0  0  0  0  0  0  0  0  # atno 6907 bound_to 6896
  152.5234  134.3355  159.9208 H   0  0  0  0  0  0  0  0  0  0  0  0  # atno 6908 bound_to 6896
  151.3362  133.3939  159.2701 H   0  0  0  0  0  0  0  0  0  0  0  0  # atno 6909 bound_to 6896
  145.5872  139.2333  143.2320 H   0  0  0  0  0  0  0  0  0  0  0  0  # atno 7974 bound_to 7965
  155.4974  140.0572  157.2944 H   0  0  0  0  0  0  0  0  0  0  0  0  # atno 8008 bound_to 7997
  154.4600  140.1992  156.0222 H   0  0  0  0  0  0  0  0  0  0  0  0  # atno 8009 bound_to 7997
  156.0872  140.3238  155.7773 H   0  0  0  0  0  0  0  0  0  0  0  0  # atno 8010 bound_to 7997
  140.5299  143.9859  150.6460 H   0  0  0  0  0  0  0  0  0  0  0  0  # atno 10167 bound_to 10162
  157.1783  131.0626  151.2145 H   0  0  0  0  0  0  0  0  0  0  0  0  # atno 10718 bound_to 10713
  153.4768  135.3688  155.2421 H   0  0  0  0  0  0  0  0  0  0  0  0  # atno 10763 bound_to 10752
  154.8756  135.3944  154.3747 H   0  0  0  0  0  0  0  0  0  0  0  0  # atno 10764 bound_to 10752
  153.4344  135.7083  153.6274 H   0  0  0  0  0  0  0  0  0  0  0  0  # atno 10765 bound_to 10752
  140.5406  134.5526  157.5098 H   0  0  0  0  0  0  0  0  0  0  0  0  # atno 11005 bound_to 11000
  146.1674  140.6698  142.9249 LP  0  0  0  0  0  0  0  0  0  0  0  0  # atno 17320 bound_to 7965
  144.7367  140.4829  143.6898 LP  0  0  0  0  0  0  0  0  0  0  0  0  # atno 17321 bound_to 7965
  140.3231  143.3124  152.0763 LP  0  0  0  0  0  0  0  0  0  0  0  0  # atno 17342 bound_to 10162
  139.4951  144.6560  151.6571 LP  0  0  0  0  0  0  0  0  0  0  0  0  # atno 17343 bound_to 10162
  157.3977  130.7316  149.6744 LP  0  0  0  0  0  0  0  0  0  0  0  0  # atno 17370 bound_to 10713
  155.9728  130.4129  150.4056 LP  0  0  0  0  0  0  0  0  0  0  0  0  # atno 17371 bound_to 10713
  139.9506  134.7624  156.0458 LP  0  0  0  0  0  0  0  0  0  0  0  0  # atno 17394 bound_to 11000
  141.1229  133.6607  156.3261 LP  0  0  0  0  0  0  0  0  0  0  0  0  # atno 17395 bound_to 11000

$$$$
