AV-unprocessed.smi:747|AV-procd|sdf|3580|dock4
  -GOLD-   22720 0573D 1   1.00000     0.00000
 Structure written by MMmdl.
 48 49  0  0  0  0  0  0  0  0  1 V2000
  154.4124  140.8260  162.2238 C   0  0  0  0  0  0  0  0  0  0  0  0
  153.5739  141.8678  161.6685 N   0  0  0  0  0  0  0  0  0  0  0  0
  153.1053  142.9035  162.5131 C   0  0  0  0  0  0  0  0  0  0  0  0
  153.3775  142.9588  163.7127 O   0  0  0  0  0  0  0  0  0  0  0  0
  152.2747  143.8973  161.8433 C   0  0  0  0  0  0  0  0  0  0  0  0
  151.9991  143.7971  160.5246 C   0  0  0  0  0  0  0  0  0  0  0  0
  152.4689  142.7731  159.7227 N   0  0  0  0  0  0  0  0  0  0  0  0
  152.1290  142.7585  158.2942 C   0  0  0  0  0  0  0  0  0  0  0  0
  151.4247  141.4703  157.8469 C   0  0  0  0  0  0  0  0  0  0  0  0
  151.0343  140.6378  158.6670 O   0  0  0  0  0  0  0  0  0  0  0  0
  151.2829  141.3189  156.5219 N   0  0  0  0  0  0  0  0  0  0  0  0
  150.6745  140.1678  155.8506 C   0  0  2  0  0  0  0  0  0  0  0  0
  151.7572  139.3449  155.0950 C   0  0  0  0  0  0  0  0  0  0  0  0
  151.4161  137.8695  154.8318 C   0  0  0  0  0  0  0  0  0  0  0  0
  151.2860  137.5005  153.5552 N   0  0  0  0  0  0  0  0  0  0  0  0
  151.2631  137.0736  155.7564 O   0  0  0  0  0  0  0  0  0  0  0  0
  149.4719  140.6295  154.9770 C   0  0  0  0  0  0  0  0  0  0  0  0
  148.4845  141.5181  155.7750 C   0  0  0  0  0  0  0  0  0  0  0  0
  147.2915  141.9754  154.9202 C   0  0  0  0  0  0  0  0  0  0  0  0
  146.5492  140.7772  154.3148 C   0  0  0  0  0  0  0  0  0  0  0  0
  147.5089  139.8967  153.5041 C   0  0  0  0  0  0  0  0  0  0  0  0
  148.7031  139.4383  154.3565 C   0  0  0  0  0  0  0  0  0  0  0  0
  153.2839  141.7705  160.2897 C   0  0  0  0  0  0  0  0  0  0  0  0
  153.7235  140.8483  159.5982 O   0  0  0  0  0  0  0  0  0  0  0  0
  154.5812  140.9760  163.2895 H   0  0  0  0  0  0  0  0  0  0  0  0
  155.3641  140.8591  161.6904 H   0  0  0  0  0  0  0  0  0  0  0  0
  153.8985  139.8767  162.0618 H   0  0  0  0  0  0  0  0  0  0  0  0
  151.8756  144.7255  162.4102 H   0  0  0  0  0  0  0  0  0  0  0  0
  151.3823  144.5611  160.0739 H   0  0  0  0  0  0  0  0  0  0  0  0
  151.5031  143.6151  158.0384 H   0  0  0  0  0  0  0  0  0  0  0  0
  153.0390  142.8752  157.7038 H   0  0  0  0  0  0  0  0  0  0  0  0
  151.6402  142.0506  155.9248 H   0  0  0  0  0  0  0  0  0  0  0  0
  150.2640  139.5156  156.6238 H   0  0  0  0  0  0  0  0  0  0  0  0
  151.9590  139.8098  154.1293 H   0  0  0  0  0  0  0  0  0  0  0  0
  152.7023  139.4048  155.6354 H   0  0  0  0  0  0  0  0  0  0  0  0
  151.0654  136.5423  153.3261 H   0  0  0  0  0  0  0  0  0  0  0  0
  151.4121  138.1831  152.8218 H   0  0  0  0  0  0  0  0  0  0  0  0
  149.8588  141.2359  154.1567 H   0  0  0  0  0  0  0  0  0  0  0  0
  148.1181  140.9690  156.6433 H   0  0  0  0  0  0  0  0  0  0  0  0
  148.9872  142.4035  156.1642 H   0  0  0  0  0  0  0  0  0  0  0  0
  146.6061  142.5677  155.5274 H   0  0  0  0  0  0  0  0  0  0  0  0
  147.6429  142.6306  154.1222 H   0  0  0  0  0  0  0  0  0  0  0  0
  146.0931  140.1873  155.1108 H   0  0  0  0  0  0  0  0  0  0  0  0
  145.7344  141.1249  153.6791 H   0  0  0  0  0  0  0  0  0  0  0  0
  146.9762  139.0285  153.1146 H   0  0  0  0  0  0  0  0  0  0  0  0
  147.8705  140.4515  152.6374 H   0  0  0  0  0  0  0  0  0  0  0  0
  149.3613  138.8441  153.7237 H   0  0  0  0  0  0  0  0  0  0  0  0
  148.3521  138.7742  155.1475 H   0  0  0  0  0  0  0  0  0  0  0  0
  1  2  1  0  0  0  0
  1 25  1  0  0  0  0
  1 26  1  0  0  0  0
  1 27  1  0  0  0  0
  2 23  1  0  0  0  0
  2  3  1  0  0  0  0
  3  4  2  0  0  0  0
  3  5  1  0  0  0  0
  5  6  2  0  0  0  0
  5 28  1  0  0  0  0
  6  7  1  0  0  0  0
  6 29  1  0  0  0  0
  7  8  1  0  0  0  0
  7 23  1  0  0  0  0
  8  9  1  0  0  0  0
  8 30  1  0  0  0  0
  8 31  1  0  0  0  0
  9 10  2  0  0  0  0
  9 11  1  0  0  0  0
 11 12  1  0  0  0  0
 11 32  1  0  0  0  0
 12 13  1  0  0  0  0
 12 17  1  0  0  0  0
 12 33  1  0  0  0  0
 13 14  1  0  0  0  0
 13 34  1  0  0  0  0
 13 35  1  0  0  0  0
 14 15  1  0  0  0  0
 14 16  2  0  0  0  0
 15 36  1  0  0  0  0
 15 37  1  0  0  0  0
 17 22  1  0  0  0  0
 17 18  1  0  0  0  0
 17 38  1  0  0  0  0
 18 19  1  0  0  0  0
 18 39  1  0  0  0  0
 18 40  1  0  0  0  0
 19 20  1  0  0  0  0
 19 41  1  0  0  0  0
 19 42  1  0  0  0  0
 20 21  1  0  0  0  0
 20 43  1  0  0  0  0
 20 44  1  0  0  0  0
 21 22  1  0  0  0  0
 21 45  1  0  0  0  0
 21 46  1  0  0  0  0
 22 47  1  0  0  0  0
 22 48  1  0  0  0  0
 23 24  2  0  0  0  0
M  END
> <s_m_source_file>
AV-unprocessed.smi

> <i_m_source_file_index>
747

> <i_lp_mmshare_version>
43012

> <i_f3d_flags>
0

> <s_epik_input>
W0NIM11uMWMoPU8pW2NIXVtjSF1uKGMxPU8pW0NIMl1DKD1PKVtOSF1bQ0BIXShbQ0gyXUMoPU8pW05IMl0pW0NIXTJbQ0gyXVtDSDJdW0NIMl1bQ0gyXVtDSDJdMg==

> <s_epik_cmdline>
J2VwaWtfcHl0aG9uJywgJy1waCcsICc3LjAnLCAnLXRuJywgJzgnLCAnLW1hJywgJzIwMCcsICctbWV0YWxfYmluZGluZycsICctaW1hZScsICc8aW5maWxlLm1hZT4nLCAnLW9tYWUnLCAnPG91dGZpbGUubWFlPic=

> <r_lp_tautomer_probability>
1

> <r_epik_Ionization_Penalty>
6.11221e-08

> <r_epik_Ionization_Penalty_Charging>
1.14855e-08

> <r_epik_Ionization_Penalty_Neutral>
4.96365e-08

> <r_epik_State_Penalty>
-0

> <r_epik_Charging_Adjusted_Penalty>
1.14855e-08

> <i_epik_Tot_Q>
0

> <i_epik_Tot_abs_Q>
0

> <r_epik_Metal_State_Penalty>
-0

> <b_epik_Metal_Only>
0

> <s_lp_Force_Field>
OPLS_2005

> <r_lp_Energy>
14.8557

> <b_lp_Chiralities_Consistent>
1

> <s_lp_Variant>
AV-unprocessed.smi:747-1

> <Gold.Version>
5.8.1

> <Gold.Id.Protein>
6NUR|6NUR_protein|mol2

> <Gold.PLP.Fitness>
52.3424

> <Gold.PLP.PLP>
-51.6025

> <Gold.PLP.part.hbond>
-1.9121

> <Gold.PLP.part.metal>
0.0000

> <Gold.PLP.part.buried>
-1.7441

> <Gold.PLP.part.nonpolar>
-46.8626

> <Gold.PLP.part.repulsive>
0.3980

> <Gold.PLP.ligand.clash>
0.0000

> <Gold.PLP.ligand.torsion>
0.4023

> <Gold.PLP.Chemscore.Hbond>
0.4320

> <Gold.PLP.Chemscore.CHOScore>
0.0000

> <Gold.PLP.Chemscore.Metal>
0.0000

> <Gold.Chemscore.Hbonds>
donor molecule, donor type, donor heavy atom, donor atom, acceptor molecule, acceptor atom, score
      L1  H    15    36       P1  7949  0.38

> <Gold.PLP.Chemscore.Internal.Correction>
0.2485

> <Gold.Rescore>
     Score         DG    S(hbond)    S(metal)    S(lipo)     H(rot)  DE(clash)    DE(int)     intcor
      5.96     -10.11       0.38        0.00      92.52       2.91       0.83       3.32       ----

> <Gold.Chemscore.Fitness>
5.9648

> <Gold.Chemscore.DG>
-10.1144

> <Gold.Chemscore.ZeroCoef>
-5.4800

> <Gold.Chemscore.Hbond>
0.3786

> <Gold.Chemscore.Metal>
0.0000

> <Gold.Chemscore.Lipo>
92.5227

> <Gold.Chemscore.Internal_Hbond>
0.0000

> <Gold.Chemscore.DEClash>
0.8306

> <Gold.Chemscore.DEInternal>
3.3190

> <Gold.Chemscore.Rot>
2.9122

> <Gold.Chemscore.Internal.Correction>
   9.000000E+99

> <Gold.Chemscore.Hbonds>
donor molecule, donor type, donor heavy atom, donor atom, acceptor molecule, acceptor atom, score
      L1  H    15    36       P1  7949  0.13

> <Gold.Chemscore.Hbond.Weighted>
-1.2646

> <Gold.Chemscore.Metal.Weighted>
-0.0000

> <Gold.Chemscore.Lipo.Weighted>
-10.8252

> <Gold.Chemscore.Internal_Hbond.Weighted>
0.0000

> <Gold.Chemscore.DEClash.Weighted>
0.8306

> <Gold.Chemscore.DEInternal.Weighted>
3.3190

> <Gold.Chemscore.Rot.Weighted>
7.4553

> <Gold.Chemscore.Internal.Correction.Weighted>
   9.000000E+99

> <Gold.Protein.RotatedTorsions>
[ 6907 6896 6895 6894 ] final -148.81 input  -60.11 | X-H torsion
[ 7974 7965 7964 7962 ] final  147.47 input  175.53 | X-H torsion
[ 8008 7997 7996 7995 ] final  -85.23 input   59.86 | X-H torsion
[ 10167 10162 10161 10158 ] final   25.96 input  -65.29 | X-H torsion
[ 10718 10713 10712 10709 ] final -160.33 input   66.30 | X-H torsion
[ 10763 10752 10751 10750 ] final  -18.61 input  -60.55 | X-H torsion
[ 11005 11000 10999 10996 ] final  146.20 input  -57.11 | X-H torsion

> <Gold.Protein.ActiveResidues>
 VAL166  LYS551  ARG553  GLY616  TRP617  ASP618  TYR619  PRO620  LYS621  CYS622 
 ASP623  PHE694  ASN695  SER759  ASP760  ASP761  ALA762  ILE779  LEU786  VAL792 
 PHE793  MET794  SER795  GLU796  ALA797  LYS798  CYS799  TRP800  GLU811  SER814 

> <Gold.Protein.RotatedAtoms>
  151.1751  133.4760  159.2593 H   0  0  0  0  0  0  0  0  0  0  0  0  # atno 6907 bound_to 6896
  151.1316  135.0133  159.8595 H   0  0  0  0  0  0  0  0  0  0  0  0  # atno 6908 bound_to 6896
  152.5460  134.1653  159.8628 H   0  0  0  0  0  0  0  0  0  0  0  0  # atno 6909 bound_to 6896
  144.8589  139.6033  143.5940 H   0  0  0  0  0  0  0  0  0  0  0  0  # atno 7974 bound_to 7965
  154.6384  140.0594  156.9817 H   0  0  0  0  0  0  0  0  0  0  0  0  # atno 8008 bound_to 7997
  155.1555  140.3278  155.4404 H   0  0  0  0  0  0  0  0  0  0  0  0  # atno 8009 bound_to 7997
  156.2519  140.1940  156.6665 H   0  0  0  0  0  0  0  0  0  0  0  0  # atno 8010 bound_to 7997
  140.5063  144.0234  150.6353 H   0  0  0  0  0  0  0  0  0  0  0  0  # atno 10167 bound_to 10162
  156.5806  130.8727  151.2863 H   0  0  0  0  0  0  0  0  0  0  0  0  # atno 10718 bound_to 10713
  153.5920  135.7002  153.5419 H   0  0  0  0  0  0  0  0  0  0  0  0  # atno 10763 bound_to 10752
  153.3170  135.4085  155.1384 H   0  0  0  0  0  0  0  0  0  0  0  0  # atno 10764 bound_to 10752
  154.8599  135.3686  154.5452 H   0  0  0  0  0  0  0  0  0  0  0  0  # atno 10765 bound_to 10752
  140.0773  134.9117  157.1444 H   0  0  0  0  0  0  0  0  0  0  0  0  # atno 11005 bound_to 11000
  146.2845  139.6966  142.9205 LP  0  0  0  0  0  0  0  0  0  0  0  0  # atno 17320 bound_to 7965
  145.4352  141.0418  143.2888 LP  0  0  0  0  0  0  0  0  0  0  0  0  # atno 17321 bound_to 7965
  140.3544  143.2944  152.0452 LP  0  0  0  0  0  0  0  0  0  0  0  0  # atno 17342 bound_to 10162
  139.4884  144.6350  151.6994 LP  0  0  0  0  0  0  0  0  0  0  0  0  # atno 17343 bound_to 10162
  157.7327  130.9720  150.1943 LP  0  0  0  0  0  0  0  0  0  0  0  0  # atno 17370 bound_to 10713
  156.2635  130.3713  149.8105 LP  0  0  0  0  0  0  0  0  0  0  0  0  # atno 17371 bound_to 10713
  140.3538  134.2569  155.7195 LP  0  0  0  0  0  0  0  0  0  0  0  0  # atno 17394 bound_to 11000
  141.2034  133.7912  157.0340 LP  0  0  0  0  0  0  0  0  0  0  0  0  # atno 17395 bound_to 11000

$$$$
