AV-unprocessed.smi:1669|AV-procd|sdf|6687|dock6
  -GOLD-   22720 7413D 1   1.00000     0.00000
 Structure written by MMmdl.
 47 49  0  0  0  0  0  0  0  0  1 V2000
  149.5007  137.0222  158.8153 C   0  0  0  0  0  0  0  0  0  0  0  0
  148.3174  137.8373  159.0747 N   0  0  0  0  0  0  0  0  0  0  0  0
  147.1385  136.9955  159.3020 C   0  0  0  0  0  0  0  0  0  0  0  0
  147.2574  136.0929  160.5177 C   0  0  0  0  0  0  0  0  0  0  0  0
  147.1663  134.6926  160.3696 C   0  0  0  0  0  0  0  0  0  0  0  0
  147.2759  133.8535  161.4955 C   0  0  0  0  0  0  0  0  0  0  0  0
  147.4818  134.4111  162.7724 C   0  0  0  0  0  0  0  0  0  0  0  0
  147.5776  135.8082  162.9232 C   0  0  0  0  0  0  0  0  0  0  0  0
  147.4651  136.6483  161.7979 C   0  0  0  0  0  0  0  0  0  0  0  0
  148.1178  138.7923  157.9821 C   0  0  0  0  0  0  0  0  0  0  0  0
  149.0698  140.0057  157.9757 C   0  0  2  0  0  0  0  0  0  0  0  0
  148.4482  141.0435  157.2456 O   0  0  0  0  0  0  0  0  0  0  0  0
  150.4415  139.6837  157.3471 C   0  0  0  0  0  0  0  0  0  0  0  0
  151.5306  140.3982  157.9982 N   0  0  0  0  0  0  0  0  0  0  0  0
  152.5477  139.8983  158.7444 C   0  0  0  0  0  0  0  0  0  0  0  0
  152.6756  138.4261  159.0135 C   0  0  0  0  0  0  0  0  0  0  0  0
  153.6749  138.1033  159.9589 O   0  0  0  0  0  0  0  0  0  0  0  0
  153.4057  140.8010  159.2269 N   0  0  0  0  0  0  0  0  0  0  0  0
  152.8996  141.9929  158.7462 C   0  0  0  0  0  0  0  0  0  0  0  0
  153.3604  143.3194  158.9066 C   0  0  0  0  0  0  0  0  0  0  0  0
  152.6627  144.3933  158.3155 C   0  0  0  0  0  0  0  0  0  0  0  0
  151.4965  144.1575  157.5587 C   0  0  0  0  0  0  0  0  0  0  0  0
  151.0207  142.8436  157.3865 C   0  0  0  0  0  0  0  0  0  0  0  0
  151.7226  141.7756  157.9766 C   0  0  0  0  0  0  0  0  0  0  0  0
  150.3801  137.6508  158.6717 H   0  0  0  0  0  0  0  0  0  0  0  0
  149.3702  136.4121  157.9205 H   0  0  0  0  0  0  0  0  0  0  0  0
  149.7153  136.3570  159.6520 H   0  0  0  0  0  0  0  0  0  0  0  0
  146.2568  137.6101  159.4738 H   0  0  0  0  0  0  0  0  0  0  0  0
  146.9266  136.3975  158.4145 H   0  0  0  0  0  0  0  0  0  0  0  0
  147.0096  134.2608  159.3915 H   0  0  0  0  0  0  0  0  0  0  0  0
  147.2023  132.7823  161.3794 H   0  0  0  0  0  0  0  0  0  0  0  0
  147.5673  133.7676  163.6355 H   0  0  0  0  0  0  0  0  0  0  0  0
  147.7371  136.2359  163.9022 H   0  0  0  0  0  0  0  0  0  0  0  0
  147.5367  137.7191  161.9213 H   0  0  0  0  0  0  0  0  0  0  0  0
  148.2414  138.2724  157.0308 H   0  0  0  0  0  0  0  0  0  0  0  0
  147.0844  139.1430  157.9963 H   0  0  0  0  0  0  0  0  0  0  0  0
  149.2075  140.3845  158.9875 H   0  0  0  0  0  0  0  0  0  0  0  0
  147.9652  140.6607  156.5293 H   0  0  0  0  0  0  0  0  0  0  0  0
  150.6528  138.6175  157.4372 H   0  0  0  0  0  0  0  0  0  0  0  0
  150.4390  139.8988  156.2786 H   0  0  0  0  0  0  0  0  0  0  0  0
  151.7180  138.0472  159.3713 H   0  0  0  0  0  0  0  0  0  0  0  0
  152.9082  137.9049  158.0851 H   0  0  0  0  0  0  0  0  0  0  0  0
  154.2800  137.4988  159.5564 H   0  0  0  0  0  0  0  0  0  0  0  0
  154.2519  143.5108  159.4853 H   0  0  0  0  0  0  0  0  0  0  0  0
  153.0238  145.4032  158.4441 H   0  0  0  0  0  0  0  0  0  0  0  0
  150.9679  144.9855  157.1097 H   0  0  0  0  0  0  0  0  0  0  0  0
  150.1280  142.6589  156.8074 H   0  0  0  0  0  0  0  0  0  0  0  0
  1  2  1  0  0  0  0
  1 25  1  0  0  0  0
  1 26  1  0  0  0  0
  1 27  1  0  0  0  0
  2  3  1  0  0  0  0
  2 10  1  0  0  0  0
  3  4  1  0  0  0  0
  3 28  1  0  0  0  0
  3 29  1  0  0  0  0
  4  9  1  0  0  0  0
  4  5  2  0  0  0  0
  5  6  1  0  0  0  0
  5 30  1  0  0  0  0
  6  7  2  0  0  0  0
  6 31  1  0  0  0  0
  7  8  1  0  0  0  0
  7 32  1  0  0  0  0
  8  9  2  0  0  0  0
  8 33  1  0  0  0  0
  9 34  1  0  0  0  0
 10 11  1  0  0  0  0
 10 35  1  0  0  0  0
 10 36  1  0  0  0  0
 11 12  1  0  0  0  0
 11 13  1  0  0  0  0
 11 37  1  0  0  0  0
 12 38  1  0  0  0  0
 13 14  1  0  0  0  0
 13 39  1  0  0  0  0
 13 40  1  0  0  0  0
 14 24  1  0  0  0  0
 14 15  1  0  0  0  0
 15 16  1  0  0  0  0
 15 18  2  0  0  0  0
 16 17  1  0  0  0  0
 16 41  1  0  0  0  0
 16 42  1  0  0  0  0
 17 43  1  0  0  0  0
 18 19  1  0  0  0  0
 19 24  2  0  0  0  0
 19 20  1  0  0  0  0
 20 21  2  0  0  0  0
 20 44  1  0  0  0  0
 21 22  1  0  0  0  0
 21 45  1  0  0  0  0
 22 23  2  0  0  0  0
 22 46  1  0  0  0  0
 23 24  1  0  0  0  0
 23 47  1  0  0  0  0
M  END
> <s_m_source_file>
AV-unprocessed.smi

> <i_m_source_file_index>
1669

> <i_lp_mmshare_version>
43012

> <i_f3d_flags>
0

> <s_epik_input>
W2NIXTFbY0hdW2NIXVtjSF1bY0hdYzFbQ0gyXU4oW0NIM10pW0NIMl1bQ0BIXShbT0hdKVtDSDJdbihjKG4yKVtDSDJdW09IXSljKGMyMylbY0hdW2NIXVtjSF1bY0hdMw==

> <s_epik_cmdline>
J2VwaWtfcHl0aG9uJywgJy1waCcsICc3LjAnLCAnLXRuJywgJzgnLCAnLW1hJywgJzIwMCcsICctbWV0YWxfYmluZGluZycsICctaW1hZScsICc8aW5maWxlLm1hZT4nLCAnLW9tYWUnLCAnPG91dGZpbGUubWFlPic=

> <r_epik_Ionization_Penalty>
1.56301

> <r_epik_Ionization_Penalty_Charging>
0

> <r_epik_Ionization_Penalty_Neutral>
1.56301

> <r_epik_State_Penalty>
1.64771

> <r_epik_Charging_Adjusted_Penalty>
1.64771

> <i_epik_Tot_Q>
0

> <i_epik_Tot_abs_Q>
0

> <r_epik_Metal_State_Penalty>
1.61258

> <b_epik_Metal_Only>
0

> <s_lp_Force_Field>
OPLS_2005

> <r_lp_Energy>
20.891

> <b_lp_Chiralities_Consistent>
1

> <s_lp_Variant>
AV-unprocessed.smi:1669-5

> <Gold.Version>
5.8.1

> <Gold.Id.Protein>
6NUR|6NUR_protein|mol2

> <Gold.PLP.Fitness>
49.4572

> <Gold.PLP.PLP>
-51.0890

> <Gold.PLP.part.hbond>
-0.5470

> <Gold.PLP.part.metal>
0.0000

> <Gold.PLP.part.buried>
-6.7782

> <Gold.PLP.part.nonpolar>
-44.3192

> <Gold.PLP.part.repulsive>
0.0000

> <Gold.PLP.ligand.clash>
0.0000

> <Gold.PLP.ligand.torsion>
0.9687

> <Gold.PLP.Chemscore.Hbond>
0.0000

> <Gold.PLP.Chemscore.CHOScore>
0.0000

> <Gold.PLP.Chemscore.Metal>
0.0000

> <Gold.PLP.Chemscore.Internal.Correction>
0.3057

> <Gold.Rescore>
     Score         DG    S(hbond)    S(metal)    S(lipo)     H(rot)  DE(clash)    DE(int)     intcor
     12.93     -14.23       0.00        0.00     141.73       3.06       0.04       1.26       ----

> <Gold.Chemscore.Fitness>
12.9338

> <Gold.Chemscore.DG>
-14.2262

> <Gold.Chemscore.ZeroCoef>
-5.4800

> <Gold.Chemscore.Hbond>
0.0000

> <Gold.Chemscore.Metal>
0.0000

> <Gold.Chemscore.Lipo>
141.7271

> <Gold.Chemscore.Internal_Hbond>
0.0000

> <Gold.Chemscore.DEClash>
0.0362

> <Gold.Chemscore.DEInternal>
1.2562

> <Gold.Chemscore.Rot>
3.0609

> <Gold.Chemscore.Internal.Correction>
   9.000000E+99

> <Gold.Chemscore.Hbond.Weighted>
-0.0000

> <Gold.Chemscore.Metal.Weighted>
-0.0000

> <Gold.Chemscore.Lipo.Weighted>
-16.5821

> <Gold.Chemscore.Internal_Hbond.Weighted>
0.0000

> <Gold.Chemscore.DEClash.Weighted>
0.0362

> <Gold.Chemscore.DEInternal.Weighted>
1.2562

> <Gold.Chemscore.Rot.Weighted>
7.8358

> <Gold.Chemscore.Internal.Correction.Weighted>
   9.000000E+99

> <Gold.Protein.RotatedTorsions>
[ 6907 6896 6895 6894 ] final  -28.53 input  -60.11 | X-H torsion
[ 7974 7965 7964 7962 ] final -141.73 input  175.53 | X-H torsion
[ 8008 7997 7996 7995 ] final  -85.08 input   59.86 | X-H torsion
[ 10167 10162 10161 10158 ] final -116.00 input  -65.29 | X-H torsion
[ 10718 10713 10712 10709 ] final  123.04 input   66.30 | X-H torsion
[ 10763 10752 10751 10750 ] final  -91.65 input  -60.55 | X-H torsion
[ 11005 11000 10999 10996 ] final  137.03 input  -57.11 | X-H torsion

> <Gold.Protein.ActiveResidues>
 VAL166  LYS551  ARG553  GLY616  TRP617  ASP618  TYR619  PRO620  LYS621  CYS622 
 ASP623  PHE694  ASN695  SER759  ASP760  ASP761  ALA762  ILE779  LEU786  VAL792 
 PHE793  MET794  SER795  GLU796  ALA797  LYS798  CYS799  TRP800  GLU811  SER814 

> <Gold.Protein.RotatedAtoms>
  151.1317  135.0133  159.8584 H   0  0  0  0  0  0  0  0  0  0  0  0  # atno 6907 bound_to 6896
  152.5451  134.1603  159.8565 H   0  0  0  0  0  0  0  0  0  0  0  0  # atno 6908 bound_to 6896
  151.1670  133.4763  159.2627 H   0  0  0  0  0  0  0  0  0  0  0  0  # atno 6909 bound_to 6896
  144.8497  140.6044  143.5398 H   0  0  0  0  0  0  0  0  0  0  0  0  # atno 7974 bound_to 7965
  154.6368  140.0596  156.9798 H   0  0  0  0  0  0  0  0  0  0  0  0  # atno 8008 bound_to 7997
  155.1579  140.3280  155.4399 H   0  0  0  0  0  0  0  0  0  0  0  0  # atno 8009 bound_to 7997
  156.2511  140.1936  156.6688 H   0  0  0  0  0  0  0  0  0  0  0  0  # atno 8010 bound_to 7997
  140.0840  143.4761  152.1909 H   0  0  0  0  0  0  0  0  0  0  0  0  # atno 10167 bound_to 10162
  157.5696  131.1084  150.8392 H   0  0  0  0  0  0  0  0  0  0  0  0  # atno 10718 bound_to 10713
  154.6782  135.5260  153.8227 H   0  0  0  0  0  0  0  0  0  0  0  0  # atno 10763 bound_to 10752
  153.0546  135.6546  154.0618 H   0  0  0  0  0  0  0  0  0  0  0  0  # atno 10764 bound_to 10752
  154.0509  135.2969  155.3320 H   0  0  0  0  0  0  0  0  0  0  0  0  # atno 10765 bound_to 10752
  140.0086  134.9448  157.0230 H   0  0  0  0  0  0  0  0  0  0  0  0  # atno 11005 bound_to 11000
  145.4525  139.1522  143.3910 LP  0  0  0  0  0  0  0  0  0  0  0  0  # atno 17320 bound_to 7965
  146.2774  140.4652  142.8790 LP  0  0  0  0  0  0  0  0  0  0  0  0  # atno 17321 bound_to 7965
  139.5763  144.7489  151.3756 LP  0  0  0  0  0  0  0  0  0  0  0  0  # atno 17342 bound_to 10162
  140.7063  143.7505  150.7488 LP  0  0  0  0  0  0  0  0  0  0  0  0  # atno 17343 bound_to 10162
  156.8867  130.5198  149.5288 LP  0  0  0  0  0  0  0  0  0  0  0  0  # atno 17370 bound_to 10713
  156.0742  130.5768  150.9441 LP  0  0  0  0  0  0  0  0  0  0  0  0  # atno 17371 bound_to 10713
  140.4595  134.1499  155.7190 LP  0  0  0  0  0  0  0  0  0  0  0  0  # atno 17394 bound_to 11000
  141.1695  133.8637  157.1614 LP  0  0  0  0  0  0  0  0  0  0  0  0  # atno 17395 bound_to 11000

$$$$
