AV-unprocessed.smi:3244|AV-procd|sdf|12398|dock4
  -GOLD-   2272018273D 1   1.00000     0.00000
 Structure written by MMmdl.
 41 42  0  0  0  0  0  0  0  0  2 V2000
  150.4775  139.8213  155.6991 C   0  0  0  0  0  0  0  0  0  0  0  0
  149.6661  139.9237  154.3970 C   0  0  0  0  0  0  0  0  0  0  0  0
  148.4000  139.1795  154.4757 N   0  0  0  0  0  0  0  0  0  0  0  0
  148.3353  137.8326  154.6309 C   0  0  0  0  0  0  0  0  0  0  0  0
  149.3241  137.1549  154.9171 O   0  0  0  0  0  0  0  0  0  0  0  0
  146.9891  137.1180  154.4226 C   0  0  0  0  0  0  0  0  0  0  0  0
  146.7582  136.7607  153.0059 N   0  3  0  0  0  0  0  0  0  0  0  0
  145.8579  135.6076  152.7760 C   0  0  2  0  0  0  0  0  0  0  0  0
  146.5588  134.2834  153.1222 C   0  0  0  0  0  0  0  0  0  0  0  0
  145.3646  135.6017  151.3157 C   0  0  0  0  0  0  0  0  0  0  0  0
  145.3185  134.2630  150.7537 N   0  0  0  0  0  0  0  0  0  0  0  0
  144.2120  133.4966  150.4542 C   0  0  0  0  0  0  0  0  0  0  0  0
  144.6638  132.3156  149.9388 C   0  0  0  0  0  0  0  0  0  0  0  0
  146.0796  132.4545  149.9628 C   0  0  0  0  0  0  0  0  0  0  0  0
  146.4682  133.6221  150.4495 N   0  0  0  0  0  0  0  0  0  0  0  0
  147.2518  139.9884  154.1574 C   0  0  0  0  0  0  0  0  0  0  0  0
  147.0812  140.4951  152.7406 C   0  0  0  0  0  0  0  0  0  0  0  0
  147.3932  141.4690  153.8473 C   0  0  0  0  0  0  0  0  0  0  0  0
  151.4112  140.3774  155.6143 H   0  0  0  0  0  0  0  0  0  0  0  0
  150.7326  138.7847  155.9209 H   0  0  0  0  0  0  0  0  0  0  0  0
  149.9359  140.2181  156.5565 H   0  0  0  0  0  0  0  0  0  0  0  0
  149.4953  140.9697  154.1426 H   0  0  0  0  0  0  0  0  0  0  0  0
  150.2730  139.5373  153.5773 H   0  0  0  0  0  0  0  0  0  0  0  0
  146.9472  136.2136  155.0265 H   0  0  0  0  0  0  0  0  0  0  0  0
  146.1895  137.7814  154.7542 H   0  0  0  0  0  0  0  0  0  0  0  0
  146.3338  137.5653  152.5651 H   0  0  0  0  0  0  0  0  0  0  0  0
  144.9852  135.7164  153.4219 H   0  0  0  0  0  0  0  0  0  0  0  0
  145.9011  133.4338  152.9365 H   0  0  0  0  0  0  0  0  0  0  0  0
  146.8473  134.2402  154.1722 H   0  0  0  0  0  0  0  0  0  0  0  0
  147.4583  134.1419  152.5223 H   0  0  0  0  0  0  0  0  0  0  0  0
  144.3746  136.0543  151.2379 H   0  0  0  0  0  0  0  0  0  0  0  0
  146.0294  136.2022  150.6929 H   0  0  0  0  0  0  0  0  0  0  0  0
  143.2068  133.8509  150.6296 H   0  0  0  0  0  0  0  0  0  0  0  0
  144.0727  131.4784  149.5976 H   0  0  0  0  0  0  0  0  0  0  0  0
  146.8309  131.7474  149.6426 H   0  0  0  0  0  0  0  0  0  0  0  0
  146.3352  139.7080  154.6729 H   0  0  0  0  0  0  0  0  0  0  0  0
  147.8734  140.2859  152.0242 H   0  0  0  0  0  0  0  0  0  0  0  0
  146.0736  140.5059  152.3300 H   0  0  0  0  0  0  0  0  0  0  0  0
  146.5924  142.1282  154.1761 H   0  0  0  0  0  0  0  0  0  0  0  0
  148.3853  141.9158  153.8354 H   0  0  0  0  0  0  0  0  0  0  0  0
  147.6454  136.5890  152.5549 H   0  0  0  0  0  0  0  0  0  0  0  0
  1  2  1  0  0  0  0
  1 19  1  0  0  0  0
  1 20  1  0  0  0  0
  1 21  1  0  0  0  0
  2  3  1  0  0  0  0
  2 22  1  0  0  0  0
  2 23  1  0  0  0  0
  3  4  1  0  0  0  0
  3 16  1  0  0  0  0
  4  5  2  0  0  0  0
  4  6  1  0  0  0  0
  6  7  1  0  0  0  0
  6 24  1  0  0  0  0
  6 25  1  0  0  0  0
  7  8  1  0  0  0  0
  7 26  1  0  0  0  0
  7 41  1  0  0  0  0
  8  9  1  0  0  0  0
  8 10  1  0  0  0  0
  8 27  1  0  0  0  0
  9 28  1  0  0  0  0
  9 29  1  0  0  0  0
  9 30  1  0  0  0  0
 10 11  1  0  0  0  0
 10 31  1  0  0  0  0
 10 32  1  0  0  0  0
 11 15  1  0  0  0  0
 11 12  1  0  0  0  0
 12 13  2  0  0  0  0
 12 33  1  0  0  0  0
 13 14  1  0  0  0  0
 13 34  1  0  0  0  0
 14 15  2  0  0  0  0
 14 35  1  0  0  0  0
 16 18  1  0  0  0  0
 16 17  1  0  0  0  0
 16 36  1  0  0  0  0
 17 18  1  0  0  0  0
 17 37  1  0  0  0  0
 17 38  1  0  0  0  0
 18 39  1  0  0  0  0
 18 40  1  0  0  0  0
M  CHG  1   7   1
M  END
> <s_m_source_file>
AV-unprocessed.smi

> <i_m_source_file_index>
3244

> <i_lp_mmshare_version>
43012

> <i_f3d_flags>
0

> <s_epik_input>
W0NIMl0xW0NIMl1bQ0hdMU4oW0NIMl1bQ0gzXSlDKD1PKVtDSDJdW05IXVtDQEhdKFtDSDNdKVtDSDJdbjJbY0hdW2NIXVtjSF1uMg==

> <s_epik_cmdline>
J2VwaWtfcHl0aG9uJywgJy1waCcsICc3LjAnLCAnLXRuJywgJzgnLCAnLW1hJywgJzIwMCcsICctbWV0YWxfYmluZGluZycsICctaW1hZScsICc8aW5maWxlLm1hZT4nLCAnLW9tYWUnLCAnPG91dGZpbGUubWFlPic=

> <r_lp_tautomer_probability>
1

> <r_epik_Ionization_Penalty>
0.115625

> <r_epik_Ionization_Penalty_Charging>
0.115622

> <r_epik_Ionization_Penalty_Neutral>
3.43793e-06

> <r_epik_State_Penalty>
0.105255

> <r_epik_Charging_Adjusted_Penalty>
0.220877

> <i_epik_Tot_Q>
1

> <i_epik_Tot_abs_Q>
1

> <r_epik_Metal_State_Penalty>
0.105264

> <b_epik_Metal_Only>
0

> <s_lp_Force_Field>
OPLS_2005

> <r_lp_Energy>
33.3923

> <b_lp_Chiralities_Consistent>
1

> <s_lp_Variant>
AV-unprocessed.smi:3244-1

> <Gold.Version>
5.8.1

> <Gold.Id.Protein>
6NUR|6NUR_protein|mol2

> <Gold.PLP.Fitness>
39.2609

> <Gold.PLP.PLP>
-30.0628

> <Gold.PLP.part.hbond>
-1.0000

> <Gold.PLP.part.metal>
0.0000

> <Gold.PLP.part.buried>
-2.4898

> <Gold.PLP.part.nonpolar>
-26.6149

> <Gold.PLP.part.repulsive>
0.5096

> <Gold.PLP.ligand.clash>
0.0000

> <Gold.PLP.ligand.torsion>
1.5601

> <Gold.PLP.Chemscore.Hbond>
2.0000

> <Gold.PLP.Chemscore.CHOScore>
2.0000

> <Gold.PLP.Chemscore.Metal>
0.0000

> <Gold.Chemscore.Hbonds>
donor molecule, donor type, donor heavy atom, donor atom, acceptor molecule, acceptor atom, score
      L1  H     7    41       P1  7948  1.95
      L1  C    12    33       P1 10186  1.00
      L1  C    14    35       P1 10747  1.00

> <Gold.PLP.Chemscore.Internal.Correction>
0.3183

> <Gold.Rescore>
     Score         DG    S(hbond)    S(metal)    S(lipo)     H(rot)  DE(clash)    DE(int)     intcor
      9.28     -12.38       1.00        0.00      75.18       2.04       0.12       2.98       ----

> <Gold.Chemscore.Fitness>
9.2767

> <Gold.Chemscore.DG>
-12.3755

> <Gold.Chemscore.ZeroCoef>
-5.4800

> <Gold.Chemscore.Hbond>
0.9975

> <Gold.Chemscore.Metal>
0.0000

> <Gold.Chemscore.Lipo>
75.1826

> <Gold.Chemscore.Internal_Hbond>
0.0000

> <Gold.Chemscore.DEClash>
0.1236

> <Gold.Chemscore.DEInternal>
2.9752

> <Gold.Chemscore.Rot>
2.0440

> <Gold.Chemscore.Internal.Correction>
   9.000000E+99

> <Gold.Chemscore.Hbonds>
donor molecule, donor type, donor heavy atom, donor atom, acceptor molecule, acceptor atom, score
      L1  H     7    41       P1  7948  0.91

> <Gold.Chemscore.Hbond.Weighted>
-3.3317

> <Gold.Chemscore.Metal.Weighted>
-0.0000

> <Gold.Chemscore.Lipo.Weighted>
-8.7964

> <Gold.Chemscore.Internal_Hbond.Weighted>
0.0000

> <Gold.Chemscore.DEClash.Weighted>
0.1236

> <Gold.Chemscore.DEInternal.Weighted>
2.9752

> <Gold.Chemscore.Rot.Weighted>
5.2325

> <Gold.Chemscore.Internal.Correction.Weighted>
   9.000000E+99

> <Gold.Protein.RotatedTorsions>
[ 6907 6896 6895 6894 ] final  101.64 input  -60.11 | X-H torsion
[ 7974 7965 7964 7962 ] final  -19.31 input  175.53 | X-H torsion
[ 8008 7997 7996 7995 ] final   84.29 input   59.86 | X-H torsion
[ 10167 10162 10161 10158 ] final  -76.40 input  -65.29 | X-H torsion
[ 10718 10713 10712 10709 ] final  -13.04 input   66.30 | X-H torsion
[ 10763 10752 10751 10750 ] final  -71.06 input  -60.55 | X-H torsion
[ 11005 11000 10999 10996 ] final  130.24 input  -57.11 | X-H torsion

> <Gold.Protein.ActiveResidues>
 VAL166  LYS551  ARG553  GLY616  TRP617  ASP618  TYR619  PRO620  LYS621  CYS622 
 ASP623  PHE694  ASN695  SER759  ASP760  ASP761  ALA762  ILE779  LEU786  VAL792 
 PHE793  MET794  SER795  GLU796  ALA797  LYS798  CYS799  TRP800  GLU811  SER814 

> <Gold.Protein.RotatedAtoms>
  152.5344  134.0095  159.7931 H   0  0  0  0  0  0  0  0  0  0  0  0  # atno 6907 bound_to 6896
  151.0300  133.5791  159.2669 H   0  0  0  0  0  0  0  0  0  0  0  0  # atno 6908 bound_to 6896
  151.2799  135.0718  159.9219 H   0  0  0  0  0  0  0  0  0  0  0  0  # atno 6909 bound_to 6896
  146.1848  140.4044  142.8480 H   0  0  0  0  0  0  0  0  0  0  0  0  # atno 7974 bound_to 7965
  155.9351  140.3412  155.6281 H   0  0  0  0  0  0  0  0  0  0  0  0  # atno 8008 bound_to 7997
  155.7109  140.0771  157.2390 H   0  0  0  0  0  0  0  0  0  0  0  0  # atno 8009 bound_to 7997
  154.4092  140.1623  156.2282 H   0  0  0  0  0  0  0  0  0  0  0  0  # atno 8010 bound_to 7997
  140.4860  143.2391  151.7983 H   0  0  0  0  0  0  0  0  0  0  0  0  # atno 10167 bound_to 10162
  156.6359  130.4914  149.6112 H   0  0  0  0  0  0  0  0  0  0  0  0  # atno 10718 bound_to 10713
  154.4264  135.5974  153.6041 H   0  0  0  0  0  0  0  0  0  0  0  0  # atno 10763 bound_to 10752
  152.9796  135.5964  154.3892 H   0  0  0  0  0  0  0  0  0  0  0  0  # atno 10764 bound_to 10752
  154.3725  135.2841  155.2237 H   0  0  0  0  0  0  0  0  0  0  0  0  # atno 10765 bound_to 10752
  139.9661  134.9590  156.9265 H   0  0  0  0  0  0  0  0  0  0  0  0  # atno 11005 bound_to 11000
  144.8377  140.6809  143.6249 LP  0  0  0  0  0  0  0  0  0  0  0  0  # atno 17320 bound_to 7965
  145.3971  139.1605  143.4197 LP  0  0  0  0  0  0  0  0  0  0  0  0  # atno 17321 bound_to 7965
  139.4842  144.4711  151.9424 LP  0  0  0  0  0  0  0  0  0  0  0  0  # atno 17342 bound_to 10162
  140.3797  144.2751  150.5910 LP  0  0  0  0  0  0  0  0  0  0  0  0  # atno 17343 bound_to 10162
  156.2197  130.6730  151.1356 LP  0  0  0  0  0  0  0  0  0  0  0  0  # atno 17370 bound_to 10713
  157.7186  131.0695  150.6229 LP  0  0  0  0  0  0  0  0  0  0  0  0  # atno 17371 bound_to 10713
  140.5394  134.0735  155.7337 LP  0  0  0  0  0  0  0  0  0  0  0  0  # atno 17394 bound_to 11000
  141.1340  133.9253  157.2473 LP  0  0  0  0  0  0  0  0  0  0  0  0  # atno 17395 bound_to 11000

$$$$
