AV-unprocessed.smi:686|AV-procd|sdf|3346|dock1
  -GOLD-   22720 0323D 1   1.00000     0.00000
 Structure written by MMmdl.
 40 41  0  0  0  0  0  0  0  0  3 V2000
  150.4666  132.3891  155.2341 C   0  0  0  0  0  0  0  0  0  0  0  0
  149.6481  133.4976  154.5381 C   0  0  1  0  0  0  0  0  0  0  0  0
  148.5511  132.9914  153.6007 C   0  0  0  0  0  0  0  0  0  0  0  0
  147.7132  134.1798  153.3197 N   0  3  1  0  0  0  0  0  0  0  0  0
  146.3148  133.8951  152.8878 C   0  0  0  0  0  0  0  0  0  0  0  0
  146.2633  132.8204  151.7845 C   0  0  0  0  0  0  0  0  0  0  0  0
  145.6190  135.1747  152.3857 C   0  0  0  0  0  0  0  0  0  0  0  0
  147.8454  135.1005  154.4815 C   0  0  0  0  0  0  0  0  0  0  0  0
  148.9130  134.5161  155.4297 C   0  0  1  0  0  0  0  0  0  0  0  0
  148.2609  133.8510  156.5566 N   0  5  0  0  0  0  0  0  0  0  0  0
  148.6384  134.2206  158.0959 S   0  0  0  0  0  0  0  0  0  0  0  0
  149.1160  133.0699  158.8817 O   0  0  0  0  0  0  0  0  0  0  0  0
  149.4569  135.4410  158.1553 O   0  0  0  0  0  0  0  0  0  0  0  0
  146.9932  134.6940  158.7991 C   0  0  0  0  0  0  0  0  0  0  0  0
  147.1836  135.4614  160.0769 C   0  0  0  0  0  0  0  0  0  0  0  0
  146.8005  135.0920  161.3962 C   0  0  0  0  0  0  0  0  0  0  0  0
  147.2169  136.1465  162.1563 C   0  0  0  0  0  0  0  0  0  0  0  0
  147.8146  137.0852  161.3802 O   0  0  0  0  0  0  0  0  0  0  0  0
  147.7920  136.6373  160.0545 N   0  0  0  0  0  0  0  0  0  0  0  0
  149.8401  131.7120  155.8171 H   0  0  0  0  0  0  0  0  0  0  0  0
  151.2250  132.8025  155.9011 H   0  0  0  0  0  0  0  0  0  0  0  0
  150.9867  131.7809  154.4939 H   0  0  0  0  0  0  0  0  0  0  0  0
  150.3489  134.0689  153.9266 H   0  0  0  0  0  0  0  0  0  0  0  0
  148.9652  132.5753  152.6816 H   0  0  0  0  0  0  0  0  0  0  0  0
  147.9567  132.2086  154.0803 H   0  0  0  0  0  0  0  0  0  0  0  0
  145.7646  133.5187  153.7518 H   0  0  0  0  0  0  0  0  0  0  0  0
  145.2399  132.6615  151.4430 H   0  0  0  0  0  0  0  0  0  0  0  0
  146.6296  131.8553  152.1342 H   0  0  0  0  0  0  0  0  0  0  0  0
  146.8578  133.1121  150.9181 H   0  0  0  0  0  0  0  0  0  0  0  0
  144.6030  134.9605  152.0521 H   0  0  0  0  0  0  0  0  0  0  0  0
  146.1561  135.6127  151.5439 H   0  0  0  0  0  0  0  0  0  0  0  0
  145.5417  135.9352  153.1620 H   0  0  0  0  0  0  0  0  0  0  0  0
  148.1641  136.0732  154.1064 H   0  0  0  0  0  0  0  0  0  0  0  0
  146.8926  135.2559  154.9901 H   0  0  0  0  0  0  0  0  0  0  0  0
  149.6061  135.2902  155.7597 H   0  0  0  0  0  0  0  0  0  0  0  0
  146.4676  135.2978  158.0599 H   0  0  0  0  0  0  0  0  0  0  0  0
  146.4065  133.7913  158.9683 H   0  0  0  0  0  0  0  0  0  0  0  0
  146.2938  134.1982  161.7283 H   0  0  0  0  0  0  0  0  0  0  0  0
  147.1651  136.3661  163.2125 H   0  0  0  0  0  0  0  0  0  0  0  0
  148.1649  134.6519  152.5500 H   0  0  0  0  0  0  0  0  0  0  0  0
  1  2  1  0  0  0  0
  1 20  1  0  0  0  0
  1 21  1  0  0  0  0
  1 22  1  0  0  0  0
  2  9  1  0  0  0  0
  2  3  1  0  0  0  0
  2 23  1  0  0  0  0
  3  4  1  0  0  0  0
  3 24  1  0  0  0  0
  3 25  1  0  0  0  0
  4  5  1  0  0  0  0
  4  8  1  0  0  0  0
  4 40  1  0  0  0  0
  5  6  1  0  0  0  0
  5  7  1  0  0  0  0
  5 26  1  0  0  0  0
  6 27  1  0  0  0  0
  6 28  1  0  0  0  0
  6 29  1  0  0  0  0
  7 30  1  0  0  0  0
  7 31  1  0  0  0  0
  7 32  1  0  0  0  0
  8  9  1  0  0  0  0
  8 33  1  0  0  0  0
  8 34  1  0  0  0  0
  9 10  1  0  0  0  0
  9 35  1  0  0  0  0
 10 11  1  0  0  0  0
 11 12  2  0  0  0  0
 11 13  2  0  0  0  0
 11 14  1  0  0  0  0
 14 15  1  0  0  0  0
 14 36  1  0  0  0  0
 14 37  1  0  0  0  0
 15 19  2  0  0  0  0
 15 16  1  0  0  0  0
 16 17  2  0  0  0  0
 16 38  1  0  0  0  0
 17 18  1  0  0  0  0
 17 39  1  0  0  0  0
 18 19  1  0  0  0  0
M  CHG  1   4   1
M  CHG  1  10  -1
M  END
> <s_m_source_file>
AV-unprocessed.smi

> <i_m_source_file_index>
686

> <i_lp_mmshare_version>
43012

> <i_f3d_flags>
0

> <s_epik_input>
W0NIM11bQ0BASF0xW0NIMl1OKFtDSF0oW0NIM10pW0NIM10pW0NIMl1bQ0BIXTFbTkhdUyg9TykoPU8pW0NIMl1jMltjSF1bY0hdb24y

> <s_epik_cmdline>
J2VwaWtfcHl0aG9uJywgJy1waCcsICc3LjAnLCAnLXRuJywgJzgnLCAnLW1hJywgJzIwMCcsICctbWV0YWxfYmluZGluZycsICctaW1hZScsICc8aW5maWxlLm1hZT4nLCAnLW9tYWUnLCAnPG91dGZpbGUubWFlPic=

> <r_epik_Ionization_Penalty>
3.62478

> <r_epik_Ionization_Penalty_Charging>
3.62478

> <r_epik_Ionization_Penalty_Neutral>
2.03645e-10

> <r_epik_State_Penalty>
3.6247

> <r_epik_Charging_Adjusted_Penalty>
7.24949

> <i_epik_Tot_Q>
0

> <i_epik_Tot_abs_Q>
2

> <r_epik_Metal_State_Penalty>
0.530836

> <b_epik_Metal_Only>
1

> <s_lp_Force_Field>
OPLS_2005

> <r_lp_Energy>
19.0269

> <b_lp_Chiralities_Consistent>
1

> <s_lp_Variant>
AV-unprocessed.smi:686-10

> <Gold.Version>
5.8.1

> <Gold.Id.Protein>
6NUR|6NUR_protein|mol2

> <Gold.PLP.Fitness>
38.5557

> <Gold.PLP.PLP>
-25.2706

> <Gold.PLP.part.hbond>
-4.8504

> <Gold.PLP.part.metal>
0.0000

> <Gold.PLP.part.buried>
-1.3651

> <Gold.PLP.part.nonpolar>
-18.4908

> <Gold.PLP.part.repulsive>
0.0000

> <Gold.PLP.ligand.clash>
0.0000

> <Gold.PLP.ligand.torsion>
0.9744

> <Gold.PLP.Chemscore.Hbond>
4.6936

> <Gold.PLP.Chemscore.CHOScore>
0.0000

> <Gold.PLP.Chemscore.Metal>
0.0000

> <Gold.Chemscore.Hbonds>
donor molecule, donor type, donor heavy atom, donor atom, acceptor molecule, acceptor atom, score
      L1  H     4    40       P1  7948  2.00
      P1  H  6896  6908       L1    12  0.85
      P1  H  6931  6943       L1    18  1.00
      P1  H  6934  6947       L1    18  0.54

> <Gold.PLP.Chemscore.Internal.Correction>
1.1532

> <Gold.Rescore>
     Score         DG    S(hbond)    S(metal)    S(lipo)     H(rot)  DE(clash)    DE(int)     intcor
     14.81     -17.14       2.75        0.00      56.51       1.61       0.01       2.33       ----

> <Gold.Chemscore.Fitness>
14.8051

> <Gold.Chemscore.DG>
-17.1449

> <Gold.Chemscore.ZeroCoef>
-5.4800

> <Gold.Chemscore.Hbond>
2.7506

> <Gold.Chemscore.Metal>
0.0000

> <Gold.Chemscore.Lipo>
56.5125

> <Gold.Chemscore.Internal_Hbond>
0.0000

> <Gold.Chemscore.DEClash>
0.0128

> <Gold.Chemscore.DEInternal>
2.3270

> <Gold.Chemscore.Rot>
1.6149

> <Gold.Chemscore.Internal.Correction>
   9.000000E+99

> <Gold.Chemscore.Hbonds>
donor molecule, donor type, donor heavy atom, donor atom, acceptor molecule, acceptor atom, score
      L1  H     4    40       P1  7948  0.42
      P1  H  6896  6908       L1    12  0.14
      P1  H  6931  6943       L1    18  0.95
      P1  H  6934  6947       L1    18  0.08

> <Gold.Chemscore.Hbond.Weighted>
-9.1870

> <Gold.Chemscore.Metal.Weighted>
-0.0000

> <Gold.Chemscore.Lipo.Weighted>
-6.6120

> <Gold.Chemscore.Internal_Hbond.Weighted>
0.0000

> <Gold.Chemscore.DEClash.Weighted>
0.0128

> <Gold.Chemscore.DEInternal.Weighted>
2.3270

> <Gold.Chemscore.Rot.Weighted>
4.1341

> <Gold.Chemscore.Internal.Correction.Weighted>
   9.000000E+99

> <Gold.Protein.RotatedTorsions>
[ 6907 6896 6895 6894 ] final  116.97 input  -60.11 | X-H torsion
[ 7974 7965 7964 7962 ] final   82.00 input  175.53 | X-H torsion
[ 8008 7997 7996 7995 ] final  172.00 input   59.86 | X-H torsion
[ 10167 10162 10161 10158 ] final -114.16 input  -65.29 | X-H torsion
[ 10718 10713 10712 10709 ] final   80.72 input   66.30 | X-H torsion
[ 10763 10752 10751 10750 ] final  134.04 input  -60.55 | X-H torsion
[ 11005 11000 10999 10996 ] final -112.16 input  -57.11 | X-H torsion

> <Gold.Protein.ActiveResidues>
 VAL166  LYS551  ARG553  GLY616  TRP617  ASP618  TYR619  PRO620  LYS621  CYS622 
 ASP623  PHE694  ASN695  SER759  ASP760  ASP761  ALA762  ILE779  LEU786  VAL792 
 PHE793  MET794  SER795  GLU796  ALA797  LYS798  CYS799  TRP800  GLU811  SER814 

> <Gold.Protein.RotatedAtoms>
  152.4643  133.7889  159.6890 H   0  0  0  0  0  0  0  0  0  0  0  0  # atno 6907 bound_to 6896
  150.8601  133.7647  159.3002 H   0  0  0  0  0  0  0  0  0  0  0  0  # atno 6908 bound_to 6896
  151.5215  135.1070  159.9932 H   0  0  0  0  0  0  0  0  0  0  0  0  # atno 6909 bound_to 6896
  145.6308  139.2404  143.2085 H   0  0  0  0  0  0  0  0  0  0  0  0  # atno 7974 bound_to 7965
  156.1217  140.1497  156.9195 H   0  0  0  0  0  0  0  0  0  0  0  0  # atno 8008 bound_to 7997
  154.4841  140.0870  156.7487 H   0  0  0  0  0  0  0  0  0  0  0  0  # atno 8009 bound_to 7997
  155.4416  140.3431  155.4293 H   0  0  0  0  0  0  0  0  0  0  0  0  # atno 8010 bound_to 7997
  140.1039  143.4588  152.1795 H   0  0  0  0  0  0  0  0  0  0  0  0  # atno 10167 bound_to 10162
  157.6814  130.9972  150.2121 H   0  0  0  0  0  0  0  0  0  0  0  0  # atno 10718 bound_to 10713
  153.8170  135.3121  155.3406 H   0  0  0  0  0  0  0  0  0  0  0  0  # atno 10763 bound_to 10752
  154.8028  135.4716  154.0321 H   0  0  0  0  0  0  0  0  0  0  0  0  # atno 10764 bound_to 10752
  153.1717  135.6879  153.8687 H   0  0  0  0  0  0  0  0  0  0  0  0  # atno 10765 bound_to 10752
  141.0691  133.9409  157.2520 H   0  0  0  0  0  0  0  0  0  0  0  0  # atno 11005 bound_to 11000
  146.1358  140.7125  142.9390 LP  0  0  0  0  0  0  0  0  0  0  0  0  # atno 17320 bound_to 7965
  144.7194  140.4322  143.7019 LP  0  0  0  0  0  0  0  0  0  0  0  0  # atno 17321 bound_to 7965
  139.5656  144.7433  151.4032 LP  0  0  0  0  0  0  0  0  0  0  0  0  # atno 17342 bound_to 10162
  140.6963  143.7742  150.7331 LP  0  0  0  0  0  0  0  0  0  0  0  0  # atno 17343 bound_to 10162
  156.2790  130.3731  149.7955 LP  0  0  0  0  0  0  0  0  0  0  0  0  # atno 17370 bound_to 10713
  156.5649  130.8399  151.3339 LP  0  0  0  0  0  0  0  0  0  0  0  0  # atno 17371 bound_to 10713
  139.9506  135.0176  156.8982 LP  0  0  0  0  0  0  0  0  0  0  0  0  # atno 17394 bound_to 11000
  140.5710  134.0443  155.7430 LP  0  0  0  0  0  0  0  0  0  0  0  0  # atno 17395 bound_to 11000

$$$$
