AV-unprocessed.smi:783|AV-procd|sdf|3717|dock6
  -GOLD-   22720 1143D 1   1.00000     0.00000
 Structure written by MMmdl.
 45 46  0  0  0  0  0  0  0  0  1 V2000
  153.9744  141.6243  160.3278 C   0  0  0  0  0  0  0  0  0  0  0  0
  153.1659  142.0011  159.0693 C   0  0  1  0  0  0  0  0  0  0  0  0
  152.3611  140.8194  158.5067 C   0  0  0  0  0  0  0  0  0  0  0  0
  152.9333  139.8217  158.0667 O   0  0  0  0  0  0  0  0  0  0  0  0
  151.0255  140.9533  158.5249 N   0  0  0  0  0  0  0  0  0  0  0  0
  150.0573  139.9759  158.0270 C   0  0  0  0  0  0  0  0  0  0  0  0
  149.7873  140.0946  156.4950 C   0  0  0  0  0  0  0  0  0  0  0  0
  151.0854  139.8389  155.6541 C   0  0  0  0  0  0  0  0  0  0  0  0
  151.5865  140.8000  155.0649 O   0  0  0  0  0  0  0  0  0  0  0  0
  151.6652  138.6120  155.5496 N   0  0  0  0  0  0  0  0  0  0  0  0
  152.9146  138.4683  154.7940 C   0  0  0  0  0  0  0  0  0  0  0  0
  151.1957  137.3389  156.1033 C   0  0  0  0  0  0  0  0  0  0  0  0
  148.6701  139.0860  156.1048 C   0  0  0  0  0  0  0  0  0  0  0  0
  148.0400  139.5946  154.8041 C   0  0  0  0  0  0  0  0  0  0  0  0
  148.2831  141.1054  154.8037 C   0  0  0  0  0  0  0  0  0  0  0  0
  149.0629  141.4047  156.0910 C   0  0  0  0  0  0  0  0  0  0  0  0
  152.2922  143.1478  159.2904 N   0  0  0  0  0  0  0  0  0  0  0  0
  152.1573  143.9000  160.4399 C   0  0  0  0  0  0  0  0  0  0  0  0
  151.2612  144.8963  160.1774 C   0  0  0  0  0  0  0  0  0  0  0  0
  150.9051  144.6800  158.8174 C   0  0  0  0  0  0  0  0  0  0  0  0
  151.5293  143.6414  158.2870 N   0  0  0  0  0  0  0  0  0  0  0  0
  154.6532  140.7955  160.1238 H   0  0  0  0  0  0  0  0  0  0  0  0
  153.3315  141.3267  161.1572 H   0  0  0  0  0  0  0  0  0  0  0  0
  154.5800  142.4659  160.6652 H   0  0  0  0  0  0  0  0  0  0  0  0
  153.8881  142.2938  158.3049 H   0  0  0  0  0  0  0  0  0  0  0  0
  150.6471  141.8088  158.9047 H   0  0  0  0  0  0  0  0  0  0  0  0
  150.3887  138.9654  158.2722 H   0  0  0  0  0  0  0  0  0  0  0  0
  149.1529  140.1076  158.6136 H   0  0  0  0  0  0  0  0  0  0  0  0
  153.6805  139.1443  155.1778 H   0  0  0  0  0  0  0  0  0  0  0  0
  152.7533  138.6977  153.7398 H   0  0  0  0  0  0  0  0  0  0  0  0
  153.3240  137.4587  154.8506 H   0  0  0  0  0  0  0  0  0  0  0  0
  150.1818  137.3419  156.4860 H   0  0  0  0  0  0  0  0  0  0  0  0
  151.8509  137.0308  156.9187 H   0  0  0  0  0  0  0  0  0  0  0  0
  151.2297  136.5606  155.3399 H   0  0  0  0  0  0  0  0  0  0  0  0
  149.0052  138.0514  156.0210 H   0  0  0  0  0  0  0  0  0  0  0  0
  147.8966  139.0819  156.8744 H   0  0  0  0  0  0  0  0  0  0  0  0
  148.5266  139.1384  153.9410 H   0  0  0  0  0  0  0  0  0  0  0  0
  146.9791  139.3485  154.7502 H   0  0  0  0  0  0  0  0  0  0  0  0
  148.8729  141.3845  153.9296 H   0  0  0  0  0  0  0  0  0  0  0  0
  147.3512  141.6704  154.7637 H   0  0  0  0  0  0  0  0  0  0  0  0
  148.3553  141.6792  156.8748 H   0  0  0  0  0  0  0  0  0  0  0  0
  149.7016  142.2717  155.9467 H   0  0  0  0  0  0  0  0  0  0  0  0
  152.7055  143.6662  161.3406 H   0  0  0  0  0  0  0  0  0  0  0  0
  150.9166  145.6658  160.8521 H   0  0  0  0  0  0  0  0  0  0  0  0
  150.2207  145.2455  158.2025 H   0  0  0  0  0  0  0  0  0  0  0  0
  1  2  1  0  0  0  0
  1 22  1  0  0  0  0
  1 23  1  0  0  0  0
  1 24  1  0  0  0  0
  2  3  1  0  0  0  0
  2 17  1  0  0  0  0
  2 25  1  0  0  0  0
  3  4  2  0  0  0  0
  3  5  1  0  0  0  0
  5  6  1  0  0  0  0
  5 26  1  0  0  0  0
  6  7  1  0  0  0  0
  6 27  1  0  0  0  0
  6 28  1  0  0  0  0
  7 16  1  0  0  0  0
  7  8  1  0  0  0  0
  7 13  1  0  0  0  0
  8  9  2  0  0  0  0
  8 10  1  0  0  0  0
 10 11  1  0  0  0  0
 10 12  1  0  0  0  0
 11 29  1  0  0  0  0
 11 30  1  0  0  0  0
 11 31  1  0  0  0  0
 12 32  1  0  0  0  0
 12 33  1  0  0  0  0
 12 34  1  0  0  0  0
 13 14  1  0  0  0  0
 13 35  1  0  0  0  0
 13 36  1  0  0  0  0
 14 15  1  0  0  0  0
 14 37  1  0  0  0  0
 14 38  1  0  0  0  0
 15 16  1  0  0  0  0
 15 39  1  0  0  0  0
 15 40  1  0  0  0  0
 16 41  1  0  0  0  0
 16 42  1  0  0  0  0
 17 21  1  0  0  0  0
 17 18  1  0  0  0  0
 18 19  2  0  0  0  0
 18 43  1  0  0  0  0
 19 20  1  0  0  0  0
 19 44  1  0  0  0  0
 20 21  2  0  0  0  0
 20 45  1  0  0  0  0
M  END
> <s_m_source_file>
AV-unprocessed.smi

> <i_m_source_file_index>
783

> <i_lp_mmshare_version>
43012

> <i_f3d_flags>
0

> <s_epik_input>
bjFbY0hdW2NIXVtjSF1uMVtDQEhdKFtDSDNdKUMoPU8pW05IXVtDSDJdQzIoQyg9TylOKFtDSDNdKVtDSDNdKVtDSDJdW0NIMl1bQ0gyXVtDSDJdMg==

> <s_epik_cmdline>
J2VwaWtfcHl0aG9uJywgJy1waCcsICc3LjAnLCAnLXRuJywgJzgnLCAnLW1hJywgJzIwMCcsICctbWV0YWxfYmluZGluZycsICctaW1hZScsICc8aW5maWxlLm1hZT4nLCAnLW9tYWUnLCAnPG91dGZpbGUubWFlPic=

> <r_lp_tautomer_probability>
1

> <r_epik_Ionization_Penalty>
3.31274e-05

> <r_epik_Ionization_Penalty_Charging>
0

> <r_epik_Ionization_Penalty_Neutral>
3.31274e-05

> <r_epik_State_Penalty>
-0

> <r_epik_Charging_Adjusted_Penalty>
0

> <i_epik_Tot_Q>
0

> <i_epik_Tot_abs_Q>
0

> <r_epik_Metal_State_Penalty>
-0

> <b_epik_Metal_Only>
0

> <s_lp_Force_Field>
OPLS_2005

> <r_lp_Energy>
40.1786

> <b_lp_Chiralities_Consistent>
1

> <s_lp_Variant>
AV-unprocessed.smi:783-2

> <Gold.Version>
5.8.1

> <Gold.Id.Protein>
6NUR|6NUR_protein|mol2

> <Gold.PLP.Fitness>
43.5976

> <Gold.PLP.PLP>
-37.0457

> <Gold.PLP.part.hbond>
-1.3993

> <Gold.PLP.part.metal>
0.0000

> <Gold.PLP.part.buried>
-4.0809

> <Gold.PLP.part.nonpolar>
-32.7532

> <Gold.PLP.part.repulsive>
0.2981

> <Gold.PLP.ligand.clash>
0.0000

> <Gold.PLP.ligand.torsion>
0.7864

> <Gold.PLP.Chemscore.Hbond>
1.6978

> <Gold.PLP.Chemscore.CHOScore>
0.9083

> <Gold.PLP.Chemscore.Metal>
0.0000

> <Gold.Chemscore.Hbonds>
donor molecule, donor type, donor heavy atom, donor atom, acceptor molecule, acceptor atom, score
      P1  H  7989  7998       L1     9  0.67
      P1  H  7997  8008       L1     4  1.00
      L1  C    20    45       P1  8028  0.04
      L1  C    20    45       P1  8029  0.81

> <Gold.PLP.Chemscore.Internal.Correction>
0.3061

> <Gold.Rescore>
     Score         DG    S(hbond)    S(metal)    S(lipo)     H(rot)  DE(clash)    DE(int)     intcor
     14.79     -16.96       1.77        0.00      88.04       1.84       0.15       2.02       ----

> <Gold.Chemscore.Fitness>
14.7883

> <Gold.Chemscore.DG>
-16.9647

> <Gold.Chemscore.ZeroCoef>
-5.4800

> <Gold.Chemscore.Hbond>
1.7684

> <Gold.Chemscore.Metal>
0.0000

> <Gold.Chemscore.Lipo>
88.0434

> <Gold.Chemscore.Internal_Hbond>
0.0000

> <Gold.Chemscore.DEClash>
0.1530

> <Gold.Chemscore.DEInternal>
2.0234

> <Gold.Chemscore.Rot>
1.8449

> <Gold.Chemscore.Internal.Correction>
   9.000000E+99

> <Gold.Chemscore.Hbonds>
donor molecule, donor type, donor heavy atom, donor atom, acceptor molecule, acceptor atom, score
      P1  H  7989  7998       L1     9  0.64
      P1  H  7997  8008       L1     4  0.94

> <Gold.Chemscore.Hbond.Weighted>
-5.9065

> <Gold.Chemscore.Metal.Weighted>
-0.0000

> <Gold.Chemscore.Lipo.Weighted>
-10.3011

> <Gold.Chemscore.Internal_Hbond.Weighted>
0.0000

> <Gold.Chemscore.DEClash.Weighted>
0.1530

> <Gold.Chemscore.DEInternal.Weighted>
2.0234

> <Gold.Chemscore.Rot.Weighted>
4.7229

> <Gold.Chemscore.Internal.Correction.Weighted>
   9.000000E+99

> <Gold.Protein.RotatedTorsions>
[ 6907 6896 6895 6894 ] final -121.83 input  -60.11 | X-H torsion
[ 7974 7965 7964 7962 ] final -123.69 input  175.53 | X-H torsion
[ 8008 7997 7996 7995 ] final  -71.08 input   59.86 | X-H torsion
[ 10167 10162 10161 10158 ] final   52.05 input  -65.29 | X-H torsion
[ 10718 10713 10712 10709 ] final  -59.82 input   66.30 | X-H torsion
[ 10763 10752 10751 10750 ] final  -80.72 input  -60.55 | X-H torsion
[ 11005 11000 10999 10996 ] final  -75.58 input  -57.11 | X-H torsion

> <Gold.Protein.ActiveResidues>
 VAL166  LYS551  ARG553  GLY616  TRP617  ASP618  TYR619  PRO620  LYS621  CYS622 
 ASP623  PHE694  ASN695  SER759  ASP760  ASP761  ALA762  ILE779  LEU786  VAL792 
 PHE793  MET794  SER795  GLU796  ALA797  LYS798  CYS799  TRP800  GLU811  SER814 

> <Gold.Protein.RotatedAtoms>
  150.8519  133.7773  159.3022 H   0  0  0  0  0  0  0  0  0  0  0  0  # atno 6907 bound_to 6896
  151.5442  135.1066  159.9943 H   0  0  0  0  0  0  0  0  0  0  0  0  # atno 6908 bound_to 6896
  152.4560  133.7680  159.6839 H   0  0  0  0  0  0  0  0  0  0  0  0  # atno 6909 bound_to 6896
  145.0160  140.7947  143.4409 H   0  0  0  0  0  0  0  0  0  0  0  0  # atno 7974 bound_to 7965
  154.5061  140.0822  156.7896 H   0  0  0  0  0  0  0  0  0  0  0  0  # atno 8008 bound_to 7997
  155.3891  140.3431  155.4232 H   0  0  0  0  0  0  0  0  0  0  0  0  # atno 8009 bound_to 7997
  156.1516  140.1560  156.8747 H   0  0  0  0  0  0  0  0  0  0  0  0  # atno 8010 bound_to 7997
  140.2554  144.3432  150.6334 H   0  0  0  0  0  0  0  0  0  0  0  0  # atno 10167 bound_to 10162
  156.1034  130.4183  150.0768 H   0  0  0  0  0  0  0  0  0  0  0  0  # atno 10718 bound_to 10713
  154.5547  135.5651  153.6953 H   0  0  0  0  0  0  0  0  0  0  0  0  # atno 10763 bound_to 10752
  153.0000  135.6259  154.2326 H   0  0  0  0  0  0  0  0  0  0  0  0  # atno 10764 bound_to 10752
  154.2262  135.2867  155.2886 H   0  0  0  0  0  0  0  0  0  0  0  0  # atno 10765 bound_to 10752
  141.1646  133.6952  156.7538 H   0  0  0  0  0  0  0  0  0  0  0  0  # atno 11005 bound_to 11000
  145.1959  139.2277  143.5218 LP  0  0  0  0  0  0  0  0  0  0  0  0  # atno 17320 bound_to 7965
  146.3478  140.1765  142.8589 LP  0  0  0  0  0  0  0  0  0  0  0  0  # atno 17321 bound_to 7965
  140.6008  143.2167  151.7076 LP  0  0  0  0  0  0  0  0  0  0  0  0  # atno 17342 bound_to 10162
  139.5033  144.3796  152.0389 LP  0  0  0  0  0  0  0  0  0  0  0  0  # atno 17343 bound_to 10162
  156.8750  130.9537  151.3605 LP  0  0  0  0  0  0  0  0  0  0  0  0  # atno 17370 bound_to 10713
  157.6208  130.8653  149.9105 LP  0  0  0  0  0  0  0  0  0  0  0  0  # atno 17371 bound_to 10713
  140.2584  134.8486  157.3735 LP  0  0  0  0  0  0  0  0  0  0  0  0  # atno 17394 bound_to 11000
  140.1635  134.4699  155.7879 LP  0  0  0  0  0  0  0  0  0  0  0  0  # atno 17395 bound_to 11000

$$$$
