AV-unprocessed.smi:3196|AV-procd|sdf|12221|dock2
  -GOLD-   2272018 53D 1   1.00000     0.00000
 Structure written by MMmdl.
 33 34  0  0  0  0  0  0  0  0  1 V2000
  146.7965  139.2485  151.6124 C   0  0  0  0  0  0  0  0  0  0  0  0
  146.8064  138.6897  153.0394 C   0  0  0  0  0  0  0  0  0  0  0  0
  148.1156  138.9925  153.7806 C   0  0  0  0  0  0  0  0  0  0  0  0
  148.0678  140.3132  154.5223 C   0  0  2  0  0  0  0  0  0  0  0  0
  147.6581  141.5740  153.8095 C   0  0  0  0  0  0  0  0  0  0  0  0
  149.0948  141.3922  154.2549 C   0  0  1  0  0  0  0  0  0  0  0  0
  149.5328  142.2001  155.3531 N   0  0  0  0  0  0  0  0  0  0  0  0
  150.3498  141.8467  156.3617 C   0  0  0  0  0  0  0  0  0  0  0  0
  150.8525  140.7260  156.4033 O   0  0  0  0  0  0  0  0  0  0  0  0
  150.5814  142.8307  157.2536 N   0  0  0  0  0  0  0  0  0  0  0  0
  151.3981  142.8283  158.4181 C   0  0  0  0  0  0  0  0  0  0  0  0
  151.9097  141.6637  159.0410 C   0  0  0  0  0  0  0  0  0  0  0  0
  152.7001  141.8094  160.1989 C   0  0  0  0  0  0  0  0  0  0  0  0
  152.9938  143.0035  160.7553 N   0  0  0  0  0  0  0  0  0  0  0  0
  152.4961  144.1106  160.1654 C   0  0  0  0  0  0  0  0  0  0  0  0
  151.6962  144.0762  159.0056 C   0  0  0  0  0  0  0  0  0  0  0  0
  151.2253  145.2272  158.4667 F   0  0  0  0  0  0  0  0  0  0  0  0
  145.8533  139.0243  151.1140 H   0  0  0  0  0  0  0  0  0  0  0  0
  147.5994  138.8160  151.0151 H   0  0  0  0  0  0  0  0  0  0  0  0
  146.9241  140.3313  151.6125 H   0  0  0  0  0  0  0  0  0  0  0  0
  145.9666  139.1084  153.5952 H   0  0  0  0  0  0  0  0  0  0  0  0
  146.6471  137.6114  153.0043 H   0  0  0  0  0  0  0  0  0  0  0  0
  148.3278  138.2016  154.5008 H   0  0  0  0  0  0  0  0  0  0  0  0
  148.9477  139.0057  153.0755 H   0  0  0  0  0  0  0  0  0  0  0  0
  147.7326  140.2198  155.5541 H   0  0  0  0  0  0  0  0  0  0  0  0
  147.4532  141.5093  152.7429 H   0  0  0  0  0  0  0  0  0  0  0  0
  147.0366  142.2788  154.3588 H   0  0  0  0  0  0  0  0  0  0  0  0
  149.8020  141.2149  153.4458 H   0  0  0  0  0  0  0  0  0  0  0  0
  149.2370  143.1652  155.3319 H   0  0  0  0  0  0  0  0  0  0  0  0
  150.1430  143.7162  157.0460 H   0  0  0  0  0  0  0  0  0  0  0  0
  151.7115  140.6707  158.6703 H   0  0  0  0  0  0  0  0  0  0  0  0
  153.1044  140.9393  160.6948 H   0  0  0  0  0  0  0  0  0  0  0  0
  152.7420  145.0533  160.6318 H   0  0  0  0  0  0  0  0  0  0  0  0
  1  2  1  0  0  0  0
  1 18  1  0  0  0  0
  1 19  1  0  0  0  0
  1 20  1  0  0  0  0
  2  3  1  0  0  0  0
  2 21  1  0  0  0  0
  2 22  1  0  0  0  0
  3  4  1  0  0  0  0
  3 23  1  0  0  0  0
  3 24  1  0  0  0  0
  4  6  1  0  0  0  0
  4  5  1  0  0  0  0
  4 25  1  0  0  0  0
  5  6  1  0  0  0  0
  5 26  1  0  0  0  0
  5 27  1  0  0  0  0
  6  7  1  0  0  0  0
  6 28  1  0  0  0  0
  7  8  1  0  0  0  0
  7 29  1  0  0  0  0
  8  9  2  0  0  0  0
  8 10  1  0  0  0  0
 10 11  1  0  0  0  0
 10 30  1  0  0  0  0
 11 16  1  0  0  0  0
 11 12  2  0  0  0  0
 12 13  1  0  0  0  0
 12 31  1  0  0  0  0
 13 14  2  0  0  0  0
 13 32  1  0  0  0  0
 14 15  1  0  0  0  0
 15 16  2  0  0  0  0
 15 33  1  0  0  0  0
 16 17  1  0  0  0  0
M  END
> <s_m_source_file>
AV-unprocessed.smi

> <i_m_source_file_index>
3196

> <i_lp_mmshare_version>
43012

> <i_f3d_flags>
0

> <s_epik_input>
W0NIM11bQ0gyXVtDSDJdW0NAQEhdMVtDSDJdW0NASF0xW05IXUMoPU8pW05IXWMyW2NIXVtjSF1uW2NIXWMyRg==

> <s_epik_cmdline>
J2VwaWtfcHl0aG9uJywgJy1waCcsICc3LjAnLCAnLXRuJywgJzgnLCAnLW1hJywgJzIwMCcsICctbWV0YWxfYmluZGluZycsICctaW1hZScsICc8aW5maWxlLm1hZT4nLCAnLW9tYWUnLCAnPG91dGZpbGUubWFlPic=

> <r_epik_Ionization_Penalty>
0.00341997

> <r_epik_Ionization_Penalty_Charging>
0

> <r_epik_Ionization_Penalty_Neutral>
0.00341997

> <r_epik_State_Penalty>
0.00239198

> <r_epik_Charging_Adjusted_Penalty>
0.00239198

> <i_epik_Tot_Q>
0

> <i_epik_Tot_abs_Q>
0

> <r_epik_Metal_State_Penalty>
-0

> <b_epik_Metal_Only>
0

> <s_lp_Force_Field>
OPLS_2005

> <r_lp_Energy>
34.264

> <b_lp_Chiralities_Consistent>
1

> <s_lp_Variant>
AV-unprocessed.smi:3196-1

> <Gold.Version>
5.8.1

> <Gold.Id.Protein>
6NUR|6NUR_protein|mol2

> <Gold.PLP.Fitness>
42.5391

> <Gold.PLP.PLP>
-38.4894

> <Gold.PLP.part.hbond>
-2.0000

> <Gold.PLP.part.metal>
0.0000

> <Gold.PLP.part.buried>
-2.0463

> <Gold.PLP.part.nonpolar>
-33.5511

> <Gold.PLP.part.repulsive>
0.2431

> <Gold.PLP.ligand.clash>
0.0000

> <Gold.PLP.ligand.torsion>
0.8491

> <Gold.PLP.Chemscore.Hbond>
1.7280

> <Gold.PLP.Chemscore.CHOScore>
0.0000

> <Gold.PLP.Chemscore.Metal>
0.0000

> <Gold.Chemscore.Hbonds>
donor molecule, donor type, donor heavy atom, donor atom, acceptor molecule, acceptor atom, score
      L1  H     7    29       P1  8028  1.00
      L1  H    10    30       P1  8028  0.71

> <Gold.PLP.Chemscore.Internal.Correction>
0.5638

> <Gold.Rescore>
     Score         DG    S(hbond)    S(metal)    S(lipo)     H(rot)  DE(clash)    DE(int)     intcor
     17.43     -19.73       1.93        0.00      96.95       1.39       0.39       1.91       ----

> <Gold.Chemscore.Fitness>
17.4338

> <Gold.Chemscore.DG>
-19.7323

> <Gold.Chemscore.ZeroCoef>
-5.4800

> <Gold.Chemscore.Hbond>
1.9326

> <Gold.Chemscore.Metal>
0.0000

> <Gold.Chemscore.Lipo>
96.9517

> <Gold.Chemscore.Internal_Hbond>
0.0000

> <Gold.Chemscore.DEClash>
0.3928

> <Gold.Chemscore.DEInternal>
1.9057

> <Gold.Chemscore.Rot>
1.3852

> <Gold.Chemscore.Internal.Correction>
   9.000000E+99

> <Gold.Chemscore.Hbonds>
donor molecule, donor type, donor heavy atom, donor atom, acceptor molecule, acceptor atom, score
      L1  H     7    29       P1  8028  0.99
      L1  H    10    30       P1  8028  0.68

> <Gold.Chemscore.Hbond.Weighted>
-6.4550

> <Gold.Chemscore.Metal.Weighted>
-0.0000

> <Gold.Chemscore.Lipo.Weighted>
-11.3433

> <Gold.Chemscore.Internal_Hbond.Weighted>
0.0000

> <Gold.Chemscore.DEClash.Weighted>
0.3928

> <Gold.Chemscore.DEInternal.Weighted>
1.9057

> <Gold.Chemscore.Rot.Weighted>
3.5460

> <Gold.Chemscore.Internal.Correction.Weighted>
   9.000000E+99

> <Gold.Protein.RotatedTorsions>
[ 6907 6896 6895 6894 ] final  -75.18 input  -60.11 | X-H torsion
[ 7974 7965 7964 7962 ] final   51.03 input  175.53 | X-H torsion
[ 8008 7997 7996 7995 ] final   12.10 input   59.86 | X-H torsion
[ 10167 10162 10161 10158 ] final  -84.61 input  -65.29 | X-H torsion
[ 10718 10713 10712 10709 ] final  150.44 input   66.30 | X-H torsion
[ 10763 10752 10751 10750 ] final -120.71 input  -60.55 | X-H torsion
[ 11005 11000 10999 10996 ] final   28.68 input  -57.11 | X-H torsion

> <Gold.Protein.ActiveResidues>
 VAL166  LYS551  ARG553  GLY616  TRP617  ASP618  TYR619  PRO620  LYS621  CYS622 
 ASP623  PHE694  ASN695  SER759  ASP760  ASP761  ALA762  ILE779  LEU786  VAL792 
 PHE793  MET794  SER795  GLU796  ALA797  LYS798  CYS799  TRP800  GLU811  SER814 

> <Gold.Protein.RotatedAtoms>
  150.7067  134.4759  159.5447 H   0  0  0  0  0  0  0  0  0  0  0  0  # atno 6907 bound_to 6896
  152.2406  134.8229  160.0470 H   0  0  0  0  0  0  0  0  0  0  0  0  # atno 6908 bound_to 6896
  151.9012  133.3503  159.3868 H   0  0  0  0  0  0  0  0  0  0  0  0  # atno 6909 bound_to 6896
  145.9954  139.4382  143.0048 H   0  0  0  0  0  0  0  0  0  0  0  0  # atno 7974 bound_to 7965
  154.8159  140.2876  155.5820 H   0  0  0  0  0  0  0  0  0  0  0  0  # atno 8008 bound_to 7997
  156.2993  140.2559  156.2987 H   0  0  0  0  0  0  0  0  0  0  0  0  # atno 8009 bound_to 7997
  154.9394  140.0381  157.2078 H   0  0  0  0  0  0  0  0  0  0  0  0  # atno 8010 bound_to 7997
  140.4116  143.2620  151.9009 H   0  0  0  0  0  0  0  0  0  0  0  0  # atno 10167 bound_to 10162
  157.2835  131.0840  151.1514 H   0  0  0  0  0  0  0  0  0  0  0  0  # atno 10718 bound_to 10713
  154.8651  135.4193  154.2504 H   0  0  0  0  0  0  0  0  0  0  0  0  # atno 10763 bound_to 10752
  153.3451  135.6996  153.6840 H   0  0  0  0  0  0  0  0  0  0  0  0  # atno 10764 bound_to 10752
  153.5803  135.3574  155.2845 H   0  0  0  0  0  0  0  0  0  0  0  0  # atno 10765 bound_to 10752
  140.3130  134.2628  155.7731 H   0  0  0  0  0  0  0  0  0  0  0  0  # atno 11005 bound_to 11000
  145.7568  140.9951  143.1221 LP  0  0  0  0  0  0  0  0  0  0  0  0  # atno 17320 bound_to 7965
  144.6902  139.9281  143.7470 LP  0  0  0  0  0  0  0  0  0  0  0  0  # atno 17321 bound_to 7965
  139.4782  144.5530  151.8356 LP  0  0  0  0  0  0  0  0  0  0  0  0  # atno 17342 bound_to 10162
  140.4631  144.1693  150.5908 LP  0  0  0  0  0  0  0  0  0  0  0  0  # atno 17343 bound_to 10162
  157.2939  130.6810  149.6128 LP  0  0  0  0  0  0  0  0  0  0  0  0  # atno 17370 bound_to 10713
  155.9665  130.4412  150.5332 LP  0  0  0  0  0  0  0  0  0  0  0  0  # atno 17371 bound_to 10713
  141.2104  133.7721  156.9935 LP  0  0  0  0  0  0  0  0  0  0  0  0  # atno 17394 bound_to 11000
  140.1008  134.9536  157.1920 LP  0  0  0  0  0  0  0  0  0  0  0  0  # atno 17395 bound_to 11000

$$$$
