AV-unprocessed.smi:275|AV-procd|sdf|2069|dock3
  -GOLD-   2262021323D 1   1.00000     0.00000
 Structure written by MMmdl.
 65 69  0  0  0  0  0  0  0  0  1 V2000
  156.7875  138.9560  158.4589 C   0  0  0  0  0  0  0  0  0  0  0  0
  155.6662  138.1275  157.8101 C   0  0  0  0  0  0  0  0  0  0  0  0
  156.1036  137.7755  156.3749 C   0  0  0  0  0  0  0  0  0  0  0  0
  154.2836  138.8312  157.8310 C   0  0  1  0  0  0  0  0  0  0  0  0
  153.2946  137.8654  157.3440 N   0  0  0  0  0  0  0  0  0  0  0  0
  152.3692  138.3186  156.3471 C   0  0  0  0  0  0  0  0  0  0  0  0
  152.7805  139.2448  155.4386 N   0  0  0  0  0  0  0  0  0  0  0  0
  151.9603  139.7122  154.4943 C   0  0  0  0  0  0  0  0  0  0  0  0
  150.6821  139.4068  154.2779 N   0  0  0  0  0  0  0  0  0  0  0  0
  150.2387  138.5018  155.1938 C   0  0  0  0  0  0  0  0  0  0  0  0
  151.0011  137.9199  156.2489 C   0  0  0  0  0  0  0  0  0  0  0  0
  150.1912  137.0563  156.9786 N   0  0  0  0  0  0  0  0  0  0  0  0
  149.0308  137.1135  156.3863 C   0  0  0  0  0  0  0  0  0  0  0  0
  148.9733  137.9532  155.2993 N   0  0  0  0  0  0  0  0  0  0  0  0
  147.8177  138.2084  154.4574 C   0  0  0  0  0  0  0  0  0  0  0  0
  147.9463  139.5003  153.6118 C   0  0  1  0  0  0  0  0  0  0  0  0
  147.0786  139.4696  152.3298 C   0  0  0  0  0  0  0  0  0  0  0  0
  147.7252  138.7726  151.2845 O   0  0  0  0  0  0  0  0  0  0  0  0
  147.6869  140.7664  154.4666 C   0  0  1  0  0  0  0  0  0  0  0  0
  146.2290  141.0155  154.8109 C   0  0  0  0  0  0  0  0  0  0  0  0
  146.3371  141.9831  155.9843 C   0  0  0  0  0  0  0  0  0  0  0  0
  147.5291  141.6201  156.6711 O   0  0  0  0  0  0  0  0  0  0  0  0
  148.3020  140.7317  155.8698 C   0  0  0  0  0  0  0  0  0  0  0  0
  152.7697  137.6434  158.6858 C   0  0  0  0  0  0  0  0  0  0  0  0
  153.3859  138.9878  159.0991 C   0  0  0  0  0  0  0  0  0  0  0  0
  152.3803  140.1650  159.0850 C   0  0  0  0  0  0  0  0  0  0  0  0
  153.0067  141.5225  159.4343 C   0  0  0  0  0  0  0  0  0  0  0  0
  153.6382  141.4808  160.8272 C   0  0  0  0  0  0  0  0  0  0  0  0
  154.6552  140.3411  160.9120 C   0  0  0  0  0  0  0  0  0  0  0  0
  154.0345  138.9899  160.4989 C   0  0  0  0  0  0  0  0  0  0  0  0
  156.7694  139.9906  158.1152 H   0  0  0  0  0  0  0  0  0  0  0  0
  157.7694  138.5482  158.2170 H   0  0  0  0  0  0  0  0  0  0  0  0
  156.7258  138.9480  159.5439 H   0  0  0  0  0  0  0  0  0  0  0  0
  155.6063  137.1896  158.3646 H   0  0  0  0  0  0  0  0  0  0  0  0
  156.2430  138.6740  155.7736 H   0  0  0  0  0  0  0  0  0  0  0  0
  155.3733  137.1445  155.8683 H   0  0  0  0  0  0  0  0  0  0  0  0
  157.0477  137.2304  156.3735 H   0  0  0  0  0  0  0  0  0  0  0  0
  154.2922  139.7665  157.2733 H   0  0  0  0  0  0  0  0  0  0  0  0
  152.3905  140.4354  153.8173 H   0  0  0  0  0  0  0  0  0  0  0  0
  148.1819  136.5373  156.7250 H   0  0  0  0  0  0  0  0  0  0  0  0
  147.6703  137.3461  153.8057 H   0  0  0  0  0  0  0  0  0  0  0  0
  146.9420  138.2584  155.1050 H   0  0  0  0  0  0  0  0  0  0  0  0
  148.9819  139.5514  153.2727 H   0  0  0  0  0  0  0  0  0  0  0  0
  146.1167  138.9951  152.5227 H   0  0  0  0  0  0  0  0  0  0  0  0
  146.8479  140.4787  151.9879 H   0  0  0  0  0  0  0  0  0  0  0  0
  148.1976  138.0436  151.6571 H   0  0  0  0  0  0  0  0  0  0  0  0
  148.0672  141.6451  153.9429 H   0  0  0  0  0  0  0  0  0  0  0  0
  145.6545  141.4302  153.9820 H   0  0  0  0  0  0  0  0  0  0  0  0
  145.7481  140.0900  155.1316 H   0  0  0  0  0  0  0  0  0  0  0  0
  146.4426  143.0075  155.6245 H   0  0  0  0  0  0  0  0  0  0  0  0
  145.4685  141.9414  156.6422 H   0  0  0  0  0  0  0  0  0  0  0  0
  148.2280  139.7326  156.3016 H   0  0  0  0  0  0  0  0  0  0  0  0
  149.3530  141.0214  155.8702 H   0  0  0  0  0  0  0  0  0  0  0  0
  151.6870  137.5918  158.7999 H   0  0  0  0  0  0  0  0  0  0  0  0
  153.2540  136.7879  159.1588 H   0  0  0  0  0  0  0  0  0  0  0  0
  151.9011  140.2587  158.1114 H   0  0  0  0  0  0  0  0  0  0  0  0
  151.5667  139.9621  159.7829 H   0  0  0  0  0  0  0  0  0  0  0  0
  153.7611  141.7839  158.6912 H   0  0  0  0  0  0  0  0  0  0  0  0
  152.2475  142.3038  159.3955 H   0  0  0  0  0  0  0  0  0  0  0  0
  154.1196  142.4331  161.0519 H   0  0  0  0  0  0  0  0  0  0  0  0
  152.8614  141.3378  161.5794 H   0  0  0  0  0  0  0  0  0  0  0  0
  155.4964  140.5920  160.2697 H   0  0  0  0  0  0  0  0  0  0  0  0
  155.0528  140.2727  161.9249 H   0  0  0  0  0  0  0  0  0  0  0  0
  153.2809  138.7228  161.2410 H   0  0  0  0  0  0  0  0  0  0  0  0
  154.7839  138.2030  160.5748 H   0  0  0  0  0  0  0  0  0  0  0  0
  1  2  1  0  0  0  0
  1 31  1  0  0  0  0
  1 32  1  0  0  0  0
  1 33  1  0  0  0  0
  2  3  1  0  0  0  0
  2  4  1  0  0  0  0
  2 34  1  0  0  0  0
  3 35  1  0  0  0  0
  3 36  1  0  0  0  0
  3 37  1  0  0  0  0
  4 25  1  0  0  0  0
  4  5  1  0  0  0  0
  4 38  1  0  0  0  0
  5  6  1  0  0  0  0
  5 24  1  0  0  0  0
  6 11  1  0  0  0  0
  6  7  2  0  0  0  0
  7  8  1  0  0  0  0
  8  9  2  0  0  0  0
  8 39  1  0  0  0  0
  9 10  1  0  0  0  0
 10 14  1  0  0  0  0
 10 11  2  0  0  0  0
 11 12  1  0  0  0  0
 12 13  2  0  0  0  0
 13 14  1  0  0  0  0
 13 40  1  0  0  0  0
 14 15  1  0  0  0  0
 15 16  1  0  0  0  0
 15 41  1  0  0  0  0
 15 42  1  0  0  0  0
 16 17  1  0  0  0  0
 16 19  1  0  0  0  0
 16 43  1  0  0  0  0
 17 18  1  0  0  0  0
 17 44  1  0  0  0  0
 17 45  1  0  0  0  0
 18 46  1  0  0  0  0
 19 23  1  0  0  0  0
 19 20  1  0  0  0  0
 19 47  1  0  0  0  0
 20 21  1  0  0  0  0
 20 48  1  0  0  0  0
 20 49  1  0  0  0  0
 21 22  1  0  0  0  0
 21 50  1  0  0  0  0
 21 51  1  0  0  0  0
 22 23  1  0  0  0  0
 23 52  1  0  0  0  0
 23 53  1  0  0  0  0
 24 25  1  0  0  0  0
 24 54  1  0  0  0  0
 24 55  1  0  0  0  0
 25 30  1  0  0  0  0
 25 26  1  0  0  0  0
 26 27  1  0  0  0  0
 26 56  1  0  0  0  0
 26 57  1  0  0  0  0
 27 28  1  0  0  0  0
 27 58  1  0  0  0  0
 27 59  1  0  0  0  0
 28 29  1  0  0  0  0
 28 60  1  0  0  0  0
 28 61  1  0  0  0  0
 29 30  1  0  0  0  0
 29 62  1  0  0  0  0
 29 63  1  0  0  0  0
 30 64  1  0  0  0  0
 30 65  1  0  0  0  0
M  END
> <s_m_source_file>
AV-unprocessed.smi

> <i_m_source_file_index>
275

> <i_lp_mmshare_version>
43012

> <i_f3d_flags>
0

> <s_epik_input>
W0NIMl0xW0NIMl1bQ0gyXVtDSDJdW0NIMl1DMTJbQ0BIXShbQ0hdKFtDSDNdKVtDSDNdKU4oW0NIMl0yKWMobltjSF1uMyljKGMzNCluW2NIXW40W0NIMl1bQ0BIXShbQ0gyXVtPSF0pW0NAQEhdNVtDSDJdW0NIMl1PW0NIMl01

> <s_epik_cmdline>
J2VwaWtfcHl0aG9uJywgJy1waCcsICc3LjAnLCAnLXRuJywgJzgnLCAnLW1hJywgJzIwMCcsICctbWV0YWxfYmluZGluZycsICctaW1hZScsICc8aW5maWxlLm1hZT4nLCAnLW9tYWUnLCAnPG91dGZpbGUubWFlPic=

> <r_lp_tautomer_probability>
1

> <r_epik_Ionization_Penalty>
0.00375122

> <r_epik_Ionization_Penalty_Charging>
0

> <r_epik_Ionization_Penalty_Neutral>
0.00375122

> <r_epik_State_Penalty>
0.00260593

> <r_epik_Charging_Adjusted_Penalty>
0.00260593

> <i_epik_Tot_Q>
0

> <i_epik_Tot_abs_Q>
0

> <r_epik_Metal_State_Penalty>
-0

> <b_epik_Metal_Only>
0

> <s_lp_Force_Field>
OPLS_2005

> <r_lp_Energy>
68.7999

> <b_lp_Chiralities_Consistent>
1

> <s_lp_Variant>
AV-unprocessed.smi:275-8

> <Gold.Version>
5.8.1

> <Gold.Id.Protein>
6NUR|6NUR_protein|mol2

> <Gold.PLP.Fitness>
39.2979

> <Gold.PLP.PLP>
-34.0857

> <Gold.PLP.part.hbond>
-3.8784

> <Gold.PLP.part.metal>
0.0000

> <Gold.PLP.part.buried>
0.7308

> <Gold.PLP.part.nonpolar>
-29.7531

> <Gold.PLP.part.repulsive>
0.5407

> <Gold.PLP.ligand.clash>
0.0000

> <Gold.PLP.ligand.torsion>
1.7405

> <Gold.PLP.Chemscore.Hbond>
2.6785

> <Gold.PLP.Chemscore.CHOScore>
0.0000

> <Gold.PLP.Chemscore.Metal>
0.0000

> <Gold.Chemscore.Hbonds>
donor molecule, donor type, donor heavy atom, donor atom, acceptor molecule, acceptor atom, score
      L1  H    18    46       P1  7948  1.00
      P1  H  7997  8009       L1     7  1.00

> <Gold.PLP.Chemscore.Internal.Correction>
0.6576

> <Gold.Rescore>
     Score         DG    S(hbond)    S(metal)    S(lipo)     H(rot)  DE(clash)    DE(int)     intcor
     12.86     -17.44       1.92        0.00     102.98       2.54       0.80       3.78       ----

> <Gold.Chemscore.Fitness>
12.8649

> <Gold.Chemscore.DG>
-17.4398

> <Gold.Chemscore.ZeroCoef>
-5.4800

> <Gold.Chemscore.Hbond>
1.9184

> <Gold.Chemscore.Metal>
0.0000

> <Gold.Chemscore.Lipo>
102.9808

> <Gold.Chemscore.Internal_Hbond>
0.0000

> <Gold.Chemscore.DEClash>
0.7999

> <Gold.Chemscore.DEInternal>
3.7750

> <Gold.Chemscore.Rot>
2.5377

> <Gold.Chemscore.Internal.Correction>
   9.000000E+99

> <Gold.Chemscore.Hbonds>
donor molecule, donor type, donor heavy atom, donor atom, acceptor molecule, acceptor atom, score
      L1  H    18    46       P1  7948  0.99
      P1  H  7997  8009       L1     7  0.59

> <Gold.Chemscore.Hbond.Weighted>
-6.4076

> <Gold.Chemscore.Metal.Weighted>
-0.0000

> <Gold.Chemscore.Lipo.Weighted>
-12.0488

> <Gold.Chemscore.Internal_Hbond.Weighted>
0.0000

> <Gold.Chemscore.DEClash.Weighted>
0.7999

> <Gold.Chemscore.DEInternal.Weighted>
3.7750

> <Gold.Chemscore.Rot.Weighted>
6.4966

> <Gold.Chemscore.Internal.Correction.Weighted>
   9.000000E+99

> <Gold.Protein.RotatedTorsions>
[ 6907 6896 6895 6894 ] final   98.13 input  -60.11 | X-H torsion
[ 7974 7965 7964 7962 ] final   47.67 input  175.53 | X-H torsion
[ 8008 7997 7996 7995 ] final -155.99 input   59.86 | X-H torsion
[ 10167 10162 10161 10158 ] final  -84.06 input  -65.29 | X-H torsion
[ 10718 10713 10712 10709 ] final  152.42 input   66.30 | X-H torsion
[ 10763 10752 10751 10750 ] final  147.92 input  -60.55 | X-H torsion
[ 11005 11000 10999 10996 ] final   70.64 input  -57.11 | X-H torsion

> <Gold.Protein.ActiveResidues>
 VAL166  LYS551  ARG553  GLY616  TRP617  ASP618  TYR619  PRO620  LYS621  CYS622 
 ASP623  PHE694  ASN695  SER759  ASP760  ASP761  ALA762  ILE779  LEU786  VAL792 
 PHE793  MET794  SER795  GLU796  ALA797  LYS798  CYS799  TRP800  GLU811  SER814 

> <Gold.Protein.RotatedAtoms>
  152.5414  134.0628  159.8159 H   0  0  0  0  0  0  0  0  0  0  0  0  # atno 6907 bound_to 6896
  151.0753  133.5426  159.2631 H   0  0  0  0  0  0  0  0  0  0  0  0  # atno 6908 bound_to 6896
  151.2273  135.0549  159.9027 H   0  0  0  0  0  0  0  0  0  0  0  0  # atno 6909 bound_to 6896
  146.0276  139.4725  142.9858 H   0  0  0  0  0  0  0  0  0  0  0  0  # atno 7974 bound_to 7965
  155.7103  140.0777  157.2373 H   0  0  0  0  0  0  0  0  0  0  0  0  # atno 8008 bound_to 7997
  154.4059  140.1631  156.2343 H   0  0  0  0  0  0  0  0  0  0  0  0  # atno 8009 bound_to 7997
  155.9288  140.3392  155.6235 H   0  0  0  0  0  0  0  0  0  0  0  0  # atno 8010 bound_to 7997
  140.4168  143.2600  151.8944 H   0  0  0  0  0  0  0  0  0  0  0  0  # atno 10167 bound_to 10162
  157.2580  131.0792  151.1685 H   0  0  0  0  0  0  0  0  0  0  0  0  # atno 10718 bound_to 10713
  154.0462  135.2885  155.3347 H   0  0  0  0  0  0  0  0  0  0  0  0  # atno 10763 bound_to 10752
  154.6898  135.5231  153.8380 H   0  0  0  0  0  0  0  0  0  0  0  0  # atno 10764 bound_to 10752
  153.0579  135.6602  154.0662 H   0  0  0  0  0  0  0  0  0  0  0  0  # atno 10765 bound_to 10752
  139.9587  134.7099  156.0695 H   0  0  0  0  0  0  0  0  0  0  0  0  # atno 11005 bound_to 11000
  145.7093  141.0111  143.1462 LP  0  0  0  0  0  0  0  0  0  0  0  0  # atno 17320 bound_to 7965
  144.7016  139.8738  143.7442 LP  0  0  0  0  0  0  0  0  0  0  0  0  # atno 17321 bound_to 7965
  139.4782  144.5479  151.8430 LP  0  0  0  0  0  0  0  0  0  0  0  0  # atno 17342 bound_to 10162
  140.4578  144.1765  150.5903 LP  0  0  0  0  0  0  0  0  0  0  0  0  # atno 17343 bound_to 10162
  157.3206  130.6935  149.6267 LP  0  0  0  0  0  0  0  0  0  0  0  0  # atno 17370 bound_to 10713
  155.9664  130.4336  150.5015 LP  0  0  0  0  0  0  0  0  0  0  0  0  # atno 17371 bound_to 10713
  141.1261  133.6599  156.3341 LP  0  0  0  0  0  0  0  0  0  0  0  0  # atno 17394 bound_to 11000
  140.5550  134.5990  157.5418 LP  0  0  0  0  0  0  0  0  0  0  0  0  # atno 17395 bound_to 11000

$$$$
