AV-unprocessed.smi:3308|AV-procd|sdf|12713|dock5
  -GOLD-   2272019 53D 1   1.00000     0.00000
 Structure written by MMmdl.
 40 41  0  0  0  0  0  0  0  0  1 V2000
  154.1933  144.7650  164.5324 C   0  0  0  0  0  0  0  0  0  0  0  0
  154.3437  143.2397  164.7225 C   0  0  1  0  0  0  0  0  0  0  0  0
  154.3842  142.6071  163.4074 N   0  0  0  0  0  0  0  0  0  0  0  0
  153.0858  142.6538  162.7232 C   0  0  0  0  0  0  0  0  0  0  0  0
  153.2375  142.3883  161.2222 C   0  0  0  0  0  0  0  0  0  0  0  0
  153.8261  141.3698  160.8593 O   0  0  0  0  0  0  0  0  0  0  0  0
  152.7249  143.2779  160.3453 N   0  0  0  0  0  0  0  0  0  0  0  0
  152.7750  143.1731  158.8869 C   0  0  0  0  0  0  0  0  0  0  0  0
  151.8607  144.2792  158.3596 C   0  0  0  0  0  0  0  0  0  0  0  0
  151.8523  145.3181  159.4723 C   0  0  0  0  0  0  0  0  0  0  0  0
  152.0295  144.4981  160.7502 C   0  0  0  0  0  0  0  0  0  0  0  0
  155.6316  142.8462  165.4949 C   0  0  2  0  0  0  0  0  0  0  0  0
  155.7871  141.3221  165.6545 C   0  0  0  0  0  0  0  0  0  0  0  0
  155.6918  143.4802  166.8064 N   0  0  0  0  0  0  0  0  0  0  0  0
  154.8787  143.2724  167.9031 C   0  0  0  0  0  0  0  0  0  0  0  0
  155.3225  144.0904  168.9021 C   0  0  0  0  0  0  0  0  0  0  0  0
  156.4305  144.7654  168.3183 C   0  0  0  0  0  0  0  0  0  0  0  0
  156.6503  144.3969  167.0668 N   0  0  0  0  0  0  0  0  0  0  0  0
  154.0997  145.2826  165.4868 H   0  0  0  0  0  0  0  0  0  0  0  0
  153.3071  145.0228  163.9534 H   0  0  0  0  0  0  0  0  0  0  0  0
  155.0571  145.1831  164.0143 H   0  0  0  0  0  0  0  0  0  0  0  0
  153.4851  142.8656  165.2837 H   0  0  0  0  0  0  0  0  0  0  0  0
  154.6932  141.6514  163.5152 H   0  0  0  0  0  0  0  0  0  0  0  0
  152.4277  141.8959  163.1512 H   0  0  0  0  0  0  0  0  0  0  0  0
  152.5919  143.6122  162.8797 H   0  0  0  0  0  0  0  0  0  0  0  0
  153.8004  143.3363  158.5524 H   0  0  0  0  0  0  0  0  0  0  0  0
  152.4506  142.1956  158.5280 H   0  0  0  0  0  0  0  0  0  0  0  0
  152.1950  144.6848  157.4044 H   0  0  0  0  0  0  0  0  0  0  0  0
  150.8527  143.8854  158.2207 H   0  0  0  0  0  0  0  0  0  0  0  0
  152.7019  145.9911  159.3488 H   0  0  0  0  0  0  0  0  0  0  0  0
  150.9451  145.9231  159.4805 H   0  0  0  0  0  0  0  0  0  0  0  0
  151.0592  144.2291  161.1702 H   0  0  0  0  0  0  0  0  0  0  0  0
  152.5836  145.0567  161.5061 H   0  0  0  0  0  0  0  0  0  0  0  0
  156.4900  143.2062  164.9233 H   0  0  0  0  0  0  0  0  0  0  0  0
  155.8569  140.8219  164.6885 H   0  0  0  0  0  0  0  0  0  0  0  0
  154.9429  140.8885  166.1913 H   0  0  0  0  0  0  0  0  0  0  0  0
  156.6938  141.0789  166.2098 H   0  0  0  0  0  0  0  0  0  0  0  0
  154.0584  142.5697  167.8793 H   0  0  0  0  0  0  0  0  0  0  0  0
  154.9181  144.1904  169.8984 H   0  0  0  0  0  0  0  0  0  0  0  0
  157.0775  145.5067  168.7636 H   0  0  0  0  0  0  0  0  0  0  0  0
  1  2  1  0  0  0  0
  1 19  1  0  0  0  0
  1 20  1  0  0  0  0
  1 21  1  0  0  0  0
  2  3  1  0  0  0  0
  2 12  1  0  0  0  0
  2 22  1  0  0  0  0
  3  4  1  0  0  0  0
  3 23  1  0  0  0  0
  4  5  1  0  0  0  0
  4 24  1  0  0  0  0
  4 25  1  0  0  0  0
  5  6  2  0  0  0  0
  5  7  1  0  0  0  0
  7 11  1  0  0  0  0
  7  8  1  0  0  0  0
  8  9  1  0  0  0  0
  8 26  1  0  0  0  0
  8 27  1  0  0  0  0
  9 10  1  0  0  0  0
  9 28  1  0  0  0  0
  9 29  1  0  0  0  0
 10 11  1  0  0  0  0
 10 30  1  0  0  0  0
 10 31  1  0  0  0  0
 11 32  1  0  0  0  0
 11 33  1  0  0  0  0
 12 13  1  0  0  0  0
 12 14  1  0  0  0  0
 12 34  1  0  0  0  0
 13 35  1  0  0  0  0
 13 36  1  0  0  0  0
 13 37  1  0  0  0  0
 14 18  1  0  0  0  0
 14 15  1  0  0  0  0
 15 16  2  0  0  0  0
 15 38  1  0  0  0  0
 16 17  1  0  0  0  0
 16 39  1  0  0  0  0
 17 18  2  0  0  0  0
 17 40  1  0  0  0  0
M  END
> <s_m_source_file>
AV-unprocessed.smi

> <i_m_source_file_index>
3308

> <i_lp_mmshare_version>
43012

> <i_f3d_flags>
0

> <s_epik_input>
bjFbY0hdW2NIXVtjSF1uMVtDQEBIXShbQ0gzXSlbQ0BIXShbQ0gzXSlbTkhdW0NIMl1DKD1PKU4yW0NIMl1bQ0gyXVtDSDJdW0NIMl0y

> <s_epik_cmdline>
J2VwaWtfcHl0aG9uJywgJy1waCcsICc3LjAnLCAnLXRuJywgJzgnLCAnLW1hJywgJzIwMCcsICctbWV0YWxfYmluZGluZycsICctaW1hZScsICc8aW5maWxlLm1hZT4nLCAnLW9tYWUnLCAnPG91dGZpbGUubWFlPic=

> <r_lp_tautomer_probability>
1

> <r_epik_Ionization_Penalty>
0.918676

> <r_epik_Ionization_Penalty_Charging>
0

> <r_epik_Ionization_Penalty_Neutral>
0.918676

> <r_epik_State_Penalty>
0.958258

> <r_epik_Charging_Adjusted_Penalty>
0.958258

> <i_epik_Tot_Q>
0

> <i_epik_Tot_abs_Q>
0

> <r_epik_Metal_State_Penalty>
0.956879

> <b_epik_Metal_Only>
0

> <s_lp_Force_Field>
OPLS_2005

> <r_lp_Energy>
35.768

> <b_lp_Chiralities_Consistent>
1

> <s_lp_Variant>
AV-unprocessed.smi:3308-6

> <Gold.Version>
5.8.1

> <Gold.Id.Protein>
6NUR|6NUR_protein|mol2

> <Gold.PLP.Fitness>
52.3738

> <Gold.PLP.PLP>
-52.7661

> <Gold.PLP.part.hbond>
-2.0000

> <Gold.PLP.part.metal>
0.0000

> <Gold.PLP.part.buried>
-4.8274

> <Gold.PLP.part.nonpolar>
-45.4072

> <Gold.PLP.part.repulsive>
0.0000

> <Gold.PLP.ligand.clash>
0.0000

> <Gold.PLP.ligand.torsion>
0.2291

> <Gold.PLP.Chemscore.Hbond>
0.0000

> <Gold.PLP.Chemscore.CHOScore>
0.0000

> <Gold.PLP.Chemscore.Metal>
0.0000

> <Gold.PLP.Chemscore.Internal.Correction>
0.0659

> <Gold.Rescore>
     Score         DG    S(hbond)    S(metal)    S(lipo)     H(rot)  DE(clash)    DE(int)     intcor
     13.21     -15.07       0.00        0.00     119.60       1.72       1.51       0.35       ----

> <Gold.Chemscore.Fitness>
13.2059

> <Gold.Chemscore.DG>
-15.0702

> <Gold.Chemscore.ZeroCoef>
-5.4800

> <Gold.Chemscore.Hbond>
0.0000

> <Gold.Chemscore.Metal>
0.0000

> <Gold.Chemscore.Lipo>
119.6012

> <Gold.Chemscore.Internal_Hbond>
0.0000

> <Gold.Chemscore.DEClash>
1.5095

> <Gold.Chemscore.DEInternal>
0.3548

> <Gold.Chemscore.Rot>
1.7200

> <Gold.Chemscore.Internal.Correction>
   9.000000E+99

> <Gold.Chemscore.Hbond.Weighted>
-0.0000

> <Gold.Chemscore.Metal.Weighted>
-0.0000

> <Gold.Chemscore.Lipo.Weighted>
-13.9933

> <Gold.Chemscore.Internal_Hbond.Weighted>
0.0000

> <Gold.Chemscore.DEClash.Weighted>
1.5095

> <Gold.Chemscore.DEInternal.Weighted>
0.3548

> <Gold.Chemscore.Rot.Weighted>
4.4031

> <Gold.Chemscore.Internal.Correction.Weighted>
   9.000000E+99

> <Gold.Protein.RotatedTorsions>
[ 6907 6896 6895 6894 ] final  146.14 input  -60.11 | X-H torsion
[ 7974 7965 7964 7962 ] final   79.29 input  175.53 | X-H torsion
[ 8008 7997 7996 7995 ] final -149.13 input   59.86 | X-H torsion
[ 10167 10162 10161 10158 ] final  -67.80 input  -65.29 | X-H torsion
[ 10718 10713 10712 10709 ] final  -36.33 input   66.30 | X-H torsion
[ 10763 10752 10751 10750 ] final   26.34 input  -60.55 | X-H torsion
[ 11005 11000 10999 10996 ] final  178.50 input  -57.11 | X-H torsion

> <Gold.Protein.ActiveResidues>
 VAL166  LYS551  ARG553  GLY616  TRP617  ASP618  TYR619  PRO620  LYS621  CYS622 
 ASP623  PHE694  ASN695  SER759  ASP760  ASP761  ALA762  ILE779  LEU786  VAL792 
 PHE793  MET794  SER795  GLU796  ALA797  LYS798  CYS799  TRP800  GLU811  SER814 

> <Gold.Protein.RotatedAtoms>
  152.1718  133.4648  159.4912 H   0  0  0  0  0  0  0  0  0  0  0  0  # atno 6907 bound_to 6896
  150.6921  134.1944  159.4306 H   0  0  0  0  0  0  0  0  0  0  0  0  # atno 6908 bound_to 6896
  151.9851  135.0008  160.0610 H   0  0  0  0  0  0  0  0  0  0  0  0  # atno 6909 bound_to 6896
  145.6661  139.2484  143.1895 H   0  0  0  0  0  0  0  0  0  0  0  0  # atno 7974 bound_to 7965
  155.6027  140.0663  157.2728 H   0  0  0  0  0  0  0  0  0  0  0  0  # atno 8008 bound_to 7997
  154.4274  140.1815  156.1237 H   0  0  0  0  0  0  0  0  0  0  0  0  # atno 8009 bound_to 7997
  156.0147  140.3323  155.6980 H   0  0  0  0  0  0  0  0  0  0  0  0  # atno 8010 bound_to 7997
  140.5555  143.2312  151.6829 H   0  0  0  0  0  0  0  0  0  0  0  0  # atno 10167 bound_to 10162
  156.3281  130.4275  149.7898 H   0  0  0  0  0  0  0  0  0  0  0  0  # atno 10718 bound_to 10713
  153.0629  135.6562  154.0421 H   0  0  0  0  0  0  0  0  0  0  0  0  # atno 10763 bound_to 10752
  154.0085  135.2930  155.3396 H   0  0  0  0  0  0  0  0  0  0  0  0  # atno 10764 bound_to 10752
  154.6975  135.5258  153.8547 H   0  0  0  0  0  0  0  0  0  0  0  0  # atno 10765 bound_to 10752
  140.3958  134.6822  157.4533 H   0  0  0  0  0  0  0  0  0  0  0  0  # atno 11005 bound_to 11000
  146.1084  140.7458  142.9515 LP  0  0  0  0  0  0  0  0  0  0  0  0  # atno 17320 bound_to 7965
  144.7072  140.3900  143.7108 LP  0  0  0  0  0  0  0  0  0  0  0  0  # atno 17321 bound_to 7965
  139.5046  144.3748  152.0435 LP  0  0  0  0  0  0  0  0  0  0  0  0  # atno 17342 bound_to 10162
  140.2869  144.3797  150.6101 LP  0  0  0  0  0  0  0  0  0  0  0  0  # atno 17343 bound_to 10162
  156.5181  130.8202  151.3193 LP  0  0  0  0  0  0  0  0  0  0  0  0  # atno 17370 bound_to 10713
  157.7425  130.9892  150.2521 LP  0  0  0  0  0  0  0  0  0  0  0  0  # atno 17371 bound_to 10713
  140.0373  134.6319  155.9027 LP  0  0  0  0  0  0  0  0  0  0  0  0  # atno 17394 bound_to 11000
  141.1875  133.6560  156.5283 LP  0  0  0  0  0  0  0  0  0  0  0  0  # atno 17395 bound_to 11000

$$$$
