AV-unprocessed.smi:502|AV-procd|sdf|2745|dock6
  -GOLD-   2262023213D 1   1.00000     0.00000
 Structure written by MMmdl.
 49 51  0  0  0  0  0  0  0  0  2 V2000
  146.2526  134.4666  151.3492 C   0  0  0  0  0  0  0  0  0  0  0  0
  145.6090  135.3174  152.4387 C   0  0  0  0  0  0  0  0  0  0  0  0
  144.3994  135.2385  152.6518 O   0  0  0  0  0  0  0  0  0  0  0  0
  146.4300  136.1290  153.1219 N   0  0  0  0  0  0  0  0  0  0  0  0
  146.0135  137.0350  154.1859 C   0  0  0  0  0  0  0  0  0  0  0  0
  146.7067  136.7078  155.5189 C   0  0  0  0  0  0  0  0  0  0  0  0
  148.0650  137.3267  155.5969 C   0  0  0  0  0  0  0  0  0  0  0  0
  148.9763  137.3613  154.5835 N   0  3  0  0  0  0  0  0  0  0  0  0
  150.1375  138.0050  155.0119 C   0  0  0  0  0  0  0  0  0  0  0  0
  151.3271  138.2799  154.3444 C   0  0  0  0  0  0  0  0  0  0  0  0
  152.3227  138.9577  155.0787 C   0  0  0  0  0  0  0  0  0  0  0  0
  152.1154  139.3359  156.4213 C   0  0  0  0  0  0  0  0  0  0  0  0
  150.9048  139.0518  157.0871 C   0  0  0  0  0  0  0  0  0  0  0  0
  149.9268  138.3797  156.3543 C   0  0  0  0  0  0  0  0  0  0  0  0
  148.6392  137.9352  156.6759 N   0  0  0  0  0  0  0  0  0  0  0  0
  148.1247  138.1720  158.0320 C   0  0  0  0  0  0  0  0  0  0  0  0
  148.7565  137.2299  159.0654 C   0  0  0  0  0  0  0  0  0  0  0  0
  147.9640  137.2587  160.2432 O   0  0  0  0  0  0  0  0  0  0  0  0
  147.6203  136.0598  160.8338 C   0  0  0  0  0  0  0  0  0  0  0  0
  147.8908  134.7920  160.2573 C   0  0  0  0  0  0  0  0  0  0  0  0
  147.5102  133.6088  160.9185 C   0  0  0  0  0  0  0  0  0  0  0  0
  146.8568  133.6743  162.1617 C   0  0  0  0  0  0  0  0  0  0  0  0
  146.5832  134.9252  162.7434 C   0  0  0  0  0  0  0  0  0  0  0  0
  146.9616  136.1140  162.0847 C   0  0  0  0  0  0  0  0  0  0  0  0
  146.6590  137.4548  162.7273 C   0  0  0  0  0  0  0  0  0  0  0  0
  147.0250  133.8241  151.7724 H   0  0  0  0  0  0  0  0  0  0  0  0
  146.7087  135.1019  150.5896 H   0  0  0  0  0  0  0  0  0  0  0  0
  145.5106  133.8330  150.8624 H   0  0  0  0  0  0  0  0  0  0  0  0
  147.4101  136.1290  152.8775 H   0  0  0  0  0  0  0  0  0  0  0  0
  146.2586  138.0504  153.8763 H   0  0  0  0  0  0  0  0  0  0  0  0
  144.9286  136.9981  154.2994 H   0  0  0  0  0  0  0  0  0  0  0  0
  146.1109  137.0742  156.3558 H   0  0  0  0  0  0  0  0  0  0  0  0
  146.7909  135.6292  155.6516 H   0  0  0  0  0  0  0  0  0  0  0  0
  151.4880  137.9911  153.3161 H   0  0  0  0  0  0  0  0  0  0  0  0
  153.2641  139.1918  154.6029 H   0  0  0  0  0  0  0  0  0  0  0  0
  152.9013  139.8537  156.9522 H   0  0  0  0  0  0  0  0  0  0  0  0
  150.7559  139.3439  158.1161 H   0  0  0  0  0  0  0  0  0  0  0  0
  148.3019  139.2159  158.2939 H   0  0  0  0  0  0  0  0  0  0  0  0
  147.0436  138.0364  158.0148 H   0  0  0  0  0  0  0  0  0  0  0  0
  148.8004  136.2162  158.6656 H   0  0  0  0  0  0  0  0  0  0  0  0
  149.7745  137.5498  159.2919 H   0  0  0  0  0  0  0  0  0  0  0  0
  148.3901  134.6976  159.3052 H   0  0  0  0  0  0  0  0  0  0  0  0
  147.7205  132.6491  160.4701 H   0  0  0  0  0  0  0  0  0  0  0  0
  146.5659  132.7663  162.6689 H   0  0  0  0  0  0  0  0  0  0  0  0
  146.0811  134.9678  163.6990 H   0  0  0  0  0  0  0  0  0  0  0  0
  146.1675  137.3335  163.6932 H   0  0  0  0  0  0  0  0  0  0  0  0
  146.0031  138.0429  162.0850 H   0  0  0  0  0  0  0  0  0  0  0  0
  147.5807  138.0156  162.8847 H   0  0  0  0  0  0  0  0  0  0  0  0
  148.8116  136.9714  153.6641 H   0  0  0  0  0  0  0  0  0  0  0  0
  1  2  1  0  0  0  0
  1 26  1  0  0  0  0
  1 27  1  0  0  0  0
  1 28  1  0  0  0  0
  2  3  2  0  0  0  0
  2  4  1  0  0  0  0
  4  5  1  0  0  0  0
  4 29  1  0  0  0  0
  5  6  1  0  0  0  0
  5 30  1  0  0  0  0
  5 31  1  0  0  0  0
  6  7  1  0  0  0  0
  6 32  1  0  0  0  0
  6 33  1  0  0  0  0
  7 15  1  0  0  0  0
  7  8  2  0  0  0  0
  8  9  1  0  0  0  0
  8 49  1  0  0  0  0
  9 14  2  0  0  0  0
  9 10  1  0  0  0  0
 10 11  2  0  0  0  0
 10 34  1  0  0  0  0
 11 12  1  0  0  0  0
 11 35  1  0  0  0  0
 12 13  2  0  0  0  0
 12 36  1  0  0  0  0
 13 14  1  0  0  0  0
 13 37  1  0  0  0  0
 14 15  1  0  0  0  0
 15 16  1  0  0  0  0
 16 17  1  0  0  0  0
 16 38  1  0  0  0  0
 16 39  1  0  0  0  0
 17 18  1  0  0  0  0
 17 40  1  0  0  0  0
 17 41  1  0  0  0  0
 18 19  1  0  0  0  0
 19 24  1  0  0  0  0
 19 20  2  0  0  0  0
 20 21  1  0  0  0  0
 20 42  1  0  0  0  0
 21 22  2  0  0  0  0
 21 43  1  0  0  0  0
 22 23  1  0  0  0  0
 22 44  1  0  0  0  0
 23 24  2  0  0  0  0
 23 45  1  0  0  0  0
 24 25  1  0  0  0  0
 25 46  1  0  0  0  0
 25 47  1  0  0  0  0
 25 48  1  0  0  0  0
M  CHG  1   8   1
M  END
> <s_m_source_file>
AV-unprocessed.smi

> <i_m_source_file_index>
502

> <i_lp_mmshare_version>
43012

> <i_f3d_flags>
0

> <s_epik_input>
W0NIM11DKD1PKVtOSF1bQ0gyXVtDSDJdYyhuMSluKGMoYzEyKVtjSF1bY0hdW2NIXVtjSF0yKVtDSDJdW0NIMl1PYzNbY0hdW2NIXVtjSF1bY0hdYzNbQ0gzXQ==

> <s_epik_cmdline>
J2VwaWtfcHl0aG9uJywgJy1waCcsICc3LjAnLCAnLXRuJywgJzgnLCAnLW1hJywgJzIwMCcsICctbWV0YWxfYmluZGluZycsICctaW1hZScsICc8aW5maWxlLm1hZT4nLCAnLW9tYWUnLCAnPG91dGZpbGUubWFlPic=

> <r_lp_tautomer_probability>
1

> <r_epik_Ionization_Penalty>
1.10789

> <r_epik_Ionization_Penalty_Charging>
1.10789

> <r_epik_Ionization_Penalty_Neutral>
3.05925e-07

> <r_epik_State_Penalty>
1.16562

> <r_epik_Charging_Adjusted_Penalty>
2.27351

> <i_epik_Tot_Q>
1

> <i_epik_Tot_abs_Q>
1

> <r_epik_Metal_State_Penalty>
1.2518

> <b_epik_Metal_Only>
0

> <s_lp_Force_Field>
OPLS_2005

> <r_lp_Energy>
20.1677

> <b_lp_Chiralities_Consistent>
1

> <s_lp_Variant>
AV-unprocessed.smi:502-2

> <Gold.Version>
5.8.1

> <Gold.Id.Protein>
6NUR|6NUR_protein|mol2

> <Gold.PLP.Fitness>
51.6011

> <Gold.PLP.PLP>
-40.9766

> <Gold.PLP.part.hbond>
-4.0000

> <Gold.PLP.part.metal>
0.0000

> <Gold.PLP.part.buried>
-3.4237

> <Gold.PLP.part.nonpolar>
-33.4847

> <Gold.PLP.part.repulsive>
0.0790

> <Gold.PLP.ligand.clash>
0.0000

> <Gold.PLP.ligand.torsion>
1.0047

> <Gold.PLP.Chemscore.Hbond>
4.1736

> <Gold.PLP.Chemscore.CHOScore>
0.0000

> <Gold.PLP.Chemscore.Metal>
0.0000

> <Gold.Chemscore.Hbonds>
donor molecule, donor type, donor heavy atom, donor atom, acceptor molecule, acceptor atom, score
      L1  H     4    29       P1  7948  1.00
      L1  H     8    49       P1  7948  2.00
      P1  H  6931  6943       L1    18  0.37
      P1  H  6934  6947       L1    18  0.73

> <Gold.PLP.Chemscore.Internal.Correction>
0.1130

> <Gold.Rescore>
     Score         DG    S(hbond)    S(metal)    S(lipo)     H(rot)  DE(clash)    DE(int)     intcor
     20.16     -21.01       2.71        0.00     103.09       2.18       0.03       0.81       ----

> <Gold.Chemscore.Fitness>
20.1632

> <Gold.Chemscore.DG>
-21.0052

> <Gold.Chemscore.ZeroCoef>
-5.4800

> <Gold.Chemscore.Hbond>
2.7075

> <Gold.Chemscore.Metal>
0.0000

> <Gold.Chemscore.Lipo>
103.0874

> <Gold.Chemscore.Internal_Hbond>
0.0000

> <Gold.Chemscore.DEClash>
0.0279

> <Gold.Chemscore.DEInternal>
0.8141

> <Gold.Chemscore.Rot>
2.1793

> <Gold.Chemscore.Internal.Correction>
   9.000000E+99

> <Gold.Chemscore.Hbonds>
donor molecule, donor type, donor heavy atom, donor atom, acceptor molecule, acceptor atom, score
      L1  H     4    29       P1  7948  1.00
      L1  H     8    49       P1  7948  0.99
      P1  H  6931  6943       L1    18  0.10
      P1  H  6934  6947       L1    18  0.67

> <Gold.Chemscore.Hbond.Weighted>
-9.0431

> <Gold.Chemscore.Metal.Weighted>
-0.0000

> <Gold.Chemscore.Lipo.Weighted>
-12.0612

> <Gold.Chemscore.Internal_Hbond.Weighted>
0.0000

> <Gold.Chemscore.DEClash.Weighted>
0.0279

> <Gold.Chemscore.DEInternal.Weighted>
0.8141

> <Gold.Chemscore.Rot.Weighted>
5.5791

> <Gold.Chemscore.Internal.Correction.Weighted>
   9.000000E+99

> <Gold.Protein.RotatedTorsions>
[ 6907 6896 6895 6894 ] final  -55.99 input  -60.11 | X-H torsion
[ 7974 7965 7964 7962 ] final -174.76 input  175.53 | X-H torsion
[ 8008 7997 7996 7995 ] final  -93.96 input   59.86 | X-H torsion
[ 10167 10162 10161 10158 ] final  -78.52 input  -65.29 | X-H torsion
[ 10718 10713 10712 10709 ] final   92.20 input   66.30 | X-H torsion
[ 10763 10752 10751 10750 ] final -174.77 input  -60.55 | X-H torsion
[ 11005 11000 10999 10996 ] final -110.25 input  -57.11 | X-H torsion

> <Gold.Protein.ActiveResidues>
 VAL166  LYS551  ARG553  GLY616  TRP617  ASP618  TYR619  PRO620  LYS621  CYS622 
 ASP623  PHE694  ASN695  SER759  ASP760  ASP761  ALA762  ILE779  LEU786  VAL792 
 PHE793  MET794  SER795  GLU796  ALA797  LYS798  CYS799  TRP800  GLU811  SER814 

> <Gold.Protein.RotatedAtoms>
  150.8205  134.7410  159.6767 H   0  0  0  0  0  0  0  0  0  0  0  0  # atno 6907 bound_to 6896
  152.4321  134.5755  159.9943 H   0  0  0  0  0  0  0  0  0  0  0  0  # atno 6908 bound_to 6896
  151.5940  133.3326  159.3069 H   0  0  0  0  0  0  0  0  0  0  0  0  # atno 6909 bound_to 6896
  144.7130  140.1423  143.6391 H   0  0  0  0  0  0  0  0  0  0  0  0  # atno 7974 bound_to 7965
  154.7424  140.0494  157.0822 H   0  0  0  0  0  0  0  0  0  0  0  0  # atno 8008 bound_to 7997
  155.0162  140.3141  155.4791 H   0  0  0  0  0  0  0  0  0  0  0  0  # atno 8009 bound_to 7997
  156.2867  140.2175  156.5278 H   0  0  0  0  0  0  0  0  0  0  0  0  # atno 8010 bound_to 7997
  140.4675  143.2436  151.8256 H   0  0  0  0  0  0  0  0  0  0  0  0  # atno 10167 bound_to 10162
  157.6959  131.0435  150.3846 H   0  0  0  0  0  0  0  0  0  0  0  0  # atno 10718 bound_to 10713
  154.5923  135.2846  155.0622 H   0  0  0  0  0  0  0  0  0  0  0  0  # atno 10763 bound_to 10752
  154.1918  135.6439  153.5066 H   0  0  0  0  0  0  0  0  0  0  0  0  # atno 10764 bound_to 10752
  153.0126  135.5448  154.6613 H   0  0  0  0  0  0  0  0  0  0  0  0  # atno 10765 bound_to 10752
  141.0802  133.9232  157.2304 H   0  0  0  0  0  0  0  0  0  0  0  0  # atno 11005 bound_to 11000
  145.9191  139.2534  143.1392 LP  0  0  0  0  0  0  0  0  0  0  0  0  # atno 17320 bound_to 7965
  145.9638  140.8814  143.0197 LP  0  0  0  0  0  0  0  0  0  0  0  0  # atno 17321 bound_to 7965
  139.4814  144.4933  151.9157 LP  0  0  0  0  0  0  0  0  0  0  0  0  # atno 17342 bound_to 10162
  140.4018  144.2483  150.5892 LP  0  0  0  0  0  0  0  0  0  0  0  0  # atno 17343 bound_to 10162
  156.4256  130.3961  149.6795 LP  0  0  0  0  0  0  0  0  0  0  0  0  # atno 17370 bound_to 10713
  156.4030  130.7684  151.2693 LP  0  0  0  0  0  0  0  0  0  0  0  0  # atno 17371 bound_to 10713
  139.9616  135.0153  156.9276 LP  0  0  0  0  0  0  0  0  0  0  0  0  # atno 17394 bound_to 11000
  140.5484  134.0651  155.7362 LP  0  0  0  0  0  0  0  0  0  0  0  0  # atno 17395 bound_to 11000

$$$$
