AV-unprocessed.smi:47|AV-procd|sdf|446|dock4
  -GOLD-   2262016313D 1   1.00000     0.00000
 Structure written by MMmdl.
 30 32  0  0  0  0  0  0  0  0  2 V2000
  145.7814  140.3419  154.5750 O   0  0  0  0  0  0  0  0  0  0  0  0
  147.1383  140.7237  154.6577 C   0  0  2  0  0  0  0  0  0  0  0  0
  147.6762  141.2537  153.3352 C   0  0  0  0  0  0  0  0  0  0  0  0
  149.1222  141.1371  153.4596 N   0  0  0  0  0  0  0  0  0  0  0  0
  149.4062  139.9672  154.2987 C   0  0  1  0  0  0  0  0  0  0  0  0
  150.4709  140.2420  155.3454 C   0  0  0  0  0  0  0  0  0  0  0  0
  151.6451  139.5864  155.4504 N   0  0  0  0  0  0  0  0  0  0  0  0
  152.2930  140.1500  156.4525 N   0  5  0  0  0  0  0  0  0  0  0  0
  151.5214  141.1370  156.9326 C   0  0  0  0  0  0  0  0  0  0  0  0
  151.9422  141.9880  158.0650 C   0  0  0  0  0  0  0  0  0  0  0  0
  151.5565  143.3475  158.1208 C   0  0  0  0  0  0  0  0  0  0  0  0
  151.9502  144.1716  159.1933 C   0  0  0  0  0  0  0  0  0  0  0  0
  152.7395  143.6460  160.2320 C   0  0  0  0  0  0  0  0  0  0  0  0
  153.1327  142.2960  160.1934 C   0  0  0  0  0  0  0  0  0  0  0  0
  152.7364  141.4761  159.1187 C   0  0  0  0  0  0  0  0  0  0  0  0
  150.3835  141.2225  156.2579 N   0  0  0  0  0  0  0  0  0  0  0  0
  148.0700  139.5492  154.9396 C   0  0  0  0  0  0  0  0  0  0  0  0
  147.2553  141.4822  155.4333 H   0  0  0  0  0  0  0  0  0  0  0  0
  149.7633  139.1498  153.6711 H   0  0  0  0  0  0  0  0  0  0  0  0
  145.4618  140.5639  153.7138 H   0  0  0  0  0  0  0  0  0  0  0  0
  147.3275  140.6274  152.5128 H   0  0  0  0  0  0  0  0  0  0  0  0
  147.3644  142.2786  153.1329 H   0  0  0  0  0  0  0  0  0  0  0  0
  149.5250  141.0062  152.5377 H   0  0  0  0  0  0  0  0  0  0  0  0
  150.9501  143.7696  157.3329 H   0  0  0  0  0  0  0  0  0  0  0  0
  151.6455  145.2073  159.2171 H   0  0  0  0  0  0  0  0  0  0  0  0
  153.0422  144.2758  161.0554 H   0  0  0  0  0  0  0  0  0  0  0  0
  153.7391  141.8871  160.9881 H   0  0  0  0  0  0  0  0  0  0  0  0
  153.0500  140.4427  159.1105 H   0  0  0  0  0  0  0  0  0  0  0  0
  148.1478  139.3181  156.0029 H   0  0  0  0  0  0  0  0  0  0  0  0
  147.7025  138.6536  154.4364 H   0  0  0  0  0  0  0  0  0  0  0  0
  1  2  1  0  0  0  0
  1 20  1  0  0  0  0
  2 18  1  0  0  0  0
  2 17  1  0  0  0  0
  2  3  1  0  0  0  0
  3  4  1  0  0  0  0
  3 21  1  0  0  0  0
  3 22  1  0  0  0  0
  4  5  1  0  0  0  0
  4 23  1  0  0  0  0
  5 19  1  0  0  0  0
  5  6  1  0  0  0  0
  5 17  1  0  0  0  0
  6 16  1  0  0  0  0
  6  7  2  0  0  0  0
  7  8  1  0  0  0  0
  8  9  1  0  0  0  0
  9 10  1  0  0  0  0
  9 16  2  0  0  0  0
 10 15  1  0  0  0  0
 10 11  2  0  0  0  0
 11 12  1  0  0  0  0
 11 24  1  0  0  0  0
 12 13  2  0  0  0  0
 12 25  1  0  0  0  0
 13 14  1  0  0  0  0
 13 26  1  0  0  0  0
 14 15  2  0  0  0  0
 14 27  1  0  0  0  0
 15 28  1  0  0  0  0
 17 29  1  0  0  0  0
 17 30  1  0  0  0  0
M  CHG  1   8  -1
M  END
> <s_m_source_file>
AV-unprocessed.smi

> <i_m_source_file_index>
47

> <i_lp_mmshare_version>
43012

> <i_f3d_flags>
0

> <s_epik_input>
W09IXVtDQEhdMVtDSDJdW05IXVtDQEBIXShbQ0gyXTEpYzJuW25IXWMobjIpLWMzW2NIXVtjSF1bY0hdW2NIXVtjSF0z

> <s_epik_cmdline>
J2VwaWtfcHl0aG9uJywgJy1waCcsICc3LjAnLCAnLXRuJywgJzgnLCAnLW1hJywgJzIwMCcsICctbWV0YWxfYmluZGluZycsICctaW1hZScsICc8aW5maWxlLm1hZT4nLCAnLW9tYWUnLCAnPG91dGZpbGUubWFlPic=

> <r_epik_Ionization_Penalty>
16.1968

> <r_epik_Ionization_Penalty_Charging>
13.1522

> <r_epik_Ionization_Penalty_Neutral>
3.04463

> <r_epik_State_Penalty>
6.32428

> <r_epik_Charging_Adjusted_Penalty>
19.4764

> <i_epik_Tot_Q>
-1

> <i_epik_Tot_abs_Q>
1

> <r_epik_Metal_State_Penalty>
2.82187

> <b_epik_Metal_Only>
1

> <s_lp_Force_Field>
OPLS_2005

> <r_lp_Energy>
30.4729

> <b_lp_Chiralities_Consistent>
1

> <s_lp_Variant>
AV-unprocessed.smi:47-24

> <Gold.Version>
5.8.1

> <Gold.Id.Protein>
6NUR|6NUR_protein|mol2

> <Gold.PLP.Fitness>
44.7770

> <Gold.PLP.PLP>
-35.0348

> <Gold.PLP.part.hbond>
-5.1383

> <Gold.PLP.part.metal>
0.0000

> <Gold.PLP.part.buried>
-3.6919

> <Gold.PLP.part.nonpolar>
-25.3773

> <Gold.PLP.part.repulsive>
0.0682

> <Gold.PLP.ligand.clash>
0.0000

> <Gold.PLP.ligand.torsion>
0.4673

> <Gold.PLP.Chemscore.Hbond>
3.5555

> <Gold.PLP.Chemscore.CHOScore>
0.0000

> <Gold.PLP.Chemscore.Metal>
0.0000

> <Gold.Chemscore.Hbonds>
donor molecule, donor type, donor heavy atom, donor atom, acceptor molecule, acceptor atom, score
      L1  H     1    20       P1 10175  0.56
      L1  H     4    23       P1  7957  0.96
      P1  H  7997  8010       L1     8  1.95

> <Gold.PLP.Chemscore.Internal.Correction>
0.0103

> <Gold.Rescore>
     Score         DG    S(hbond)    S(metal)    S(lipo)     H(rot)  DE(clash)    DE(int)     intcor
     19.71     -20.35       2.48        0.00      88.36       1.46       0.21       0.43       ----

> <Gold.Chemscore.Fitness>
19.7135

> <Gold.Chemscore.DG>
-20.3531

> <Gold.Chemscore.ZeroCoef>
-5.4800

> <Gold.Chemscore.Hbond>
2.4783

> <Gold.Chemscore.Metal>
0.0000

> <Gold.Chemscore.Lipo>
88.3616

> <Gold.Chemscore.Internal_Hbond>
0.0000

> <Gold.Chemscore.DEClash>
0.2114

> <Gold.Chemscore.DEInternal>
0.4282

> <Gold.Chemscore.Rot>
1.4621

> <Gold.Chemscore.Internal.Correction>
   9.000000E+99

> <Gold.Chemscore.Hbonds>
donor molecule, donor type, donor heavy atom, donor atom, acceptor molecule, acceptor atom, score
      L1  H     1    20       P1 10175  0.54
      L1  H     4    23       P1  7957  0.92
      P1  H  7997  8010       L1     8  0.87

> <Gold.Chemscore.Hbond.Weighted>
-8.2776

> <Gold.Chemscore.Metal.Weighted>
-0.0000

> <Gold.Chemscore.Lipo.Weighted>
-10.3383

> <Gold.Chemscore.Internal_Hbond.Weighted>
0.0000

> <Gold.Chemscore.DEClash.Weighted>
0.2114

> <Gold.Chemscore.DEInternal.Weighted>
0.4282

> <Gold.Chemscore.Rot.Weighted>
3.7429

> <Gold.Chemscore.Internal.Correction.Weighted>
   9.000000E+99

> <Gold.Protein.RotatedTorsions>
[ 6907 6896 6895 6894 ] final  -26.35 input  -60.11 | X-H torsion
[ 7974 7965 7964 7962 ] final -109.69 input  175.53 | X-H torsion
[ 8008 7997 7996 7995 ] final   74.31 input   59.86 | X-H torsion
[ 10167 10162 10161 10158 ] final -151.62 input  -65.29 | X-H torsion
[ 10718 10713 10712 10709 ] final    0.00 input   66.30 | X-H torsion
[ 10763 10752 10751 10750 ] final   98.30 input  -60.55 | X-H torsion
[ 11005 11000 10999 10996 ] final   33.65 input  -57.11 | X-H torsion

> <Gold.Protein.ActiveResidues>
 VAL166  LYS551  ARG553  GLY616  TRP617  ASP618  TYR619  PRO620  LYS621  CYS622 
 ASP623  PHE694  ASN695  SER759  ASP760  ASP761  ALA762  ILE779  LEU786  VAL792 
 PHE793  MET794  SER795  GLU796  ALA797  LYS798  CYS799  TRP800  GLU811  SER814 

> <Gold.Protein.RotatedAtoms>
  151.1622  135.0278  159.8714 H   0  0  0  0  0  0  0  0  0  0  0  0  # atno 6907 bound_to 6896
  152.5451  134.1266  159.8432 H   0  0  0  0  0  0  0  0  0  0  0  0  # atno 6908 bound_to 6896
  151.1363  133.4956  159.2630 H   0  0  0  0  0  0  0  0  0  0  0  0  # atno 6909 bound_to 6896
  145.1774  140.8955  143.3500 H   0  0  0  0  0  0  0  0  0  0  0  0  # atno 7974 bound_to 7965
  155.7964  140.3477  155.5378 H   0  0  0  0  0  0  0  0  0  0  0  0  # atno 8008 bound_to 7997
  155.8582  140.0967  157.1651 H   0  0  0  0  0  0  0  0  0  0  0  0  # atno 8009 bound_to 7997
  154.4010  140.1363  156.3915 H   0  0  0  0  0  0  0  0  0  0  0  0  # atno 8010 bound_to 7997
  139.7251  143.8895  152.2516 H   0  0  0  0  0  0  0  0  0  0  0  0  # atno 10167 bound_to 10162
  156.8270  130.5475  149.5691 H   0  0  0  0  0  0  0  0  0  0  0  0  # atno 10718 bound_to 10713
  153.2874  135.4153  155.1135 H   0  0  0  0  0  0  0  0  0  0  0  0  # atno 10763 bound_to 10752
  154.8509  135.3510  154.6028 H   0  0  0  0  0  0  0  0  0  0  0  0  # atno 10764 bound_to 10752
  153.6450  135.7055  153.5286 H   0  0  0  0  0  0  0  0  0  0  0  0  # atno 10765 bound_to 10752
  140.2609  134.3193  155.7858 H   0  0  0  0  0  0  0  0  0  0  0  0  # atno 11005 bound_to 11000
  145.0171  139.3457  143.6091 LP  0  0  0  0  0  0  0  0  0  0  0  0  # atno 17320 bound_to 7965
  146.3459  139.9457  142.8735 LP  0  0  0  0  0  0  0  0  0  0  0  0  # atno 17321 bound_to 7965
  139.8802  144.7021  150.8886 LP  0  0  0  0  0  0  0  0  0  0  0  0  # atno 17342 bound_to 10162
  140.7761  143.3667  151.1726 LP  0  0  0  0  0  0  0  0  0  0  0  0  # atno 17343 bound_to 10162
  156.0956  130.5930  150.9808 LP  0  0  0  0  0  0  0  0  0  0  0  0  # atno 17370 bound_to 10713
  157.6427  131.0908  150.8218 LP  0  0  0  0  0  0  0  0  0  0  0  0  # atno 17371 bound_to 10713
  141.2190  133.7409  156.9185 LP  0  0  0  0  0  0  0  0  0  0  0  0  # atno 17394 bound_to 11000
  140.1466  134.9258  157.2537 LP  0  0  0  0  0  0  0  0  0  0  0  0  # atno 17395 bound_to 11000

$$$$
