AV-unprocessed.smi:294|AV-procd|sdf|2252|dock8
  -GOLD-   2262022133D 1   1.00000     0.00000
 Structure written by MMmdl.
 29 30  0  0  0  0  0  0  0  0  1 V2000
  153.8022  138.6285  155.0958 N   0  0  0  0  0  0  0  0  0  0  0  0
  152.6741  138.8135  154.9160 C   0  0  0  0  0  0  0  0  0  0  0  0
  151.2578  139.0454  154.6908 C   0  0  0  0  0  0  0  0  0  0  0  0
  150.3744  138.0109  154.5803 N   0  0  0  0  0  0  0  0  0  0  0  0
  149.2604  138.7095  154.3989 C   0  0  0  0  0  0  0  0  0  0  0  0
  149.4445  140.0341  154.3957 N   0  0  0  0  0  0  0  0  0  0  0  0
  148.4910  141.1170  154.2455 C   0  0  0  0  0  0  0  0  0  0  0  0
  147.4670  141.0961  155.3800 C   0  0  0  0  0  0  0  0  0  0  0  0
  146.7325  140.1198  155.5274 O   0  0  0  0  0  0  0  0  0  0  0  0
  147.4408  142.1719  156.1816 N   0  0  0  0  0  0  0  0  0  0  0  0
  146.5739  142.3287  157.3444 C   0  0  2  0  0  0  0  0  0  0  0  0
  145.5744  143.4826  157.1435 C   0  0  0  0  0  0  0  0  0  0  0  0
  144.9515  143.8341  158.5004 C   0  0  0  0  0  0  0  0  0  0  0  0
  146.2350  143.4705  159.7584 S   0  0  0  0  0  0  0  0  0  0  0  0
  146.8494  144.7267  160.2139 O   0  0  0  0  0  0  0  0  0  0  0  0
  145.6967  142.4979  160.7213 O   0  0  0  0  0  0  0  0  0  0  0  0
  147.3872  142.6220  158.6147 C   0  0  0  0  0  0  0  0  0  0  0  0
  150.7641  140.2778  154.5885 N   0  0  0  0  0  0  0  0  0  0  0  0
  148.2916  138.2490  154.2710 H   0  0  0  0  0  0  0  0  0  0  0  0
  149.0230  142.0699  154.2223 H   0  0  0  0  0  0  0  0  0  0  0  0
  147.9827  141.0087  153.2866 H   0  0  0  0  0  0  0  0  0  0  0  0
  148.0841  142.9254  155.9855 H   0  0  0  0  0  0  0  0  0  0  0  0
  145.9974  141.4150  157.5019 H   0  0  0  0  0  0  0  0  0  0  0  0
  146.1068  144.3581  156.7684 H   0  0  0  0  0  0  0  0  0  0  0  0
  144.8107  143.2346  156.4057 H   0  0  0  0  0  0  0  0  0  0  0  0
  144.6386  144.8760  158.5695 H   0  0  0  0  0  0  0  0  0  0  0  0
  144.0904  143.1978  158.7067 H   0  0  0  0  0  0  0  0  0  0  0  0
  147.7883  141.7225  159.0822 H   0  0  0  0  0  0  0  0  0  0  0  0
  148.2125  143.3044  158.4081 H   0  0  0  0  0  0  0  0  0  0  0  0
  1  2  3  0  0  0  0
  2  3  1  0  0  0  0
  3 18  2  0  0  0  0
  3  4  1  0  0  0  0
  4  5  2  0  0  0  0
  5  6  1  0  0  0  0
  5 19  1  0  0  0  0
  6  7  1  0  0  0  0
  6 18  1  0  0  0  0
  7  8  1  0  0  0  0
  7 20  1  0  0  0  0
  7 21  1  0  0  0  0
  8  9  2  0  0  0  0
  8 10  1  0  0  0  0
 10 11  1  0  0  0  0
 10 22  1  0  0  0  0
 11 17  1  0  0  0  0
 11 12  1  0  0  0  0
 11 23  1  0  0  0  0
 12 13  1  0  0  0  0
 12 24  1  0  0  0  0
 12 25  1  0  0  0  0
 13 14  1  0  0  0  0
 13 26  1  0  0  0  0
 13 27  1  0  0  0  0
 14 15  2  0  0  0  0
 14 16  2  0  0  0  0
 14 17  1  0  0  0  0
 17 28  1  0  0  0  0
 17 29  1  0  0  0  0
M  END
> <s_m_source_file>
AV-unprocessed.smi

> <i_m_source_file_index>
294

> <i_lp_mmshare_version>
43012

> <i_f3d_flags>
0

> <s_epik_input>
TiNDYzFuW2NIXW4objEpW0NIMl1DKD1PKVtOSF1bQ0BASF0oW0NIMl0yKVtDSDJdW0NIMl1TMig9Tyk9Tw==

> <s_epik_cmdline>
J2VwaWtfcHl0aG9uJywgJy1waCcsICc3LjAnLCAnLXRuJywgJzgnLCAnLW1hJywgJzIwMCcsICctbWV0YWxfYmluZGluZycsICctaW1hZScsICc8aW5maWxlLm1hZT4nLCAnLW9tYWUnLCAnPG91dGZpbGUubWFlPic=

> <r_lp_tautomer_probability>
1

> <r_epik_Ionization_Penalty>
6.08231e-07

> <r_epik_Ionization_Penalty_Charging>
0

> <r_epik_Ionization_Penalty_Neutral>
6.08231e-07

> <r_epik_State_Penalty>
-0

> <r_epik_Charging_Adjusted_Penalty>
0

> <i_epik_Tot_Q>
0

> <i_epik_Tot_abs_Q>
0

> <r_epik_Metal_State_Penalty>
-0

> <b_epik_Metal_Only>
0

> <s_lp_Force_Field>
OPLS_2005

> <r_lp_Energy>
6.42809

> <b_lp_Chiralities_Consistent>
1

> <s_lp_Variant>
AV-unprocessed.smi:294-1

> <Gold.Version>
5.8.1

> <Gold.Id.Protein>
6NUR|6NUR_protein|mol2

> <Gold.PLP.Fitness>
37.9778

> <Gold.PLP.PLP>
-26.5824

> <Gold.PLP.part.hbond>
-3.9403

> <Gold.PLP.part.metal>
0.0000

> <Gold.PLP.part.buried>
-4.9284

> <Gold.PLP.part.nonpolar>
-18.0606

> <Gold.PLP.part.repulsive>
0.4630

> <Gold.PLP.ligand.clash>
0.0000

> <Gold.PLP.ligand.torsion>
0.0274

> <Gold.PLP.Chemscore.Hbond>
3.8160

> <Gold.PLP.Chemscore.CHOScore>
0.0000

> <Gold.PLP.Chemscore.Metal>
0.0000

> <Gold.Chemscore.Hbonds>
donor molecule, donor type, donor heavy atom, donor atom, acceptor molecule, acceptor atom, score
      L1  H    10    22       P1  8028  1.00
      P1  H  6934  6946       L1    16  1.00
      P1  H  7989  7998       L1    18  0.96
      P1  H  7997  8009       L1     1  0.80

> <Gold.PLP.Chemscore.Internal.Correction>
0.0022

> <Gold.Rescore>
     Score         DG    S(hbond)    S(metal)    S(lipo)     H(rot)  DE(clash)    DE(int)     intcor
     10.84     -11.09       2.82        0.00      14.62       2.15       0.18       0.07       ----

> <Gold.Chemscore.Fitness>
10.8394

> <Gold.Chemscore.DG>
-11.0933

> <Gold.Chemscore.ZeroCoef>
-5.4800

> <Gold.Chemscore.Hbond>
2.8198

> <Gold.Chemscore.Metal>
0.0000

> <Gold.Chemscore.Lipo>
14.6232

> <Gold.Chemscore.Internal_Hbond>
0.0000

> <Gold.Chemscore.DEClash>
0.1825

> <Gold.Chemscore.DEInternal>
0.0715

> <Gold.Chemscore.Rot>
2.1546

> <Gold.Chemscore.Internal.Correction>
   9.000000E+99

> <Gold.Chemscore.Hbonds>
donor molecule, donor type, donor heavy atom, donor atom, acceptor molecule, acceptor atom, score
      L1  H    10    22       P1  8028  0.73
      P1  H  6934  6946       L1    16  0.65
      P1  H  7989  7998       L1    18  0.31
      P1  H  7997  8009       L1     1  0.48

> <Gold.Chemscore.Hbond.Weighted>
-9.4182

> <Gold.Chemscore.Metal.Weighted>
-0.0000

> <Gold.Chemscore.Lipo.Weighted>
-1.7109

> <Gold.Chemscore.Internal_Hbond.Weighted>
0.0000

> <Gold.Chemscore.DEClash.Weighted>
0.1825

> <Gold.Chemscore.DEInternal.Weighted>
0.0715

> <Gold.Chemscore.Rot.Weighted>
5.5158

> <Gold.Chemscore.Internal.Correction.Weighted>
   9.000000E+99

> <Gold.Protein.RotatedTorsions>
[ 6907 6896 6895 6894 ] final   -5.98 input  -60.11 | X-H torsion
[ 7974 7965 7964 7962 ] final   27.83 input  175.53 | X-H torsion
[ 8008 7997 7996 7995 ] final -133.67 input   59.86 | X-H torsion
[ 10167 10162 10161 10158 ] final    1.62 input  -65.29 | X-H torsion
[ 10718 10713 10712 10709 ] final  158.75 input   66.30 | X-H torsion
[ 10763 10752 10751 10750 ] final  -75.50 input  -60.55 | X-H torsion
[ 11005 11000 10999 10996 ] final   12.96 input  -57.11 | X-H torsion

> <Gold.Protein.ActiveResidues>
 VAL166  LYS551  ARG553  GLY616  TRP617  ASP618  TYR619  PRO620  LYS621  CYS622 
 ASP623  PHE694  ASN695  SER759  ASP760  ASP761  ALA762  ILE779  LEU786  VAL792 
 PHE793  MET794  SER795  GLU796  ALA797  LYS798  CYS799  TRP800  GLU811  SER814 

> <Gold.Protein.RotatedAtoms>
  151.4729  135.1047  159.9756 H   0  0  0  0  0  0  0  0  0  0  0  0  # atno 6907 bound_to 6896
  152.4809  133.8249  159.7083 H   0  0  0  0  0  0  0  0  0  0  0  0  # atno 6908 bound_to 6896
  150.8881  133.7219  159.2939 H   0  0  0  0  0  0  0  0  0  0  0  0  # atno 6909 bound_to 6896
  146.1763  139.7139  142.8932 H   0  0  0  0  0  0  0  0  0  0  0  0  # atno 7974 bound_to 7965
  155.3493  140.0476  157.3046 H   0  0  0  0  0  0  0  0  0  0  0  0  # atno 8008 bound_to 7997
  154.5235  140.2233  155.8896 H   0  0  0  0  0  0  0  0  0  0  0  0  # atno 8009 bound_to 7997
  156.1715  140.3094  155.8988 H   0  0  0  0  0  0  0  0  0  0  0  0  # atno 8010 bound_to 7997
  140.6674  143.7142  150.7854 H   0  0  0  0  0  0  0  0  0  0  0  0  # atno 10167 bound_to 10162
  157.1736  131.0616  151.2169 H   0  0  0  0  0  0  0  0  0  0  0  0  # atno 10718 bound_to 10713
  154.4873  135.5829  153.6433 H   0  0  0  0  0  0  0  0  0  0  0  0  # atno 10763 bound_to 10752
  152.9857  135.6104  154.3169 H   0  0  0  0  0  0  0  0  0  0  0  0  # atno 10764 bound_to 10752
  154.3066  135.2846  155.2565 H   0  0  0  0  0  0  0  0  0  0  0  0  # atno 10765 bound_to 10752
  140.4861  134.0886  155.7761 H   0  0  0  0  0  0  0  0  0  0  0  0  # atno 11005 bound_to 11000
  145.4203  141.0406  143.2968 LP  0  0  0  0  0  0  0  0  0  0  0  0  # atno 17320 bound_to 7965
  144.8241  139.5740  143.6973 LP  0  0  0  0  0  0  0  0  0  0  0  0  # atno 17321 bound_to 7965
  140.0822  143.4958  152.2524 LP  0  0  0  0  0  0  0  0  0  0  0  0  # atno 17342 bound_to 10162
  139.5928  144.7556  151.3359 LP  0  0  0  0  0  0  0  0  0  0  0  0  # atno 17343 bound_to 10162
  157.4019  130.7338  149.6774 LP  0  0  0  0  0  0  0  0  0  0  0  0  # atno 17370 bound_to 10713
  155.9734  130.4118  150.4001 LP  0  0  0  0  0  0  0  0  0  0  0  0  # atno 17371 bound_to 10713
  141.1507  133.8974  157.2105 LP  0  0  0  0  0  0  0  0  0  0  0  0  # atno 17394 bound_to 11000
  139.9797  135.0102  156.9718 LP  0  0  0  0  0  0  0  0  0  0  0  0  # atno 17395 bound_to 11000

$$$$
