AV-unprocessed.smi:1543|AV-procd|sdf|6210|dock6
  -GOLD-   22720 6383D 1   1.00000     0.00000
 Structure written by MMmdl.
 49 50  0  0  0  0  0  0  0  0  2 V2000
  146.4056  137.1945  151.0594 C   0  0  0  0  0  0  0  0  0  0  0  0
  145.8430  137.8959  152.3006 C   0  0  2  0  0  0  0  0  0  0  0  0
  146.7242  139.0759  152.7518 C   0  0  0  0  0  0  0  0  0  0  0  0
  146.1811  139.6911  153.9956 N   0  3  2  0  0  0  0  0  0  0  0  0
  146.8410  140.9725  154.4386 C   0  0  0  0  0  0  0  0  0  0  0  0
  146.5225  142.1045  153.4296 C   0  0  0  0  0  0  0  0  0  0  0  0
  146.2334  141.4214  155.7917 C   0  0  0  0  0  0  0  0  0  0  0  0
  148.3853  140.8005  154.5629 C   0  0  0  0  0  0  0  0  0  0  0  0
  149.0252  141.8409  155.3672 N   0  0  0  0  0  0  0  0  0  0  0  0
  150.0489  141.6540  156.2127 C   0  0  0  0  0  0  0  0  0  0  0  0
  150.5704  140.5578  156.4145 O   0  0  0  0  0  0  0  0  0  0  0  0
  150.4229  142.8109  156.7852 N   0  0  0  0  0  0  0  0  0  0  0  0
  151.4453  143.0319  157.7472 C   0  0  0  0  0  0  0  0  0  0  0  0
  151.8977  144.3115  158.1514 C   0  0  0  0  0  0  0  0  0  0  0  0
  152.9327  144.3974  159.1021 C   0  0  0  0  0  0  0  0  0  0  0  0
  153.4822  143.2036  159.6084 C   0  0  0  0  0  0  0  0  0  0  0  0
  153.0707  141.9777  159.2222 N   0  0  0  0  0  0  0  0  0  0  0  0
  152.0788  141.9031  158.3094 C   0  0  0  0  0  0  0  0  0  0  0  0
  146.0324  138.6411  155.0433 C   0  0  0  0  0  0  0  0  0  0  0  0
  145.1695  137.4754  154.5252 C   0  0  2  0  0  0  0  0  0  0  0  0
  145.0455  136.3451  155.5531 C   0  0  0  0  0  0  0  0  0  0  0  0
  145.7679  136.9413  153.3515 O   0  0  0  0  0  0  0  0  0  0  0  0
  146.4708  137.8815  150.2152 H   0  0  0  0  0  0  0  0  0  0  0  0
  145.7682  136.3621  150.7603 H   0  0  0  0  0  0  0  0  0  0  0  0
  147.4038  136.7985  151.2472 H   0  0  0  0  0  0  0  0  0  0  0  0
  144.8390  138.2553  152.0681 H   0  0  0  0  0  0  0  0  0  0  0  0
  147.7435  138.7272  152.9198 H   0  0  0  0  0  0  0  0  0  0  0  0
  146.7605  139.7946  151.9353 H   0  0  0  0  0  0  0  0  0  0  0  0
  146.8010  143.0838  153.8203 H   0  0  0  0  0  0  0  0  0  0  0  0
  145.4573  142.1449  153.1993 H   0  0  0  0  0  0  0  0  0  0  0  0
  147.0660  141.9894  152.4921 H   0  0  0  0  0  0  0  0  0  0  0  0
  146.5197  142.4424  156.0461 H   0  0  0  0  0  0  0  0  0  0  0  0
  146.5657  140.7995  156.6225 H   0  0  0  0  0  0  0  0  0  0  0  0
  145.1433  141.3957  155.7670 H   0  0  0  0  0  0  0  0  0  0  0  0
  148.6398  139.8198  154.9657 H   0  0  0  0  0  0  0  0  0  0  0  0
  148.8530  140.8466  153.5801 H   0  0  0  0  0  0  0  0  0  0  0  0
  148.6646  142.7781  155.2635 H   0  0  0  0  0  0  0  0  0  0  0  0
  149.9555  143.6426  156.4549 H   0  0  0  0  0  0  0  0  0  0  0  0
  151.4864  145.2222  157.7450 H   0  0  0  0  0  0  0  0  0  0  0  0
  153.3000  145.3577  159.4325 H   0  0  0  0  0  0  0  0  0  0  0  0
  154.2775  143.2345  160.3382 H   0  0  0  0  0  0  0  0  0  0  0  0
  151.7784  140.9062  158.0213 H   0  0  0  0  0  0  0  0  0  0  0  0
  147.0114  138.2634  155.3390 H   0  0  0  0  0  0  0  0  0  0  0  0
  145.5563  139.0359  155.9387 H   0  0  0  0  0  0  0  0  0  0  0  0
  144.1673  137.8368  154.2868 H   0  0  0  0  0  0  0  0  0  0  0  0
  144.5801  136.6995  156.4732 H   0  0  0  0  0  0  0  0  0  0  0  0
  146.0221  135.9333  155.8095 H   0  0  0  0  0  0  0  0  0  0  0  0
  144.4331  135.5310  155.1647 H   0  0  0  0  0  0  0  0  0  0  0  0
  145.2367  139.9626  153.7616 H   0  0  0  0  0  0  0  0  0  0  0  0
  1  2  1  0  0  0  0
  1 23  1  0  0  0  0
  1 24  1  0  0  0  0
  1 25  1  0  0  0  0
  2 22  1  0  0  0  0
  2  3  1  0  0  0  0
  2 26  1  0  0  0  0
  3  4  1  0  0  0  0
  3 27  1  0  0  0  0
  3 28  1  0  0  0  0
  4  5  1  0  0  0  0
  4 19  1  0  0  0  0
  4 49  1  0  0  0  0
  5  6  1  0  0  0  0
  5  7  1  0  0  0  0
  5  8  1  0  0  0  0
  6 29  1  0  0  0  0
  6 30  1  0  0  0  0
  6 31  1  0  0  0  0
  7 32  1  0  0  0  0
  7 33  1  0  0  0  0
  7 34  1  0  0  0  0
  8  9  1  0  0  0  0
  8 35  1  0  0  0  0
  8 36  1  0  0  0  0
  9 10  1  0  0  0  0
  9 37  1  0  0  0  0
 10 11  2  0  0  0  0
 10 12  1  0  0  0  0
 12 13  1  0  0  0  0
 12 38  1  0  0  0  0
 13 18  1  0  0  0  0
 13 14  2  0  0  0  0
 14 15  1  0  0  0  0
 14 39  1  0  0  0  0
 15 16  2  0  0  0  0
 15 40  1  0  0  0  0
 16 17  1  0  0  0  0
 16 41  1  0  0  0  0
 17 18  2  0  0  0  0
 18 42  1  0  0  0  0
 19 20  1  0  0  0  0
 19 43  1  0  0  0  0
 19 44  1  0  0  0  0
 20 21  1  0  0  0  0
 20 22  1  0  0  0  0
 20 45  1  0  0  0  0
 21 46  1  0  0  0  0
 21 47  1  0  0  0  0
 21 48  1  0  0  0  0
M  CHG  1   4   1
M  END
> <s_m_source_file>
AV-unprocessed.smi

> <i_m_source_file_index>
1543

> <i_lp_mmshare_version>
43012

> <i_f3d_flags>
0

> <s_epik_input>
W0NIM11bQ0BASF0xW0NIMl1OKFtDSDJdW0NASF0oTzEpW0NIM10pQyhbQ0gzXSkoW0NIM10pW0NIMl1bTkhdQyg9TylbTkhdYzJbY0hdW2NIXVtjSF1uW2NIXTI=

> <s_epik_cmdline>
J2VwaWtfcHl0aG9uJywgJy1waCcsICc3LjAnLCAnLXRuJywgJzgnLCAnLW1hJywgJzIwMCcsICctbWV0YWxfYmluZGluZycsICctaW1hZScsICc8aW5maWxlLm1hZT4nLCAnLW9tYWUnLCAnPG91dGZpbGUubWFlPic=

> <r_epik_Ionization_Penalty>
0.60676

> <r_epik_Ionization_Penalty_Charging>
0.602531

> <r_epik_Ionization_Penalty_Neutral>
0.00422967

> <r_epik_State_Penalty>
0.607492

> <r_epik_Charging_Adjusted_Penalty>
1.21002

> <i_epik_Tot_Q>
1

> <i_epik_Tot_abs_Q>
1

> <r_epik_Metal_State_Penalty>
0.604589

> <b_epik_Metal_Only>
0

> <s_lp_Force_Field>
OPLS_2005

> <r_lp_Energy>
27.1707

> <b_lp_Chiralities_Consistent>
1

> <s_lp_Variant>
AV-unprocessed.smi:1543-6

> <Gold.Version>
5.8.1

> <Gold.Id.Protein>
6NUR|6NUR_protein|mol2

> <Gold.PLP.Fitness>
44.6307

> <Gold.PLP.PLP>
-33.8695

> <Gold.PLP.part.hbond>
-3.0000

> <Gold.PLP.part.metal>
0.0000

> <Gold.PLP.part.buried>
-1.7250

> <Gold.PLP.part.nonpolar>
-29.8784

> <Gold.PLP.part.repulsive>
0.3570

> <Gold.PLP.ligand.clash>
0.0000

> <Gold.PLP.ligand.torsion>
0.6366

> <Gold.PLP.Chemscore.Hbond>
3.9760

> <Gold.PLP.Chemscore.CHOScore>
0.0000

> <Gold.PLP.Chemscore.Metal>
0.0000

> <Gold.Chemscore.Hbonds>
donor molecule, donor type, donor heavy atom, donor atom, acceptor molecule, acceptor atom, score
      L1  H     4    49       P1 10175  1.76
      L1  H     9    37       P1  8028  0.98
      L1  H    12    38       P1  8028  1.00

> <Gold.PLP.Chemscore.Internal.Correction>
0.1065

> <Gold.Rescore>
     Score         DG    S(hbond)    S(metal)    S(lipo)     H(rot)  DE(clash)    DE(int)     intcor
     19.36     -23.84       2.81        0.00     108.74       1.46       2.52       1.97       ----

> <Gold.Chemscore.Fitness>
19.3609

> <Gold.Chemscore.DG>
-23.8443

> <Gold.Chemscore.ZeroCoef>
-5.4800

> <Gold.Chemscore.Hbond>
2.8108

> <Gold.Chemscore.Metal>
0.0000

> <Gold.Chemscore.Lipo>
108.7353

> <Gold.Chemscore.Internal_Hbond>
0.0000

> <Gold.Chemscore.DEClash>
2.5156

> <Gold.Chemscore.DEInternal>
1.9678

> <Gold.Chemscore.Rot>
1.4632

> <Gold.Chemscore.Internal.Correction>
   9.000000E+99

> <Gold.Chemscore.Hbonds>
donor molecule, donor type, donor heavy atom, donor atom, acceptor molecule, acceptor atom, score
      L1  H     4    49       P1 10175  0.84
      L1  H     9    37       P1  8028  0.91
      L1  H    12    38       P1  8028  1.00

> <Gold.Chemscore.Hbond.Weighted>
-9.3881

> <Gold.Chemscore.Metal.Weighted>
-0.0000

> <Gold.Chemscore.Lipo.Weighted>
-12.7220

> <Gold.Chemscore.Internal_Hbond.Weighted>
0.0000

> <Gold.Chemscore.DEClash.Weighted>
2.5156

> <Gold.Chemscore.DEInternal.Weighted>
1.9678

> <Gold.Chemscore.Rot.Weighted>
3.7459

> <Gold.Chemscore.Internal.Correction.Weighted>
   9.000000E+99

> <Gold.Protein.RotatedTorsions>
[ 6907 6896 6895 6894 ] final  -52.73 input  -60.11 | X-H torsion
[ 7974 7965 7964 7962 ] final -167.01 input  175.53 | X-H torsion
[ 8008 7997 7996 7995 ] final  128.67 input   59.86 | X-H torsion
[ 10167 10162 10161 10158 ] final -131.71 input  -65.29 | X-H torsion
[ 10718 10713 10712 10709 ] final   64.63 input   66.30 | X-H torsion
[ 10763 10752 10751 10750 ] final -162.95 input  -60.55 | X-H torsion
[ 11005 11000 10999 10996 ] final   48.38 input  -57.11 | X-H torsion

> <Gold.Protein.ActiveResidues>
 VAL166  LYS551  ARG553  GLY616  TRP617  ASP618  TYR619  PRO620  LYS621  CYS622 
 ASP623  PHE694  ASN695  SER759  ASP760  ASP761  ALA762  ILE779  LEU786  VAL792 
 PHE793  MET794  SER795  GLU796  ALA797  LYS798  CYS799  TRP800  GLU811  SER814 

> <Gold.Protein.RotatedAtoms>
  150.8491  134.7810  159.6993 H   0  0  0  0  0  0  0  0  0  0  0  0  # atno 6907 bound_to 6896
  152.4560  134.5286  159.9814 H   0  0  0  0  0  0  0  0  0  0  0  0  # atno 6908 bound_to 6896
  151.5411  133.3394  159.2971 H   0  0  0  0  0  0  0  0  0  0  0  0  # atno 6909 bound_to 6896
  144.7232  140.2582  143.6268 H   0  0  0  0  0  0  0  0  0  0  0  0  # atno 7974 bound_to 7965
  156.2920  140.2639  156.2474 H   0  0  0  0  0  0  0  0  0  0  0  0  # atno 8008 bound_to 7997
  154.9917  140.0388  157.2340 H   0  0  0  0  0  0  0  0  0  0  0  0  # atno 8009 bound_to 7997
  154.7680  140.2773  155.6165 H   0  0  0  0  0  0  0  0  0  0  0  0  # atno 8010 bound_to 7997
  139.9161  143.6437  152.2564 H   0  0  0  0  0  0  0  0  0  0  0  0  # atno 10167 bound_to 10162
  157.6052  130.9170  149.9871 H   0  0  0  0  0  0  0  0  0  0  0  0  # atno 10718 bound_to 10713
  154.7167  135.3017  154.9112 H   0  0  0  0  0  0  0  0  0  0  0  0  # atno 10763 bound_to 10752
  153.9996  135.6708  153.4762 H   0  0  0  0  0  0  0  0  0  0  0  0  # atno 10764 bound_to 10752
  153.0799  135.5014  154.8398 H   0  0  0  0  0  0  0  0  0  0  0  0  # atno 10765 bound_to 10752
  140.1195  134.4848  155.8609 H   0  0  0  0  0  0  0  0  0  0  0  0  # atno 11005 bound_to 11000
  145.8161  139.2024  143.1965 LP  0  0  0  0  0  0  0  0  0  0  0  0  # atno 17320 bound_to 7965
  146.0554  140.8026  142.9761 LP  0  0  0  0  0  0  0  0  0  0  0  0  # atno 17321 bound_to 7965
  139.6901  144.7647  151.1454 LP  0  0  0  0  0  0  0  0  0  0  0  0  # atno 17342 bound_to 10162
  140.7674  143.5601  150.9108 LP  0  0  0  0  0  0  0  0  0  0  0  0  # atno 17343 bound_to 10162
  156.1137  130.3649  150.0005 LP  0  0  0  0  0  0  0  0  0  0  0  0  # atno 17370 bound_to 10713
  156.8099  130.9321  151.3644 LP  0  0  0  0  0  0  0  0  0  0  0  0  # atno 17371 bound_to 10713
  141.2148  133.6755  156.6862 LP  0  0  0  0  0  0  0  0  0  0  0  0  # atno 17394 bound_to 11000
  140.2983  134.8184  157.4076 LP  0  0  0  0  0  0  0  0  0  0  0  0  # atno 17395 bound_to 11000

$$$$
