AV-unprocessed.smi:3226|AV-procd|sdf|12313|dock6
  -GOLD-   2272018163D 1   1.00000     0.00000
 Structure written by MMmdl.
 41 43  0  0  0  0  0  0  0  0  2 V2000
  142.4435  144.5922  161.8820 C   0  0  0  0  0  0  0  0  0  0  0  0
  143.6656  143.9523  162.5502 C   0  0  0  0  0  0  0  0  0  0  0  0
  144.5460  143.2362  161.5731 C   0  0  0  0  0  0  0  0  0  0  0  0
  144.5252  141.9091  161.4014 N   0  0  0  0  0  0  0  0  0  0  0  0
  145.4455  141.6466  160.4069 N   0  0  0  0  0  0  0  0  0  0  0  0
  145.9239  142.8426  160.0695 C   0  0  0  0  0  0  0  0  0  0  0  0
  145.4117  143.8752  160.7575 N   0  0  0  0  0  0  0  0  0  0  0  0
  145.7247  145.2885  160.6282 C   0  0  0  0  0  0  0  0  0  0  0  0
  147.1691  145.6062  161.0482 C   0  0  0  0  0  0  0  0  0  0  0  0
  148.1503  144.9144  160.1884 N   0  3  0  0  0  0  0  0  0  0  0  0
  149.5277  145.4302  160.3088 C   0  0  0  0  0  0  0  0  0  0  0  0
  150.4823  144.6940  159.3508 C   0  0  2  0  0  0  0  0  0  0  0  0
  150.3483  143.1408  159.4232 C   0  0  0  0  0  0  0  0  0  0  0  0
  151.7951  142.6732  159.7043 C   0  0  1  0  0  0  0  0  0  0  0  0
  152.6485  143.0313  158.5059 C   0  0  0  0  0  0  0  0  0  0  0  0
  152.7706  144.3599  158.4888 C   0  0  0  0  0  0  0  0  0  0  0  0
  151.9884  144.8992  159.6686 C   0  0  2  0  0  0  0  0  0  0  0  0
  152.2324  143.7700  160.6787 C   0  0  0  0  0  0  0  0  0  0  0  0
  141.8192  145.0997  162.6176 H   0  0  0  0  0  0  0  0  0  0  0  0
  141.8288  143.8411  161.3851 H   0  0  0  0  0  0  0  0  0  0  0  0
  142.7424  145.3275  161.1345 H   0  0  0  0  0  0  0  0  0  0  0  0
  144.2418  144.7095  163.0813 H   0  0  0  0  0  0  0  0  0  0  0  0
  143.3350  143.2389  163.3059 H   0  0  0  0  0  0  0  0  0  0  0  0
  146.6723  142.9683  159.3008 H   0  0  0  0  0  0  0  0  0  0  0  0
  145.5512  145.5932  159.5952 H   0  0  0  0  0  0  0  0  0  0  0  0
  145.0225  145.8572  161.2382 H   0  0  0  0  0  0  0  0  0  0  0  0
  147.3389  146.6814  160.9792 H   0  0  0  0  0  0  0  0  0  0  0  0
  147.3333  145.3249  162.0891 H   0  0  0  0  0  0  0  0  0  0  0  0
  148.1550  143.9338  160.4301 H   0  0  0  0  0  0  0  0  0  0  0  0
  149.5336  146.5037  160.1182 H   0  0  0  0  0  0  0  0  0  0  0  0
  149.8620  145.2883  161.3373 H   0  0  0  0  0  0  0  0  0  0  0  0
  150.2712  145.0295  158.3333 H   0  0  0  0  0  0  0  0  0  0  0  0
  149.6853  142.8345  160.2338 H   0  0  0  0  0  0  0  0  0  0  0  0
  149.9546  142.7179  158.4979 H   0  0  0  0  0  0  0  0  0  0  0  0
  151.9133  141.6508  160.0642 H   0  0  0  0  0  0  0  0  0  0  0  0
  153.0457  142.3202  157.7966 H   0  0  0  0  0  0  0  0  0  0  0  0
  153.2874  144.9672  157.7603 H   0  0  0  0  0  0  0  0  0  0  0  0
  152.2924  145.8946  159.9935 H   0  0  0  0  0  0  0  0  0  0  0  0
  151.6206  143.8295  161.5802 H   0  0  0  0  0  0  0  0  0  0  0  0
  153.2800  143.6828  160.9745 H   0  0  0  0  0  0  0  0  0  0  0  0
  147.8570  145.0089  159.2265 H   0  0  0  0  0  0  0  0  0  0  0  0
  1  2  1  0  0  0  0
  1 19  1  0  0  0  0
  1 20  1  0  0  0  0
  1 21  1  0  0  0  0
  2  3  1  0  0  0  0
  2 22  1  0  0  0  0
  2 23  1  0  0  0  0
  3  7  1  0  0  0  0
  3  4  2  0  0  0  0
  4  5  1  0  0  0  0
  5  6  2  0  0  0  0
  6  7  1  0  0  0  0
  6 24  1  0  0  0  0
  7  8  1  0  0  0  0
  8  9  1  0  0  0  0
  8 25  1  0  0  0  0
  8 26  1  0  0  0  0
  9 10  1  0  0  0  0
  9 27  1  0  0  0  0
  9 28  1  0  0  0  0
 10 11  1  0  0  0  0
 10 29  1  0  0  0  0
 10 41  1  0  0  0  0
 11 12  1  0  0  0  0
 11 30  1  0  0  0  0
 11 31  1  0  0  0  0
 12 17  1  0  0  0  0
 12 13  1  0  0  0  0
 12 32  1  0  0  0  0
 13 14  1  0  0  0  0
 13 33  1  0  0  0  0
 13 34  1  0  0  0  0
 14 18  1  0  0  0  0
 14 15  1  0  0  0  0
 14 35  1  0  0  0  0
 15 16  2  0  0  0  0
 15 36  1  0  0  0  0
 16 17  1  0  0  0  0
 16 37  1  0  0  0  0
 17 18  1  0  0  0  0
 17 38  1  0  0  0  0
 18 39  1  0  0  0  0
 18 40  1  0  0  0  0
M  CHG  1  10   1
M  END
> <s_m_source_file>
AV-unprocessed.smi

> <i_m_source_file_index>
3226

> <i_lp_mmshare_version>
43012

> <i_f3d_flags>
0

> <s_epik_input>
W0NIM11bQ0gyXWMxbm5bY0hdbjFbQ0gyXVtDSDJdW05IXVtDSDJdW0NASF0oW0NIMl1bQ0BASF0yMylbQ0BASF0oW0NIMl0zKVtDSF09W0NIXTI=

> <s_epik_cmdline>
J2VwaWtfcHl0aG9uJywgJy1waCcsICc3LjAnLCAnLXRuJywgJzgnLCAnLW1hJywgJzIwMCcsICctbWV0YWxfYmluZGluZycsICctaW1hZScsICc8aW5maWxlLm1hZT4nLCAnLW9tYWUnLCAnPG91dGZpbGUubWFlPic=

> <r_lp_tautomer_probability>
1

> <r_epik_Ionization_Penalty>
0.00175008

> <r_epik_Ionization_Penalty_Charging>
0.00173932

> <r_epik_Ionization_Penalty_Neutral>
1.07546e-05

> <r_epik_State_Penalty>
-0

> <r_epik_Charging_Adjusted_Penalty>
0.00173932

> <i_epik_Tot_Q>
1

> <i_epik_Tot_abs_Q>
1

> <r_epik_Metal_State_Penalty>
-0

> <b_epik_Metal_Only>
0

> <s_lp_Force_Field>
OPLS_2005

> <r_lp_Energy>
64.8147

> <b_lp_Chiralities_Consistent>
1

> <s_lp_Variant>
AV-unprocessed.smi:3226-1

> <Gold.Version>
5.8.1

> <Gold.Id.Protein>
6NUR|6NUR_protein|mol2

> <Gold.PLP.Fitness>
48.8826

> <Gold.PLP.PLP>
-40.7379

> <Gold.PLP.part.hbond>
-2.4131

> <Gold.PLP.part.metal>
0.0000

> <Gold.PLP.part.buried>
-4.1152

> <Gold.PLP.part.nonpolar>
-34.5663

> <Gold.PLP.part.repulsive>
0.1693

> <Gold.PLP.ligand.clash>
0.0000

> <Gold.PLP.ligand.torsion>
0.4437

> <Gold.PLP.Chemscore.Hbond>
3.0000

> <Gold.PLP.Chemscore.CHOScore>
0.0000

> <Gold.PLP.Chemscore.Metal>
0.0000

> <Gold.Chemscore.Hbonds>
donor molecule, donor type, donor heavy atom, donor atom, acceptor molecule, acceptor atom, score
      L1  H    10    41       P1  8029  1.37
      P1  H  6934  6946       L1     5  1.00

> <Gold.PLP.Chemscore.Internal.Correction>
0.0321

> <Gold.Rescore>
     Score         DG    S(hbond)    S(metal)    S(lipo)     H(rot)  DE(clash)    DE(int)     intcor
     16.78     -18.60       1.45        0.00     115.78       2.06       1.23       0.59       ----

> <Gold.Chemscore.Fitness>
16.7835

> <Gold.Chemscore.DG>
-18.6010

> <Gold.Chemscore.ZeroCoef>
-5.4800

> <Gold.Chemscore.Hbond>
1.4533

> <Gold.Chemscore.Metal>
0.0000

> <Gold.Chemscore.Lipo>
115.7819

> <Gold.Chemscore.Internal_Hbond>
0.0000

> <Gold.Chemscore.DEClash>
1.2296

> <Gold.Chemscore.DEInternal>
0.5879

> <Gold.Chemscore.Rot>
2.0623

> <Gold.Chemscore.Internal.Correction>
   9.000000E+99

> <Gold.Chemscore.Hbonds>
donor molecule, donor type, donor heavy atom, donor atom, acceptor molecule, acceptor atom, score
      L1  H    10    41       P1  8029  0.65
      P1  H  6934  6946       L1     5  0.25

> <Gold.Chemscore.Hbond.Weighted>
-4.8541

> <Gold.Chemscore.Metal.Weighted>
-0.0000

> <Gold.Chemscore.Lipo.Weighted>
-13.5465

> <Gold.Chemscore.Internal_Hbond.Weighted>
0.0000

> <Gold.Chemscore.DEClash.Weighted>
1.2296

> <Gold.Chemscore.DEInternal.Weighted>
0.5879

> <Gold.Chemscore.Rot.Weighted>
5.2796

> <Gold.Chemscore.Internal.Correction.Weighted>
   9.000000E+99

> <Gold.Protein.RotatedTorsions>
[ 6907 6896 6895 6894 ] final   60.22 input  -60.11 | X-H torsion
[ 7974 7965 7964 7962 ] final -160.31 input  175.53 | X-H torsion
[ 8008 7997 7996 7995 ] final -151.71 input   59.86 | X-H torsion
[ 10167 10162 10161 10158 ] final  -44.30 input  -65.29 | X-H torsion
[ 10718 10713 10712 10709 ] final  -48.65 input   66.30 | X-H torsion
[ 10763 10752 10751 10750 ] final -179.03 input  -60.55 | X-H torsion
[ 11005 11000 10999 10996 ] final   -0.89 input  -57.11 | X-H torsion

> <Gold.Protein.ActiveResidues>
 VAL166  LYS551  ARG553  GLY616  TRP617  ASP618  TYR619  PRO620  LYS621  CYS622 
 ASP623  PHE694  ASN695  SER759  ASP760  ASP761  ALA762  ILE779  LEU786  VAL792 
 PHE793  MET794  SER795  GLU796  ALA797  LYS798  CYS799  TRP800  GLU811  SER814 

> <Gold.Protein.RotatedAtoms>
  152.3984  134.6328  160.0079 H   0  0  0  0  0  0  0  0  0  0  0  0  # atno 6907 bound_to 6896
  151.6541  133.3314  159.3166 H   0  0  0  0  0  0  0  0  0  0  0  0  # atno 6908 bound_to 6896
  150.7888  134.6937  159.6556 H   0  0  0  0  0  0  0  0  0  0  0  0  # atno 6909 bound_to 6896
  144.7432  140.3560  143.6106 H   0  0  0  0  0  0  0  0  0  0  0  0  # atno 7974 bound_to 7965
  155.6437  140.0704  157.2610 H   0  0  0  0  0  0  0  0  0  0  0  0  # atno 8008 bound_to 7997
  154.4178  140.1746  156.1650 H   0  0  0  0  0  0  0  0  0  0  0  0  # atno 8009 bound_to 7997
  155.9834  140.3351  155.6688 H   0  0  0  0  0  0  0  0  0  0  0  0  # atno 8010 bound_to 7997
  140.6902  143.2937  151.3475 H   0  0  0  0  0  0  0  0  0  0  0  0  # atno 10167 bound_to 10162
  156.1968  130.4154  149.9295 H   0  0  0  0  0  0  0  0  0  0  0  0  # atno 10718 bound_to 10713
  154.5402  135.2805  155.1102 H   0  0  0  0  0  0  0  0  0  0  0  0  # atno 10763 bound_to 10752
  154.2588  135.6325  153.5270 H   0  0  0  0  0  0  0  0  0  0  0  0  # atno 10764 bound_to 10752
  152.9977  135.5600  154.5940 H   0  0  0  0  0  0  0  0  0  0  0  0  # atno 10765 bound_to 10752
  140.6413  133.9487  155.8327 H   0  0  0  0  0  0  0  0  0  0  0  0  # atno 11005 bound_to 11000
  145.7226  139.1714  143.2476 LP  0  0  0  0  0  0  0  0  0  0  0  0  # atno 17320 bound_to 7965
  146.1265  140.7241  142.9432 LP  0  0  0  0  0  0  0  0  0  0  0  0  # atno 17321 bound_to 7965
  139.6297  144.0744  152.2466 LP  0  0  0  0  0  0  0  0  0  0  0  0  # atno 17342 bound_to 10162
  140.0215  144.6149  150.7563 LP  0  0  0  0  0  0  0  0  0  0  0  0  # atno 17343 bound_to 10162
  156.7018  130.8936  151.3600 LP  0  0  0  0  0  0  0  0  0  0  0  0  # atno 17370 bound_to 10713
  157.6962  130.9284  150.0652 LP  0  0  0  0  0  0  0  0  0  0  0  0  # atno 17371 bound_to 10713
  141.0605  134.0353  157.3665 LP  0  0  0  0  0  0  0  0  0  0  0  0  # atno 17394 bound_to 11000
  139.9079  135.0184  156.7567 LP  0  0  0  0  0  0  0  0  0  0  0  0  # atno 17395 bound_to 11000

$$$$
