AV-unprocessed.smi:2067|AV-procd|sdf|8424|dock3
  -GOLD-   2272011113D 1   1.00000     0.00000
 Structure written by MMmdl.
 47 48  0  0  0  0  0  0  0  0  1 V2000
  147.9645  133.0969  152.4821 C   0  0  0  0  0  0  0  0  0  0  0  0
  146.7185  133.2294  151.5928 C   0  0  1  0  0  0  0  0  0  0  0  0
  145.6477  132.1769  151.9442 C   0  0  0  0  0  0  0  0  0  0  0  0
  144.4223  132.2912  151.0238 C   0  0  0  0  0  0  0  0  0  0  0  0
  143.8316  133.7084  151.0580 C   0  0  0  0  0  0  0  0  0  0  0  0
  144.8939  134.7635  150.7071 C   0  0  0  0  0  0  0  0  0  0  0  0
  146.1308  134.6582  151.6254 C   0  0  1  0  0  0  0  0  0  0  0  0
  145.7716  134.9740  152.9662 O   0  0  0  0  0  0  0  0  0  0  0  0
  145.8830  136.3506  153.2941 C   0  0  0  0  0  0  0  0  0  0  0  0
  146.7423  136.4876  154.5537 C   0  0  0  0  0  0  0  0  0  0  0  0
  147.5083  137.7237  154.5280 N   0  0  0  0  0  0  0  0  0  0  0  0
  148.8693  137.8532  154.7820 C   0  0  0  0  0  0  0  0  0  0  0  0
  149.6336  136.7757  155.1153 C   0  0  0  0  0  0  0  0  0  0  0  0
  149.1061  135.4553  155.2616 C   0  0  0  0  0  0  0  0  0  0  0  0
  148.6884  134.3802  155.3650 N   0  0  0  0  0  0  0  0  0  0  0  0
  151.0632  136.8951  155.3936 C   0  0  0  0  0  0  0  0  0  0  0  0
  151.7829  135.9436  155.7059 O   0  0  0  0  0  0  0  0  0  0  0  0
  151.5770  138.2042  155.2908 N   0  0  0  0  0  0  0  0  0  0  0  0
  152.9890  138.3759  155.5717 C   0  0  0  0  0  0  0  0  0  0  0  0
  150.8022  139.3405  154.9768 C   0  0  0  0  0  0  0  0  0  0  0  0
  151.2963  140.4716  154.9401 O   0  0  0  0  0  0  0  0  0  0  0  0
  149.4269  139.1326  154.7083 N   0  0  0  0  0  0  0  0  0  0  0  0
  148.6937  140.3319  154.3572 C   0  0  0  0  0  0  0  0  0  0  0  0
  147.7240  133.2561  153.5338 H   0  0  0  0  0  0  0  0  0  0  0  0
  148.7263  133.8245  152.2011 H   0  0  0  0  0  0  0  0  0  0  0  0
  148.4071  132.1047  152.3905 H   0  0  0  0  0  0  0  0  0  0  0  0
  147.0408  133.0350  150.5687 H   0  0  0  0  0  0  0  0  0  0  0  0
  146.0700  131.1746  151.8643 H   0  0  0  0  0  0  0  0  0  0  0  0
  145.3361  132.2967  152.9828 H   0  0  0  0  0  0  0  0  0  0  0  0
  144.7082  132.0386  150.0018 H   0  0  0  0  0  0  0  0  0  0  0  0
  143.6648  131.5655  151.3212 H   0  0  0  0  0  0  0  0  0  0  0  0
  142.9940  133.7790  150.3636 H   0  0  0  0  0  0  0  0  0  0  0  0
  143.4272  133.9097  152.0505 H   0  0  0  0  0  0  0  0  0  0  0  0
  145.2056  134.6244  149.6713 H   0  0  0  0  0  0  0  0  0  0  0  0
  144.4557  135.7598  150.7562 H   0  0  0  0  0  0  0  0  0  0  0  0
  146.8996  135.3508  151.2776 H   0  0  0  0  0  0  0  0  0  0  0  0
  146.3592  136.8779  152.4665 H   0  0  0  0  0  0  0  0  0  0  0  0
  144.9067  136.8091  153.4537 H   0  0  0  0  0  0  0  0  0  0  0  0
  146.1220  136.4586  155.4500 H   0  0  0  0  0  0  0  0  0  0  0  0
  147.4226  135.6375  154.6037 H   0  0  0  0  0  0  0  0  0  0  0  0
  147.1448  138.3802  153.8519 H   0  0  0  0  0  0  0  0  0  0  0  0
  153.3486  139.3318  155.1923 H   0  0  0  0  0  0  0  0  0  0  0  0
  153.5391  137.5811  155.0648 H   0  0  0  0  0  0  0  0  0  0  0  0
  153.1070  138.3155  156.6545 H   0  0  0  0  0  0  0  0  0  0  0  0
  148.7166  140.9942  155.2244 H   0  0  0  0  0  0  0  0  0  0  0  0
  147.6656  140.0914  154.0983 H   0  0  0  0  0  0  0  0  0  0  0  0
  149.1856  140.7793  153.4914 H   0  0  0  0  0  0  0  0  0  0  0  0
  1  2  1  0  0  0  0
  1 24  1  0  0  0  0
  1 25  1  0  0  0  0
  1 26  1  0  0  0  0
  2  7  1  0  0  0  0
  2  3  1  0  0  0  0
  2 27  1  0  0  0  0
  3  4  1  0  0  0  0
  3 28  1  0  0  0  0
  3 29  1  0  0  0  0
  4  5  1  0  0  0  0
  4 30  1  0  0  0  0
  4 31  1  0  0  0  0
  5  6  1  0  0  0  0
  5 32  1  0  0  0  0
  5 33  1  0  0  0  0
  6  7  1  0  0  0  0
  6 34  1  0  0  0  0
  6 35  1  0  0  0  0
  7  8  1  0  0  0  0
  7 36  1  0  0  0  0
  8  9  1  0  0  0  0
  9 10  1  0  0  0  0
  9 37  1  0  0  0  0
  9 38  1  0  0  0  0
 10 11  1  0  0  0  0
 10 39  1  0  0  0  0
 10 40  1  0  0  0  0
 11 12  1  0  0  0  0
 11 41  1  0  0  0  0
 12 22  1  0  0  0  0
 12 13  2  0  0  0  0
 13 14  1  0  0  0  0
 13 16  1  0  0  0  0
 14 15  3  0  0  0  0
 16 17  2  0  0  0  0
 16 18  1  0  0  0  0
 18 19  1  0  0  0  0
 18 20  1  0  0  0  0
 19 42  1  0  0  0  0
 19 43  1  0  0  0  0
 19 44  1  0  0  0  0
 20 21  2  0  0  0  0
 20 22  1  0  0  0  0
 22 23  1  0  0  0  0
 23 45  1  0  0  0  0
 23 46  1  0  0  0  0
 23 47  1  0  0  0  0
M  END
> <s_m_source_file>
AV-unprocessed.smi

> <i_m_source_file_index>
2067

> <i_lp_mmshare_version>
43012

> <i_f3d_flags>
0

> <s_epik_input>
W0NIM11bQ0BASF0xW0NIMl1bQ0gyXVtDSDJdW0NIMl1bQ0BIXTFPW0NIMl1bQ0gyXVtOSF1jMmMoQyNOKWMoPU8pbihbQ0gzXSljKD1PKW4yW0NIM10=

> <s_epik_cmdline>
J2VwaWtfcHl0aG9uJywgJy1waCcsICc3LjAnLCAnLXRuJywgJzgnLCAnLW1hJywgJzIwMCcsICctbWV0YWxfYmluZGluZycsICctaW1hZScsICc8aW5maWxlLm1hZT4nLCAnLW9tYWUnLCAnPG91dGZpbGUubWFlPic=

> <r_epik_Ionization_Penalty>
0.00056529

> <r_epik_Ionization_Penalty_Charging>
3.94678e-10

> <r_epik_Ionization_Penalty_Neutral>
0.000565289

> <r_epik_State_Penalty>
0.000354611

> <r_epik_Charging_Adjusted_Penalty>
0.000354611

> <i_epik_Tot_Q>
0

> <i_epik_Tot_abs_Q>
0

> <r_epik_Metal_State_Penalty>
-0

> <b_epik_Metal_Only>
0

> <s_lp_Force_Field>
OPLS_2005

> <r_lp_Energy>
33.1423

> <b_lp_Chiralities_Consistent>
1

> <s_lp_Variant>
AV-unprocessed.smi:2067-2

> <Gold.Version>
5.8.1

> <Gold.Id.Protein>
6NUR|6NUR_protein|mol2

> <Gold.PLP.Fitness>
39.0182

> <Gold.PLP.PLP>
-35.0146

> <Gold.PLP.part.hbond>
-1.7716

> <Gold.PLP.part.metal>
0.0000

> <Gold.PLP.part.buried>
-3.9061

> <Gold.PLP.part.nonpolar>
-30.4456

> <Gold.PLP.part.repulsive>
0.2355

> <Gold.PLP.ligand.clash>
10.2522

> <Gold.PLP.ligand.torsion>
1.0105

> <Gold.PLP.Chemscore.Hbond>
2.0000

> <Gold.PLP.Chemscore.CHOScore>
0.0000

> <Gold.PLP.Chemscore.Metal>
0.0000

> <Gold.Chemscore.Hbonds>
donor molecule, donor type, donor heavy atom, donor atom, acceptor molecule, acceptor atom, score
      P1  H  7989  7998       L1    21  0.98
      P1  H 10752 10763       L1    17  1.00

> <Gold.PLP.Chemscore.Internal.Correction>
10.2769

> <Gold.Rescore>
     Score         DG    S(hbond)    S(metal)    S(lipo)     H(rot)  DE(clash)    DE(int)     intcor
     11.15     -14.70       1.81        0.00      65.65       1.76       0.02       3.52       ----

> <Gold.Chemscore.Fitness>
11.1510

> <Gold.Chemscore.DG>
-14.6958

> <Gold.Chemscore.ZeroCoef>
-5.4800

> <Gold.Chemscore.Hbond>
1.8073

> <Gold.Chemscore.Metal>
0.0000

> <Gold.Chemscore.Lipo>
65.6467

> <Gold.Chemscore.Internal_Hbond>
0.0000

> <Gold.Chemscore.DEClash>
0.0237

> <Gold.Chemscore.DEInternal>
3.5211

> <Gold.Chemscore.Rot>
1.7583

> <Gold.Chemscore.Internal.Correction>
   9.000000E+99

> <Gold.Chemscore.Hbonds>
donor molecule, donor type, donor heavy atom, donor atom, acceptor molecule, acceptor atom, score
      P1  H  7989  7998       L1    21  0.72
      P1  H 10752 10763       L1    17  0.93

> <Gold.Chemscore.Hbond.Weighted>
-6.0363

> <Gold.Chemscore.Metal.Weighted>
-0.0000

> <Gold.Chemscore.Lipo.Weighted>
-7.6807

> <Gold.Chemscore.Internal_Hbond.Weighted>
0.0000

> <Gold.Chemscore.DEClash.Weighted>
0.0237

> <Gold.Chemscore.DEInternal.Weighted>
3.5211

> <Gold.Chemscore.Rot.Weighted>
4.5012

> <Gold.Chemscore.Internal.Correction.Weighted>
   9.000000E+99

> <Gold.Protein.RotatedTorsions>
[ 6907 6896 6895 6894 ] final -110.88 input  -60.11 | X-H torsion
[ 7974 7965 7964 7962 ] final  157.43 input  175.53 | X-H torsion
[ 8008 7997 7996 7995 ] final  -98.87 input   59.86 | X-H torsion
[ 10167 10162 10161 10158 ] final  -65.93 input  -65.29 | X-H torsion
[ 10718 10713 10712 10709 ] final   35.62 input   66.30 | X-H torsion
[ 10763 10752 10751 10750 ] final   66.32 input  -60.55 | X-H torsion
[ 11005 11000 10999 10996 ] final -127.75 input  -57.11 | X-H torsion

> <Gold.Protein.ActiveResidues>
 VAL166  LYS551  ARG553  GLY616  TRP617  ASP618  TYR619  PRO620  LYS621  CYS622 
 ASP623  PHE694  ASN695  SER759  ASP760  ASP761  ALA762  ILE779  LEU786  VAL792 
 PHE793  MET794  SER795  GLU796  ALA797  LYS798  CYS799  TRP800  GLU811  SER814 

> <Gold.Protein.RotatedAtoms>
  150.7654  133.9316  159.3428 H   0  0  0  0  0  0  0  0  0  0  0  0  # atno 6907 bound_to 6896
  151.7216  135.0891  160.0294 H   0  0  0  0  0  0  0  0  0  0  0  0  # atno 6908 bound_to 6896
  152.3646  133.6303  159.6077 H   0  0  0  0  0  0  0  0  0  0  0  0  # atno 6909 bound_to 6896
  144.7904  139.7339  143.6224 H   0  0  0  0  0  0  0  0  0  0  0  0  # atno 7974 bound_to 7965
  154.8071  140.0452  157.1316 H   0  0  0  0  0  0  0  0  0  0  0  0  # atno 8008 bound_to 7997
  154.9411  140.3052  155.5100 H   0  0  0  0  0  0  0  0  0  0  0  0  # atno 8009 bound_to 7997
  156.2968  140.2305  156.4480 H   0  0  0  0  0  0  0  0  0  0  0  0  # atno 8010 bound_to 7997
  140.5694  143.2317  151.6569 H   0  0  0  0  0  0  0  0  0  0  0  0  # atno 10167 bound_to 10162
  157.3250  130.7468  149.6809 H   0  0  0  0  0  0  0  0  0  0  0  0  # atno 10718 bound_to 10713
  153.0135  135.5324  154.6806 H   0  0  0  0  0  0  0  0  0  0  0  0  # atno 10763 bound_to 10752
  154.5967  135.2864  155.0581 H   0  0  0  0  0  0  0  0  0  0  0  0  # atno 10764 bound_to 10752
  154.1654  135.6541  153.5048 H   0  0  0  0  0  0  0  0  0  0  0  0  # atno 10765 bound_to 10752
  140.9573  134.0984  157.4003 H   0  0  0  0  0  0  0  0  0  0  0  0  # atno 11005 bound_to 11000
  146.2153  139.5538  142.9654 LP  0  0  0  0  0  0  0  0  0  0  0  0  # atno 17320 bound_to 7965
  145.5810  141.0382  143.2122 LP  0  0  0  0  0  0  0  0  0  0  0  0  # atno 17321 bound_to 7965
  139.5109  144.3525  152.0638 LP  0  0  0  0  0  0  0  0  0  0  0  0  # atno 17342 bound_to 10162
  140.2661  144.4015  150.6168 LP  0  0  0  0  0  0  0  0  0  0  0  0  # atno 17343 bound_to 10162
  155.9689  130.4212  150.4458 LP  0  0  0  0  0  0  0  0  0  0  0  0  # atno 17370 bound_to 10713
  157.2480  131.0540  151.2396 LP  0  0  0  0  0  0  0  0  0  0  0  0  # atno 17371 bound_to 10713
  139.8866  135.0083  156.6511 LP  0  0  0  0  0  0  0  0  0  0  0  0  # atno 17394 bound_to 11000
  140.7517  133.8891  155.8352 LP  0  0  0  0  0  0  0  0  0  0  0  0  # atno 17395 bound_to 11000

$$$$
