AV-unprocessed.smi:1100|AV-procd|sdf|4761|dock4
  -GOLD-   22720 3293D 1   1.00000     0.00000
 Structure written by MMmdl.
 44 45  0  0  0  0  0  0  0  0  2 V2000
  148.4971  130.9587  154.2613 C   0  0  0  0  0  0  0  0  0  0  0  0
  148.1960  132.1639  153.3374 C   0  0  2  0  0  0  0  0  0  0  0  0
  147.6012  133.3353  154.1636 C   0  0  0  0  0  0  0  0  0  0  0  0
  148.3366  134.5857  153.9973 N   0  0  0  0  0  0  0  0  0  0  0  0
  149.0221  135.2067  154.9677 C   0  0  0  0  0  0  0  0  0  0  0  0
  149.1009  134.7710  156.1157 O   0  0  0  0  0  0  0  0  0  0  0  0
  149.5768  136.3445  154.5119 N   0  0  0  0  0  0  0  0  0  0  0  0
  150.3842  137.2682  155.1905 C   0  0  0  0  0  0  0  0  0  0  0  0
  151.3106  138.2004  154.5635 C   0  0  0  0  0  0  0  0  0  0  0  0
  152.0475  139.0478  155.3087 C   0  0  0  0  0  0  0  0  0  0  0  0
  151.9512  139.0724  156.7703 C   0  0  0  0  0  0  0  0  0  0  0  0
  152.6293  139.8331  157.4614 O   0  0  0  0  0  0  0  0  0  0  0  0
  151.0578  138.1976  157.3161 N   0  0  0  0  0  0  0  0  0  0  0  0
  150.8805  138.1471  158.7693 C   0  0  0  0  0  0  0  0  0  0  0  0
  150.2940  137.3130  156.5322 C   0  0  0  0  0  0  0  0  0  0  0  0
  147.2892  131.8295  152.1910 N   0  3  0  0  0  0  0  0  0  0  0  0
  146.0830  131.0711  152.6220 C   0  0  0  0  0  0  0  0  0  0  0  0
  145.2261  130.6603  151.4140 C   0  0  0  0  0  0  0  0  0  0  0  0
  144.8477  131.8191  150.6860 O   0  0  0  0  0  0  0  0  0  0  0  0
  145.9804  132.5071  150.1764 C   0  0  0  0  0  0  0  0  0  0  0  0
  146.8741  132.9769  151.3372 C   0  0  0  0  0  0  0  0  0  0  0  0
  149.1405  131.2401  155.0948 H   0  0  0  0  0  0  0  0  0  0  0  0
  149.0280  130.1640  153.7371 H   0  0  0  0  0  0  0  0  0  0  0  0
  147.5826  130.5401  154.6829 H   0  0  0  0  0  0  0  0  0  0  0  0
  149.1519  132.4785  152.9153 H   0  0  0  0  0  0  0  0  0  0  0  0
  146.5572  133.5227  153.9151 H   0  0  0  0  0  0  0  0  0  0  0  0
  147.6152  133.0797  155.2236 H   0  0  0  0  0  0  0  0  0  0  0  0
  148.3194  135.0079  153.0803 H   0  0  0  0  0  0  0  0  0  0  0  0
  149.3889  136.5789  153.5482 H   0  0  0  0  0  0  0  0  0  0  0  0
  151.4264  138.2519  153.4934 H   0  0  0  0  0  0  0  0  0  0  0  0
  152.7230  139.7322  154.8166 H   0  0  0  0  0  0  0  0  0  0  0  0
  150.0612  137.4934  159.0706 H   0  0  0  0  0  0  0  0  0  0  0  0
  150.6626  139.1385  159.1691 H   0  0  0  0  0  0  0  0  0  0  0  0
  151.7882  137.7792  159.2490 H   0  0  0  0  0  0  0  0  0  0  0  0
  149.6347  136.6664  157.0934 H   0  0  0  0  0  0  0  0  0  0  0  0
  146.3574  130.1731  153.1724 H   0  0  0  0  0  0  0  0  0  0  0  0
  145.4893  131.6853  153.3010 H   0  0  0  0  0  0  0  0  0  0  0  0
  145.7662  129.9656  150.7688 H   0  0  0  0  0  0  0  0  0  0  0  0
  144.3253  130.1468  151.7504 H   0  0  0  0  0  0  0  0  0  0  0  0
  146.5361  131.8622  149.4932 H   0  0  0  0  0  0  0  0  0  0  0  0
  145.6396  133.3645  149.5955 H   0  0  0  0  0  0  0  0  0  0  0  0
  146.3450  133.7138  151.9436 H   0  0  0  0  0  0  0  0  0  0  0  0
  147.7411  133.4716  150.9006 H   0  0  0  0  0  0  0  0  0  0  0  0
  147.8183  131.2184  151.5854 H   0  0  0  0  0  0  0  0  0  0  0  0
  1  2  1  0  0  0  0
  1 22  1  0  0  0  0
  1 23  1  0  0  0  0
  1 24  1  0  0  0  0
  2  3  1  0  0  0  0
  2 16  1  0  0  0  0
  2 25  1  0  0  0  0
  3  4  1  0  0  0  0
  3 26  1  0  0  0  0
  3 27  1  0  0  0  0
  4  5  1  0  0  0  0
  4 28  1  0  0  0  0
  5  6  2  0  0  0  0
  5  7  1  0  0  0  0
  7  8  1  0  0  0  0
  7 29  1  0  0  0  0
  8 15  2  0  0  0  0
  8  9  1  0  0  0  0
  9 10  2  0  0  0  0
  9 30  1  0  0  0  0
 10 11  1  0  0  0  0
 10 31  1  0  0  0  0
 11 12  2  0  0  0  0
 11 13  1  0  0  0  0
 13 14  1  0  0  0  0
 13 15  1  0  0  0  0
 14 32  1  0  0  0  0
 14 33  1  0  0  0  0
 14 34  1  0  0  0  0
 15 35  1  0  0  0  0
 16 21  1  0  0  0  0
 16 17  1  0  0  0  0
 16 44  1  0  0  0  0
 17 18  1  0  0  0  0
 17 36  1  0  0  0  0
 17 37  1  0  0  0  0
 18 19  1  0  0  0  0
 18 38  1  0  0  0  0
 18 39  1  0  0  0  0
 19 20  1  0  0  0  0
 20 21  1  0  0  0  0
 20 40  1  0  0  0  0
 20 41  1  0  0  0  0
 21 42  1  0  0  0  0
 21 43  1  0  0  0  0
M  CHG  1  16   1
M  END
> <s_m_source_file>
AV-unprocessed.smi

> <i_m_source_file_index>
1100

> <i_lp_mmshare_version>
43012

> <i_f3d_flags>
0

> <s_epik_input>
W0NIMl0xW0NIMl1PW0NIMl1bQ0gyXU4xW0NASF0oW0NIM10pW0NIMl1bTkhdQyg9TylbTkhdYzJbY0hdW2NIXWMoPU8pbihbQ0gzXSlbY0hdMg==

> <s_epik_cmdline>
J2VwaWtfcHl0aG9uJywgJy1waCcsICc3LjAnLCAnLXRuJywgJzgnLCAnLW1hJywgJzIwMCcsICctbWV0YWxfYmluZGluZycsICctaW1hZScsICc8aW5maWxlLm1hZT4nLCAnLW9tYWUnLCAnPG91dGZpbGUubWFlPic=

> <r_lp_tautomer_probability>
1

> <r_epik_Ionization_Penalty>
0.602556

> <r_epik_Ionization_Penalty_Charging>
0.602536

> <r_epik_Ionization_Penalty_Neutral>
1.99507e-05

> <r_epik_State_Penalty>
0.617039

> <r_epik_Charging_Adjusted_Penalty>
1.21958

> <i_epik_Tot_Q>
1

> <i_epik_Tot_abs_Q>
1

> <r_epik_Metal_State_Penalty>
0.619464

> <b_epik_Metal_Only>
0

> <s_lp_Force_Field>
OPLS_2005

> <r_lp_Energy>
33.1854

> <b_lp_Chiralities_Consistent>
1

> <s_lp_Variant>
AV-unprocessed.smi:1100-3

> <Gold.Version>
5.8.1

> <Gold.Id.Protein>
6NUR|6NUR_protein|mol2

> <Gold.PLP.Fitness>
44.9339

> <Gold.PLP.PLP>
-34.7943

> <Gold.PLP.part.hbond>
-3.9307

> <Gold.PLP.part.metal>
0.0000

> <Gold.PLP.part.buried>
-5.1221

> <Gold.PLP.part.nonpolar>
-26.3365

> <Gold.PLP.part.repulsive>
0.1979

> <Gold.PLP.ligand.clash>
0.0000

> <Gold.PLP.ligand.torsion>
0.9620

> <Gold.PLP.Chemscore.Hbond>
4.0000

> <Gold.PLP.Chemscore.CHOScore>
0.0000

> <Gold.PLP.Chemscore.Metal>
0.0000

> <Gold.Chemscore.Hbonds>
donor molecule, donor type, donor heavy atom, donor atom, acceptor molecule, acceptor atom, score
      L1  H     4    28       P1  7948  1.00
      L1  H     7    29       P1  7948  1.00
      L1  H    16    44       P1 10747  1.00
      P1  H  7997  8010       L1    12  1.00

> <Gold.PLP.Chemscore.Internal.Correction>
0.0636

> <Gold.Rescore>
     Score         DG    S(hbond)    S(metal)    S(lipo)     H(rot)  DE(clash)    DE(int)     intcor
     20.21     -22.49       3.61        0.00      75.95       1.54       0.10       2.18       ----

> <Gold.Chemscore.Fitness>
20.2075

> <Gold.Chemscore.DG>
-22.4949

> <Gold.Chemscore.ZeroCoef>
-5.4800

> <Gold.Chemscore.Hbond>
3.6139

> <Gold.Chemscore.Metal>
0.0000

> <Gold.Chemscore.Lipo>
75.9524

> <Gold.Chemscore.Internal_Hbond>
0.0000

> <Gold.Chemscore.DEClash>
0.1049

> <Gold.Chemscore.DEInternal>
2.1825

> <Gold.Chemscore.Rot>
1.5398

> <Gold.Chemscore.Internal.Correction>
   9.000000E+99

> <Gold.Chemscore.Hbonds>
donor molecule, donor type, donor heavy atom, donor atom, acceptor molecule, acceptor atom, score
      L1  H     4    28       P1  7948  0.81
      L1  H     7    29       P1  7948  0.86
      L1  H    16    44       P1 10747  0.98
      P1  H  7997  8010       L1    12  0.68

> <Gold.Chemscore.Hbond.Weighted>
-12.0705

> <Gold.Chemscore.Metal.Weighted>
-0.0000

> <Gold.Chemscore.Lipo.Weighted>
-8.8864

> <Gold.Chemscore.Internal_Hbond.Weighted>
0.0000

> <Gold.Chemscore.DEClash.Weighted>
0.1049

> <Gold.Chemscore.DEInternal.Weighted>
2.1825

> <Gold.Chemscore.Rot.Weighted>
3.9420

> <Gold.Chemscore.Internal.Correction.Weighted>
   9.000000E+99

> <Gold.Protein.RotatedTorsions>
[ 6907 6896 6895 6894 ] final  -71.95 input  -60.11 | X-H torsion
[ 7974 7965 7964 7962 ] final   17.47 input  175.53 | X-H torsion
[ 8008 7997 7996 7995 ] final   63.39 input   59.86 | X-H torsion
[ 10167 10162 10161 10158 ] final  -91.63 input  -65.29 | X-H torsion
[ 10718 10713 10712 10709 ] final   86.08 input   66.30 | X-H torsion
[ 10763 10752 10751 10750 ] final  -80.52 input  -60.55 | X-H torsion
[ 11005 11000 10999 10996 ] final   19.69 input  -57.11 | X-H torsion

> <Gold.Protein.ActiveResidues>
 VAL166  LYS551  ARG553  GLY616  TRP617  ASP618  TYR619  PRO620  LYS621  CYS622 
 ASP623  PHE694  ASN695  SER759  ASP760  ASP761  ALA762  ILE779  LEU786  VAL792 
 PHE793  MET794  SER795  GLU796  ALA797  LYS798  CYS799  TRP800  GLU811  SER814 

> <Gold.Protein.RotatedAtoms>
  150.7190  134.5233  159.5664 H   0  0  0  0  0  0  0  0  0  0  0  0  # atno 6907 bound_to 6896
  152.2783  134.7854  160.0410 H   0  0  0  0  0  0  0  0  0  0  0  0  # atno 6908 bound_to 6896
  151.8509  133.3404  159.3709 H   0  0  0  0  0  0  0  0  0  0  0  0  # atno 6909 bound_to 6896
  146.2217  139.8597  142.8607 H   0  0  0  0  0  0  0  0  0  0  0  0  # atno 7974 bound_to 7965
  155.6294  140.3496  155.4678 H   0  0  0  0  0  0  0  0  0  0  0  0  # atno 8008 bound_to 7997
  156.0015  140.1214  157.0566 H   0  0  0  0  0  0  0  0  0  0  0  0  # atno 8009 bound_to 7997
  154.4250  140.1099  156.5690 H   0  0  0  0  0  0  0  0  0  0  0  0  # atno 8010 bound_to 7997
  140.3429  143.2932  151.9814 H   0  0  0  0  0  0  0  0  0  0  0  0  # atno 10167 bound_to 10162
  157.6924  131.0201  150.2919 H   0  0  0  0  0  0  0  0  0  0  0  0  # atno 10718 bound_to 10713
  154.5522  135.5658  153.6932 H   0  0  0  0  0  0  0  0  0  0  0  0  # atno 10763 bound_to 10752
  152.9993  135.6253  154.2359 H   0  0  0  0  0  0  0  0  0  0  0  0  # atno 10764 bound_to 10752
  154.2294  135.2866  155.2875 H   0  0  0  0  0  0  0  0  0  0  0  0  # atno 10765 bound_to 10752
  140.4109  134.1619  155.7667 H   0  0  0  0  0  0  0  0  0  0  0  0  # atno 11005 bound_to 11000
  145.2717  141.0110  143.3768 LP  0  0  0  0  0  0  0  0  0  0  0  0  # atno 17320 bound_to 7965
  144.9219  139.4402  143.6537 LP  0  0  0  0  0  0  0  0  0  0  0  0  # atno 17321 bound_to 7965
  139.4838  144.6141  151.7378 LP  0  0  0  0  0  0  0  0  0  0  0  0  # atno 17342 bound_to 10162
  140.5292  144.0757  150.6048 LP  0  0  0  0  0  0  0  0  0  0  0  0  # atno 17343 bound_to 10162
  156.3449  130.3821  149.7378 LP  0  0  0  0  0  0  0  0  0  0  0  0  # atno 17370 bound_to 10713
  156.4875  130.8069  151.3081 LP  0  0  0  0  0  0  0  0  0  0  0  0  # atno 17371 bound_to 10713
  141.1821  133.8391  157.1220 LP  0  0  0  0  0  0  0  0  0  0  0  0  # atno 17394 bound_to 11000
  140.0268  134.9920  157.0702 LP  0  0  0  0  0  0  0  0  0  0  0  0  # atno 17395 bound_to 11000

$$$$
