AV-unprocessed.smi:738|AV-procd|sdf|3541|dock5
  -GOLD-   22720 0533D 1   1.00000     0.00000
 Structure written by MMmdl.
 35 37  0  0  0  0  0  0  0  0  1 V2000
  145.8534  141.2076  154.3416 N   0  0  0  0  0  0  0  0  0  0  0  0
  147.0041  140.6138  154.0107 C   0  0  0  0  0  0  0  0  0  0  0  0
  147.1136  139.8955  153.0190 O   0  0  0  0  0  0  0  0  0  0  0  0
  148.1518  140.8159  154.9574 C   0  0  0  0  0  0  0  0  0  0  0  0
  147.9863  141.5777  156.1343 C   0  0  0  0  0  0  0  0  0  0  0  0
  148.9702  141.7804  157.0356 N   0  0  0  0  0  0  0  0  0  0  0  0
  150.1837  141.2212  156.8114 C   0  0  0  0  0  0  0  0  0  0  0  0
  151.1931  141.4301  157.7694 N   0  0  0  0  0  0  0  0  0  0  0  0
  151.6655  140.1758  158.3368 C   0  0  0  0  0  0  0  0  0  0  0  0
  152.9634  140.4224  159.1161 C   0  0  0  0  0  0  0  0  0  0  0  0
  152.7357  141.3821  160.1440 O   0  0  0  0  0  0  0  0  0  0  0  0
  152.1852  142.6224  159.6953 C   0  0  1  0  0  0  0  0  0  0  0  0
  153.1579  143.5472  158.9459 C   0  0  0  0  0  0  0  0  0  0  0  0
  152.2853  144.3720  157.9858 C   0  0  0  0  0  0  0  0  0  0  0  0
  150.8433  143.8726  158.1626 C   0  0  0  0  0  0  0  0  0  0  0  0
  150.9605  142.4688  158.7772 C   0  0  1  0  0  0  0  0  0  0  0  0
  150.4472  140.4280  155.6685 C   0  0  0  0  0  0  0  0  0  0  0  0
  152.0024  139.7247  155.3884 Cl  0  0  0  0  0  0  0  0  0  0  0  0
  149.4141  140.2228  154.7335 C   0  0  0  0  0  0  0  0  0  0  0  0
  145.0468  141.1018  153.7433 H   0  0  0  0  0  0  0  0  0  0  0  0
  145.7908  141.7551  155.1875 H   0  0  0  0  0  0  0  0  0  0  0  0
  147.0400  142.0455  156.3643 H   0  0  0  0  0  0  0  0  0  0  0  0
  150.9008  139.7644  158.9973 H   0  0  0  0  0  0  0  0  0  0  0  0
  151.8409  139.4405  157.5505 H   0  0  0  0  0  0  0  0  0  0  0  0
  153.3054  139.4951  159.5756 H   0  0  0  0  0  0  0  0  0  0  0  0
  153.7595  140.7508  158.4479 H   0  0  0  0  0  0  0  0  0  0  0  0
  151.8613  143.1572  160.5894 H   0  0  0  0  0  0  0  0  0  0  0  0
  153.7173  144.1786  159.6370 H   0  0  0  0  0  0  0  0  0  0  0  0
  153.8873  142.9807  158.3683 H   0  0  0  0  0  0  0  0  0  0  0  0
  152.3607  145.4415  158.1846 H   0  0  0  0  0  0  0  0  0  0  0  0
  152.6146  144.2081  156.9589 H   0  0  0  0  0  0  0  0  0  0  0  0
  150.3308  144.5224  158.8732 H   0  0  0  0  0  0  0  0  0  0  0  0
  150.2708  143.9078  157.2353 H   0  0  0  0  0  0  0  0  0  0  0  0
  150.0754  142.2148  159.3623 H   0  0  0  0  0  0  0  0  0  0  0  0
  149.5985  139.6154  153.8591 H   0  0  0  0  0  0  0  0  0  0  0  0
  1  2  1  0  0  0  0
  1 20  1  0  0  0  0
  1 21  1  0  0  0  0
  2  3  2  0  0  0  0
  2  4  1  0  0  0  0
  4 19  1  0  0  0  0
  4  5  2  0  0  0  0
  5  6  1  0  0  0  0
  5 22  1  0  0  0  0
  6  7  2  0  0  0  0
  7  8  1  0  0  0  0
  7 17  1  0  0  0  0
  8 16  1  0  0  0  0
  8  9  1  0  0  0  0
  9 10  1  0  0  0  0
  9 23  1  0  0  0  0
  9 24  1  0  0  0  0
 10 11  1  0  0  0  0
 10 25  1  0  0  0  0
 10 26  1  0  0  0  0
 11 12  1  0  0  0  0
 12 16  1  0  0  0  0
 12 13  1  0  0  0  0
 12 27  1  0  0  0  0
 13 14  1  0  0  0  0
 13 28  1  0  0  0  0
 13 29  1  0  0  0  0
 14 15  1  0  0  0  0
 14 30  1  0  0  0  0
 14 31  1  0  0  0  0
 15 16  1  0  0  0  0
 15 32  1  0  0  0  0
 15 33  1  0  0  0  0
 16 34  1  0  0  0  0
 17 18  1  0  0  0  0
 17 19  2  0  0  0  0
 19 35  1  0  0  0  0
M  END
> <s_m_source_file>
AV-unprocessed.smi

> <i_m_source_file_index>
738

> <i_lp_mmshare_version>
43012

> <i_f3d_flags>
0

> <s_epik_input>
W05IMl1DKD1PKWMxW2NIXW5jKGMoQ2wpW2NIXTEpTihbQ0gyXVtDSDJdTzIpW0NASF0oW0NASF0yMylbQ0gyXVtDSDJdW0NIMl0z

> <s_epik_cmdline>
J2VwaWtfcHl0aG9uJywgJy1waCcsICc3LjAnLCAnLXRuJywgJzgnLCAnLW1hJywgJzIwMCcsICctbWV0YWxfYmluZGluZycsICctaW1hZScsICc8aW5maWxlLm1hZT4nLCAnLW9tYWUnLCAnPG91dGZpbGUubWFlPic=

> <r_lp_tautomer_probability>
1

> <r_epik_Ionization_Penalty>
6.75978e-06

> <r_epik_Ionization_Penalty_Charging>
0

> <r_epik_Ionization_Penalty_Neutral>
6.75978e-06

> <r_epik_State_Penalty>
-0

> <r_epik_Charging_Adjusted_Penalty>
0

> <i_epik_Tot_Q>
0

> <i_epik_Tot_abs_Q>
0

> <r_epik_Metal_State_Penalty>
-0

> <b_epik_Metal_Only>
0

> <s_lp_Force_Field>
OPLS_2005

> <r_lp_Energy>
43.0455

> <b_lp_Chiralities_Consistent>
1

> <s_lp_Variant>
AV-unprocessed.smi:738-4

> <Gold.Version>
5.8.1

> <Gold.Id.Protein>
6NUR|6NUR_protein|mol2

> <Gold.PLP.Fitness>
38.8700

> <Gold.PLP.PLP>
-35.9874

> <Gold.PLP.part.hbond>
-1.0000

> <Gold.PLP.part.metal>
0.0000

> <Gold.PLP.part.buried>
-3.7108

> <Gold.PLP.part.nonpolar>
-32.9716

> <Gold.PLP.part.repulsive>
1.4262

> <Gold.PLP.ligand.clash>
0.0000

> <Gold.PLP.ligand.torsion>
0.1460

> <Gold.PLP.Chemscore.Hbond>
1.0000

> <Gold.PLP.Chemscore.CHOScore>
0.0000

> <Gold.PLP.Chemscore.Metal>
0.0000

> <Gold.Chemscore.Hbonds>
donor molecule, donor type, donor heavy atom, donor atom, acceptor molecule, acceptor atom, score
      L1  H     1    20       P1 10175  1.00

> <Gold.PLP.Chemscore.Internal.Correction>
0.1746

> <Gold.Rescore>
     Score         DG    S(hbond)    S(metal)    S(lipo)     H(rot)  DE(clash)    DE(int)     intcor
     17.36     -17.81       0.94        0.00     100.54       1.00       0.04       0.42       ----

> <Gold.Chemscore.Fitness>
17.3570

> <Gold.Chemscore.DG>
-17.8137

> <Gold.Chemscore.ZeroCoef>
-5.4800

> <Gold.Chemscore.Hbond>
0.9372

> <Gold.Chemscore.Metal>
0.0000

> <Gold.Chemscore.Lipo>
100.5426

> <Gold.Chemscore.Internal_Hbond>
0.0000

> <Gold.Chemscore.DEClash>
0.0414

> <Gold.Chemscore.DEInternal>
0.4153

> <Gold.Chemscore.Rot>
1.0000

> <Gold.Chemscore.Internal.Correction>
   9.000000E+99

> <Gold.Chemscore.Hbonds>
donor molecule, donor type, donor heavy atom, donor atom, acceptor molecule, acceptor atom, score
      L1  H     1    20       P1 10175  0.65

> <Gold.Chemscore.Hbond.Weighted>
-3.1302

> <Gold.Chemscore.Metal.Weighted>
-0.0000

> <Gold.Chemscore.Lipo.Weighted>
-11.7635

> <Gold.Chemscore.Internal_Hbond.Weighted>
0.0000

> <Gold.Chemscore.DEClash.Weighted>
0.0414

> <Gold.Chemscore.DEInternal.Weighted>
0.4153

> <Gold.Chemscore.Rot.Weighted>
2.5600

> <Gold.Chemscore.Internal.Correction.Weighted>
   9.000000E+99

> <Gold.Protein.RotatedTorsions>
[ 6907 6896 6895 6894 ] final  -51.59 input  -60.11 | X-H torsion
[ 7974 7965 7964 7962 ] final  159.00 input  175.53 | X-H torsion
[ 8008 7997 7996 7995 ] final -167.96 input   59.86 | X-H torsion
[ 10167 10162 10161 10158 ] final   73.47 input  -65.29 | X-H torsion
[ 10718 10713 10712 10709 ] final  113.03 input   66.30 | X-H torsion
[ 10763 10752 10751 10750 ] final   41.58 input  -60.55 | X-H torsion
[ 11005 11000 10999 10996 ] final -125.13 input  -57.11 | X-H torsion

> <Gold.Protein.ActiveResidues>
 VAL166  LYS551  ARG553  GLY616  TRP617  ASP618  TYR619  PRO620  LYS621  CYS622 
 ASP623  PHE694  ASN695  SER759  ASP760  ASP761  ALA762  ILE779  LEU786  VAL792 
 PHE793  MET794  SER795  GLU796  ALA797  LYS798  CYS799  TRP800  GLU811  SER814 

> <Gold.Protein.RotatedAtoms>
  150.8597  134.7946  159.7072 H   0  0  0  0  0  0  0  0  0  0  0  0  # atno 6907 bound_to 6896
  152.4638  134.5120  159.9766 H   0  0  0  0  0  0  0  0  0  0  0  0  # atno 6908 bound_to 6896
  151.5226  133.3425  159.2939 H   0  0  0  0  0  0  0  0  0  0  0  0  # atno 6909 bound_to 6896
  144.7814  139.7556  143.6258 H   0  0  0  0  0  0  0  0  0  0  0  0  # atno 7974 bound_to 7965
  155.8849  140.1015  157.1460 H   0  0  0  0  0  0  0  0  0  0  0  0  # atno 8008 bound_to 7997
  154.4009  140.1322  156.4306 H   0  0  0  0  0  0  0  0  0  0  0  0  # atno 8009 bound_to 7997
  155.7601  140.3463  155.5196 H   0  0  0  0  0  0  0  0  0  0  0  0  # atno 8010 bound_to 7997
  140.0241  144.5517  150.7558 H   0  0  0  0  0  0  0  0  0  0  0  0  # atno 10167 bound_to 10162
  157.6360  131.0977  150.6982 H   0  0  0  0  0  0  0  0  0  0  0  0  # atno 10718 bound_to 10713
  152.9904  135.6157  154.2810 H   0  0  0  0  0  0  0  0  0  0  0  0  # atno 10763 bound_to 10752
  154.2539  135.2784  155.2807 H   0  0  0  0  0  0  0  0  0  0  0  0  # atno 10764 bound_to 10752
  154.5264  135.5800  153.6780 H   0  0  0  0  0  0  0  0  0  0  0  0  # atno 10765 bound_to 10752
  140.9786  134.0705  157.3790 H   0  0  0  0  0  0  0  0  0  0  0  0  # atno 11005 bound_to 11000
  146.2024  139.5328  142.9734 LP  0  0  0  0  0  0  0  0  0  0  0  0  # atno 17320 bound_to 7965
  145.6039  141.0351  143.2003 LP  0  0  0  0  0  0  0  0  0  0  0  0  # atno 17321 bound_to 7965
  140.7330  143.2712  151.3883 LP  0  0  0  0  0  0  0  0  0  0  0  0  # atno 17342 bound_to 10162
  139.6120  144.1079  152.2308 LP  0  0  0  0  0  0  0  0  0  0  0  0  # atno 17343 bound_to 10162
  156.7313  130.4710  149.5499 LP  0  0  0  0  0  0  0  0  0  0  0  0  # atno 17370 bound_to 10713
  156.1600  130.6367  151.0706 LP  0  0  0  0  0  0  0  0  0  0  0  0  # atno 17371 bound_to 10713
  139.8941  135.0134  156.6932 LP  0  0  0  0  0  0  0  0  0  0  0  0  # atno 17394 bound_to 11000
  140.7221  133.9132  155.8154 LP  0  0  0  0  0  0  0  0  0  0  0  0  # atno 17395 bound_to 11000

$$$$
