AV-unprocessed.smi:3332|AV-procd|sdf|12830|dock8
  -GOLD-   2272019213D 1   1.00000     0.00000
 Structure written by MMmdl.
 41 42  0  0  0  0  0  0  0  0  1 V2000
  151.5093  144.9836  160.1279 C   0  0  0  0  0  0  0  0  0  0  0  0
  152.2113  144.4599  158.8706 C   0  0  0  0  0  0  0  0  0  0  0  0
  152.3438  142.9655  158.8725 C   0  0  0  0  0  0  0  0  0  0  0  0
  151.8562  142.2348  157.7856 N   0  0  0  0  0  0  0  0  0  0  0  0
  152.0414  140.9197  157.9210 C   0  0  0  0  0  0  0  0  0  0  0  0
  151.5531  139.9126  156.9287 C   0  0  0  0  0  0  0  0  0  0  0  0
  150.7777  140.5233  155.7453 C   0  0  0  0  0  0  0  0  0  0  0  0
  149.4892  141.0738  156.1614 N   0  0  0  0  0  0  0  0  0  0  0  0
  148.5391  141.5423  155.3367 C   0  0  0  0  0  0  0  0  0  0  0  0
  148.6976  141.6655  154.1217 O   0  0  0  0  0  0  0  0  0  0  0  0
  147.1995  141.9039  155.9902 C   0  0  0  0  0  0  0  0  0  0  0  0
  146.0195  142.0381  154.9997 C   0  0  1  0  0  0  0  0  0  0  0  0
  144.7605  142.6014  155.6156 C   0  0  0  0  0  0  0  0  0  0  0  0
  144.2909  143.6573  154.9563 C   0  0  0  0  0  0  0  0  0  0  0  0
  145.1398  144.0185  153.7697 C   0  0  0  0  0  0  0  0  0  0  0  0
  146.3152  143.0169  153.8340 C   0  0  0  0  0  0  0  0  0  0  0  0
  152.8291  140.4866  159.4310 S   0  0  0  0  0  0  0  0  0  0  0  0
  152.9036  142.1789  159.8523 C   0  0  0  0  0  0  0  0  0  0  0  0
  153.5096  142.6195  161.1429 C   0  0  0  0  0  0  0  0  0  0  0  0
  151.4233  146.0699  160.1005 H   0  0  0  0  0  0  0  0  0  0  0  0
  152.0623  144.7161  161.0288 H   0  0  0  0  0  0  0  0  0  0  0  0
  150.5036  144.5714  160.2160 H   0  0  0  0  0  0  0  0  0  0  0  0
  151.6614  144.7910  157.9895 H   0  0  0  0  0  0  0  0  0  0  0  0
  153.1973  144.9198  158.7917 H   0  0  0  0  0  0  0  0  0  0  0  0
  152.4142  139.3595  156.5512 H   0  0  0  0  0  0  0  0  0  0  0  0
  150.9273  139.1859  157.4470 H   0  0  0  0  0  0  0  0  0  0  0  0
  151.3676  141.3168  155.2862 H   0  0  0  0  0  0  0  0  0  0  0  0
  150.6421  139.7637  154.9738 H   0  0  0  0  0  0  0  0  0  0  0  0
  149.2714  141.0206  157.1458 H   0  0  0  0  0  0  0  0  0  0  0  0
  146.9588  141.1429  156.7348 H   0  0  0  0  0  0  0  0  0  0  0  0
  147.3292  142.8396  156.5350 H   0  0  0  0  0  0  0  0  0  0  0  0
  145.7717  141.0576  154.5901 H   0  0  0  0  0  0  0  0  0  0  0  0
  144.2969  142.1623  156.4867 H   0  0  0  0  0  0  0  0  0  0  0  0
  143.3961  144.2044  155.2144 H   0  0  0  0  0  0  0  0  0  0  0  0
  144.5624  143.9055  152.8516 H   0  0  0  0  0  0  0  0  0  0  0  0
  145.4815  145.0515  153.8432 H   0  0  0  0  0  0  0  0  0  0  0  0
  147.2472  143.5577  154.0044 H   0  0  0  0  0  0  0  0  0  0  0  0
  146.4285  142.4809  152.8910 H   0  0  0  0  0  0  0  0  0  0  0  0
  154.3040  143.3455  160.9685 H   0  0  0  0  0  0  0  0  0  0  0  0
  153.9377  141.7773  161.6871 H   0  0  0  0  0  0  0  0  0  0  0  0
  152.7586  143.0856  161.7815 H   0  0  0  0  0  0  0  0  0  0  0  0
  1  2  1  0  0  0  0
  1 20  1  0  0  0  0
  1 21  1  0  0  0  0
  1 22  1  0  0  0  0
  2  3  1  0  0  0  0
  2 23  1  0  0  0  0
  2 24  1  0  0  0  0
  3 18  2  0  0  0  0
  3  4  1  0  0  0  0
  4  5  2  0  0  0  0
  5  6  1  0  0  0  0
  5 17  1  0  0  0  0
  6  7  1  0  0  0  0
  6 25  1  0  0  0  0
  6 26  1  0  0  0  0
  7  8  1  0  0  0  0
  7 27  1  0  0  0  0
  7 28  1  0  0  0  0
  8  9  1  0  0  0  0
  8 29  1  0  0  0  0
  9 10  2  0  0  0  0
  9 11  1  0  0  0  0
 11 12  1  0  0  0  0
 11 30  1  0  0  0  0
 11 31  1  0  0  0  0
 12 16  1  0  0  0  0
 12 13  1  0  0  0  0
 12 32  1  0  0  0  0
 13 14  2  0  0  0  0
 13 33  1  0  0  0  0
 14 15  1  0  0  0  0
 14 34  1  0  0  0  0
 15 16  1  0  0  0  0
 15 35  1  0  0  0  0
 15 36  1  0  0  0  0
 16 37  1  0  0  0  0
 16 38  1  0  0  0  0
 17 18  1  0  0  0  0
 18 19  1  0  0  0  0
 19 39  1  0  0  0  0
 19 40  1  0  0  0  0
 19 41  1  0  0  0  0
M  END
> <s_m_source_file>
AV-unprocessed.smi

> <i_m_source_file_index>
3332

> <i_lp_mmshare_version>
43012

> <i_f3d_flags>
0

> <s_epik_input>
W0NIM11bQ0gyXWMxbmMoc2MxW0NIM10pW0NIMl1bQ0gyXVtOSF1DKD1PKVtDSDJdW0NAQEhdMltDSF09W0NIXVtDSDJdW0NIMl0y

> <s_epik_cmdline>
J2VwaWtfcHl0aG9uJywgJy1waCcsICc3LjAnLCAnLXRuJywgJzgnLCAnLW1hJywgJzIwMCcsICctbWV0YWxfYmluZGluZycsICctaW1hZScsICc8aW5maWxlLm1hZT4nLCAnLW9tYWUnLCAnPG91dGZpbGUubWFlPic=

> <r_epik_Ionization_Penalty>
0.00221844

> <r_epik_Ionization_Penalty_Charging>
0

> <r_epik_Ionization_Penalty_Neutral>
0.00221844

> <r_epik_State_Penalty>
0.00152607

> <r_epik_Charging_Adjusted_Penalty>
0.00152607

> <i_epik_Tot_Q>
0

> <i_epik_Tot_abs_Q>
0

> <r_epik_Metal_State_Penalty>
-0

> <b_epik_Metal_Only>
0

> <s_lp_Force_Field>
OPLS_2005

> <r_lp_Energy>
6.79719

> <b_lp_Chiralities_Consistent>
1

> <s_lp_Variant>
AV-unprocessed.smi:3332-2

> <Gold.Version>
5.8.1

> <Gold.Id.Protein>
6NUR|6NUR_protein|mol2

> <Gold.PLP.Fitness>
44.4346

> <Gold.PLP.PLP>
-43.5572

> <Gold.PLP.part.hbond>
-1.0000

> <Gold.PLP.part.metal>
0.0000

> <Gold.PLP.part.buried>
-3.7173

> <Gold.PLP.part.nonpolar>
-37.6832

> <Gold.PLP.part.repulsive>
0.2775

> <Gold.PLP.ligand.clash>
0.0000

> <Gold.PLP.ligand.torsion>
0.3434

> <Gold.PLP.Chemscore.Hbond>
0.5054

> <Gold.PLP.Chemscore.CHOScore>
0.0000

> <Gold.PLP.Chemscore.Metal>
0.0000

> <Gold.Chemscore.Hbonds>
donor molecule, donor type, donor heavy atom, donor atom, acceptor molecule, acceptor atom, score
      P1  H  8011  8017       L1    10  0.29

> <Gold.PLP.Chemscore.Internal.Correction>
0.0478

> <Gold.Rescore>
     Score         DG    S(hbond)    S(metal)    S(lipo)     H(rot)  DE(clash)    DE(int)     intcor
     15.15     -17.01       0.54        0.00     116.20       1.51       0.28       1.59       ----

> <Gold.Chemscore.Fitness>
15.1471

> <Gold.Chemscore.DG>
-17.0119

> <Gold.Chemscore.ZeroCoef>
-5.4800

> <Gold.Chemscore.Hbond>
0.5397

> <Gold.Chemscore.Metal>
0.0000

> <Gold.Chemscore.Lipo>
116.2033

> <Gold.Chemscore.Internal_Hbond>
0.0000

> <Gold.Chemscore.DEClash>
0.2788

> <Gold.Chemscore.DEInternal>
1.5861

> <Gold.Chemscore.Rot>
1.5103

> <Gold.Chemscore.Internal.Correction>
   9.000000E+99

> <Gold.Chemscore.Hbonds>
donor molecule, donor type, donor heavy atom, donor atom, acceptor molecule, acceptor atom, score
      P1  H  8011  8017       L1    10  0.29

> <Gold.Chemscore.Hbond.Weighted>
-1.8025

> <Gold.Chemscore.Metal.Weighted>
-0.0000

> <Gold.Chemscore.Lipo.Weighted>
-13.5958

> <Gold.Chemscore.Internal_Hbond.Weighted>
0.0000

> <Gold.Chemscore.DEClash.Weighted>
0.2788

> <Gold.Chemscore.DEInternal.Weighted>
1.5861

> <Gold.Chemscore.Rot.Weighted>
3.8664

> <Gold.Chemscore.Internal.Correction.Weighted>
   9.000000E+99

> <Gold.Protein.RotatedTorsions>
[ 6907 6896 6895 6894 ] final  -48.38 input  -60.11 | X-H torsion
[ 7974 7965 7964 7962 ] final  168.96 input  175.53 | X-H torsion
[ 8008 7997 7996 7995 ] final  -22.18 input   59.86 | X-H torsion
[ 10167 10162 10161 10158 ] final  141.37 input  -65.29 | X-H torsion
[ 10718 10713 10712 10709 ] final  -31.04 input   66.30 | X-H torsion
[ 10763 10752 10751 10750 ] final  169.99 input  -60.55 | X-H torsion
[ 11005 11000 10999 10996 ] final  135.72 input  -57.11 | X-H torsion

> <Gold.Protein.ActiveResidues>
 VAL166  LYS551  ARG553  GLY616  TRP617  ASP618  TYR619  PRO620  LYS621  CYS622 
 ASP623  PHE694  ASN695  SER759  ASP760  ASP761  ALA762  ILE779  LEU786  VAL792 
 PHE793  MET794  SER795  GLU796  ALA797  LYS798  CYS799  TRP800  GLU811  SER814 

> <Gold.Protein.RotatedAtoms>
  150.8911  134.8315  159.7293 H   0  0  0  0  0  0  0  0  0  0  0  0  # atno 6907 bound_to 6896
  152.4838  134.4646  159.9626 H   0  0  0  0  0  0  0  0  0  0  0  0  # atno 6908 bound_to 6896
  151.4708  133.3530  159.2858 H   0  0  0  0  0  0  0  0  0  0  0  0  # atno 6909 bound_to 6896
  144.7371  139.8984  143.6408 H   0  0  0  0  0  0  0  0  0  0  0  0  # atno 7974 bound_to 7965
  154.4660  140.2015  156.0118 H   0  0  0  0  0  0  0  0  0  0  0  0  # atno 8008 bound_to 7997
  156.0927  140.3255  155.7808 H   0  0  0  0  0  0  0  0  0  0  0  0  # atno 8009 bound_to 7997
  155.4930  140.0547  157.2941 H   0  0  0  0  0  0  0  0  0  0  0  0  # atno 8010 bound_to 7997
  139.5022  144.6176  151.6128 H   0  0  0  0  0  0  0  0  0  0  0  0  # atno 10167 bound_to 10162
  156.3923  130.4375  149.7385 H   0  0  0  0  0  0  0  0  0  0  0  0  # atno 10718 bound_to 10713
  154.3911  135.2754  155.2154 H   0  0  0  0  0  0  0  0  0  0  0  0  # atno 10763 bound_to 10752
  154.4219  135.5998  153.6019 H   0  0  0  0  0  0  0  0  0  0  0  0  # atno 10764 bound_to 10752
  152.9832  135.5974  154.4166 H   0  0  0  0  0  0  0  0  0  0  0  0  # atno 10765 bound_to 10752
  139.9998  134.9483  157.0046 H   0  0  0  0  0  0  0  0  0  0  0  0  # atno 11005 bound_to 11000
  146.1090  139.4093  143.0299 LP  0  0  0  0  0  0  0  0  0  0  0  0  # atno 17320 bound_to 7965
  145.7470  140.9987  143.1271 LP  0  0  0  0  0  0  0  0  0  0  0  0  # atno 17321 bound_to 7965
  140.5868  143.9850  150.6300 LP  0  0  0  0  0  0  0  0  0  0  0  0  # atno 17342 bound_to 10162
  140.3017  143.3256  152.0965 LP  0  0  0  0  0  0  0  0  0  0  0  0  # atno 17343 bound_to 10162
  156.4434  130.7872  151.2893 LP  0  0  0  0  0  0  0  0  0  0  0  0  # atno 17370 bound_to 10713
  157.7499  131.0118  150.3358 LP  0  0  0  0  0  0  0  0  0  0  0  0  # atno 17371 bound_to 10713
  140.4749  134.1348  155.7208 LP  0  0  0  0  0  0  0  0  0  0  0  0  # atno 17394 bound_to 11000
  141.1633  133.8751  157.1787 LP  0  0  0  0  0  0  0  0  0  0  0  0  # atno 17395 bound_to 11000

$$$$
