AV-unprocessed.smi:2136|AV-procd|sdf|8704|dock1
  -GOLD-   2272011463D 1   1.00000     0.00000
 Structure written by MMmdl.
 43 44  0  0  0  0  0  0  0  0  2 V2000
  146.9494  134.4157  157.4571 C   0  0  0  0  0  0  0  0  0  0  0  0
  148.2569  133.7258  158.5560 S   0  0  0  0  0  0  0  0  0  0  0  0
  148.0094  132.2903  158.7623 O   0  0  0  0  0  0  0  0  0  0  0  0
  149.5480  134.1641  158.0032 O   0  0  0  0  0  0  0  0  0  0  0  0
  148.0100  134.5572  160.0771 N   0  0  0  0  0  0  0  0  0  0  0  0
  147.1365  133.8588  161.0519 C   0  0  0  0  0  0  0  0  0  0  0  0
  147.2061  134.4495  162.4661 C   0  0  0  0  0  0  0  0  0  0  0  0
  146.9295  135.9477  162.4441 C   0  0  0  0  0  0  0  0  0  0  0  0
  147.9763  136.6059  161.5508 C   0  0  0  0  0  0  0  0  0  0  0  0
  147.9480  136.0532  160.1045 C   0  0  1  0  0  0  0  0  0  0  0  0
  149.0333  136.7796  159.2919 C   0  0  0  0  0  0  0  0  0  0  0  0
  150.1875  136.3498  159.2718 O   0  0  0  0  0  0  0  0  0  0  0  0
  148.6529  137.8805  158.6249 N   0  0  0  0  0  0  0  0  0  0  0  0
  149.5240  138.6947  157.7869 C   0  0  0  0  0  0  0  0  0  0  0  0
  150.7741  139.1620  158.5516 C   0  0  0  0  0  0  0  0  0  0  0  0
  151.0902  140.6232  158.2984 C   0  0  0  0  0  0  0  0  0  0  0  0
  152.1374  141.2609  158.9998 C   0  0  0  0  0  0  0  0  0  0  0  0
  152.4123  142.6208  158.7460 C   0  0  0  0  0  0  0  0  0  0  0  0
  151.6320  143.3135  157.7978 C   0  0  0  0  0  0  0  0  0  0  0  0
  150.6374  142.6706  157.1470 N   0  3  0  0  0  0  0  0  0  0  0  0
  150.3438  141.3689  157.3603 C   0  0  0  0  0  0  0  0  0  0  0  0
  147.1357  134.0900  156.4340 H   0  0  0  0  0  0  0  0  0  0  0  0
  146.9758  135.5043  157.4976 H   0  0  0  0  0  0  0  0  0  0  0  0
  145.9671  134.0610  157.7601 H   0  0  0  0  0  0  0  0  0  0  0  0
  146.1104  133.8900  160.6834 H   0  0  0  0  0  0  0  0  0  0  0  0
  147.4190  132.8080  161.1128 H   0  0  0  0  0  0  0  0  0  0  0  0
  146.4843  133.9480  163.1113 H   0  0  0  0  0  0  0  0  0  0  0  0
  148.1901  134.2596  162.8971 H   0  0  0  0  0  0  0  0  0  0  0  0
  145.9252  136.1465  162.0684 H   0  0  0  0  0  0  0  0  0  0  0  0
  146.9812  136.3570  163.4534 H   0  0  0  0  0  0  0  0  0  0  0  0
  147.8091  137.6840  161.5412 H   0  0  0  0  0  0  0  0  0  0  0  0
  148.9612  136.4552  161.9967 H   0  0  0  0  0  0  0  0  0  0  0  0
  146.9825  136.3277  159.6755 H   0  0  0  0  0  0  0  0  0  0  0  0
  147.6838  138.1590  158.6851 H   0  0  0  0  0  0  0  0  0  0  0  0
  149.8042  138.1347  156.8929 H   0  0  0  0  0  0  0  0  0  0  0  0
  148.9522  139.5582  157.4460 H   0  0  0  0  0  0  0  0  0  0  0  0
  150.6368  139.0026  159.6221 H   0  0  0  0  0  0  0  0  0  0  0  0
  151.6418  138.5676  158.2624 H   0  0  0  0  0  0  0  0  0  0  0  0
  152.7248  140.7140  159.7232 H   0  0  0  0  0  0  0  0  0  0  0  0
  153.2100  143.1248  159.2721 H   0  0  0  0  0  0  0  0  0  0  0  0
  151.7721  144.3539  157.5421 H   0  0  0  0  0  0  0  0  0  0  0  0
  149.5265  140.9684  156.7780 H   0  0  0  0  0  0  0  0  0  0  0  0
  150.0841  143.1905  156.4653 H   0  0  0  0  0  0  0  0  0  0  0  0
  1  2  1  0  0  0  0
  1 22  1  0  0  0  0
  1 23  1  0  0  0  0
  1 24  1  0  0  0  0
  2  3  2  0  0  0  0
  2  4  2  0  0  0  0
  2  5  1  0  0  0  0
  5 10  1  0  0  0  0
  5  6  1  0  0  0  0
  6  7  1  0  0  0  0
  6 25  1  0  0  0  0
  6 26  1  0  0  0  0
  7  8  1  0  0  0  0
  7 27  1  0  0  0  0
  7 28  1  0  0  0  0
  8  9  1  0  0  0  0
  8 29  1  0  0  0  0
  8 30  1  0  0  0  0
  9 10  1  0  0  0  0
  9 31  1  0  0  0  0
  9 32  1  0  0  0  0
 10 11  1  0  0  0  0
 10 33  1  0  0  0  0
 11 12  2  0  0  0  0
 11 13  1  0  0  0  0
 13 14  1  0  0  0  0
 13 34  1  0  0  0  0
 14 15  1  0  0  0  0
 14 35  1  0  0  0  0
 14 36  1  0  0  0  0
 15 16  1  0  0  0  0
 15 37  1  0  0  0  0
 15 38  1  0  0  0  0
 16 21  1  0  0  0  0
 16 17  2  0  0  0  0
 17 18  1  0  0  0  0
 17 39  1  0  0  0  0
 18 19  2  0  0  0  0
 18 40  1  0  0  0  0
 19 20  1  0  0  0  0
 19 41  1  0  0  0  0
 20 21  2  0  0  0  0
 20 43  1  0  0  0  0
 21 42  1  0  0  0  0
M  CHG  1  20   1
M  END
> <s_m_source_file>
AV-unprocessed.smi

> <i_m_source_file_index>
2136

> <i_lp_mmshare_version>
43012

> <i_f3d_flags>
0

> <s_epik_input>
W0NIM11TKD1PKSg9TylOMVtDSDJdW0NIMl1bQ0gyXVtDSDJdW0NASF0xQyg9TylbTkhdW0NIMl1bQ0gyXWMyW2NIXVtjSF1bY0hdbltjSF0y

> <s_epik_cmdline>
J2VwaWtfcHl0aG9uJywgJy1waCcsICc3LjAnLCAnLXRuJywgJzgnLCAnLW1hJywgJzIwMCcsICctbWV0YWxfYmluZGluZycsICctaW1hZScsICc8aW5maWxlLm1hZT4nLCAnLW9tYWUnLCAnPG91dGZpbGUubWFlPic=

> <r_epik_Ionization_Penalty>
2.2835

> <r_epik_Ionization_Penalty_Charging>
2.2835

> <r_epik_Ionization_Penalty_Neutral>
1.35461e-07

> <r_epik_State_Penalty>
2.43297

> <r_epik_Charging_Adjusted_Penalty>
4.71647

> <i_epik_Tot_Q>
1

> <i_epik_Tot_abs_Q>
1

> <r_epik_Metal_State_Penalty>
2.44557

> <b_epik_Metal_Only>
0

> <s_lp_Force_Field>
OPLS_2005

> <r_lp_Energy>
13.1957

> <b_lp_Chiralities_Consistent>
1

> <s_lp_Variant>
AV-unprocessed.smi:2136-3

> <Gold.Version>
5.8.1

> <Gold.Id.Protein>
6NUR|6NUR_protein|mol2

> <Gold.PLP.Fitness>
43.6650

> <Gold.PLP.PLP>
-34.9797

> <Gold.PLP.part.hbond>
-3.0000

> <Gold.PLP.part.metal>
0.0000

> <Gold.PLP.part.buried>
-3.9959

> <Gold.PLP.part.nonpolar>
-27.9689

> <Gold.PLP.part.repulsive>
0.1757

> <Gold.PLP.ligand.clash>
0.0000

> <Gold.PLP.ligand.torsion>
2.0629

> <Gold.PLP.Chemscore.Hbond>
3.5520

> <Gold.PLP.Chemscore.CHOScore>
0.0000

> <Gold.PLP.Chemscore.Metal>
0.0000

> <Gold.Chemscore.Hbonds>
donor molecule, donor type, donor heavy atom, donor atom, acceptor molecule, acceptor atom, score
      L1  H    20    43       P1  8028  1.66
      P1  H  6896  6907       L1     4  0.94
      P1  H  6896  6908       L1    12  0.61

> <Gold.PLP.Chemscore.Internal.Correction>
2.1551

> <Gold.Rescore>
     Score         DG    S(hbond)    S(metal)    S(lipo)     H(rot)  DE(clash)    DE(int)     intcor
     17.13     -20.37       2.72        0.00      85.92       1.65       0.47       2.78       ----

> <Gold.Chemscore.Fitness>
17.1252

> <Gold.Chemscore.DG>
-20.3674

> <Gold.Chemscore.ZeroCoef>
-5.4800

> <Gold.Chemscore.Hbond>
2.7150

> <Gold.Chemscore.Metal>
0.0000

> <Gold.Chemscore.Lipo>
85.9222

> <Gold.Chemscore.Internal_Hbond>
0.0000

> <Gold.Chemscore.DEClash>
0.4660

> <Gold.Chemscore.DEInternal>
2.7761

> <Gold.Chemscore.Rot>
1.6538

> <Gold.Chemscore.Internal.Correction>
   9.000000E+99

> <Gold.Chemscore.Hbonds>
donor molecule, donor type, donor heavy atom, donor atom, acceptor molecule, acceptor atom, score
      L1  H    20    43       P1  8028  0.80
      P1  H  6896  6907       L1     4  0.55
      P1  H  6896  6908       L1    12  0.60

> <Gold.Chemscore.Hbond.Weighted>
-9.0682

> <Gold.Chemscore.Metal.Weighted>
-0.0000

> <Gold.Chemscore.Lipo.Weighted>
-10.0529

> <Gold.Chemscore.Internal_Hbond.Weighted>
0.0000

> <Gold.Chemscore.DEClash.Weighted>
0.4660

> <Gold.Chemscore.DEInternal.Weighted>
2.7761

> <Gold.Chemscore.Rot.Weighted>
4.2337

> <Gold.Chemscore.Internal.Correction.Weighted>
   9.000000E+99

> <Gold.Protein.RotatedTorsions>
[ 6907 6896 6895 6894 ] final -123.73 input  -60.11 | X-H torsion
[ 7974 7965 7964 7962 ] final -171.59 input  175.53 | X-H torsion
[ 8008 7997 7996 7995 ] final -111.18 input   59.86 | X-H torsion
[ 10167 10162 10161 10158 ] final   64.09 input  -65.29 | X-H torsion
[ 10718 10713 10712 10709 ] final -138.58 input   66.30 | X-H torsion
[ 10763 10752 10751 10750 ] final  144.73 input  -60.55 | X-H torsion
[ 11005 11000 10999 10996 ] final -167.72 input  -57.11 | X-H torsion

> <Gold.Protein.ActiveResidues>
 VAL166  LYS551  ARG553  GLY616  TRP617  ASP618  TYR619  PRO620  LYS621  CYS622 
 ASP623  PHE694  ASN695  SER759  ASP760  ASP761  ALA762  ILE779  LEU786  VAL792 
 PHE793  MET794  SER795  GLU796  ALA797  LYS798  CYS799  TRP800  GLU811  SER814 

> <Gold.Protein.RotatedAtoms>
  150.8699  133.7521  159.2964 H   0  0  0  0  0  0  0  0  0  0  0  0  # atno 6907 bound_to 6896
  151.5136  135.1064  159.9870 H   0  0  0  0  0  0  0  0  0  0  0  0  # atno 6908 bound_to 6896
  152.4687  133.7937  159.6971 H   0  0  0  0  0  0  0  0  0  0  0  0  # atno 6909 bound_to 6896
  144.7155  140.1899  143.6349 H   0  0  0  0  0  0  0  0  0  0  0  0  # atno 7974 bound_to 7965
  154.9859  140.0395  157.2298 H   0  0  0  0  0  0  0  0  0  0  0  0  # atno 8008 bound_to 7997
  154.7672  140.2795  155.6144 H   0  0  0  0  0  0  0  0  0  0  0  0  # atno 8009 bound_to 7997
  156.2914  140.2617  156.2465 H   0  0  0  0  0  0  0  0  0  0  0  0  # atno 8010 bound_to 7997
  140.1259  144.4688  150.6893 H   0  0  0  0  0  0  0  0  0  0  0  0  # atno 10167 bound_to 10162
  156.3010  130.7428  151.1480 H   0  0  0  0  0  0  0  0  0  0  0  0  # atno 10718 bound_to 10713
  153.9937  135.2930  155.3409 H   0  0  0  0  0  0  0  0  0  0  0  0  # atno 10763 bound_to 10752
  154.7200  135.5113  153.8800 H   0  0  0  0  0  0  0  0  0  0  0  0  # atno 10764 bound_to 10752
  153.0798  135.6675  154.0186 H   0  0  0  0  0  0  0  0  0  0  0  0  # atno 10765 bound_to 10752
  140.5500  134.5437  157.5120 H   0  0  0  0  0  0  0  0  0  0  0  0  # atno 11005 bound_to 11000
  145.8778  139.2306  143.1623 LP  0  0  0  0  0  0  0  0  0  0  0  0  # atno 17320 bound_to 7965
  146.0024  140.8509  143.0012 LP  0  0  0  0  0  0  0  0  0  0  0  0  # atno 17321 bound_to 7965
  140.6845  143.2343  151.5297 LP  0  0  0  0  0  0  0  0  0  0  0  0  # atno 17342 bound_to 10162
  139.5544  144.2312  152.1587 LP  0  0  0  0  0  0  0  0  0  0  0  0  # atno 17343 bound_to 10162
  157.7368  131.0559  150.5394 LP  0  0  0  0  0  0  0  0  0  0  0  0  # atno 17370 bound_to 10713
  156.5522  130.4234  149.6102 LP  0  0  0  0  0  0  0  0  0  0  0  0  # atno 17371 bound_to 10713
  139.9460  134.7702  156.0562 LP  0  0  0  0  0  0  0  0  0  0  0  0  # atno 17394 bound_to 11000
  141.1177  133.6622  156.3135 LP  0  0  0  0  0  0  0  0  0  0  0  0  # atno 17395 bound_to 11000

$$$$
