AV-unprocessed.smi:1005|AV-procd|sdf|4367|dock10
  -GOLD-   22720 2273D 1   1.00000     0.00000
 Structure written by MMmdl.
 57 59  0  0  0  0  0  0  0  0  3 V2000
  152.7085  143.3522  161.2124 C   0  0  0  0  0  0  0  0  0  0  0  0
  152.2255  142.7779  159.8923 C   0  0  0  0  0  0  0  0  0  0  0  0
  152.7253  141.5278  159.4626 C   0  0  0  0  0  0  0  0  0  0  0  0
  152.3005  140.9589  158.2421 C   0  0  0  0  0  0  0  0  0  0  0  0
  152.6500  139.7638  157.6371 N   0  0  0  0  0  0  0  0  0  0  0  0
  151.9194  139.8011  156.5269 C   0  0  0  0  0  0  0  0  0  0  0  0
  151.1325  140.8786  156.3418 N   0  0  0  0  0  0  0  0  0  0  0  0
  150.2506  141.1328  155.2159 C   0  0  0  0  0  0  0  0  0  0  0  0
  149.4282  139.8920  154.8166 C   0  0  1  0  0  0  0  0  0  0  0  0
  148.4449  140.2621  153.8687 O   0  0  0  0  0  0  0  0  0  0  0  0
  150.3169  138.7930  154.1993 C   0  0  0  0  0  0  0  0  0  0  0  0
  149.9222  137.4253  154.6253 N   0  3  1  0  0  0  0  0  0  0  0  0
  150.8253  136.8699  155.6605 C   0  0  0  0  0  0  0  0  0  0  0  0
  150.4172  135.4296  156.0101 C   0  0  0  0  0  0  0  0  0  0  0  0
  149.0587  135.4078  156.4316 O   0  0  0  0  0  0  0  0  0  0  0  0
  148.1672  135.8497  155.4130 C   0  0  1  0  0  0  0  0  0  0  0  0
  146.7278  135.7121  155.9449 C   0  0  0  0  0  0  0  0  0  0  0  0
  146.3642  134.3105  156.2790 N   0  3  0  0  0  0  0  0  0  0  0  0
  146.4770  133.3809  155.1309 C   0  0  0  0  0  0  0  0  0  0  0  0
  145.0320  134.2202  156.9171 C   0  0  0  0  0  0  0  0  0  0  0  0
  148.5082  137.3122  155.0617 C   0  0  0  0  0  0  0  0  0  0  0  0
  151.3553  141.6810  157.4563 C   0  0  0  0  0  0  0  0  0  0  0  0
  150.8526  142.9266  157.8720 C   0  0  0  0  0  0  0  0  0  0  0  0
  151.2858  143.4796  159.0951 C   0  0  0  0  0  0  0  0  0  0  0  0
  150.7349  144.8239  159.5363 C   0  0  0  0  0  0  0  0  0  0  0  0
  153.4470  142.7029  161.6835 H   0  0  0  0  0  0  0  0  0  0  0  0
  151.8749  143.4690  161.9053 H   0  0  0  0  0  0  0  0  0  0  0  0
  153.1708  144.3273  161.0584 H   0  0  0  0  0  0  0  0  0  0  0  0
  153.4412  140.9931  160.0697 H   0  0  0  0  0  0  0  0  0  0  0  0
  151.9567  138.9969  155.8066 H   0  0  0  0  0  0  0  0  0  0  0  0
  149.5942  141.9667  155.4688 H   0  0  0  0  0  0  0  0  0  0  0  0
  150.8609  141.4635  154.3744 H   0  0  0  0  0  0  0  0  0  0  0  0
  148.9211  139.5170  155.7051 H   0  0  0  0  0  0  0  0  0  0  0  0
  148.8301  140.2245  153.0056 H   0  0  0  0  0  0  0  0  0  0  0  0
  150.2464  138.8648  153.1124 H   0  0  0  0  0  0  0  0  0  0  0  0
  151.3657  138.9623  154.4482 H   0  0  0  0  0  0  0  0  0  0  0  0
  151.8550  136.8804  155.3009 H   0  0  0  0  0  0  0  0  0  0  0  0
  150.7898  137.4966  156.5533 H   0  0  0  0  0  0  0  0  0  0  0  0
  150.5569  134.7656  155.1556 H   0  0  0  0  0  0  0  0  0  0  0  0
  151.0434  135.0464  156.8161 H   0  0  0  0  0  0  0  0  0  0  0  0
  148.2975  135.2374  154.5202 H   0  0  0  0  0  0  0  0  0  0  0  0
  146.6333  136.3334  156.8370 H   0  0  0  0  0  0  0  0  0  0  0  0
  146.0123  136.1048  155.2209 H   0  0  0  0  0  0  0  0  0  0  0  0
  145.8031  133.6717  154.3239 H   0  0  0  0  0  0  0  0  0  0  0  0
  146.2203  132.3654  155.4346 H   0  0  0  0  0  0  0  0  0  0  0  0
  147.4912  133.3493  154.7352 H   0  0  0  0  0  0  0  0  0  0  0  0
  144.2496  134.5632  156.2389 H   0  0  0  0  0  0  0  0  0  0  0  0
  144.9929  134.8284  157.8212 H   0  0  0  0  0  0  0  0  0  0  0  0
  144.8088  133.1919  157.2043 H   0  0  0  0  0  0  0  0  0  0  0  0
  148.3402  137.9586  155.9250 H   0  0  0  0  0  0  0  0  0  0  0  0
  147.8401  137.6546  154.2725 H   0  0  0  0  0  0  0  0  0  0  0  0
  150.1372  143.4507  157.2559 H   0  0  0  0  0  0  0  0  0  0  0  0
  150.0008  145.2054  158.8262 H   0  0  0  0  0  0  0  0  0  0  0  0
  151.5376  145.5572  159.6147 H   0  0  0  0  0  0  0  0  0  0  0  0
  150.2468  144.7387  160.5074 H   0  0  0  0  0  0  0  0  0  0  0  0
  147.0253  133.9987  156.9764 H   0  0  0  0  0  0  0  0  0  0  0  0
  150.0316  136.8382  153.8100 H   0  0  0  0  0  0  0  0  0  0  0  0
  1  2  1  0  0  0  0
  1 26  1  0  0  0  0
  1 27  1  0  0  0  0
  1 28  1  0  0  0  0
  2 24  1  0  0  0  0
  2  3  2  0  0  0  0
  3  4  1  0  0  0  0
  3 29  1  0  0  0  0
  4 22  2  0  0  0  0
  4  5  1  0  0  0  0
  5  6  2  0  0  0  0
  6  7  1  0  0  0  0
  6 30  1  0  0  0  0
  7  8  1  0  0  0  0
  7 22  1  0  0  0  0
  8  9  1  0  0  0  0
  8 31  1  0  0  0  0
  8 32  1  0  0  0  0
  9 10  1  0  0  0  0
  9 11  1  0  0  0  0
  9 33  1  0  0  0  0
 10 34  1  0  0  0  0
 11 12  1  0  0  0  0
 11 35  1  0  0  0  0
 11 36  1  0  0  0  0
 12 21  1  0  0  0  0
 12 13  1  0  0  0  0
 12 57  1  0  0  0  0
 13 14  1  0  0  0  0
 13 37  1  0  0  0  0
 13 38  1  0  0  0  0
 14 15  1  0  0  0  0
 14 39  1  0  0  0  0
 14 40  1  0  0  0  0
 15 16  1  0  0  0  0
 16 17  1  0  0  0  0
 16 21  1  0  0  0  0
 16 41  1  0  0  0  0
 17 18  1  0  0  0  0
 17 42  1  0  0  0  0
 17 43  1  0  0  0  0
 18 19  1  0  0  0  0
 18 20  1  0  0  0  0
 18 56  1  0  0  0  0
 19 44  1  0  0  0  0
 19 45  1  0  0  0  0
 19 46  1  0  0  0  0
 20 47  1  0  0  0  0
 20 48  1  0  0  0  0
 20 49  1  0  0  0  0
 21 50  1  0  0  0  0
 21 51  1  0  0  0  0
 22 23  1  0  0  0  0
 23 24  2  0  0  0  0
 23 52  1  0  0  0  0
 24 25  1  0  0  0  0
 25 53  1  0  0  0  0
 25 54  1  0  0  0  0
 25 55  1  0  0  0  0
M  CHG  1  12   1
M  CHG  1  18   1
M  END
> <s_m_source_file>
AV-unprocessed.smi

> <i_m_source_file_index>
1005

> <i_lp_mmshare_version>
43012

> <i_f3d_flags>
0

> <s_epik_input>
W0NIM11jKFtjSF0xKWMoW0NIM10pW2NIXWMoYzEyKW4oW2NIXW4yKVtDSDJdW0NASF0oW09IXSlbQ0gyXU4zW0NIMl1bQ0gyXU9bQ0BIXShbQ0gyXTMpW0NIMl1OKFtDSDNdKVtDSDNd

> <s_epik_cmdline>
J2VwaWtfcHl0aG9uJywgJy1waCcsICc3LjAnLCAnLXRuJywgJzgnLCAnLW1hJywgJzIwMCcsICctbWV0YWxfYmluZGluZycsICctaW1hZScsICc8aW5maWxlLm1hZT4nLCAnLW9tYWUnLCAnPG91dGZpbGUubWFlPic=

> <r_epik_Ionization_Penalty>
1.0968

> <r_epik_Ionization_Penalty_Charging>
1.0096

> <r_epik_Ionization_Penalty_Neutral>
0.0871956

> <r_epik_State_Penalty>
1.31185

> <r_epik_Charging_Adjusted_Penalty>
2.32145

> <i_epik_Tot_Q>
2

> <i_epik_Tot_abs_Q>
2

> <r_epik_Metal_State_Penalty>
1.22442

> <b_epik_Metal_Only>
0

> <s_lp_Force_Field>
OPLS_2005

> <r_lp_Energy>
33.8035

> <b_lp_Chiralities_Consistent>
1

> <s_lp_Variant>
AV-unprocessed.smi:1005-6

> <Gold.Version>
5.8.1

> <Gold.Id.Protein>
6NUR|6NUR_protein|mol2

> <Gold.PLP.Fitness>
49.4935

> <Gold.PLP.PLP>
-40.0664

> <Gold.PLP.part.hbond>
-3.0000

> <Gold.PLP.part.metal>
0.0000

> <Gold.PLP.part.buried>
-2.6493

> <Gold.PLP.part.nonpolar>
-33.5192

> <Gold.PLP.part.repulsive>
0.0624

> <Gold.PLP.ligand.clash>
0.0061

> <Gold.PLP.ligand.torsion>
1.3429

> <Gold.PLP.Chemscore.Hbond>
4.0000

> <Gold.PLP.Chemscore.CHOScore>
0.0000

> <Gold.PLP.Chemscore.Metal>
0.0000

> <Gold.Chemscore.Hbonds>
donor molecule, donor type, donor heavy atom, donor atom, acceptor molecule, acceptor atom, score
      L1  H    10    34       P1  7957  1.00
      L1  H    12    57       P1  7948  0.70
      P1  H  7997  8008       L1     5  0.65

> <Gold.PLP.Chemscore.Internal.Correction>
0.1189

> <Gold.Rescore>
     Score         DG    S(hbond)    S(metal)    S(lipo)     H(rot)  DE(clash)    DE(int)     intcor
     16.21     -19.01       1.71        0.00     121.07       2.48       1.11       1.69       ----

> <Gold.Chemscore.Fitness>
16.2056

> <Gold.Chemscore.DG>
-19.0053

> <Gold.Chemscore.ZeroCoef>
-5.4800

> <Gold.Chemscore.Hbond>
1.7104

> <Gold.Chemscore.Metal>
0.0000

> <Gold.Chemscore.Lipo>
121.0670

> <Gold.Chemscore.Internal_Hbond>
0.0000

> <Gold.Chemscore.DEClash>
1.1137

> <Gold.Chemscore.DEInternal>
1.6860

> <Gold.Chemscore.Rot>
2.4814

> <Gold.Chemscore.Internal.Correction>
   9.000000E+99

> <Gold.Chemscore.Hbonds>
donor molecule, donor type, donor heavy atom, donor atom, acceptor molecule, acceptor atom, score
      L1  H    10    34       P1  7957  0.95
      L1  H    12    57       P1  7948  0.11
      P1  H  7997  8008       L1     5  0.03

> <Gold.Chemscore.Hbond.Weighted>
-5.7128

> <Gold.Chemscore.Metal.Weighted>
-0.0000

> <Gold.Chemscore.Lipo.Weighted>
-14.1648

> <Gold.Chemscore.Internal_Hbond.Weighted>
0.0000

> <Gold.Chemscore.DEClash.Weighted>
1.1137

> <Gold.Chemscore.DEInternal.Weighted>
1.6860

> <Gold.Chemscore.Rot.Weighted>
6.3524

> <Gold.Chemscore.Internal.Correction.Weighted>
   9.000000E+99

> <Gold.Protein.RotatedTorsions>
[ 6907 6896 6895 6894 ] final   -0.08 input  -60.11 | X-H torsion
[ 7974 7965 7964 7962 ] final   39.12 input  175.53 | X-H torsion
[ 8008 7997 7996 7995 ] final  -58.48 input   59.86 | X-H torsion
[ 10167 10162 10161 10158 ] final  -38.08 input  -65.29 | X-H torsion
[ 10718 10713 10712 10709 ] final  113.00 input   66.30 | X-H torsion
[ 10763 10752 10751 10750 ] final  -26.10 input  -60.55 | X-H torsion
[ 11005 11000 10999 10996 ] final -153.57 input  -57.11 | X-H torsion

> <Gold.Protein.ActiveResidues>
 VAL166  LYS551  ARG553  GLY616  TRP617  ASP618  TYR619  PRO620  LYS621  CYS622 
 ASP623  PHE694  ASN695  SER759  ASP760  ASP761  ALA762  ILE779  LEU786  VAL792 
 PHE793  MET794  SER795  GLU796  ALA797  LYS798  CYS799  TRP800  GLU811  SER814 

> <Gold.Protein.RotatedAtoms>
  151.5680  135.1063  159.9988 H   0  0  0  0  0  0  0  0  0  0  0  0  # atno 6907 bound_to 6896
  152.4414  133.7451  159.6673 H   0  0  0  0  0  0  0  0  0  0  0  0  # atno 6908 bound_to 6896
  150.8321  133.8005  159.3118 H   0  0  0  0  0  0  0  0  0  0  0  0  # atno 6909 bound_to 6896
  146.1009  139.5690  142.9415 H   0  0  0  0  0  0  0  0  0  0  0  0  # atno 7974 bound_to 7965
  154.4311  140.1083  156.5964 H   0  0  0  0  0  0  0  0  0  0  0  0  # atno 8008 bound_to 7997
  155.5958  140.3492  155.4560 H   0  0  0  0  0  0  0  0  0  0  0  0  # atno 8009 bound_to 7997
  156.0212  140.1240  157.0345 H   0  0  0  0  0  0  0  0  0  0  0  0  # atno 8010 bound_to 7997
  140.7101  143.3300  151.2591 H   0  0  0  0  0  0  0  0  0  0  0  0  # atno 10167 bound_to 10162
  157.6362  131.0976  150.6976 H   0  0  0  0  0  0  0  0  0  0  0  0  # atno 10718 bound_to 10713
  153.7105  135.6951  153.5039 H   0  0  0  0  0  0  0  0  0  0  0  0  # atno 10763 bound_to 10752
  153.2276  135.4348  155.0558 H   0  0  0  0  0  0  0  0  0  0  0  0  # atno 10764 bound_to 10752
  154.8316  135.3476  154.6642 H   0  0  0  0  0  0  0  0  0  0  0  0  # atno 10765 bound_to 10752
  140.7067  134.3878  157.5203 H   0  0  0  0  0  0  0  0  0  0  0  0  # atno 11005 bound_to 11000
  145.5856  141.0376  143.2098 LP  0  0  0  0  0  0  0  0  0  0  0  0  # atno 17320 bound_to 7965
  144.7432  139.7391  143.7302 LP  0  0  0  0  0  0  0  0  0  0  0  0  # atno 17321 bound_to 7965
  139.6779  143.9905  152.2792 LP  0  0  0  0  0  0  0  0  0  0  0  0  # atno 17342 bound_to 10162
  139.9525  144.6611  150.8158 LP  0  0  0  0  0  0  0  0  0  0  0  0  # atno 17343 bound_to 10162
  156.7307  130.4709  149.5500 LP  0  0  0  0  0  0  0  0  0  0  0  0  # atno 17370 bound_to 10713
  156.1604  130.6370  151.0711 LP  0  0  0  0  0  0  0  0  0  0  0  0  # atno 17371 bound_to 10713
  139.8882  134.8861  156.2485 LP  0  0  0  0  0  0  0  0  0  0  0  0  # atno 17394 bound_to 11000
  141.0119  133.7091  156.1125 LP  0  0  0  0  0  0  0  0  0  0  0  0  # atno 17395 bound_to 11000

$$$$
