AV-unprocessed.smi:1487|AV-procd|sdf|6021|dock5
  -GOLD-   22720 6123D 1   1.00000     0.00000
 Structure written by MMmdl.
 49 51  0  0  0  0  0  0  0  0  3 V2000
  153.3559  142.5085  160.6324 C   0  0  0  0  0  0  0  0  0  0  0  0
  152.4393  142.1634  159.4709 C   0  0  0  0  0  0  0  0  0  0  0  0
  152.7357  141.0207  158.6947 C   0  0  0  0  0  0  0  0  0  0  0  0
  151.8801  140.7315  157.6385 C   0  0  0  0  0  0  0  0  0  0  0  0
  151.9017  139.6943  156.7042 N   0  3  0  0  0  0  0  0  0  0  0  0
  150.8492  139.8287  155.8512 C   0  0  0  0  0  0  0  0  0  0  0  0
  150.1512  140.9343  156.2298 N   0  0  0  0  0  0  0  0  0  0  0  0
  148.9456  141.5272  155.6331 C   0  0  0  0  0  0  0  0  0  0  0  0
  148.4958  140.8187  154.3391 C   0  0  2  0  0  0  0  0  0  0  0  0
  149.3541  141.2598  153.3065 O   0  0  0  0  0  0  0  0  0  0  0  0
  147.0314  141.1210  153.9472 C   0  0  0  0  0  0  0  0  0  0  0  0
  146.2564  139.9063  153.5832 N   0  3  2  0  0  0  0  0  0  0  0  0
  145.9606  139.0594  154.7685 C   0  0  0  0  0  0  0  0  0  0  0  0
  145.0366  137.8866  154.4004 C   0  0  0  0  0  0  0  0  0  0  0  0
  145.6430  137.0440  153.2715 C   0  0  0  0  0  0  0  0  0  0  0  0
  145.9676  137.9421  152.0688 C   0  0  2  0  0  0  0  0  0  0  0  0
  146.6108  137.1751  151.0735 O   0  0  0  0  0  0  0  0  0  0  0  0
  146.8759  139.1134  152.4868 C   0  0  0  0  0  0  0  0  0  0  0  0
  150.7612  141.5337  157.3395 C   0  0  0  0  0  0  0  0  0  0  0  0
  150.4553  142.6639  158.0955 C   0  0  0  0  0  0  0  0  0  0  0  0
  151.3132  142.9743  159.1750 C   0  0  0  0  0  0  0  0  0  0  0  0
  151.0039  144.2007  160.0166 C   0  0  0  0  0  0  0  0  0  0  0  0
  154.1615  141.7808  160.7345 H   0  0  0  0  0  0  0  0  0  0  0  0
  152.7997  142.5223  161.5698 H   0  0  0  0  0  0  0  0  0  0  0  0
  153.8095  143.4887  160.4837 H   0  0  0  0  0  0  0  0  0  0  0  0
  153.5926  140.3997  158.9133 H   0  0  0  0  0  0  0  0  0  0  0  0
  150.6142  139.1781  155.0207 H   0  0  0  0  0  0  0  0  0  0  0  0
  148.1452  141.5439  156.3728 H   0  0  0  0  0  0  0  0  0  0  0  0
  149.1800  142.5714  155.4210 H   0  0  0  0  0  0  0  0  0  0  0  0
  148.6467  139.7476  154.4692 H   0  0  0  0  0  0  0  0  0  0  0  0
  149.4676  140.5625  152.6790 H   0  0  0  0  0  0  0  0  0  0  0  0
  146.5099  141.6356  154.7549 H   0  0  0  0  0  0  0  0  0  0  0  0
  147.0422  141.8119  153.1028 H   0  0  0  0  0  0  0  0  0  0  0  0
  146.8942  138.6852  155.1919 H   0  0  0  0  0  0  0  0  0  0  0  0
  145.4800  139.6598  155.5421 H   0  0  0  0  0  0  0  0  0  0  0  0
  144.8588  137.2622  155.2765 H   0  0  0  0  0  0  0  0  0  0  0  0
  144.0634  138.2698  154.0907 H   0  0  0  0  0  0  0  0  0  0  0  0
  146.5493  136.5526  153.6287 H   0  0  0  0  0  0  0  0  0  0  0  0
  144.9509  136.2526  152.9808 H   0  0  0  0  0  0  0  0  0  0  0  0
  145.0403  138.3321  151.6467 H   0  0  0  0  0  0  0  0  0  0  0  0
  147.0833  136.4694  151.4884 H   0  0  0  0  0  0  0  0  0  0  0  0
  147.0590  139.7445  151.6182 H   0  0  0  0  0  0  0  0  0  0  0  0
  147.8473  138.7402  152.8163 H   0  0  0  0  0  0  0  0  0  0  0  0
  149.6001  143.2851  157.8750 H   0  0  0  0  0  0  0  0  0  0  0  0
  150.1172  144.7217  159.6544 H   0  0  0  0  0  0  0  0  0  0  0  0
  151.8368  144.9037  159.9894 H   0  0  0  0  0  0  0  0  0  0  0  0
  150.8234  143.9173  161.0538 H   0  0  0  0  0  0  0  0  0  0  0  0
  145.3617  140.2304  153.2445 H   0  0  0  0  0  0  0  0  0  0  0  0
  152.5878  138.9522  156.6469 H   0  0  0  0  0  0  0  0  0  0  0  0
  1  2  1  0  0  0  0
  1 23  1  0  0  0  0
  1 24  1  0  0  0  0
  1 25  1  0  0  0  0
  2 21  1  0  0  0  0
  2  3  2  0  0  0  0
  3  4  1  0  0  0  0
  3 26  1  0  0  0  0
  4 19  2  0  0  0  0
  4  5  1  0  0  0  0
  5  6  2  0  0  0  0
  5 49  1  0  0  0  0
  6  7  1  0  0  0  0
  6 27  1  0  0  0  0
  7  8  1  0  0  0  0
  7 19  1  0  0  0  0
  8  9  1  0  0  0  0
  8 28  1  0  0  0  0
  8 29  1  0  0  0  0
  9 10  1  0  0  0  0
  9 11  1  0  0  0  0
  9 30  1  0  0  0  0
 10 31  1  0  0  0  0
 11 12  1  0  0  0  0
 11 32  1  0  0  0  0
 11 33  1  0  0  0  0
 12 18  1  0  0  0  0
 12 13  1  0  0  0  0
 12 48  1  0  0  0  0
 13 14  1  0  0  0  0
 13 34  1  0  0  0  0
 13 35  1  0  0  0  0
 14 15  1  0  0  0  0
 14 36  1  0  0  0  0
 14 37  1  0  0  0  0
 15 16  1  0  0  0  0
 15 38  1  0  0  0  0
 15 39  1  0  0  0  0
 16 17  1  0  0  0  0
 16 18  1  0  0  0  0
 16 40  1  0  0  0  0
 17 41  1  0  0  0  0
 18 42  1  0  0  0  0
 18 43  1  0  0  0  0
 19 20  1  0  0  0  0
 20 21  2  0  0  0  0
 20 44  1  0  0  0  0
 21 22  1  0  0  0  0
 22 45  1  0  0  0  0
 22 46  1  0  0  0  0
 22 47  1  0  0  0  0
M  CHG  1   5   1
M  CHG  1  12   1
M  END
> <s_m_source_file>
AV-unprocessed.smi

> <i_m_source_file_index>
1487

> <i_lp_mmshare_version>
43012

> <i_f3d_flags>
0

> <s_epik_input>
W0NIM11jKFtjSF0xKWMoW0NIM10pW2NIXWMoYzEyKW4oW2NIXW4yKVtDSDJdW0NASF0oW09IXSlbQ0gyXU4zW0NIMl1bQ0gyXVtDSDJdW0NAQEhdKFtPSF0pW0NIMl0z

> <s_epik_cmdline>
J2VwaWtfcHl0aG9uJywgJy1waCcsICc3LjAnLCAnLXRuJywgJzgnLCAnLW1hJywgJzIwMCcsICctbWV0YWxfYmluZGluZycsICctaW1hZScsICc8aW5maWxlLm1hZT4nLCAnLW9tYWUnLCAnPG91dGZpbGUubWFlPic=

> <r_epik_Ionization_Penalty>
1.1857

> <r_epik_Ionization_Penalty_Charging>
1.1857

> <r_epik_Ionization_Penalty_Neutral>
1.75578e-06

> <r_epik_State_Penalty>
1.26953

> <r_epik_Charging_Adjusted_Penalty>
2.45524

> <i_epik_Tot_Q>
2

> <i_epik_Tot_abs_Q>
2

> <r_epik_Metal_State_Penalty>
5.28243

> <b_epik_Metal_Only>
0

> <s_lp_Force_Field>
OPLS_2005

> <r_lp_Energy>
34.3912

> <b_lp_Chiralities_Consistent>
1

> <s_lp_Variant>
AV-unprocessed.smi:1487-15

> <Gold.Version>
5.8.1

> <Gold.Id.Protein>
6NUR|6NUR_protein|mol2

> <Gold.PLP.Fitness>
57.0264

> <Gold.PLP.PLP>
-42.0611

> <Gold.PLP.part.hbond>
-5.3788

> <Gold.PLP.part.metal>
0.0000

> <Gold.PLP.part.buried>
-2.5596

> <Gold.PLP.part.nonpolar>
-35.0902

> <Gold.PLP.part.repulsive>
0.1217

> <Gold.PLP.ligand.clash>
0.0000

> <Gold.PLP.ligand.torsion>
0.8812

> <Gold.PLP.Chemscore.Hbond>
5.5545

> <Gold.PLP.Chemscore.CHOScore>
0.0000

> <Gold.PLP.Chemscore.Metal>
0.0000

> <Gold.Chemscore.Hbonds>
donor molecule, donor type, donor heavy atom, donor atom, acceptor molecule, acceptor atom, score
      L1  H    10    31       P1  7957  1.00
      L1  H    12    48       P1 10175  2.00
      L1  H    17    41       P1  7948  0.62
      P1  H  7954  7966       L1    17  0.77
      P1  H  8011  8017       L1    10  0.75

> <Gold.PLP.Chemscore.Internal.Correction>
0.0641

> <Gold.Rescore>
     Score         DG    S(hbond)    S(metal)    S(lipo)     H(rot)  DE(clash)    DE(int)     intcor
     21.37     -22.44       3.11        0.00     116.03       2.74       0.16       0.91       ----

> <Gold.Chemscore.Fitness>
21.3693

> <Gold.Chemscore.DG>
-22.4357

> <Gold.Chemscore.ZeroCoef>
-5.4800

> <Gold.Chemscore.Hbond>
3.1110

> <Gold.Chemscore.Metal>
0.0000

> <Gold.Chemscore.Lipo>
116.0276

> <Gold.Chemscore.Internal_Hbond>
0.0000

> <Gold.Chemscore.DEClash>
0.1572

> <Gold.Chemscore.DEInternal>
0.9092

> <Gold.Chemscore.Rot>
2.7384

> <Gold.Chemscore.Internal.Correction>
   9.000000E+99

> <Gold.Chemscore.Hbonds>
donor molecule, donor type, donor heavy atom, donor atom, acceptor molecule, acceptor atom, score
      L1  H    10    31       P1  7957  0.93
      L1  H    12    48       P1 10175  1.00
      L1  H    17    41       P1  7948  0.62
      P1  H  7954  7966       L1    17  0.13
      P1  H  8011  8017       L1    10  0.09

> <Gold.Chemscore.Hbond.Weighted>
-10.3908

> <Gold.Chemscore.Metal.Weighted>
-0.0000

> <Gold.Chemscore.Lipo.Weighted>
-13.5752

> <Gold.Chemscore.Internal_Hbond.Weighted>
0.0000

> <Gold.Chemscore.DEClash.Weighted>
0.1572

> <Gold.Chemscore.DEInternal.Weighted>
0.9092

> <Gold.Chemscore.Rot.Weighted>
7.0103

> <Gold.Chemscore.Internal.Correction.Weighted>
   9.000000E+99

> <Gold.Protein.RotatedTorsions>
[ 6907 6896 6895 6894 ] final   30.35 input  -60.11 | X-H torsion
[ 7974 7965 7964 7962 ] final  135.23 input  175.53 | X-H torsion
[ 8008 7997 7996 7995 ] final -170.77 input   59.86 | X-H torsion
[ 10167 10162 10161 10158 ] final -159.12 input  -65.29 | X-H torsion
[ 10718 10713 10712 10709 ] final  -77.14 input   66.30 | X-H torsion
[ 10763 10752 10751 10750 ] final -139.85 input  -60.55 | X-H torsion
[ 11005 11000 10999 10996 ] final   39.45 input  -57.11 | X-H torsion

> <Gold.Protein.ActiveResidues>
 VAL166  LYS551  ARG553  GLY616  TRP617  ASP618  TYR619  PRO620  LYS621  CYS622 
 ASP623  PHE694  ASN695  SER759  ASP760  ASP761  ALA762  ILE779  LEU786  VAL792 
 PHE793  MET794  SER795  GLU796  ALA797  LYS798  CYS799  TRP800  GLU811  SER814 

> <Gold.Protein.RotatedAtoms>
  152.0446  134.9690  160.0574 H   0  0  0  0  0  0  0  0  0  0  0  0  # atno 6907 bound_to 6896
  152.1115  133.4299  159.4641 H   0  0  0  0  0  0  0  0  0  0  0  0  # atno 6908 bound_to 6896
  150.6844  134.2561  159.4573 H   0  0  0  0  0  0  0  0  0  0  0  0  # atno 6909 bound_to 6896
  144.9684  139.4632  143.5445 H   0  0  0  0  0  0  0  0  0  0  0  0  # atno 7974 bound_to 7965
  155.9228  140.1077  157.1193 H   0  0  0  0  0  0  0  0  0  0  0  0  # atno 8008 bound_to 7997
  154.4057  140.1252  156.4767 H   0  0  0  0  0  0  0  0  0  0  0  0  # atno 8009 bound_to 7997
  155.7175  140.3470  155.5003 H   0  0  0  0  0  0  0  0  0  0  0  0  # atno 8010 bound_to 7997
  139.6639  143.9863  152.2243 H   0  0  0  0  0  0  0  0  0  0  0  0  # atno 10167 bound_to 10162
  156.0153  130.4484  150.3300 H   0  0  0  0  0  0  0  0  0  0  0  0  # atno 10718 bound_to 10713
  154.8597  135.3570  154.5613 H   0  0  0  0  0  0  0  0  0  0  0  0  # atno 10763 bound_to 10752
  153.6228  135.7005  153.5309 H   0  0  0  0  0  0  0  0  0  0  0  0  # atno 10764 bound_to 10752
  153.3115  135.4177  155.1299 H   0  0  0  0  0  0  0  0  0  0  0  0  # atno 10765 bound_to 10752
  140.2027  134.3851  155.8088 H   0  0  0  0  0  0  0  0  0  0  0  0  # atno 11005 bound_to 11000
  146.3375  139.8881  142.8813 LP  0  0  0  0  0  0  0  0  0  0  0  0  # atno 17320 bound_to 7965
  145.2595  141.0072  143.3835 LP  0  0  0  0  0  0  0  0  0  0  0  0  # atno 17321 bound_to 7965
  139.9610  144.6558  150.8080 LP  0  0  0  0  0  0  0  0  0  0  0  0  # atno 17342 bound_to 10162
  140.7591  143.3122  151.2817 LP  0  0  0  0  0  0  0  0  0  0  0  0  # atno 17343 bound_to 10162
  157.1399  131.0293  151.2932 LP  0  0  0  0  0  0  0  0  0  0  0  0  # atno 17370 bound_to 10713
  157.4481  130.7582  149.7127 LP  0  0  0  0  0  0  0  0  0  0  0  0  # atno 17371 bound_to 10713
  141.2227  133.7102  156.8284 LP  0  0  0  0  0  0  0  0  0  0  0  0  # atno 17394 bound_to 11000
  140.2037  134.8878  157.3197 LP  0  0  0  0  0  0  0  0  0  0  0  0  # atno 17395 bound_to 11000

$$$$
