AV-unprocessed.smi:1965|AV-procd|sdf|7935|dock3
  -GOLD-   2272010103D 1   1.00000     0.00000
 Structure written by MMmdl.
 37 39  0  0  0  0  0  0  0  0  2 V2000
  150.6921  139.6730  158.4846 O   0  0  0  0  0  0  0  0  0  0  0  0
  151.6922  140.2147  158.0174 C   0  0  0  0  0  0  0  0  0  0  0  0
  152.0992  139.9609  156.7558 N   0  0  0  0  0  0  0  0  0  0  0  0
  151.5597  139.1092  155.7484 C   0  0  0  0  0  0  0  0  0  0  0  0
  150.9324  139.5272  154.6409 N   0  0  0  0  0  0  0  0  0  0  0  0
  150.4906  138.4626  153.8512 C   0  0  0  0  0  0  0  0  0  0  0  0
  150.7831  137.2302  154.3792 C   0  0  0  0  0  0  0  0  0  0  0  0
  151.6288  137.3588  155.8982 S   0  0  0  0  0  0  0  0  0  0  0  0
  152.4400  141.0856  158.7158 N   0  0  0  0  0  0  0  0  0  0  0  0
  152.1734  141.5428  160.0775 C   0  0  1  0  0  0  0  0  0  0  0  0
  153.4285  141.5193  160.9715 C   0  0  0  0  0  0  0  0  0  0  0  0
  153.3591  142.8225  161.7740 C   0  0  0  0  0  0  0  0  0  0  0  0
  152.7177  143.7510  160.8363 N   0  3  2  0  0  0  0  0  0  0  0  0
  152.2567  145.0598  161.3424 C   0  0  0  0  0  0  0  0  0  0  0  0
  151.7943  145.9123  160.1410 C   0  0  0  0  0  0  0  0  0  0  0  0
  150.7646  145.1701  159.2590 C   0  0  0  0  0  0  0  0  0  0  0  0
  151.2536  143.7577  158.8716 C   0  0  0  0  0  0  0  0  0  0  0  0
  151.6544  142.9981  160.1493 C   0  0  1  0  0  0  0  0  0  0  0  0
  152.9716  140.4014  156.5015 H   0  0  0  0  0  0  0  0  0  0  0  0
  149.9729  138.6732  152.9269 H   0  0  0  0  0  0  0  0  0  0  0  0
  150.5510  136.2580  153.9697 H   0  0  0  0  0  0  0  0  0  0  0  0
  153.2479  141.4783  158.2530 H   0  0  0  0  0  0  0  0  0  0  0  0
  151.4266  140.8897  160.5336 H   0  0  0  0  0  0  0  0  0  0  0  0
  153.4724  140.6378  161.6119 H   0  0  0  0  0  0  0  0  0  0  0  0
  154.3310  141.5242  160.3579 H   0  0  0  0  0  0  0  0  0  0  0  0
  152.7309  142.6972  162.6574 H   0  0  0  0  0  0  0  0  0  0  0  0
  154.3408  143.1751  162.0920 H   0  0  0  0  0  0  0  0  0  0  0  0
  151.4446  144.9217  162.0576 H   0  0  0  0  0  0  0  0  0  0  0  0
  153.0708  145.5599  161.8680 H   0  0  0  0  0  0  0  0  0  0  0  0
  151.3756  146.8562  160.4916 H   0  0  0  0  0  0  0  0  0  0  0  0
  152.6619  146.1702  159.5319 H   0  0  0  0  0  0  0  0  0  0  0  0
  149.8220  145.0874  159.8018 H   0  0  0  0  0  0  0  0  0  0  0  0
  150.5510  145.7517  158.3617 H   0  0  0  0  0  0  0  0  0  0  0  0
  150.4627  143.2262  158.3416 H   0  0  0  0  0  0  0  0  0  0  0  0
  152.1021  143.8303  158.1897 H   0  0  0  0  0  0  0  0  0  0  0  0
  150.7866  142.9793  160.8125 H   0  0  0  0  0  0  0  0  0  0  0  0
  153.4166  143.9465  160.1339 H   0  0  0  0  0  0  0  0  0  0  0  0
  1  2  2  0  0  0  0
  2  3  1  0  0  0  0
  2  9  1  0  0  0  0
  3  4  1  0  0  0  0
  3 19  1  0  0  0  0
  4  8  1  0  0  0  0
  4  5  2  0  0  0  0
  5  6  1  0  0  0  0
  6  7  2  0  0  0  0
  6 20  1  0  0  0  0
  7  8  1  0  0  0  0
  7 21  1  0  0  0  0
  9 10  1  0  0  0  0
  9 22  1  0  0  0  0
 10 18  1  0  0  0  0
 10 11  1  0  0  0  0
 10 23  1  0  0  0  0
 11 12  1  0  0  0  0
 11 24  1  0  0  0  0
 11 25  1  0  0  0  0
 12 13  1  0  0  0  0
 12 26  1  0  0  0  0
 12 27  1  0  0  0  0
 13 18  1  0  0  0  0
 13 14  1  0  0  0  0
 13 37  1  0  0  0  0
 14 15  1  0  0  0  0
 14 28  1  0  0  0  0
 14 29  1  0  0  0  0
 15 16  1  0  0  0  0
 15 30  1  0  0  0  0
 15 31  1  0  0  0  0
 16 17  1  0  0  0  0
 16 32  1  0  0  0  0
 16 33  1  0  0  0  0
 17 18  1  0  0  0  0
 17 34  1  0  0  0  0
 17 35  1  0  0  0  0
 18 36  1  0  0  0  0
M  CHG  1  13   1
M  END
> <s_m_source_file>
AV-unprocessed.smi

> <i_m_source_file_index>
1965

> <i_lp_mmshare_version>
43012

> <i_f3d_flags>
0

> <s_epik_input>
czFbY0hdW2NIXW5jMVtOSF1DKD1PKVtOSF1bQ0BIXShbQ0gyXVtDSDJdMilbQ0BASF0oTjIzKVtDSDJdW0NIMl1bQ0gyXVtDSDJdMw==

> <s_epik_cmdline>
J2VwaWtfcHl0aG9uJywgJy1waCcsICc3LjAnLCAnLXRuJywgJzgnLCAnLW1hJywgJzIwMCcsICctbWV0YWxfYmluZGluZycsICctaW1hZScsICc8aW5maWxlLm1hZT4nLCAnLW9tYWUnLCAnPG91dGZpbGUubWFlPic=

> <r_lp_tautomer_probability>
1

> <r_epik_Ionization_Penalty>
0.00125962

> <r_epik_Ionization_Penalty_Charging>
0.00107044

> <r_epik_Ionization_Penalty_Neutral>
0.000189176

> <r_epik_State_Penalty>
-0

> <r_epik_Charging_Adjusted_Penalty>
0.00107044

> <i_epik_Tot_Q>
1

> <i_epik_Tot_abs_Q>
1

> <r_epik_Metal_State_Penalty>
0.0179285

> <b_epik_Metal_Only>
0

> <s_lp_Force_Field>
OPLS_2005

> <r_lp_Energy>
42.2865

> <b_lp_Chiralities_Consistent>
1

> <s_lp_Variant>
AV-unprocessed.smi:1965-4

> <Gold.Version>
5.8.1

> <Gold.Id.Protein>
6NUR|6NUR_protein|mol2

> <Gold.PLP.Fitness>
37.3985

> <Gold.PLP.PLP>
-30.7077

> <Gold.PLP.part.hbond>
-1.0000

> <Gold.PLP.part.metal>
0.0000

> <Gold.PLP.part.buried>
-1.1284

> <Gold.PLP.part.nonpolar>
-28.9455

> <Gold.PLP.part.repulsive>
0.4235

> <Gold.PLP.ligand.clash>
0.0000

> <Gold.PLP.ligand.torsion>
0.8279

> <Gold.PLP.Chemscore.Hbond>
1.0000

> <Gold.PLP.Chemscore.CHOScore>
1.7820

> <Gold.PLP.Chemscore.Metal>
0.0000

> <Gold.Chemscore.Hbonds>
donor molecule, donor type, donor heavy atom, donor atom, acceptor molecule, acceptor atom, score
      P1  H  7989  7998       L1     5  1.00
      L1  C     6    20       P1  7948  0.19
      L1  C     6    20       P1  7957  1.00
      L1  C     7    21       P1  7948  0.26
      L1  C     7    21       P1  7949  0.32

> <Gold.PLP.Chemscore.Internal.Correction>
0.0007

> <Gold.Rescore>
     Score         DG    S(hbond)    S(metal)    S(lipo)     H(rot)  DE(clash)    DE(int)     intcor
     16.31     -18.31       0.91        0.00     105.45       1.00       1.16       0.83       ----

> <Gold.Chemscore.Fitness>
16.3145

> <Gold.Chemscore.DG>
-18.3115

> <Gold.Chemscore.ZeroCoef>
-5.4800

> <Gold.Chemscore.Hbond>
0.9142

> <Gold.Chemscore.Metal>
0.0000

> <Gold.Chemscore.Lipo>
105.4529

> <Gold.Chemscore.Internal_Hbond>
0.0000

> <Gold.Chemscore.DEClash>
1.1642

> <Gold.Chemscore.DEInternal>
0.8327

> <Gold.Chemscore.Rot>
1.0000

> <Gold.Chemscore.Internal.Correction>
   9.000000E+99

> <Gold.Chemscore.Hbonds>
donor molecule, donor type, donor heavy atom, donor atom, acceptor molecule, acceptor atom, score
      P1  H  7989  7998       L1     5  0.65

> <Gold.Chemscore.Hbond.Weighted>
-3.0535

> <Gold.Chemscore.Metal.Weighted>
-0.0000

> <Gold.Chemscore.Lipo.Weighted>
-12.3380

> <Gold.Chemscore.Internal_Hbond.Weighted>
0.0000

> <Gold.Chemscore.DEClash.Weighted>
1.1642

> <Gold.Chemscore.DEInternal.Weighted>
0.8327

> <Gold.Chemscore.Rot.Weighted>
2.5600

> <Gold.Chemscore.Internal.Correction.Weighted>
   9.000000E+99

> <Gold.Protein.RotatedTorsions>
[ 6907 6896 6895 6894 ] final  -23.86 input  -60.11 | X-H torsion
[ 7974 7965 7964 7962 ] final   20.56 input  175.53 | X-H torsion
[ 8008 7997 7996 7995 ] final   -5.14 input   59.86 | X-H torsion
[ 10167 10162 10161 10158 ] final -173.63 input  -65.29 | X-H torsion
[ 10718 10713 10712 10709 ] final   54.49 input   66.30 | X-H torsion
[ 10763 10752 10751 10750 ] final  116.35 input  -60.55 | X-H torsion
[ 11005 11000 10999 10996 ] final  146.19 input  -57.11 | X-H torsion

> <Gold.Protein.ActiveResidues>
 VAL166  LYS551  ARG553  GLY616  TRP617  ASP618  TYR619  PRO620  LYS621  CYS622 
 ASP623  PHE694  ASN695  SER759  ASP760  ASP761  ALA762  ILE779  LEU786  VAL792 
 PHE793  MET794  SER795  GLU796  ALA797  LYS798  CYS799  TRP800  GLU811  SER814 

> <Gold.Protein.RotatedAtoms>
  151.1979  135.0430  159.8859 H   0  0  0  0  0  0  0  0  0  0  0  0  # atno 6907 bound_to 6896
  152.5435  134.0883  159.8275 H   0  0  0  0  0  0  0  0  0  0  0  0  # atno 6908 bound_to 6896
  151.1019  133.5189  159.2641 H   0  0  0  0  0  0  0  0  0  0  0  0  # atno 6909 bound_to 6896
  146.2106  139.8152  142.8691 H   0  0  0  0  0  0  0  0  0  0  0  0  # atno 7974 bound_to 7965
  154.6069  140.2466  155.7718 H   0  0  0  0  0  0  0  0  0  0  0  0  # atno 8008 bound_to 7997
  156.2347  140.2954  156.0231 H   0  0  0  0  0  0  0  0  0  0  0  0  # atno 8009 bound_to 7997
  155.2116  140.0397  157.2924 H   0  0  0  0  0  0  0  0  0  0  0  0  # atno 8010 bound_to 7997
  139.5678  144.1715  152.1338 H   0  0  0  0  0  0  0  0  0  0  0  0  # atno 10167 bound_to 10162
  157.5261  130.8598  149.8624 H   0  0  0  0  0  0  0  0  0  0  0  0  # atno 10718 bound_to 10713
  153.5359  135.3568  155.2697 H   0  0  0  0  0  0  0  0  0  0  0  0  # atno 10763 bound_to 10752
  154.8722  135.4079  154.3098 H   0  0  0  0  0  0  0  0  0  0  0  0  # atno 10764 bound_to 10752
  153.3796  135.7067  153.6643 H   0  0  0  0  0  0  0  0  0  0  0  0  # atno 10765 bound_to 10752
  140.0773  134.9117  157.1444 H   0  0  0  0  0  0  0  0  0  0  0  0  # atno 11005 bound_to 11000
  145.3154  141.0230  143.3531 LP  0  0  0  0  0  0  0  0  0  0  0  0  # atno 17320 bound_to 7965
  144.8905  139.4780  143.6680 LP  0  0  0  0  0  0  0  0  0  0  0  0  # atno 17321 bound_to 7965
  140.1241  144.5347  150.6844 LP  0  0  0  0  0  0  0  0  0  0  0  0  # atno 17342 bound_to 10162
  140.6961  143.2405  151.4995 LP  0  0  0  0  0  0  0  0  0  0  0  0  # atno 17343 bound_to 10162
  156.0388  130.3744  150.1490 LP  0  0  0  0  0  0  0  0  0  0  0  0  # atno 17370 bound_to 10713
  156.9676  130.9824  151.3466 LP  0  0  0  0  0  0  0  0  0  0  0  0  # atno 17371 bound_to 10713
  140.3539  134.2569  155.7195 LP  0  0  0  0  0  0  0  0  0  0  0  0  # atno 17394 bound_to 11000
  141.2034  133.7913  157.0341 LP  0  0  0  0  0  0  0  0  0  0  0  0  # atno 17395 bound_to 11000

$$$$
