AV-unprocessed.smi:912|AV-procd|sdf|4143|dock7
  -GOLD-   22720 2 53D 1   1.00000     0.00000
 Structure written by MMmdl.
 27 27  0  0  0  0  0  0  0  0  2 V2000
  142.9169  136.9595  152.8166 C   0  0  0  0  0  0  0  0  0  0  0  0
  144.0950  137.5565  152.1446 N   0  3  0  0  0  0  0  0  0  0  0  0
  145.4142  136.8773  152.3008 C   0  0  2  0  0  0  0  0  0  0  0  0
  145.7156  136.6434  153.8046 C   0  0  0  0  0  0  0  0  0  0  0  0
  146.4912  137.7721  151.6354 C   0  0  0  0  0  0  0  0  0  0  0  0
  147.4240  138.3198  152.4235 N   0  0  0  0  0  0  0  0  0  0  0  0
  146.4960  137.9591  150.4201 O   0  0  0  0  0  0  0  0  0  0  0  0
  145.4006  135.5117  151.5810 C   0  0  0  0  0  0  0  0  0  0  0  0
  146.5018  134.6182  151.6130 C   0  0  0  0  0  0  0  0  0  0  0  0
  146.4087  133.3917  150.9245 C   0  0  0  0  0  0  0  0  0  0  0  0
  145.3201  133.0120  150.2257 N   0  0  0  0  0  0  0  0  0  0  0  0
  144.2710  133.8578  150.1900 C   0  0  0  0  0  0  0  0  0  0  0  0
  144.2616  135.1055  150.8436 C   0  0  0  0  0  0  0  0  0  0  0  0
  142.0593  137.6204  152.6916 H   0  0  0  0  0  0  0  0  0  0  0  0
  143.0778  136.8265  153.8865 H   0  0  0  0  0  0  0  0  0  0  0  0
  142.6504  135.9977  152.3788 H   0  0  0  0  0  0  0  0  0  0  0  0
  143.8902  137.5986  151.1565 H   0  0  0  0  0  0  0  0  0  0  0  0
  146.6609  136.1214  153.9556 H   0  0  0  0  0  0  0  0  0  0  0  0
  144.9365  136.0391  154.2705 H   0  0  0  0  0  0  0  0  0  0  0  0
  145.7889  137.5739  154.3680 H   0  0  0  0  0  0  0  0  0  0  0  0
  148.1600  138.8869  152.0280 H   0  0  0  0  0  0  0  0  0  0  0  0
  147.4039  138.1395  153.4176 H   0  0  0  0  0  0  0  0  0  0  0  0
  147.4139  134.8389  152.1459 H   0  0  0  0  0  0  0  0  0  0  0  0
  147.2345  132.6958  150.9368 H   0  0  0  0  0  0  0  0  0  0  0  0
  143.4108  133.5312  149.6244 H   0  0  0  0  0  0  0  0  0  0  0  0
  143.3856  135.7342  150.7780 H   0  0  0  0  0  0  0  0  0  0  0  0
  144.2012  138.5016  152.4838 H   0  0  0  0  0  0  0  0  0  0  0  0
  1  2  1  0  0  0  0
  1 14  1  0  0  0  0
  1 15  1  0  0  0  0
  1 16  1  0  0  0  0
  2  3  1  0  0  0  0
  2 17  1  0  0  0  0
  2 27  1  0  0  0  0
  3  4  1  0  0  0  0
  3  5  1  0  0  0  0
  3  8  1  0  0  0  0
  4 18  1  0  0  0  0
  4 19  1  0  0  0  0
  4 20  1  0  0  0  0
  5  6  1  0  0  0  0
  5  7  2  0  0  0  0
  6 21  1  0  0  0  0
  6 22  1  0  0  0  0
  8 13  1  0  0  0  0
  8  9  2  0  0  0  0
  9 10  1  0  0  0  0
  9 23  1  0  0  0  0
 10 11  2  0  0  0  0
 10 24  1  0  0  0  0
 11 12  1  0  0  0  0
 12 13  2  0  0  0  0
 12 25  1  0  0  0  0
 13 26  1  0  0  0  0
M  CHG  1   2   1
M  END
> <s_m_source_file>
AV-unprocessed.smi

> <i_m_source_file_index>
912

> <i_lp_mmshare_version>
43012

> <i_f3d_flags>
0

> <s_epik_input>
W0NIM11bTkhdW0NAQF0oW0NIM10pKEMoPU8pW05IMl0pYzFbY0hdW2NIXW5bY0hdW2NIXTE=

> <s_epik_cmdline>
J2VwaWtfcHl0aG9uJywgJy1waCcsICc3LjAnLCAnLXRuJywgJzgnLCAnLW1hJywgJzIwMCcsICctbWV0YWxfYmluZGluZycsICctaW1hZScsICc8aW5maWxlLm1hZT4nLCAnLW9tYWUnLCAnPG91dGZpbGUubWFlPic=

> <r_epik_Ionization_Penalty>
0.8426

> <r_epik_Ionization_Penalty_Charging>
0.842363

> <r_epik_Ionization_Penalty_Neutral>
0.000236815

> <r_epik_State_Penalty>
0.498415

> <r_epik_Charging_Adjusted_Penalty>
1.34078

> <i_epik_Tot_Q>
1

> <i_epik_Tot_abs_Q>
1

> <r_epik_Metal_State_Penalty>
0.661775

> <b_epik_Metal_Only>
0

> <s_lp_Force_Field>
OPLS_2005

> <r_lp_Energy>
11.5286

> <b_lp_Chiralities_Consistent>
1

> <s_lp_Variant>
AV-unprocessed.smi:912-4

> <Gold.Version>
5.8.1

> <Gold.Id.Protein>
6NUR|6NUR_protein|mol2

> <Gold.PLP.Fitness>
39.2984

> <Gold.PLP.PLP>
-20.0969

> <Gold.PLP.part.hbond>
-5.0000

> <Gold.PLP.part.metal>
0.0000

> <Gold.PLP.part.buried>
-1.5636

> <Gold.PLP.part.nonpolar>
-18.1770

> <Gold.PLP.part.repulsive>
3.0104

> <Gold.PLP.ligand.clash>
0.0000

> <Gold.PLP.ligand.torsion>
0.2136

> <Gold.PLP.Chemscore.Hbond>
4.7600

> <Gold.PLP.Chemscore.CHOScore>
1.7800

> <Gold.PLP.Chemscore.Metal>
0.0000

> <Gold.Chemscore.Hbonds>
donor molecule, donor type, donor heavy atom, donor atom, acceptor molecule, acceptor atom, score
      L1  H     2    17       P1 10171  0.90
      L1  H     2    27       P1 10175  1.98
      L1  H     6    21       P1  7957  1.00
      P1  H  7954  7966       L1     7  0.88
      L1  C    10    24       P1 10747  0.79
      L1  C    12    25       P1 10186  0.92

> <Gold.PLP.Chemscore.Internal.Correction>
0.0087

> <Gold.Rescore>
     Score         DG    S(hbond)    S(metal)    S(lipo)     H(rot)  DE(clash)    DE(int)     intcor
     14.31     -17.34       3.56        0.00      39.72       1.83       2.62       0.42       ----

> <Gold.Chemscore.Fitness>
14.3068

> <Gold.Chemscore.DG>
-17.3422

> <Gold.Chemscore.ZeroCoef>
-5.4800

> <Gold.Chemscore.Hbond>
3.5605

> <Gold.Chemscore.Metal>
0.0000

> <Gold.Chemscore.Lipo>
39.7190

> <Gold.Chemscore.Internal_Hbond>
0.0000

> <Gold.Chemscore.DEClash>
2.6166

> <Gold.Chemscore.DEInternal>
0.4188

> <Gold.Chemscore.Rot>
1.8270

> <Gold.Chemscore.Internal.Correction>
   9.000000E+99

> <Gold.Chemscore.Hbonds>
donor molecule, donor type, donor heavy atom, donor atom, acceptor molecule, acceptor atom, score
      L1  H     2    17       P1 10171  0.88
      L1  H     2    27       P1 10175  0.90
      L1  H     6    21       P1  7957  0.91
      P1  H  7954  7966       L1     7  0.56

> <Gold.Chemscore.Hbond.Weighted>
-11.8922

> <Gold.Chemscore.Metal.Weighted>
-0.0000

> <Gold.Chemscore.Lipo.Weighted>
-4.6471

> <Gold.Chemscore.Internal_Hbond.Weighted>
0.0000

> <Gold.Chemscore.DEClash.Weighted>
2.6166

> <Gold.Chemscore.DEInternal.Weighted>
0.4188

> <Gold.Chemscore.Rot.Weighted>
4.6771

> <Gold.Chemscore.Internal.Correction.Weighted>
   9.000000E+99

> <Gold.Protein.RotatedTorsions>
[ 6907 6896 6895 6894 ] final  155.76 input  -60.11 | X-H torsion
[ 7974 7965 7964 7962 ] final  130.92 input  175.53 | X-H torsion
[ 8008 7997 7996 7995 ] final  -34.02 input   59.86 | X-H torsion
[ 10167 10162 10161 10158 ] final  173.13 input  -65.29 | X-H torsion
[ 10718 10713 10712 10709 ] final -160.79 input   66.30 | X-H torsion
[ 10763 10752 10751 10750 ] final  -73.10 input  -60.55 | X-H torsion
[ 11005 11000 10999 10996 ] final   86.54 input  -57.11 | X-H torsion

> <Gold.Protein.ActiveResidues>
 VAL166  LYS551  ARG553  GLY616  TRP617  ASP618  TYR619  PRO620  LYS621  CYS622 
 ASP623  PHE694  ASN695  SER759  ASP760  ASP761  ALA762  ILE779  LEU786  VAL792 
 PHE793  MET794  SER795  GLU796  ALA797  LYS798  CYS799  TRP800  GLU811  SER814 

> <Gold.Protein.RotatedAtoms>
  152.0394  133.3971  159.4330 H   0  0  0  0  0  0  0  0  0  0  0  0  # atno 6907 bound_to 6896
  150.6876  134.3431  159.4886 H   0  0  0  0  0  0  0  0  0  0  0  0  # atno 6908 bound_to 6896
  152.1228  134.9192  160.0613 H   0  0  0  0  0  0  0  0  0  0  0  0  # atno 6909 bound_to 6896
  145.0128  139.4204  143.5236 H   0  0  0  0  0  0  0  0  0  0  0  0  # atno 7974 bound_to 7965
  154.4132  140.1695  156.1983 H   0  0  0  0  0  0  0  0  0  0  0  0  # atno 8008 bound_to 7997
  155.9546  140.3398  155.6414 H   0  0  0  0  0  0  0  0  0  0  0  0  # atno 8009 bound_to 7997
  155.6827  140.0724  157.2469 H   0  0  0  0  0  0  0  0  0  0  0  0  # atno 8010 bound_to 7997
  139.5098  144.3296  152.0124 H   0  0  0  0  0  0  0  0  0  0  0  0  # atno 10167 bound_to 10162
  156.5871  130.8754  151.2880 H   0  0  0  0  0  0  0  0  0  0  0  0  # atno 10718 bound_to 10713
  154.4549  135.5908  153.6216 H   0  0  0  0  0  0  0  0  0  0  0  0  # atno 10763 bound_to 10752
  152.9817  135.6030  154.3559 H   0  0  0  0  0  0  0  0  0  0  0  0  # atno 10764 bound_to 10752
  154.3424  135.2841  155.2394 H   0  0  0  0  0  0  0  0  0  0  0  0  # atno 10765 bound_to 10752
  139.8942  134.8362  156.2734 H   0  0  0  0  0  0  0  0  0  0  0  0  # atno 11005 bound_to 11000
  146.3473  139.9582  142.8720 LP  0  0  0  0  0  0  0  0  0  0  0  0  # atno 17320 bound_to 7965
  145.2000  140.9850  143.4161 LP  0  0  0  0  0  0  0  0  0  0  0  0  # atno 17321 bound_to 7965
  140.2736  144.3937  150.6143 LP  0  0  0  0  0  0  0  0  0  0  0  0  # atno 17342 bound_to 10162
  140.6070  143.2168  151.6961 LP  0  0  0  0  0  0  0  0  0  0  0  0  # atno 17343 bound_to 10162
  157.7313  130.9697  150.1871 LP  0  0  0  0  0  0  0  0  0  0  0  0  # atno 17370 bound_to 10713
  156.2581  130.3708  149.8159 LP  0  0  0  0  0  0  0  0  0  0  0  0  # atno 17371 bound_to 10713
  141.0086  133.7109  156.1074 LP  0  0  0  0  0  0  0  0  0  0  0  0  # atno 17394 bound_to 11000
  140.7399  134.4161  157.5556 LP  0  0  0  0  0  0  0  0  0  0  0  0  # atno 17395 bound_to 11000

$$$$
