AV-unprocessed.smi:414|AV-procd|sdf|2516|dock3
  -GOLD-   2262022463D 1   1.00000     0.00000
 Structure written by MMmdl.
 37 38  0  0  0  0  0  0  0  0  2 V2000
  152.1679  144.8252  161.2738 C   0  0  0  0  0  0  0  0  0  0  0  0
  151.5430  144.0597  160.0990 C   0  0  2  0  0  0  0  0  0  0  0  0
  151.9327  142.5694  160.1264 C   0  0  0  0  0  0  0  0  0  0  0  0
  151.3091  141.8008  158.9503 C   0  0  0  0  0  0  0  0  0  0  0  0
  151.6974  142.4291  157.5997 C   0  0  1  0  0  0  0  0  0  0  0  0
  151.0414  141.7035  156.5166 N   0  0  0  0  0  0  0  0  0  0  0  0
  151.2130  140.4026  156.2364 C   0  0  0  0  0  0  0  0  0  0  0  0
  151.9817  139.6716  156.8621 O   0  0  0  0  0  0  0  0  0  0  0  0
  150.4156  139.8569  155.0445 C   0  0  0  0  0  0  0  0  0  0  0  0
  150.0833  138.4308  155.1893 N   0  0  0  0  0  0  0  0  0  0  0  0
  148.7319  138.0874  155.3713 C   0  0  0  0  0  0  0  0  0  0  0  0
  148.3367  136.8075  155.5097 C   0  0  0  0  0  0  0  0  0  0  0  0
  149.3526  135.7630  155.4672 C   0  0  0  0  0  0  0  0  0  0  0  0
  149.0108  134.5890  155.5963 O   0  0  0  0  0  0  0  0  0  0  0  0
  150.6499  136.1465  155.2838 N   0  5  0  0  0  0  0  0  0  0  0  0
  151.0369  137.4521  155.1413 C   0  0  0  0  0  0  0  0  0  0  0  0
  152.2132  137.7763  154.9731 O   0  0  0  0  0  0  0  0  0  0  0  0
  151.3144  143.9222  157.5649 C   0  0  0  0  0  0  0  0  0  0  0  0
  151.9297  144.6892  158.7469 C   0  0  0  0  0  0  0  0  0  0  0  0
  153.2571  144.7966  161.2310 H   0  0  0  0  0  0  0  0  0  0  0  0
  151.8607  144.3982  162.2288 H   0  0  0  0  0  0  0  0  0  0  0  0
  151.8617  145.8716  161.2678 H   0  0  0  0  0  0  0  0  0  0  0  0
  150.4589  144.1261  160.2033 H   0  0  0  0  0  0  0  0  0  0  0  0
  153.0183  142.4707  160.0886 H   0  0  0  0  0  0  0  0  0  0  0  0
  151.6149  142.1173  161.0666 H   0  0  0  0  0  0  0  0  0  0  0  0
  151.6291  140.7586  158.9832 H   0  0  0  0  0  0  0  0  0  0  0  0
  150.2234  141.7943  159.0582 H   0  0  0  0  0  0  0  0  0  0  0  0
  152.7796  142.3392  157.4850 H   0  0  0  0  0  0  0  0  0  0  0  0
  150.3914  142.2253  155.9470 H   0  0  0  0  0  0  0  0  0  0  0  0
  149.5047  140.4418  154.9025 H   0  0  0  0  0  0  0  0  0  0  0  0
  151.0045  140.0213  154.1412 H   0  0  0  0  0  0  0  0  0  0  0  0
  148.0430  138.9192  155.3841 H   0  0  0  0  0  0  0  0  0  0  0  0
  147.2943  136.5599  155.6450 H   0  0  0  0  0  0  0  0  0  0  0  0
  151.6436  144.3736  156.6282 H   0  0  0  0  0  0  0  0  0  0  0  0
  150.2288  144.0265  157.5924 H   0  0  0  0  0  0  0  0  0  0  0  0
  151.6054  145.7300  158.7139 H   0  0  0  0  0  0  0  0  0  0  0  0
  153.0156  144.7016  158.6435 H   0  0  0  0  0  0  0  0  0  0  0  0
  1  2  1  0  0  0  0
  1 20  1  0  0  0  0
  1 21  1  0  0  0  0
  1 22  1  0  0  0  0
  2 19  1  0  0  0  0
  2  3  1  0  0  0  0
  2 23  1  0  0  0  0
  3  4  1  0  0  0  0
  3 24  1  0  0  0  0
  3 25  1  0  0  0  0
  4  5  1  0  0  0  0
  4 26  1  0  0  0  0
  4 27  1  0  0  0  0
  5  6  1  0  0  0  0
  5 18  1  0  0  0  0
  5 28  1  0  0  0  0
  6  7  1  0  0  0  0
  6 29  1  0  0  0  0
  7  8  2  0  0  0  0
  7  9  1  0  0  0  0
  9 10  1  0  0  0  0
  9 30  1  0  0  0  0
  9 31  1  0  0  0  0
 10 16  1  0  0  0  0
 10 11  1  0  0  0  0
 11 12  2  0  0  0  0
 11 32  1  0  0  0  0
 12 13  1  0  0  0  0
 12 33  1  0  0  0  0
 13 14  2  0  0  0  0
 13 15  1  0  0  0  0
 15 16  1  0  0  0  0
 16 17  2  0  0  0  0
 18 19  1  0  0  0  0
 18 34  1  0  0  0  0
 18 35  1  0  0  0  0
 19 36  1  0  0  0  0
 19 37  1  0  0  0  0
M  CHG  1  15  -1
M  END
> <s_m_source_file>
AV-unprocessed.smi

> <i_m_source_file_index>
414

> <i_lp_mmshare_version>
43012

> <i_f3d_flags>
0

> <s_epik_input>
W0NIM11bQ0BASF0xW0NIMl1bQ0gyXVtDQEhdKFtDSDJdW0NIMl0xKVtOSF1DKD1PKVtDSDJdbjJbY0hdW2NIXWMoPU8pW25IXWMyPU8=

> <s_epik_cmdline>
J2VwaWtfcHl0aG9uJywgJy1waCcsICc3LjAnLCAnLXRuJywgJzgnLCAnLW1hJywgJzIwMCcsICctbWV0YWxfYmluZGluZycsICctaW1hZScsICc8aW5maWxlLm1hZT4nLCAnLW9tYWUnLCAnPG91dGZpbGUubWFlPic=

> <r_lp_tautomer_probability>
0.999537

> <r_epik_Ionization_Penalty>
3.11551

> <r_epik_Ionization_Penalty_Charging>
2.90498e-08

> <r_epik_Ionization_Penalty_Neutral>
3.11551

> <r_epik_State_Penalty>
3.11459

> <r_epik_Charging_Adjusted_Penalty>
3.11459

> <i_epik_Tot_Q>
-1

> <i_epik_Tot_abs_Q>
1

> <r_epik_Metal_State_Penalty>
0.463083

> <b_epik_Metal_Only>
1

> <s_lp_Force_Field>
OPLS_2005

> <r_lp_Energy>
17.7967

> <b_lp_Chiralities_Consistent>
1

> <s_lp_Variant>
AV-unprocessed.smi:414-3

> <Gold.Version>
5.8.1

> <Gold.Id.Protein>
6NUR|6NUR_protein|mol2

> <Gold.PLP.Fitness>
43.2462

> <Gold.PLP.PLP>
-35.1315

> <Gold.PLP.part.hbond>
-2.3693

> <Gold.PLP.part.metal>
0.0000

> <Gold.PLP.part.buried>
-3.3818

> <Gold.PLP.part.nonpolar>
-29.7779

> <Gold.PLP.part.repulsive>
0.4411

> <Gold.PLP.ligand.clash>
0.0000

> <Gold.PLP.ligand.torsion>
0.4460

> <Gold.PLP.Chemscore.Hbond>
3.0000

> <Gold.PLP.Chemscore.CHOScore>
0.0000

> <Gold.PLP.Chemscore.Metal>
0.0000

> <Gold.Chemscore.Hbonds>
donor molecule, donor type, donor heavy atom, donor atom, acceptor molecule, acceptor atom, score
      P1  H 10752 10764       L1    17  0.09

> <Gold.PLP.Chemscore.Internal.Correction>
0.0069

> <Gold.Rescore>
     Score         DG    S(hbond)    S(metal)    S(lipo)     H(rot)  DE(clash)    DE(int)     intcor
     13.24     -17.60       1.81        0.00      88.04       1.65       1.30       3.07       ----

> <Gold.Chemscore.Fitness>
13.2418

> <Gold.Chemscore.DG>
-17.6024

> <Gold.Chemscore.ZeroCoef>
-5.4800

> <Gold.Chemscore.Hbond>
1.8139

> <Gold.Chemscore.Metal>
0.0000

> <Gold.Chemscore.Lipo>
88.0368

> <Gold.Chemscore.Internal_Hbond>
0.0000

> <Gold.Chemscore.DEClash>
1.2954

> <Gold.Chemscore.DEInternal>
3.0653

> <Gold.Chemscore.Rot>
1.6549

> <Gold.Chemscore.Internal.Correction>
   9.000000E+99

> <Gold.Chemscore.Hbonds>
donor molecule, donor type, donor heavy atom, donor atom, acceptor molecule, acceptor atom, score
      P1  H  7997  8010       L1     8  0.04
      P1  H 10752 10764       L1    17  0.01

> <Gold.Chemscore.Hbond.Weighted>
-6.0586

> <Gold.Chemscore.Metal.Weighted>
-0.0000

> <Gold.Chemscore.Lipo.Weighted>
-10.3003

> <Gold.Chemscore.Internal_Hbond.Weighted>
0.0000

> <Gold.Chemscore.DEClash.Weighted>
1.2954

> <Gold.Chemscore.DEInternal.Weighted>
3.0653

> <Gold.Chemscore.Rot.Weighted>
4.2364

> <Gold.Chemscore.Internal.Correction.Weighted>
   9.000000E+99

> <Gold.Protein.RotatedTorsions>
[ 6907 6896 6895 6894 ] final   62.87 input  -60.11 | X-H torsion
[ 7974 7965 7964 7962 ] final   81.95 input  175.53 | X-H torsion
[ 8008 7997 7996 7995 ] final   77.03 input   59.86 | X-H torsion
[ 10167 10162 10161 10158 ] final  176.43 input  -65.29 | X-H torsion
[ 10718 10713 10712 10709 ] final -148.61 input   66.30 | X-H torsion
[ 10763 10752 10751 10750 ] final  -46.13 input  -60.55 | X-H torsion
[ 11005 11000 10999 10996 ] final  -28.86 input  -57.11 | X-H torsion

> <Gold.Protein.ActiveResidues>
 VAL166  LYS551  ARG553  GLY616  TRP617  ASP618  TYR619  PRO620  LYS621  CYS622 
 ASP623  PHE694  ASN695  SER759  ASP760  ASP761  ALA762  ILE779  LEU786  VAL792 
 PHE793  MET794  SER795  GLU796  ALA797  LYS798  CYS799  TRP800  GLU811  SER814 

> <Gold.Protein.RotatedAtoms>
  152.4207  134.5960  159.9986 H   0  0  0  0  0  0  0  0  0  0  0  0  # atno 6907 bound_to 6896
  151.6110  133.3341  159.3075 H   0  0  0  0  0  0  0  0  0  0  0  0  # atno 6908 bound_to 6896
  150.8095  134.7280  159.6741 H   0  0  0  0  0  0  0  0  0  0  0  0  # atno 6909 bound_to 6896
  145.6314  139.2405  143.2082 H   0  0  0  0  0  0  0  0  0  0  0  0  # atno 7974 bound_to 7965
  155.8358  140.3464  155.5601 H   0  0  0  0  0  0  0  0  0  0  0  0  # atno 8008 bound_to 7997
  155.8193  140.0910  157.1878 H   0  0  0  0  0  0  0  0  0  0  0  0  # atno 8009 bound_to 7997
  154.4004  140.1433  156.3468 H   0  0  0  0  0  0  0  0  0  0  0  0  # atno 8010 bound_to 7997
  139.5214  144.2916  152.0459 H   0  0  0  0  0  0  0  0  0  0  0  0  # atno 10167 bound_to 10162
  156.4225  130.8036  151.2259 H   0  0  0  0  0  0  0  0  0  0  0  0  # atno 10718 bound_to 10713
  154.0399  135.6645  153.4789 H   0  0  0  0  0  0  0  0  0  0  0  0  # atno 10763 bound_to 10752
  153.0506  135.5087  154.7852 H   0  0  0  0  0  0  0  0  0  0  0  0  # atno 10764 bound_to 10752
  154.6825  135.3047  154.9559 H   0  0  0  0  0  0  0  0  0  0  0  0  # atno 10765 bound_to 10752
  140.9246  133.7377  156.0849 H   0  0  0  0  0  0  0  0  0  0  0  0  # atno 11005 bound_to 11000
  146.1353  140.7130  142.9392 LP  0  0  0  0  0  0  0  0  0  0  0  0  # atno 17320 bound_to 7965
  144.7192  140.4316  143.7021 LP  0  0  0  0  0  0  0  0  0  0  0  0  # atno 17321 bound_to 7965
  140.2367  144.4312  150.6277 LP  0  0  0  0  0  0  0  0  0  0  0  0  # atno 17342 bound_to 10162
  140.6319  143.2189  151.6478 LP  0  0  0  0  0  0  0  0  0  0  0  0  # atno 17343 bound_to 10162
  157.7508  131.0223  150.3788 LP  0  0  0  0  0  0  0  0  0  0  0  0  # atno 17370 bound_to 10713
  156.4109  130.3934  149.6892 LP  0  0  0  0  0  0  0  0  0  0  0  0  # atno 17371 bound_to 10713
  140.7943  134.3581  157.5456 LP  0  0  0  0  0  0  0  0  0  0  0  0  # atno 17394 bound_to 11000
  139.8782  134.9159  156.3142 LP  0  0  0  0  0  0  0  0  0  0  0  0  # atno 17395 bound_to 11000

$$$$
