AV-unprocessed.smi:2973|AV-procd|sdf|11338|dock9
  -GOLD-   2272016253D 1   1.00000     0.00000
 Structure written by MMmdl.
 49 51  0  0  0  0  0  0  0  0  1 V2000
  152.0411  140.1310  159.3400 C   0  0  0  0  0  0  0  0  0  0  0  0
  151.7957  141.6485  159.1960 C   0  0  1  0  0  0  0  0  0  0  0  0
  153.1360  142.4109  159.2821 C   0  0  0  0  0  0  0  0  0  0  0  0
  152.9408  143.9332  159.2066 C   0  0  0  0  0  0  0  0  0  0  0  0
  152.1798  144.3360  157.9359 C   0  0  0  0  0  0  0  0  0  0  0  0
  150.8339  143.5997  157.8465 C   0  0  0  0  0  0  0  0  0  0  0  0
  151.0079  142.0633  157.9142 C   0  0  1  0  0  0  0  0  0  0  0  0
  151.6265  141.5567  156.7001 N   0  0  0  0  0  0  0  0  0  0  0  0
  150.8215  140.7449  156.0033 C   0  0  0  0  0  0  0  0  0  0  0  0
  151.1113  140.2023  154.9385 O   0  0  0  0  0  0  0  0  0  0  0  0
  149.6536  140.6381  156.6634 N   0  0  0  0  0  0  0  0  0  0  0  0
  148.5077  139.8419  156.1981 C   0  0  0  0  0  0  0  0  0  0  0  0
  148.7138  138.3174  156.2309 C   0  0  0  0  0  0  0  0  0  0  0  0
  148.0037  137.6368  156.9701 O   0  0  0  0  0  0  0  0  0  0  0  0
  149.6709  137.7839  155.4524 N   0  0  0  0  0  0  0  0  0  0  0  0
  150.0163  136.3689  155.3906 C   0  0  0  0  0  0  0  0  0  0  0  0
  148.8247  135.5192  154.9179 C   0  0  0  0  0  0  0  0  0  0  0  0
  149.1863  134.0548  154.7577 C   0  0  0  0  0  0  0  0  0  0  0  0
  150.0368  133.4171  155.6860 C   0  0  0  0  0  0  0  0  0  0  0  0
  150.3421  132.0560  155.4911 C   0  0  0  0  0  0  0  0  0  0  0  0
  149.7868  131.3882  154.3824 C   0  0  0  0  0  0  0  0  0  0  0  0
  148.9450  132.1136  153.5160 C   0  0  0  0  0  0  0  0  0  0  0  0
  148.6456  133.4187  153.6937 N   0  0  0  0  0  0  0  0  0  0  0  0
  149.6573  141.3692  157.7867 C   0  0  0  0  0  0  0  0  0  0  0  0
  148.7402  141.4889  158.5992 O   0  0  0  0  0  0  0  0  0  0  0  0
  152.6444  139.7406  158.5201 H   0  0  0  0  0  0  0  0  0  0  0  0
  151.1082  139.5678  159.3656 H   0  0  0  0  0  0  0  0  0  0  0  0
  152.5710  139.9105  160.2669 H   0  0  0  0  0  0  0  0  0  0  0  0
  151.2003  141.9532  160.0586 H   0  0  0  0  0  0  0  0  0  0  0  0
  153.6464  142.1610  160.2130 H   0  0  0  0  0  0  0  0  0  0  0  0
  153.7978  142.0898  158.4767 H   0  0  0  0  0  0  0  0  0  0  0  0
  152.3928  144.2755  160.0852 H   0  0  0  0  0  0  0  0  0  0  0  0
  153.9096  144.4327  159.2328 H   0  0  0  0  0  0  0  0  0  0  0  0
  152.0139  145.4137  157.9293 H   0  0  0  0  0  0  0  0  0  0  0  0
  152.7854  144.1125  157.0568 H   0  0  0  0  0  0  0  0  0  0  0  0
  150.1964  143.9338  158.6668 H   0  0  0  0  0  0  0  0  0  0  0  0
  150.3204  143.8891  156.9278 H   0  0  0  0  0  0  0  0  0  0  0  0
  152.5637  141.8068  156.4199 H   0  0  0  0  0  0  0  0  0  0  0  0
  147.6299  140.0793  156.8014 H   0  0  0  0  0  0  0  0  0  0  0  0
  148.2446  140.1291  155.1787 H   0  0  0  0  0  0  0  0  0  0  0  0
  150.2093  138.4089  154.8703 H   0  0  0  0  0  0  0  0  0  0  0  0
  150.8779  136.2198  154.7375 H   0  0  0  0  0  0  0  0  0  0  0  0
  150.3241  136.0567  156.3890 H   0  0  0  0  0  0  0  0  0  0  0  0
  148.0012  135.6032  155.6284 H   0  0  0  0  0  0  0  0  0  0  0  0
  148.4458  135.8958  153.9668 H   0  0  0  0  0  0  0  0  0  0  0  0
  150.4461  133.9569  156.5275 H   0  0  0  0  0  0  0  0  0  0  0  0
  150.9906  131.5339  156.1790 H   0  0  0  0  0  0  0  0  0  0  0  0
  150.0001  130.3453  154.2008 H   0  0  0  0  0  0  0  0  0  0  0  0
  148.5013  131.6333  152.6566 H   0  0  0  0  0  0  0  0  0  0  0  0
  1  2  1  0  0  0  0
  1 26  1  0  0  0  0
  1 27  1  0  0  0  0
  1 28  1  0  0  0  0
  2  7  1  0  0  0  0
  2  3  1  0  0  0  0
  2 29  1  0  0  0  0
  3  4  1  0  0  0  0
  3 30  1  0  0  0  0
  3 31  1  0  0  0  0
  4  5  1  0  0  0  0
  4 32  1  0  0  0  0
  4 33  1  0  0  0  0
  5  6  1  0  0  0  0
  5 34  1  0  0  0  0
  5 35  1  0  0  0  0
  6  7  1  0  0  0  0
  6 36  1  0  0  0  0
  6 37  1  0  0  0  0
  7 24  1  0  0  0  0
  7  8  1  0  0  0  0
  8  9  1  0  0  0  0
  8 38  1  0  0  0  0
  9 10  2  0  0  0  0
  9 11  1  0  0  0  0
 11 12  1  0  0  0  0
 11 24  1  0  0  0  0
 12 13  1  0  0  0  0
 12 39  1  0  0  0  0
 12 40  1  0  0  0  0
 13 14  2  0  0  0  0
 13 15  1  0  0  0  0
 15 16  1  0  0  0  0
 15 41  1  0  0  0  0
 16 17  1  0  0  0  0
 16 42  1  0  0  0  0
 16 43  1  0  0  0  0
 17 18  1  0  0  0  0
 17 44  1  0  0  0  0
 17 45  1  0  0  0  0
 18 23  1  0  0  0  0
 18 19  2  0  0  0  0
 19 20  1  0  0  0  0
 19 46  1  0  0  0  0
 20 21  2  0  0  0  0
 20 47  1  0  0  0  0
 21 22  1  0  0  0  0
 21 48  1  0  0  0  0
 22 23  2  0  0  0  0
 22 49  1  0  0  0  0
 24 25  2  0  0  0  0
M  END
> <s_m_source_file>
AV-unprocessed.smi

> <i_m_source_file_index>
2973

> <i_lp_mmshare_version>
43012

> <i_f3d_flags>
0

> <s_epik_input>
W0NIMl0xW0NIMl1bQ0gyXVtDSDJdW0NAQEhdKFtDSDNdKVtDQF0xMltOSF1DKD1PKU4oQzI9TylbQ0gyXUMoPU8pW05IXVtDSDJdW0NIMl1jM1tjSF1bY0hdW2NIXVtjSF1uMw==

> <s_epik_cmdline>
J2VwaWtfcHl0aG9uJywgJy1waCcsICc3LjAnLCAnLXRuJywgJzgnLCAnLW1hJywgJzIwMCcsICctbWV0YWxfYmluZGluZycsICctaW1hZScsICc8aW5maWxlLm1hZT4nLCAnLW9tYWUnLCAnPG91dGZpbGUubWFlPic=

> <r_lp_tautomer_probability>
1

> <r_epik_Ionization_Penalty>
0.0245152

> <r_epik_Ionization_Penalty_Charging>
0

> <r_epik_Ionization_Penalty_Neutral>
0.0245152

> <r_epik_State_Penalty>
0.0198648

> <r_epik_Charging_Adjusted_Penalty>
0.0198648

> <i_epik_Tot_Q>
0

> <i_epik_Tot_abs_Q>
0

> <r_epik_Metal_State_Penalty>
0.0400162

> <b_epik_Metal_Only>
0

> <s_lp_Force_Field>
OPLS_2005

> <r_lp_Energy>
22.4148

> <b_lp_Chiralities_Consistent>
1

> <s_lp_Variant>
AV-unprocessed.smi:2973-2

> <Gold.Version>
5.8.1

> <Gold.Id.Protein>
6NUR|6NUR_protein|mol2

> <Gold.PLP.Fitness>
43.6471

> <Gold.PLP.PLP>
-38.3833

> <Gold.PLP.part.hbond>
-2.5560

> <Gold.PLP.part.metal>
0.0000

> <Gold.PLP.part.buried>
-1.1895

> <Gold.PLP.part.nonpolar>
-34.9222

> <Gold.PLP.part.repulsive>
0.3925

> <Gold.PLP.ligand.clash>
0.0000

> <Gold.PLP.ligand.torsion>
0.3774

> <Gold.PLP.Chemscore.Hbond>
1.0000

> <Gold.PLP.Chemscore.CHOScore>
0.9974

> <Gold.PLP.Chemscore.Metal>
0.0000

> <Gold.Chemscore.Hbonds>
donor molecule, donor type, donor heavy atom, donor atom, acceptor molecule, acceptor atom, score
      P1  H  7989  7998       L1    10  1.00
      L1  C    22    49       P1 10747  1.00

> <Gold.PLP.Chemscore.Internal.Correction>
0.0264

> <Gold.Rescore>
     Score         DG    S(hbond)    S(metal)    S(lipo)     H(rot)  DE(clash)    DE(int)     intcor
     15.47     -15.93       0.98        0.00     102.04       1.86       0.12       0.33       ----

> <Gold.Chemscore.Fitness>
15.4710

> <Gold.Chemscore.DG>
-15.9267

> <Gold.Chemscore.ZeroCoef>
-5.4800

> <Gold.Chemscore.Hbond>
0.9755

> <Gold.Chemscore.Metal>
0.0000

> <Gold.Chemscore.Lipo>
102.0354

> <Gold.Chemscore.Internal_Hbond>
0.0000

> <Gold.Chemscore.DEClash>
0.1217

> <Gold.Chemscore.DEInternal>
0.3340

> <Gold.Chemscore.Rot>
1.8553

> <Gold.Chemscore.Internal.Correction>
   9.000000E+99

> <Gold.Chemscore.Hbonds>
donor molecule, donor type, donor heavy atom, donor atom, acceptor molecule, acceptor atom, score
      P1  H  7989  7998       L1    10  0.99

> <Gold.Chemscore.Hbond.Weighted>
-3.2582

> <Gold.Chemscore.Metal.Weighted>
-0.0000

> <Gold.Chemscore.Lipo.Weighted>
-11.9381

> <Gold.Chemscore.Internal_Hbond.Weighted>
0.0000

> <Gold.Chemscore.DEClash.Weighted>
0.1217

> <Gold.Chemscore.DEInternal.Weighted>
0.3340

> <Gold.Chemscore.Rot.Weighted>
4.7497

> <Gold.Chemscore.Internal.Correction.Weighted>
   9.000000E+99

> <Gold.Protein.RotatedTorsions>
[ 6907 6896 6895 6894 ] final  -57.70 input  -60.11 | X-H torsion
[ 7974 7965 7964 7962 ] final   36.72 input  175.53 | X-H torsion
[ 8008 7997 7996 7995 ] final   61.94 input   59.86 | X-H torsion
[ 10167 10162 10161 10158 ] final -174.08 input  -65.29 | X-H torsion
[ 10718 10713 10712 10709 ] final   10.50 input   66.30 | X-H torsion
[ 10763 10752 10751 10750 ] final   64.97 input  -60.55 | X-H torsion
[ 11005 11000 10999 10996 ] final  -29.57 input  -57.11 | X-H torsion

> <Gold.Protein.ActiveResidues>
 VAL166  LYS551  ARG553  GLY616  TRP617  ASP618  TYR619  PRO620  LYS621  CYS622 
 ASP623  PHE694  ASN695  SER759  ASP760  ASP761  ALA762  ILE779  LEU786  VAL792 
 PHE793  MET794  SER795  GLU796  ALA797  LYS798  CYS799  TRP800  GLU811  SER814 

> <Gold.Protein.RotatedAtoms>
  150.8065  134.7193  159.6648 H   0  0  0  0  0  0  0  0  0  0  0  0  # atno 6907 bound_to 6896
  152.4184  134.5996  160.0006 H   0  0  0  0  0  0  0  0  0  0  0  0  # atno 6908 bound_to 6896
  151.6218  133.3301  159.3126 H   0  0  0  0  0  0  0  0  0  0  0  0  # atno 6909 bound_to 6896
  146.1190  139.5982  142.9302 H   0  0  0  0  0  0  0  0  0  0  0  0  # atno 7974 bound_to 7965
  155.6064  140.3494  155.4609 H   0  0  0  0  0  0  0  0  0  0  0  0  # atno 8008 bound_to 7997
  156.0188  140.1249  157.0403 H   0  0  0  0  0  0  0  0  0  0  0  0  # atno 8009 bound_to 7997
  154.4307  140.1066  156.5920 H   0  0  0  0  0  0  0  0  0  0  0  0  # atno 8010 bound_to 7997
  139.5653  144.1770  152.1303 H   0  0  0  0  0  0  0  0  0  0  0  0  # atno 10167 bound_to 10162
  156.9818  130.6009  149.5677 H   0  0  0  0  0  0  0  0  0  0  0  0  # atno 10718 bound_to 10713
  153.0077  135.5374  154.6594 H   0  0  0  0  0  0  0  0  0  0  0  0  # atno 10763 bound_to 10752
  154.5806  135.2849  155.0738 H   0  0  0  0  0  0  0  0  0  0  0  0  # atno 10764 bound_to 10752
  154.1869  135.6507  153.5102 H   0  0  0  0  0  0  0  0  0  0  0  0  # atno 10765 bound_to 10752
  140.9308  133.7339  156.0933 H   0  0  0  0  0  0  0  0  0  0  0  0  # atno 11005 bound_to 11000
  145.5506  141.0413  143.2281 LP  0  0  0  0  0  0  0  0  0  0  0  0  # atno 17320 bound_to 7965
  144.7580  139.7027  143.7246 LP  0  0  0  0  0  0  0  0  0  0  0  0  # atno 17321 bound_to 7965
  140.1292  144.5304  150.6813 LP  0  0  0  0  0  0  0  0  0  0  0  0  # atno 17342 bound_to 10162
  140.6936  143.2390  151.5063 LP  0  0  0  0  0  0  0  0  0  0  0  0  # atno 17343 bound_to 10162
  156.0241  130.5335  150.8358 LP  0  0  0  0  0  0  0  0  0  0  0  0  # atno 17370 bound_to 10713
  157.5520  131.0944  150.9681 LP  0  0  0  0  0  0  0  0  0  0  0  0  # atno 17371 bound_to 10713
  140.7865  134.3666  157.5475 LP  0  0  0  0  0  0  0  0  0  0  0  0  # atno 17394 bound_to 11000
  139.8796  134.9114  156.3036 LP  0  0  0  0  0  0  0  0  0  0  0  0  # atno 17395 bound_to 11000

$$$$
