AV-unprocessed.smi:102|AV-procd|sdf|968|dock10
  -GOLD-   2262017513D 1   1.00000     0.00000
 Structure written by MMmdl.
 43 44  0  0  0  0  0  0  0  0  2 V2000
  147.7119  132.4080  161.1146 C   0  0  0  0  0  0  0  0  0  0  0  0
  147.4179  133.8035  160.5788 C   0  0  0  0  0  0  0  0  0  0  0  0
  146.9680  134.6879  161.3076 O   0  0  0  0  0  0  0  0  0  0  0  0
  147.7022  133.9258  159.2730 O   0  0  0  0  0  0  0  0  0  0  0  0
  147.4421  135.1530  158.6121 C   0  0  0  0  0  0  0  0  0  0  0  0
  148.2267  136.2839  159.3061 C   0  0  1  0  0  0  0  0  0  0  0  0
  149.6183  136.0590  159.1207 O   0  0  0  0  0  0  0  0  0  0  0  0
  150.0248  136.6095  157.9030 C   0  0  2  0  0  0  0  0  0  0  0  0
  151.4172  137.1785  158.0719 N   0  0  0  0  0  0  0  0  0  0  0  0
  151.6460  138.2176  158.9573 C   0  0  0  0  0  0  0  0  0  0  0  0
  152.8744  138.7555  159.1002 C   0  0  0  0  0  0  0  0  0  0  0  0
  153.0658  139.7656  159.9659 F   0  0  0  0  0  0  0  0  0  0  0  0
  153.9869  138.2384  158.3052 C   0  0  0  0  0  0  0  0  0  0  0  0
  155.1072  138.7265  158.4464 O   0  0  0  0  0  0  0  0  0  0  0  0
  153.7277  137.2257  157.4276 N   0  5  0  0  0  0  0  0  0  0  0  0
  152.4835  136.6849  157.2720 C   0  0  0  0  0  0  0  0  0  0  0  0
  152.2338  135.7941  156.4599 O   0  0  0  0  0  0  0  0  0  0  0  0
  148.9832  137.6745  157.4947 C   0  0  2  0  0  0  0  0  0  0  0  0
  149.5633  138.9637  157.3194 O   0  0  0  0  0  0  0  0  0  0  0  0
  148.7842  140.0458  157.1693 C   0  0  0  0  0  0  0  0  0  0  0  0
  149.5971  141.3224  157.0034 C   0  0  0  0  0  0  0  0  0  0  0  0
  147.5531  140.0602  157.1645 O   0  0  0  0  0  0  0  0  0  0  0  0
  148.0295  137.6711  158.6811 C   0  0  1  0  0  0  0  0  0  0  0  0
  146.6960  137.9089  158.2475 O   0  0  0  0  0  0  0  0  0  0  0  0
  145.6836  137.8853  159.1296 C   0  0  0  0  0  0  0  0  0  0  0  0
  144.3330  138.1183  158.4665 C   0  0  0  0  0  0  0  0  0  0  0  0
  145.7820  137.6954  160.3419 O   0  0  0  0  0  0  0  0  0  0  0  0
  148.3513  131.8535  160.4270 H   0  0  0  0  0  0  0  0  0  0  0  0
  146.7833  131.8530  161.2478 H   0  0  0  0  0  0  0  0  0  0  0  0
  148.2174  132.4726  162.0781 H   0  0  0  0  0  0  0  0  0  0  0  0
  147.7035  135.0813  157.5556 H   0  0  0  0  0  0  0  0  0  0  0  0
  146.3712  135.3523  158.6695 H   0  0  0  0  0  0  0  0  0  0  0  0
  147.9803  136.3065  160.3682 H   0  0  0  0  0  0  0  0  0  0  0  0
  150.1029  135.7970  157.1792 H   0  0  0  0  0  0  0  0  0  0  0  0
  150.8298  138.6164  159.5409 H   0  0  0  0  0  0  0  0  0  0  0  0
  148.4918  137.3176  156.5878 H   0  0  0  0  0  0  0  0  0  0  0  0
  150.3438  141.1964  156.2191 H   0  0  0  0  0  0  0  0  0  0  0  0
  150.1092  141.5673  157.9338 H   0  0  0  0  0  0  0  0  0  0  0  0
  148.9499  142.1569  156.7331 H   0  0  0  0  0  0  0  0  0  0  0  0
  148.3570  138.4316  159.3925 H   0  0  0  0  0  0  0  0  0  0  0  0
  144.3338  139.0671  157.9298 H   0  0  0  0  0  0  0  0  0  0  0  0
  143.5386  138.1440  159.2127 H   0  0  0  0  0  0  0  0  0  0  0  0
  144.1164  137.3189  157.7579 H   0  0  0  0  0  0  0  0  0  0  0  0
  1  2  1  0  0  0  0
  1 28  1  0  0  0  0
  1 29  1  0  0  0  0
  1 30  1  0  0  0  0
  2  3  2  0  0  0  0
  2  4  1  0  0  0  0
  4  5  1  0  0  0  0
  5  6  1  0  0  0  0
  5 31  1  0  0  0  0
  5 32  1  0  0  0  0
  6 23  1  0  0  0  0
  6  7  1  0  0  0  0
  6 33  1  0  0  0  0
  7  8  1  0  0  0  0
  8  9  1  0  0  0  0
  8 18  1  0  0  0  0
  8 34  1  0  0  0  0
  9 16  1  0  0  0  0
  9 10  1  0  0  0  0
 10 11  2  0  0  0  0
 10 35  1  0  0  0  0
 11 12  1  0  0  0  0
 11 13  1  0  0  0  0
 13 14  2  0  0  0  0
 13 15  1  0  0  0  0
 15 16  1  0  0  0  0
 16 17  2  0  0  0  0
 18 19  1  0  0  0  0
 18 23  1  0  0  0  0
 18 36  1  0  0  0  0
 19 20  1  0  0  0  0
 20 21  1  0  0  0  0
 20 22  2  0  0  0  0
 21 37  1  0  0  0  0
 21 38  1  0  0  0  0
 21 39  1  0  0  0  0
 23 24  1  0  0  0  0
 23 40  1  0  0  0  0
 24 25  1  0  0  0  0
 25 26  1  0  0  0  0
 25 27  2  0  0  0  0
 26 41  1  0  0  0  0
 26 42  1  0  0  0  0
 26 43  1  0  0  0  0
M  CHG  1  15  -1
M  END
> <s_m_source_file>
AV-unprocessed.smi

> <i_m_source_file_index>
102

> <i_lp_mmshare_version>
43012

> <i_f3d_flags>
0

> <s_epik_input>
W0NIM11DKD1PKU9bQ0gyXVtDQEBIXTFPW0NASF0oW0NAQEhdKE9DKD1PKVtDSDNdKVtDQEhdMU9DKD1PKVtDSDNdKW4yW2NIXWMoRiljKD1PKVtuSF1jMj1P

> <s_epik_cmdline>
J2VwaWtfcHl0aG9uJywgJy1waCcsICc3LjAnLCAnLXRuJywgJzgnLCAnLW1hJywgJzIwMCcsICctbWV0YWxfYmluZGluZycsICctaW1hZScsICc8aW5maWxlLm1hZT4nLCAnLW9tYWUnLCAnPG91dGZpbGUubWFlPic=

> <r_epik_Ionization_Penalty>
1.40304

> <r_epik_Ionization_Penalty_Charging>
1.43915e-08

> <r_epik_Ionization_Penalty_Neutral>
1.40304

> <r_epik_State_Penalty>
1.48536

> <r_epik_Charging_Adjusted_Penalty>
1.48536

> <i_epik_Tot_Q>
-1

> <i_epik_Tot_abs_Q>
1

> <r_epik_Metal_State_Penalty>
0.00663881

> <b_epik_Metal_Only>
0

> <s_epik_Chemistry_Notes>
This compound has an ester and may undergo hydrolysis at high or low pH. This compound contains an acetal/aminal-like group ( X-CH(R)-Y where X, Y are N, S, or O) that may be acid/base labile, releasing an aldehyde.

> <s_lp_Force_Field>
OPLS_2005

> <r_lp_Energy>
24.6661

> <b_lp_Chiralities_Consistent>
1

> <s_lp_Variant>
AV-unprocessed.smi:102-24

> <Gold.Version>
5.8.1

> <Gold.Id.Protein>
6NUR|6NUR_protein|mol2

> <Gold.PLP.Fitness>
35.6225

> <Gold.PLP.PLP>
-23.6426

> <Gold.PLP.part.hbond>
-4.0000

> <Gold.PLP.part.metal>
0.0000

> <Gold.PLP.part.buried>
-4.2030

> <Gold.PLP.part.nonpolar>
-15.1874

> <Gold.PLP.part.repulsive>
0.0000

> <Gold.PLP.ligand.clash>
0.0000

> <Gold.PLP.ligand.torsion>
0.0601

> <Gold.PLP.Chemscore.Hbond>
4.0000

> <Gold.PLP.Chemscore.CHOScore>
0.0000

> <Gold.PLP.Chemscore.Metal>
0.0000

> <Gold.Chemscore.Hbonds>
donor molecule, donor type, donor heavy atom, donor atom, acceptor molecule, acceptor atom, score
      P1  H  6896  6908       L1     7  1.00
      P1  H  6934  6947       L1    27  1.00
      P1  H  7997  8008       L1    14  1.00
      P1  H 10752 10765       L1    17  1.00

> <Gold.PLP.Chemscore.Internal.Correction>
0.1000

> <Gold.Rescore>
     Score         DG    S(hbond)    S(metal)    S(lipo)     H(rot)  DE(clash)    DE(int)     intcor
      6.15     -10.37       3.56        0.00      27.43       4.00       0.00       4.22       ----

> <Gold.Chemscore.Fitness>
6.1466

> <Gold.Chemscore.DG>
-10.3665

> <Gold.Chemscore.ZeroCoef>
-5.4800

> <Gold.Chemscore.Hbond>
3.5644

> <Gold.Chemscore.Metal>
0.0000

> <Gold.Chemscore.Lipo>
27.4266

> <Gold.Chemscore.Internal_Hbond>
0.0000

> <Gold.Chemscore.DEClash>
0.0000

> <Gold.Chemscore.DEInternal>
4.2199

> <Gold.Chemscore.Rot>
3.9951

> <Gold.Chemscore.Internal.Correction>
   9.000000E+99

> <Gold.Chemscore.Hbonds>
donor molecule, donor type, donor heavy atom, donor atom, acceptor molecule, acceptor atom, score
      P1  H  6896  6908       L1     7  0.78
      P1  H  6934  6947       L1    27  0.37
      P1  H  7997  8008       L1    14  0.50
      P1  H 10752 10765       L1    17  1.00

> <Gold.Chemscore.Hbond.Weighted>
-11.9050

> <Gold.Chemscore.Metal.Weighted>
-0.0000

> <Gold.Chemscore.Lipo.Weighted>
-3.2089

> <Gold.Chemscore.Internal_Hbond.Weighted>
0.0000

> <Gold.Chemscore.DEClash.Weighted>
0.0000

> <Gold.Chemscore.DEInternal.Weighted>
4.2199

> <Gold.Chemscore.Rot.Weighted>
10.2274

> <Gold.Chemscore.Internal.Correction.Weighted>
   9.000000E+99

> <Gold.Protein.RotatedTorsions>
[ 6907 6896 6895 6894 ] final  172.40 input  -60.11 | X-H torsion
[ 7974 7965 7964 7962 ] final -106.11 input  175.53 | X-H torsion
[ 8008 7997 7996 7995 ] final -122.43 input   59.86 | X-H torsion
[ 10167 10162 10161 10158 ] final   47.51 input  -65.29 | X-H torsion
[ 10718 10713 10712 10709 ] final  -55.77 input   66.30 | X-H torsion
[ 10763 10752 10751 10750 ] final -152.28 input  -60.55 | X-H torsion
[ 11005 11000 10999 10996 ] final  -90.30 input  -57.11 | X-H torsion

> <Gold.Protein.ActiveResidues>
 VAL166  LYS551  ARG553  GLY616  TRP617  ASP618  TYR619  PRO620  LYS621  CYS622 
 ASP623  PHE694  ASN695  SER759  ASP760  ASP761  ALA762  ILE779  LEU786  VAL792 
 PHE793  MET794  SER795  GLU796  ALA797  LYS798  CYS799  TRP800  GLU811  SER814 

> <Gold.Protein.RotatedAtoms>
  151.7848  133.3353  159.3481 H   0  0  0  0  0  0  0  0  0  0  0  0  # atno 6907 bound_to 6896
  150.7413  134.5897  159.5990 H   0  0  0  0  0  0  0  0  0  0  0  0  # atno 6908 bound_to 6896
  152.3251  134.7333  160.0355 H   0  0  0  0  0  0  0  0  0  0  0  0  # atno 6909 bound_to 6896
  145.2219  140.9137  143.3254 H   0  0  0  0  0  0  0  0  0  0  0  0  # atno 7974 bound_to 7965
  155.1641  140.0406  157.2849 H   0  0  0  0  0  0  0  0  0  0  0  0  # atno 8008 bound_to 7997
  154.6316  140.2525  155.7400 H   0  0  0  0  0  0  0  0  0  0  0  0  # atno 8009 bound_to 7997
  156.2487  140.2874  156.0670 H   0  0  0  0  0  0  0  0  0  0  0  0  # atno 8010 bound_to 7997
  140.3028  144.2913  150.6215 H   0  0  0  0  0  0  0  0  0  0  0  0  # atno 10167 bound_to 10162
  156.1341  130.4158  150.0216 H   0  0  0  0  0  0  0  0  0  0  0  0  # atno 10718 bound_to 10713
  154.8004  135.3240  154.7563 H   0  0  0  0  0  0  0  0  0  0  0  0  # atno 10763 bound_to 10752
  153.8233  135.6886  153.4828 H   0  0  0  0  0  0  0  0  0  0  0  0  # atno 10764 bound_to 10752
  153.1718  135.4620  154.9856 H   0  0  0  0  0  0  0  0  0  0  0  0  # atno 10765 bound_to 10752
  141.1568  133.7684  156.9718 H   0  0  0  0  0  0  0  0  0  0  0  0  # atno 11005 bound_to 11000
  144.9757  139.3834  143.6287 LP  0  0  0  0  0  0  0  0  0  0  0  0  # atno 17320 bound_to 7965
  146.3374  139.8875  142.8814 LP  0  0  0  0  0  0  0  0  0  0  0  0  # atno 17321 bound_to 7965
  140.5636  143.2189  151.7723 LP  0  0  0  0  0  0  0  0  0  0  0  0  # atno 17342 bound_to 10162
  139.4911  144.4315  151.9867 LP  0  0  0  0  0  0  0  0  0  0  0  0  # atno 17343 bound_to 10162
  156.8120  130.9328  151.3644 LP  0  0  0  0  0  0  0  0  0  0  0  0  # atno 17370 bound_to 10713
  157.6516  130.8889  149.9644 LP  0  0  0  0  0  0  0  0  0  0  0  0  # atno 17371 bound_to 10713
  140.1124  134.9468  157.2085 LP  0  0  0  0  0  0  0  0  0  0  0  0  # atno 17394 bound_to 11000
  140.3177  134.2952  155.7253 LP  0  0  0  0  0  0  0  0  0  0  0  0  # atno 17395 bound_to 11000

$$$$
