AV-unprocessed.smi:1504|AV-procd|sdf|6071|dock1
  -GOLD-   22720 6193D 1   1.00000     0.00000
 Structure written by MMmdl.
 39 40  0  0  0  0  0  0  0  0  1 V2000
  145.7993  138.6435  153.7304 O   0  0  0  0  0  0  0  0  0  0  0  0
  146.6846  137.9830  153.1869 C   0  0  0  0  0  0  0  0  0  0  0  0
  146.4564  136.8980  152.4345 N   0  0  0  0  0  0  0  0  0  0  0  0
  145.1390  136.3309  152.1613 C   0  0  0  0  0  0  0  0  0  0  0  0
  145.0524  135.6333  150.7889 C   0  0  0  0  0  0  0  0  0  0  0  0
  144.9988  134.1176  150.8776 C   0  0  0  0  0  0  0  0  0  0  0  0
  146.0939  133.3851  151.3840 C   0  0  0  0  0  0  0  0  0  0  0  0
  145.9914  131.9822  151.4474 C   0  0  0  0  0  0  0  0  0  0  0  0
  144.8044  131.3684  151.0034 C   0  0  0  0  0  0  0  0  0  0  0  0
  143.7685  132.1887  150.5137 C   0  0  0  0  0  0  0  0  0  0  0  0
  143.8560  133.5349  150.4497 N   0  0  0  0  0  0  0  0  0  0  0  0
  147.9933  138.2575  153.2803 N   0  0  0  0  0  0  0  0  0  0  0  0
  148.5722  139.3742  154.0214 C   0  0  0  0  0  0  0  0  0  0  0  0
  149.7395  138.9358  154.9289 C   0  0  2  0  0  0  0  0  0  0  0  0
  150.3129  140.0663  155.8105 C   0  0  0  0  0  0  0  0  0  0  0  0
  151.6297  139.5886  156.4289 C   0  0  0  0  0  0  0  0  0  0  0  0
  152.4038  138.5163  155.1641 S   0  0  0  0  0  0  0  0  0  0  0  0
  153.4127  139.2857  154.4204 O   0  0  0  0  0  0  0  0  0  0  0  0
  152.7375  137.2199  155.7735 O   0  0  0  0  0  0  0  0  0  0  0  0
  150.9049  138.3393  154.1224 C   0  0  0  0  0  0  0  0  0  0  0  0
  147.2489  136.4242  152.0262 H   0  0  0  0  0  0  0  0  0  0  0  0
  144.9258  135.6078  152.9490 H   0  0  0  0  0  0  0  0  0  0  0  0
  144.3747  137.1054  152.2415 H   0  0  0  0  0  0  0  0  0  0  0  0
  144.1695  135.9869  150.2551 H   0  0  0  0  0  0  0  0  0  0  0  0
  145.9059  135.9222  150.1741 H   0  0  0  0  0  0  0  0  0  0  0  0
  146.9907  133.8854  151.7193 H   0  0  0  0  0  0  0  0  0  0  0  0
  146.8085  131.3880  151.8291 H   0  0  0  0  0  0  0  0  0  0  0  0
  144.6908  130.2949  151.0359 H   0  0  0  0  0  0  0  0  0  0  0  0
  142.8448  131.7514  150.1643 H   0  0  0  0  0  0  0  0  0  0  0  0
  148.6400  137.6523  152.7956 H   0  0  0  0  0  0  0  0  0  0  0  0
  148.9351  140.0959  153.2891 H   0  0  0  0  0  0  0  0  0  0  0  0
  147.8072  139.8922  154.6026 H   0  0  0  0  0  0  0  0  0  0  0  0
  149.3794  138.1539  155.5997 H   0  0  0  0  0  0  0  0  0  0  0  0
  150.5123  140.9396  155.1879 H   0  0  0  0  0  0  0  0  0  0  0  0
  149.6108  140.3792  156.5835 H   0  0  0  0  0  0  0  0  0  0  0  0
  152.3001  140.4057  156.6959 H   0  0  0  0  0  0  0  0  0  0  0  0
  151.4430  138.9833  157.3162 H   0  0  0  0  0  0  0  0  0  0  0  0
  150.7495  137.2916  153.8648 H   0  0  0  0  0  0  0  0  0  0  0  0
  151.0747  138.8995  153.2024 H   0  0  0  0  0  0  0  0  0  0  0  0
  1  2  2  0  0  0  0
  2  3  1  0  0  0  0
  2 12  1  0  0  0  0
  3  4  1  0  0  0  0
  3 21  1  0  0  0  0
  4  5  1  0  0  0  0
  4 22  1  0  0  0  0
  4 23  1  0  0  0  0
  5  6  1  0  0  0  0
  5 24  1  0  0  0  0
  5 25  1  0  0  0  0
  6 11  1  0  0  0  0
  6  7  2  0  0  0  0
  7  8  1  0  0  0  0
  7 26  1  0  0  0  0
  8  9  2  0  0  0  0
  8 27  1  0  0  0  0
  9 10  1  0  0  0  0
  9 28  1  0  0  0  0
 10 11  2  0  0  0  0
 10 29  1  0  0  0  0
 12 13  1  0  0  0  0
 12 30  1  0  0  0  0
 13 14  1  0  0  0  0
 13 31  1  0  0  0  0
 13 32  1  0  0  0  0
 14 20  1  0  0  0  0
 14 15  1  0  0  0  0
 14 33  1  0  0  0  0
 15 16  1  0  0  0  0
 15 34  1  0  0  0  0
 15 35  1  0  0  0  0
 16 17  1  0  0  0  0
 16 36  1  0  0  0  0
 16 37  1  0  0  0  0
 17 18  2  0  0  0  0
 17 19  2  0  0  0  0
 17 20  1  0  0  0  0
 20 38  1  0  0  0  0
 20 39  1  0  0  0  0
M  END
> <s_m_source_file>
AV-unprocessed.smi

> <i_m_source_file_index>
1504

> <i_lp_mmshare_version>
43012

> <i_f3d_flags>
0

> <s_epik_input>
Tz1TMSg9TylbQ0gyXVtDSDJdW0NASF0oW0NIMl0xKVtDSDJdW05IXUMoPU8pW05IXVtDSDJdW0NIMl1jMltjSF1bY0hdW2NIXVtjSF1uMg==

> <s_epik_cmdline>
J2VwaWtfcHl0aG9uJywgJy1waCcsICc3LjAnLCAnLXRuJywgJzgnLCAnLW1hJywgJzIwMCcsICctbWV0YWxfYmluZGluZycsICctaW1hZScsICc8aW5maWxlLm1hZT4nLCAnLW9tYWUnLCAnPG91dGZpbGUubWFlPic=

> <r_epik_Ionization_Penalty>
0.0431785

> <r_epik_Ionization_Penalty_Charging>
0

> <r_epik_Ionization_Penalty_Neutral>
0.0431785

> <r_epik_State_Penalty>
0.0364691

> <r_epik_Charging_Adjusted_Penalty>
0.0364691

> <i_epik_Tot_Q>
0

> <i_epik_Tot_abs_Q>
0

> <r_epik_Metal_State_Penalty>
0.0339827

> <b_epik_Metal_Only>
0

> <s_lp_Force_Field>
OPLS_2005

> <r_lp_Energy>
2.61241

> <b_lp_Chiralities_Consistent>
1

> <s_lp_Variant>
AV-unprocessed.smi:1504-1

> <Gold.Version>
5.8.1

> <Gold.Id.Protein>
6NUR|6NUR_protein|mol2

> <Gold.PLP.Fitness>
49.1414

> <Gold.PLP.PLP>
-36.4966

> <Gold.PLP.part.hbond>
-5.5027

> <Gold.PLP.part.metal>
0.0000

> <Gold.PLP.part.buried>
-4.2664

> <Gold.PLP.part.nonpolar>
-28.7199

> <Gold.PLP.part.repulsive>
0.9880

> <Gold.PLP.ligand.clash>
0.0000

> <Gold.PLP.ligand.torsion>
0.6144

> <Gold.PLP.Chemscore.Hbond>
3.6240

> <Gold.PLP.Chemscore.CHOScore>
0.9941

> <Gold.PLP.Chemscore.Metal>
0.0000

> <Gold.Chemscore.Hbonds>
donor molecule, donor type, donor heavy atom, donor atom, acceptor molecule, acceptor atom, score
      L1  H     3    21       P1  7948  1.00
      L1  H    12    30       P1  7948  1.00
      P1  H  7997  8008       L1    18  1.00
      P1  H 10752 10764       L1    19  0.62
      L1  C    10    29       P1 10952  0.99

> <Gold.PLP.Chemscore.Internal.Correction>
0.0194

> <Gold.Rescore>
     Score         DG    S(hbond)    S(metal)    S(lipo)     H(rot)  DE(clash)    DE(int)     intcor
     22.24     -22.91       3.81        0.00      82.14       1.91       0.08       0.58       ----

> <Gold.Chemscore.Fitness>
22.2427

> <Gold.Chemscore.DG>
-22.9102

> <Gold.Chemscore.ZeroCoef>
-5.4800

> <Gold.Chemscore.Hbond>
3.8054

> <Gold.Chemscore.Metal>
0.0000

> <Gold.Chemscore.Lipo>
82.1439

> <Gold.Chemscore.Internal_Hbond>
0.0000

> <Gold.Chemscore.DEClash>
0.0838

> <Gold.Chemscore.DEInternal>
0.5838

> <Gold.Chemscore.Rot>
1.9105

> <Gold.Chemscore.Internal.Correction>
   9.000000E+99

> <Gold.Chemscore.Hbonds>
donor molecule, donor type, donor heavy atom, donor atom, acceptor molecule, acceptor atom, score
      L1  H     3    21       P1  7948  0.95
      L1  H    12    30       P1  7948  0.95
      P1  H  7997  8008       L1    18  0.48
      P1  H 10752 10764       L1    19  0.62

> <Gold.Chemscore.Hbond.Weighted>
-12.7102

> <Gold.Chemscore.Metal.Weighted>
-0.0000

> <Gold.Chemscore.Lipo.Weighted>
-9.6108

> <Gold.Chemscore.Internal_Hbond.Weighted>
0.0000

> <Gold.Chemscore.DEClash.Weighted>
0.0838

> <Gold.Chemscore.DEInternal.Weighted>
0.5838

> <Gold.Chemscore.Rot.Weighted>
4.8908

> <Gold.Chemscore.Internal.Correction.Weighted>
   9.000000E+99

> <Gold.Protein.RotatedTorsions>
[ 6907 6896 6895 6894 ] final  164.02 input  -60.11 | X-H torsion
[ 7974 7965 7964 7962 ] final  -83.66 input  175.53 | X-H torsion
[ 8008 7997 7996 7995 ] final  -13.35 input   59.86 | X-H torsion
[ 10167 10162 10161 10158 ] final  110.23 input  -65.29 | X-H torsion
[ 10718 10713 10712 10709 ] final -151.81 input   66.30 | X-H torsion
[ 10763 10752 10751 10750 ] final  -25.31 input  -60.55 | X-H torsion
[ 11005 11000 10999 10996 ] final  101.28 input  -57.11 | X-H torsion

> <Gold.Protein.ActiveResidues>
 VAL166  LYS551  ARG553  GLY616  TRP617  ASP618  TYR619  PRO620  LYS621  CYS622 
 ASP623  PHE694  ASN695  SER759  ASP760  ASP761  ALA762  ILE779  LEU786  VAL792 
 PHE793  MET794  SER795  GLU796  ALA797  LYS798  CYS799  TRP800  GLU811  SER814 

> <Gold.Protein.RotatedAtoms>
  151.9163  133.3574  159.3880 H   0  0  0  0  0  0  0  0  0  0  0  0  # atno 6907 bound_to 6896
  150.7047  134.4681  159.5422 H   0  0  0  0  0  0  0  0  0  0  0  0  # atno 6908 bound_to 6896
  152.2296  134.8334  160.0526 H   0  0  0  0  0  0  0  0  0  0  0  0  # atno 6909 bound_to 6896
  145.5170  140.9535  143.1676 H   0  0  0  0  0  0  0  0  0  0  0  0  # atno 7974 bound_to 7965
  154.5300  140.2252  155.8821 H   0  0  0  0  0  0  0  0  0  0  0  0  # atno 8008 bound_to 7997
  156.1754  140.3112  155.9013 H   0  0  0  0  0  0  0  0  0  0  0  0  # atno 8009 bound_to 7997
  155.3471  140.0453  157.3036 H   0  0  0  0  0  0  0  0  0  0  0  0  # atno 8010 bound_to 7997
  139.6704  144.7125  151.1698 H   0  0  0  0  0  0  0  0  0  0  0  0  # atno 10167 bound_to 10162
  156.4641  130.8227  151.2458 H   0  0  0  0  0  0  0  0  0  0  0  0  # atno 10718 bound_to 10713
  153.6977  135.6958  153.5072 H   0  0  0  0  0  0  0  0  0  0  0  0  # atno 10763 bound_to 10752
  153.2365  135.4320  155.0651 H   0  0  0  0  0  0  0  0  0  0  0  0  # atno 10764 bound_to 10752
  154.8353  135.3497  154.6518 H   0  0  0  0  0  0  0  0  0  0  0  0  # atno 10765 bound_to 10752
  139.8773  134.9176  156.4882 H   0  0  0  0  0  0  0  0  0  0  0  0  # atno 11005 bound_to 11000
  144.7696  139.6764  143.7200 LP  0  0  0  0  0  0  0  0  0  0  0  0  # atno 17320 bound_to 7965
  146.2130  139.5500  142.9668 LP  0  0  0  0  0  0  0  0  0  0  0  0  # atno 17321 bound_to 7965
  140.7616  143.5853  150.8852 LP  0  0  0  0  0  0  0  0  0  0  0  0  # atno 17342 bound_to 10162
  139.9518  143.6264  152.3027 LP  0  0  0  0  0  0  0  0  0  0  0  0  # atno 17343 bound_to 10162
  157.7496  131.0097  150.3279 LP  0  0  0  0  0  0  0  0  0  0  0  0  # atno 17370 bound_to 10713
  156.3686  130.3859  149.7194 LP  0  0  0  0  0  0  0  0  0  0  0  0  # atno 17371 bound_to 10713
  140.8677  133.8011  155.9332 LP  0  0  0  0  0  0  0  0  0  0  0  0  # atno 17394 bound_to 11000
  140.8984  134.2409  157.5055 LP  0  0  0  0  0  0  0  0  0  0  0  0  # atno 17395 bound_to 11000

$$$$
