AV-unprocessed.smi:3323|AV-procd|sdf|12778|dock10
  -GOLD-   2272019123D 1   1.00000     0.00000
 Structure written by MMmdl.
 37 38  0  0  0  0  0  0  0  0  1 V2000
  151.7037  138.8563  155.0420 C   0  0  0  0  0  0  0  0  0  0  0  0
  150.4829  139.4808  154.3571 C   0  0  1  0  0  0  0  0  0  0  0  0
  149.2662  138.5367  154.3690 C   0  0  0  0  0  0  0  0  0  0  0  0
  148.0356  139.2177  153.7421 C   0  0  1  0  0  0  0  0  0  0  0  0
  146.7692  138.3384  153.7991 C   0  0  0  0  0  0  0  0  0  0  0  0
  146.8979  137.1214  153.0041 N   0  0  0  0  0  0  0  0  0  0  0  0
  145.9108  136.2466  152.7664 C   0  0  0  0  0  0  0  0  0  0  0  0
  144.7708  136.3741  153.2119 O   0  0  0  0  0  0  0  0  0  0  0  0
  146.3423  135.2310  151.9988 N   0  0  0  0  0  0  0  0  0  0  0  0
  145.6296  134.0889  151.5417 C   0  0  0  0  0  0  0  0  0  0  0  0
  144.2200  133.9538  151.5720 C   0  0  0  0  0  0  0  0  0  0  0  0
  143.6402  132.7694  151.0779 C   0  0  0  0  0  0  0  0  0  0  0  0
  144.4871  131.7676  150.5658 C   0  0  0  0  0  0  0  0  0  0  0  0
  145.8303  131.8879  150.5180 N   0  0  0  0  0  0  0  0  0  0  0  0
  146.3789  133.0261  150.9936 C   0  0  0  0  0  0  0  0  0  0  0  0
  147.8095  140.5674  154.4411 C   0  0  0  0  0  0  0  0  0  0  0  0
  149.0946  141.4102  154.4324 C   0  0  0  0  0  0  0  0  0  0  0  0
  150.1558  140.6851  155.0443 O   0  0  0  0  0  0  0  0  0  0  0  0
  152.0026  137.9330  154.5454 H   0  0  0  0  0  0  0  0  0  0  0  0
  151.4946  138.6227  156.0865 H   0  0  0  0  0  0  0  0  0  0  0  0
  152.5551  139.5367  155.0166 H   0  0  0  0  0  0  0  0  0  0  0  0
  150.7499  139.7206  153.3263 H   0  0  0  0  0  0  0  0  0  0  0  0
  149.5110  137.6216  153.8286 H   0  0  0  0  0  0  0  0  0  0  0  0
  149.0401  138.2424  155.3949 H   0  0  0  0  0  0  0  0  0  0  0  0
  148.2609  139.4222  152.6942 H   0  0  0  0  0  0  0  0  0  0  0  0
  146.5657  138.0456  154.8295 H   0  0  0  0  0  0  0  0  0  0  0  0
  145.8985  138.9051  153.4649 H   0  0  0  0  0  0  0  0  0  0  0  0
  147.8051  136.9355  152.6023 H   0  0  0  0  0  0  0  0  0  0  0  0
  147.3226  135.2480  151.7587 H   0  0  0  0  0  0  0  0  0  0  0  0
  143.5723  134.7291  151.9496 H   0  0  0  0  0  0  0  0  0  0  0  0
  142.5690  132.6334  151.0888 H   0  0  0  0  0  0  0  0  0  0  0  0
  144.0744  130.8470  150.1801 H   0  0  0  0  0  0  0  0  0  0  0  0
  147.4562  133.0879  150.9390 H   0  0  0  0  0  0  0  0  0  0  0  0
  147.0038  141.1155  153.9517 H   0  0  0  0  0  0  0  0  0  0  0  0
  147.4938  140.4026  155.4722 H   0  0  0  0  0  0  0  0  0  0  0  0
  149.3698  141.6914  153.4147 H   0  0  0  0  0  0  0  0  0  0  0  0
  148.9377  142.3361  154.9859 H   0  0  0  0  0  0  0  0  0  0  0  0
  1  2  1  0  0  0  0
  1 19  1  0  0  0  0
  1 20  1  0  0  0  0
  1 21  1  0  0  0  0
  2 18  1  0  0  0  0
  2  3  1  0  0  0  0
  2 22  1  0  0  0  0
  3  4  1  0  0  0  0
  3 23  1  0  0  0  0
  3 24  1  0  0  0  0
  4  5  1  0  0  0  0
  4 16  1  0  0  0  0
  4 25  1  0  0  0  0
  5  6  1  0  0  0  0
  5 26  1  0  0  0  0
  5 27  1  0  0  0  0
  6  7  1  0  0  0  0
  6 28  1  0  0  0  0
  7  8  2  0  0  0  0
  7  9  1  0  0  0  0
  9 10  1  0  0  0  0
  9 29  1  0  0  0  0
 10 15  1  0  0  0  0
 10 11  2  0  0  0  0
 11 12  1  0  0  0  0
 11 30  1  0  0  0  0
 12 13  2  0  0  0  0
 12 31  1  0  0  0  0
 13 14  1  0  0  0  0
 13 32  1  0  0  0  0
 14 15  2  0  0  0  0
 15 33  1  0  0  0  0
 16 17  1  0  0  0  0
 16 34  1  0  0  0  0
 16 35  1  0  0  0  0
 17 18  1  0  0  0  0
 17 36  1  0  0  0  0
 17 37  1  0  0  0  0
M  END
> <s_m_source_file>
AV-unprocessed.smi

> <i_m_source_file_index>
3323

> <i_lp_mmshare_version>
43012

> <i_f3d_flags>
0

> <s_epik_input>
W0NIM11bQ0BASF0xW0NIMl1bQ0BIXShbQ0gyXVtDSDJdTzEpW0NIMl1bTkhdQyg9TylbTkhdYzJbY0hdW2NIXVtjSF1uW2NIXTI=

> <s_epik_cmdline>
J2VwaWtfcHl0aG9uJywgJy1waCcsICc3LjAnLCAnLXRuJywgJzgnLCAnLW1hJywgJzIwMCcsICctbWV0YWxfYmluZGluZycsICctaW1hZScsICc8aW5maWxlLm1hZT4nLCAnLW9tYWUnLCAnPG91dGZpbGUubWFlPic=

> <r_epik_Ionization_Penalty>
0.00485293

> <r_epik_Ionization_Penalty_Charging>
0

> <r_epik_Ionization_Penalty_Neutral>
0.00485293

> <r_epik_State_Penalty>
0.00349083

> <r_epik_Charging_Adjusted_Penalty>
0.00349083

> <i_epik_Tot_Q>
0

> <i_epik_Tot_abs_Q>
0

> <r_epik_Metal_State_Penalty>
-0

> <b_epik_Metal_Only>
0

> <s_lp_Force_Field>
OPLS_2005

> <r_lp_Energy>
10.9361

> <b_lp_Chiralities_Consistent>
1

> <s_lp_Variant>
AV-unprocessed.smi:3323-2

> <Gold.Version>
5.8.1

> <Gold.Id.Protein>
6NUR|6NUR_protein|mol2

> <Gold.PLP.Fitness>
39.0100

> <Gold.PLP.PLP>
-32.3860

> <Gold.PLP.part.hbond>
-2.8874

> <Gold.PLP.part.metal>
0.0000

> <Gold.PLP.part.buried>
-2.9668

> <Gold.PLP.part.nonpolar>
-26.6864

> <Gold.PLP.part.repulsive>
0.4058

> <Gold.PLP.ligand.clash>
0.0000

> <Gold.PLP.ligand.torsion>
0.0862

> <Gold.PLP.Chemscore.Hbond>
1.9440

> <Gold.PLP.Chemscore.CHOScore>
0.3207

> <Gold.PLP.Chemscore.Metal>
0.0000

> <Gold.Chemscore.Hbonds>
donor molecule, donor type, donor heavy atom, donor atom, acceptor molecule, acceptor atom, score
      L1  H     6    28       P1  7948  1.00
      L1  H     9    29       P1  7948  0.94
      L1  C    15    33       P1 10747  0.33

> <Gold.PLP.Chemscore.Internal.Correction>
0.0024

> <Gold.Rescore>
     Score         DG    S(hbond)    S(metal)    S(lipo)     H(rot)  DE(clash)    DE(int)     intcor
     16.83     -18.10       1.92        0.00      79.93       1.23       0.07       1.19       ----

> <Gold.Chemscore.Fitness>
16.8337

> <Gold.Chemscore.DG>
-18.0953

> <Gold.Chemscore.ZeroCoef>
-5.4800

> <Gold.Chemscore.Hbond>
1.9177

> <Gold.Chemscore.Metal>
0.0000

> <Gold.Chemscore.Lipo>
79.9310

> <Gold.Chemscore.Internal_Hbond>
0.0000

> <Gold.Chemscore.DEClash>
0.0682

> <Gold.Chemscore.DEInternal>
1.1934

> <Gold.Chemscore.Rot>
1.2273

> <Gold.Chemscore.Internal.Correction>
   9.000000E+99

> <Gold.Chemscore.Hbonds>
donor molecule, donor type, donor heavy atom, donor atom, acceptor molecule, acceptor atom, score
      L1  H     6    28       P1  7948  0.93
      L1  H     9    29       P1  7948  0.87

> <Gold.Chemscore.Hbond.Weighted>
-6.4052

> <Gold.Chemscore.Metal.Weighted>
-0.0000

> <Gold.Chemscore.Lipo.Weighted>
-9.3519

> <Gold.Chemscore.Internal_Hbond.Weighted>
0.0000

> <Gold.Chemscore.DEClash.Weighted>
0.0682

> <Gold.Chemscore.DEInternal.Weighted>
1.1934

> <Gold.Chemscore.Rot.Weighted>
3.1418

> <Gold.Chemscore.Internal.Correction.Weighted>
   9.000000E+99

> <Gold.Protein.RotatedTorsions>
[ 6907 6896 6895 6894 ] final   66.01 input  -60.11 | X-H torsion
[ 7974 7965 7964 7962 ] final -150.87 input  175.53 | X-H torsion
[ 8008 7997 7996 7995 ] final  -58.44 input   59.86 | X-H torsion
[ 10167 10162 10161 10158 ] final  138.42 input  -65.29 | X-H torsion
[ 10718 10713 10712 10709 ] final   21.06 input   66.30 | X-H torsion
[ 10763 10752 10751 10750 ] final -124.11 input  -60.55 | X-H torsion
[ 11005 11000 10999 10996 ] final   66.34 input  -57.11 | X-H torsion

> <Gold.Protein.ActiveResidues>
 VAL166  LYS551  ARG553  GLY616  TRP617  ASP618  TYR619  PRO620  LYS621  CYS622 
 ASP623  PHE694  ASN695  SER759  ASP760  ASP761  ALA762  ILE779  LEU786  VAL792 
 PHE793  MET794  SER795  GLU796  ALA797  LYS798  CYS799  TRP800  GLU811  SER814 

> <Gold.Protein.RotatedAtoms>
  152.4450  134.5514  159.9867 H   0  0  0  0  0  0  0  0  0  0  0  0  # atno 6907 bound_to 6896
  151.5601  133.3398  159.2977 H   0  0  0  0  0  0  0  0  0  0  0  0  # atno 6908 bound_to 6896
  150.8364  134.7671  159.6960 H   0  0  0  0  0  0  0  0  0  0  0  0  # atno 6909 bound_to 6896
  144.7882  140.4874  143.5791 H   0  0  0  0  0  0  0  0  0  0  0  0  # atno 7974 bound_to 7965
  154.4309  140.1084  156.5956 H   0  0  0  0  0  0  0  0  0  0  0  0  # atno 8008 bound_to 7997
  155.5965  140.3493  155.4562 H   0  0  0  0  0  0  0  0  0  0  0  0  # atno 8009 bound_to 7997
  156.0206  140.1239  157.0350 H   0  0  0  0  0  0  0  0  0  0  0  0  # atno 8010 bound_to 7997
  139.5111  144.6354  151.5709 H   0  0  0  0  0  0  0  0  0  0  0  0  # atno 10167 bound_to 10162
  157.1332  130.6600  149.5958 H   0  0  0  0  0  0  0  0  0  0  0  0  # atno 10718 bound_to 10713
  154.8718  135.4075  154.3052 H   0  0  0  0  0  0  0  0  0  0  0  0  # atno 10763 bound_to 10752
  153.3905  135.7014  153.6504 H   0  0  0  0  0  0  0  0  0  0  0  0  # atno 10764 bound_to 10752
  153.5289  135.3671  155.2638 H   0  0  0  0  0  0  0  0  0  0  0  0  # atno 10765 bound_to 10752
  139.9838  134.6701  156.0213 H   0  0  0  0  0  0  0  0  0  0  0  0  # atno 11005 bound_to 11000
  145.5864  139.1492  143.3207 LP  0  0  0  0  0  0  0  0  0  0  0  0  # atno 17320 bound_to 7965
  146.2123  140.5992  142.9054 LP  0  0  0  0  0  0  0  0  0  0  0  0  # atno 17321 bound_to 7965
  140.6102  143.9451  150.6447 LP  0  0  0  0  0  0  0  0  0  0  0  0  # atno 17342 bound_to 10162
  140.2691  143.3469  152.1254 LP  0  0  0  0  0  0  0  0  0  0  0  0  # atno 17343 bound_to 10162
  155.9803  130.4803  150.6767 LP  0  0  0  0  0  0  0  0  0  0  0  0  # atno 17370 bound_to 10713
  157.4374  131.0857  151.0978 LP  0  0  0  0  0  0  0  0  0  0  0  0  # atno 17371 bound_to 10713
  141.1506  133.6549  156.4002 LP  0  0  0  0  0  0  0  0  0  0  0  0  # atno 17394 bound_to 11000
  140.5043  134.6456  157.5260 LP  0  0  0  0  0  0  0  0  0  0  0  0  # atno 17395 bound_to 11000

$$$$
