AV-unprocessed.smi:1313|AV-procd|sdf|5451|dock1
  -GOLD-   22720 5 23D 1   1.00000     0.00000
 Structure written by MMmdl.
 37 38  0  0  0  0  0  0  0  0  1 V2000
  151.0995  143.3694  157.6737 C   0  0  0  0  0  0  0  0  0  0  0  0
  151.0338  142.0864  156.8741 C   0  0  0  0  0  0  0  0  0  0  0  0
  149.9907  142.0519  155.9637 N   0  0  0  0  0  0  0  0  0  0  0  0
  149.8458  140.9155  155.1876 C   0  0  0  0  0  0  0  0  0  0  0  0
  148.6764  140.9598  154.2191 C   0  0  0  0  0  0  0  0  0  0  0  0
  150.7003  139.8677  155.3096 C   0  0  0  0  0  0  0  0  0  0  0  0
  150.5745  138.5971  154.4713 C   0  0  0  0  0  0  0  0  0  0  0  0
  150.2743  137.3230  155.2629 C   0  0  0  0  0  0  0  0  0  0  0  0
  150.7075  137.1938  156.4076 O   0  0  0  0  0  0  0  0  0  0  0  0
  149.5412  136.3877  154.6399 N   0  0  0  0  0  0  0  0  0  0  0  0
  149.1747  135.0918  155.2045 C   0  0  0  0  0  0  0  0  0  0  0  0
  150.4246  134.2160  155.4185 C   0  0  0  0  0  0  0  0  0  0  0  0
  150.0955  132.8510  154.8111 C   0  0  0  0  0  0  0  0  0  0  0  0
  149.1077  133.1639  153.6920 C   0  0  0  0  0  0  0  0  0  0  0  0
  148.2537  134.2999  154.2549 C   0  0  0  0  0  0  0  0  0  0  0  0
  151.8026  139.9669  156.2956 C   0  0  0  0  0  0  0  0  0  0  0  0
  152.6187  139.0583  156.4439 O   0  0  0  0  0  0  0  0  0  0  0  0
  151.9004  141.1386  157.0637 N   0  0  0  0  0  0  0  0  0  0  0  0
  149.3341  142.8090  155.8398 H   0  0  0  0  0  0  0  0  0  0  0  0
  151.9254  143.3437  158.3856 H   0  0  0  0  0  0  0  0  0  0  0  0
  150.1742  143.5184  158.2309 H   0  0  0  0  0  0  0  0  0  0  0  0
  151.2473  144.2226  157.0110 H   0  0  0  0  0  0  0  0  0  0  0  0
  147.9784  140.1484  154.4251 H   0  0  0  0  0  0  0  0  0  0  0  0
  149.0275  140.8624  153.1919 H   0  0  0  0  0  0  0  0  0  0  0  0
  148.1276  141.8992  154.2951 H   0  0  0  0  0  0  0  0  0  0  0  0
  151.4993  138.4621  153.9092 H   0  0  0  0  0  0  0  0  0  0  0  0
  149.8055  138.7122  153.7069 H   0  0  0  0  0  0  0  0  0  0  0  0
  149.2255  136.5810  153.7005 H   0  0  0  0  0  0  0  0  0  0  0  0
  148.6695  135.2403  156.1608 H   0  0  0  0  0  0  0  0  0  0  0  0
  151.2853  134.6374  154.8967 H   0  0  0  0  0  0  0  0  0  0  0  0
  150.6957  134.1370  156.4716 H   0  0  0  0  0  0  0  0  0  0  0  0
  150.9818  132.3247  154.4553 H   0  0  0  0  0  0  0  0  0  0  0  0
  149.6129  132.2218  155.5600 H   0  0  0  0  0  0  0  0  0  0  0  0
  149.6487  133.5120  152.8112 H   0  0  0  0  0  0  0  0  0  0  0  0
  148.5141  132.2974  153.3989 H   0  0  0  0  0  0  0  0  0  0  0  0
  147.4278  133.8772  154.8288 H   0  0  0  0  0  0  0  0  0  0  0  0
  147.8128  134.9094  153.4650 H   0  0  0  0  0  0  0  0  0  0  0  0
  1 20  1  0  0  0  0
  1 21  1  0  0  0  0
  1 22  1  0  0  0  0
  1  2  1  0  0  0  0
  2  3  1  0  0  0  0
  2 18  2  0  0  0  0
  3  4  1  0  0  0  0
  3 19  1  0  0  0  0
  4  6  2  0  0  0  0
  4  5  1  0  0  0  0
  5 23  1  0  0  0  0
  5 24  1  0  0  0  0
  5 25  1  0  0  0  0
  6 16  1  0  0  0  0
  6  7  1  0  0  0  0
  7  8  1  0  0  0  0
  7 26  1  0  0  0  0
  7 27  1  0  0  0  0
  8  9  2  0  0  0  0
  8 10  1  0  0  0  0
 10 11  1  0  0  0  0
 10 28  1  0  0  0  0
 11 15  1  0  0  0  0
 11 12  1  0  0  0  0
 11 29  1  0  0  0  0
 12 13  1  0  0  0  0
 12 30  1  0  0  0  0
 12 31  1  0  0  0  0
 13 14  1  0  0  0  0
 13 32  1  0  0  0  0
 13 33  1  0  0  0  0
 14 15  1  0  0  0  0
 14 34  1  0  0  0  0
 14 35  1  0  0  0  0
 15 36  1  0  0  0  0
 15 37  1  0  0  0  0
 16 17  2  0  0  0  0
 16 18  1  0  0  0  0
M  END
> <s_m_source_file>
AV-unprocessed.smi

> <i_m_source_file_index>
1313

> <i_lp_mmshare_version>
43012

> <i_f3d_flags>
0

> <s_epik_input>
W0NIM11jMW5jKFtDSDNdKWMoYyg9TylbbkhdMSlbQ0gyXUMoPU8pW05IXVtDSF0yW0NIMl1bQ0gyXVtDSDJdW0NIMl0y

> <s_epik_cmdline>
J2VwaWtfcHl0aG9uJywgJy1waCcsICc3LjAnLCAnLXRuJywgJzgnLCAnLW1hJywgJzIwMCcsICctbWV0YWxfYmluZGluZycsICctaW1hZScsICc8aW5maWxlLm1hZT4nLCAnLW9tYWUnLCAnPG91dGZpbGUubWFlPic=

> <r_lp_tautomer_probability>
0.156392

> <r_epik_Ionization_Penalty>
0.0140409

> <r_epik_Ionization_Penalty_Charging>
0.0139177

> <r_epik_Ionization_Penalty_Neutral>
0.000123229

> <r_epik_State_Penalty>
1.53066

> <r_epik_Charging_Adjusted_Penalty>
1.54458

> <i_epik_Tot_Q>
0

> <i_epik_Tot_abs_Q>
0

> <r_epik_Metal_State_Penalty>
1.70649

> <b_epik_Metal_Only>
0

> <s_lp_Force_Field>
OPLS_2005

> <r_lp_Energy>
23.2441

> <b_lp_Chiralities_Consistent>
1

> <s_lp_Variant>
AV-unprocessed.smi:1313-2

> <Gold.Version>
5.8.1

> <Gold.Id.Protein>
6NUR|6NUR_protein|mol2

> <Gold.PLP.Fitness>
40.2001

> <Gold.PLP.PLP>
-32.0171

> <Gold.PLP.part.hbond>
-3.0000

> <Gold.PLP.part.metal>
0.0000

> <Gold.PLP.part.buried>
-0.9526

> <Gold.PLP.part.nonpolar>
-28.1131

> <Gold.PLP.part.repulsive>
0.1484

> <Gold.PLP.ligand.clash>
0.0000

> <Gold.PLP.ligand.torsion>
0.4099

> <Gold.PLP.Chemscore.Hbond>
3.0000

> <Gold.PLP.Chemscore.CHOScore>
0.0000

> <Gold.PLP.Chemscore.Metal>
0.0000

> <Gold.Chemscore.Hbonds>
donor molecule, donor type, donor heavy atom, donor atom, acceptor molecule, acceptor atom, score
      L1  H     3    19       P1  8028  1.00
      L1  H    10    28       P1  7948  1.00
      P1  H  7997  8010       L1    17  0.99

> <Gold.PLP.Chemscore.Internal.Correction>
0.0028

> <Gold.Rescore>
     Score         DG    S(hbond)    S(metal)    S(lipo)     H(rot)  DE(clash)    DE(int)     intcor
     14.25     -17.82       2.59        0.00      64.47       1.51       0.43       3.14       ----

> <Gold.Chemscore.Fitness>
14.2521

> <Gold.Chemscore.DG>
-17.8164

> <Gold.Chemscore.ZeroCoef>
-5.4800

> <Gold.Chemscore.Hbond>
2.5947

> <Gold.Chemscore.Metal>
0.0000

> <Gold.Chemscore.Lipo>
64.4670

> <Gold.Chemscore.Internal_Hbond>
0.0000

> <Gold.Chemscore.DEClash>
0.4289

> <Gold.Chemscore.DEInternal>
3.1355

> <Gold.Chemscore.Rot>
1.5128

> <Gold.Chemscore.Internal.Correction>
   9.000000E+99

> <Gold.Chemscore.Hbonds>
donor molecule, donor type, donor heavy atom, donor atom, acceptor molecule, acceptor atom, score
      L1  H     3    19       P1  8028  0.95
      L1  H    10    28       P1  7948  0.95
      P1  H  7997  8010       L1    17  0.24

> <Gold.Chemscore.Hbond.Weighted>
-8.6665

> <Gold.Chemscore.Metal.Weighted>
-0.0000

> <Gold.Chemscore.Lipo.Weighted>
-7.5426

> <Gold.Chemscore.Internal_Hbond.Weighted>
0.0000

> <Gold.Chemscore.DEClash.Weighted>
0.4289

> <Gold.Chemscore.DEInternal.Weighted>
3.1355

> <Gold.Chemscore.Rot.Weighted>
3.8727

> <Gold.Chemscore.Internal.Correction.Weighted>
   9.000000E+99

> <Gold.Protein.RotatedTorsions>
[ 6907 6896 6895 6894 ] final   64.78 input  -60.11 | X-H torsion
[ 7974 7965 7964 7962 ] final -148.34 input  175.53 | X-H torsion
[ 8008 7997 7996 7995 ] final   81.74 input   59.86 | X-H torsion
[ 10167 10162 10161 10158 ] final   -9.32 input  -65.29 | X-H torsion
[ 10718 10713 10712 10709 ] final   44.46 input   66.30 | X-H torsion
[ 10763 10752 10751 10750 ] final   66.73 input  -60.55 | X-H torsion
[ 11005 11000 10999 10996 ] final -160.77 input  -57.11 | X-H torsion

> <Gold.Protein.ActiveResidues>
 VAL166  LYS551  ARG553  GLY616  TRP617  ASP618  TYR619  PRO620  LYS621  CYS622 
 ASP623  PHE694  ASN695  SER759  ASP760  ASP761  ALA762  ILE779  LEU786  VAL792 
 PHE793  MET794  SER795  GLU796  ALA797  LYS798  CYS799  TRP800  GLU811  SER814 

> <Gold.Protein.RotatedAtoms>
  152.4358  134.5689  159.9915 H   0  0  0  0  0  0  0  0  0  0  0  0  # atno 6907 bound_to 6896
  151.5800  133.3373  159.3014 H   0  0  0  0  0  0  0  0  0  0  0  0  # atno 6908 bound_to 6896
  150.8256  134.7520  159.6874 H   0  0  0  0  0  0  0  0  0  0  0  0  # atno 6909 bound_to 6896
  144.8035  140.5209  143.5691 H   0  0  0  0  0  0  0  0  0  0  0  0  # atno 7974 bound_to 7965
  155.9012  140.3433  155.6028 H   0  0  0  0  0  0  0  0  0  0  0  0  # atno 8008 bound_to 7997
  155.7498  140.0818  157.2225 H   0  0  0  0  0  0  0  0  0  0  0  0  # atno 8009 bound_to 7997
  154.4044  140.1555  156.2698 H   0  0  0  0  0  0  0  0  0  0  0  0  # atno 8010 bound_to 7997
  140.7084  143.5871  150.8932 H   0  0  0  0  0  0  0  0  0  0  0  0  # atno 10167 bound_to 10162
  157.4271  130.8003  149.7568 H   0  0  0  0  0  0  0  0  0  0  0  0  # atno 10718 bound_to 10713
  153.0153  135.5310  154.6869 H   0  0  0  0  0  0  0  0  0  0  0  0  # atno 10763 bound_to 10752
  154.6014  135.2868  155.0533 H   0  0  0  0  0  0  0  0  0  0  0  0  # atno 10764 bound_to 10752
  154.1589  135.6551  153.5033 H   0  0  0  0  0  0  0  0  0  0  0  0  # atno 10765 bound_to 10752
  140.6278  134.4683  157.5228 H   0  0  0  0  0  0  0  0  0  0  0  0  # atno 11005 bound_to 11000
  145.5494  139.1476  143.3402 LP  0  0  0  0  0  0  0  0  0  0  0  0  # atno 17320 bound_to 7965
  146.2322  140.5632  142.8970 LP  0  0  0  0  0  0  0  0  0  0  0  0  # atno 17321 bound_to 7965
  139.9597  143.6178  152.3006 LP  0  0  0  0  0  0  0  0  0  0  0  0  # atno 17342 bound_to 10162
  139.6726  144.7660  151.1755 LP  0  0  0  0  0  0  0  0  0  0  0  0  # atno 17343 bound_to 10162
  155.9900  130.3947  150.3047 LP  0  0  0  0  0  0  0  0  0  0  0  0  # atno 17370 bound_to 10713
  157.1201  131.0244  151.3013 LP  0  0  0  0  0  0  0  0  0  0  0  0  # atno 17371 bound_to 10713
  139.9128  134.8309  156.1470 LP  0  0  0  0  0  0  0  0  0  0  0  0  # atno 17394 bound_to 11000
  141.0697  133.6803  156.2115 LP  0  0  0  0  0  0  0  0  0  0  0  0  # atno 17395 bound_to 11000

$$$$
