AV-unprocessed.smi:1565|AV-procd|sdf|6299|dock6
  -GOLD-   22720 6493D 1   1.00000     0.00000
 Structure written by MMmdl.
 40 41  0  0  0  0  0  0  0  0  1 V2000
  150.0526  141.3386  157.3409 C   0  0  0  0  0  0  0  0  0  0  0  0
  150.7292  142.3397  158.2832 C   0  0  1  0  0  0  0  0  0  0  0  0
  151.7957  141.6656  159.1649 C   0  0  0  0  0  0  0  0  0  0  0  0
  152.5080  142.6653  159.9538 N   0  0  0  0  0  0  0  0  0  0  0  0
  153.2702  142.1643  161.0308 C   0  0  0  0  0  0  0  0  0  0  0  0
  153.2200  142.8013  162.2930 C   0  0  0  0  0  0  0  0  0  0  0  0
  153.9840  142.2825  163.3557 C   0  0  0  0  0  0  0  0  0  0  0  0
  154.7764  141.1361  163.1382 C   0  0  0  0  0  0  0  0  0  0  0  0
  155.6202  140.5685  164.2428 C   0  0  0  0  0  0  0  0  0  0  0  0
  156.4031  139.6436  164.0256 O   0  0  0  0  0  0  0  0  0  0  0  0
  155.5002  141.1736  165.4353 N   0  0  0  0  0  0  0  0  0  0  0  0
  156.2594  140.8281  166.6327 C   0  0  0  0  0  0  0  0  0  0  0  0
  156.0018  141.8161  167.7830 C   0  0  0  0  0  0  0  0  0  0  0  0
  154.6891  142.0043  167.9113 F   0  0  0  0  0  0  0  0  0  0  0  0
  156.4773  141.3421  168.9343 F   0  0  0  0  0  0  0  0  0  0  0  0
  156.5773  142.9895  167.5200 F   0  0  0  0  0  0  0  0  0  0  0  0
  154.7774  140.5801  161.8394 C   0  0  0  0  0  0  0  0  0  0  0  0
  154.0471  141.0740  160.8175 N   0  0  0  0  0  0  0  0  0  0  0  0
  153.0848  143.7342  159.1414 C   0  0  0  0  0  0  0  0  0  0  0  0
  152.0200  144.3693  158.2261 C   0  0  2  0  0  0  0  0  0  0  0  0
  151.0466  145.2995  158.9722 C   0  0  0  0  0  0  0  0  0  0  0  0
  151.3377  143.3548  157.4858 O   0  0  0  0  0  0  0  0  0  0  0  0
  149.5607  140.5432  157.9011 H   0  0  0  0  0  0  0  0  0  0  0  0
  150.7772  140.8773  156.6692 H   0  0  0  0  0  0  0  0  0  0  0  0
  149.2964  141.8305  156.7285 H   0  0  0  0  0  0  0  0  0  0  0  0
  149.9578  142.7807  158.9149 H   0  0  0  0  0  0  0  0  0  0  0  0
  151.3163  140.9186  159.7962 H   0  0  0  0  0  0  0  0  0  0  0  0
  152.5176  141.1357  158.5421 H   0  0  0  0  0  0  0  0  0  0  0  0
  152.6199  143.6846  162.4532 H   0  0  0  0  0  0  0  0  0  0  0  0
  153.9549  142.7637  164.3226 H   0  0  0  0  0  0  0  0  0  0  0  0
  154.8508  141.9426  165.5148 H   0  0  0  0  0  0  0  0  0  0  0  0
  155.9613  139.8246  166.9384 H   0  0  0  0  0  0  0  0  0  0  0  0
  157.3262  140.7747  166.4089 H   0  0  0  0  0  0  0  0  0  0  0  0
  155.3804  139.7160  161.6019 H   0  0  0  0  0  0  0  0  0  0  0  0
  153.5279  144.5031  159.7759 H   0  0  0  0  0  0  0  0  0  0  0  0
  153.8881  143.3165  158.5326 H   0  0  0  0  0  0  0  0  0  0  0  0
  152.5401  144.9839  157.4909 H   0  0  0  0  0  0  0  0  0  0  0  0
  151.5802  146.1412  159.4138 H   0  0  0  0  0  0  0  0  0  0  0  0
  150.5243  144.7893  159.7811 H   0  0  0  0  0  0  0  0  0  0  0  0
  150.2975  145.7047  158.2918 H   0  0  0  0  0  0  0  0  0  0  0  0
  1  2  1  0  0  0  0
  1 23  1  0  0  0  0
  1 24  1  0  0  0  0
  1 25  1  0  0  0  0
  2 22  1  0  0  0  0
  2  3  1  0  0  0  0
  2 26  1  0  0  0  0
  3  4  1  0  0  0  0
  3 27  1  0  0  0  0
  3 28  1  0  0  0  0
  4  5  1  0  0  0  0
  4 19  1  0  0  0  0
  5 18  1  0  0  0  0
  5  6  2  0  0  0  0
  6  7  1  0  0  0  0
  6 29  1  0  0  0  0
  7  8  2  0  0  0  0
  7 30  1  0  0  0  0
  8  9  1  0  0  0  0
  8 17  1  0  0  0  0
  9 10  2  0  0  0  0
  9 11  1  0  0  0  0
 11 12  1  0  0  0  0
 11 31  1  0  0  0  0
 12 13  1  0  0  0  0
 12 32  1  0  0  0  0
 12 33  1  0  0  0  0
 13 14  1  0  0  0  0
 13 15  1  0  0  0  0
 13 16  1  0  0  0  0
 17 18  2  0  0  0  0
 17 34  1  0  0  0  0
 19 20  1  0  0  0  0
 19 35  1  0  0  0  0
 19 36  1  0  0  0  0
 20 21  1  0  0  0  0
 20 22  1  0  0  0  0
 20 37  1  0  0  0  0
 21 38  1  0  0  0  0
 21 39  1  0  0  0  0
 21 40  1  0  0  0  0
M  END
> <s_m_source_file>
AV-unprocessed.smi

> <i_m_source_file_index>
1565

> <i_lp_mmshare_version>
43012

> <i_f3d_flags>
0

> <s_epik_input>
W0NIM11bQ0BASF0xW0NIMl1OKFtDSDJdW0NASF0oTzEpW0NIM10pYzJbY0hdW2NIXWMoW2NIXW4yKUMoPU8pW05IXVtDSDJdQyhGKShGKUY=

> <s_epik_cmdline>
J2VwaWtfcHl0aG9uJywgJy1waCcsICc3LjAnLCAnLXRuJywgJzgnLCAnLW1hJywgJzIwMCcsICctbWV0YWxfYmluZGluZycsICctaW1hZScsICc8aW5maWxlLm1hZT4nLCAnLW9tYWUnLCAnPG91dGZpbGUubWFlPic=

> <r_lp_tautomer_probability>
1

> <r_epik_Ionization_Penalty>
1.48031e-05

> <r_epik_Ionization_Penalty_Charging>
0

> <r_epik_Ionization_Penalty_Neutral>
1.48031e-05

> <r_epik_State_Penalty>
-0

> <r_epik_Charging_Adjusted_Penalty>
0

> <i_epik_Tot_Q>
0

> <i_epik_Tot_abs_Q>
0

> <r_epik_Metal_State_Penalty>
0.00620302

> <b_epik_Metal_Only>
0

> <s_lp_Force_Field>
OPLS_2005

> <r_lp_Energy>
19.4369

> <b_lp_Chiralities_Consistent>
1

> <s_lp_Variant>
AV-unprocessed.smi:1565-3

> <Gold.Version>
5.8.1

> <Gold.Id.Protein>
6NUR|6NUR_protein|mol2

> <Gold.PLP.Fitness>
41.7503

> <Gold.PLP.PLP>
-42.7993

> <Gold.PLP.part.hbond>
0.0000

> <Gold.PLP.part.metal>
0.0000

> <Gold.PLP.part.buried>
-3.8692

> <Gold.PLP.part.nonpolar>
-38.3322

> <Gold.PLP.part.repulsive>
0.1939

> <Gold.PLP.ligand.clash>
0.0000

> <Gold.PLP.ligand.torsion>
0.6953

> <Gold.PLP.Chemscore.Hbond>
0.0000

> <Gold.PLP.Chemscore.CHOScore>
0.0000

> <Gold.PLP.Chemscore.Metal>
0.0000

> <Gold.PLP.Chemscore.Internal.Correction>
0.3416

> <Gold.Rescore>
     Score         DG    S(hbond)    S(metal)    S(lipo)     H(rot)  DE(clash)    DE(int)     intcor
     13.84     -14.62       0.00        0.00     106.72       1.31       0.21       0.57       ----

> <Gold.Chemscore.Fitness>
13.8444

> <Gold.Chemscore.DG>
-14.6243

> <Gold.Chemscore.ZeroCoef>
-5.4800

> <Gold.Chemscore.Hbond>
0.0000

> <Gold.Chemscore.Metal>
0.0000

> <Gold.Chemscore.Lipo>
106.7153

> <Gold.Chemscore.Internal_Hbond>
0.0000

> <Gold.Chemscore.DEClash>
0.2066

> <Gold.Chemscore.DEInternal>
0.5733

> <Gold.Chemscore.Rot>
1.3052

> <Gold.Chemscore.Internal.Correction>
   9.000000E+99

> <Gold.Chemscore.Hbond.Weighted>
-0.0000

> <Gold.Chemscore.Metal.Weighted>
-0.0000

> <Gold.Chemscore.Lipo.Weighted>
-12.4857

> <Gold.Chemscore.Internal_Hbond.Weighted>
0.0000

> <Gold.Chemscore.DEClash.Weighted>
0.2066

> <Gold.Chemscore.DEInternal.Weighted>
0.5733

> <Gold.Chemscore.Rot.Weighted>
3.3414

> <Gold.Chemscore.Internal.Correction.Weighted>
   9.000000E+99

> <Gold.Protein.RotatedTorsions>
[ 6907 6896 6895 6894 ] final   95.03 input  -60.11 | X-H torsion
[ 7974 7965 7964 7962 ] final   87.30 input  175.53 | X-H torsion
[ 8008 7997 7996 7995 ] final  -51.16 input   59.86 | X-H torsion
[ 10167 10162 10161 10158 ] final  143.46 input  -65.29 | X-H torsion
[ 10718 10713 10712 10709 ] final  111.70 input   66.30 | X-H torsion
[ 10763 10752 10751 10750 ] final -100.70 input  -60.55 | X-H torsion
[ 11005 11000 10999 10996 ] final  112.12 input  -57.11 | X-H torsion

> <Gold.Protein.ActiveResidues>
 VAL166  LYS551  ARG553  GLY616  TRP617  ASP618  TYR619  PRO620  LYS621  CYS622 
 ASP623  PHE694  ASN695  SER759  ASP760  ASP761  ALA762  ILE779  LEU786  VAL792 
 PHE793  MET794  SER795  GLU796  ALA797  LYS798  CYS799  TRP800  GLU811  SER814 

> <Gold.Protein.RotatedAtoms>
  152.5446  134.1102  159.8355 H   0  0  0  0  0  0  0  0  0  0  0  0  # atno 6907 bound_to 6896
  151.1170  133.5124  159.2611 H   0  0  0  0  0  0  0  0  0  0  0  0  # atno 6908 bound_to 6896
  151.1821  135.0375  159.8851 H   0  0  0  0  0  0  0  0  0  0  0  0  # atno 6909 bound_to 6896
  145.5608  139.2304  143.2460 H   0  0  0  0  0  0  0  0  0  0  0  0  # atno 7974 bound_to 7965
  154.4077  140.1254  156.4784 H   0  0  0  0  0  0  0  0  0  0  0  0  # atno 8008 bound_to 7997
  155.7110  140.3494  155.4954 H   0  0  0  0  0  0  0  0  0  0  0  0  # atno 8009 bound_to 7997
  155.9300  140.1068  157.1129 H   0  0  0  0  0  0  0  0  0  0  0  0  # atno 8010 bound_to 7997
  139.4969  144.6039  151.6421 H   0  0  0  0  0  0  0  0  0  0  0  0  # atno 10167 bound_to 10162
  157.6431  131.0955  150.6787 H   0  0  0  0  0  0  0  0  0  0  0  0  # atno 10718 bound_to 10713
  154.7600  135.4925  153.9446 H   0  0  0  0  0  0  0  0  0  0  0  0  # atno 10763 bound_to 10752
  153.1240  135.6738  153.9296 H   0  0  0  0  0  0  0  0  0  0  0  0  # atno 10764 bound_to 10752
  153.9019  135.3109  155.3427 H   0  0  0  0  0  0  0  0  0  0  0  0  # atno 10765 bound_to 10752
  139.8920  134.9523  156.6537 H   0  0  0  0  0  0  0  0  0  0  0  0  # atno 11005 bound_to 11000
  146.1852  140.6433  142.9171 LP  0  0  0  0  0  0  0  0  0  0  0  0  # atno 17320 bound_to 7965
  144.7484  140.5127  143.6819 LP  0  0  0  0  0  0  0  0  0  0  0  0  # atno 17321 bound_to 7965
  140.5695  144.0132  150.6209 LP  0  0  0  0  0  0  0  0  0  0  0  0  # atno 17342 bound_to 10162
  140.3245  143.3116  152.0750 LP  0  0  0  0  0  0  0  0  0  0  0  0  # atno 17343 bound_to 10162
  156.7107  130.4651  149.5548 LP  0  0  0  0  0  0  0  0  0  0  0  0  # atno 17370 bound_to 10713
  156.1731  130.6450  151.0862 LP  0  0  0  0  0  0  0  0  0  0  0  0  # atno 17371 bound_to 10713
  140.7501  133.8905  155.8340 LP  0  0  0  0  0  0  0  0  0  0  0  0  # atno 17394 bound_to 11000
  141.0008  134.1153  157.4319 LP  0  0  0  0  0  0  0  0  0  0  0  0  # atno 17395 bound_to 11000

$$$$
