AV-unprocessed.smi:3289|AV-procd|sdf|12608|dock5
  -GOLD-   2272018533D 1   1.00000     0.00000
 Structure written by MMmdl.
 40 41  0  0  0  0  0  0  0  0  2 V2000
  146.8992  138.5195  151.4617 C   0  0  0  0  0  0  0  0  0  0  0  0
  147.2622  138.6173  152.9522 C   0  0  0  0  0  0  0  0  0  0  0  0
  146.3516  137.7288  153.8112 C   0  0  0  0  0  0  0  0  0  0  0  0
  147.2581  140.0380  153.4471 C   0  0  0  0  0  0  0  0  0  0  0  0
  146.2251  140.8856  153.3558 N   0  3  0  0  0  0  0  0  0  0  0  0
  146.5344  142.0868  153.9313 C   0  0  0  0  0  0  0  0  0  0  0  0
  147.8095  141.9649  154.4153 C   0  0  0  0  0  0  0  0  0  0  0  0
  148.2276  140.6927  154.1153 N   0  0  0  0  0  0  0  0  0  0  0  0
  149.5383  140.1178  154.4531 C   0  0  0  0  0  0  0  0  0  0  0  0
  149.7526  140.0723  155.9673 C   0  0  0  0  0  0  0  0  0  0  0  0
  148.9893  139.4188  156.6783 O   0  0  0  0  0  0  0  0  0  0  0  0
  150.7733  140.7993  156.4466 N   0  0  0  0  0  0  0  0  0  0  0  0
  151.0788  141.0023  157.8583 C   0  0  0  0  0  0  0  0  0  0  0  0
  152.0307  142.1944  158.0585 C   0  0  1  0  0  0  0  0  0  0  0  0
  151.4760  143.5495  157.6254 C   0  0  0  0  0  0  0  0  0  0  0  0
  152.3790  144.5068  158.3732 C   0  0  0  0  0  0  0  0  0  0  0  0
  152.7234  143.7362  159.6510 C   0  0  0  0  0  0  0  0  0  0  0  0
  152.3002  142.3911  159.4384 O   0  0  0  0  0  0  0  0  0  0  0  0
  147.5694  139.1256  150.8517 H   0  0  0  0  0  0  0  0  0  0  0  0
  145.8796  138.8569  151.2734 H   0  0  0  0  0  0  0  0  0  0  0  0
  146.9761  137.4910  151.1079 H   0  0  0  0  0  0  0  0  0  0  0  0
  148.2852  138.2592  153.0549 H   0  0  0  0  0  0  0  0  0  0  0  0
  146.6549  137.7463  154.8583 H   0  0  0  0  0  0  0  0  0  0  0  0
  146.3867  136.6914  153.4770 H   0  0  0  0  0  0  0  0  0  0  0  0
  145.3137  138.0596  153.7605 H   0  0  0  0  0  0  0  0  0  0  0  0
  145.8411  142.9149  153.9560 H   0  0  0  0  0  0  0  0  0  0  0  0
  148.4357  142.6716  154.9406 H   0  0  0  0  0  0  0  0  0  0  0  0
  149.5807  139.1046  154.0519 H   0  0  0  0  0  0  0  0  0  0  0  0
  150.3173  140.6940  153.9520 H   0  0  0  0  0  0  0  0  0  0  0  0
  151.3561  141.2915  155.7851 H   0  0  0  0  0  0  0  0  0  0  0  0
  150.1679  141.1320  158.4450 H   0  0  0  0  0  0  0  0  0  0  0  0
  151.5531  140.0932  158.2281 H   0  0  0  0  0  0  0  0  0  0  0  0
  152.9791  142.0062  157.5519 H   0  0  0  0  0  0  0  0  0  0  0  0
  151.4976  143.6985  156.5461 H   0  0  0  0  0  0  0  0  0  0  0  0
  150.4459  143.6652  157.9664 H   0  0  0  0  0  0  0  0  0  0  0  0
  153.2848  144.6912  157.7941 H   0  0  0  0  0  0  0  0  0  0  0  0
  151.9031  145.4675  158.5718 H   0  0  0  0  0  0  0  0  0  0  0  0
  153.7940  143.7709  159.8546 H   0  0  0  0  0  0  0  0  0  0  0  0
  152.2010  144.1429  160.5172 H   0  0  0  0  0  0  0  0  0  0  0  0
  145.3401  140.6651  152.9165 H   0  0  0  0  0  0  0  0  0  0  0  0
  1  2  1  0  0  0  0
  1 19  1  0  0  0  0
  1 20  1  0  0  0  0
  1 21  1  0  0  0  0
  2  3  1  0  0  0  0
  2  4  1  0  0  0  0
  2 22  1  0  0  0  0
  3 23  1  0  0  0  0
  3 24  1  0  0  0  0
  3 25  1  0  0  0  0
  4  8  1  0  0  0  0
  4  5  2  0  0  0  0
  5  6  1  0  0  0  0
  5 40  1  0  0  0  0
  6  7  2  0  0  0  0
  6 26  1  0  0  0  0
  7  8  1  0  0  0  0
  7 27  1  0  0  0  0
  8  9  1  0  0  0  0
  9 10  1  0  0  0  0
  9 28  1  0  0  0  0
  9 29  1  0  0  0  0
 10 11  2  0  0  0  0
 10 12  1  0  0  0  0
 12 13  1  0  0  0  0
 12 30  1  0  0  0  0
 13 14  1  0  0  0  0
 13 31  1  0  0  0  0
 13 32  1  0  0  0  0
 14 18  1  0  0  0  0
 14 15  1  0  0  0  0
 14 33  1  0  0  0  0
 15 16  1  0  0  0  0
 15 34  1  0  0  0  0
 15 35  1  0  0  0  0
 16 17  1  0  0  0  0
 16 36  1  0  0  0  0
 16 37  1  0  0  0  0
 17 18  1  0  0  0  0
 17 38  1  0  0  0  0
 17 39  1  0  0  0  0
M  CHG  1   5   1
M  END
> <s_m_source_file>
AV-unprocessed.smi

> <i_m_source_file_index>
3289

> <i_lp_mmshare_version>
43012

> <i_f3d_flags>
0

> <s_epik_input>
W0NIM11bQ0hdKFtDSDNdKWMxbltjSF1bY0hdbjFbQ0gyXUMoPU8pW05IXVtDSDJdW0NAQEhdMltDSDJdW0NIMl1bQ0gyXU8y

> <s_epik_cmdline>
J2VwaWtfcHl0aG9uJywgJy1waCcsICc3LjAnLCAnLXRuJywgJzgnLCAnLW1hJywgJzIwMCcsICctbWV0YWxfYmluZGluZycsICctaW1hZScsICc8aW5maWxlLm1hZT4nLCAnLW9tYWUnLCAnPG91dGZpbGUubWFlPic=

> <r_lp_tautomer_probability>
1

> <r_epik_Ionization_Penalty>
0.274547

> <r_epik_Ionization_Penalty_Charging>
0

> <r_epik_Ionization_Penalty_Neutral>
0.274547

> <r_epik_State_Penalty>
0.266843

> <r_epik_Charging_Adjusted_Penalty>
0.266843

> <i_epik_Tot_Q>
1

> <i_epik_Tot_abs_Q>
1

> <r_epik_Metal_State_Penalty>
0.55046

> <b_epik_Metal_Only>
0

> <s_lp_Force_Field>
OPLS_2005

> <r_lp_Energy>
22.2551

> <b_lp_Chiralities_Consistent>
1

> <s_lp_Variant>
AV-unprocessed.smi:3289-2

> <Gold.Version>
5.8.1

> <Gold.Id.Protein>
6NUR|6NUR_protein|mol2

> <Gold.PLP.Fitness>
46.2496

> <Gold.PLP.PLP>
-37.7803

> <Gold.PLP.part.hbond>
-1.0000

> <Gold.PLP.part.metal>
0.0000

> <Gold.PLP.part.buried>
-1.9646

> <Gold.PLP.part.nonpolar>
-35.9904

> <Gold.PLP.part.repulsive>
0.0927

> <Gold.PLP.ligand.clash>
0.0000

> <Gold.PLP.ligand.torsion>
0.2835

> <Gold.PLP.Chemscore.Hbond>
2.0000

> <Gold.PLP.Chemscore.CHOScore>
0.9898

> <Gold.PLP.Chemscore.Metal>
0.0000

> <Gold.Chemscore.Hbonds>
donor molecule, donor type, donor heavy atom, donor atom, acceptor molecule, acceptor atom, score
      L1  H     5    40       P1 10175  2.00
      L1  C     7    27       P1  8028  1.00

> <Gold.PLP.Chemscore.Internal.Correction>
0.0668

> <Gold.Rescore>
     Score         DG    S(hbond)    S(metal)    S(lipo)     H(rot)  DE(clash)    DE(int)     intcor
     14.46     -15.18       0.91        0.00      95.87       1.78       0.24       0.48       ----

> <Gold.Chemscore.Fitness>
14.4609

> <Gold.Chemscore.DG>
-15.1820

> <Gold.Chemscore.ZeroCoef>
-5.4800

> <Gold.Chemscore.Hbond>
0.9136

> <Gold.Chemscore.Metal>
0.0000

> <Gold.Chemscore.Lipo>
95.8667

> <Gold.Chemscore.Internal_Hbond>
0.0000

> <Gold.Chemscore.DEClash>
0.2392

> <Gold.Chemscore.DEInternal>
0.4819

> <Gold.Chemscore.Rot>
1.7835

> <Gold.Chemscore.Internal.Correction>
   9.000000E+99

> <Gold.Chemscore.Hbonds>
donor molecule, donor type, donor heavy atom, donor atom, acceptor molecule, acceptor atom, score
      L1  H     5    40       P1 10175  0.65

> <Gold.Chemscore.Hbond.Weighted>
-3.0515

> <Gold.Chemscore.Metal.Weighted>
-0.0000

> <Gold.Chemscore.Lipo.Weighted>
-11.2164

> <Gold.Chemscore.Internal_Hbond.Weighted>
0.0000

> <Gold.Chemscore.DEClash.Weighted>
0.2392

> <Gold.Chemscore.DEInternal.Weighted>
0.4819

> <Gold.Chemscore.Rot.Weighted>
4.5659

> <Gold.Chemscore.Internal.Correction.Weighted>
   9.000000E+99

> <Gold.Protein.RotatedTorsions>
[ 6907 6896 6895 6894 ] final  143.39 input  -60.11 | X-H torsion
[ 7974 7965 7964 7962 ] final   47.34 input  175.53 | X-H torsion
[ 8008 7997 7996 7995 ] final -120.11 input   59.86 | X-H torsion
[ 10167 10162 10161 10158 ] final  -30.18 input  -65.29 | X-H torsion
[ 10718 10713 10712 10709 ] final   78.42 input   66.30 | X-H torsion
[ 10763 10752 10751 10750 ] final -144.38 input  -60.55 | X-H torsion
[ 11005 11000 10999 10996 ] final  -87.43 input  -57.11 | X-H torsion

> <Gold.Protein.ActiveResidues>
 VAL166  LYS551  ARG553  GLY616  TRP617  ASP618  TYR619  PRO620  LYS621  CYS622 
 ASP623  PHE694  ASN695  SER759  ASP760  ASP761  ALA762  ILE779  LEU786  VAL792 
 PHE793  MET794  SER795  GLU796  ALA797  LYS798  CYS799  TRP800  GLU811  SER814 

> <Gold.Protein.RotatedAtoms>
  152.2069  133.4882  159.5088 H   0  0  0  0  0  0  0  0  0  0  0  0  # atno 6907 bound_to 6896
  150.6981  134.1517  159.4152 H   0  0  0  0  0  0  0  0  0  0  0  0  # atno 6908 bound_to 6896
  151.9436  135.0202  160.0588 H   0  0  0  0  0  0  0  0  0  0  0  0  # atno 6909 bound_to 6896
  146.0307  139.4760  142.9839 H   0  0  0  0  0  0  0  0  0  0  0  0  # atno 7974 bound_to 7965
  155.1265  140.0399  157.2764 H   0  0  0  0  0  0  0  0  0  0  0  0  # atno 8008 bound_to 7997
  154.6574  140.2583  155.7120 H   0  0  0  0  0  0  0  0  0  0  0  0  # atno 8009 bound_to 7997
  156.2604  140.2824  156.1033 H   0  0  0  0  0  0  0  0  0  0  0  0  # atno 8010 bound_to 7997
  140.7252  143.3869  151.1499 H   0  0  0  0  0  0  0  0  0  0  0  0  # atno 10167 bound_to 10162
  157.6744  130.9867  150.1783 H   0  0  0  0  0  0  0  0  0  0  0  0  # atno 10718 bound_to 10713
  154.8430  135.3442  154.6337 H   0  0  0  0  0  0  0  0  0  0  0  0  # atno 10763 bound_to 10752
  153.6947  135.6973  153.5084 H   0  0  0  0  0  0  0  0  0  0  0  0  # atno 10764 bound_to 10752
  153.2568  135.4335  155.0809 H   0  0  0  0  0  0  0  0  0  0  0  0  # atno 10765 bound_to 10752
  141.1617  133.7511  156.9306 H   0  0  0  0  0  0  0  0  0  0  0  0  # atno 11005 bound_to 11000
  145.7045  141.0125  143.1486 LP  0  0  0  0  0  0  0  0  0  0  0  0  # atno 17320 bound_to 7965
  144.7029  139.8684  143.7439 LP  0  0  0  0  0  0  0  0  0  0  0  0  # atno 17321 bound_to 7965
  139.7467  143.8840  152.3065 LP  0  0  0  0  0  0  0  0  0  0  0  0  # atno 17342 bound_to 10162
  139.8680  144.7083  150.9021 LP  0  0  0  0  0  0  0  0  0  0  0  0  # atno 17343 bound_to 10162
  156.2521  130.3701  149.8221 LP  0  0  0  0  0  0  0  0  0  0  0  0  # atno 17370 bound_to 10713
  156.5990  130.8538  151.3427 LP  0  0  0  0  0  0  0  0  0  0  0  0  # atno 17371 bound_to 10713
  140.1389  134.9307  157.2439 LP  0  0  0  0  0  0  0  0  0  0  0  0  # atno 17394 bound_to 11000
  140.2861  134.3294  155.7328 LP  0  0  0  0  0  0  0  0  0  0  0  0  # atno 17395 bound_to 11000

$$$$
