AV-unprocessed.smi:2414|AV-procd|sdf|9538|dock1
  -GOLD-   2272013173D 1   1.00000     0.00000
 Structure written by MMmdl.
 43 44  0  0  0  0  0  0  0  0  1 V2000
  150.7584  142.6492  157.8859 C   0  0  0  0  0  0  0  0  0  0  0  0
  150.4557  141.7231  156.7573 C   0  0  0  0  0  0  0  0  0  0  0  0
  151.3475  141.0399  155.9681 C   0  0  0  0  0  0  0  0  0  0  0  0
  150.7437  140.2547  154.9834 N   0  0  0  0  0  0  0  0  0  0  0  0
  149.4101  140.3302  155.0165 C   0  0  0  0  0  0  0  0  0  0  0  0
  148.5085  139.6138  154.0569 C   0  0  2  0  0  0  0  0  0  0  0  0
  147.4470  140.5443  153.4541 C   0  0  0  0  0  0  0  0  0  0  0  0
  147.9095  138.3133  154.6386 C   0  0  0  0  0  0  0  0  0  0  0  0
  147.5301  137.3525  153.6069 N   0  0  0  0  0  0  0  0  0  0  0  0
  146.2759  136.9679  153.3365 C   0  0  0  0  0  0  0  0  0  0  0  0
  145.2878  137.3424  153.9680 O   0  0  0  0  0  0  0  0  0  0  0  0
  146.2305  136.1490  152.2777 N   0  0  0  0  0  0  0  0  0  0  0  0
  145.0219  135.5809  151.6863 C   0  0  0  0  0  0  0  0  0  0  0  0
  144.9987  134.0359  151.7449 C   0  0  1  0  0  0  0  0  0  0  0  0
  145.3435  133.5554  153.1653 C   0  0  0  0  0  0  0  0  0  0  0  0
  143.6810  133.4003  151.2575 C   0  0  0  0  0  0  0  0  0  0  0  0
  144.1507  132.1814  150.4941 C   0  0  0  0  0  0  0  0  0  0  0  0
  145.4384  132.6995  149.8713 C   0  0  0  0  0  0  0  0  0  0  0  0
  146.0153  133.5183  150.8819 O   0  0  0  0  0  0  0  0  0  0  0  0
  148.8100  141.3870  156.2894 S   0  0  0  0  0  0  0  0  0  0  0  0
  151.8318  142.7129  158.0649 H   0  0  0  0  0  0  0  0  0  0  0  0
  150.2833  142.3066  158.8052 H   0  0  0  0  0  0  0  0  0  0  0  0
  150.3939  143.6533  157.6703 H   0  0  0  0  0  0  0  0  0  0  0  0
  152.4253  141.0572  156.0340 H   0  0  0  0  0  0  0  0  0  0  0  0
  149.1439  139.3127  153.2232 H   0  0  0  0  0  0  0  0  0  0  0  0
  147.9099  141.3993  152.9606 H   0  0  0  0  0  0  0  0  0  0  0  0
  146.7734  140.9264  154.2217 H   0  0  0  0  0  0  0  0  0  0  0  0
  146.8432  140.0214  152.7121 H   0  0  0  0  0  0  0  0  0  0  0  0
  148.6497  137.8247  155.2729 H   0  0  0  0  0  0  0  0  0  0  0  0
  147.0544  138.5357  155.2790 H   0  0  0  0  0  0  0  0  0  0  0  0
  148.2742  136.9873  153.0310 H   0  0  0  0  0  0  0  0  0  0  0  0
  147.1019  135.9141  151.8255 H   0  0  0  0  0  0  0  0  0  0  0  0
  144.1762  135.9803  152.2466 H   0  0  0  0  0  0  0  0  0  0  0  0
  144.8878  135.9199  150.6576 H   0  0  0  0  0  0  0  0  0  0  0  0
  144.6063  133.9036  153.8895 H   0  0  0  0  0  0  0  0  0  0  0  0
  146.3186  133.9273  153.4811 H   0  0  0  0  0  0  0  0  0  0  0  0
  145.3753  132.4669  153.2218 H   0  0  0  0  0  0  0  0  0  0  0  0
  142.9958  133.1513  152.0682 H   0  0  0  0  0  0  0  0  0  0  0  0
  143.1444  134.0573  150.5749 H   0  0  0  0  0  0  0  0  0  0  0  0
  144.3654  131.3618  151.1807 H   0  0  0  0  0  0  0  0  0  0  0  0
  143.4278  131.8308  149.7575 H   0  0  0  0  0  0  0  0  0  0  0  0
  146.1136  131.8994  149.5679 H   0  0  0  0  0  0  0  0  0  0  0  0
  145.2202  133.3139  148.9966 H   0  0  0  0  0  0  0  0  0  0  0  0
  1  2  1  0  0  0  0
  1 21  1  0  0  0  0
  1 22  1  0  0  0  0
  1 23  1  0  0  0  0
  2 20  1  0  0  0  0
  2  3  2  0  0  0  0
  3  4  1  0  0  0  0
  3 24  1  0  0  0  0
  4  5  2  0  0  0  0
  5  6  1  0  0  0  0
  5 20  1  0  0  0  0
  6  7  1  0  0  0  0
  6  8  1  0  0  0  0
  6 25  1  0  0  0  0
  7 26  1  0  0  0  0
  7 27  1  0  0  0  0
  7 28  1  0  0  0  0
  8  9  1  0  0  0  0
  8 29  1  0  0  0  0
  8 30  1  0  0  0  0
  9 10  1  0  0  0  0
  9 31  1  0  0  0  0
 10 11  2  0  0  0  0
 10 12  1  0  0  0  0
 12 13  1  0  0  0  0
 12 32  1  0  0  0  0
 13 14  1  0  0  0  0
 13 33  1  0  0  0  0
 13 34  1  0  0  0  0
 14 19  1  0  0  0  0
 14 15  1  0  0  0  0
 14 16  1  0  0  0  0
 15 35  1  0  0  0  0
 15 36  1  0  0  0  0
 15 37  1  0  0  0  0
 16 17  1  0  0  0  0
 16 38  1  0  0  0  0
 16 39  1  0  0  0  0
 17 18  1  0  0  0  0
 17 40  1  0  0  0  0
 17 41  1  0  0  0  0
 18 19  1  0  0  0  0
 18 42  1  0  0  0  0
 18 43  1  0  0  0  0
M  END
> <s_m_source_file>
AV-unprocessed.smi

> <i_m_source_file_index>
2414

> <i_lp_mmshare_version>
43012

> <i_f3d_flags>
0

> <s_epik_input>
W0NIM11jMVtjSF1uYyhzMSlbQ0BIXShbQ0gzXSlbQ0gyXVtOSF1DKD1PKVtOSF1bQ0gyXVtDQEBdMihbQ0gzXSlbQ0gyXVtDSDJdW0NIMl1PMg==

> <s_epik_cmdline>
J2VwaWtfcHl0aG9uJywgJy1waCcsICc3LjAnLCAnLXRuJywgJzgnLCAnLW1hJywgJzIwMCcsICctbWV0YWxfYmluZGluZycsICctaW1hZScsICc8aW5maWxlLm1hZT4nLCAnLW9tYWUnLCAnPG91dGZpbGUubWFlPic=

> <r_epik_Ionization_Penalty>
0.000646956

> <r_epik_Ionization_Penalty_Charging>
0

> <r_epik_Ionization_Penalty_Neutral>
0.000646956

> <r_epik_State_Penalty>
0.000375727

> <r_epik_Charging_Adjusted_Penalty>
0.000375727

> <i_epik_Tot_Q>
0

> <i_epik_Tot_abs_Q>
0

> <r_epik_Metal_State_Penalty>
-0

> <b_epik_Metal_Only>
0

> <s_lp_Force_Field>
OPLS_2005

> <r_lp_Energy>
5.80605

> <b_lp_Chiralities_Consistent>
1

> <s_lp_Variant>
AV-unprocessed.smi:2414-1

> <Gold.Version>
5.8.1

> <Gold.Id.Protein>
6NUR|6NUR_protein|mol2

> <Gold.PLP.Fitness>
39.9993

> <Gold.PLP.PLP>
-32.3311

> <Gold.PLP.part.hbond>
-3.0000

> <Gold.PLP.part.metal>
0.0000

> <Gold.PLP.part.buried>
-3.6314

> <Gold.PLP.part.nonpolar>
-25.1464

> <Gold.PLP.part.repulsive>
0.3819

> <Gold.PLP.ligand.clash>
0.0000

> <Gold.PLP.ligand.torsion>
0.6879

> <Gold.PLP.Chemscore.Hbond>
2.9280

> <Gold.PLP.Chemscore.CHOScore>
0.0000

> <Gold.PLP.Chemscore.Metal>
0.0000

> <Gold.Chemscore.Hbonds>
donor molecule, donor type, donor heavy atom, donor atom, acceptor molecule, acceptor atom, score
      L1  H     9    31       P1  7948  1.00
      L1  H    12    32       P1  7948  0.90
      P1  H  7989  7998       L1     4  1.00

> <Gold.PLP.Chemscore.Internal.Correction>
0.2600

> <Gold.Rescore>
     Score         DG    S(hbond)    S(metal)    S(lipo)     H(rot)  DE(clash)    DE(int)     intcor
     19.48     -20.03       2.68        0.00      84.07       1.65       0.08       0.47       ----

> <Gold.Chemscore.Fitness>
19.4813

> <Gold.Chemscore.DG>
-20.0297

> <Gold.Chemscore.ZeroCoef>
-5.4800

> <Gold.Chemscore.Hbond>
2.6777

> <Gold.Chemscore.Metal>
0.0000

> <Gold.Chemscore.Lipo>
84.0669

> <Gold.Chemscore.Internal_Hbond>
0.0000

> <Gold.Chemscore.DEClash>
0.0804

> <Gold.Chemscore.DEInternal>
0.4680

> <Gold.Chemscore.Rot>
1.6522

> <Gold.Chemscore.Internal.Correction>
   9.000000E+99

> <Gold.Chemscore.Hbonds>
donor molecule, donor type, donor heavy atom, donor atom, acceptor molecule, acceptor atom, score
      L1  H     9    31       P1  7948  0.94
      L1  H    12    32       P1  7948  0.88
      P1  H  7989  7998       L1     4  0.25

> <Gold.Chemscore.Hbond.Weighted>
-8.9434

> <Gold.Chemscore.Metal.Weighted>
-0.0000

> <Gold.Chemscore.Lipo.Weighted>
-9.8358

> <Gold.Chemscore.Internal_Hbond.Weighted>
0.0000

> <Gold.Chemscore.DEClash.Weighted>
0.0804

> <Gold.Chemscore.DEInternal.Weighted>
0.4680

> <Gold.Chemscore.Rot.Weighted>
4.2295

> <Gold.Chemscore.Internal.Correction.Weighted>
   9.000000E+99

> <Gold.Protein.RotatedTorsions>
[ 6907 6896 6895 6894 ] final   22.63 input  -60.11 | X-H torsion
[ 7974 7965 7964 7962 ] final   40.82 input  175.53 | X-H torsion
[ 8008 7997 7996 7995 ] final  166.54 input   59.86 | X-H torsion
[ 10167 10162 10161 10158 ] final  155.82 input  -65.29 | X-H torsion
[ 10718 10713 10712 10709 ] final  135.51 input   66.30 | X-H torsion
[ 10763 10752 10751 10750 ] final  -42.81 input  -60.55 | X-H torsion
[ 11005 11000 10999 10996 ] final -157.40 input  -57.11 | X-H torsion

> <Gold.Protein.ActiveResidues>
 VAL166  LYS551  ARG553  GLY616  TRP617  ASP618  TYR619  PRO620  LYS621  CYS622 
 ASP623  PHE694  ASN695  SER759  ASP760  ASP761  ALA762  ILE779  LEU786  VAL792 
 PHE793  MET794  SER795  GLU796  ALA797  LYS798  CYS799  TRP800  GLU811  SER814 

> <Gold.Protein.RotatedAtoms>
  151.9300  135.0260  160.0528 H   0  0  0  0  0  0  0  0  0  0  0  0  # atno 6907 bound_to 6896
  152.2126  133.4918  159.5127 H   0  0  0  0  0  0  0  0  0  0  0  0  # atno 6908 bound_to 6896
  150.6980  134.1364  159.4131 H   0  0  0  0  0  0  0  0  0  0  0  0  # atno 6909 bound_to 6896
  146.0874  139.5488  142.9498 H   0  0  0  0  0  0  0  0  0  0  0  0  # atno 7974 bound_to 7965
  156.1709  140.1640  156.8448 H   0  0  0  0  0  0  0  0  0  0  0  0  # atno 8008 bound_to 7997
  154.5256  140.0768  156.8287 H   0  0  0  0  0  0  0  0  0  0  0  0  # atno 8009 bound_to 7997
  155.3514  140.3390  155.4241 H   0  0  0  0  0  0  0  0  0  0  0  0  # atno 8010 bound_to 7997
  139.4821  144.5065  151.8090 H   0  0  0  0  0  0  0  0  0  0  0  0  # atno 10167 bound_to 10162
  157.4563  131.1070  150.9974 H   0  0  0  0  0  0  0  0  0  0  0  0  # atno 10718 bound_to 10713
  153.9853  135.6712  153.4751 H   0  0  0  0  0  0  0  0  0  0  0  0  # atno 10763 bound_to 10752
  153.0730  135.4964  154.8341 H   0  0  0  0  0  0  0  0  0  0  0  0  # atno 10764 bound_to 10752
  154.7141  135.3103  154.9113 H   0  0  0  0  0  0  0  0  0  0  0  0  # atno 10765 bound_to 10752
  140.6650  134.4309  157.5233 H   0  0  0  0  0  0  0  0  0  0  0  0  # atno 11005 bound_to 11000
  145.6104  141.0340  143.1969 LP  0  0  0  0  0  0  0  0  0  0  0  0  # atno 17320 bound_to 7965
  144.7335  139.7654  143.7338 LP  0  0  0  0  0  0  0  0  0  0  0  0  # atno 17321 bound_to 7965
  140.4563  144.1785  150.5902 LP  0  0  0  0  0  0  0  0  0  0  0  0  # atno 17342 bound_to 10162
  140.4532  143.2478  151.9320 LP  0  0  0  0  0  0  0  0  0  0  0  0  # atno 17343 bound_to 10162
  157.0786  130.5894  149.5416 LP  0  0  0  0  0  0  0  0  0  0  0  0  # atno 17370 bound_to 10713
  156.0009  130.5087  150.7657 LP  0  0  0  0  0  0  0  0  0  0  0  0  # atno 17371 bound_to 10713
  139.9000  134.8578  156.1936 LP  0  0  0  0  0  0  0  0  0  0  0  0  # atno 17394 bound_to 11000
  141.0436  133.6925  156.1643 LP  0  0  0  0  0  0  0  0  0  0  0  0  # atno 17395 bound_to 11000

$$$$
