AV-unprocessed.smi:1518|AV-procd|sdf|6125|dock3
  -GOLD-   22720 6263D 1   1.00000     0.00000
 Structure written by MMmdl.
 45 47  0  0  0  0  0  0  0  0  1 V2000
  148.4888  132.3454  158.1102 C   0  0  0  0  0  0  0  0  0  0  0  0
  147.6153  132.3901  159.3631 C   0  0  0  0  0  0  0  0  0  0  0  0
  146.9536  131.3944  159.6554 O   0  0  0  0  0  0  0  0  0  0  0  0
  147.6136  133.6447  160.1698 C   0  0  0  0  0  0  0  0  0  0  0  0
  146.9127  133.6739  161.3966 C   0  0  0  0  0  0  0  0  0  0  0  0
  146.8946  134.8418  162.1799 C   0  0  0  0  0  0  0  0  0  0  0  0
  147.5753  135.9923  161.7443 C   0  0  0  0  0  0  0  0  0  0  0  0
  148.2797  135.9926  160.5245 C   0  0  0  0  0  0  0  0  0  0  0  0
  148.9142  137.1657  160.1746 O   0  0  0  0  0  0  0  0  0  0  0  0
  149.5386  137.2460  158.8997 C   0  0  0  0  0  0  0  0  0  0  0  0
  150.9557  137.8155  159.0743 C   0  0  1  0  0  0  0  0  0  0  0  0
  151.8882  136.7690  158.8878 O   0  0  0  0  0  0  0  0  0  0  0  0
  151.2503  138.9415  158.0615 C   0  0  0  0  0  0  0  0  0  0  0  0
  151.9655  140.0677  158.6510 N   0  0  0  0  0  0  0  0  0  0  0  0
  153.1826  140.0725  159.2544 C   0  0  0  0  0  0  0  0  0  0  0  0
  154.0112  138.8340  159.4160 C   0  0  0  0  0  0  0  0  0  0  0  0
  155.2298  138.8905  158.7075 O   0  0  0  0  0  0  0  0  0  0  0  0
  153.6008  141.2553  159.7062 N   0  0  0  0  0  0  0  0  0  0  0  0
  152.5570  142.0957  159.3740 C   0  0  0  0  0  0  0  0  0  0  0  0
  152.3919  143.4828  159.5882 C   0  0  0  0  0  0  0  0  0  0  0  0
  151.2194  144.1369  159.1571 C   0  0  0  0  0  0  0  0  0  0  0  0
  150.1979  143.4151  158.5064 C   0  0  0  0  0  0  0  0  0  0  0  0
  150.3430  142.0324  158.2827 C   0  0  0  0  0  0  0  0  0  0  0  0
  151.5154  141.3838  158.7149 C   0  0  0  0  0  0  0  0  0  0  0  0
  148.2949  134.8102  159.7408 C   0  0  0  0  0  0  0  0  0  0  0  0
  149.5355  132.5063  158.3685 H   0  0  0  0  0  0  0  0  0  0  0  0
  148.1791  133.1121  157.3998 H   0  0  0  0  0  0  0  0  0  0  0  0
  148.4044  131.3746  157.6212 H   0  0  0  0  0  0  0  0  0  0  0  0
  146.3823  132.8016  161.7510 H   0  0  0  0  0  0  0  0  0  0  0  0
  146.3574  134.8548  163.1169 H   0  0  0  0  0  0  0  0  0  0  0  0
  147.5560  136.8848  162.3527 H   0  0  0  0  0  0  0  0  0  0  0  0
  149.5675  136.2752  158.4015 H   0  0  0  0  0  0  0  0  0  0  0  0
  148.9542  137.9247  158.2761 H   0  0  0  0  0  0  0  0  0  0  0  0
  151.0650  138.2032  160.0866 H   0  0  0  0  0  0  0  0  0  0  0  0
  152.6517  137.1229  158.4574 H   0  0  0  0  0  0  0  0  0  0  0  0
  151.8413  138.5532  157.2309 H   0  0  0  0  0  0  0  0  0  0  0  0
  150.3233  139.3036  157.6186 H   0  0  0  0  0  0  0  0  0  0  0  0
  154.2365  138.6900  160.4734 H   0  0  0  0  0  0  0  0  0  0  0  0
  153.4426  137.9593  159.1018 H   0  0  0  0  0  0  0  0  0  0  0  0
  155.9006  139.2120  159.2902 H   0  0  0  0  0  0  0  0  0  0  0  0
  153.1688  144.0439  160.0859 H   0  0  0  0  0  0  0  0  0  0  0  0
  151.1034  145.1974  159.3265 H   0  0  0  0  0  0  0  0  0  0  0  0
  149.3031  143.9236  158.1788 H   0  0  0  0  0  0  0  0  0  0  0  0
  149.5629  141.4773  157.7829 H   0  0  0  0  0  0  0  0  0  0  0  0
  148.8310  134.7946  158.8053 H   0  0  0  0  0  0  0  0  0  0  0  0
  1  2  1  0  0  0  0
  1 26  1  0  0  0  0
  1 27  1  0  0  0  0
  1 28  1  0  0  0  0
  2  3  2  0  0  0  0
  2  4  1  0  0  0  0
  4 25  1  0  0  0  0
  4  5  2  0  0  0  0
  5  6  1  0  0  0  0
  5 29  1  0  0  0  0
  6  7  2  0  0  0  0
  6 30  1  0  0  0  0
  7  8  1  0  0  0  0
  7 31  1  0  0  0  0
  8  9  1  0  0  0  0
  8 25  2  0  0  0  0
  9 10  1  0  0  0  0
 10 11  1  0  0  0  0
 10 32  1  0  0  0  0
 10 33  1  0  0  0  0
 11 12  1  0  0  0  0
 11 13  1  0  0  0  0
 11 34  1  0  0  0  0
 12 35  1  0  0  0  0
 13 14  1  0  0  0  0
 13 36  1  0  0  0  0
 13 37  1  0  0  0  0
 14 24  1  0  0  0  0
 14 15  1  0  0  0  0
 15 16  1  0  0  0  0
 15 18  2  0  0  0  0
 16 17  1  0  0  0  0
 16 38  1  0  0  0  0
 16 39  1  0  0  0  0
 17 40  1  0  0  0  0
 18 19  1  0  0  0  0
 19 24  2  0  0  0  0
 19 20  1  0  0  0  0
 20 21  2  0  0  0  0
 20 41  1  0  0  0  0
 21 22  1  0  0  0  0
 21 42  1  0  0  0  0
 22 23  2  0  0  0  0
 22 43  1  0  0  0  0
 23 24  1  0  0  0  0
 23 44  1  0  0  0  0
 25 45  1  0  0  0  0
M  END
> <s_m_source_file>
AV-unprocessed.smi

> <i_m_source_file_index>
1518

> <i_lp_mmshare_version>
43012

> <i_f3d_flags>
0

> <s_epik_input>
W0NIM11DKD1PKWMxW2NIXVtjSF1bY0hdYyhbY0hdMSlPW0NIMl1bQ0BIXShbT0hdKVtDSDJdbihjKG4yKVtDSDJdW09IXSljKGMyMylbY0hdW2NIXVtjSF1bY0hdMw==

> <s_epik_cmdline>
J2VwaWtfcHl0aG9uJywgJy1waCcsICc3LjAnLCAnLXRuJywgJzgnLCAnLW1hJywgJzIwMCcsICctbWV0YWxfYmluZGluZycsICctaW1hZScsICc8aW5maWxlLm1hZT4nLCAnLW9tYWUnLCAnPG91dGZpbGUubWFlPic=

> <r_lp_tautomer_probability>
0.99995

> <r_epik_Ionization_Penalty>
0.0583159

> <r_epik_Ionization_Penalty_Charging>
0

> <r_epik_Ionization_Penalty_Neutral>
0.0583159

> <r_epik_State_Penalty>
0.0503525

> <r_epik_Charging_Adjusted_Penalty>
0.0503525

> <i_epik_Tot_Q>
0

> <i_epik_Tot_abs_Q>
0

> <r_epik_Metal_State_Penalty>
5.25517e-05

> <b_epik_Metal_Only>
0

> <s_lp_Force_Field>
OPLS_2005

> <r_lp_Energy>
23.8716

> <b_lp_Chiralities_Consistent>
1

> <s_lp_Variant>
AV-unprocessed.smi:1518-2

> <Gold.Version>
5.8.1

> <Gold.Id.Protein>
6NUR|6NUR_protein|mol2

> <Gold.PLP.Fitness>
51.5327

> <Gold.PLP.PLP>
-47.1099

> <Gold.PLP.part.hbond>
-3.4713

> <Gold.PLP.part.metal>
0.0000

> <Gold.PLP.part.buried>
-5.6266

> <Gold.PLP.part.nonpolar>
-38.6926

> <Gold.PLP.part.repulsive>
0.0000

> <Gold.PLP.ligand.clash>
0.0000

> <Gold.PLP.ligand.torsion>
1.6598

> <Gold.PLP.Chemscore.Hbond>
2.4080

> <Gold.PLP.Chemscore.CHOScore>
0.0000

> <Gold.PLP.Chemscore.Metal>
0.0000

> <Gold.Chemscore.Hbonds>
donor molecule, donor type, donor heavy atom, donor atom, acceptor molecule, acceptor atom, score
      P1  H  6896  6908       L1    12  0.86
      P1  H  6931  6943       L1     9  0.54
      P1  H  7997  8008       L1    17  1.00

> <Gold.PLP.Chemscore.Internal.Correction>
0.5184

> <Gold.Rescore>
     Score         DG    S(hbond)    S(metal)    S(lipo)     H(rot)  DE(clash)    DE(int)     intcor
     16.93     -18.64       2.36        0.00     116.15       3.25       0.01       1.70       ----

> <Gold.Chemscore.Fitness>
16.9301

> <Gold.Chemscore.DG>
-18.6382

> <Gold.Chemscore.ZeroCoef>
-5.4800

> <Gold.Chemscore.Hbond>
2.3605

> <Gold.Chemscore.Metal>
0.0000

> <Gold.Chemscore.Lipo>
116.1505

> <Gold.Chemscore.Internal_Hbond>
0.0000

> <Gold.Chemscore.DEClash>
0.0096

> <Gold.Chemscore.DEInternal>
1.6985

> <Gold.Chemscore.Rot>
3.2482

> <Gold.Chemscore.Internal.Correction>
   9.000000E+99

> <Gold.Chemscore.Hbonds>
donor molecule, donor type, donor heavy atom, donor atom, acceptor molecule, acceptor atom, score
      P1  H  6896  6908       L1    12  0.81
      P1  H  6931  6943       L1     9  0.28
      P1  H  7997  8008       L1    17  0.34

> <Gold.Chemscore.Hbond.Weighted>
-7.8841

> <Gold.Chemscore.Metal.Weighted>
-0.0000

> <Gold.Chemscore.Lipo.Weighted>
-13.5896

> <Gold.Chemscore.Internal_Hbond.Weighted>
0.0000

> <Gold.Chemscore.DEClash.Weighted>
0.0096

> <Gold.Chemscore.DEInternal.Weighted>
1.6985

> <Gold.Chemscore.Rot.Weighted>
8.3155

> <Gold.Chemscore.Internal.Correction.Weighted>
   9.000000E+99

> <Gold.Protein.RotatedTorsions>
[ 6907 6896 6895 6894 ] final -117.02 input  -60.11 | X-H torsion
[ 7974 7965 7964 7962 ] final  -60.41 input  175.53 | X-H torsion
[ 8008 7997 7996 7995 ] final -135.50 input   59.86 | X-H torsion
[ 10167 10162 10161 10158 ] final  -61.36 input  -65.29 | X-H torsion
[ 10718 10713 10712 10709 ] final -149.19 input   66.30 | X-H torsion
[ 10763 10752 10751 10750 ] final  128.02 input  -60.55 | X-H torsion
[ 11005 11000 10999 10996 ] final  134.94 input  -57.11 | X-H torsion

> <Gold.Protein.ActiveResidues>
 VAL166  LYS551  ARG553  GLY616  TRP617  ASP618  TYR619  PRO620  LYS621  CYS622 
 ASP623  PHE694  ASN695  SER759  ASP760  ASP761  ALA762  ILE779  LEU786  VAL792 
 PHE793  MET794  SER795  GLU796  ALA797  LYS798  CYS799  TRP800  GLU811  SER814 

> <Gold.Protein.RotatedAtoms>
  150.8102  133.8435  159.3185 H   0  0  0  0  0  0  0  0  0  0  0  0  # atno 6907 bound_to 6896
  151.6223  135.1029  160.0114 H   0  0  0  0  0  0  0  0  0  0  0  0  # atno 6908 bound_to 6896
  152.4194  133.7051  159.6503 H   0  0  0  0  0  0  0  0  0  0  0  0  # atno 6909 bound_to 6896
  145.8158  140.8571  143.0158 H   0  0  0  0  0  0  0  0  0  0  0  0  # atno 7974 bound_to 7965
  155.3797  140.0493  157.3044 H   0  0  0  0  0  0  0  0  0  0  0  0  # atno 8008 bound_to 7997
  154.5089  140.2184  155.9158 H   0  0  0  0  0  0  0  0  0  0  0  0  # atno 8009 bound_to 7997
  156.1558  140.3126  155.8730 H   0  0  0  0  0  0  0  0  0  0  0  0  # atno 8010 bound_to 7997
  140.6011  143.2362  151.5926 H   0  0  0  0  0  0  0  0  0  0  0  0  # atno 10167 bound_to 10162
  156.4299  130.8070  151.2297 H   0  0  0  0  0  0  0  0  0  0  0  0  # atno 10718 bound_to 10713
  153.7188  135.3256  155.3262 H   0  0  0  0  0  0  0  0  0  0  0  0  # atno 10763 bound_to 10752
  154.8362  135.4494  154.1239 H   0  0  0  0  0  0  0  0  0  0  0  0  # atno 10764 bound_to 10752
  153.2353  135.6965  153.7923 H   0  0  0  0  0  0  0  0  0  0  0  0  # atno 10765 bound_to 10752
  139.9947  134.9502  156.9938 H   0  0  0  0  0  0  0  0  0  0  0  0  # atno 11005 bound_to 11000
  144.6752  140.0461  143.7480 LP  0  0  0  0  0  0  0  0  0  0  0  0  # atno 17320 bound_to 7965
  145.9728  139.2883  143.1088 LP  0  0  0  0  0  0  0  0  0  0  0  0  # atno 17321 bound_to 7965
  139.5292  144.2967  152.1107 LP  0  0  0  0  0  0  0  0  0  0  0  0  # atno 17342 bound_to 10162
  140.2148  144.4526  150.6369 LP  0  0  0  0  0  0  0  0  0  0  0  0  # atno 17343 bound_to 10162
  157.7508  131.0201  150.3697 LP  0  0  0  0  0  0  0  0  0  0  0  0  # atno 17370 bound_to 10713
  156.4032  130.3920  149.6945 LP  0  0  0  0  0  0  0  0  0  0  0  0  # atno 17371 bound_to 10713
  140.4840  134.1260  155.7221 LP  0  0  0  0  0  0  0  0  0  0  0  0  # atno 17394 bound_to 11000
  141.1595  133.8820  157.1887 LP  0  0  0  0  0  0  0  0  0  0  0  0  # atno 17395 bound_to 11000

$$$$
