AV-unprocessed.smi:1629|AV-procd|sdf|6522|dock2
  -GOLD-   22720 7193D 1   1.00000     0.00000
 Structure written by MMmdl.
 45 46  0  0  0  0  0  0  0  0  2 V2000
  147.2637  135.2938  162.6568 C   0  0  0  0  0  0  0  0  0  0  0  0
  147.4713  136.4740  161.2634 S   0  0  0  0  0  0  0  0  0  0  0  0
  146.3887  137.4681  161.3151 O   0  0  0  0  0  0  0  0  0  0  0  0
  148.8766  136.9076  161.2312 O   0  0  0  0  0  0  0  0  0  0  0  0
  147.1900  135.4694  159.8871 N   0  0  0  0  0  0  0  0  0  0  0  0
  147.4270  136.0073  158.5445 C   0  0  0  0  0  0  0  0  0  0  0  0
  148.7920  136.7272  158.4755 C   0  0  0  0  0  0  0  0  0  0  0  0
  148.9684  137.4501  157.1277 C   0  0  0  0  0  0  0  0  0  0  0  0
  147.8452  138.3835  156.9330 N   0  0  0  0  0  0  0  0  0  0  0  0
  147.9005  139.7359  157.0319 C   0  0  0  0  0  0  0  0  0  0  0  0
  146.9006  140.4480  157.1354 O   0  0  0  0  0  0  0  0  0  0  0  0
  149.1366  140.2558  156.9578 N   0  0  0  0  0  0  0  0  0  0  0  0
  149.4370  141.6803  156.9921 C   0  0  0  0  0  0  0  0  0  0  0  0
  150.9529  141.9168  156.9530 C   0  0  0  0  0  0  0  0  0  0  0  0
  151.3896  142.9919  157.9297 C   0  0  0  0  0  0  0  0  0  0  0  0
  152.3578  142.7499  158.9285 C   0  0  0  0  0  0  0  0  0  0  0  0
  152.7267  143.7968  159.7989 C   0  0  0  0  0  0  0  0  0  0  0  0
  152.1216  145.0622  159.6520 C   0  0  0  0  0  0  0  0  0  0  0  0
  151.1625  145.2494  158.6358 C   0  0  0  0  0  0  0  0  0  0  0  0
  150.8359  144.2217  157.8214 N   0  3  0  0  0  0  0  0  0  0  0  0
  146.5690  137.6649  156.8235 C   0  0  0  0  0  0  0  0  0  0  0  0
  146.2745  136.9558  158.1574 C   0  0  0  0  0  0  0  0  0  0  0  0
  147.4291  135.8140  163.6001 H   0  0  0  0  0  0  0  0  0  0  0  0
  147.9871  134.4844  162.5586 H   0  0  0  0  0  0  0  0  0  0  0  0
  146.2542  134.8836  162.6411 H   0  0  0  0  0  0  0  0  0  0  0  0
  146.2783  135.0163  159.9458 H   0  0  0  0  0  0  0  0  0  0  0  0
  147.4323  135.1790  157.8350 H   0  0  0  0  0  0  0  0  0  0  0  0
  148.8720  137.4521  159.2869 H   0  0  0  0  0  0  0  0  0  0  0  0
  149.6038  136.0129  158.6161 H   0  0  0  0  0  0  0  0  0  0  0  0
  149.9497  137.9225  157.0937 H   0  0  0  0  0  0  0  0  0  0  0  0
  148.9708  136.7221  156.3151 H   0  0  0  0  0  0  0  0  0  0  0  0
  149.9146  139.6200  156.8578 H   0  0  0  0  0  0  0  0  0  0  0  0
  148.9639  142.1713  156.1398 H   0  0  0  0  0  0  0  0  0  0  0  0
  149.0079  142.1160  157.8958 H   0  0  0  0  0  0  0  0  0  0  0  0
  151.4831  140.9914  157.1837 H   0  0  0  0  0  0  0  0  0  0  0  0
  151.2599  142.2048  155.9465 H   0  0  0  0  0  0  0  0  0  0  0  0
  152.8152  141.7760  159.0263 H   0  0  0  0  0  0  0  0  0  0  0  0
  153.4658  143.6318  160.5693 H   0  0  0  0  0  0  0  0  0  0  0  0
  152.3901  145.8770  160.3088 H   0  0  0  0  0  0  0  0  0  0  0  0
  150.6509  146.1828  158.4510 H   0  0  0  0  0  0  0  0  0  0  0  0
  145.7382  138.3202  156.5582 H   0  0  0  0  0  0  0  0  0  0  0  0
  146.6349  136.9333  156.0169 H   0  0  0  0  0  0  0  0  0  0  0  0
  145.3394  136.3995  158.0842 H   0  0  0  0  0  0  0  0  0  0  0  0
  146.1293  137.7050  158.9374 H   0  0  0  0  0  0  0  0  0  0  0  0
  150.1399  144.3806  157.0924 H   0  0  0  0  0  0  0  0  0  0  0  0
  1  2  1  0  0  0  0
  1 23  1  0  0  0  0
  1 24  1  0  0  0  0
  1 25  1  0  0  0  0
  2  3  2  0  0  0  0
  2  4  2  0  0  0  0
  2  5  1  0  0  0  0
  5  6  1  0  0  0  0
  5 26  1  0  0  0  0
  6 22  1  0  0  0  0
  6  7  1  0  0  0  0
  6 27  1  0  0  0  0
  7  8  1  0  0  0  0
  7 28  1  0  0  0  0
  7 29  1  0  0  0  0
  8  9  1  0  0  0  0
  8 30  1  0  0  0  0
  8 31  1  0  0  0  0
  9 10  1  0  0  0  0
  9 21  1  0  0  0  0
 10 11  2  0  0  0  0
 10 12  1  0  0  0  0
 12 13  1  0  0  0  0
 12 32  1  0  0  0  0
 13 14  1  0  0  0  0
 13 33  1  0  0  0  0
 13 34  1  0  0  0  0
 14 15  1  0  0  0  0
 14 35  1  0  0  0  0
 14 36  1  0  0  0  0
 15 20  1  0  0  0  0
 15 16  2  0  0  0  0
 16 17  1  0  0  0  0
 16 37  1  0  0  0  0
 17 18  2  0  0  0  0
 17 38  1  0  0  0  0
 18 19  1  0  0  0  0
 18 39  1  0  0  0  0
 19 20  2  0  0  0  0
 19 40  1  0  0  0  0
 20 45  1  0  0  0  0
 21 22  1  0  0  0  0
 21 41  1  0  0  0  0
 21 42  1  0  0  0  0
 22 43  1  0  0  0  0
 22 44  1  0  0  0  0
M  CHG  1  20   1
M  END
> <s_m_source_file>
AV-unprocessed.smi

> <i_m_source_file_index>
1629

> <i_lp_mmshare_version>
43012

> <i_f3d_flags>
0

> <s_epik_input>
W0NIM11TKD1PKSg9TylbTkhdW0NIXTFbQ0gyXVtDSDJdTihbQ0gyXVtDSDJdMSlDKD1PKVtOSF1bQ0gyXVtDSDJdYzJbY0hdW2NIXVtjSF1bY0hdbjI=

> <s_epik_cmdline>
J2VwaWtfcHl0aG9uJywgJy1waCcsICc3LjAnLCAnLXRuJywgJzgnLCAnLW1hJywgJzIwMCcsICctbWV0YWxfYmluZGluZycsICctaW1hZScsICc8aW5maWxlLm1hZT4nLCAnLW9tYWUnLCAnPG91dGZpbGUubWFlPic=

> <r_epik_Ionization_Penalty>
1.55223

> <r_epik_Ionization_Penalty_Charging>
1.55216

> <r_epik_Ionization_Penalty_Neutral>
6.06433e-05

> <r_epik_State_Penalty>
1.64647

> <r_epik_Charging_Adjusted_Penalty>
3.19864

> <i_epik_Tot_Q>
1

> <i_epik_Tot_abs_Q>
1

> <r_epik_Metal_State_Penalty>
1.69511

> <b_epik_Metal_Only>
0

> <s_lp_Force_Field>
OPLS_2005

> <r_lp_Energy>
29.0489

> <b_lp_Chiralities_Consistent>
1

> <s_lp_Variant>
AV-unprocessed.smi:1629-2

> <Gold.Version>
5.8.1

> <Gold.Id.Protein>
6NUR|6NUR_protein|mol2

> <Gold.PLP.Fitness>
45.8909

> <Gold.PLP.PLP>
-34.9025

> <Gold.PLP.part.hbond>
-2.8163

> <Gold.PLP.part.metal>
0.0000

> <Gold.PLP.part.buried>
-5.0175

> <Gold.PLP.part.nonpolar>
-26.7584

> <Gold.PLP.part.repulsive>
0.0729

> <Gold.PLP.ligand.clash>
0.0000

> <Gold.PLP.ligand.torsion>
0.5933

> <Gold.PLP.Chemscore.Hbond>
3.9913

> <Gold.PLP.Chemscore.CHOScore>
0.0000

> <Gold.PLP.Chemscore.Metal>
0.0000

> <Gold.Chemscore.Hbonds>
donor molecule, donor type, donor heavy atom, donor atom, acceptor molecule, acceptor atom, score
      L1  H    20    45       P1  8028  2.00
      P1  H  6931  6943       L1     4  0.93
      P1  H  6934  6947       L1     3  1.00

> <Gold.PLP.Chemscore.Internal.Correction>
0.2013

> <Gold.Rescore>
     Score         DG    S(hbond)    S(metal)    S(lipo)     H(rot)  DE(clash)    DE(int)     intcor
     16.50     -18.45       2.43        0.00      88.11       2.13       0.01       1.94       ----

> <Gold.Chemscore.Fitness>
16.4977

> <Gold.Chemscore.DG>
-18.4478

> <Gold.Chemscore.ZeroCoef>
-5.4800

> <Gold.Chemscore.Hbond>
2.4307

> <Gold.Chemscore.Metal>
0.0000

> <Gold.Chemscore.Lipo>
88.1078

> <Gold.Chemscore.Internal_Hbond>
0.0000

> <Gold.Chemscore.DEClash>
0.0120

> <Gold.Chemscore.DEInternal>
1.9381

> <Gold.Chemscore.Rot>
2.1326

> <Gold.Chemscore.Internal.Correction>
   9.000000E+99

> <Gold.Chemscore.Hbonds>
donor molecule, donor type, donor heavy atom, donor atom, acceptor molecule, acceptor atom, score
      L1  H    20    45       P1  8028  0.70
      P1  H  6931  6943       L1     4  0.71
      P1  H  6934  6947       L1     3  0.55

> <Gold.Chemscore.Hbond.Weighted>
-8.1187

> <Gold.Chemscore.Metal.Weighted>
-0.0000

> <Gold.Chemscore.Lipo.Weighted>
-10.3086

> <Gold.Chemscore.Internal_Hbond.Weighted>
0.0000

> <Gold.Chemscore.DEClash.Weighted>
0.0120

> <Gold.Chemscore.DEInternal.Weighted>
1.9381

> <Gold.Chemscore.Rot.Weighted>
5.4595

> <Gold.Chemscore.Internal.Correction.Weighted>
   9.000000E+99

> <Gold.Protein.RotatedTorsions>
[ 6907 6896 6895 6894 ] final  145.28 input  -60.11 | X-H torsion
[ 7974 7965 7964 7962 ] final   57.40 input  175.53 | X-H torsion
[ 8008 7997 7996 7995 ] final  -47.44 input   59.86 | X-H torsion
[ 10167 10162 10161 10158 ] final    8.61 input  -65.29 | X-H torsion
[ 10718 10713 10712 10709 ] final  -55.57 input   66.30 | X-H torsion
[ 10763 10752 10751 10750 ] final  -77.42 input  -60.55 | X-H torsion
[ 11005 11000 10999 10996 ] final   -4.14 input  -57.11 | X-H torsion

> <Gold.Protein.ActiveResidues>
 VAL166  LYS551  ARG553  GLY616  TRP617  ASP618  TYR619  PRO620  LYS621  CYS622 
 ASP623  PHE694  ASN695  SER759  ASP760  ASP761  ALA762  ILE779  LEU786  VAL792 
 PHE793  MET794  SER795  GLU796  ALA797  LYS798  CYS799  TRP800  GLU811  SER814 

> <Gold.Protein.RotatedAtoms>
  152.1829  133.4720  159.4967 H   0  0  0  0  0  0  0  0  0  0  0  0  # atno 6907 bound_to 6896
  150.6937  134.1810  159.4258 H   0  0  0  0  0  0  0  0  0  0  0  0  # atno 6908 bound_to 6896
  151.9722  135.0070  160.0604 H   0  0  0  0  0  0  0  0  0  0  0  0  # atno 6909 bound_to 6896
  145.9294  139.3795  143.0430 H   0  0  0  0  0  0  0  0  0  0  0  0  # atno 7974 bound_to 7965
  154.4017  140.1346  156.4176 H   0  0  0  0  0  0  0  0  0  0  0  0  # atno 8008 bound_to 7997
  155.7674  140.3484  155.5209 H   0  0  0  0  0  0  0  0  0  0  0  0  # atno 8009 bound_to 7997
  155.8800  140.0986  157.1482 H   0  0  0  0  0  0  0  0  0  0  0  0  # atno 8010 bound_to 7997
  140.6304  143.8006  150.7288 H   0  0  0  0  0  0  0  0  0  0  0  0  # atno 10167 bound_to 10162
  156.1358  130.4157  150.0188 H   0  0  0  0  0  0  0  0  0  0  0  0  # atno 10718 bound_to 10713
  154.5127  135.5764  153.6617 H   0  0  0  0  0  0  0  0  0  0  0  0  # atno 10763 bound_to 10752
  152.9900  135.6162  154.2858 H   0  0  0  0  0  0  0  0  0  0  0  0  # atno 10764 bound_to 10752
  154.2773  135.2852  155.2692 H   0  0  0  0  0  0  0  0  0  0  0  0  # atno 10765 bound_to 10752
  140.6770  133.9186  155.8531 H   0  0  0  0  0  0  0  0  0  0  0  0  # atno 11005 bound_to 11000
  145.8446  140.9562  143.0781 LP  0  0  0  0  0  0  0  0  0  0  0  0  # atno 17320 bound_to 7965
  144.6763  140.0328  143.7482 LP  0  0  0  0  0  0  0  0  0  0  0  0  # atno 17321 bound_to 7965
  140.1616  143.4270  152.2063 LP  0  0  0  0  0  0  0  0  0  0  0  0  # atno 17342 bound_to 10162
  139.5519  144.7344  151.4409 LP  0  0  0  0  0  0  0  0  0  0  0  0  # atno 17343 bound_to 10162
  156.8088  130.9317  151.3644 LP  0  0  0  0  0  0  0  0  0  0  0  0  # atno 17370 bound_to 10713
  157.6531  130.8901  149.9673 LP  0  0  0  0  0  0  0  0  0  0  0  0  # atno 17371 bound_to 10713
  141.0347  134.0706  157.3973 LP  0  0  0  0  0  0  0  0  0  0  0  0  # atno 17394 bound_to 11000
  139.8963  135.0145  156.7046 LP  0  0  0  0  0  0  0  0  0  0  0  0  # atno 17395 bound_to 11000

$$$$
