AV-unprocessed.smi:1025|AV-procd|sdf|4467|dock2
  -GOLD-   22720 2443D 1   1.00000     0.00000
 Structure written by MMmdl.
 51 52  0  0  0  0  0  0  0  0  1 V2000
  151.1020  137.9753  154.3391 C   0  0  0  0  0  0  0  0  0  0  0  0
  150.2276  139.0700  154.7310 N   0  0  0  0  0  0  0  0  0  0  0  0
  150.6190  140.1311  155.4519 C   0  0  0  0  0  0  0  0  0  0  0  0
  151.7747  140.2739  155.8510 O   0  0  0  0  0  0  0  0  0  0  0  0
  149.5361  141.1817  155.7634 C   0  0  2  0  0  0  0  0  0  0  0  0
  148.3764  140.6085  156.6108 C   0  0  0  0  0  0  0  0  0  0  0  0
  147.3859  139.7499  155.8024 C   0  0  0  0  0  0  0  0  0  0  0  0
  146.8471  140.5142  154.5777 C   0  0  2  0  0  0  0  0  0  0  0  0
  145.9601  139.6634  153.7902 N   0  0  0  0  0  0  0  0  0  0  0  0
  146.1917  138.3804  153.4789 C   0  0  0  0  0  0  0  0  0  0  0  0
  147.2023  137.7704  153.8256 O   0  0  0  0  0  0  0  0  0  0  0  0
  145.1792  137.8688  152.7585 N   0  0  0  0  0  0  0  0  0  0  0  0
  145.0164  136.5474  152.2610 C   0  0  0  0  0  0  0  0  0  0  0  0
  143.9103  136.0782  151.5121 C   0  0  0  0  0  0  0  0  0  0  0  0
  143.8389  134.8014  151.0793 N   0  0  0  0  0  0  0  0  0  0  0  0
  144.8351  133.9702  151.4118 C   0  0  0  0  0  0  0  0  0  0  0  0
  144.8208  132.5669  150.7804 C   0  0  0  0  0  0  0  0  0  0  0  0
  146.0251  132.3728  149.8295 C   0  0  0  0  0  0  0  0  0  0  0  0
  143.5087  132.3702  149.9990 C   0  0  0  0  0  0  0  0  0  0  0  0
  144.9474  131.4671  151.8610 C   0  0  0  0  0  0  0  0  0  0  0  0
  145.9363  134.3228  152.0878 N   0  0  0  0  0  0  0  0  0  0  0  0
  146.0207  135.5957  152.5274 C   0  0  0  0  0  0  0  0  0  0  0  0
  148.0015  141.0147  153.6920 C   0  0  0  0  0  0  0  0  0  0  0  0
  148.9947  141.8776  154.4926 C   0  0  0  0  0  0  0  0  0  0  0  0
  150.5432  137.2447  153.7544 H   0  0  0  0  0  0  0  0  0  0  0  0
  151.5091  137.4706  155.2163 H   0  0  0  0  0  0  0  0  0  0  0  0
  151.9307  138.3383  153.7296 H   0  0  0  0  0  0  0  0  0  0  0  0
  149.2631  139.0195  154.4362 H   0  0  0  0  0  0  0  0  0  0  0  0
  150.0174  141.9540  156.3661 H   0  0  0  0  0  0  0  0  0  0  0  0
  148.7703  140.0250  157.4442 H   0  0  0  0  0  0  0  0  0  0  0  0
  147.8309  141.4375  157.0631 H   0  0  0  0  0  0  0  0  0  0  0  0
  147.8647  138.8238  155.4834 H   0  0  0  0  0  0  0  0  0  0  0  0
  146.5596  139.4525  156.4491 H   0  0  0  0  0  0  0  0  0  0  0  0
  146.2889  141.3858  154.9253 H   0  0  0  0  0  0  0  0  0  0  0  0
  145.1031  140.0842  153.4624 H   0  0  0  0  0  0  0  0  0  0  0  0
  144.4051  138.4924  152.5827 H   0  0  0  0  0  0  0  0  0  0  0  0
  143.0695  136.6993  151.2486 H   0  0  0  0  0  0  0  0  0  0  0  0
  146.0446  131.3643  149.4149 H   0  0  0  0  0  0  0  0  0  0  0  0
  146.9711  132.5317  150.3488 H   0  0  0  0  0  0  0  0  0  0  0  0
  145.9929  133.0597  148.9831 H   0  0  0  0  0  0  0  0  0  0  0  0
  143.4052  133.1118  149.2062 H   0  0  0  0  0  0  0  0  0  0  0  0
  142.6407  132.4650  150.6525 H   0  0  0  0  0  0  0  0  0  0  0  0
  143.4651  131.3846  149.5346 H   0  0  0  0  0  0  0  0  0  0  0  0
  144.9824  130.4732  151.4141 H   0  0  0  0  0  0  0  0  0  0  0  0
  144.1018  131.4713  152.5497 H   0  0  0  0  0  0  0  0  0  0  0  0
  145.8559  131.5930  152.4512 H   0  0  0  0  0  0  0  0  0  0  0  0
  146.9064  135.8577  153.0876 H   0  0  0  0  0  0  0  0  0  0  0  0
  148.5198  140.1688  153.2400 H   0  0  0  0  0  0  0  0  0  0  0  0
  147.6034  141.6002  152.8622 H   0  0  0  0  0  0  0  0  0  0  0  0
  148.4969  142.8029  154.7857 H   0  0  0  0  0  0  0  0  0  0  0  0
  149.8204  142.1791  153.8466 H   0  0  0  0  0  0  0  0  0  0  0  0
  1  2  1  0  0  0  0
  1 25  1  0  0  0  0
  1 26  1  0  0  0  0
  1 27  1  0  0  0  0
  2  3  1  0  0  0  0
  2 28  1  0  0  0  0
  3  4  2  0  0  0  0
  3  5  1  0  0  0  0
  5 24  1  0  0  0  0
  5  6  1  0  0  0  0
  5 29  1  0  0  0  0
  6  7  1  0  0  0  0
  6 30  1  0  0  0  0
  6 31  1  0  0  0  0
  7  8  1  0  0  0  0
  7 32  1  0  0  0  0
  7 33  1  0  0  0  0
  8  9  1  0  0  0  0
  8 23  1  0  0  0  0
  8 34  1  0  0  0  0
  9 10  1  0  0  0  0
  9 35  1  0  0  0  0
 10 11  2  0  0  0  0
 10 12  1  0  0  0  0
 12 13  1  0  0  0  0
 12 36  1  0  0  0  0
 13 22  1  0  0  0  0
 13 14  2  0  0  0  0
 14 15  1  0  0  0  0
 14 37  1  0  0  0  0
 15 16  2  0  0  0  0
 16 17  1  0  0  0  0
 16 21  1  0  0  0  0
 17 18  1  0  0  0  0
 17 19  1  0  0  0  0
 17 20  1  0  0  0  0
 18 38  1  0  0  0  0
 18 39  1  0  0  0  0
 18 40  1  0  0  0  0
 19 41  1  0  0  0  0
 19 42  1  0  0  0  0
 19 43  1  0  0  0  0
 20 44  1  0  0  0  0
 20 45  1  0  0  0  0
 20 46  1  0  0  0  0
 21 22  2  0  0  0  0
 22 47  1  0  0  0  0
 23 24  1  0  0  0  0
 23 48  1  0  0  0  0
 23 49  1  0  0  0  0
 24 50  1  0  0  0  0
 24 51  1  0  0  0  0
M  END
> <s_m_source_file>
AV-unprocessed.smi

> <i_m_source_file_index>
1025

> <i_lp_mmshare_version>
43012

> <i_f3d_flags>
0

> <s_epik_input>
W0NIM11bTkhdQyg9TylbQ0BASF0xW0NIMl1bQ0gyXVtDQEhdKFtDSDJdW0NIMl0xKVtOSF1DKD1PKVtOSF1jMltjSF1uYyhDKFtDSDNdKShbQ0gzXSlbQ0gzXSluW2NIXTI=

> <s_epik_cmdline>
J2VwaWtfcHl0aG9uJywgJy1waCcsICc3LjAnLCAnLXRuJywgJzgnLCAnLW1hJywgJzIwMCcsICctbWV0YWxfYmluZGluZycsICctaW1hZScsICc8aW5maWxlLm1hZT4nLCAnLW9tYWUnLCAnPG91dGZpbGUubWFlPic=

> <r_lp_tautomer_probability>
1

> <r_epik_Ionization_Penalty>
2.76239e-05

> <r_epik_Ionization_Penalty_Charging>
0

> <r_epik_Ionization_Penalty_Neutral>
2.76239e-05

> <r_epik_State_Penalty>
-0

> <r_epik_Charging_Adjusted_Penalty>
0

> <i_epik_Tot_Q>
0

> <i_epik_Tot_abs_Q>
0

> <r_epik_Metal_State_Penalty>
-0

> <b_epik_Metal_Only>
0

> <s_lp_Force_Field>
OPLS_2005

> <r_lp_Energy>
4.91063

> <b_lp_Chiralities_Consistent>
1

> <s_lp_Variant>
AV-unprocessed.smi:1025-2

> <Gold.Version>
5.8.1

> <Gold.Id.Protein>
6NUR|6NUR_protein|mol2

> <Gold.PLP.Fitness>
42.7941

> <Gold.PLP.PLP>
-33.6806

> <Gold.PLP.part.hbond>
-2.8260

> <Gold.PLP.part.metal>
0.0000

> <Gold.PLP.part.buried>
1.3771

> <Gold.PLP.part.nonpolar>
-32.1024

> <Gold.PLP.part.repulsive>
1.0956

> <Gold.PLP.ligand.clash>
0.0000

> <Gold.PLP.ligand.torsion>
0.3483

> <Gold.PLP.Chemscore.Hbond>
1.8723

> <Gold.PLP.Chemscore.CHOScore>
1.3358

> <Gold.PLP.Chemscore.Metal>
0.0000

> <Gold.Chemscore.Hbonds>
donor molecule, donor type, donor heavy atom, donor atom, acceptor molecule, acceptor atom, score
      L1  H     9    35       P1 10175  1.00
      L1  H    12    36       P1 10175  0.84
      L1  C    14    37       P1 10171  0.60
      L1  C    22    47       P1  7948  0.75

> <Gold.PLP.Chemscore.Internal.Correction>
0.1859

> <Gold.Rescore>
     Score         DG    S(hbond)    S(metal)    S(lipo)     H(rot)  DE(clash)    DE(int)     intcor
     14.10     -17.95       1.79        0.00      88.53       1.52       0.91       2.93       ----

> <Gold.Chemscore.Fitness>
14.1041

> <Gold.Chemscore.DG>
-17.9468

> <Gold.Chemscore.ZeroCoef>
-5.4800

> <Gold.Chemscore.Hbond>
1.7944

> <Gold.Chemscore.Metal>
0.0000

> <Gold.Chemscore.Lipo>
88.5252

> <Gold.Chemscore.Internal_Hbond>
0.0000

> <Gold.Chemscore.DEClash>
0.9104

> <Gold.Chemscore.DEInternal>
2.9323

> <Gold.Chemscore.Rot>
1.5171

> <Gold.Chemscore.Internal.Correction>
   9.000000E+99

> <Gold.Chemscore.Hbonds>
donor molecule, donor type, donor heavy atom, donor atom, acceptor molecule, acceptor atom, score
      L1  H     9    35       P1 10175  1.00
      L1  H    12    36       P1 10175  0.79

> <Gold.Chemscore.Hbond.Weighted>
-5.9932

> <Gold.Chemscore.Metal.Weighted>
-0.0000

> <Gold.Chemscore.Lipo.Weighted>
-10.3574

> <Gold.Chemscore.Internal_Hbond.Weighted>
0.0000

> <Gold.Chemscore.DEClash.Weighted>
0.9104

> <Gold.Chemscore.DEInternal.Weighted>
2.9323

> <Gold.Chemscore.Rot.Weighted>
3.8839

> <Gold.Chemscore.Internal.Correction.Weighted>
   9.000000E+99

> <Gold.Protein.RotatedTorsions>
[ 6907 6896 6895 6894 ] final -152.71 input  -60.11 | X-H torsion
[ 7974 7965 7964 7962 ] final  156.05 input  175.53 | X-H torsion
[ 8008 7997 7996 7995 ] final  -51.39 input   59.86 | X-H torsion
[ 10167 10162 10161 10158 ] final  -80.86 input  -65.29 | X-H torsion
[ 10718 10713 10712 10709 ] final  -48.83 input   66.30 | X-H torsion
[ 10763 10752 10751 10750 ] final  -22.58 input  -60.55 | X-H torsion
[ 11005 11000 10999 10996 ] final  -32.66 input  -57.11 | X-H torsion

> <Gold.Protein.ActiveResidues>
 VAL166  LYS551  ARG553  GLY616  TRP617  ASP618  TYR619  PRO620  LYS621  CYS622 
 ASP623  PHE694  ASN695  SER759  ASP760  ASP761  ALA762  ILE779  LEU786  VAL792 
 PHE793  MET794  SER795  GLU796  ALA797  LYS798  CYS799  TRP800  GLU811  SER814 

> <Gold.Protein.RotatedAtoms>
  151.2318  133.4446  159.2603 H   0  0  0  0  0  0  0  0  0  0  0  0  # atno 6907 bound_to 6896
  151.0788  134.9845  159.8355 H   0  0  0  0  0  0  0  0  0  0  0  0  # atno 6908 bound_to 6896
  152.5421  134.2258  159.8858 H   0  0  0  0  0  0  0  0  0  0  0  0  # atno 6909 bound_to 6896
  144.7987  139.7151  143.6191 H   0  0  0  0  0  0  0  0  0  0  0  0  # atno 7974 bound_to 7965
  154.4082  140.1249  156.4821 H   0  0  0  0  0  0  0  0  0  0  0  0  # atno 8008 bound_to 7997
  155.7074  140.3494  155.4939 H   0  0  0  0  0  0  0  0  0  0  0  0  # atno 8009 bound_to 7997
  155.9331  140.1073  157.1106 H   0  0  0  0  0  0  0  0  0  0  0  0  # atno 8010 bound_to 7997
  140.4465  143.2497  151.8551 H   0  0  0  0  0  0  0  0  0  0  0  0  # atno 10167 bound_to 10162
  156.1951  130.4154  149.9318 H   0  0  0  0  0  0  0  0  0  0  0  0  # atno 10718 bound_to 10713
  153.6541  135.6979  153.5199 H   0  0  0  0  0  0  0  0  0  0  0  0  # atno 10763 bound_to 10752
  153.2683  135.4223  155.0962 H   0  0  0  0  0  0  0  0  0  0  0  0  # atno 10764 bound_to 10752
  154.8469  135.3572  154.6086 H   0  0  0  0  0  0  0  0  0  0  0  0  # atno 10765 bound_to 10752
  140.9571  133.7186  156.1310 H   0  0  0  0  0  0  0  0  0  0  0  0  # atno 11005 bound_to 11000
  146.2262  139.5728  142.9585 LP  0  0  0  0  0  0  0  0  0  0  0  0  # atno 17320 bound_to 7965
  145.5608  141.0404  143.2227 LP  0  0  0  0  0  0  0  0  0  0  0  0  # atno 17321 bound_to 7965
  139.4793  144.5170  151.8854 LP  0  0  0  0  0  0  0  0  0  0  0  0  # atno 17342 bound_to 10162
  140.4258  144.2182  150.5887 LP  0  0  0  0  0  0  0  0  0  0  0  0  # atno 17343 bound_to 10162
  156.7045  130.8946  151.3603 LP  0  0  0  0  0  0  0  0  0  0  0  0  # atno 17370 bound_to 10713
  157.6952  130.9275  150.0626 LP  0  0  0  0  0  0  0  0  0  0  0  0  # atno 17371 bound_to 10713
  140.7521  134.4034  157.5539 LP  0  0  0  0  0  0  0  0  0  0  0  0  # atno 17394 bound_to 11000
  139.8866  134.8906  156.2578 LP  0  0  0  0  0  0  0  0  0  0  0  0  # atno 17395 bound_to 11000

$$$$
