AV-unprocessed.smi:1005|AV-procd|sdf|4378|dock6
  -GOLD-   22720 2293D 1   1.00000     0.00000
 Structure written by MMmdl.
 58 60  0  0  0  0  0  0  0  0  4 V2000
  151.9351  145.7128  160.3485 C   0  0  0  0  0  0  0  0  0  0  0  0
  151.8256  144.3578  159.6702 C   0  0  0  0  0  0  0  0  0  0  0  0
  151.2275  144.2905  158.3914 C   0  0  0  0  0  0  0  0  0  0  0  0
  151.1436  143.0378  157.7955 C   0  0  0  0  0  0  0  0  0  0  0  0
  150.6172  142.6431  156.5635 N   0  3  0  0  0  0  0  0  0  0  0  0
  150.7650  141.2974  156.4158 C   0  0  0  0  0  0  0  0  0  0  0  0
  151.3844  140.8280  157.5336 N   0  0  0  0  0  0  0  0  0  0  0  0
  151.7833  139.4602  157.8919 C   0  0  0  0  0  0  0  0  0  0  0  0
  150.5799  138.5182  158.0955 C   0  0  2  0  0  0  0  0  0  0  0  0
  150.9996  137.3799  158.8232 O   0  0  0  0  0  0  0  0  0  0  0  0
  149.9830  138.0551  156.7519 C   0  0  0  0  0  0  0  0  0  0  0  0
  149.1240  136.8509  156.8913 N   0  3  1  0  0  0  0  0  0  0  0  0
  147.9922  137.0310  157.8336 C   0  0  0  0  0  0  0  0  0  0  0  0
  147.1816  135.7304  157.9499 C   0  0  0  0  0  0  0  0  0  0  0  0
  146.7333  135.3326  156.6601 O   0  0  0  0  0  0  0  0  0  0  0  0
  147.8088  135.0566  155.7694 C   0  0  1  0  0  0  0  0  0  0  0  0
  147.1910  134.5507  154.4502 C   0  0  0  0  0  0  0  0  0  0  0  0
  148.2002  134.0849  153.4634 N   0  3  0  0  0  0  0  0  0  0  0  0
  147.5744  133.3866  152.3186 C   0  0  0  0  0  0  0  0  0  0  0  0
  149.2822  133.2720  154.0665 C   0  0  0  0  0  0  0  0  0  0  0  0
  148.6344  136.3481  155.5852 C   0  0  0  0  0  0  0  0  0  0  0  0
  151.6317  141.8768  158.4257 C   0  0  0  0  0  0  0  0  0  0  0  0
  152.2201  141.9242  159.6872 C   0  0  0  0  0  0  0  0  0  0  0  0
  152.3131  143.1891  160.3108 C   0  0  0  0  0  0  0  0  0  0  0  0
  152.9495  143.2726  161.6880 C   0  0  0  0  0  0  0  0  0  0  0  0
  151.5439  146.5093  159.7149 H   0  0  0  0  0  0  0  0  0  0  0  0
  152.9762  145.9474  160.5714 H   0  0  0  0  0  0  0  0  0  0  0  0
  151.3701  145.7205  161.2809 H   0  0  0  0  0  0  0  0  0  0  0  0
  150.8518  145.1758  157.8991 H   0  0  0  0  0  0  0  0  0  0  0  0
  150.4509  140.7109  155.5642 H   0  0  0  0  0  0  0  0  0  0  0  0
  152.4490  139.0823  157.1147 H   0  0  0  0  0  0  0  0  0  0  0  0
  152.3776  139.5212  158.8048 H   0  0  0  0  0  0  0  0  0  0  0  0
  149.8257  139.0376  158.6854 H   0  0  0  0  0  0  0  0  0  0  0  0
  151.0042  136.6359  158.2397 H   0  0  0  0  0  0  0  0  0  0  0  0
  149.4051  138.8587  156.2924 H   0  0  0  0  0  0  0  0  0  0  0  0
  150.8040  137.8416  156.0656 H   0  0  0  0  0  0  0  0  0  0  0  0
  148.3546  137.3158  158.8206 H   0  0  0  0  0  0  0  0  0  0  0  0
  147.3480  137.8396  157.4845 H   0  0  0  0  0  0  0  0  0  0  0  0
  147.7781  134.9377  158.4043 H   0  0  0  0  0  0  0  0  0  0  0  0
  146.3150  135.8842  158.5933 H   0  0  0  0  0  0  0  0  0  0  0  0
  148.4285  134.2769  156.2140 H   0  0  0  0  0  0  0  0  0  0  0  0
  146.4868  133.7413  154.6493 H   0  0  0  0  0  0  0  0  0  0  0  0
  146.6038  135.3613  154.0152 H   0  0  0  0  0  0  0  0  0  0  0  0
  147.0646  132.4792  152.6456 H   0  0  0  0  0  0  0  0  0  0  0  0
  148.3246  133.1087  151.5771 H   0  0  0  0  0  0  0  0  0  0  0  0
  146.8463  134.0290  151.8221 H   0  0  0  0  0  0  0  0  0  0  0  0
  148.8812  132.3726  154.5359 H   0  0  0  0  0  0  0  0  0  0  0  0
  149.8354  133.8332  154.8185 H   0  0  0  0  0  0  0  0  0  0  0  0
  149.9994  132.9638  153.3046 H   0  0  0  0  0  0  0  0  0  0  0  0
  148.0305  137.1190  155.1033 H   0  0  0  0  0  0  0  0  0  0  0  0
  149.4847  136.1516  154.9309 H   0  0  0  0  0  0  0  0  0  0  0  0
  152.5906  141.0349  160.1749 H   0  0  0  0  0  0  0  0  0  0  0  0
  153.2457  142.2880  162.0514 H   0  0  0  0  0  0  0  0  0  0  0  0
  152.2501  143.6960  162.4094 H   0  0  0  0  0  0  0  0  0  0  0  0
  153.8409  143.8996  161.6600 H   0  0  0  0  0  0  0  0  0  0  0  0
  148.6347  134.9108  153.0770 H   0  0  0  0  0  0  0  0  0  0  0  0
  149.7158  136.1255  157.2717 H   0  0  0  0  0  0  0  0  0  0  0  0
  150.1860  143.2453  155.8737 H   0  0  0  0  0  0  0  0  0  0  0  0
  1  2  1  0  0  0  0
  1 26  1  0  0  0  0
  1 27  1  0  0  0  0
  1 28  1  0  0  0  0
  2 24  1  0  0  0  0
  2  3  2  0  0  0  0
  3  4  1  0  0  0  0
  3 29  1  0  0  0  0
  4 22  2  0  0  0  0
  4  5  1  0  0  0  0
  5  6  2  0  0  0  0
  5 58  1  0  0  0  0
  6  7  1  0  0  0  0
  6 30  1  0  0  0  0
  7  8  1  0  0  0  0
  7 22  1  0  0  0  0
  8  9  1  0  0  0  0
  8 31  1  0  0  0  0
  8 32  1  0  0  0  0
  9 10  1  0  0  0  0
  9 11  1  0  0  0  0
  9 33  1  0  0  0  0
 10 34  1  0  0  0  0
 11 12  1  0  0  0  0
 11 35  1  0  0  0  0
 11 36  1  0  0  0  0
 12 21  1  0  0  0  0
 12 13  1  0  0  0  0
 12 57  1  0  0  0  0
 13 14  1  0  0  0  0
 13 37  1  0  0  0  0
 13 38  1  0  0  0  0
 14 15  1  0  0  0  0
 14 39  1  0  0  0  0
 14 40  1  0  0  0  0
 15 16  1  0  0  0  0
 16 17  1  0  0  0  0
 16 21  1  0  0  0  0
 16 41  1  0  0  0  0
 17 18  1  0  0  0  0
 17 42  1  0  0  0  0
 17 43  1  0  0  0  0
 18 19  1  0  0  0  0
 18 20  1  0  0  0  0
 18 56  1  0  0  0  0
 19 44  1  0  0  0  0
 19 45  1  0  0  0  0
 19 46  1  0  0  0  0
 20 47  1  0  0  0  0
 20 48  1  0  0  0  0
 20 49  1  0  0  0  0
 21 50  1  0  0  0  0
 21 51  1  0  0  0  0
 22 23  1  0  0  0  0
 23 24  2  0  0  0  0
 23 52  1  0  0  0  0
 24 25  1  0  0  0  0
 25 53  1  0  0  0  0
 25 54  1  0  0  0  0
 25 55  1  0  0  0  0
M  CHG  1   5   1
M  CHG  1  12   1
M  CHG  1  18   1
M  END
> <s_m_source_file>
AV-unprocessed.smi

> <i_m_source_file_index>
1005

> <i_lp_mmshare_version>
43012

> <i_f3d_flags>
0

> <s_epik_input>
W0NIM11jKFtjSF0xKWMoW0NIM10pW2NIXWMoYzEyKW4oW2NIXW4yKVtDSDJdW0NASF0oW09IXSlbQ0gyXU4zW0NIMl1bQ0gyXU9bQ0BIXShbQ0gyXTMpW0NIMl1OKFtDSDNdKVtDSDNd

> <s_epik_cmdline>
J2VwaWtfcHl0aG9uJywgJy1waCcsICc3LjAnLCAnLXRuJywgJzgnLCAnLW1hJywgJzIwMCcsICctbWV0YWxfYmluZGluZycsICctaW1hZScsICc8aW5maWxlLm1hZT4nLCAnLW9tYWUnLCAnPG91dGZpbGUubWFlPic=

> <r_epik_Ionization_Penalty>
2.30802

> <r_epik_Ionization_Penalty_Charging>
2.30798

> <r_epik_Ionization_Penalty_Neutral>
3.4851e-05

> <r_epik_State_Penalty>
2.52618

> <r_epik_Charging_Adjusted_Penalty>
4.83416

> <i_epik_Tot_Q>
3

> <i_epik_Tot_abs_Q>
3

> <r_epik_Metal_State_Penalty>
6.53149

> <b_epik_Metal_Only>
0

> <s_lp_Force_Field>
OPLS_2005

> <r_lp_Energy>
43.2014

> <b_lp_Chiralities_Consistent>
1

> <s_lp_Variant>
AV-unprocessed.smi:1005-17

> <Gold.Version>
5.8.1

> <Gold.Id.Protein>
6NUR|6NUR_protein|mol2

> <Gold.PLP.Fitness>
54.0325

> <Gold.PLP.PLP>
-43.8194

> <Gold.PLP.part.hbond>
-2.0000

> <Gold.PLP.part.metal>
0.0000

> <Gold.PLP.part.buried>
-6.2536

> <Gold.PLP.part.nonpolar>
-35.5303

> <Gold.PLP.part.repulsive>
0.0848

> <Gold.PLP.ligand.clash>
0.0000

> <Gold.PLP.ligand.torsion>
0.4703

> <Gold.PLP.Chemscore.Hbond>
3.6640

> <Gold.PLP.Chemscore.CHOScore>
0.0000

> <Gold.PLP.Chemscore.Metal>
0.0000

> <Gold.Chemscore.Hbonds>
donor molecule, donor type, donor heavy atom, donor atom, acceptor molecule, acceptor atom, score
      L1  H     5    58       P1  8028  1.73
      L1  H    18    56       P1  7948  2.00

> <Gold.PLP.Chemscore.Internal.Correction>
0.1616

> <Gold.Rescore>
     Score         DG    S(hbond)    S(metal)    S(lipo)     H(rot)  DE(clash)    DE(int)     intcor
     17.94     -18.44       1.88        0.00     113.02       2.56       0.00       0.49       ----

> <Gold.Chemscore.Fitness>
17.9398

> <Gold.Chemscore.DG>
-18.4351

> <Gold.Chemscore.ZeroCoef>
-5.4800

> <Gold.Chemscore.Hbond>
1.8794

> <Gold.Chemscore.Metal>
0.0000

> <Gold.Chemscore.Lipo>
113.0171

> <Gold.Chemscore.Internal_Hbond>
0.0000

> <Gold.Chemscore.DEClash>
0.0030

> <Gold.Chemscore.DEInternal>
0.4923

> <Gold.Chemscore.Rot>
2.5566

> <Gold.Chemscore.Internal.Correction>
   9.000000E+99

> <Gold.Chemscore.Hbonds>
donor molecule, donor type, donor heavy atom, donor atom, acceptor molecule, acceptor atom, score
      L1  H     5    58       P1  8028  0.83
      L1  H    18    56       P1  7948  0.44

> <Gold.Chemscore.Hbond.Weighted>
-6.2770

> <Gold.Chemscore.Metal.Weighted>
-0.0000

> <Gold.Chemscore.Lipo.Weighted>
-13.2230

> <Gold.Chemscore.Internal_Hbond.Weighted>
0.0000

> <Gold.Chemscore.DEClash.Weighted>
0.0030

> <Gold.Chemscore.DEInternal.Weighted>
0.4923

> <Gold.Chemscore.Rot.Weighted>
6.5450

> <Gold.Chemscore.Internal.Correction.Weighted>
   9.000000E+99

> <Gold.Protein.RotatedTorsions>
[ 6907 6896 6895 6894 ] final  -85.34 input  -60.11 | X-H torsion
[ 7974 7965 7964 7962 ] final  -41.87 input  175.53 | X-H torsion
[ 8008 7997 7996 7995 ] final  -22.74 input   59.86 | X-H torsion
[ 10167 10162 10161 10158 ] final -107.13 input  -65.29 | X-H torsion
[ 10718 10713 10712 10709 ] final  -36.30 input   66.30 | X-H torsion
[ 10763 10752 10751 10750 ] final   32.18 input  -60.55 | X-H torsion
[ 11005 11000 10999 10996 ] final -103.75 input  -57.11 | X-H torsion

> <Gold.Protein.ActiveResidues>
 VAL166  LYS551  ARG553  GLY616  TRP617  ASP618  TYR619  PRO620  LYS621  CYS622 
 ASP623  PHE694  ASN695  SER759  ASP760  ASP761  ALA762  ILE779  LEU786  VAL792 
 PHE793  MET794  SER795  GLU796  ALA797  LYS798  CYS799  TRP800  GLU811  SER814 

> <Gold.Protein.RotatedAtoms>
  150.6871  134.3220  159.4790 H   0  0  0  0  0  0  0  0  0  0  0  0  # atno 6907 bound_to 6896
  152.1094  134.9282  160.0576 H   0  0  0  0  0  0  0  0  0  0  0  0  # atno 6908 bound_to 6896
  152.0531  133.3993  159.4422 H   0  0  0  0  0  0  0  0  0  0  0  0  # atno 6909 bound_to 6896
  146.0170  140.6896  142.9196 H   0  0  0  0  0  0  0  0  0  0  0  0  # atno 7974 bound_to 7965
  154.4626  140.1999  156.0203 H   0  0  0  0  0  0  0  0  0  0  0  0  # atno 8008 bound_to 7997
  156.0868  140.3263  155.7736 H   0  0  0  0  0  0  0  0  0  0  0  0  # atno 8009 bound_to 7997
  155.5021  140.0555  157.2928 H   0  0  0  0  0  0  0  0  0  0  0  0  # atno 8010 bound_to 7997
  140.1803  143.3972  152.1286 H   0  0  0  0  0  0  0  0  0  0  0  0  # atno 10167 bound_to 10162
  156.3284  130.4276  149.7895 H   0  0  0  0  0  0  0  0  0  0  0  0  # atno 10718 bound_to 10713
  153.0276  135.6420  154.1314 H   0  0  0  0  0  0  0  0  0  0  0  0  # atno 10763 bound_to 10752
  154.1041  135.2857  155.3246 H   0  0  0  0  0  0  0  0  0  0  0  0  # atno 10764 bound_to 10752
  154.6378  135.5470  153.7817 H   0  0  0  0  0  0  0  0  0  0  0  0  # atno 10765 bound_to 10752
  141.1132  133.8666  157.1524 H   0  0  0  0  0  0  0  0  0  0  0  0  # atno 11005 bound_to 11000
  144.6975  140.3499  143.7183 LP  0  0  0  0  0  0  0  0  0  0  0  0  # atno 17320 bound_to 7965
  145.7253  139.1721  143.2461 LP  0  0  0  0  0  0  0  0  0  0  0  0  # atno 17321 bound_to 7965
  139.5299  144.7147  151.5094 LP  0  0  0  0  0  0  0  0  0  0  0  0  # atno 17342 bound_to 10162
  140.6524  143.8669  150.6799 LP  0  0  0  0  0  0  0  0  0  0  0  0  # atno 17343 bound_to 10162
  156.5176  130.8200  151.3192 LP  0  0  0  0  0  0  0  0  0  0  0  0  # atno 17370 bound_to 10713
  157.7426  130.9893  150.2526 LP  0  0  0  0  0  0  0  0  0  0  0  0  # atno 17371 bound_to 10713
  140.0038  135.0017  157.0247 LP  0  0  0  0  0  0  0  0  0  0  0  0  # atno 17394 bound_to 11000
  140.4719  134.1378  155.7204 LP  0  0  0  0  0  0  0  0  0  0  0  0  # atno 17395 bound_to 11000

$$$$
