AV-unprocessed.smi:1196|AV-procd|sdf|4998|dock2
  -GOLD-   22720 4 03D 1   1.00000     0.00000
 Structure written by MMmdl.
 37 38  0  0  0  0  0  0  0  0  1 V2000
  151.8352  139.8085  158.8405 C   0  0  0  0  0  0  0  0  0  0  0  0
  151.7592  140.7429  157.6230 C   0  0  2  0  0  0  0  0  0  0  0  0
  150.6852  141.8320  157.8131 C   0  0  0  0  0  0  0  0  0  0  0  0
  151.2017  143.0106  158.4868 N   0  0  0  0  0  0  0  0  0  0  0  0
  151.4142  144.2707  157.9678 C   0  0  0  0  0  0  0  0  0  0  0  0
  151.9132  145.0458  158.9749 C   0  0  0  0  0  0  0  0  0  0  0  0
  151.9685  144.1602  160.0873 C   0  0  0  0  0  0  0  0  0  0  0  0
  151.5404  142.9434  159.7924 N   0  0  0  0  0  0  0  0  0  0  0  0
  151.4779  139.9691  156.4150 N   0  0  0  0  0  0  0  0  0  0  0  0
  152.2305  138.9651  155.9409 C   0  0  0  0  0  0  0  0  0  0  0  0
  153.2444  138.5559  156.5077 O   0  0  0  0  0  0  0  0  0  0  0  0
  151.7558  138.3444  154.6233 C   0  0  0  0  0  0  0  0  0  0  0  0
  150.3124  137.8058  154.6763 C   0  0  0  0  0  0  0  0  0  0  0  0
  149.2579  138.8641  154.2993 C   0  0  1  0  0  0  0  0  0  0  0  0
  148.9493  138.8688  152.8793 N   0  0  0  0  0  0  0  0  0  0  0  0
  147.6576  138.6102  152.6343 C   0  0  0  0  0  0  0  0  0  0  0  0
  147.1301  138.5557  151.5259 O   0  0  0  0  0  0  0  0  0  0  0  0
  147.0448  138.4217  153.8079 N   0  0  0  0  0  0  0  0  0  0  0  0
  147.8776  138.5361  154.8408 C   0  0  0  0  0  0  0  0  0  0  0  0
  147.6025  138.4029  156.0317 O   0  0  0  0  0  0  0  0  0  0  0  0
  152.0573  140.3681  159.7494 H   0  0  0  0  0  0  0  0  0  0  0  0
  152.6196  139.0611  158.7173 H   0  0  0  0  0  0  0  0  0  0  0  0
  150.8936  139.2812  158.9960 H   0  0  0  0  0  0  0  0  0  0  0  0
  152.7266  141.2374  157.5163 H   0  0  0  0  0  0  0  0  0  0  0  0
  150.2691  142.1334  156.8507 H   0  0  0  0  0  0  0  0  0  0  0  0
  149.8541  141.4421  158.4025 H   0  0  0  0  0  0  0  0  0  0  0  0
  151.1981  144.5069  156.9364 H   0  0  0  0  0  0  0  0  0  0  0  0
  152.1958  146.0868  158.9252 H   0  0  0  0  0  0  0  0  0  0  0  0
  152.3049  144.3639  161.0931 H   0  0  0  0  0  0  0  0  0  0  0  0
  150.6611  140.2365  155.8851 H   0  0  0  0  0  0  0  0  0  0  0  0
  151.8373  139.0958  153.8367 H   0  0  0  0  0  0  0  0  0  0  0  0
  152.4451  137.5404  154.3627 H   0  0  0  0  0  0  0  0  0  0  0  0
  150.2177  136.9419  154.0155 H   0  0  0  0  0  0  0  0  0  0  0  0
  150.1033  137.4429  155.6841 H   0  0  0  0  0  0  0  0  0  0  0  0
  149.5588  139.8616  154.6223 H   0  0  0  0  0  0  0  0  0  0  0  0
  149.6414  139.0483  152.1664 H   0  0  0  0  0  0  0  0  0  0  0  0
  146.0626  138.2065  153.8998 H   0  0  0  0  0  0  0  0  0  0  0  0
  1  2  1  0  0  0  0
  1 21  1  0  0  0  0
  1 22  1  0  0  0  0
  1 23  1  0  0  0  0
  2  3  1  0  0  0  0
  2  9  1  0  0  0  0
  2 24  1  0  0  0  0
  3  4  1  0  0  0  0
  3 25  1  0  0  0  0
  3 26  1  0  0  0  0
  4  8  1  0  0  0  0
  4  5  1  0  0  0  0
  5  6  2  0  0  0  0
  5 27  1  0  0  0  0
  6  7  1  0  0  0  0
  6 28  1  0  0  0  0
  7  8  2  0  0  0  0
  7 29  1  0  0  0  0
  9 10  1  0  0  0  0
  9 30  1  0  0  0  0
 10 11  2  0  0  0  0
 10 12  1  0  0  0  0
 12 13  1  0  0  0  0
 12 31  1  0  0  0  0
 12 32  1  0  0  0  0
 13 14  1  0  0  0  0
 13 33  1  0  0  0  0
 13 34  1  0  0  0  0
 14 19  1  0  0  0  0
 14 15  1  0  0  0  0
 14 35  1  0  0  0  0
 15 16  1  0  0  0  0
 15 36  1  0  0  0  0
 16 17  2  0  0  0  0
 16 18  1  0  0  0  0
 18 19  1  0  0  0  0
 18 37  1  0  0  0  0
 19 20  2  0  0  0  0
M  END
> <s_m_source_file>
AV-unprocessed.smi

> <i_m_source_file_index>
1196

> <i_lp_mmshare_version>
43012

> <i_f3d_flags>
0

> <s_epik_input>
bjFbY0hdW2NIXVtjSF1uMVtDSDJdW0NAQEhdKFtDSDNdKVtOSF1DKD1PKVtDSDJdW0NIMl1bQ0BASF0yW05IXUMoPU8pW05IXUMyPU8=

> <s_epik_cmdline>
J2VwaWtfcHl0aG9uJywgJy1waCcsICc3LjAnLCAnLXRuJywgJzgnLCAnLW1hJywgJzIwMCcsICctbWV0YWxfYmluZGluZycsICctaW1hZScsICc8aW5maWxlLm1hZT4nLCAnLW9tYWUnLCAnPG91dGZpbGUubWFlPic=

> <r_lp_tautomer_probability>
1

> <r_epik_Ionization_Penalty>
0.00815973

> <r_epik_Ionization_Penalty_Charging>
0

> <r_epik_Ionization_Penalty_Neutral>
0.00815973

> <r_epik_State_Penalty>
0.00583796

> <r_epik_Charging_Adjusted_Penalty>
0.00583796

> <i_epik_Tot_Q>
0

> <i_epik_Tot_abs_Q>
0

> <r_epik_Metal_State_Penalty>
0.409204

> <b_epik_Metal_Only>
0

> <s_lp_Force_Field>
OPLS_2005

> <r_lp_Energy>
16.3903

> <b_lp_Chiralities_Consistent>
1

> <s_lp_Variant>
AV-unprocessed.smi:1196-3

> <Gold.Version>
5.8.1

> <Gold.Id.Protein>
6NUR|6NUR_protein|mol2

> <Gold.PLP.Fitness>
45.1791

> <Gold.PLP.PLP>
-37.8868

> <Gold.PLP.part.hbond>
-2.7883

> <Gold.PLP.part.metal>
0.0000

> <Gold.PLP.part.buried>
-8.1479

> <Gold.PLP.part.nonpolar>
-29.1796

> <Gold.PLP.part.repulsive>
0.5446

> <Gold.PLP.ligand.clash>
0.0000

> <Gold.PLP.ligand.torsion>
0.9355

> <Gold.PLP.Chemscore.Hbond>
2.0000

> <Gold.PLP.Chemscore.CHOScore>
1.0000

> <Gold.PLP.Chemscore.Metal>
0.0000

> <Gold.Chemscore.Hbonds>
donor molecule, donor type, donor heavy atom, donor atom, acceptor molecule, acceptor atom, score
      L1  H    15    36       P1  7957  0.37
      P1  H  7954  7966       L1    17  0.96
      P1  H  7997  8010       L1    11  0.93
      L1  C     5    27       P1  8028  0.79

> <Gold.PLP.Chemscore.Internal.Correction>
0.1633

> <Gold.Rescore>
     Score         DG    S(hbond)    S(metal)    S(lipo)     H(rot)  DE(clash)    DE(int)     intcor
     12.79     -13.67       1.96        0.00      78.74       2.96       0.03       0.85       ----

> <Gold.Chemscore.Fitness>
12.7926

> <Gold.Chemscore.DG>
-13.6727

> <Gold.Chemscore.ZeroCoef>
-5.4800

> <Gold.Chemscore.Hbond>
1.9617

> <Gold.Chemscore.Metal>
0.0000

> <Gold.Chemscore.Lipo>
78.7350

> <Gold.Chemscore.Internal_Hbond>
0.0000

> <Gold.Chemscore.DEClash>
0.0331

> <Gold.Chemscore.DEInternal>
0.8470

> <Gold.Chemscore.Rot>
2.9575

> <Gold.Chemscore.Internal.Correction>
   9.000000E+99

> <Gold.Chemscore.Hbonds>
donor molecule, donor type, donor heavy atom, donor atom, acceptor molecule, acceptor atom, score
      L1  H    15    36       P1  7957  0.23
      P1  H  7954  7966       L1    17  0.88
      P1  H  7997  8010       L1    11  0.23

> <Gold.Chemscore.Hbond.Weighted>
-6.5520

> <Gold.Chemscore.Metal.Weighted>
-0.0000

> <Gold.Chemscore.Lipo.Weighted>
-9.2120

> <Gold.Chemscore.Internal_Hbond.Weighted>
0.0000

> <Gold.Chemscore.DEClash.Weighted>
0.0331

> <Gold.Chemscore.DEInternal.Weighted>
0.8470

> <Gold.Chemscore.Rot.Weighted>
7.5713

> <Gold.Chemscore.Internal.Correction.Weighted>
   9.000000E+99

> <Gold.Protein.RotatedTorsions>
[ 6907 6896 6895 6894 ] final  107.88 input  -60.11 | X-H torsion
[ 7974 7965 7964 7962 ] final    1.20 input  175.53 | X-H torsion
[ 8008 7997 7996 7995 ] final   77.98 input   59.86 | X-H torsion
[ 10167 10162 10161 10158 ] final  -60.83 input  -65.29 | X-H torsion
[ 10718 10713 10712 10709 ] final    9.24 input   66.30 | X-H torsion
[ 10763 10752 10751 10750 ] final  -68.45 input  -60.55 | X-H torsion
[ 11005 11000 10999 10996 ] final   49.53 input  -57.11 | X-H torsion

> <Gold.Protein.ActiveResidues>
 VAL166  LYS551  ARG553  GLY616  TRP617  ASP618  TYR619  PRO620  LYS621  CYS622 
 ASP623  PHE694  ASN695  SER759  ASP760  ASP761  ALA762  ILE779  LEU786  VAL792 
 PHE793  MET794  SER795  GLU796  ALA797  LYS798  CYS799  TRP800  GLU811  SER814 

> <Gold.Protein.RotatedAtoms>
  152.5136  133.9170  159.7515 H   0  0  0  0  0  0  0  0  0  0  0  0  # atno 6907 bound_to 6896
  150.9550  133.6499  159.2771 H   0  0  0  0  0  0  0  0  0  0  0  0  # atno 6908 bound_to 6896
  151.3764  135.0937  159.9534 H   0  0  0  0  0  0  0  0  0  0  0  0  # atno 6909 bound_to 6896
  146.2439  140.1022  142.8347 H   0  0  0  0  0  0  0  0  0  0  0  0  # atno 7974 bound_to 7965
  155.8493  140.3459  155.5682 H   0  0  0  0  0  0  0  0  0  0  0  0  # atno 8008 bound_to 7997
  155.8056  140.0891  157.1952 H   0  0  0  0  0  0  0  0  0  0  0  0  # atno 8009 bound_to 7997
  154.4007  140.1457  156.3313 H   0  0  0  0  0  0  0  0  0  0  0  0  # atno 8010 bound_to 7997
  140.6046  143.2370  151.5851 H   0  0  0  0  0  0  0  0  0  0  0  0  # atno 10167 bound_to 10162
  156.9635  130.5942  149.5663 H   0  0  0  0  0  0  0  0  0  0  0  0  # atno 10718 bound_to 10713
  154.3892  135.6056  153.5834 H   0  0  0  0  0  0  0  0  0  0  0  0  # atno 10763 bound_to 10752
  152.9787  135.5879  154.4317 H   0  0  0  0  0  0  0  0  0  0  0  0  # atno 10764 bound_to 10752
  154.4099  135.2844  155.2021 H   0  0  0  0  0  0  0  0  0  0  0  0  # atno 10765 bound_to 10752
  140.1096  134.4973  155.8690 H   0  0  0  0  0  0  0  0  0  0  0  0  # atno 11005 bound_to 11000
  145.0558  140.9052  143.4968 LP  0  0  0  0  0  0  0  0  0  0  0  0  # atno 17320 bound_to 7965
  145.1128  139.2745  143.5628 LP  0  0  0  0  0  0  0  0  0  0  0  0  # atno 17321 bound_to 7965
  139.5315  144.2901  152.1159 LP  0  0  0  0  0  0  0  0  0  0  0  0  # atno 17342 bound_to 10162
  140.2089  144.4583  150.6395 LP  0  0  0  0  0  0  0  0  0  0  0  0  # atno 17343 bound_to 10162
  156.0312  130.5403  150.8539 LP  0  0  0  0  0  0  0  0  0  0  0  0  # atno 17370 bound_to 10713
  157.5642  131.0946  150.9515 LP  0  0  0  0  0  0  0  0  0  0  0  0  # atno 17371 bound_to 10713
  141.2127  133.6723  156.6678 LP  0  0  0  0  0  0  0  0  0  0  0  0  # atno 17394 bound_to 11000
  140.3109  134.8086  157.4175 LP  0  0  0  0  0  0  0  0  0  0  0  0  # atno 17395 bound_to 11000

$$$$
