AV-unprocessed.smi:2032|AV-procd|sdf|8248|dock3
  -GOLD-   2272010513D 1   1.00000     0.00000
 Structure written by MMmdl.
 41 42  0  0  0  0  0  0  0  0  2 V2000
  151.9731  144.4381  157.5273 C   0  0  0  0  0  0  0  0  0  0  0  0
  151.6410  143.1358  158.2631 C   0  0  1  0  0  0  0  0  0  0  0  0
  151.3184  141.9842  157.2916 C   0  0  0  0  0  0  0  0  0  0  0  0
  151.0675  140.7124  157.9776 N   0  0  0  0  0  0  0  0  0  0  0  0
  150.7784  139.6010  157.0402 C   0  0  1  0  0  0  0  0  0  0  0  0
  151.7541  139.5667  155.8361 C   0  0  0  0  0  0  0  0  0  0  0  0
  150.7714  138.2026  157.7253 C   0  0  0  0  0  0  0  0  0  0  0  0
  149.8437  138.1041  158.8499 N   0  0  0  0  0  0  0  0  0  0  0  0
  149.2084  136.9945  159.2535 C   0  0  0  0  0  0  0  0  0  0  0  0
  149.3799  135.9327  158.6503 O   0  0  0  0  0  0  0  0  0  0  0  0
  148.4177  137.1852  160.3342 N   0  5  0  0  0  0  0  0  0  0  0  0
  147.9140  136.1304  160.9956 C   0  0  0  0  0  0  0  0  0  0  0  0
  147.7930  134.9157  160.4474 N   0  0  0  0  0  0  0  0  0  0  0  0
  147.2329  133.9710  161.3093 C   0  0  0  0  0  0  0  0  0  0  0  0
  146.9117  134.4803  162.5395 C   0  0  0  0  0  0  0  0  0  0  0  0
  147.3073  136.1717  162.6535 S   0  0  0  0  0  0  0  0  0  0  0  0
  152.2200  140.4315  158.8404 C   0  0  0  0  0  0  0  0  0  0  0  0
  152.5432  141.5862  159.8078 C   0  0  1  0  0  0  0  0  0  0  0  0
  153.7979  141.3071  160.6422 C   0  0  0  0  0  0  0  0  0  0  0  0
  152.7620  142.7756  159.0602 O   0  0  0  0  0  0  0  0  0  0  0  0
  151.1356  144.7636  156.9097 H   0  0  0  0  0  0  0  0  0  0  0  0
  152.8401  144.3146  156.8778 H   0  0  0  0  0  0  0  0  0  0  0  0
  152.1961  145.2387  158.2330 H   0  0  0  0  0  0  0  0  0  0  0  0
  150.7844  143.3129  158.9159 H   0  0  0  0  0  0  0  0  0  0  0  0
  150.4440  142.2903  156.7210 H   0  0  0  0  0  0  0  0  0  0  0  0
  152.1367  141.8641  156.5797 H   0  0  0  0  0  0  0  0  0  0  0  0
  149.7793  139.7623  156.6325 H   0  0  0  0  0  0  0  0  0  0  0  0
  151.5655  138.7249  155.1709 H   0  0  0  0  0  0  0  0  0  0  0  0
  152.7892  139.4942  156.1707 H   0  0  0  0  0  0  0  0  0  0  0  0
  151.6640  140.4484  155.2036 H   0  0  0  0  0  0  0  0  0  0  0  0
  150.5014  137.4355  156.9990 H   0  0  0  0  0  0  0  0  0  0  0  0
  151.7541  137.9313  158.1089 H   0  0  0  0  0  0  0  0  0  0  0  0
  149.6726  138.9498  159.3734 H   0  0  0  0  0  0  0  0  0  0  0  0
  147.0963  132.9576  160.9624 H   0  0  0  0  0  0  0  0  0  0  0  0
  146.4683  133.9682  163.3802 H   0  0  0  0  0  0  0  0  0  0  0  0
  152.0359  139.5484  159.4492 H   0  0  0  0  0  0  0  0  0  0  0  0
  153.0950  140.2151  158.2253 H   0  0  0  0  0  0  0  0  0  0  0  0
  151.7011  141.7417  160.4846 H   0  0  0  0  0  0  0  0  0  0  0  0
  153.6777  140.4055  161.2431 H   0  0  0  0  0  0  0  0  0  0  0  0
  154.0055  142.1342  161.3216 H   0  0  0  0  0  0  0  0  0  0  0  0
  154.6729  141.1715  160.0055 H   0  0  0  0  0  0  0  0  0  0  0  0
  1  2  1  0  0  0  0
  1 21  1  0  0  0  0
  1 22  1  0  0  0  0
  1 23  1  0  0  0  0
  2 20  1  0  0  0  0
  2  3  1  0  0  0  0
  2 24  1  0  0  0  0
  3  4  1  0  0  0  0
  3 25  1  0  0  0  0
  3 26  1  0  0  0  0
  4  5  1  0  0  0  0
  4 17  1  0  0  0  0
  5  6  1  0  0  0  0
  5  7  1  0  0  0  0
  5 27  1  0  0  0  0
  6 28  1  0  0  0  0
  6 29  1  0  0  0  0
  6 30  1  0  0  0  0
  7  8  1  0  0  0  0
  7 31  1  0  0  0  0
  7 32  1  0  0  0  0
  8  9  1  0  0  0  0
  8 33  1  0  0  0  0
  9 10  2  0  0  0  0
  9 11  1  0  0  0  0
 11 12  1  0  0  0  0
 12 16  1  0  0  0  0
 12 13  2  0  0  0  0
 13 14  1  0  0  0  0
 14 15  2  0  0  0  0
 14 34  1  0  0  0  0
 15 16  1  0  0  0  0
 15 35  1  0  0  0  0
 17 18  1  0  0  0  0
 17 36  1  0  0  0  0
 17 37  1  0  0  0  0
 18 19  1  0  0  0  0
 18 20  1  0  0  0  0
 18 38  1  0  0  0  0
 19 39  1  0  0  0  0
 19 40  1  0  0  0  0
 19 41  1  0  0  0  0
M  CHG  1  11  -1
M  END
> <s_m_source_file>
AV-unprocessed.smi

> <i_m_source_file_index>
2032

> <i_lp_mmshare_version>
43012

> <i_f3d_flags>
0

> <s_epik_input>
W0NIM11bQ0BASF0xW0NIMl1OKFtDSDJdW0NASF0oTzEpW0NIM10pW0NASF0oW0NIM10pW0NIMl1bTkhdQyg9TylbTkhdYzJuW2NIXVtjSF1zMg==

> <s_epik_cmdline>
J2VwaWtfcHl0aG9uJywgJy1waCcsICc3LjAnLCAnLXRuJywgJzgnLCAnLW1hJywgJzIwMCcsICctbWV0YWxfYmluZGluZycsICctaW1hZScsICc8aW5maWxlLm1hZT4nLCAnLW9tYWUnLCAnPG91dGZpbGUubWFlPic=

> <r_lp_tautomer_probability>
0.999

> <r_epik_Ionization_Penalty>
7.22375

> <r_epik_Ionization_Penalty_Charging>
5.82415

> <r_epik_Ionization_Penalty_Neutral>
1.39959

> <r_epik_State_Penalty>
6.03347

> <r_epik_Charging_Adjusted_Penalty>
11.8576

> <i_epik_Tot_Q>
-1

> <i_epik_Tot_abs_Q>
1

> <r_epik_Metal_State_Penalty>
2.01024

> <b_epik_Metal_Only>
1

> <s_lp_Force_Field>
OPLS_2005

> <r_lp_Energy>
22.8045

> <b_lp_Chiralities_Consistent>
1

> <s_lp_Variant>
AV-unprocessed.smi:2032-18

> <Gold.Version>
5.8.1

> <Gold.Id.Protein>
6NUR|6NUR_protein|mol2

> <Gold.PLP.Fitness>
50.4760

> <Gold.PLP.PLP>
-42.9149

> <Gold.PLP.part.hbond>
-3.0000

> <Gold.PLP.part.metal>
0.0000

> <Gold.PLP.part.buried>
-6.4633

> <Gold.PLP.part.nonpolar>
-34.3145

> <Gold.PLP.part.repulsive>
0.2183

> <Gold.PLP.ligand.clash>
0.0000

> <Gold.PLP.ligand.torsion>
0.5119

> <Gold.PLP.Chemscore.Hbond>
2.8146

> <Gold.PLP.Chemscore.CHOScore>
0.0000

> <Gold.PLP.Chemscore.Metal>
0.0000

> <Gold.Chemscore.Hbonds>
donor molecule, donor type, donor heavy atom, donor atom, acceptor molecule, acceptor atom, score
      P1  H  6896  6907       L1    10  0.91
      P1  H  6931  6943       L1    11  1.31
      P1  H  6934  6947       L1    11  0.43

> <Gold.PLP.Chemscore.Internal.Correction>
0.1410

> <Gold.Rescore>
     Score         DG    S(hbond)    S(metal)    S(lipo)     H(rot)  DE(clash)    DE(int)     intcor
     16.17     -18.43       1.63        0.00      97.91       1.54       0.06       2.20       ----

> <Gold.Chemscore.Fitness>
16.1708

> <Gold.Chemscore.DG>
-18.4336

> <Gold.Chemscore.ZeroCoef>
-5.4800

> <Gold.Chemscore.Hbond>
1.6313

> <Gold.Chemscore.Metal>
0.0000

> <Gold.Chemscore.Lipo>
97.9087

> <Gold.Chemscore.Internal_Hbond>
0.0000

> <Gold.Chemscore.DEClash>
0.0621

> <Gold.Chemscore.DEInternal>
2.2007

> <Gold.Chemscore.Rot>
1.5431

> <Gold.Chemscore.Internal.Correction>
   9.000000E+99

> <Gold.Chemscore.Hbonds>
donor molecule, donor type, donor heavy atom, donor atom, acceptor molecule, acceptor atom, score
      P1  H  6896  6907       L1    10  0.66
      P1  H  6931  6943       L1    11  0.14
      P1  H  6934  6947       L1    11  0.14

> <Gold.Chemscore.Hbond.Weighted>
-5.4486

> <Gold.Chemscore.Metal.Weighted>
-0.0000

> <Gold.Chemscore.Lipo.Weighted>
-11.4553

> <Gold.Chemscore.Internal_Hbond.Weighted>
0.0000

> <Gold.Chemscore.DEClash.Weighted>
0.0621

> <Gold.Chemscore.DEInternal.Weighted>
2.2007

> <Gold.Chemscore.Rot.Weighted>
3.9503

> <Gold.Chemscore.Internal.Correction.Weighted>
   9.000000E+99

> <Gold.Protein.RotatedTorsions>
[ 6907 6896 6895 6894 ] final  -55.10 input  -60.11 | X-H torsion
[ 7974 7965 7964 7962 ] final -100.73 input  175.53 | X-H torsion
[ 8008 7997 7996 7995 ] final -176.27 input   59.86 | X-H torsion
[ 10167 10162 10161 10158 ] final -124.14 input  -65.29 | X-H torsion
[ 10718 10713 10712 10709 ] final -153.18 input   66.30 | X-H torsion
[ 10763 10752 10751 10750 ] final -112.74 input  -60.55 | X-H torsion
[ 11005 11000 10999 10996 ] final  -29.42 input  -57.11 | X-H torsion

> <Gold.Protein.ActiveResidues>
 VAL166  LYS551  ARG553  GLY616  TRP617  ASP618  TYR619  PRO620  LYS621  CYS622 
 ASP623  PHE694  ASN695  SER759  ASP760  ASP761  ALA762  ILE779  LEU786  VAL792 
 PHE793  MET794  SER795  GLU796  ALA797  LYS798  CYS799  TRP800  GLU811  SER814 

> <Gold.Protein.RotatedAtoms>
  150.8280  134.7520  159.6829 H   0  0  0  0  0  0  0  0  0  0  0  0  # atno 6907 bound_to 6896
  152.4389  134.5628  159.9909 H   0  0  0  0  0  0  0  0  0  0  0  0  # atno 6908 bound_to 6896
  151.5796  133.3342  159.3041 H   0  0  0  0  0  0  0  0  0  0  0  0  # atno 6909 bound_to 6896
  145.2907  140.9352  143.2879 H   0  0  0  0  0  0  0  0  0  0  0  0  # atno 7974 bound_to 7965
  155.9928  140.1204  157.0622 H   0  0  0  0  0  0  0  0  0  0  0  0  # atno 8008 bound_to 7997
  154.4217  140.1122  156.5657 H   0  0  0  0  0  0  0  0  0  0  0  0  # atno 8009 bound_to 7997
  155.6320  140.3473  155.4688 H   0  0  0  0  0  0  0  0  0  0  0  0  # atno 8010 bound_to 7997
  139.9960  143.5591  152.2323 H   0  0  0  0  0  0  0  0  0  0  0  0  # atno 10167 bound_to 10162
  156.4824  130.8309  151.2535 H   0  0  0  0  0  0  0  0  0  0  0  0  # atno 10718 bound_to 10713
  154.8364  135.4480  154.1240 H   0  0  0  0  0  0  0  0  0  0  0  0  # atno 10763 bound_to 10752
  153.2468  135.6922  153.7728 H   0  0  0  0  0  0  0  0  0  0  0  0  # atno 10764 bound_to 10752
  153.7055  135.3365  155.3210 H   0  0  0  0  0  0  0  0  0  0  0  0  # atno 10765 bound_to 10752
  140.9295  133.7347  156.0916 H   0  0  0  0  0  0  0  0  0  0  0  0  # atno 11005 bound_to 11000
  144.9175  139.4452  143.6557 LP  0  0  0  0  0  0  0  0  0  0  0  0  # atno 17320 bound_to 7965
  146.3186  139.8017  142.8964 LP  0  0  0  0  0  0  0  0  0  0  0  0  # atno 17321 bound_to 7965
  139.6306  144.7643  151.2545 LP  0  0  0  0  0  0  0  0  0  0  0  0  # atno 17342 bound_to 10162
  140.7437  143.6487  150.8269 LP  0  0  0  0  0  0  0  0  0  0  0  0  # atno 17343 bound_to 10162
  157.7482  131.0040  150.3061 LP  0  0  0  0  0  0  0  0  0  0  0  0  # atno 17370 bound_to 10713
  156.3508  130.3830  149.7330 LP  0  0  0  0  0  0  0  0  0  0  0  0  # atno 17371 bound_to 10713
  140.7881  134.3648  157.5471 LP  0  0  0  0  0  0  0  0  0  0  0  0  # atno 17394 bound_to 11000
  139.8793  134.9123  156.3058 LP  0  0  0  0  0  0  0  0  0  0  0  0  # atno 17395 bound_to 11000

$$$$
