AV-unprocessed.smi:107|AV-procd|sdf|1016|dock1
  -GOLD-   2262018 13D 1   1.00000     0.00000
 Structure written by MMmdl.
 31 32  0  0  0  0  0  0  0  0  1 V2000
  152.7559  143.9867  160.2464 C   0  0  0  0  0  0  0  0  0  0  0  0
  152.0642  143.1648  159.1715 C   0  0  0  0  0  0  0  0  0  0  0  0
  152.3465  141.8533  158.9643 C   0  0  0  0  0  0  0  0  0  0  0  0
  151.7353  141.0767  157.9900 N   0  0  0  0  0  0  0  0  0  0  0  0
  152.1018  139.6194  157.8192 C   0  0  1  0  0  0  0  0  0  0  0  0
  150.8670  138.7247  157.9680 C   0  0  0  0  0  0  0  0  0  0  0  0
  150.5843  138.3196  156.5335 C   0  0  2  0  0  0  0  0  0  0  0  0
  149.9738  137.0465  156.4768 O   0  0  0  0  0  0  0  0  0  0  0  0
  151.9816  138.3259  155.9084 C   0  0  1  0  0  0  0  0  0  0  0  0
  151.9727  138.5197  154.3846 C   0  0  0  0  0  0  0  0  0  0  0  0
  150.9712  137.7135  153.8019 O   0  0  0  0  0  0  0  0  0  0  0  0
  152.6141  139.4392  156.5330 O   0  0  0  0  0  0  0  0  0  0  0  0
  150.7673  141.6625  157.1469 C   0  0  0  0  0  0  0  0  0  0  0  0
  150.1959  141.0474  156.2476 O   0  0  0  0  0  0  0  0  0  0  0  0
  150.4736  143.0081  157.3622 N   0  0  0  0  0  0  0  0  0  0  0  0
  151.0596  143.8241  158.3329 C   0  0  0  0  0  0  0  0  0  0  0  0
  150.7157  145.0013  158.4249 O   0  0  0  0  0  0  0  0  0  0  0  0
  149.7796  143.4302  156.7629 H   0  0  0  0  0  0  0  0  0  0  0  0
  153.4705  143.3906  160.8143 H   0  0  0  0  0  0  0  0  0  0  0  0
  152.0249  144.3899  160.9479 H   0  0  0  0  0  0  0  0  0  0  0  0
  153.2973  144.8207  159.7985 H   0  0  0  0  0  0  0  0  0  0  0  0
  153.0906  141.3908  159.5955 H   0  0  0  0  0  0  0  0  0  0  0  0
  152.8869  139.3843  158.5389 H   0  0  0  0  0  0  0  0  0  0  0  0
  151.1447  137.8616  158.5750 H   0  0  0  0  0  0  0  0  0  0  0  0
  150.0358  139.2407  158.4509 H   0  0  0  0  0  0  0  0  0  0  0  0
  149.9420  139.0595  156.0545 H   0  0  0  0  0  0  0  0  0  0  0  0
  150.0062  136.7357  155.5848 H   0  0  0  0  0  0  0  0  0  0  0  0
  152.5120  137.4137  156.1899 H   0  0  0  0  0  0  0  0  0  0  0  0
  151.7409  139.5565  154.1390 H   0  0  0  0  0  0  0  0  0  0  0  0
  152.9467  138.2932  153.9496 H   0  0  0  0  0  0  0  0  0  0  0  0
  151.3637  137.1939  153.1170 H   0  0  0  0  0  0  0  0  0  0  0  0
  1  2  1  0  0  0  0
  1 19  1  0  0  0  0
  1 20  1  0  0  0  0
  1 21  1  0  0  0  0
  2 16  1  0  0  0  0
  2  3  2  0  0  0  0
  3  4  1  0  0  0  0
  3 22  1  0  0  0  0
  4  5  1  0  0  0  0
  4 13  1  0  0  0  0
  5 12  1  0  0  0  0
  5  6  1  0  0  0  0
  5 23  1  0  0  0  0
  6  7  1  0  0  0  0
  6 24  1  0  0  0  0
  6 25  1  0  0  0  0
  7  8  1  0  0  0  0
  7  9  1  0  0  0  0
  7 26  1  0  0  0  0
  8 27  1  0  0  0  0
  9 10  1  0  0  0  0
  9 12  1  0  0  0  0
  9 28  1  0  0  0  0
 10 11  1  0  0  0  0
 10 29  1  0  0  0  0
 10 30  1  0  0  0  0
 11 31  1  0  0  0  0
 13 14  2  0  0  0  0
 13 15  1  0  0  0  0
 15 18  1  0  0  0  0
 15 16  1  0  0  0  0
 16 17  2  0  0  0  0
M  END
> <s_m_source_file>
AV-unprocessed.smi

> <i_m_source_file_index>
107

> <i_lp_mmshare_version>
43012

> <i_f3d_flags>
0

> <s_epik_input>
Tz1jMVtuSF1jKD1PKW4oW2NIXWMxW0NIM10pW0NAQEhdMltDSDJdW0NAQEhdKFtPSF0pW0NASF0oTzIpW0NIMl1bT0hd

> <s_epik_cmdline>
J2VwaWtfcHl0aG9uJywgJy1waCcsICc3LjAnLCAnLXRuJywgJzgnLCAnLW1hJywgJzIwMCcsICctbWV0YWxfYmluZGluZycsICctaW1hZScsICc8aW5maWxlLm1hZT4nLCAnLW9tYWUnLCAnPG91dGZpbGUubWFlPic=

> <r_lp_tautomer_probability>
0.999537

> <r_epik_Ionization_Penalty>
0.00121888

> <r_epik_Ionization_Penalty_Charging>
0.00121876

> <r_epik_Ionization_Penalty_Neutral>
1.19946e-07

> <r_epik_State_Penalty>
0.000805124

> <r_epik_Charging_Adjusted_Penalty>
0.00202389

> <i_epik_Tot_Q>
0

> <i_epik_Tot_abs_Q>
0

> <r_epik_Metal_State_Penalty>
0.662472

> <b_epik_Metal_Only>
0

> <s_epik_Chemistry_Notes>
This compound contains an acetal/aminal-like group ( X-CH(R)-Y where X, Y are N, S, or O) that may be acid/base labile, releasing an aldehyde.

> <s_lp_Force_Field>
OPLS_2005

> <r_lp_Energy>
24.9253

> <b_lp_Chiralities_Consistent>
1

> <s_lp_Variant>
AV-unprocessed.smi:107-4

> <Gold.Version>
5.8.1

> <Gold.Id.Protein>
6NUR|6NUR_protein|mol2

> <Gold.PLP.Fitness>
36.0159

> <Gold.PLP.PLP>
-27.3409

> <Gold.PLP.part.hbond>
-3.7342

> <Gold.PLP.part.metal>
0.0000

> <Gold.PLP.part.buried>
-5.9258

> <Gold.PLP.part.nonpolar>
-17.8113

> <Gold.PLP.part.repulsive>
0.2507

> <Gold.PLP.ligand.clash>
0.0000

> <Gold.PLP.ligand.torsion>
0.1669

> <Gold.PLP.Chemscore.Hbond>
3.0000

> <Gold.PLP.Chemscore.CHOScore>
0.0000

> <Gold.PLP.Chemscore.Metal>
0.0000

> <Gold.Chemscore.Hbonds>
donor molecule, donor type, donor heavy atom, donor atom, acceptor molecule, acceptor atom, score
      L1  H    11    31       P1  7949  0.99
      L1  H    15    18       P1  8028  1.00
      P1  H  7997  8009       L1    12  1.00

> <Gold.PLP.Chemscore.Internal.Correction>
0.0089

> <Gold.Rescore>
     Score         DG    S(hbond)    S(metal)    S(lipo)     H(rot)  DE(clash)    DE(int)     intcor
      9.73     -14.08       2.68        0.00      56.51       2.73       0.35       3.99       ----

> <Gold.Chemscore.Fitness>
9.7348

> <Gold.Chemscore.DG>
-14.0760

> <Gold.Chemscore.ZeroCoef>
-5.4800

> <Gold.Chemscore.Hbond>
2.6828

> <Gold.Chemscore.Metal>
0.0000

> <Gold.Chemscore.Lipo>
56.5148

> <Gold.Chemscore.Internal_Hbond>
0.0000

> <Gold.Chemscore.DEClash>
0.3534

> <Gold.Chemscore.DEInternal>
3.9879

> <Gold.Chemscore.Rot>
2.7253

> <Gold.Chemscore.Internal.Correction>
   9.000000E+99

> <Gold.Chemscore.Hbonds>
donor molecule, donor type, donor heavy atom, donor atom, acceptor molecule, acceptor atom, score
      L1  H    11    31       P1  7949  0.68
      L1  H    15    18       P1  8028  0.99
      P1  H  7997  8009       L1    12  0.92

> <Gold.Chemscore.Hbond.Weighted>
-8.9606

> <Gold.Chemscore.Metal.Weighted>
-0.0000

> <Gold.Chemscore.Lipo.Weighted>
-6.6122

> <Gold.Chemscore.Internal_Hbond.Weighted>
0.0000

> <Gold.Chemscore.DEClash.Weighted>
0.3534

> <Gold.Chemscore.DEInternal.Weighted>
3.9879

> <Gold.Chemscore.Rot.Weighted>
6.9769

> <Gold.Chemscore.Internal.Correction.Weighted>
   9.000000E+99

> <Gold.Protein.RotatedTorsions>
[ 6907 6896 6895 6894 ] final   -6.54 input  -60.11 | X-H torsion
[ 7974 7965 7964 7962 ] final  148.57 input  175.53 | X-H torsion
[ 8008 7997 7996 7995 ] final -149.99 input   59.86 | X-H torsion
[ 10167 10162 10161 10158 ] final   78.96 input  -65.29 | X-H torsion
[ 10718 10713 10712 10709 ] final -133.22 input   66.30 | X-H torsion
[ 10763 10752 10751 10750 ] final -144.21 input  -60.55 | X-H torsion
[ 11005 11000 10999 10996 ] final -157.30 input  -57.11 | X-H torsion

> <Gold.Protein.ActiveResidues>
 VAL166  LYS551  ARG553  GLY616  TRP617  ASP618  TYR619  PRO620  LYS621  CYS622 
 ASP623  PHE694  ASN695  SER759  ASP760  ASP761  ALA762  ILE779  LEU786  VAL792 
 PHE793  MET794  SER795  GLU796  ALA797  LYS798  CYS799  TRP800  GLU811  SER814 

> <Gold.Protein.RotatedAtoms>
  151.4639  135.1040  159.9732 H   0  0  0  0  0  0  0  0  0  0  0  0  # atno 6907 bound_to 6896
  152.4842  133.8327  159.7122 H   0  0  0  0  0  0  0  0  0  0  0  0  # atno 6908 bound_to 6896
  150.8938  133.7148  159.2924 H   0  0  0  0  0  0  0  0  0  0  0  0  # atno 6909 bound_to 6896
  144.8503  139.6171  143.5976 H   0  0  0  0  0  0  0  0  0  0  0  0  # atno 7974 bound_to 7965
  155.6165  140.0677  157.2691 H   0  0  0  0  0  0  0  0  0  0  0  0  # atno 8008 bound_to 7997
  154.4240  140.1792  156.1375 H   0  0  0  0  0  0  0  0  0  0  0  0  # atno 8009 bound_to 7997
  156.0043  140.3333  155.6880 H   0  0  0  0  0  0  0  0  0  0  0  0  # atno 8010 bound_to 7997
  139.9654  144.5932  150.8034 H   0  0  0  0  0  0  0  0  0  0  0  0  # atno 10167 bound_to 10162
  156.2427  130.7105  151.0973 H   0  0  0  0  0  0  0  0  0  0  0  0  # atno 10718 bound_to 10713
  154.8438  135.3446  154.6309 H   0  0  0  0  0  0  0  0  0  0  0  0  # atno 10763 bound_to 10752
  153.6919  135.6974  153.5092 H   0  0  0  0  0  0  0  0  0  0  0  0  # atno 10764 bound_to 10752
  153.2588  135.4329  155.0828 H   0  0  0  0  0  0  0  0  0  0  0  0  # atno 10765 bound_to 10752
  140.6661  134.4297  157.5233 H   0  0  0  0  0  0  0  0  0  0  0  0  # atno 11005 bound_to 11000
  146.2779  139.6801  142.9250 LP  0  0  0  0  0  0  0  0  0  0  0  0  # atno 17320 bound_to 7965
  145.4512  141.0428  143.2803 LP  0  0  0  0  0  0  0  0  0  0  0  0  # atno 17321 bound_to 7965
  140.7540  143.3018  151.3061 LP  0  0  0  0  0  0  0  0  0  0  0  0  # atno 17342 bound_to 10162
  139.6522  144.0341  152.2634 LP  0  0  0  0  0  0  0  0  0  0  0  0  # atno 17343 bound_to 10162
  157.7182  131.0697  150.6243 LP  0  0  0  0  0  0  0  0  0  0  0  0  # atno 17370 bound_to 10713
  156.6317  130.4434  149.5784 LP  0  0  0  0  0  0  0  0  0  0  0  0  # atno 17371 bound_to 10713
  139.8997  134.8586  156.1950 LP  0  0  0  0  0  0  0  0  0  0  0  0  # atno 17394 bound_to 11000
  141.0428  133.6929  156.1629 LP  0  0  0  0  0  0  0  0  0  0  0  0  # atno 17395 bound_to 11000

$$$$
