AV-unprocessed.smi:177|AV-procd|sdf|1443|dock7
  -GOLD-   2262019233D 1   1.00000     0.00000
 Structure written by MMmdl.
 61 65  0  0  0  0  0  0  0  0  1 V2000
  143.0673  134.5853  152.4519 C   0  0  0  0  0  0  0  0  0  0  0  0
  143.2698  133.4274  151.6560 O   0  0  0  0  0  0  0  0  0  0  0  0
  144.4280  133.4658  150.8277 C   0  0  2  0  0  0  0  0  0  0  0  0
  144.6070  132.0689  150.2045 C   0  0  0  0  0  0  0  0  0  0  0  0
  144.9918  131.0136  151.2559 C   0  0  0  0  0  0  0  0  0  0  0  0
  146.2407  131.4432  152.0408 C   0  0  2  0  0  0  0  0  0  0  0  0
  146.5219  130.4680  153.0396 O   0  0  0  0  0  0  0  0  0  0  0  0
  147.7154  130.7696  153.7545 C   0  0  0  0  0  0  0  0  0  0  0  0
  147.5598  132.1224  154.4674 C   0  0  0  0  0  0  0  0  0  0  0  0
  147.2018  133.1634  153.5104 N   0  0  0  0  0  0  0  0  0  0  0  0
  147.2185  134.3848  154.0918 C   0  0  0  0  0  0  0  0  0  0  0  0
  146.0617  135.0910  154.0624 N   0  0  0  0  0  0  0  0  0  0  0  0
  146.0013  136.2994  154.6293 C   0  0  0  0  0  0  0  0  0  0  0  0
  146.9646  136.9750  155.2588 N   0  0  0  0  0  0  0  0  0  0  0  0
  148.1365  136.2771  155.2731 C   0  0  0  0  0  0  0  0  0  0  0  0
  148.3503  134.9839  154.7173 C   0  0  0  0  0  0  0  0  0  0  0  0
  149.6667  134.5930  154.9270 N   0  0  0  0  0  0  0  0  0  0  0  0
  150.1958  135.5889  155.5818 C   0  0  0  0  0  0  0  0  0  0  0  0
  149.3542  136.6533  155.8162 N   0  0  0  0  0  0  0  0  0  0  0  0
  149.6861  137.8841  156.5217 C   0  0  0  0  0  0  0  0  0  0  0  0
  150.5567  138.8992  155.7133 C   0  0  0  0  0  0  0  0  0  0  0  0
  149.7501  139.4871  154.5253 C   0  0  0  0  0  0  0  0  0  0  0  0
  149.3376  138.4891  153.6128 O   0  0  0  0  0  0  0  0  0  0  0  0
  151.0304  140.0514  156.6351 C   0  0  0  0  0  0  0  0  0  0  0  0
  152.1047  139.6085  157.6469 C   0  0  0  0  0  0  0  0  0  0  0  0
  153.2096  139.0258  156.9674 O   0  0  0  0  0  0  0  0  0  0  0  0
  152.8540  137.8668  156.2249 C   0  0  0  0  0  0  0  0  0  0  0  0
  151.8359  138.2427  155.1339 C   0  0  0  0  0  0  0  0  0  0  0  0
  146.0224  132.8186  152.7115 C   0  0  1  0  0  0  0  0  0  0  0  0
  145.6859  133.8690  151.6268 C   0  0  0  0  0  0  0  0  0  0  0  0
  142.1273  134.4876  152.9945 H   0  0  0  0  0  0  0  0  0  0  0  0
  143.0049  135.4838  151.8370 H   0  0  0  0  0  0  0  0  0  0  0  0
  143.8571  134.7189  153.1905 H   0  0  0  0  0  0  0  0  0  0  0  0
  144.2634  134.1799  150.0191 H   0  0  0  0  0  0  0  0  0  0  0  0
  143.6933  131.7683  149.6909 H   0  0  0  0  0  0  0  0  0  0  0  0
  145.3856  132.1130  149.4419 H   0  0  0  0  0  0  0  0  0  0  0  0
  144.1593  130.8610  151.9441 H   0  0  0  0  0  0  0  0  0  0  0  0
  145.1699  130.0544  150.7691 H   0  0  0  0  0  0  0  0  0  0  0  0
  147.0853  131.4962  151.3506 H   0  0  0  0  0  0  0  0  0  0  0  0
  147.9027  129.9800  154.4823 H   0  0  0  0  0  0  0  0  0  0  0  0
  148.5679  130.7846  153.0738 H   0  0  0  0  0  0  0  0  0  0  0  0
  146.7856  132.0519  155.2333 H   0  0  0  0  0  0  0  0  0  0  0  0
  148.4909  132.3807  154.9743 H   0  0  0  0  0  0  0  0  0  0  0  0
  145.0440  136.7958  154.5711 H   0  0  0  0  0  0  0  0  0  0  0  0
  151.2256  135.5752  155.9070 H   0  0  0  0  0  0  0  0  0  0  0  0
  148.7532  138.3546  156.8345 H   0  0  0  0  0  0  0  0  0  0  0  0
  150.1811  137.5963  157.4479 H   0  0  0  0  0  0  0  0  0  0  0  0
  148.8550  139.9973  154.8829 H   0  0  0  0  0  0  0  0  0  0  0  0
  150.3324  140.2361  153.9883 H   0  0  0  0  0  0  0  0  0  0  0  0
  149.2601  138.8783  152.7551 H   0  0  0  0  0  0  0  0  0  0  0  0
  151.4495  140.8543  156.0269 H   0  0  0  0  0  0  0  0  0  0  0  0
  150.1850  140.4878  157.1685 H   0  0  0  0  0  0  0  0  0  0  0  0
  152.4609  140.4727  158.2080 H   0  0  0  0  0  0  0  0  0  0  0  0
  151.7036  138.9094  158.3810 H   0  0  0  0  0  0  0  0  0  0  0  0
  153.7550  137.4595  155.7660 H   0  0  0  0  0  0  0  0  0  0  0  0
  152.4667  137.0955  156.8908 H   0  0  0  0  0  0  0  0  0  0  0  0
  151.5946  137.3727  154.5246 H   0  0  0  0  0  0  0  0  0  0  0  0
  152.3250  138.9422  154.4541 H   0  0  0  0  0  0  0  0  0  0  0  0
  145.1706  132.7236  153.3849 H   0  0  0  0  0  0  0  0  0  0  0  0
  146.5305  133.9636  150.9431 H   0  0  0  0  0  0  0  0  0  0  0  0
  145.5491  134.8588  152.0588 H   0  0  0  0  0  0  0  0  0  0  0  0
  1  2  1  0  0  0  0
  1 31  1  0  0  0  0
  1 32  1  0  0  0  0
  1 33  1  0  0  0  0
  2  3  1  0  0  0  0
  3 30  1  0  0  0  0
  3  4  1  0  0  0  0
  3 34  1  0  0  0  0
  4  5  1  0  0  0  0
  4 35  1  0  0  0  0
  4 36  1  0  0  0  0
  5  6  1  0  0  0  0
  5 37  1  0  0  0  0
  5 38  1  0  0  0  0
  6 29  1  0  0  0  0
  6  7  1  0  0  0  0
  6 39  1  0  0  0  0
  7  8  1  0  0  0  0
  8  9  1  0  0  0  0
  8 40  1  0  0  0  0
  8 41  1  0  0  0  0
  9 10  1  0  0  0  0
  9 42  1  0  0  0  0
  9 43  1  0  0  0  0
 10 11  1  0  0  0  0
 10 29  1  0  0  0  0
 11 16  1  0  0  0  0
 11 12  2  0  0  0  0
 12 13  1  0  0  0  0
 13 14  2  0  0  0  0
 13 44  1  0  0  0  0
 14 15  1  0  0  0  0
 15 19  1  0  0  0  0
 15 16  2  0  0  0  0
 16 17  1  0  0  0  0
 17 18  2  0  0  0  0
 18 19  1  0  0  0  0
 18 45  1  0  0  0  0
 19 20  1  0  0  0  0
 20 21  1  0  0  0  0
 20 46  1  0  0  0  0
 20 47  1  0  0  0  0
 21 28  1  0  0  0  0
 21 22  1  0  0  0  0
 21 24  1  0  0  0  0
 22 23  1  0  0  0  0
 22 48  1  0  0  0  0
 22 49  1  0  0  0  0
 23 50  1  0  0  0  0
 24 25  1  0  0  0  0
 24 51  1  0  0  0  0
 24 52  1  0  0  0  0
 25 26  1  0  0  0  0
 25 53  1  0  0  0  0
 25 54  1  0  0  0  0
 26 27  1  0  0  0  0
 27 28  1  0  0  0  0
 27 55  1  0  0  0  0
 27 56  1  0  0  0  0
 28 57  1  0  0  0  0
 28 58  1  0  0  0  0
 29 30  1  0  0  0  0
 29 59  1  0  0  0  0
 30 60  1  0  0  0  0
 30 61  1  0  0  0  0
M  END
> <s_m_source_file>
AV-unprocessed.smi

> <i_m_source_file_index>
177

> <i_lp_mmshare_version>
43012

> <i_f3d_flags>
0

> <s_epik_input>
W0NIM11PW0NASF0oW0NIMl1bQ0gyXTEpW0NIMl1bQ0BIXShbQ0BASF0xMilOKFtDSDJdW0NIMl1PMiljKG5bY0hdbjMpYyhjMzQpbltjSF1uNFtDSDJdQzUoW0NIMl1bT0hdKVtDSDJdW0NIMl1PW0NIMl1bQ0gyXTU=

> <s_epik_cmdline>
J2VwaWtfcHl0aG9uJywgJy1waCcsICc3LjAnLCAnLXRuJywgJzgnLCAnLW1hJywgJzIwMCcsICctbWV0YWxfYmluZGluZycsICctaW1hZScsICc8aW5maWxlLm1hZT4nLCAnLW9tYWUnLCAnPG91dGZpbGUubWFlPic=

> <r_lp_tautomer_probability>
1

> <r_epik_Ionization_Penalty>
0.0065899

> <r_epik_Ionization_Penalty_Charging>
0

> <r_epik_Ionization_Penalty_Neutral>
0.0065899

> <r_epik_State_Penalty>
0.00470042

> <r_epik_Charging_Adjusted_Penalty>
0.00470042

> <i_epik_Tot_Q>
0

> <i_epik_Tot_abs_Q>
0

> <r_epik_Metal_State_Penalty>
-0

> <b_epik_Metal_Only>
0

> <s_lp_Force_Field>
OPLS_2005

> <r_lp_Energy>
42.7066

> <b_lp_Chiralities_Consistent>
1

> <s_lp_Variant>
AV-unprocessed.smi:177-7

> <Gold.Version>
5.8.1

> <Gold.Id.Protein>
6NUR|6NUR_protein|mol2

> <Gold.PLP.Fitness>
43.4916

> <Gold.PLP.PLP>
-38.1048

> <Gold.PLP.part.hbond>
-2.7450

> <Gold.PLP.part.metal>
0.0000

> <Gold.PLP.part.buried>
-5.7557

> <Gold.PLP.part.nonpolar>
-31.2694

> <Gold.PLP.part.repulsive>
0.7806

> <Gold.PLP.ligand.clash>
0.0000

> <Gold.PLP.ligand.torsion>
0.3781

> <Gold.PLP.Chemscore.Hbond>
1.9920

> <Gold.PLP.Chemscore.CHOScore>
0.0000

> <Gold.PLP.Chemscore.Metal>
0.0000

> <Gold.Chemscore.Hbonds>
donor molecule, donor type, donor heavy atom, donor atom, acceptor molecule, acceptor atom, score
      L1  H    23    50       P1  7957  1.00
      P1  H  7997  8010       L1    26  1.00

> <Gold.PLP.Chemscore.Internal.Correction>
0.1671

> <Gold.Rescore>
     Score         DG    S(hbond)    S(metal)    S(lipo)     H(rot)  DE(clash)    DE(int)     intcor
     14.63     -16.66       1.96        0.00      96.24       2.58       0.01       2.02       ----

> <Gold.Chemscore.Fitness>
14.6315

> <Gold.Chemscore.DG>
-16.6630

> <Gold.Chemscore.ZeroCoef>
-5.4800

> <Gold.Chemscore.Hbond>
1.9550

> <Gold.Chemscore.Metal>
0.0000

> <Gold.Chemscore.Lipo>
96.2351

> <Gold.Chemscore.Internal_Hbond>
0.0000

> <Gold.Chemscore.DEClash>
0.0106

> <Gold.Chemscore.DEInternal>
2.0209

> <Gold.Chemscore.Rot>
2.5806

> <Gold.Chemscore.Internal.Correction>
   9.000000E+99

> <Gold.Chemscore.Hbonds>
donor molecule, donor type, donor heavy atom, donor atom, acceptor molecule, acceptor atom, score
      L1  H    23    50       P1  7957  0.94
      P1  H  7997  8010       L1    26  0.84

> <Gold.Chemscore.Hbond.Weighted>
-6.5298

> <Gold.Chemscore.Metal.Weighted>
-0.0000

> <Gold.Chemscore.Lipo.Weighted>
-11.2595

> <Gold.Chemscore.Internal_Hbond.Weighted>
0.0000

> <Gold.Chemscore.DEClash.Weighted>
0.0106

> <Gold.Chemscore.DEInternal.Weighted>
2.0209

> <Gold.Chemscore.Rot.Weighted>
6.6062

> <Gold.Chemscore.Internal.Correction.Weighted>
   9.000000E+99

> <Gold.Protein.RotatedTorsions>
[ 6907 6896 6895 6894 ] final  -52.14 input  -60.11 | X-H torsion
[ 7974 7965 7964 7962 ] final  117.89 input  175.53 | X-H torsion
[ 8008 7997 7996 7995 ] final   47.98 input   59.86 | X-H torsion
[ 10167 10162 10161 10158 ] final  -20.26 input  -65.29 | X-H torsion
[ 10718 10713 10712 10709 ] final   75.96 input   66.30 | X-H torsion
[ 10763 10752 10751 10750 ] final  113.44 input  -60.55 | X-H torsion
[ 11005 11000 10999 10996 ] final -148.37 input  -57.11 | X-H torsion

> <Gold.Protein.ActiveResidues>
 VAL166  LYS551  ARG553  GLY616  TRP617  ASP618  TYR619  PRO620  LYS621  CYS622 
 ASP623  PHE694  ASN695  SER759  ASP760  ASP761  ALA762  ILE779  LEU786  VAL792 
 PHE793  MET794  SER795  GLU796  ALA797  LYS798  CYS799  TRP800  GLU811  SER814 

> <Gold.Protein.RotatedAtoms>
  150.8545  134.7880  159.7034 H   0  0  0  0  0  0  0  0  0  0  0  0  # atno 6907 bound_to 6896
  152.4601  134.5201  159.9789 H   0  0  0  0  0  0  0  0  0  0  0  0  # atno 6908 bound_to 6896
  151.5315  133.3410  159.2955 H   0  0  0  0  0  0  0  0  0  0  0  0  # atno 6909 bound_to 6896
  145.1618  139.3151  143.4513 H   0  0  0  0  0  0  0  0  0  0  0  0  # atno 7974 bound_to 7965
  155.3781  140.3427  155.4245 H   0  0  0  0  0  0  0  0  0  0  0  0  # atno 8008 bound_to 7997
  156.1625  140.1605  156.8621 H   0  0  0  0  0  0  0  0  0  0  0  0  # atno 8009 bound_to 7997
  154.5153  140.0780  156.8052 H   0  0  0  0  0  0  0  0  0  0  0  0  # atno 8010 bound_to 7997
  140.7275  143.4740  151.0208 H   0  0  0  0  0  0  0  0  0  0  0  0  # atno 10167 bound_to 10162
  157.6655  130.9751  150.1428 H   0  0  0  0  0  0  0  0  0  0  0  0  # atno 10718 bound_to 10713
  153.4925  135.3655  155.2499 H   0  0  0  0  0  0  0  0  0  0  0  0  # atno 10763 bound_to 10752
  154.8751  135.3980  154.3572 H   0  0  0  0  0  0  0  0  0  0  0  0  # atno 10764 bound_to 10752
  153.4194  135.7080  153.6370 H   0  0  0  0  0  0  0  0  0  0  0  0  # atno 10765 bound_to 10752
  140.7620  134.3287  157.5099 H   0  0  0  0  0  0  0  0  0  0  0  0  # atno 11005 bound_to 11000
  146.3481  140.1731  142.8589 LP  0  0  0  0  0  0  0  0  0  0  0  0  # atno 17320 bound_to 7965
  145.0323  140.8880  143.5102 LP  0  0  0  0  0  0  0  0  0  0  0  0  # atno 17321 bound_to 7965
  139.8434  143.7534  152.3180 LP  0  0  0  0  0  0  0  0  0  0  0  0  # atno 17342 bound_to 10162
  139.7690  144.7482  151.0251 LP  0  0  0  0  0  0  0  0  0  0  0  0  # atno 17343 bound_to 10162
  156.2247  130.3677  149.8515 LP  0  0  0  0  0  0  0  0  0  0  0  0  # atno 17370 bound_to 10713
  156.6358  130.8684  151.3504 LP  0  0  0  0  0  0  0  0  0  0  0  0  # atno 17371 bound_to 10713
  139.8769  134.9208  156.3259 LP  0  0  0  0  0  0  0  0  0  0  0  0  # atno 17394 bound_to 11000
  140.9654  133.7361  156.0460 LP  0  0  0  0  0  0  0  0  0  0  0  0  # atno 17395 bound_to 11000

$$$$
