AV-unprocessed.smi:838|AV-procd|sdf|3908|dock2
  -GOLD-   22720 1373D 1   1.00000     0.00000
 Structure written by MMmdl.
 45 46  0  0  0  0  0  0  0  0  1 V2000
  151.4816  141.4399  157.8044 C   0  0  0  0  0  0  0  0  0  0  0  0
  151.6054  140.3881  156.6999 C   0  0  0  0  0  0  0  0  0  0  0  0
  152.3969  139.4606  156.8703 O   0  0  0  0  0  0  0  0  0  0  0  0
  150.8518  140.5108  155.5815 N   0  0  0  0  0  0  0  0  0  0  0  0
  150.8752  139.5390  154.4847 C   0  0  0  0  0  0  0  0  0  0  0  0
  149.4875  138.8789  154.3702 C   0  0  0  0  0  0  0  0  0  0  0  0
  148.4610  139.8962  154.1274 N   0  0  0  0  0  0  0  0  0  0  0  0
  147.1587  139.2452  153.9834 C   0  0  0  0  0  0  0  0  0  0  0  0
  146.7424  139.0338  152.5132 C   0  0  0  0  0  0  0  0  0  0  0  0
  146.8585  137.6342  152.1140 N   0  0  0  0  0  0  0  0  0  0  0  0
  145.8395  136.7673  152.0190 C   0  0  0  0  0  0  0  0  0  0  0  0
  144.6727  137.0564  152.2871 O   0  0  0  0  0  0  0  0  0  0  0  0
  146.2652  135.5651  151.5931 N   0  0  0  0  0  0  0  0  0  0  0  0
  145.5032  134.3844  151.3660 C   0  0  0  0  0  0  0  0  0  0  0  0
  144.2544  134.4094  150.8360 N   0  0  0  0  0  0  0  0  0  0  0  0
  143.5871  133.2525  150.6502 C   0  0  0  0  0  0  0  0  0  0  0  0
  144.1226  131.9960  150.9814 C   0  0  0  0  0  0  0  0  0  0  0  0
  145.4152  131.9519  151.5309 C   0  0  0  0  0  0  0  0  0  0  0  0
  146.1212  133.1575  151.7287 C   0  0  0  0  0  0  0  0  0  0  0  0
  147.5210  133.1118  152.3199 C   0  0  0  0  0  0  0  0  0  0  0  0
  148.4590  140.8738  155.2228 C   0  0  0  0  0  0  0  0  0  0  0  0
  149.8417  141.5442  155.3333 C   0  0  0  0  0  0  0  0  0  0  0  0
  150.4662  141.4671  158.2008 H   0  0  0  0  0  0  0  0  0  0  0  0
  151.7424  142.4288  157.4270 H   0  0  0  0  0  0  0  0  0  0  0  0
  152.1556  141.2109  158.6303 H   0  0  0  0  0  0  0  0  0  0  0  0
  151.1309  140.0490  153.5548 H   0  0  0  0  0  0  0  0  0  0  0  0
  151.6336  138.7675  154.6217 H   0  0  0  0  0  0  0  0  0  0  0  0
  149.4950  138.1626  153.5479 H   0  0  0  0  0  0  0  0  0  0  0  0
  149.2573  138.3224  155.2802 H   0  0  0  0  0  0  0  0  0  0  0  0
  147.1942  138.2675  154.4665 H   0  0  0  0  0  0  0  0  0  0  0  0
  146.3979  139.8218  154.5118 H   0  0  0  0  0  0  0  0  0  0  0  0
  145.6943  139.3123  152.4039 H   0  0  0  0  0  0  0  0  0  0  0  0
  147.2882  139.6910  151.8361 H   0  0  0  0  0  0  0  0  0  0  0  0
  147.7827  137.3085  151.8721 H   0  0  0  0  0  0  0  0  0  0  0  0
  147.2530  135.4826  151.4045 H   0  0  0  0  0  0  0  0  0  0  0  0
  142.5977  133.3318  150.2250 H   0  0  0  0  0  0  0  0  0  0  0  0
  143.5568  131.0909  150.8174 H   0  0  0  0  0  0  0  0  0  0  0  0
  145.8567  131.0025  151.7962 H   0  0  0  0  0  0  0  0  0  0  0  0
  147.8272  132.0885  152.5379 H   0  0  0  0  0  0  0  0  0  0  0  0
  147.5619  133.6790  153.2504 H   0  0  0  0  0  0  0  0  0  0  0  0
  148.2432  133.5366  151.6221 H   0  0  0  0  0  0  0  0  0  0  0  0
  147.7106  141.6444  155.0450 H   0  0  0  0  0  0  0  0  0  0  0  0
  148.1990  140.3854  156.1634 H   0  0  0  0  0  0  0  0  0  0  0  0
  149.8075  142.3142  156.1020 H   0  0  0  0  0  0  0  0  0  0  0  0
  150.0811  142.0659  154.4052 H   0  0  0  0  0  0  0  0  0  0  0  0
  1  2  1  0  0  0  0
  1 23  1  0  0  0  0
  1 24  1  0  0  0  0
  1 25  1  0  0  0  0
  2  3  2  0  0  0  0
  2  4  1  0  0  0  0
  4 22  1  0  0  0  0
  4  5  1  0  0  0  0
  5  6  1  0  0  0  0
  5 26  1  0  0  0  0
  5 27  1  0  0  0  0
  6  7  1  0  0  0  0
  6 28  1  0  0  0  0
  6 29  1  0  0  0  0
  7  8  1  0  0  0  0
  7 21  1  0  0  0  0
  8  9  1  0  0  0  0
  8 30  1  0  0  0  0
  8 31  1  0  0  0  0
  9 10  1  0  0  0  0
  9 32  1  0  0  0  0
  9 33  1  0  0  0  0
 10 11  1  0  0  0  0
 10 34  1  0  0  0  0
 11 12  2  0  0  0  0
 11 13  1  0  0  0  0
 13 14  1  0  0  0  0
 13 35  1  0  0  0  0
 14 19  1  0  0  0  0
 14 15  2  0  0  0  0
 15 16  1  0  0  0  0
 16 17  2  0  0  0  0
 16 36  1  0  0  0  0
 17 18  1  0  0  0  0
 17 37  1  0  0  0  0
 18 19  2  0  0  0  0
 18 38  1  0  0  0  0
 19 20  1  0  0  0  0
 20 39  1  0  0  0  0
 20 40  1  0  0  0  0
 20 41  1  0  0  0  0
 21 22  1  0  0  0  0
 21 42  1  0  0  0  0
 21 43  1  0  0  0  0
 22 44  1  0  0  0  0
 22 45  1  0  0  0  0
M  END
> <s_m_source_file>
AV-unprocessed.smi

> <i_m_source_file_index>
838

> <i_lp_mmshare_version>
43012

> <i_f3d_flags>
0

> <s_epik_input>
W0NIM11DKD1PKU4xW0NIMl1bQ0gyXU4oW0NIMl1bQ0gyXTEpW0NIMl1bQ0gyXVtOSF1DKD1PKVtOSF1jMm5bY0hdW2NIXVtjSF1jMltDSDNd

> <s_epik_cmdline>
J2VwaWtfcHl0aG9uJywgJy1waCcsICc3LjAnLCAnLXRuJywgJzgnLCAnLW1hJywgJzIwMCcsICctbWV0YWxfYmluZGluZycsICctaW1hZScsICc8aW5maWxlLm1hZT4nLCAnLW9tYWUnLCAnPG91dGZpbGUubWFlPic=

> <r_epik_Ionization_Penalty>
0.25102

> <r_epik_Ionization_Penalty_Charging>
0

> <r_epik_Ionization_Penalty_Neutral>
0.25102

> <r_epik_State_Penalty>
0.242297

> <r_epik_Charging_Adjusted_Penalty>
0.242297

> <i_epik_Tot_Q>
0

> <i_epik_Tot_abs_Q>
0

> <r_epik_Metal_State_Penalty>
0.242294

> <b_epik_Metal_Only>
0

> <s_lp_Force_Field>
OPLS_2005

> <r_lp_Energy>
40.132

> <b_lp_Chiralities_Consistent>
1

> <s_lp_Variant>
AV-unprocessed.smi:838-1

> <Gold.Version>
5.8.1

> <Gold.Id.Protein>
6NUR|6NUR_protein|mol2

> <Gold.PLP.Fitness>
47.2741

> <Gold.PLP.PLP>
-38.2044

> <Gold.PLP.part.hbond>
-2.7550

> <Gold.PLP.part.metal>
0.0000

> <Gold.PLP.part.buried>
-1.5359

> <Gold.PLP.part.nonpolar>
-34.6527

> <Gold.PLP.part.repulsive>
0.8468

> <Gold.PLP.ligand.clash>
0.0000

> <Gold.PLP.ligand.torsion>
1.2852

> <Gold.PLP.Chemscore.Hbond>
2.8713

> <Gold.PLP.Chemscore.CHOScore>
1.0000

> <Gold.PLP.Chemscore.Metal>
0.0000

> <Gold.Chemscore.Hbonds>
donor molecule, donor type, donor heavy atom, donor atom, acceptor molecule, acceptor atom, score
      L1  H    10    34       P1  7948  1.00
      L1  H    13    35       P1  7948  0.88
      P1  H  7997  8010       L1     3  0.83
      L1  C    16    36       P1 10186  1.00

> <Gold.PLP.Chemscore.Internal.Correction>
0.0264

> <Gold.Rescore>
     Score         DG    S(hbond)    S(metal)    S(lipo)     H(rot)  DE(clash)    DE(int)     intcor
     16.81     -20.47       2.76        0.00      82.96       1.54       1.56       2.10       ----

> <Gold.Chemscore.Fitness>
16.8076

> <Gold.Chemscore.DG>
-20.4667

> <Gold.Chemscore.ZeroCoef>
-5.4800

> <Gold.Chemscore.Hbond>
2.7644

> <Gold.Chemscore.Metal>
0.0000

> <Gold.Chemscore.Lipo>
82.9623

> <Gold.Chemscore.Internal_Hbond>
0.0000

> <Gold.Chemscore.DEClash>
1.5634

> <Gold.Chemscore.DEInternal>
2.0957

> <Gold.Chemscore.Rot>
1.5441

> <Gold.Chemscore.Internal.Correction>
   9.000000E+99

> <Gold.Chemscore.Hbonds>
donor molecule, donor type, donor heavy atom, donor atom, acceptor molecule, acceptor atom, score
      L1  H    10    34       P1  7948  0.95
      L1  H    13    35       P1  7948  0.82
      P1  H  7997  8010       L1     3  0.58

> <Gold.Chemscore.Hbond.Weighted>
-9.2332

> <Gold.Chemscore.Metal.Weighted>
-0.0000

> <Gold.Chemscore.Lipo.Weighted>
-9.7066

> <Gold.Chemscore.Internal_Hbond.Weighted>
0.0000

> <Gold.Chemscore.DEClash.Weighted>
1.5634

> <Gold.Chemscore.DEInternal.Weighted>
2.0957

> <Gold.Chemscore.Rot.Weighted>
3.9530

> <Gold.Chemscore.Internal.Correction.Weighted>
   9.000000E+99

> <Gold.Protein.RotatedTorsions>
[ 6907 6896 6895 6894 ] final    4.01 input  -60.11 | X-H torsion
[ 7974 7965 7964 7962 ] final -109.21 input  175.53 | X-H torsion
[ 8008 7997 7996 7995 ] final   73.95 input   59.86 | X-H torsion
[ 10167 10162 10161 10158 ] final  -10.46 input  -65.29 | X-H torsion
[ 10718 10713 10712 10709 ] final  113.65 input   66.30 | X-H torsion
[ 10763 10752 10751 10750 ] final   45.75 input  -60.55 | X-H torsion
[ 11005 11000 10999 10996 ] final  175.88 input  -57.11 | X-H torsion

> <Gold.Protein.ActiveResidues>
 VAL166  LYS551  ARG553  GLY616  TRP617  ASP618  TYR619  PRO620  LYS621  CYS622 
 ASP623  PHE694  ASN695  SER759  ASP760  ASP761  ALA762  ILE779  LEU786  VAL792 
 PHE793  MET794  SER795  GLU796  ALA797  LYS798  CYS799  TRP800  GLU811  SER814 

> <Gold.Protein.RotatedAtoms>
  151.6344  135.1019  160.0128 H   0  0  0  0  0  0  0  0  0  0  0  0  # atno 6907 bound_to 6896
  152.4089  133.6928  159.6389 H   0  0  0  0  0  0  0  0  0  0  0  0  # atno 6908 bound_to 6896
  150.7981  133.8577  159.3264 H   0  0  0  0  0  0  0  0  0  0  0  0  # atno 6909 bound_to 6896
  145.1833  140.8981  143.3467 H   0  0  0  0  0  0  0  0  0  0  0  0  # atno 7974 bound_to 7965
  155.7912  140.3479  155.5350 H   0  0  0  0  0  0  0  0  0  0  0  0  # atno 8008 bound_to 7997
  155.8632  140.0974  157.1620 H   0  0  0  0  0  0  0  0  0  0  0  0  # atno 8009 bound_to 7997
  154.4013  140.1354  156.3974 H   0  0  0  0  0  0  0  0  0  0  0  0  # atno 8010 bound_to 7997
  140.7114  143.5746  150.9056 H   0  0  0  0  0  0  0  0  0  0  0  0  # atno 10167 bound_to 10162
  157.6326  131.0987  150.7072 H   0  0  0  0  0  0  0  0  0  0  0  0  # atno 10718 bound_to 10713
  152.9820  135.6030  154.3487 H   0  0  0  0  0  0  0  0  0  0  0  0  # atno 10763 bound_to 10752
  154.3178  135.2770  155.2536 H   0  0  0  0  0  0  0  0  0  0  0  0  # atno 10764 bound_to 10752
  154.4716  135.5940  153.6381 H   0  0  0  0  0  0  0  0  0  0  0  0  # atno 10765 bound_to 10752
  140.3670  134.7063  157.4368 H   0  0  0  0  0  0  0  0  0  0  0  0  # atno 11005 bound_to 11000
  145.0114  139.3506  143.6118 LP  0  0  0  0  0  0  0  0  0  0  0  0  # atno 17320 bound_to 7965
  146.3449  139.9378  142.8745 LP  0  0  0  0  0  0  0  0  0  0  0  0  # atno 17321 bound_to 7965
  139.9472  143.6314  152.3038 LP  0  0  0  0  0  0  0  0  0  0  0  0  # atno 17342 bound_to 10162
  139.6820  144.7655  151.1592 LP  0  0  0  0  0  0  0  0  0  0  0  0  # atno 17343 bound_to 10162
  156.7409  130.4738  149.5478 LP  0  0  0  0  0  0  0  0  0  0  0  0  # atno 17370 bound_to 10713
  156.1540  130.6329  151.0633 LP  0  0  0  0  0  0  0  0  0  0  0  0  # atno 17371 bound_to 10713
  140.0581  134.6034  155.8780 LP  0  0  0  0  0  0  0  0  0  0  0  0  # atno 17394 bound_to 11000
  141.1966  133.6592  156.5702 LP  0  0  0  0  0  0  0  0  0  0  0  0  # atno 17395 bound_to 11000

$$$$
