AV-unprocessed.smi:1040|AV-procd|sdf|4525|dock5
  -GOLD-   22720 2543D 1   1.00000     0.00000
 Structure written by MMmdl.
 54 55  0  0  0  0  0  0  0  0  1 V2000
  145.0031  143.5735  155.8149 C   0  0  0  0  0  0  0  0  0  0  0  0
  145.5846  142.9224  157.0812 C   0  0  1  0  0  0  0  0  0  0  0  0
  147.0294  142.7963  156.9004 N   0  0  0  0  0  0  0  0  0  0  0  0
  147.6835  141.6497  156.6655 C   0  0  0  0  0  0  0  0  0  0  0  0
  147.1223  140.5615  156.5389 O   0  0  0  0  0  0  0  0  0  0  0  0
  149.0073  141.8614  156.5805 N   0  0  0  0  0  0  0  0  0  0  0  0
  150.0442  140.9407  156.2520 C   0  0  0  0  0  0  0  0  0  0  0  0
  149.8883  139.9180  155.2842 C   0  0  0  0  0  0  0  0  0  0  0  0
  150.9509  139.0273  155.0489 C   0  0  0  0  0  0  0  0  0  0  0  0
  152.1304  139.1809  155.7978 C   0  0  0  0  0  0  0  0  0  0  0  0
  152.2907  140.1395  156.7322 N   0  0  0  0  0  0  0  0  0  0  0  0
  151.2734  141.0048  156.9630 C   0  0  0  0  0  0  0  0  0  0  0  0
  151.4838  142.0029  157.9353 N   0  0  0  0  0  0  0  0  0  0  0  0
  152.4557  141.7074  158.9877 C   0  0  0  0  0  0  0  0  0  0  0  0
  152.3329  142.7206  160.1386 C   0  0  0  0  0  0  0  0  0  0  0  0
  152.4483  144.1624  159.6171 C   0  0  0  0  0  0  0  0  0  0  0  0
  151.4291  144.4066  158.4921 C   0  0  0  0  0  0  0  0  0  0  0  0
  151.5730  143.3524  157.3812 C   0  0  0  0  0  0  0  0  0  0  0  0
  145.2733  143.8441  158.2709 C   0  0  0  0  0  0  0  0  0  0  0  0
  144.1088  144.1469  158.5358 O   0  0  0  0  0  0  0  0  0  0  0  0
  146.3357  144.2591  158.9836 N   0  0  0  0  0  0  0  0  0  0  0  0
  146.3588  145.1224  160.1703 C   0  0  0  0  0  0  0  0  0  0  0  0
  145.8520  146.5063  159.7274 C   0  0  0  0  0  0  0  0  0  0  0  0
  147.7975  145.2660  160.7094 C   0  0  0  0  0  0  0  0  0  0  0  0
  145.4200  144.5719  161.2648 C   0  0  0  0  0  0  0  0  0  0  0  0
  143.9212  143.6911  155.8908 H   0  0  0  0  0  0  0  0  0  0  0  0
  145.2005  142.9575  154.9369 H   0  0  0  0  0  0  0  0  0  0  0  0
  145.4330  144.5590  155.6281 H   0  0  0  0  0  0  0  0  0  0  0  0
  145.1326  141.9396  157.2304 H   0  0  0  0  0  0  0  0  0  0  0  0
  147.5717  143.6426  156.9916 H   0  0  0  0  0  0  0  0  0  0  0  0
  149.3034  142.8236  156.6578 H   0  0  0  0  0  0  0  0  0  0  0  0
  148.9725  139.7860  154.7301 H   0  0  0  0  0  0  0  0  0  0  0  0
  150.8597  138.2391  154.3164 H   0  0  0  0  0  0  0  0  0  0  0  0
  152.9657  138.5134  155.6474 H   0  0  0  0  0  0  0  0  0  0  0  0
  152.2972  140.6967  159.3663 H   0  0  0  0  0  0  0  0  0  0  0  0
  153.4634  141.7421  158.5713 H   0  0  0  0  0  0  0  0  0  0  0  0
  151.3720  142.5895  160.6380 H   0  0  0  0  0  0  0  0  0  0  0  0
  153.1010  142.5294  160.8883 H   0  0  0  0  0  0  0  0  0  0  0  0
  152.2904  144.8717  160.4299 H   0  0  0  0  0  0  0  0  0  0  0  0
  153.4572  144.3362  159.2412 H   0  0  0  0  0  0  0  0  0  0  0  0
  150.4181  144.3695  158.9004 H   0  0  0  0  0  0  0  0  0  0  0  0
  151.5595  145.4066  158.0778 H   0  0  0  0  0  0  0  0  0  0  0  0
  152.5370  143.4652  156.8835 H   0  0  0  0  0  0  0  0  0  0  0  0
  150.8080  143.5126  156.6212 H   0  0  0  0  0  0  0  0  0  0  0  0
  147.2390  143.9394  158.6650 H   0  0  0  0  0  0  0  0  0  0  0  0
  145.8389  147.2100  160.5606 H   0  0  0  0  0  0  0  0  0  0  0  0
  144.8376  146.4507  159.3305 H   0  0  0  0  0  0  0  0  0  0  0  0
  146.4872  146.9324  158.9496 H   0  0  0  0  0  0  0  0  0  0  0  0
  148.4779  145.6192  159.9338 H   0  0  0  0  0  0  0  0  0  0  0  0
  148.1904  144.3223  161.0876 H   0  0  0  0  0  0  0  0  0  0  0  0
  147.8387  145.9811  161.5317 H   0  0  0  0  0  0  0  0  0  0  0  0
  145.3589  145.2581  162.1102 H   0  0  0  0  0  0  0  0  0  0  0  0
  145.7622  143.6142  161.6568 H   0  0  0  0  0  0  0  0  0  0  0  0
  144.4075  144.4294  160.8847 H   0  0  0  0  0  0  0  0  0  0  0  0
  1  2  1  0  0  0  0
  1 26  1  0  0  0  0
  1 27  1  0  0  0  0
  1 28  1  0  0  0  0
  2  3  1  0  0  0  0
  2 19  1  0  0  0  0
  2 29  1  0  0  0  0
  3  4  1  0  0  0  0
  3 30  1  0  0  0  0
  4  5  2  0  0  0  0
  4  6  1  0  0  0  0
  6  7  1  0  0  0  0
  6 31  1  0  0  0  0
  7 12  1  0  0  0  0
  7  8  2  0  0  0  0
  8  9  1  0  0  0  0
  8 32  1  0  0  0  0
  9 10  2  0  0  0  0
  9 33  1  0  0  0  0
 10 11  1  0  0  0  0
 10 34  1  0  0  0  0
 11 12  2  0  0  0  0
 12 13  1  0  0  0  0
 13 18  1  0  0  0  0
 13 14  1  0  0  0  0
 14 15  1  0  0  0  0
 14 35  1  0  0  0  0
 14 36  1  0  0  0  0
 15 16  1  0  0  0  0
 15 37  1  0  0  0  0
 15 38  1  0  0  0  0
 16 17  1  0  0  0  0
 16 39  1  0  0  0  0
 16 40  1  0  0  0  0
 17 18  1  0  0  0  0
 17 41  1  0  0  0  0
 17 42  1  0  0  0  0
 18 43  1  0  0  0  0
 18 44  1  0  0  0  0
 19 20  2  0  0  0  0
 19 21  1  0  0  0  0
 21 22  1  0  0  0  0
 21 45  1  0  0  0  0
 22 23  1  0  0  0  0
 22 24  1  0  0  0  0
 22 25  1  0  0  0  0
 23 46  1  0  0  0  0
 23 47  1  0  0  0  0
 23 48  1  0  0  0  0
 24 49  1  0  0  0  0
 24 50  1  0  0  0  0
 24 51  1  0  0  0  0
 25 52  1  0  0  0  0
 25 53  1  0  0  0  0
 25 54  1  0  0  0  0
M  END
> <s_m_source_file>
AV-unprocessed.smi

> <i_m_source_file_index>
1040

> <i_lp_mmshare_version>
43012

> <i_f3d_flags>
0

> <s_epik_input>
W0NIM11DKFtDSDNdKShbQ0gzXSlbTkhdQyg9TylbQ0BIXShbQ0gzXSlbTkhdQyg9TylbTkhdYzFbY0hdW2NIXVtjSF1uYzFOMltDSDJdW0NIMl1bQ0gyXVtDSDJdW0NIMl0y

> <s_epik_cmdline>
J2VwaWtfcHl0aG9uJywgJy1waCcsICc3LjAnLCAnLXRuJywgJzgnLCAnLW1hJywgJzIwMCcsICctbWV0YWxfYmluZGluZycsICctaW1hZScsICc8aW5maWxlLm1hZT4nLCAnLW9tYWUnLCAnPG91dGZpbGUubWFlPic=

> <r_lp_tautomer_probability>
1

> <r_epik_Ionization_Penalty>
0.0878593

> <r_epik_Ionization_Penalty_Charging>
0

> <r_epik_Ionization_Penalty_Neutral>
0.0878593

> <r_epik_State_Penalty>
0.07381

> <r_epik_Charging_Adjusted_Penalty>
0.07381

> <i_epik_Tot_Q>
0

> <i_epik_Tot_abs_Q>
0

> <r_epik_Metal_State_Penalty>
0.0646628

> <b_epik_Metal_Only>
0

> <s_lp_Force_Field>
OPLS_2005

> <r_lp_Energy>
20.3339

> <b_lp_Chiralities_Consistent>
1

> <s_lp_Variant>
AV-unprocessed.smi:1040-2

> <Gold.Version>
5.8.1

> <Gold.Id.Protein>
6NUR|6NUR_protein|mol2

> <Gold.PLP.Fitness>
49.2420

> <Gold.PLP.PLP>
-45.9424

> <Gold.PLP.part.hbond>
-4.3949

> <Gold.PLP.part.metal>
0.0000

> <Gold.PLP.part.buried>
-3.2213

> <Gold.PLP.part.nonpolar>
-37.7532

> <Gold.PLP.part.repulsive>
0.1560

> <Gold.PLP.ligand.clash>
0.0000

> <Gold.PLP.ligand.torsion>
0.9626

> <Gold.PLP.Chemscore.Hbond>
1.6363

> <Gold.PLP.Chemscore.CHOScore>
0.0000

> <Gold.PLP.Chemscore.Metal>
0.0000

> <Gold.Chemscore.Hbonds>
donor molecule, donor type, donor heavy atom, donor atom, acceptor molecule, acceptor atom, score
      L1  H     6    31       P1  8028  0.46
      P1  H  7997  8009       L1    11  0.56

> <Gold.PLP.Chemscore.Internal.Correction>
0.3159

> <Gold.Rescore>
     Score         DG    S(hbond)    S(metal)    S(lipo)     H(rot)  DE(clash)    DE(int)     intcor
     16.52     -17.92       1.05        0.00     111.75       1.61       0.39       1.01       ----

> <Gold.Chemscore.Fitness>
16.5168

> <Gold.Chemscore.DG>
-17.9183

> <Gold.Chemscore.ZeroCoef>
-5.4800

> <Gold.Chemscore.Hbond>
1.0469

> <Gold.Chemscore.Metal>
0.0000

> <Gold.Chemscore.Lipo>
111.7458

> <Gold.Chemscore.Internal_Hbond>
0.0000

> <Gold.Chemscore.DEClash>
0.3889

> <Gold.Chemscore.DEInternal>
1.0127

> <Gold.Chemscore.Rot>
1.6143

> <Gold.Chemscore.Internal.Correction>
   9.000000E+99

> <Gold.Chemscore.Hbonds>
donor molecule, donor type, donor heavy atom, donor atom, acceptor molecule, acceptor atom, score
      L1  H     6    31       P1  8028  0.47
      P1  H  7997  8009       L1    11  0.04

> <Gold.Chemscore.Hbond.Weighted>
-3.4967

> <Gold.Chemscore.Metal.Weighted>
-0.0000

> <Gold.Chemscore.Lipo.Weighted>
-13.0743

> <Gold.Chemscore.Internal_Hbond.Weighted>
0.0000

> <Gold.Chemscore.DEClash.Weighted>
0.3889

> <Gold.Chemscore.DEInternal.Weighted>
1.0127

> <Gold.Chemscore.Rot.Weighted>
4.1326

> <Gold.Chemscore.Internal.Correction.Weighted>
   9.000000E+99

> <Gold.Protein.RotatedTorsions>
[ 6907 6896 6895 6894 ] final -153.80 input  -60.11 | X-H torsion
[ 7974 7965 7964 7962 ] final   28.21 input  175.53 | X-H torsion
[ 8008 7997 7996 7995 ] final -170.73 input   59.86 | X-H torsion
[ 10167 10162 10161 10158 ] final    3.84 input  -65.29 | X-H torsion
[ 10718 10713 10712 10709 ] final  114.83 input   66.30 | X-H torsion
[ 10763 10752 10751 10750 ] final  135.50 input  -60.55 | X-H torsion
[ 11005 11000 10999 10996 ] final  100.13 input  -57.11 | X-H torsion

> <Gold.Protein.ActiveResidues>
 VAL166  LYS551  ARG553  GLY616  TRP617  ASP618  TYR619  PRO620  LYS621  CYS622 
 ASP623  PHE694  ASN695  SER759  ASP760  ASP761  ALA762  ILE779  LEU786  VAL792 
 PHE793  MET794  SER795  GLU796  ALA797  LYS798  CYS799  TRP800  GLU811  SER814 

> <Gold.Protein.RotatedAtoms>
  151.2479  133.4365  159.2609 H   0  0  0  0  0  0  0  0  0  0  0  0  # atno 6907 bound_to 6896
  151.0644  134.9758  159.8287 H   0  0  0  0  0  0  0  0  0  0  0  0  # atno 6908 bound_to 6896
  152.5403  134.2428  159.8921 H   0  0  0  0  0  0  0  0  0  0  0  0  # atno 6909 bound_to 6896
  146.1742  139.7087  142.8946 H   0  0  0  0  0  0  0  0  0  0  0  0  # atno 7974 bound_to 7965
  155.9222  140.1076  157.1198 H   0  0  0  0  0  0  0  0  0  0  0  0  # atno 8008 bound_to 7997
  154.4056  140.1253  156.4760 H   0  0  0  0  0  0  0  0  0  0  0  0  # atno 8009 bound_to 7997
  155.7182  140.3470  155.5006 H   0  0  0  0  0  0  0  0  0  0  0  0  # atno 8010 bound_to 7997
  140.6565  143.7413  150.7663 H   0  0  0  0  0  0  0  0  0  0  0  0  # atno 10167 bound_to 10162
  157.6258  131.1004  150.7242 H   0  0  0  0  0  0  0  0  0  0  0  0  # atno 10718 bound_to 10713
  153.8411  135.3091  155.3426 H   0  0  0  0  0  0  0  0  0  0  0  0  # atno 10763 bound_to 10752
  154.7932  135.4770  154.0104 H   0  0  0  0  0  0  0  0  0  0  0  0  # atno 10764 bound_to 10752
  153.1575  135.6855  153.8882 H   0  0  0  0  0  0  0  0  0  0  0  0  # atno 10765 bound_to 10752
  139.8771  134.9126  156.4709 H   0  0  0  0  0  0  0  0  0  0  0  0  # atno 11005 bound_to 11000
  145.4258  141.0411  143.2938 LP  0  0  0  0  0  0  0  0  0  0  0  0  # atno 17320 bound_to 7965
  144.8209  139.5793  143.6987 LP  0  0  0  0  0  0  0  0  0  0  0  0  # atno 17321 bound_to 7965
  140.1074  143.4731  152.2390 LP  0  0  0  0  0  0  0  0  0  0  0  0  # atno 17342 bound_to 10162
  139.5789  144.7501  151.3692 LP  0  0  0  0  0  0  0  0  0  0  0  0  # atno 17343 bound_to 10162
  156.7590  130.4792  149.5441 LP  0  0  0  0  0  0  0  0  0  0  0  0  # atno 17370 bound_to 10713
  156.1430  130.6257  151.0493 LP  0  0  0  0  0  0  0  0  0  0  0  0  # atno 17371 bound_to 10713
  140.8796  133.7927  155.9452 LP  0  0  0  0  0  0  0  0  0  0  0  0  # atno 17394 bound_to 11000
  140.8868  134.2544  157.5116 LP  0  0  0  0  0  0  0  0  0  0  0  0  # atno 17395 bound_to 11000

$$$$
