AV-unprocessed.smi:209|AV-procd|sdf|1608|dock5
  -GOLD-   2262019523D 1   1.00000     0.00000
 Structure written by MMmdl.
 48 52  0  0  0  0  0  0  0  0  1 V2000
  153.4350  142.4576  162.0715 O   0  0  0  0  0  0  0  0  0  0  0  0
  153.0530  142.0064  160.9941 C   0  0  0  0  0  0  0  0  0  0  0  0
  152.7135  140.7385  160.7319 N   0  0  0  0  0  0  0  0  0  0  0  0
  152.2176  140.5621  159.3703 C   0  0  0  0  0  0  0  0  0  0  0  0
  151.8647  142.0052  158.9776 C   0  0  1  0  0  0  0  0  0  0  0  0
  152.9163  142.8175  159.7187 C   0  0  1  0  0  0  0  0  0  0  0  0
  152.4875  144.2851  159.7596 C   0  0  0  0  0  0  0  0  0  0  0  0
  152.3702  144.7496  158.2883 C   0  0  0  0  0  0  0  0  0  0  0  0
  151.4892  143.8056  157.4250 C   0  0  0  0  0  0  0  0  0  0  0  0
  151.8642  142.3905  157.5706 N   0  0  0  0  0  0  0  0  0  0  0  0
  151.1570  141.5554  156.7777 C   0  0  0  0  0  0  0  0  0  0  0  0
  149.9432  141.9310  156.2949 N   0  0  0  0  0  0  0  0  0  0  0  0
  149.2449  141.0924  155.5228 C   0  0  0  0  0  0  0  0  0  0  0  0
  149.5670  139.8591  155.1247 N   0  0  0  0  0  0  0  0  0  0  0  0
  150.7834  139.4812  155.6139 C   0  0  0  0  0  0  0  0  0  0  0  0
  151.6356  140.2627  156.4421 C   0  0  0  0  0  0  0  0  0  0  0  0
  152.7886  139.5526  156.7478 N   0  0  0  0  0  0  0  0  0  0  0  0
  152.6302  138.4139  156.1295 C   0  0  0  0  0  0  0  0  0  0  0  0
  151.4504  138.2818  155.4308 N   0  0  0  0  0  0  0  0  0  0  0  0
  151.0196  137.1282  154.6555 C   0  0  0  0  0  0  0  0  0  0  0  0
  150.5296  135.9474  155.5142 C   0  0  0  0  0  0  0  0  0  0  0  0
  149.9879  134.8488  154.5769 C   0  0  0  0  0  0  0  0  0  0  0  0
  148.7206  135.1720  154.0397 O   0  0  0  0  0  0  0  0  0  0  0  0
  151.5112  135.4896  156.6027 C   0  0  0  0  0  0  0  0  0  0  0  0
  150.5135  135.6142  157.6399 O   0  0  0  0  0  0  0  0  0  0  0  0
  149.6435  136.3051  156.7164 C   0  0  0  0  0  0  0  0  0  0  0  0
  150.8799  142.2354  159.3915 H   0  0  0  0  0  0  0  0  0  0  0  0
  153.8782  142.7418  159.2068 H   0  0  0  0  0  0  0  0  0  0  0  0
  152.7211  139.9939  161.4140 H   0  0  0  0  0  0  0  0  0  0  0  0
  153.0121  140.1519  158.7449 H   0  0  0  0  0  0  0  0  0  0  0  0
  151.3552  139.8961  159.3302 H   0  0  0  0  0  0  0  0  0  0  0  0
  151.5330  144.3963  160.2758 H   0  0  0  0  0  0  0  0  0  0  0  0
  153.2189  144.8906  160.2957 H   0  0  0  0  0  0  0  0  0  0  0  0
  151.9778  145.7658  158.2470 H   0  0  0  0  0  0  0  0  0  0  0  0
  153.3690  144.7921  157.8517 H   0  0  0  0  0  0  0  0  0  0  0  0
  150.4454  143.9361  157.7142 H   0  0  0  0  0  0  0  0  0  0  0  0
  151.5613  144.0946  156.3757 H   0  0  0  0  0  0  0  0  0  0  0  0
  148.2916  141.4624  155.1751 H   0  0  0  0  0  0  0  0  0  0  0  0
  153.3772  137.6350  156.1676 H   0  0  0  0  0  0  0  0  0  0  0  0
  150.2383  137.4477  153.9646 H   0  0  0  0  0  0  0  0  0  0  0  0
  151.8584  136.8228  154.0285 H   0  0  0  0  0  0  0  0  0  0  0  0
  150.6604  134.6824  153.7352 H   0  0  0  0  0  0  0  0  0  0  0  0
  149.8990  133.8983  155.1039 H   0  0  0  0  0  0  0  0  0  0  0  0
  148.8322  135.4243  153.1360 H   0  0  0  0  0  0  0  0  0  0  0  0
  151.8706  134.4666  156.4863 H   0  0  0  0  0  0  0  0  0  0  0  0
  152.3460  136.1735  156.7634 H   0  0  0  0  0  0  0  0  0  0  0  0
  149.5972  137.3724  156.9359 H   0  0  0  0  0  0  0  0  0  0  0  0
  148.6426  135.8737  156.6794 H   0  0  0  0  0  0  0  0  0  0  0  0
  1  2  2  0  0  0  0
  2  6  1  0  0  0  0
  2  3  1  0  0  0  0
  3  4  1  0  0  0  0
  3 29  1  0  0  0  0
  4  5  1  0  0  0  0
  4 30  1  0  0  0  0
  4 31  1  0  0  0  0
  5 27  1  0  0  0  0
  5 10  1  0  0  0  0
  5  6  1  0  0  0  0
  6 28  1  0  0  0  0
  6  7  1  0  0  0  0
  7  8  1  0  0  0  0
  7 32  1  0  0  0  0
  7 33  1  0  0  0  0
  8  9  1  0  0  0  0
  8 34  1  0  0  0  0
  8 35  1  0  0  0  0
  9 10  1  0  0  0  0
  9 36  1  0  0  0  0
  9 37  1  0  0  0  0
 10 11  1  0  0  0  0
 11 16  1  0  0  0  0
 11 12  2  0  0  0  0
 12 13  1  0  0  0  0
 13 14  2  0  0  0  0
 13 38  1  0  0  0  0
 14 15  1  0  0  0  0
 15 19  1  0  0  0  0
 15 16  2  0  0  0  0
 16 17  1  0  0  0  0
 17 18  2  0  0  0  0
 18 19  1  0  0  0  0
 18 39  1  0  0  0  0
 19 20  1  0  0  0  0
 20 21  1  0  0  0  0
 20 40  1  0  0  0  0
 20 41  1  0  0  0  0
 21 26  1  0  0  0  0
 21 22  1  0  0  0  0
 21 24  1  0  0  0  0
 22 23  1  0  0  0  0
 22 42  1  0  0  0  0
 22 43  1  0  0  0  0
 23 44  1  0  0  0  0
 24 25  1  0  0  0  0
 24 45  1  0  0  0  0
 24 46  1  0  0  0  0
 25 26  1  0  0  0  0
 26 47  1  0  0  0  0
 26 48  1  0  0  0  0
M  END
> <s_m_source_file>
AV-unprocessed.smi

> <i_m_source_file_index>
209

> <i_lp_mmshare_version>
43012

> <i_f3d_flags>
0

> <s_epik_input>
W0NIMl0xW05IXUMoPU8pW0NAQEhdKFtDQEBIXTEyKVtDSDJdW0NIMl1bQ0gyXU4yYyhuW2NIXW4zKWMoYzM0KW5bY0hdbjRbQ0gyXUM1KFtDSDJdW09IXSlbQ0gyXU9bQ0gyXTU=

> <s_epik_cmdline>
J2VwaWtfcHl0aG9uJywgJy1waCcsICc3LjAnLCAnLXRuJywgJzgnLCAnLW1hJywgJzIwMCcsICctbWV0YWxfYmluZGluZycsICctaW1hZScsICc8aW5maWxlLm1hZT4nLCAnLW9tYWUnLCAnPG91dGZpbGUubWFlPic=

> <r_lp_tautomer_probability>
1

> <r_epik_Ionization_Penalty>
0.00113306

> <r_epik_Ionization_Penalty_Charging>
0

> <r_epik_Ionization_Penalty_Neutral>
0.00113306

> <r_epik_State_Penalty>
0.000624042

> <r_epik_Charging_Adjusted_Penalty>
0.000624042

> <i_epik_Tot_Q>
0

> <i_epik_Tot_abs_Q>
0

> <r_epik_Metal_State_Penalty>
-0

> <b_epik_Metal_Only>
0

> <s_lp_Force_Field>
OPLS_2005

> <r_lp_Energy>
56.9818

> <b_lp_Chiralities_Consistent>
1

> <s_lp_Variant>
AV-unprocessed.smi:209-2

> <Gold.Version>
5.8.1

> <Gold.Id.Protein>
6NUR|6NUR_protein|mol2

> <Gold.PLP.Fitness>
48.3025

> <Gold.PLP.PLP>
-42.3527

> <Gold.PLP.part.hbond>
-3.1177

> <Gold.PLP.part.metal>
0.0000

> <Gold.PLP.part.buried>
-0.9708

> <Gold.PLP.part.nonpolar>
-39.5685

> <Gold.PLP.part.repulsive>
0.4382

> <Gold.PLP.ligand.clash>
0.0000

> <Gold.PLP.ligand.torsion>
0.9699

> <Gold.PLP.Chemscore.Hbond>
2.4976

> <Gold.PLP.Chemscore.CHOScore>
0.0000

> <Gold.PLP.Chemscore.Metal>
0.0000

> <Gold.Chemscore.Hbonds>
donor molecule, donor type, donor heavy atom, donor atom, acceptor molecule, acceptor atom, score
      L1  H    23    44       P1  7948  0.88
      P1  H  6896  6908       L1    25  0.40
      P1  H  7997  8008       L1    17  1.00

> <Gold.PLP.Chemscore.Internal.Correction>
0.3967

> <Gold.Rescore>
     Score         DG    S(hbond)    S(metal)    S(lipo)     H(rot)  DE(clash)    DE(int)     intcor
     15.86     -18.38       2.59        0.00      94.40       2.66       1.28       1.24       ----

> <Gold.Chemscore.Fitness>
15.8581

> <Gold.Chemscore.DG>
-18.3757

> <Gold.Chemscore.ZeroCoef>
-5.4800

> <Gold.Chemscore.Hbond>
2.5944

> <Gold.Chemscore.Metal>
0.0000

> <Gold.Chemscore.Lipo>
94.4025

> <Gold.Chemscore.Internal_Hbond>
0.0000

> <Gold.Chemscore.DEClash>
1.2784

> <Gold.Chemscore.DEInternal>
1.2392

> <Gold.Chemscore.Rot>
2.6620

> <Gold.Chemscore.Internal.Correction>
   9.000000E+99

> <Gold.Chemscore.Hbonds>
donor molecule, donor type, donor heavy atom, donor atom, acceptor molecule, acceptor atom, score
      L1  H    23    44       P1  7948  0.64
      P1  H  6896  6908       L1    25  0.39
      P1  H  7997  8008       L1    17  0.82

> <Gold.Chemscore.Hbond.Weighted>
-8.6654

> <Gold.Chemscore.Metal.Weighted>
-0.0000

> <Gold.Chemscore.Lipo.Weighted>
-11.0451

> <Gold.Chemscore.Internal_Hbond.Weighted>
0.0000

> <Gold.Chemscore.DEClash.Weighted>
1.2784

> <Gold.Chemscore.DEInternal.Weighted>
1.2392

> <Gold.Chemscore.Rot.Weighted>
6.8148

> <Gold.Chemscore.Internal.Correction.Weighted>
   9.000000E+99

> <Gold.Protein.RotatedTorsions>
[ 6907 6896 6895 6894 ] final  169.73 input  -60.11 | X-H torsion
[ 7974 7965 7964 7962 ] final  -69.44 input  175.53 | X-H torsion
[ 8008 7997 7996 7995 ] final  -65.84 input   59.86 | X-H torsion
[ 10167 10162 10161 10158 ] final  -12.00 input  -65.29 | X-H torsion
[ 10718 10713 10712 10709 ] final -110.94 input   66.30 | X-H torsion
[ 10763 10752 10751 10750 ] final  162.00 input  -60.55 | X-H torsion
[ 11005 11000 10999 10996 ] final  -41.54 input  -57.11 | X-H torsion

> <Gold.Protein.ActiveResidues>
 VAL166  LYS551  ARG553  GLY616  TRP617  ASP618  TYR619  PRO620  LYS621  CYS622 
 ASP623  PHE694  ASN695  SER759  ASP760  ASP761  ALA762  ILE779  LEU786  VAL792 
 PHE793  MET794  SER795  GLU796  ALA797  LYS798  CYS799  TRP800  GLU811  SER814 

> <Gold.Protein.RotatedAtoms>
  151.8273  133.3403  159.3602 H   0  0  0  0  0  0  0  0  0  0  0  0  # atno 6907 bound_to 6896
  150.7275  134.5517  159.5807 H   0  0  0  0  0  0  0  0  0  0  0  0  # atno 6908 bound_to 6896
  152.2962  134.7665  160.0418 H   0  0  0  0  0  0  0  0  0  0  0  0  # atno 6909 bound_to 6896
  145.7037  140.9106  143.0717 H   0  0  0  0  0  0  0  0  0  0  0  0  # atno 7974 bound_to 7965
  154.4696  140.0925  156.7111 H   0  0  0  0  0  0  0  0  0  0  0  0  # atno 8008 bound_to 7997
  155.4760  140.3466  155.4314 H   0  0  0  0  0  0  0  0  0  0  0  0  # atno 8009 bound_to 7997
  156.1017  140.1424  156.9447 H   0  0  0  0  0  0  0  0  0  0  0  0  # atno 8010 bound_to 7997
  140.7151  143.5579  150.9228 H   0  0  0  0  0  0  0  0  0  0  0  0  # atno 10167 bound_to 10162
  156.0619  130.5841  150.8306 H   0  0  0  0  0  0  0  0  0  0  0  0  # atno 10718 bound_to 10713
  154.2717  135.2765  155.2735 H   0  0  0  0  0  0  0  0  0  0  0  0  # atno 10763 bound_to 10752
  154.5296  135.5733  153.6751 H   0  0  0  0  0  0  0  0  0  0  0  0  # atno 10764 bound_to 10752
  152.9944  135.6224  154.2872 H   0  0  0  0  0  0  0  0  0  0  0  0  # atno 10765 bound_to 10752
  141.0253  133.6844  156.2472 H   0  0  0  0  0  0  0  0  0  0  0  0  # atno 11005 bound_to 11000
  144.6961  139.8982  143.7457 LP  0  0  0  0  0  0  0  0  0  0  0  0  # atno 17320 bound_to 7965
  146.0775  139.3763  143.0485 LP  0  0  0  0  0  0  0  0  0  0  0  0  # atno 17321 bound_to 7965
  139.9304  143.6500  152.3077 LP  0  0  0  0  0  0  0  0  0  0  0  0  # atno 17342 bound_to 10162
  139.6949  144.7642  151.1374 LP  0  0  0  0  0  0  0  0  0  0  0  0  # atno 17343 bound_to 10162
  157.5633  131.0946  150.9526 LP  0  0  0  0  0  0  0  0  0  0  0  0  # atno 17370 bound_to 10713
  156.9759  130.5508  149.5293 LP  0  0  0  0  0  0  0  0  0  0  0  0  # atno 17371 bound_to 10713
  140.6502  134.5075  157.5577 LP  0  0  0  0  0  0  0  0  0  0  0  0  # atno 17394 bound_to 11000
  139.9172  134.8222  156.1327 LP  0  0  0  0  0  0  0  0  0  0  0  0  # atno 17395 bound_to 11000

$$$$
