AV-unprocessed.smi:3349|AV-procd|sdf|12937|dock5
  -GOLD-   2272019373D 1   1.00000     0.00000
 Structure written by MMmdl.
 41 42  0  0  0  0  0  0  0  0  2 V2000
  146.5136  138.6036  151.1037 C   0  0  0  0  0  0  0  0  0  0  0  0
  146.5387  138.3846  152.6361 C   0  0  2  0  0  0  0  0  0  0  0  0
  145.7471  137.0969  153.0069 C   0  0  0  0  0  0  0  0  0  0  0  0
  146.3029  135.8843  152.4120 N   0  0  0  0  0  0  0  0  0  0  0  0
  145.7301  134.6705  152.4601 C   0  0  0  0  0  0  0  0  0  0  0  0
  144.6582  134.4583  153.0280 O   0  0  0  0  0  0  0  0  0  0  0  0
  146.4878  133.5308  151.7622 C   0  0  1  0  0  0  0  0  0  0  0  0
  146.8442  132.3802  152.7252 C   0  0  0  0  0  0  0  0  0  0  0  0
  145.7407  133.0679  150.5992 N   0  0  0  0  0  0  0  0  0  0  0  0
  146.0799  132.1823  149.6597 C   0  0  0  0  0  0  0  0  0  0  0  0
  145.1705  132.0314  148.7072 N   0  0  0  0  0  0  0  0  0  0  0  0
  144.2328  132.9233  149.1443 C   0  0  0  0  0  0  0  0  0  0  0  0
  144.5294  133.5796  150.2657 N   0  0  0  0  0  0  0  0  0  0  0  0
  146.0486  139.6028  153.3649 N   0  3  0  0  0  0  0  0  0  0  0  0
  145.7494  139.3801  154.8079 C   0  0  0  0  0  0  0  0  0  0  0  0
  145.2633  140.6692  155.4923 C   0  0  0  0  0  0  0  0  0  0  0  0
  146.2293  141.6949  155.3309 O   0  0  0  0  0  0  0  0  0  0  0  0
  146.4191  142.0081  153.9607 C   0  0  0  0  0  0  0  0  0  0  0  0
  146.9586  140.7742  153.2192 C   0  0  0  0  0  0  0  0  0  0  0  0
  146.8033  137.7078  150.5553 H   0  0  0  0  0  0  0  0  0  0  0  0
  147.2139  139.3722  150.7812 H   0  0  0  0  0  0  0  0  0  0  0  0
  145.5179  138.8876  150.7618 H   0  0  0  0  0  0  0  0  0  0  0  0
  147.5767  138.2296  152.9348 H   0  0  0  0  0  0  0  0  0  0  0  0
  145.7252  136.9308  154.0837 H   0  0  0  0  0  0  0  0  0  0  0  0
  144.7102  137.1883  152.6818 H   0  0  0  0  0  0  0  0  0  0  0  0
  147.1829  135.9752  151.9248 H   0  0  0  0  0  0  0  0  0  0  0  0
  147.4294  133.9413  151.3936 H   0  0  0  0  0  0  0  0  0  0  0  0
  147.4477  132.7398  153.5593 H   0  0  0  0  0  0  0  0  0  0  0  0
  147.4226  131.6109  152.2128 H   0  0  0  0  0  0  0  0  0  0  0  0
  145.9573  131.9021  153.1425 H   0  0  0  0  0  0  0  0  0  0  0  0
  147.0136  131.6397  149.6701 H   0  0  0  0  0  0  0  0  0  0  0  0
  143.3070  133.0992  148.6165 H   0  0  0  0  0  0  0  0  0  0  0  0
  144.9598  138.6412  154.9334 H   0  0  0  0  0  0  0  0  0  0  0  0
  146.6394  139.0003  155.3123 H   0  0  0  0  0  0  0  0  0  0  0  0
  144.3020  140.9882  155.0856 H   0  0  0  0  0  0  0  0  0  0  0  0
  145.1128  140.4930  156.5577 H   0  0  0  0  0  0  0  0  0  0  0  0
  145.4845  142.3547  153.5165 H   0  0  0  0  0  0  0  0  0  0  0  0
  147.1307  142.8304  153.8838 H   0  0  0  0  0  0  0  0  0  0  0  0
  147.9479  140.5169  153.6008 H   0  0  0  0  0  0  0  0  0  0  0  0
  147.0793  141.0515  152.1742 H   0  0  0  0  0  0  0  0  0  0  0  0
  145.1721  139.8619  152.9347 H   0  0  0  0  0  0  0  0  0  0  0  0
  1  2  1  0  0  0  0
  1 20  1  0  0  0  0
  1 21  1  0  0  0  0
  1 22  1  0  0  0  0
  2  3  1  0  0  0  0
  2 14  1  0  0  0  0
  2 23  1  0  0  0  0
  3  4  1  0  0  0  0
  3 24  1  0  0  0  0
  3 25  1  0  0  0  0
  4  5  1  0  0  0  0
  4 26  1  0  0  0  0
  5  6  2  0  0  0  0
  5  7  1  0  0  0  0
  7  8  1  0  0  0  0
  7  9  1  0  0  0  0
  7 27  1  0  0  0  0
  8 28  1  0  0  0  0
  8 29  1  0  0  0  0
  8 30  1  0  0  0  0
  9 13  1  0  0  0  0
  9 10  1  0  0  0  0
 10 11  2  0  0  0  0
 10 31  1  0  0  0  0
 11 12  1  0  0  0  0
 12 13  2  0  0  0  0
 12 32  1  0  0  0  0
 14 19  1  0  0  0  0
 14 15  1  0  0  0  0
 14 41  1  0  0  0  0
 15 16  1  0  0  0  0
 15 33  1  0  0  0  0
 15 34  1  0  0  0  0
 16 17  1  0  0  0  0
 16 35  1  0  0  0  0
 16 36  1  0  0  0  0
 17 18  1  0  0  0  0
 18 19  1  0  0  0  0
 18 37  1  0  0  0  0
 18 38  1  0  0  0  0
 19 39  1  0  0  0  0
 19 40  1  0  0  0  0
M  CHG  1  14   1
M  END
> <s_m_source_file>
AV-unprocessed.smi

> <i_m_source_file_index>
3349

> <i_lp_mmshare_version>
43012

> <i_f3d_flags>
0

> <s_epik_input>
W0NIMl0xW0NIMl1PW0NIMl1bQ0gyXU4xW0NASF0oW0NIM10pW0NIMl1bTkhdQyg9TylbQ0BIXShbQ0gzXSluMltjSF1uW2NIXW4y

> <s_epik_cmdline>
J2VwaWtfcHl0aG9uJywgJy1waCcsICc3LjAnLCAnLXRuJywgJzgnLCAnLW1hJywgJzIwMCcsICctbWV0YWxfYmluZGluZycsICctaW1hZScsICc8aW5maWxlLm1hZT4nLCAnLW9tYWUnLCAnPG91dGZpbGUubWFlPic=

> <r_lp_tautomer_probability>
1

> <r_epik_Ionization_Penalty>
0.71326

> <r_epik_Ionization_Penalty_Charging>
0.713252

> <r_epik_Ionization_Penalty_Neutral>
8.10337e-06

> <r_epik_State_Penalty>
0.737017

> <r_epik_Charging_Adjusted_Penalty>
1.45027

> <i_epik_Tot_Q>
1

> <i_epik_Tot_abs_Q>
1

> <r_epik_Metal_State_Penalty>
0.73702

> <b_epik_Metal_Only>
0

> <s_lp_Force_Field>
OPLS_2005

> <r_lp_Energy>
26.6465

> <b_lp_Chiralities_Consistent>
1

> <s_lp_Variant>
AV-unprocessed.smi:3349-7

> <Gold.Version>
5.8.1

> <Gold.Id.Protein>
6NUR|6NUR_protein|mol2

> <Gold.PLP.Fitness>
46.5882

> <Gold.PLP.PLP>
-32.0010

> <Gold.PLP.part.hbond>
-3.0646

> <Gold.PLP.part.metal>
0.0000

> <Gold.PLP.part.buried>
-2.2926

> <Gold.PLP.part.nonpolar>
-27.7259

> <Gold.PLP.part.repulsive>
0.5687

> <Gold.PLP.ligand.clash>
0.0000

> <Gold.PLP.ligand.torsion>
0.2793

> <Gold.PLP.Chemscore.Hbond>
3.0000

> <Gold.PLP.Chemscore.CHOScore>
2.0000

> <Gold.PLP.Chemscore.Metal>
0.0000

> <Gold.Chemscore.Hbonds>
donor molecule, donor type, donor heavy atom, donor atom, acceptor molecule, acceptor atom, score
      L1  H     4    26       P1  7948  1.00
      L1  H    14    41       P1 10175  2.00
      L1  C    10    31       P1 10747  1.00
      L1  C    12    32       P1 10186  0.31

> <Gold.PLP.Chemscore.Internal.Correction>
0.1459

> <Gold.Rescore>
     Score         DG    S(hbond)    S(metal)    S(lipo)     H(rot)  DE(clash)    DE(int)     intcor
      9.59     -11.11       1.98        0.00      49.33       2.63       0.06       1.46       ----

> <Gold.Chemscore.Fitness>
9.5865

> <Gold.Chemscore.DG>
-11.1092

> <Gold.Chemscore.ZeroCoef>
-5.4800

> <Gold.Chemscore.Hbond>
1.9755

> <Gold.Chemscore.Metal>
0.0000

> <Gold.Chemscore.Lipo>
49.3284

> <Gold.Chemscore.Internal_Hbond>
0.0000

> <Gold.Chemscore.DEClash>
0.0596

> <Gold.Chemscore.DEInternal>
1.4631

> <Gold.Chemscore.Rot>
2.6329

> <Gold.Chemscore.Internal.Correction>
   9.000000E+99

> <Gold.Chemscore.Hbonds>
donor molecule, donor type, donor heavy atom, donor atom, acceptor molecule, acceptor atom, score
      L1  H     4    26       P1  7948  0.98
      L1  H    14    41       P1 10175  1.00

> <Gold.Chemscore.Hbond.Weighted>
-6.5981

> <Gold.Chemscore.Metal.Weighted>
-0.0000

> <Gold.Chemscore.Lipo.Weighted>
-5.7714

> <Gold.Chemscore.Internal_Hbond.Weighted>
0.0000

> <Gold.Chemscore.DEClash.Weighted>
0.0596

> <Gold.Chemscore.DEInternal.Weighted>
1.4631

> <Gold.Chemscore.Rot.Weighted>
6.7403

> <Gold.Chemscore.Internal.Correction.Weighted>
   9.000000E+99

> <Gold.Protein.RotatedTorsions>
[ 6907 6896 6895 6894 ] final    3.86 input  -60.11 | X-H torsion
[ 7974 7965 7964 7962 ] final  105.17 input  175.53 | X-H torsion
[ 8008 7997 7996 7995 ] final  -43.12 input   59.86 | X-H torsion
[ 10167 10162 10161 10158 ] final  140.06 input  -65.29 | X-H torsion
[ 10718 10713 10712 10709 ] final   80.94 input   66.30 | X-H torsion
[ 10763 10752 10751 10750 ] final   60.03 input  -60.55 | X-H torsion
[ 11005 11000 10999 10996 ] final  -38.79 input  -57.11 | X-H torsion

> <Gold.Protein.ActiveResidues>
 VAL166  LYS551  ARG553  GLY616  TRP617  ASP618  TYR619  PRO620  LYS621  CYS622 
 ASP623  PHE694  ASN695  SER759  ASP760  ASP761  ALA762  ILE779  LEU786  VAL792 
 PHE793  MET794  SER795  GLU796  ALA797  LYS798  CYS799  TRP800  GLU811  SER814 

> <Gold.Protein.RotatedAtoms>
  151.6320  135.1022  160.0123 H   0  0  0  0  0  0  0  0  0  0  0  0  # atno 6907 bound_to 6896
  152.4101  133.6946  159.6399 H   0  0  0  0  0  0  0  0  0  0  0  0  # atno 6908 bound_to 6896
  150.7992  133.8556  159.3258 H   0  0  0  0  0  0  0  0  0  0  0  0  # atno 6909 bound_to 6896
  145.3232  139.2507  143.3701 H   0  0  0  0  0  0  0  0  0  0  0  0  # atno 7974 bound_to 7965
  154.3997  140.1456  156.3467 H   0  0  0  0  0  0  0  0  0  0  0  0  # atno 8008 bound_to 7997
  155.8307  140.3466  155.5549 H   0  0  0  0  0  0  0  0  0  0  0  0  # atno 8009 bound_to 7997
  155.8191  140.0895  157.1850 H   0  0  0  0  0  0  0  0  0  0  0  0  # atno 8010 bound_to 7997
  139.5060  144.6257  151.5942 H   0  0  0  0  0  0  0  0  0  0  0  0  # atno 10167 bound_to 10162
  157.6819  130.9981  150.2152 H   0  0  0  0  0  0  0  0  0  0  0  0  # atno 10718 bound_to 10713
  152.9910  135.5550  154.5808 H   0  0  0  0  0  0  0  0  0  0  0  0  # atno 10763 bound_to 10752
  154.5190  135.2806  155.1281 H   0  0  0  0  0  0  0  0  0  0  0  0  # atno 10764 bound_to 10752
  154.2642  135.6375  153.5338 H   0  0  0  0  0  0  0  0  0  0  0  0  # atno 10765 bound_to 10752
  141.0054  133.6934  156.2101 H   0  0  0  0  0  0  0  0  0  0  0  0  # atno 11005 bound_to 11000
  146.3074  140.3794  142.8682 LP  0  0  0  0  0  0  0  0  0  0  0  0  # atno 17320 bound_to 7965
  144.8923  140.7539  143.5919 LP  0  0  0  0  0  0  0  0  0  0  0  0  # atno 17321 bound_to 7965
  140.5973  143.9672  150.6363 LP  0  0  0  0  0  0  0  0  0  0  0  0  # atno 17342 bound_to 10162
  140.2872  143.3349  152.1096 LP  0  0  0  0  0  0  0  0  0  0  0  0  # atno 17343 bound_to 10162
  156.2815  130.3734  149.7930 LP  0  0  0  0  0  0  0  0  0  0  0  0  # atno 17370 bound_to 10713
  156.5617  130.8386  151.3331 LP  0  0  0  0  0  0  0  0  0  0  0  0  # atno 17371 bound_to 10713
  140.6821  134.4756  157.5589 LP  0  0  0  0  0  0  0  0  0  0  0  0  # atno 17394 bound_to 11000
  139.9061  134.8447  156.1703 LP  0  0  0  0  0  0  0  0  0  0  0  0  # atno 17395 bound_to 11000

$$$$
