AV-unprocessed.smi:1546|AV-procd|sdf|6218|dock5
  -GOLD-   22720 6393D 1   1.00000     0.00000
 Structure written by MMmdl.
 30 31  0  0  0  0  0  0  0  0  1 V2000
  151.0535  140.3413  156.3955 O   0  0  0  0  0  0  0  0  0  0  0  0
  150.4935  141.4339  156.3077 C   0  0  0  0  0  0  0  0  0  0  0  0
  150.9463  142.5976  157.1917 C   0  0  0  0  0  0  0  0  0  0  0  0
  151.9945  142.1706  158.0482 O   0  0  0  0  0  0  0  0  0  0  0  0
  151.9353  142.7800  159.3260 C   0  0  0  0  0  0  0  0  0  0  0  0
  152.2822  144.2469  159.1890 C   0  0  0  0  0  0  0  0  0  0  0  0
  151.8085  145.2422  160.2239 C   0  0  0  0  0  0  0  0  0  0  0  0
  151.2196  145.2631  158.8365 C   0  0  0  0  0  0  0  0  0  0  0  0
  149.4760  141.7228  155.4729 N   0  0  0  0  0  0  0  0  0  0  0  0
  148.8200  140.9020  154.5401 C   0  0  0  0  0  0  0  0  0  0  0  0
  149.2088  139.6573  154.1607 C   0  0  0  0  0  0  0  0  0  0  0  0
  148.5244  138.8829  153.2342 N   0  0  0  0  0  0  0  0  0  0  0  0
  147.3773  139.3941  152.6491 C   0  0  0  0  0  0  0  0  0  0  0  0
  146.8828  140.6137  152.9380 C   0  0  0  0  0  0  0  0  0  0  0  0
  147.5840  141.4645  153.9257 C   0  0  0  0  0  0  0  0  0  0  0  0
  147.1559  142.5814  154.2168 O   0  0  0  0  0  0  0  0  0  0  0  0
  151.2886  143.4205  156.5616 H   0  0  0  0  0  0  0  0  0  0  0  0
  150.0971  142.9517  157.7780 H   0  0  0  0  0  0  0  0  0  0  0  0
  150.9390  142.6735  159.7585 H   0  0  0  0  0  0  0  0  0  0  0  0
  152.6488  142.3093  160.0037 H   0  0  0  0  0  0  0  0  0  0  0  0
  153.2757  144.4272  158.7828 H   0  0  0  0  0  0  0  0  0  0  0  0
  151.1772  144.8749  161.0307 H   0  0  0  0  0  0  0  0  0  0  0  0
  152.4885  146.0477  160.4937 H   0  0  0  0  0  0  0  0  0  0  0  0
  151.5069  146.0815  158.1793 H   0  0  0  0  0  0  0  0  0  0  0  0
  150.1969  144.9094  158.7203 H   0  0  0  0  0  0  0  0  0  0  0  0
  149.1293  142.6707  155.5090 H   0  0  0  0  0  0  0  0  0  0  0  0
  150.0805  139.1521  154.5434 H   0  0  0  0  0  0  0  0  0  0  0  0
  146.9100  138.7297  151.9372 H   0  0  0  0  0  0  0  0  0  0  0  0
  145.9861  140.9859  152.4646 H   0  0  0  0  0  0  0  0  0  0  0  0
  148.8583  137.9609  152.9909 H   0  0  0  0  0  0  0  0  0  0  0  0
  1  2  2  0  0  0  0
  2  3  1  0  0  0  0
  2  9  1  0  0  0  0
  3  4  1  0  0  0  0
  3 17  1  0  0  0  0
  3 18  1  0  0  0  0
  4  5  1  0  0  0  0
  5  6  1  0  0  0  0
  5 19  1  0  0  0  0
  5 20  1  0  0  0  0
  6  8  1  0  0  0  0
  6  7  1  0  0  0  0
  6 21  1  0  0  0  0
  7  8  1  0  0  0  0
  7 22  1  0  0  0  0
  7 23  1  0  0  0  0
  8 24  1  0  0  0  0
  8 25  1  0  0  0  0
  9 26  1  0  0  0  0
  9 10  1  0  0  0  0
 10 15  1  0  0  0  0
 10 11  2  0  0  0  0
 11 27  1  0  0  0  0
 11 12  1  0  0  0  0
 12 30  1  0  0  0  0
 12 13  1  0  0  0  0
 13 28  1  0  0  0  0
 13 14  2  0  0  0  0
 14 15  1  0  0  0  0
 14 29  1  0  0  0  0
 15 16  2  0  0  0  0
M  END
> <s_m_source_file>
AV-unprocessed.smi

> <i_m_source_file_index>
1546

> <i_lp_mmshare_version>
43012

> <i_f3d_flags>
0

> <s_epik_input>
W0NIMl0xW0NIMl1bQ0hdMVtDSDJdT1tDSDJdQyg9TylbTkhdYzJbY0hdbltjSF1bY0hdYzJbT0hd

> <s_epik_cmdline>
J2VwaWtfcHl0aG9uJywgJy1waCcsICc3LjAnLCAnLXRuJywgJzgnLCAnLW1hJywgJzIwMCcsICctbWV0YWxfYmluZGluZycsICctaW1hZScsICc8aW5maWxlLm1hZT4nLCAnLW9tYWUnLCAnPG91dGZpbGUubWFlPic=

> <r_lp_tautomer_probability>
1

> <r_epik_Ionization_Penalty>
0.000226134

> <r_epik_Ionization_Penalty_Charging>
0.000226086

> <r_epik_Ionization_Penalty_Neutral>
4.85517e-08

> <r_epik_State_Penalty>
-0

> <r_epik_Charging_Adjusted_Penalty>
0.000226086

> <i_epik_Tot_Q>
0

> <i_epik_Tot_abs_Q>
0

> <r_epik_Metal_State_Penalty>
0.0890487

> <b_epik_Metal_Only>
0

> <s_lp_Force_Field>
OPLS_2005

> <r_lp_Energy>
13.4663

> <b_lp_Chiralities_Consistent>
1

> <s_lp_Variant>
AV-unprocessed.smi:1546-1

> <Gold.Version>
5.8.1

> <Gold.Id.Protein>
6NUR|6NUR_protein|mol2

> <Gold.PLP.Fitness>
40.9848

> <Gold.PLP.PLP>
-35.7861

> <Gold.PLP.part.hbond>
-2.9734

> <Gold.PLP.part.metal>
0.0000

> <Gold.PLP.part.buried>
0.4796

> <Gold.PLP.part.nonpolar>
-33.4430

> <Gold.PLP.part.repulsive>
1.0219

> <Gold.PLP.ligand.clash>
0.0000

> <Gold.PLP.ligand.torsion>
0.5610

> <Gold.PLP.Chemscore.Hbond>
1.9175

> <Gold.PLP.Chemscore.CHOScore>
0.0000

> <Gold.PLP.Chemscore.Metal>
0.0000

> <Gold.Chemscore.Hbonds>
donor molecule, donor type, donor heavy atom, donor atom, acceptor molecule, acceptor atom, score
      L1  H     9    26       P1  8028  0.91
      L1  H    12    30       P1  7948  0.98

> <Gold.PLP.Chemscore.Internal.Correction>
0.5682

> <Gold.Rescore>
     Score         DG    S(hbond)    S(metal)    S(lipo)     H(rot)  DE(clash)    DE(int)     intcor
     13.51     -16.68       1.63        0.00      87.51       1.75       1.45       1.72       ----

> <Gold.Chemscore.Fitness>
13.5111

> <Gold.Chemscore.DG>
-16.6771

> <Gold.Chemscore.ZeroCoef>
-5.4800

> <Gold.Chemscore.Hbond>
1.6311

> <Gold.Chemscore.Metal>
0.0000

> <Gold.Chemscore.Lipo>
87.5149

> <Gold.Chemscore.Internal_Hbond>
0.0000

> <Gold.Chemscore.DEClash>
1.4501

> <Gold.Chemscore.DEInternal>
1.7159

> <Gold.Chemscore.Rot>
1.7540

> <Gold.Chemscore.Internal.Correction>
   9.000000E+99

> <Gold.Chemscore.Hbonds>
donor molecule, donor type, donor heavy atom, donor atom, acceptor molecule, acceptor atom, score
      L1  H     9    26       P1  8028  0.89
      L1  H    12    30       P1  7948  0.90

> <Gold.Chemscore.Hbond.Weighted>
-5.4480

> <Gold.Chemscore.Metal.Weighted>
-0.0000

> <Gold.Chemscore.Lipo.Weighted>
-10.2392

> <Gold.Chemscore.Internal_Hbond.Weighted>
0.0000

> <Gold.Chemscore.DEClash.Weighted>
1.4501

> <Gold.Chemscore.DEInternal.Weighted>
1.7159

> <Gold.Chemscore.Rot.Weighted>
4.4901

> <Gold.Chemscore.Internal.Correction.Weighted>
   9.000000E+99

> <Gold.Protein.RotatedTorsions>
[ 6907 6896 6895 6894 ] final   47.33 input  -60.11 | X-H torsion
[ 7974 7965 7964 7962 ] final -113.74 input  175.53 | X-H torsion
[ 8008 7997 7996 7995 ] final   80.57 input   59.86 | X-H torsion
[ 10167 10162 10161 10158 ] final   10.18 input  -65.29 | X-H torsion
[ 10718 10713 10712 10709 ] final   -5.13 input   66.30 | X-H torsion
[ 10763 10752 10751 10750 ] final   41.96 input  -60.55 | X-H torsion
[ 11005 11000 10999 10996 ] final    7.79 input  -57.11 | X-H torsion

> <Gold.Protein.ActiveResidues>
 VAL166  LYS551  ARG553  GLY616  TRP617  ASP618  TYR619  PRO620  LYS621  CYS622 
 ASP623  PHE694  ASN695  SER759  ASP760  ASP761  ALA762  ILE779  LEU786  VAL792 
 PHE793  MET794  SER795  GLU796  ALA797  LYS798  CYS799  TRP800  GLU811  SER814 

> <Gold.Protein.RotatedAtoms>
  152.2668  134.7976  160.0420 H   0  0  0  0  0  0  0  0  0  0  0  0  # atno 6907 bound_to 6896
  151.8602  133.3450  159.3709 H   0  0  0  0  0  0  0  0  0  0  0  0  # atno 6908 bound_to 6896
  150.7137  134.5141  159.5666 H   0  0  0  0  0  0  0  0  0  0  0  0  # atno 6909 bound_to 6896
  145.1284  140.8710  143.3772 H   0  0  0  0  0  0  0  0  0  0  0  0  # atno 7974 bound_to 7965
  155.8852  140.3442  155.5916 H   0  0  0  0  0  0  0  0  0  0  0  0  # atno 8008 bound_to 7997
  155.7674  140.0840  157.2144 H   0  0  0  0  0  0  0  0  0  0  0  0  # atno 8009 bound_to 7997
  154.4028  140.1524  156.2889 H   0  0  0  0  0  0  0  0  0  0  0  0  # atno 8010 bound_to 7997
  140.6210  143.8205  150.7175 H   0  0  0  0  0  0  0  0  0  0  0  0  # atno 10167 bound_to 10162
  156.7512  130.5240  149.5804 H   0  0  0  0  0  0  0  0  0  0  0  0  # atno 10718 bound_to 10713
  152.9895  135.6146  154.2872 H   0  0  0  0  0  0  0  0  0  0  0  0  # atno 10763 bound_to 10752
  154.2599  135.2782  155.2784 H   0  0  0  0  0  0  0  0  0  0  0  0  # atno 10764 bound_to 10752
  154.5215  135.5813  153.6742 H   0  0  0  0  0  0  0  0  0  0  0  0  # atno 10765 bound_to 10752
  140.5443  134.0344  155.7914 H   0  0  0  0  0  0  0  0  0  0  0  0  # atno 11005 bound_to 11000
  145.0662  139.3066  143.5855 LP  0  0  0  0  0  0  0  0  0  0  0  0  # atno 17320 bound_to 7965
  146.3516  140.0121  142.8666 LP  0  0  0  0  0  0  0  0  0  0  0  0  # atno 17321 bound_to 7965
  140.1795  143.4127  152.1943 LP  0  0  0  0  0  0  0  0  0  0  0  0  # atno 17342 bound_to 10162
  139.5438  144.7281  151.4647 LP  0  0  0  0  0  0  0  0  0  0  0  0  # atno 17343 bound_to 10162
  156.1400  130.6238  151.0454 LP  0  0  0  0  0  0  0  0  0  0  0  0  # atno 17370 bound_to 10713
  157.6776  131.0846  150.7453 LP  0  0  0  0  0  0  0  0  0  0  0  0  # atno 17371 bound_to 10713
  141.1209  133.9463  157.2731 LP  0  0  0  0  0  0  0  0  0  0  0  0  # atno 17394 bound_to 11000
  139.9488  135.0179  156.8932 LP  0  0  0  0  0  0  0  0  0  0  0  0  # atno 17395 bound_to 11000

$$$$
