AV-unprocessed.smi:1880|AV-procd|sdf|7635|dock3
  -GOLD-   22720 9363D 1   1.00000     0.00000
 Structure written by MMmdl.
 36 38  0  0  0  0  0  0  0  0  1 V2000
  148.7318  139.9203  155.3074 O   0  0  0  0  0  0  0  0  0  0  0  0
  148.8537  141.3116  155.5303 C   0  0  2  0  0  0  0  0  0  0  0  0
  148.1174  142.0485  154.4013 C   0  0  0  0  0  0  0  0  0  0  0  0
  146.7668  141.6185  154.3846 O   0  0  0  0  0  0  0  0  0  0  0  0
  145.9707  142.2646  155.3621 C   0  0  0  0  0  0  0  0  0  0  0  0
  145.4111  143.4830  154.7112 C   0  0  0  0  0  0  0  0  0  0  0  0
  145.5854  144.0575  153.4824 C   0  0  0  0  0  0  0  0  0  0  0  0
  144.7585  145.2145  153.4602 C   0  0  0  0  0  0  0  0  0  0  0  0
  144.1424  145.2602  154.6785 C   0  0  0  0  0  0  0  0  0  0  0  0
  144.5300  144.2112  155.4539 O   0  0  0  0  0  0  0  0  0  0  0  0
  150.3485  141.6817  155.5862 C   0  0  0  0  0  0  0  0  0  0  0  0
  151.0008  141.1656  156.7768 N   0  0  0  0  0  0  0  0  0  0  0  0
  151.3295  139.8837  157.0262 C   0  0  0  0  0  0  0  0  0  0  0  0
  151.9315  139.6226  158.1830 N   0  0  0  0  0  0  0  0  0  0  0  0
  152.0038  140.8829  158.7508 C   0  0  0  0  0  0  0  0  0  0  0  0
  152.5403  141.3004  159.9897 C   0  0  0  0  0  0  0  0  0  0  0  0
  152.5037  142.6601  160.3627 C   0  0  0  0  0  0  0  0  0  0  0  0
  153.0235  143.0432  161.5530 F   0  0  0  0  0  0  0  0  0  0  0  0
  151.9302  143.6215  159.5042 C   0  0  0  0  0  0  0  0  0  0  0  0
  151.8996  144.9248  159.8702 F   0  0  0  0  0  0  0  0  0  0  0  0
  151.3892  143.2292  158.2646 C   0  0  0  0  0  0  0  0  0  0  0  0
  151.4281  141.8714  157.8966 C   0  0  0  0  0  0  0  0  0  0  0  0
  148.5289  139.7817  154.3944 H   0  0  0  0  0  0  0  0  0  0  0  0
  148.3921  141.5586  156.4875 H   0  0  0  0  0  0  0  0  0  0  0  0
  148.1315  143.1232  154.5906 H   0  0  0  0  0  0  0  0  0  0  0  0
  148.6032  141.8826  153.4378 H   0  0  0  0  0  0  0  0  0  0  0  0
  145.1661  141.6107  155.7020 H   0  0  0  0  0  0  0  0  0  0  0  0
  146.5734  142.5399  156.2289 H   0  0  0  0  0  0  0  0  0  0  0  0
  146.2265  143.6877  152.6959 H   0  0  0  0  0  0  0  0  0  0  0  0
  144.6302  145.9226  152.6550 H   0  0  0  0  0  0  0  0  0  0  0  0
  143.4339  145.9349  155.1362 H   0  0  0  0  0  0  0  0  0  0  0  0
  150.8720  141.3049  154.7066 H   0  0  0  0  0  0  0  0  0  0  0  0
  150.4679  142.7657  155.5781 H   0  0  0  0  0  0  0  0  0  0  0  0
  151.1171  139.0977  156.3162 H   0  0  0  0  0  0  0  0  0  0  0  0
  152.9825  140.5736  160.6547 H   0  0  0  0  0  0  0  0  0  0  0  0
  150.9536  143.9632  157.6032 H   0  0  0  0  0  0  0  0  0  0  0  0
  1  2  1  0  0  0  0
  1 23  1  0  0  0  0
  2  3  1  0  0  0  0
  2 11  1  0  0  0  0
  2 24  1  0  0  0  0
  3  4  1  0  0  0  0
  3 25  1  0  0  0  0
  3 26  1  0  0  0  0
  4  5  1  0  0  0  0
  5  6  1  0  0  0  0
  5 27  1  0  0  0  0
  5 28  1  0  0  0  0
  6 10  1  0  0  0  0
  6  7  2  0  0  0  0
  7  8  1  0  0  0  0
  7 29  1  0  0  0  0
  8  9  2  0  0  0  0
  8 30  1  0  0  0  0
  9 10  1  0  0  0  0
  9 31  1  0  0  0  0
 11 12  1  0  0  0  0
 11 32  1  0  0  0  0
 11 33  1  0  0  0  0
 12 22  1  0  0  0  0
 12 13  1  0  0  0  0
 13 14  2  0  0  0  0
 13 34  1  0  0  0  0
 14 15  1  0  0  0  0
 15 22  2  0  0  0  0
 15 16  1  0  0  0  0
 16 17  2  0  0  0  0
 16 35  1  0  0  0  0
 17 18  1  0  0  0  0
 17 19  1  0  0  0  0
 19 20  1  0  0  0  0
 19 21  2  0  0  0  0
 21 22  1  0  0  0  0
 21 36  1  0  0  0  0
M  END
> <s_m_source_file>
AV-unprocessed.smi

> <i_m_source_file_index>
1880

> <i_lp_mmshare_version>
43012

> <i_f3d_flags>
0

> <s_epik_input>
W2NIXTFjKEYpYyhGKVtjSF1jKGMxMiluKFtjSF1uMilbQ0gyXVtDQEhdKFtPSF0pW0NIMl1PW0NIMl1jM1tjSF1bY0hdW2NIXW8z

> <s_epik_cmdline>
J2VwaWtfcHl0aG9uJywgJy1waCcsICc3LjAnLCAnLXRuJywgJzgnLCAnLW1hJywgJzIwMCcsICctbWV0YWxfYmluZGluZycsICctaW1hZScsICc8aW5maWxlLm1hZT4nLCAnLW9tYWUnLCAnPG91dGZpbGUubWFlPic=

> <r_epik_Ionization_Penalty>
0.0152348

> <r_epik_Ionization_Penalty_Charging>
0

> <r_epik_Ionization_Penalty_Neutral>
0.0152348

> <r_epik_State_Penalty>
0.0119607

> <r_epik_Charging_Adjusted_Penalty>
0.0119607

> <i_epik_Tot_Q>
0

> <i_epik_Tot_abs_Q>
0

> <r_epik_Metal_State_Penalty>
1.20821e-05

> <b_epik_Metal_Only>
0

> <s_lp_Force_Field>
OPLS_2005

> <r_lp_Energy>
7.92035

> <b_lp_Chiralities_Consistent>
1

> <s_lp_Variant>
AV-unprocessed.smi:1880-1

> <Gold.Version>
5.8.1

> <Gold.Id.Protein>
6NUR|6NUR_protein|mol2

> <Gold.PLP.Fitness>
49.6746

> <Gold.PLP.PLP>
-50.5371

> <Gold.PLP.part.hbond>
0.0000

> <Gold.PLP.part.metal>
0.0000

> <Gold.PLP.part.buried>
-6.4954

> <Gold.PLP.part.nonpolar>
-44.0943

> <Gold.PLP.part.repulsive>
0.2986

> <Gold.PLP.ligand.clash>
0.0000

> <Gold.PLP.ligand.torsion>
0.5048

> <Gold.PLP.Chemscore.Hbond>
0.0000

> <Gold.PLP.Chemscore.CHOScore>
0.0000

> <Gold.PLP.Chemscore.Metal>
0.0000

> <Gold.PLP.Chemscore.Internal.Correction>
0.1470

> <Gold.Rescore>
     Score         DG    S(hbond)    S(metal)    S(lipo)     H(rot)  DE(clash)    DE(int)     intcor
     10.81     -11.43       0.00        0.00     113.29       2.85       0.08       0.54       ----

> <Gold.Chemscore.Fitness>
10.8148

> <Gold.Chemscore.DG>
-11.4350

> <Gold.Chemscore.ZeroCoef>
-5.4800

> <Gold.Chemscore.Hbond>
0.0000

> <Gold.Chemscore.Metal>
0.0000

> <Gold.Chemscore.Lipo>
113.2948

> <Gold.Chemscore.Internal_Hbond>
0.0000

> <Gold.Chemscore.DEClash>
0.0839

> <Gold.Chemscore.DEInternal>
0.5362

> <Gold.Chemscore.Rot>
2.8518

> <Gold.Chemscore.Internal.Correction>
   9.000000E+99

> <Gold.Chemscore.Hbond.Weighted>
-0.0000

> <Gold.Chemscore.Metal.Weighted>
-0.0000

> <Gold.Chemscore.Lipo.Weighted>
-13.2555

> <Gold.Chemscore.Internal_Hbond.Weighted>
0.0000

> <Gold.Chemscore.DEClash.Weighted>
0.0839

> <Gold.Chemscore.DEInternal.Weighted>
0.5362

> <Gold.Chemscore.Rot.Weighted>
7.3005

> <Gold.Chemscore.Internal.Correction.Weighted>
   9.000000E+99

> <Gold.Protein.RotatedTorsions>
[ 6907 6896 6895 6894 ] final  -97.01 input  -60.11 | X-H torsion
[ 7974 7965 7964 7962 ] final  -66.00 input  175.53 | X-H torsion
[ 8008 7997 7996 7995 ] final -178.19 input   59.86 | X-H torsion
[ 10167 10162 10161 10158 ] final -134.05 input  -65.29 | X-H torsion
[ 10718 10713 10712 10709 ] final  133.46 input   66.30 | X-H torsion
[ 10763 10752 10751 10750 ] final -167.67 input  -60.55 | X-H torsion
[ 11005 11000 10999 10996 ] final   43.06 input  -57.11 | X-H torsion

> <Gold.Protein.ActiveResidues>
 VAL166  LYS551  ARG553  GLY616  TRP617  ASP618  TYR619  PRO620  LYS621  CYS622 
 ASP623  PHE694  ASN695  SER759  ASP760  ASP761  ALA762  ILE779  LEU786  VAL792 
 PHE793  MET794  SER795  GLU796  ALA797  LYS798  CYS799  TRP800  GLU811  SER814 

> <Gold.Protein.RotatedAtoms>
  150.7004  134.1414  159.4106 H   0  0  0  0  0  0  0  0  0  0  0  0  # atno 6907 bound_to 6896
  151.9399  135.0216  160.0544 H   0  0  0  0  0  0  0  0  0  0  0  0  # atno 6908 bound_to 6896
  152.2103  133.4871  159.5143 H   0  0  0  0  0  0  0  0  0  0  0  0  # atno 6909 bound_to 6896
  145.7473  140.8925  143.0498 H   0  0  0  0  0  0  0  0  0  0  0  0  # atno 7974 bound_to 7965
  156.0158  140.1250  157.0407 H   0  0  0  0  0  0  0  0  0  0  0  0  # atno 8008 bound_to 7997
  154.4293  140.1078  156.5964 H   0  0  0  0  0  0  0  0  0  0  0  0  # atno 8009 bound_to 7997
  155.6014  140.3470  155.4597 H   0  0  0  0  0  0  0  0  0  0  0  0  # atno 8010 bound_to 7997
  139.8920  143.6711  152.2610 H   0  0  0  0  0  0  0  0  0  0  0  0  # atno 10167 bound_to 10162
  157.4771  131.1083  150.9729 H   0  0  0  0  0  0  0  0  0  0  0  0  # atno 10718 bound_to 10713
  154.6708  135.2939  154.9744 H   0  0  0  0  0  0  0  0  0  0  0  0  # atno 10763 bound_to 10752
  154.0772  135.6609  153.4836 H   0  0  0  0  0  0  0  0  0  0  0  0  # atno 10764 bound_to 10752
  153.0485  135.5189  154.7703 H   0  0  0  0  0  0  0  0  0  0  0  0  # atno 10765 bound_to 10752
  140.1680  134.4257  155.8275 H   0  0  0  0  0  0  0  0  0  0  0  0  # atno 11005 bound_to 11000
  144.6857  139.9542  143.7479 LP  0  0  0  0  0  0  0  0  0  0  0  0  # atno 17320 bound_to 7965
  146.0391  139.3404  143.0708 LP  0  0  0  0  0  0  0  0  0  0  0  0  # atno 17321 bound_to 7965
  139.7101  144.7621  151.1126 LP  0  0  0  0  0  0  0  0  0  0  0  0  # atno 17342 bound_to 10162
  140.7724  143.5342  150.9388 LP  0  0  0  0  0  0  0  0  0  0  0  0  # atno 17343 bound_to 10162
  157.0475  130.5773  149.5365 LP  0  0  0  0  0  0  0  0  0  0  0  0  # atno 17370 bound_to 10713
  156.0102  130.5193  150.7964 LP  0  0  0  0  0  0  0  0  0  0  0  0  # atno 17371 bound_to 10713
  141.2215  133.6943  156.7713 LP  0  0  0  0  0  0  0  0  0  0  0  0  # atno 17394 bound_to 11000
  140.2410  134.8613  157.3573 LP  0  0  0  0  0  0  0  0  0  0  0  0  # atno 17395 bound_to 11000

$$$$
