AV-unprocessed.smi:598|AV-procd|sdf|3024|dock4
  -GOLD-   2262023533D 1   1.00000     0.00000
 Structure written by MMmdl.
 43 44  0  0  0  0  0  0  0  0  3 V2000
  152.5948  142.7361  162.0909 C   0  0  0  0  0  0  0  0  0  0  0  0
  153.4365  142.6813  160.7993 C   0  0  1  0  0  0  0  0  0  0  0  0
  154.3022  141.4065  160.7404 C   0  0  0  0  0  0  0  0  0  0  0  0
  153.4656  140.1496  160.4558 C   0  0  0  0  0  0  0  0  0  0  0  0
  152.6531  140.3083  159.1638 C   0  0  0  0  0  0  0  0  0  0  0  0
  151.7677  141.5691  159.1909 C   0  0  2  0  0  0  0  0  0  0  0  0
  151.0867  141.6836  157.9013 N   0  0  0  0  0  0  0  0  0  0  0  0
  149.7704  141.8717  157.7178 C   0  0  0  0  0  0  0  0  0  0  0  0
  148.9683  142.0039  158.6432 O   0  0  0  0  0  0  0  0  0  0  0  0
  149.3026  141.9426  156.2573 C   0  0  0  0  0  0  0  0  0  0  0  0
  149.4390  140.6638  155.5393 N   0  0  0  0  0  0  0  0  0  0  0  0
  150.7468  140.1852  155.3248 C   0  0  0  0  0  0  0  0  0  0  0  0
  150.9886  139.0296  154.6752 C   0  0  0  0  0  0  0  0  0  0  0  0
  152.3379  138.5536  154.4628 N   0  3  0  0  0  0  0  0  0  0  0  0
  152.4998  137.4128  154.0421 O   0  0  0  0  0  0  0  0  0  0  0  0
  153.2791  139.3015  154.7102 O   0  5  0  0  0  0  0  0  0  0  0  0
  149.8476  138.2763  154.1919 C   0  0  0  0  0  0  0  0  0  0  0  0
  148.5945  138.7300  154.3918 C   0  0  0  0  0  0  0  0  0  0  0  0
  148.3337  139.9877  155.0994 C   0  0  0  0  0  0  0  0  0  0  0  0
  147.1914  140.4078  155.2848 O   0  0  0  0  0  0  0  0  0  0  0  0
  152.6096  142.8379  159.4945 C   0  0  1  0  0  0  0  0  0  0  0  0
  151.7790  144.1368  159.4824 C   0  0  0  0  0  0  0  0  0  0  0  0
  151.8286  141.9621  162.1179 H   0  0  0  0  0  0  0  0  0  0  0  0
  152.0956  143.6982  162.2033 H   0  0  0  0  0  0  0  0  0  0  0  0
  153.2252  142.6029  162.9704 H   0  0  0  0  0  0  0  0  0  0  0  0
  154.1262  143.5251  160.8506 H   0  0  0  0  0  0  0  0  0  0  0  0
  155.0520  141.5186  159.9560 H   0  0  0  0  0  0  0  0  0  0  0  0
  154.8573  141.2820  161.6708 H   0  0  0  0  0  0  0  0  0  0  0  0
  154.1198  139.2811  160.3751 H   0  0  0  0  0  0  0  0  0  0  0  0
  152.7944  139.9488  161.2911 H   0  0  0  0  0  0  0  0  0  0  0  0
  153.3383  140.3568  158.3160 H   0  0  0  0  0  0  0  0  0  0  0  0
  152.0361  139.4221  159.0096 H   0  0  0  0  0  0  0  0  0  0  0  0
  151.0306  141.4400  159.9847 H   0  0  0  0  0  0  0  0  0  0  0  0
  151.6659  141.5976  157.0786 H   0  0  0  0  0  0  0  0  0  0  0  0
  148.2647  142.2788  156.2502 H   0  0  0  0  0  0  0  0  0  0  0  0
  149.8585  142.7247  155.7365 H   0  0  0  0  0  0  0  0  0  0  0  0
  151.5270  140.8215  155.7172 H   0  0  0  0  0  0  0  0  0  0  0  0
  149.9890  137.3446  153.6643 H   0  0  0  0  0  0  0  0  0  0  0  0
  147.7591  138.1536  154.0219 H   0  0  0  0  0  0  0  0  0  0  0  0
  153.3350  142.9377  158.6850 H   0  0  0  0  0  0  0  0  0  0  0  0
  150.9337  144.0789  160.1685 H   0  0  0  0  0  0  0  0  0  0  0  0
  151.3797  144.3456  158.4900 H   0  0  0  0  0  0  0  0  0  0  0  0
  152.3867  144.9954  159.7694 H   0  0  0  0  0  0  0  0  0  0  0  0
  1  2  1  0  0  0  0
  1 23  1  0  0  0  0
  1 24  1  0  0  0  0
  1 25  1  0  0  0  0
  2 21  1  0  0  0  0
  2  3  1  0  0  0  0
  2 26  1  0  0  0  0
  3  4  1  0  0  0  0
  3 27  1  0  0  0  0
  3 28  1  0  0  0  0
  4  5  1  0  0  0  0
  4 29  1  0  0  0  0
  4 30  1  0  0  0  0
  5  6  1  0  0  0  0
  5 31  1  0  0  0  0
  5 32  1  0  0  0  0
  6  7  1  0  0  0  0
  6 21  1  0  0  0  0
  6 33  1  0  0  0  0
  7  8  1  0  0  0  0
  7 34  1  0  0  0  0
  8  9  2  0  0  0  0
  8 10  1  0  0  0  0
 10 11  1  0  0  0  0
 10 35  1  0  0  0  0
 10 36  1  0  0  0  0
 11 19  1  0  0  0  0
 11 12  1  0  0  0  0
 12 13  2  0  0  0  0
 12 37  1  0  0  0  0
 13 14  1  0  0  0  0
 13 17  1  0  0  0  0
 14 15  2  0  0  0  0
 14 16  1  0  0  0  0
 17 18  2  0  0  0  0
 17 38  1  0  0  0  0
 18 19  1  0  0  0  0
 18 39  1  0  0  0  0
 19 20  2  0  0  0  0
 21 22  1  0  0  0  0
 21 40  1  0  0  0  0
 22 41  1  0  0  0  0
 22 42  1  0  0  0  0
 22 43  1  0  0  0  0
M  CHG  1  14   1
M  CHG  1  16  -1
M  END
> <s_m_source_file>
AV-unprocessed.smi

> <i_m_source_file_index>
598

> <i_lp_mmshare_version>
43012

> <i_f3d_flags>
0

> <s_epik_input>
W0NIM11bQ0BASF0xW0NIMl1bQ0gyXVtDSDJdW0NASF0oW0NASF0xW0NIM10pW05IXUMoPU8pW0NIMl1uMltjSF1jKFtOK10oPU8pW08tXSlbY0hdW2NIXWMyPU8=

> <s_epik_cmdline>
J2VwaWtfcHl0aG9uJywgJy1waCcsICc3LjAnLCAnLXRuJywgJzgnLCAnLW1hJywgJzIwMCcsICctbWV0YWxfYmluZGluZycsICctaW1hZScsICc8aW5maWxlLm1hZT4nLCAnLW9tYWUnLCAnPG91dGZpbGUubWFlPic=

> <r_lp_tautomer_probability>
1

> <r_epik_Ionization_Penalty>
1.91291e-08

> <r_epik_Ionization_Penalty_Charging>
8.21931e-11

> <r_epik_Ionization_Penalty_Neutral>
1.90469e-08

> <r_epik_State_Penalty>
-0

> <r_epik_Charging_Adjusted_Penalty>
8.21931e-11

> <i_epik_Tot_Q>
0

> <i_epik_Tot_abs_Q>
2

> <r_epik_Metal_State_Penalty>
-0

> <b_epik_Metal_Only>
0

> <s_lp_Force_Field>
OPLS_2005

> <r_lp_Energy>
25.417

> <b_lp_Chiralities_Consistent>
1

> <s_lp_Variant>
AV-unprocessed.smi:598-4

> <Gold.Version>
5.8.1

> <Gold.Id.Protein>
6NUR|6NUR_protein|mol2

> <Gold.PLP.Fitness>
48.3822

> <Gold.PLP.PLP>
-43.7868

> <Gold.PLP.part.hbond>
-2.9484

> <Gold.PLP.part.metal>
0.0000

> <Gold.PLP.part.buried>
-2.8963

> <Gold.PLP.part.nonpolar>
-38.7682

> <Gold.PLP.part.repulsive>
0.3391

> <Gold.PLP.ligand.clash>
0.0048

> <Gold.PLP.ligand.torsion>
0.2399

> <Gold.PLP.Chemscore.Hbond>
1.6880

> <Gold.PLP.Chemscore.CHOScore>
0.0000

> <Gold.PLP.Chemscore.Metal>
0.0000

> <Gold.Chemscore.Hbonds>
donor molecule, donor type, donor heavy atom, donor atom, acceptor molecule, acceptor atom, score
      P1  H  7997  8010       L1    16  1.00
      P1  H 10752 10765       L1    15  0.72

> <Gold.PLP.Chemscore.Internal.Correction>
0.0160

> <Gold.Rescore>
     Score         DG    S(hbond)    S(metal)    S(lipo)     H(rot)  DE(clash)    DE(int)     intcor
     18.96     -20.55       1.80        0.00     111.03       1.54       0.43       1.16       ----

> <Gold.Chemscore.Fitness>
18.9586

> <Gold.Chemscore.DG>
-20.5477

> <Gold.Chemscore.ZeroCoef>
-5.4800

> <Gold.Chemscore.Hbond>
1.8018

> <Gold.Chemscore.Metal>
0.0000

> <Gold.Chemscore.Lipo>
111.0279

> <Gold.Chemscore.Internal_Hbond>
0.0000

> <Gold.Chemscore.DEClash>
0.4300

> <Gold.Chemscore.DEInternal>
1.1591

> <Gold.Chemscore.Rot>
1.5393

> <Gold.Chemscore.Internal.Correction>
   9.000000E+99

> <Gold.Chemscore.Hbonds>
donor molecule, donor type, donor heavy atom, donor atom, acceptor molecule, acceptor atom, score
      P1  H  7997  8010       L1    16  1.00
      P1  H 10752 10765       L1    15  0.72

> <Gold.Chemscore.Hbond.Weighted>
-6.0181

> <Gold.Chemscore.Metal.Weighted>
-0.0000

> <Gold.Chemscore.Lipo.Weighted>
-12.9903

> <Gold.Chemscore.Internal_Hbond.Weighted>
0.0000

> <Gold.Chemscore.DEClash.Weighted>
0.4300

> <Gold.Chemscore.DEInternal.Weighted>
1.1591

> <Gold.Chemscore.Rot.Weighted>
3.9407

> <Gold.Chemscore.Internal.Correction.Weighted>
   9.000000E+99

> <Gold.Protein.RotatedTorsions>
[ 6907 6896 6895 6894 ] final  125.36 input  -60.11 | X-H torsion
[ 7974 7965 7964 7962 ] final   -1.38 input  175.53 | X-H torsion
[ 8008 7997 7996 7995 ] final  102.68 input   59.86 | X-H torsion
[ 10167 10162 10161 10158 ] final  102.24 input  -65.29 | X-H torsion
[ 10718 10713 10712 10709 ] final   58.39 input   66.30 | X-H torsion
[ 10763 10752 10751 10750 ] final  146.21 input  -60.55 | X-H torsion
[ 11005 11000 10999 10996 ] final   40.15 input  -57.11 | X-H torsion

> <Gold.Protein.ActiveResidues>
 VAL166  LYS551  ARG553  GLY616  TRP617  ASP618  TYR619  PRO620  LYS621  CYS622 
 ASP623  PHE694  ASN695  SER759  ASP760  ASP761  ALA762  ILE779  LEU786  VAL792 
 PHE793  MET794  SER795  GLU796  ALA797  LYS798  CYS799  TRP800  GLU811  SER814 

> <Gold.Protein.RotatedAtoms>
  152.3998  133.6801  159.6306 H   0  0  0  0  0  0  0  0  0  0  0  0  # atno 6907 bound_to 6896
  150.7891  133.8810  159.3294 H   0  0  0  0  0  0  0  0  0  0  0  0  # atno 6908 bound_to 6896
  151.6578  135.0995  160.0225 H   0  0  0  0  0  0  0  0  0  0  0  0  # atno 6909 bound_to 6896
  146.2417  140.1412  142.8335 H   0  0  0  0  0  0  0  0  0  0  0  0  # atno 7974 bound_to 7965
  156.1415  140.3177  155.8503 H   0  0  0  0  0  0  0  0  0  0  0  0  # atno 8008 bound_to 7997
  155.4145  140.0508  157.3047 H   0  0  0  0  0  0  0  0  0  0  0  0  # atno 8009 bound_to 7997
  154.4980  140.2118  155.9418 H   0  0  0  0  0  0  0  0  0  0  0  0  # atno 8010 bound_to 7997
  139.7367  144.7022  151.0638 H   0  0  0  0  0  0  0  0  0  0  0  0  # atno 10167 bound_to 10162
  157.5592  130.8823  149.9084 H   0  0  0  0  0  0  0  0  0  0  0  0  # atno 10718 bound_to 10713
  154.0181  135.2908  155.3384 H   0  0  0  0  0  0  0  0  0  0  0  0  # atno 10763 bound_to 10752
  154.7063  135.5168  153.8603 H   0  0  0  0  0  0  0  0  0  0  0  0  # atno 10764 bound_to 10752
  153.0693  135.6642  154.0406 H   0  0  0  0  0  0  0  0  0  0  0  0  # atno 10765 bound_to 10752
  140.1958  134.3930  155.8122 H   0  0  0  0  0  0  0  0  0  0  0  0  # atno 11005 bound_to 11000
  145.0245  140.8820  143.5147 LP  0  0  0  0  0  0  0  0  0  0  0  0  # atno 17320 bound_to 7965
  145.1466  139.2539  143.5462 LP  0  0  0  0  0  0  0  0  0  0  0  0  # atno 17321 bound_to 7965
  140.7780  143.4975  150.9814 LP  0  0  0  0  0  0  0  0  0  0  0  0  # atno 17342 bound_to 10162
  139.8663  143.7249  152.3170 LP  0  0  0  0  0  0  0  0  0  0  0  0  # atno 17343 bound_to 10162
  156.0647  130.3694  150.0905 LP  0  0  0  0  0  0  0  0  0  0  0  0  # atno 17370 bound_to 10713
  156.9070  130.9639  151.3568 LP  0  0  0  0  0  0  0  0  0  0  0  0  # atno 17371 bound_to 10713
  141.2227  133.7069  156.8174 LP  0  0  0  0  0  0  0  0  0  0  0  0  # atno 17394 bound_to 11000
  140.2108  134.8828  157.3273 LP  0  0  0  0  0  0  0  0  0  0  0  0  # atno 17395 bound_to 11000

$$$$
