AV-unprocessed.smi:1149|AV-procd|sdf|4892|dock4
  -GOLD-   22720 3463D 1   1.00000     0.00000
 Structure written by MMmdl.
 50 51  0  0  0  0  0  0  0  0  1 V2000
  147.3553  129.3968  152.8568 C   0  0  0  0  0  0  0  0  0  0  0  0
  148.4707  129.7766  153.6558 O   0  0  0  0  0  0  0  0  0  0  0  0
  148.7126  131.1220  153.8455 C   0  0  0  0  0  0  0  0  0  0  0  0
  149.6248  131.5084  154.8473 C   0  0  0  0  0  0  0  0  0  0  0  0
  149.8737  132.8796  155.0451 C   0  0  0  0  0  0  0  0  0  0  0  0
  149.1983  133.8238  154.2459 C   0  0  0  0  0  0  0  0  0  0  0  0
  149.4829  135.2006  154.4512 N   0  0  0  0  0  0  0  0  0  0  0  0
  149.7522  135.8323  155.6065 C   0  0  0  0  0  0  0  0  0  0  0  0
  149.8564  135.2874  156.7051 O   0  0  0  0  0  0  0  0  0  0  0  0
  149.9236  137.1465  155.4080 N   0  0  0  0  0  0  0  0  0  0  0  0
  150.2711  138.1316  156.4320 C   0  0  0  0  0  0  0  0  0  0  0  0
  150.8330  139.4488  155.8221 C   0  0  0  0  0  0  0  0  0  0  0  0
  152.1888  139.1050  155.1591 C   0  0  0  0  0  0  0  0  0  0  0  0
  149.8577  139.8545  154.6878 C   0  0  0  0  0  0  0  0  0  0  0  0
  150.9411  140.5262  156.8458 N   0  0  0  0  0  0  0  0  0  0  0  0
  152.0204  140.3378  157.8294 C   0  0  0  0  0  0  0  0  0  0  0  0
  151.9784  141.4074  158.9360 C   0  0  0  0  0  0  0  0  0  0  0  0
  152.0904  142.7532  158.3826 N   0  0  0  0  0  0  0  0  0  0  0  0
  152.0627  143.7644  159.4280 C   0  0  0  0  0  0  0  0  0  0  0  0
  151.0163  142.9524  157.4143 C   0  0  0  0  0  0  0  0  0  0  0  0
  151.0555  141.8890  156.3015 C   0  0  0  0  0  0  0  0  0  0  0  0
  148.3099  133.3351  153.2573 C   0  0  0  0  0  0  0  0  0  0  0  0
  148.0691  132.0212  153.0608 N   0  0  0  0  0  0  0  0  0  0  0  0
  147.2975  128.3095  152.8106 H   0  0  0  0  0  0  0  0  0  0  0  0
  147.4530  129.7660  151.8350 H   0  0  0  0  0  0  0  0  0  0  0  0
  146.4178  129.7595  153.2806 H   0  0  0  0  0  0  0  0  0  0  0  0
  150.1253  130.7667  155.4520 H   0  0  0  0  0  0  0  0  0  0  0  0
  150.5717  133.1992  155.8053 H   0  0  0  0  0  0  0  0  0  0  0  0
  149.5312  135.7635  153.6144 H   0  0  0  0  0  0  0  0  0  0  0  0
  149.8334  137.4970  154.4656 H   0  0  0  0  0  0  0  0  0  0  0  0
  149.3801  138.3227  157.0294 H   0  0  0  0  0  0  0  0  0  0  0  0
  150.9879  137.7157  157.1424 H   0  0  0  0  0  0  0  0  0  0  0  0
  152.0693  138.3222  154.4091 H   0  0  0  0  0  0  0  0  0  0  0  0
  152.9186  138.7385  155.8808 H   0  0  0  0  0  0  0  0  0  0  0  0
  152.6278  139.9623  154.6494 H   0  0  0  0  0  0  0  0  0  0  0  0
  149.6314  139.0114  154.0339 H   0  0  0  0  0  0  0  0  0  0  0  0
  150.2704  140.6331  154.0464 H   0  0  0  0  0  0  0  0  0  0  0  0
  148.9097  140.2210  155.0834 H   0  0  0  0  0  0  0  0  0  0  0  0
  151.9418  139.3652  158.3109 H   0  0  0  0  0  0  0  0  0  0  0  0
  152.9934  140.3701  157.3387 H   0  0  0  0  0  0  0  0  0  0  0  0
  151.0509  141.3108  159.5029 H   0  0  0  0  0  0  0  0  0  0  0  0
  152.7936  141.2301  159.6385 H   0  0  0  0  0  0  0  0  0  0  0  0
  152.1710  144.7626  159.0026 H   0  0  0  0  0  0  0  0  0  0  0  0
  152.8810  143.6132  160.1328 H   0  0  0  0  0  0  0  0  0  0  0  0
  151.1247  143.7315  159.9840 H   0  0  0  0  0  0  0  0  0  0  0  0
  150.0482  142.9193  157.9169 H   0  0  0  0  0  0  0  0  0  0  0  0
  151.1027  143.9437  156.9681 H   0  0  0  0  0  0  0  0  0  0  0  0
  151.9806  141.9975  155.7345 H   0  0  0  0  0  0  0  0  0  0  0  0
  150.2378  142.1025  155.6157 H   0  0  0  0  0  0  0  0  0  0  0  0
  147.7871  133.9946  152.5823 H   0  0  0  0  0  0  0  0  0  0  0  0
  1  2  1  0  0  0  0
  1 24  1  0  0  0  0
  1 25  1  0  0  0  0
  1 26  1  0  0  0  0
  2  3  1  0  0  0  0
  3 23  1  0  0  0  0
  3  4  2  0  0  0  0
  4  5  1  0  0  0  0
  4 27  1  0  0  0  0
  5  6  2  0  0  0  0
  5 28  1  0  0  0  0
  6  7  1  0  0  0  0
  6 22  1  0  0  0  0
  7  8  1  0  0  0  0
  7 29  1  0  0  0  0
  8  9  2  0  0  0  0
  8 10  1  0  0  0  0
 10 11  1  0  0  0  0
 10 30  1  0  0  0  0
 11 12  1  0  0  0  0
 11 31  1  0  0  0  0
 11 32  1  0  0  0  0
 12 13  1  0  0  0  0
 12 14  1  0  0  0  0
 12 15  1  0  0  0  0
 13 33  1  0  0  0  0
 13 34  1  0  0  0  0
 13 35  1  0  0  0  0
 14 36  1  0  0  0  0
 14 37  1  0  0  0  0
 14 38  1  0  0  0  0
 15 21  1  0  0  0  0
 15 16  1  0  0  0  0
 16 17  1  0  0  0  0
 16 39  1  0  0  0  0
 16 40  1  0  0  0  0
 17 18  1  0  0  0  0
 17 41  1  0  0  0  0
 17 42  1  0  0  0  0
 18 19  1  0  0  0  0
 18 20  1  0  0  0  0
 19 43  1  0  0  0  0
 19 44  1  0  0  0  0
 19 45  1  0  0  0  0
 20 21  1  0  0  0  0
 20 46  1  0  0  0  0
 20 47  1  0  0  0  0
 21 48  1  0  0  0  0
 21 49  1  0  0  0  0
 22 23  2  0  0  0  0
 22 50  1  0  0  0  0
M  END
> <s_m_source_file>
AV-unprocessed.smi

> <i_m_source_file_index>
1149

> <i_lp_mmshare_version>
43012

> <i_f3d_flags>
0

> <s_epik_input>
W0NIM11PYzFbY0hdW2NIXWMoW2NIXW4xKVtOSF1DKD1PKVtOSF1bQ0gyXUMoW0NIM10pKFtDSDNdKU4yW0NIMl1bQ0gyXU4oW0NIM10pW0NIMl1bQ0gyXTI=

> <s_epik_cmdline>
J2VwaWtfcHl0aG9uJywgJy1waCcsICc3LjAnLCAnLXRuJywgJzgnLCAnLW1hJywgJzIwMCcsICctbWV0YWxfYmluZGluZycsICctaW1hZScsICc8aW5maWxlLm1hZT4nLCAnLW9tYWUnLCAnPG91dGZpbGUubWFlPic=

> <r_lp_tautomer_probability>
1

> <r_epik_Ionization_Penalty>
3.08543

> <r_epik_Ionization_Penalty_Charging>
0

> <r_epik_Ionization_Penalty_Neutral>
3.08543

> <r_epik_State_Penalty>
2.1584

> <r_epik_Charging_Adjusted_Penalty>
2.1584

> <i_epik_Tot_Q>
0

> <i_epik_Tot_abs_Q>
0

> <r_epik_Metal_State_Penalty>
2.1584

> <b_epik_Metal_Only>
0

> <s_lp_Force_Field>
OPLS_2005

> <r_lp_Energy>
53.6816

> <b_lp_Chiralities_Consistent>
1

> <s_lp_Variant>
AV-unprocessed.smi:1149-3

> <Gold.Version>
5.8.1

> <Gold.Id.Protein>
6NUR|6NUR_protein|mol2

> <Gold.PLP.Fitness>
41.4012

> <Gold.PLP.PLP>
-37.9525

> <Gold.PLP.part.hbond>
-1.0000

> <Gold.PLP.part.metal>
0.0000

> <Gold.PLP.part.buried>
-4.0177

> <Gold.PLP.part.nonpolar>
-32.4418

> <Gold.PLP.part.repulsive>
0.6912

> <Gold.PLP.ligand.clash>
0.0000

> <Gold.PLP.ligand.torsion>
0.9047

> <Gold.PLP.Chemscore.Hbond>
1.0000

> <Gold.PLP.Chemscore.CHOScore>
0.7370

> <Gold.PLP.Chemscore.Metal>
0.0000

> <Gold.Chemscore.Hbonds>
donor molecule, donor type, donor heavy atom, donor atom, acceptor molecule, acceptor atom, score
      L1  H     7    29       P1  7948  1.00
      L1  C    22    50       P1  7948  0.68

> <Gold.PLP.Chemscore.Internal.Correction>
0.0471

> <Gold.Rescore>
     Score         DG    S(hbond)    S(metal)    S(lipo)     H(rot)  DE(clash)    DE(int)     intcor
     13.21     -15.50       0.92        0.00      95.88       1.67       0.14       2.15       ----

> <Gold.Chemscore.Fitness>
13.2059

> <Gold.Chemscore.DG>
-15.4953

> <Gold.Chemscore.ZeroCoef>
-5.4800

> <Gold.Chemscore.Hbond>
0.9228

> <Gold.Chemscore.Metal>
0.0000

> <Gold.Chemscore.Lipo>
95.8810

> <Gold.Chemscore.Internal_Hbond>
0.0000

> <Gold.Chemscore.DEClash>
0.1420

> <Gold.Chemscore.DEInternal>
2.1474

> <Gold.Chemscore.Rot>
1.6737

> <Gold.Chemscore.Internal.Correction>
   9.000000E+99

> <Gold.Chemscore.Hbonds>
donor molecule, donor type, donor heavy atom, donor atom, acceptor molecule, acceptor atom, score
      L1  H     7    29       P1  7948  0.29

> <Gold.Chemscore.Hbond.Weighted>
-3.0820

> <Gold.Chemscore.Metal.Weighted>
-0.0000

> <Gold.Chemscore.Lipo.Weighted>
-11.2181

> <Gold.Chemscore.Internal_Hbond.Weighted>
0.0000

> <Gold.Chemscore.DEClash.Weighted>
0.1420

> <Gold.Chemscore.DEInternal.Weighted>
2.1474

> <Gold.Chemscore.Rot.Weighted>
4.2848

> <Gold.Chemscore.Internal.Correction.Weighted>
   9.000000E+99

> <Gold.Protein.RotatedTorsions>
[ 6907 6896 6895 6894 ] final  136.43 input  -60.11 | X-H torsion
[ 7974 7965 7964 7962 ] final    2.79 input  175.53 | X-H torsion
[ 8008 7997 7996 7995 ] final -158.11 input   59.86 | X-H torsion
[ 10167 10162 10161 10158 ] final -158.26 input  -65.29 | X-H torsion
[ 10718 10713 10712 10709 ] final -108.73 input   66.30 | X-H torsion
[ 10763 10752 10751 10750 ] final  178.46 input  -60.55 | X-H torsion
[ 11005 11000 10999 10996 ] final   14.44 input  -57.11 | X-H torsion

> <Gold.Protein.ActiveResidues>
 VAL166  LYS551  ARG553  GLY616  TRP617  ASP618  TYR619  PRO620  LYS621  CYS622 
 ASP623  PHE694  ASN695  SER759  ASP760  ASP761  ALA762  ILE779  LEU786  VAL792 
 PHE793  MET794  SER795  GLU796  ALA797  LYS798  CYS799  TRP800  GLU811  SER814 

> <Gold.Protein.RotatedAtoms>
  152.2895  133.5547  159.5547 H   0  0  0  0  0  0  0  0  0  0  0  0  # atno 6907 bound_to 6896
  150.7229  134.0449  159.3787 H   0  0  0  0  0  0  0  0  0  0  0  0  # atno 6908 bound_to 6896
  151.8356  135.0607  160.0493 H   0  0  0  0  0  0  0  0  0  0  0  0  # atno 6909 bound_to 6896
  146.2444  140.0783  142.8358 H   0  0  0  0  0  0  0  0  0  0  0  0  # atno 7974 bound_to 7965
  155.7426  140.0816  157.2238 H   0  0  0  0  0  0  0  0  0  0  0  0  # atno 8008 bound_to 7997
  154.4020  140.1575  156.2689 H   0  0  0  0  0  0  0  0  0  0  0  0  # atno 8009 bound_to 7997
  155.9006  140.3410  155.6026 H   0  0  0  0  0  0  0  0  0  0  0  0  # atno 8010 bound_to 7997
  139.6706  143.9751  152.2281 H   0  0  0  0  0  0  0  0  0  0  0  0  # atno 10167 bound_to 10162
  156.0500  130.5727  150.8001 H   0  0  0  0  0  0  0  0  0  0  0  0  # atno 10718 bound_to 10713
  154.5079  135.2787  155.1367 H   0  0  0  0  0  0  0  0  0  0  0  0  # atno 10763 bound_to 10752
  154.2974  135.6255  153.5414 H   0  0  0  0  0  0  0  0  0  0  0  0  # atno 10764 bound_to 10752
  152.9913  135.5688  154.5537 H   0  0  0  0  0  0  0  0  0  0  0  0  # atno 10765 bound_to 10752
  140.4695  134.1045  155.7730 H   0  0  0  0  0  0  0  0  0  0  0  0  # atno 11005 bound_to 11000
  145.0755  140.9185  143.4856 LP  0  0  0  0  0  0  0  0  0  0  0  0  # atno 17320 bound_to 7965
  145.0925  139.2879  143.5727 LP  0  0  0  0  0  0  0  0  0  0  0  0  # atno 17321 bound_to 7965
  139.9515  144.6617  150.8167 LP  0  0  0  0  0  0  0  0  0  0  0  0  # atno 17342 bound_to 10162
  140.7616  143.3179  151.2689 LP  0  0  0  0  0  0  0  0  0  0  0  0  # atno 17343 bound_to 10162
  157.5417  131.0941  150.9819 LP  0  0  0  0  0  0  0  0  0  0  0  0  # atno 17370 bound_to 10713
  157.0100  130.5633  149.5320 LP  0  0  0  0  0  0  0  0  0  0  0  0  # atno 17371 bound_to 10713
  141.1583  133.8840  157.1916 LP  0  0  0  0  0  0  0  0  0  0  0  0  # atno 17394 bound_to 11000
  139.9894  135.0070  156.9939 LP  0  0  0  0  0  0  0  0  0  0  0  0  # atno 17395 bound_to 11000

$$$$
