AV-unprocessed.smi:42|AV-procd|sdf|388|dock2
  -GOLD-   2262016243D 1   1.00000     0.00000
 Structure written by MMmdl.
 27 28  0  0  0  0  0  0  0  0  2 V2000
  152.7694  143.8213  159.7355 C   0  0  0  0  0  0  0  0  0  0  0  0
  152.1150  143.8187  158.3498 C   0  0  0  0  0  0  0  0  0  0  0  0
  151.2508  142.6232  158.1274 C   0  0  0  0  0  0  0  0  0  0  0  0
  151.0457  141.6042  158.9650 N   0  0  0  0  0  0  0  0  0  0  0  0
  150.1268  140.7890  158.3452 N   0  0  0  0  0  0  0  0  0  0  0  0
  149.8469  141.3740  157.1751 C   0  0  0  0  0  0  0  0  0  0  0  0
  148.8522  140.9480  156.1382 C   0  0  2  0  0  0  0  0  0  0  0  0
  149.4134  140.8256  154.7185 C   0  0  0  0  0  0  0  0  0  0  0  0
  148.3109  141.3886  153.8069 C   0  0  1  0  0  0  0  0  0  0  0  0
  147.7892  140.3886  152.9566 O   0  0  0  0  0  0  0  0  0  0  0  0
  147.2204  141.9254  154.7495 C   0  0  0  0  0  0  0  0  0  0  0  0
  147.8488  142.0229  156.0758 N   0  3  0  0  0  0  0  0  0  0  0  0
  150.5038  142.5493  156.9952 O   0  0  0  0  0  0  0  0  0  0  0  0
  148.3615  140.0214  156.4401 H   0  0  0  0  0  0  0  0  0  0  0  0
  148.7135  142.1969  153.1948 H   0  0  0  0  0  0  0  0  0  0  0  0
  153.3956  144.7039  159.8676 H   0  0  0  0  0  0  0  0  0  0  0  0
  153.3989  142.9420  159.8751 H   0  0  0  0  0  0  0  0  0  0  0  0
  152.0179  143.8248  160.5254 H   0  0  0  0  0  0  0  0  0  0  0  0
  151.5108  144.7172  158.2205 H   0  0  0  0  0  0  0  0  0  0  0  0
  152.8837  143.8444  157.5766 H   0  0  0  0  0  0  0  0  0  0  0  0
  150.3029  141.4486  154.6112 H   0  0  0  0  0  0  0  0  0  0  0  0
  149.7078  139.8025  154.4811 H   0  0  0  0  0  0  0  0  0  0  0  0
  148.4465  140.1620  152.3158 H   0  0  0  0  0  0  0  0  0  0  0  0
  146.8180  142.8854  154.4255 H   0  0  0  0  0  0  0  0  0  0  0  0
  146.3892  141.2220  154.8247 H   0  0  0  0  0  0  0  0  0  0  0  0
  147.1722  141.9492  156.8221 H   0  0  0  0  0  0  0  0  0  0  0  0
  148.3339  142.9070  156.1376 H   0  0  0  0  0  0  0  0  0  0  0  0
  1  2  1  0  0  0  0
  1 16  1  0  0  0  0
  1 17  1  0  0  0  0
  1 18  1  0  0  0  0
  2  3  1  0  0  0  0
  2 19  1  0  0  0  0
  2 20  1  0  0  0  0
  3 13  1  0  0  0  0
  3  4  2  0  0  0  0
  4  5  1  0  0  0  0
  5  6  2  0  0  0  0
  6  7  1  0  0  0  0
  6 13  1  0  0  0  0
  7 14  1  0  0  0  0
  7 12  1  0  0  0  0
  7  8  1  0  0  0  0
  8  9  1  0  0  0  0
  8 21  1  0  0  0  0
  8 22  1  0  0  0  0
  9 15  1  0  0  0  0
  9 10  1  0  0  0  0
  9 11  1  0  0  0  0
 10 23  1  0  0  0  0
 11 12  1  0  0  0  0
 11 24  1  0  0  0  0
 11 25  1  0  0  0  0
 12 26  1  0  0  0  0
 12 27  1  0  0  0  0
M  CHG  1  12   1
M  END
> <s_m_source_file>
AV-unprocessed.smi

> <i_m_source_file_index>
42

> <i_lp_mmshare_version>
43012

> <i_f3d_flags>
0

> <s_epik_input>
W0NIM11bQ0gyXWMxbm5jKG8xKVtDQEhdMltDSDJdW0NAQEhdKFtPSF0pW0NIMl1bTkhdMg==

> <s_epik_cmdline>
J2VwaWtfcHl0aG9uJywgJy1waCcsICc3LjAnLCAnLXRuJywgJzgnLCAnLW1hJywgJzIwMCcsICctbWV0YWxfYmluZGluZycsICctaW1hZScsICc8aW5maWxlLm1hZT4nLCAnLW9tYWUnLCAnPG91dGZpbGUubWFlPic=

> <r_lp_tautomer_probability>
1

> <r_epik_Ionization_Penalty>
0.00247063

> <r_epik_Ionization_Penalty_Charging>
0.0024706

> <r_epik_Ionization_Penalty_Neutral>
3.27814e-08

> <r_epik_State_Penalty>
0.00171198

> <r_epik_Charging_Adjusted_Penalty>
0.00418258

> <i_epik_Tot_Q>
1

> <i_epik_Tot_abs_Q>
1

> <r_epik_Metal_State_Penalty>
-0

> <b_epik_Metal_Only>
0

> <s_lp_Force_Field>
OPLS_2005

> <r_lp_Energy>
19.0872

> <b_lp_Chiralities_Consistent>
1

> <s_lp_Variant>
AV-unprocessed.smi:42-2

> <Gold.Version>
5.8.1

> <Gold.Id.Protein>
6NUR|6NUR_protein|mol2

> <Gold.PLP.Fitness>
33.5973

> <Gold.PLP.PLP>
-24.6742

> <Gold.PLP.part.hbond>
-2.0000

> <Gold.PLP.part.metal>
0.0000

> <Gold.PLP.part.buried>
-3.0730

> <Gold.PLP.part.nonpolar>
-19.8744

> <Gold.PLP.part.repulsive>
0.8384

> <Gold.PLP.ligand.clash>
0.0000

> <Gold.PLP.ligand.torsion>
0.0651

> <Gold.PLP.Chemscore.Hbond>
3.0000

> <Gold.PLP.Chemscore.CHOScore>
0.0000

> <Gold.PLP.Chemscore.Metal>
0.0000

> <Gold.Chemscore.Hbonds>
donor molecule, donor type, donor heavy atom, donor atom, acceptor molecule, acceptor atom, score
      L1  H    10    23       P1  7957  1.00
      L1  H    12    27       P1  8028  2.00

> <Gold.PLP.Chemscore.Internal.Correction>
0.0532

> <Gold.Rescore>
     Score         DG    S(hbond)    S(metal)    S(lipo)     H(rot)  DE(clash)    DE(int)     intcor
     13.09     -13.34       1.93        0.00      52.77       1.86       0.18       0.08       ----

> <Gold.Chemscore.Fitness>
13.0873

> <Gold.Chemscore.DG>
-13.3430

> <Gold.Chemscore.ZeroCoef>
-5.4800

> <Gold.Chemscore.Hbond>
1.9287

> <Gold.Chemscore.Metal>
0.0000

> <Gold.Chemscore.Lipo>
52.7699

> <Gold.Chemscore.Internal_Hbond>
0.0000

> <Gold.Chemscore.DEClash>
0.1799

> <Gold.Chemscore.DEInternal>
0.0758

> <Gold.Chemscore.Rot>
1.8567

> <Gold.Chemscore.Internal.Correction>
   9.000000E+99

> <Gold.Chemscore.Hbonds>
donor molecule, donor type, donor heavy atom, donor atom, acceptor molecule, acceptor atom, score
      L1  H    10    23       P1  7957  1.00
      L1  H    12    27       P1  8028  0.87

> <Gold.Chemscore.Hbond.Weighted>
-6.4420

> <Gold.Chemscore.Metal.Weighted>
-0.0000

> <Gold.Chemscore.Lipo.Weighted>
-6.1741

> <Gold.Chemscore.Internal_Hbond.Weighted>
0.0000

> <Gold.Chemscore.DEClash.Weighted>
0.1799

> <Gold.Chemscore.DEInternal.Weighted>
0.0758

> <Gold.Chemscore.Rot.Weighted>
4.7531

> <Gold.Chemscore.Internal.Correction.Weighted>
   9.000000E+99

> <Gold.Protein.RotatedTorsions>
[ 6907 6896 6895 6894 ] final   25.44 input  -60.11 | X-H torsion
[ 7974 7965 7964 7962 ] final -156.69 input  175.53 | X-H torsion
[ 8008 7997 7996 7995 ] final  -50.86 input   59.86 | X-H torsion
[ 10167 10162 10161 10158 ] final -109.43 input  -65.29 | X-H torsion
[ 10718 10713 10712 10709 ] final  -21.40 input   66.30 | X-H torsion
[ 10763 10752 10751 10750 ] final  -84.04 input  -60.55 | X-H torsion
[ 11005 11000 10999 10996 ] final -144.28 input  -57.11 | X-H torsion

> <Gold.Protein.ActiveResidues>
 VAL166  LYS551  ARG553  GLY616  TRP617  ASP618  TYR619  PRO620  LYS621  CYS622 
 ASP623  PHE694  ASN695  SER759  ASP760  ASP761  ALA762  ILE779  LEU786  VAL792 
 PHE793  MET794  SER795  GLU796  ALA797  LYS798  CYS799  TRP800  GLU811  SER814 

> <Gold.Protein.RotatedAtoms>
  151.9726  135.0069  160.0553 H   0  0  0  0  0  0  0  0  0  0  0  0  # atno 6907 bound_to 6896
  152.1769  133.4676  159.4946 H   0  0  0  0  0  0  0  0  0  0  0  0  # atno 6908 bound_to 6896
  150.6911  134.1800  159.4288 H   0  0  0  0  0  0  0  0  0  0  0  0  # atno 6909 bound_to 6896
  144.7581  140.4074  143.5997 H   0  0  0  0  0  0  0  0  0  0  0  0  # atno 7974 bound_to 7965
  154.4070  140.1262  156.4734 H   0  0  0  0  0  0  0  0  0  0  0  0  # atno 8008 bound_to 7997
  155.7157  140.3493  155.4973 H   0  0  0  0  0  0  0  0  0  0  0  0  # atno 8009 bound_to 7997
  155.9260  140.1061  157.1159 H   0  0  0  0  0  0  0  0  0  0  0  0  # atno 8010 bound_to 7997
  140.1554  143.4164  152.1464 H   0  0  0  0  0  0  0  0  0  0  0  0  # atno 10167 bound_to 10162
  156.5187  130.4627  149.6608 H   0  0  0  0  0  0  0  0  0  0  0  0  # atno 10718 bound_to 10713
  154.5948  135.5535  153.7314 H   0  0  0  0  0  0  0  0  0  0  0  0  # atno 10763 bound_to 10752
  153.0131  135.6352  154.1798 H   0  0  0  0  0  0  0  0  0  0  0  0  # atno 10764 bound_to 10752
  154.1739  135.2890  155.3053 H   0  0  0  0  0  0  0  0  0  0  0  0  # atno 10765 bound_to 10752
  140.8040  134.2823  157.4967 H   0  0  0  0  0  0  0  0  0  0  0  0  # atno 11005 bound_to 11000
  145.6709  139.1599  143.2755 LP  0  0  0  0  0  0  0  0  0  0  0  0  # atno 17320 bound_to 7965
  146.1615  140.6781  142.9275 LP  0  0  0  0  0  0  0  0  0  0  0  0  # atno 17321 bound_to 7965
  139.5406  144.7252  151.4747 LP  0  0  0  0  0  0  0  0  0  0  0  0  # atno 17342 bound_to 10162
  140.6676  143.8364  150.6960 LP  0  0  0  0  0  0  0  0  0  0  0  0  # atno 17343 bound_to 10162
  156.3170  130.7260  151.2164 LP  0  0  0  0  0  0  0  0  0  0  0  0  # atno 17370 bound_to 10713
  157.7440  131.0466  150.4901 LP  0  0  0  0  0  0  0  0  0  0  0  0  # atno 17371 bound_to 10713
  139.8719  134.9446  156.3885 LP  0  0  0  0  0  0  0  0  0  0  0  0  # atno 17394 bound_to 11000
  140.9265  133.7608  155.9971 LP  0  0  0  0  0  0  0  0  0  0  0  0  # atno 17395 bound_to 11000

$$$$
