AV-unprocessed.smi:2975|AV-procd|sdf|11356|dock5
  -GOLD-   2272016273D 1   1.00000     0.00000
 Structure written by MMmdl.
 39 41  0  0  0  0  0  0  0  0  1 V2000
  153.9989  138.7780  160.7219 C   0  0  0  0  0  0  0  0  0  0  0  0
  154.6907  140.0963  160.3469 C   0  0  1  0  0  0  0  0  0  0  0  0
  155.4992  139.8725  159.2108 O   0  0  0  0  0  0  0  0  0  0  0  0
  153.7003  141.2048  160.1175 C   0  0  0  0  0  0  0  0  0  0  0  0
  153.7012  142.2973  160.8855 N   0  0  0  0  0  0  0  0  0  0  0  0
  152.6759  143.0509  160.3530 C   0  0  0  0  0  0  0  0  0  0  0  0
  152.1865  144.3247  160.7206 C   0  0  0  0  0  0  0  0  0  0  0  0
  151.1109  144.9058  160.0178 C   0  0  0  0  0  0  0  0  0  0  0  0
  150.5109  144.2227  158.9403 C   0  0  0  0  0  0  0  0  0  0  0  0
  150.9828  142.9517  158.5596 C   0  0  0  0  0  0  0  0  0  0  0  0
  152.0573  142.3757  159.2644 C   0  0  0  0  0  0  0  0  0  0  0  0
  152.7429  141.1691  159.1515 N   0  0  0  0  0  0  0  0  0  0  0  0
  152.4430  140.1241  158.1807 C   0  0  0  0  0  0  0  0  0  0  0  0
  151.0794  139.4644  158.4296 C   0  0  0  0  0  0  0  0  0  0  0  0
  150.6330  138.8100  157.2497 O   0  0  0  0  0  0  0  0  0  0  0  0
  150.0830  139.5804  156.2465 C   0  0  0  0  0  0  0  0  0  0  0  0
  150.0877  140.9991  156.2430 C   0  0  0  0  0  0  0  0  0  0  0  0
  149.5113  141.7130  155.1745 C   0  0  0  0  0  0  0  0  0  0  0  0
  148.9216  141.0231  154.0999 C   0  0  0  0  0  0  0  0  0  0  0  0
  148.9091  139.6163  154.0952 C   0  0  0  0  0  0  0  0  0  0  0  0
  149.4860  138.9011  155.1625 C   0  0  0  0  0  0  0  0  0  0  0  0
  149.4565  137.5473  155.1470 F   0  0  0  0  0  0  0  0  0  0  0  0
  153.3713  138.9034  161.6041 H   0  0  0  0  0  0  0  0  0  0  0  0
  154.7296  137.9992  160.9424 H   0  0  0  0  0  0  0  0  0  0  0  0
  153.3611  138.4160  159.9147 H   0  0  0  0  0  0  0  0  0  0  0  0
  155.3654  140.3566  161.1592 H   0  0  0  0  0  0  0  0  0  0  0  0
  156.3484  139.5811  159.5058 H   0  0  0  0  0  0  0  0  0  0  0  0
  152.6402  144.8556  161.5442 H   0  0  0  0  0  0  0  0  0  0  0  0
  150.7450  145.8801  160.3067 H   0  0  0  0  0  0  0  0  0  0  0  0
  149.6878  144.6748  158.4066 H   0  0  0  0  0  0  0  0  0  0  0  0
  150.5244  142.4270  157.7347 H   0  0  0  0  0  0  0  0  0  0  0  0
  152.5149  140.5180  157.1678 H   0  0  0  0  0  0  0  0  0  0  0  0
  153.2237  139.3664  158.2516 H   0  0  0  0  0  0  0  0  0  0  0  0
  151.1757  138.7369  159.2369 H   0  0  0  0  0  0  0  0  0  0  0  0
  150.3614  140.2231  158.7452 H   0  0  0  0  0  0  0  0  0  0  0  0
  150.5316  141.5656  157.0471 H   0  0  0  0  0  0  0  0  0  0  0  0
  149.5231  142.7931  155.1794 H   0  0  0  0  0  0  0  0  0  0  0  0
  148.4795  141.5715  153.2811 H   0  0  0  0  0  0  0  0  0  0  0  0
  148.4552  139.0839  153.2724 H   0  0  0  0  0  0  0  0  0  0  0  0
  1  2  1  0  0  0  0
  1 23  1  0  0  0  0
  1 24  1  0  0  0  0
  1 25  1  0  0  0  0
  2  3  1  0  0  0  0
  2  4  1  0  0  0  0
  2 26  1  0  0  0  0
  3 27  1  0  0  0  0
  4 12  1  0  0  0  0
  4  5  2  0  0  0  0
  5  6  1  0  0  0  0
  6 11  2  0  0  0  0
  6  7  1  0  0  0  0
  7  8  2  0  0  0  0
  7 28  1  0  0  0  0
  8  9  1  0  0  0  0
  8 29  1  0  0  0  0
  9 10  2  0  0  0  0
  9 30  1  0  0  0  0
 10 11  1  0  0  0  0
 10 31  1  0  0  0  0
 11 12  1  0  0  0  0
 12 13  1  0  0  0  0
 13 14  1  0  0  0  0
 13 32  1  0  0  0  0
 13 33  1  0  0  0  0
 14 15  1  0  0  0  0
 14 34  1  0  0  0  0
 14 35  1  0  0  0  0
 15 16  1  0  0  0  0
 16 21  1  0  0  0  0
 16 17  2  0  0  0  0
 17 18  1  0  0  0  0
 17 36  1  0  0  0  0
 18 19  2  0  0  0  0
 18 37  1  0  0  0  0
 19 20  1  0  0  0  0
 19 38  1  0  0  0  0
 20 21  2  0  0  0  0
 20 39  1  0  0  0  0
 21 22  1  0  0  0  0
M  END
> <s_m_source_file>
AV-unprocessed.smi

> <i_m_source_file_index>
2975

> <i_lp_mmshare_version>
43012

> <i_f3d_flags>
0

> <s_epik_input>
W2NIXTFbY0hdW2NIXVtjSF1jKGMxMiluKGMobjIpW0NASF0oW0NIM10pW09IXSlbQ0gyXVtDSDJdT2MzW2NIXVtjSF1bY0hdW2NIXWMzRg==

> <s_epik_cmdline>
J2VwaWtfcHl0aG9uJywgJy1waCcsICc3LjAnLCAnLXRuJywgJzgnLCAnLW1hJywgJzIwMCcsICctbWV0YWxfYmluZGluZycsICctaW1hZScsICc8aW5maWxlLm1hZT4nLCAnLW9tYWUnLCAnPG91dGZpbGUubWFlPic=

> <r_lp_tautomer_probability>
1

> <r_epik_Ionization_Penalty>
0.0404035

> <r_epik_Ionization_Penalty_Charging>
0

> <r_epik_Ionization_Penalty_Neutral>
0.0404035

> <r_epik_State_Penalty>
0.0340039

> <r_epik_Charging_Adjusted_Penalty>
0.0340039

> <i_epik_Tot_Q>
0

> <i_epik_Tot_abs_Q>
0

> <r_epik_Metal_State_Penalty>
3.49976e-05

> <b_epik_Metal_Only>
0

> <s_lp_Force_Field>
OPLS_2005

> <r_lp_Energy>
14.7518

> <b_lp_Chiralities_Consistent>
1

> <s_lp_Variant>
AV-unprocessed.smi:2975-2

> <Gold.Version>
5.8.1

> <Gold.Id.Protein>
6NUR|6NUR_protein|mol2

> <Gold.PLP.Fitness>
44.9953

> <Gold.PLP.PLP>
-42.5092

> <Gold.PLP.part.hbond>
-1.0000

> <Gold.PLP.part.metal>
0.0000

> <Gold.PLP.part.buried>
-2.1222

> <Gold.PLP.part.nonpolar>
-38.4268

> <Gold.PLP.part.repulsive>
0.0000

> <Gold.PLP.ligand.clash>
0.0000

> <Gold.PLP.ligand.torsion>
0.2909

> <Gold.PLP.Chemscore.Hbond>
1.0000

> <Gold.PLP.Chemscore.CHOScore>
0.0000

> <Gold.PLP.Chemscore.Metal>
0.0000

> <Gold.Chemscore.Hbonds>
donor molecule, donor type, donor heavy atom, donor atom, acceptor molecule, acceptor atom, score
      P1  H  7997  8010       L1     3  1.00

> <Gold.PLP.Chemscore.Internal.Correction>
0.0679

> <Gold.Rescore>
     Score         DG    S(hbond)    S(metal)    S(lipo)     H(rot)  DE(clash)    DE(int)     intcor
     16.74     -17.28       0.88        0.00     124.09       2.21       0.24       0.30       ----

> <Gold.Chemscore.Fitness>
16.7380

> <Gold.Chemscore.DG>
-17.2772

> <Gold.Chemscore.ZeroCoef>
-5.4800

> <Gold.Chemscore.Hbond>
0.8761

> <Gold.Chemscore.Metal>
0.0000

> <Gold.Chemscore.Lipo>
124.0868

> <Gold.Chemscore.Internal_Hbond>
0.0000

> <Gold.Chemscore.DEClash>
0.2395

> <Gold.Chemscore.DEInternal>
0.2996

> <Gold.Chemscore.Rot>
2.2060

> <Gold.Chemscore.Internal.Correction>
   9.000000E+99

> <Gold.Chemscore.Hbonds>
donor molecule, donor type, donor heavy atom, donor atom, acceptor molecule, acceptor atom, score
      P1  H  7997  8010       L1     3  0.63

> <Gold.Chemscore.Hbond.Weighted>
-2.9263

> <Gold.Chemscore.Metal.Weighted>
-0.0000

> <Gold.Chemscore.Lipo.Weighted>
-14.5182

> <Gold.Chemscore.Internal_Hbond.Weighted>
0.0000

> <Gold.Chemscore.DEClash.Weighted>
0.2395

> <Gold.Chemscore.DEInternal.Weighted>
0.2996

> <Gold.Chemscore.Rot.Weighted>
5.6473

> <Gold.Chemscore.Internal.Correction.Weighted>
   9.000000E+99

> <Gold.Protein.RotatedTorsions>
[ 6907 6896 6895 6894 ] final  -81.67 input  -60.11 | X-H torsion
[ 7974 7965 7964 7962 ] final -150.00 input  175.53 | X-H torsion
[ 8008 7997 7996 7995 ] final  -26.68 input   59.86 | X-H torsion
[ 10167 10162 10161 10158 ] final  -27.57 input  -65.29 | X-H torsion
[ 10718 10713 10712 10709 ] final  136.22 input   66.30 | X-H torsion
[ 10763 10752 10751 10750 ] final  129.39 input  -60.55 | X-H torsion
[ 11005 11000 10999 10996 ] final   24.74 input  -57.11 | X-H torsion

> <Gold.Protein.ActiveResidues>
 VAL166  LYS551  ARG553  GLY616  TRP617  ASP618  TYR619  PRO620  LYS621  CYS622 
 ASP623  PHE694  ASN695  SER759  ASP760  ASP761  ALA762  ILE779  LEU786  VAL792 
 PHE793  MET794  SER795  GLU796  ALA797  LYS798  CYS799  TRP800  GLU811  SER814 

> <Gold.Protein.RotatedAtoms>
  150.6908  134.3781  159.5021 H   0  0  0  0  0  0  0  0  0  0  0  0  # atno 6907 bound_to 6896
  152.1588  134.8927  160.0552 H   0  0  0  0  0  0  0  0  0  0  0  0  # atno 6908 bound_to 6896
  151.9996  133.3786  159.4213 H   0  0  0  0  0  0  0  0  0  0  0  0  # atno 6909 bound_to 6896
  144.7934  140.4990  143.5757 H   0  0  0  0  0  0  0  0  0  0  0  0  # atno 7974 bound_to 7965
  154.4413  140.1893  156.0814 H   0  0  0  0  0  0  0  0  0  0  0  0  # atno 8008 bound_to 7997
  156.0436  140.3317  155.7245 H   0  0  0  0  0  0  0  0  0  0  0  0  # atno 8009 bound_to 7997
  155.5663  140.0608  157.2808 H   0  0  0  0  0  0  0  0  0  0  0  0  # atno 8010 bound_to 7997
  140.7276  143.4082  151.1150 H   0  0  0  0  0  0  0  0  0  0  0  0  # atno 10167 bound_to 10162
  157.4489  131.1064  151.0056 H   0  0  0  0  0  0  0  0  0  0  0  0  # atno 10718 bound_to 10713
  153.7410  135.3224  155.3304 H   0  0  0  0  0  0  0  0  0  0  0  0  # atno 10763 bound_to 10752
  154.8295  135.4544  154.1027 H   0  0  0  0  0  0  0  0  0  0  0  0  # atno 10764 bound_to 10752
  153.2201  135.6947  153.8092 H   0  0  0  0  0  0  0  0  0  0  0  0  # atno 10765 bound_to 10752
  140.3554  134.2183  155.7676 H   0  0  0  0  0  0  0  0  0  0  0  0  # atno 11005 bound_to 11000
  145.5736  139.1485  143.3274 LP  0  0  0  0  0  0  0  0  0  0  0  0  # atno 17320 bound_to 7965
  146.2194  140.5869  142.9024 LP  0  0  0  0  0  0  0  0  0  0  0  0  # atno 17321 bound_to 7965
  139.7711  143.8492  152.3120 LP  0  0  0  0  0  0  0  0  0  0  0  0  # atno 17342 bound_to 10162
  139.8411  144.7209  150.9330 LP  0  0  0  0  0  0  0  0  0  0  0  0  # atno 17343 bound_to 10162
  157.0893  130.5935  149.5436 LP  0  0  0  0  0  0  0  0  0  0  0  0  # atno 17370 bound_to 10713
  155.9979  130.5051  150.7551 LP  0  0  0  0  0  0  0  0  0  0  0  0  # atno 17371 bound_to 10713
  141.2000  133.7998  157.0511 LP  0  0  0  0  0  0  0  0  0  0  0  0  # atno 17394 bound_to 11000
  140.0669  134.9724  157.1401 LP  0  0  0  0  0  0  0  0  0  0  0  0  # atno 17395 bound_to 11000

$$$$
