AV-unprocessed.smi:1554|AV-procd|sdf|6252|dock9
  -GOLD-   22720 6433D 1   1.00000     0.00000
 Structure written by MMmdl.
 48 50  0  0  0  0  0  0  0  0  2 V2000
  152.5861  143.5642  161.4834 C   0  0  0  0  0  0  0  0  0  0  0  0
  152.3630  142.8278  160.1732 C   0  0  0  0  0  0  0  0  0  0  0  0
  151.4607  143.3783  159.2353 C   0  0  0  0  0  0  0  0  0  0  0  0
  151.2757  142.6799  158.0478 C   0  0  0  0  0  0  0  0  0  0  0  0
  150.4646  142.9527  156.9443 N   0  3  0  0  0  0  0  0  0  0  0  0
  150.6192  141.9712  156.0132 C   0  0  0  0  0  0  0  0  0  0  0  0
  151.5188  141.0765  156.5046 N   0  0  0  0  0  0  0  0  0  0  0  0
  152.0390  139.8424  155.8982 C   0  0  0  0  0  0  0  0  0  0  0  0
  150.9362  138.9741  155.2616 C   0  0  2  0  0  0  0  0  0  0  0  0
  150.4412  139.6136  154.1021 O   0  0  0  0  0  0  0  0  0  0  0  0
  149.7609  138.7544  156.2350 C   0  0  0  0  0  0  0  0  0  0  0  0
  150.0212  137.8355  157.3450 N   0  0  0  0  0  0  0  0  0  0  0  0
  150.9976  138.3597  158.2988 C   0  0  0  0  0  0  0  0  0  0  0  0
  151.2279  137.3938  159.4738 C   0  0  0  0  0  0  0  0  0  0  0  0
  149.9878  137.1130  160.1139 O   0  0  0  0  0  0  0  0  0  0  0  0
  149.0210  136.5515  159.2307 C   0  0  1  0  0  0  0  0  0  0  0  0
  147.7392  136.2846  160.0269 C   0  0  0  0  0  0  0  0  0  0  0  0
  148.7868  137.5244  158.0587 C   0  0  0  0  0  0  0  0  0  0  0  0
  151.9541  141.4762  157.7740 C   0  0  0  0  0  0  0  0  0  0  0  0
  152.8462  140.9203  158.6883 C   0  0  0  0  0  0  0  0  0  0  0  0
  153.0454  141.6133  159.9037 C   0  0  0  0  0  0  0  0  0  0  0  0
  154.0081  141.0266  160.9222 C   0  0  0  0  0  0  0  0  0  0  0  0
  152.0091  144.4884  161.5252 H   0  0  0  0  0  0  0  0  0  0  0  0
  153.6382  143.8242  161.6030 H   0  0  0  0  0  0  0  0  0  0  0  0
  152.2838  142.9434  162.3271 H   0  0  0  0  0  0  0  0  0  0  0  0
  150.9357  144.3011  159.4343 H   0  0  0  0  0  0  0  0  0  0  0  0
  150.1195  141.9140  155.0569 H   0  0  0  0  0  0  0  0  0  0  0  0
  152.7569  140.1436  155.1343 H   0  0  0  0  0  0  0  0  0  0  0  0
  152.6058  139.2841  156.6437 H   0  0  0  0  0  0  0  0  0  0  0  0
  151.3790  138.0233  154.9682 H   0  0  0  0  0  0  0  0  0  0  0  0
  150.3414  138.9619  153.4242 H   0  0  0  0  0  0  0  0  0  0  0  0
  149.4467  139.7178  156.6395 H   0  0  0  0  0  0  0  0  0  0  0  0
  148.9112  138.3880  155.6567 H   0  0  0  0  0  0  0  0  0  0  0  0
  151.9541  138.5373  157.8096 H   0  0  0  0  0  0  0  0  0  0  0  0
  150.6587  139.3222  158.6854 H   0  0  0  0  0  0  0  0  0  0  0  0
  151.6846  136.4658  159.1270 H   0  0  0  0  0  0  0  0  0  0  0  0
  151.9110  137.8358  160.1992 H   0  0  0  0  0  0  0  0  0  0  0  0
  149.4004  135.6024  158.8475 H   0  0  0  0  0  0  0  0  0  0  0  0
  146.9670  135.8476  159.3934 H   0  0  0  0  0  0  0  0  0  0  0  0
  147.3410  137.2061  160.4528 H   0  0  0  0  0  0  0  0  0  0  0  0
  147.9270  135.5921  160.8478 H   0  0  0  0  0  0  0  0  0  0  0  0
  148.3380  138.4449  158.4360 H   0  0  0  0  0  0  0  0  0  0  0  0
  148.0639  137.0867  157.3690 H   0  0  0  0  0  0  0  0  0  0  0  0
  153.3610  139.9926  158.4866 H   0  0  0  0  0  0  0  0  0  0  0  0
  154.4433  140.0917  160.5676 H   0  0  0  0  0  0  0  0  0  0  0  0
  153.4927  140.8190  161.8604 H   0  0  0  0  0  0  0  0  0  0  0  0
  154.8256  141.7202  161.1212 H   0  0  0  0  0  0  0  0  0  0  0  0
  149.8497  143.7486  156.8328 H   0  0  0  0  0  0  0  0  0  0  0  0
  1  2  1  0  0  0  0
  1 23  1  0  0  0  0
  1 24  1  0  0  0  0
  1 25  1  0  0  0  0
  2 21  1  0  0  0  0
  2  3  2  0  0  0  0
  3  4  1  0  0  0  0
  3 26  1  0  0  0  0
  4 19  2  0  0  0  0
  4  5  1  0  0  0  0
  5  6  2  0  0  0  0
  5 48  1  0  0  0  0
  6  7  1  0  0  0  0
  6 27  1  0  0  0  0
  7  8  1  0  0  0  0
  7 19  1  0  0  0  0
  8  9  1  0  0  0  0
  8 28  1  0  0  0  0
  8 29  1  0  0  0  0
  9 10  1  0  0  0  0
  9 11  1  0  0  0  0
  9 30  1  0  0  0  0
 10 31  1  0  0  0  0
 11 12  1  0  0  0  0
 11 32  1  0  0  0  0
 11 33  1  0  0  0  0
 12 18  1  0  0  0  0
 12 13  1  0  0  0  0
 13 14  1  0  0  0  0
 13 34  1  0  0  0  0
 13 35  1  0  0  0  0
 14 15  1  0  0  0  0
 14 36  1  0  0  0  0
 14 37  1  0  0  0  0
 15 16  1  0  0  0  0
 16 17  1  0  0  0  0
 16 18  1  0  0  0  0
 16 38  1  0  0  0  0
 17 39  1  0  0  0  0
 17 40  1  0  0  0  0
 17 41  1  0  0  0  0
 18 42  1  0  0  0  0
 18 43  1  0  0  0  0
 19 20  1  0  0  0  0
 20 21  2  0  0  0  0
 20 44  1  0  0  0  0
 21 22  1  0  0  0  0
 22 45  1  0  0  0  0
 22 46  1  0  0  0  0
 22 47  1  0  0  0  0
M  CHG  1   5   1
M  END
> <s_m_source_file>
AV-unprocessed.smi

> <i_m_source_file_index>
1554

> <i_lp_mmshare_version>
43012

> <i_f3d_flags>
0

> <s_epik_input>
W0NIM11jKFtjSF0xKWMoW0NIM10pW2NIXWMoYzEyKW4oW2NIXW4yKVtDSDJdW0NASF0oW09IXSlbQ0gyXU4zW0NIMl1bQ0gyXU9bQ0BASF0oW0NIM10pW0NIMl0z

> <s_epik_cmdline>
J2VwaWtfcHl0aG9uJywgJy1waCcsICc3LjAnLCAnLXRuJywgJzgnLCAnLW1hJywgJzIwMCcsICctbWV0YWxfYmluZGluZycsICctaW1hZScsICc8aW5maWxlLm1hZT4nLCAnLW9tYWUnLCAnPG91dGZpbGUubWFlPic=

> <r_epik_Ionization_Penalty>
1.42504

> <r_epik_Ionization_Penalty_Charging>
1.21068

> <r_epik_Ionization_Penalty_Neutral>
0.214359

> <r_epik_State_Penalty>
1.46962

> <r_epik_Charging_Adjusted_Penalty>
2.6803

> <i_epik_Tot_Q>
1

> <i_epik_Tot_abs_Q>
1

> <r_epik_Metal_State_Penalty>
5.48754

> <b_epik_Metal_Only>
0

> <s_lp_Force_Field>
OPLS_2005

> <r_lp_Energy>
34.8696

> <b_lp_Chiralities_Consistent>
1

> <s_lp_Variant>
AV-unprocessed.smi:1554-13

> <Gold.Version>
5.8.1

> <Gold.Id.Protein>
6NUR|6NUR_protein|mol2

> <Gold.PLP.Fitness>
52.0813

> <Gold.PLP.PLP>
-43.1928

> <Gold.PLP.part.hbond>
-3.9093

> <Gold.PLP.part.metal>
0.0000

> <Gold.PLP.part.buried>
-6.1717

> <Gold.PLP.part.nonpolar>
-32.6360

> <Gold.PLP.part.repulsive>
0.0302

> <Gold.PLP.ligand.clash>
0.0000

> <Gold.PLP.ligand.torsion>
0.3646

> <Gold.PLP.Chemscore.Hbond>
3.1964

> <Gold.PLP.Chemscore.CHOScore>
0.0000

> <Gold.PLP.Chemscore.Metal>
0.0000

> <Gold.Chemscore.Hbonds>
donor molecule, donor type, donor heavy atom, donor atom, acceptor molecule, acceptor atom, score
      L1  H     5    48       P1  8028  1.86
      P1  H  6931  6943       L1    15  0.10
      P1  H  7989  7998       L1    10  1.00

> <Gold.PLP.Chemscore.Internal.Correction>
0.0283

> <Gold.Rescore>
     Score         DG    S(hbond)    S(metal)    S(lipo)     H(rot)  DE(clash)    DE(int)     intcor
     20.45     -21.05       2.22        0.00     114.27       2.04       0.07       0.52       ----

> <Gold.Chemscore.Fitness>
20.4530

> <Gold.Chemscore.DG>
-21.0501

> <Gold.Chemscore.ZeroCoef>
-5.4800

> <Gold.Chemscore.Hbond>
2.2245

> <Gold.Chemscore.Metal>
0.0000

> <Gold.Chemscore.Lipo>
114.2701

> <Gold.Chemscore.Internal_Hbond>
0.0000

> <Gold.Chemscore.DEClash>
0.0743

> <Gold.Chemscore.DEInternal>
0.5229

> <Gold.Chemscore.Rot>
2.0427

> <Gold.Chemscore.Internal.Correction>
   9.000000E+99

> <Gold.Chemscore.Hbonds>
donor molecule, donor type, donor heavy atom, donor atom, acceptor molecule, acceptor atom, score
      L1  H     5    48       P1  8028  0.89
      P1  H  6931  6943       L1    15  0.09
      P1  H  7989  7998       L1    10  0.47

> <Gold.Chemscore.Hbond.Weighted>
-7.4300

> <Gold.Chemscore.Metal.Weighted>
-0.0000

> <Gold.Chemscore.Lipo.Weighted>
-13.3696

> <Gold.Chemscore.Internal_Hbond.Weighted>
0.0000

> <Gold.Chemscore.DEClash.Weighted>
0.0743

> <Gold.Chemscore.DEInternal.Weighted>
0.5229

> <Gold.Chemscore.Rot.Weighted>
5.2294

> <Gold.Chemscore.Internal.Correction.Weighted>
   9.000000E+99

> <Gold.Protein.RotatedTorsions>
[ 6907 6896 6895 6894 ] final  -20.77 input  -60.11 | X-H torsion
[ 7974 7965 7964 7962 ] final  -87.57 input  175.53 | X-H torsion
[ 8008 7997 7996 7995 ] final -143.21 input   59.86 | X-H torsion
[ 10167 10162 10161 10158 ] final  -54.45 input  -65.29 | X-H torsion
[ 10718 10713 10712 10709 ] final  -96.65 input   66.30 | X-H torsion
[ 10763 10752 10751 10750 ] final -146.25 input  -60.55 | X-H torsion
[ 11005 11000 10999 10996 ] final   20.67 input  -57.11 | X-H torsion

> <Gold.Protein.ActiveResidues>
 VAL166  LYS551  ARG553  GLY616  TRP617  ASP618  TYR619  PRO620  LYS621  CYS622 
 ASP623  PHE694  ASN695  SER759  ASP760  ASP761  ALA762  ILE779  LEU786  VAL792 
 PHE793  MET794  SER795  GLU796  ALA797  LYS798  CYS799  TRP800  GLU811  SER814 

> <Gold.Protein.RotatedAtoms>
  151.2432  135.0596  159.9032 H   0  0  0  0  0  0  0  0  0  0  0  0  # atno 6907 bound_to 6896
  152.5390  134.0412  159.8078 H   0  0  0  0  0  0  0  0  0  0  0  0  # atno 6908 bound_to 6896
  151.0609  133.5496  159.2666 H   0  0  0  0  0  0  0  0  0  0  0  0  # atno 6909 bound_to 6896
  145.4648  140.9560  143.1949 H   0  0  0  0  0  0  0  0  0  0  0  0  # atno 7974 bound_to 7965
  155.5068  140.0580  157.2930 H   0  0  0  0  0  0  0  0  0  0  0  0  # atno 8008 bound_to 7997
  154.4566  140.1976  156.0310 H   0  0  0  0  0  0  0  0  0  0  0  0  # atno 8009 bound_to 7997
  156.0811  140.3247  155.7700 H   0  0  0  0  0  0  0  0  0  0  0  0  # atno 8010 bound_to 7997
  140.6430  143.2518  151.4938 H   0  0  0  0  0  0  0  0  0  0  0  0  # atno 10167 bound_to 10162
  156.0067  130.5160  150.6258 H   0  0  0  0  0  0  0  0  0  0  0  0  # atno 10718 bound_to 10713
  154.8345  135.3391  154.6632 H   0  0  0  0  0  0  0  0  0  0  0  0  # atno 10763 bound_to 10752
  153.7249  135.6956  153.5008 H   0  0  0  0  0  0  0  0  0  0  0  0  # atno 10764 bound_to 10752
  153.2354  135.4402  155.0594 H   0  0  0  0  0  0  0  0  0  0  0  0  # atno 10765 bound_to 10752
  140.4000  134.1728  155.7663 H   0  0  0  0  0  0  0  0  0  0  0  0  # atno 11005 bound_to 11000
  144.7981  139.6195  143.7084 LP  0  0  0  0  0  0  0  0  0  0  0  0  # atno 17320 bound_to 7965
  146.2430  139.6041  142.9478 LP  0  0  0  0  0  0  0  0  0  0  0  0  # atno 17321 bound_to 7965
  139.5639  144.2089  152.1735 LP  0  0  0  0  0  0  0  0  0  0  0  0  # atno 17342 bound_to 10162
  140.1365  144.5241  150.6770 LP  0  0  0  0  0  0  0  0  0  0  0  0  # atno 17343 bound_to 10162
  157.4065  131.0817  151.1260 LP  0  0  0  0  0  0  0  0  0  0  0  0  # atno 17370 bound_to 10713
  157.1905  130.6350  149.5703 LP  0  0  0  0  0  0  0  0  0  0  0  0  # atno 17371 bound_to 10713
  141.1860  133.8311  157.1084 LP  0  0  0  0  0  0  0  0  0  0  0  0  # atno 17394 bound_to 11000
  140.0343  134.9886  157.0841 LP  0  0  0  0  0  0  0  0  0  0  0  0  # atno 17395 bound_to 11000

$$$$
