AV-unprocessed.smi:2073|AV-procd|sdf|8451|dock4
  -GOLD-   2272011143D 1   1.00000     0.00000
 Structure written by MMmdl.
 27 27  0  0  0  0  0  0  0  0  2 V2000
  147.0363  134.4247  161.0765 C   0  0  0  0  0  0  0  0  0  0  0  0
  147.7464  135.7780  161.2434 C   0  0  0  0  0  0  0  0  0  0  0  0
  146.9372  136.7312  162.1407 C   0  0  0  0  0  0  0  0  0  0  0  0
  148.0337  136.4078  159.8686 C   0  0  0  0  0  0  0  0  0  0  0  0
  147.5730  137.5197  159.6017 O   0  0  0  0  0  0  0  0  0  0  0  0
  148.7925  135.5997  159.0890 N   0  5  0  0  0  0  0  0  0  0  0  0
  148.9380  135.8829  157.7854 C   0  0  0  0  0  0  0  0  0  0  0  0
  150.0478  136.4301  157.2783 N   0  0  0  0  0  0  0  0  0  0  0  0
  149.9895  136.6392  155.8972 C   0  0  0  0  0  0  0  0  0  0  0  0
  151.1673  137.2326  155.1789 C   0  0  0  0  0  0  0  0  0  0  0  0
  150.7692  138.5225  154.4569 C   0  0  0  0  0  0  0  0  0  0  0  0
  149.9469  138.4107  153.4095 N   0  0  0  0  0  0  0  0  0  0  0  0
  151.2096  139.6072  154.8322 O   0  0  0  0  0  0  0  0  0  0  0  0
  148.7926  136.2571  155.3476 C   0  0  0  0  0  0  0  0  0  0  0  0
  147.7102  135.6110  156.5474 S   0  0  0  0  0  0  0  0  0  0  0  0
  147.6217  133.7437  160.4573 H   0  0  0  0  0  0  0  0  0  0  0  0
  146.0575  134.5422  160.6095 H   0  0  0  0  0  0  0  0  0  0  0  0
  146.8869  133.9414  162.0420 H   0  0  0  0  0  0  0  0  0  0  0  0
  148.6937  135.5930  161.7547 H   0  0  0  0  0  0  0  0  0  0  0  0
  147.4298  137.6997  162.2355 H   0  0  0  0  0  0  0  0  0  0  0  0
  146.8289  136.3203  163.1444 H   0  0  0  0  0  0  0  0  0  0  0  0
  145.9350  136.9032  161.7460 H   0  0  0  0  0  0  0  0  0  0  0  0
  151.9727  137.4462  155.8828 H   0  0  0  0  0  0  0  0  0  0  0  0
  151.5750  136.5307  154.4501 H   0  0  0  0  0  0  0  0  0  0  0  0
  149.6773  139.2366  152.8936 H   0  0  0  0  0  0  0  0  0  0  0  0
  149.6149  137.5011  153.1247 H   0  0  0  0  0  0  0  0  0  0  0  0
  148.4852  136.3117  154.3140 H   0  0  0  0  0  0  0  0  0  0  0  0
  1  2  1  0  0  0  0
  1 16  1  0  0  0  0
  1 17  1  0  0  0  0
  1 18  1  0  0  0  0
  2  3  1  0  0  0  0
  2  4  1  0  0  0  0
  2 19  1  0  0  0  0
  3 20  1  0  0  0  0
  3 21  1  0  0  0  0
  3 22  1  0  0  0  0
  4  5  2  0  0  0  0
  4  6  1  0  0  0  0
  6  7  1  0  0  0  0
  7 15  1  0  0  0  0
  7  8  2  0  0  0  0
  8  9  1  0  0  0  0
  9 10  1  0  0  0  0
  9 14  2  0  0  0  0
 10 11  1  0  0  0  0
 10 23  1  0  0  0  0
 10 24  1  0  0  0  0
 11 12  1  0  0  0  0
 11 13  2  0  0  0  0
 12 25  1  0  0  0  0
 12 26  1  0  0  0  0
 14 15  1  0  0  0  0
 14 27  1  0  0  0  0
M  CHG  1   6  -1
M  END
> <s_m_source_file>
AV-unprocessed.smi

> <i_m_source_file_index>
2073

> <i_lp_mmshare_version>
43012

> <i_f3d_flags>
0

> <s_epik_input>
W0NIM11bQ0hdKFtDSDNdKUMoPU8pW05IXWMxbmMoW2NIXXMxKVtDSDJdQyg9TylbTkgyXQ==

> <s_epik_cmdline>
J2VwaWtfcHl0aG9uJywgJy1waCcsICc3LjAnLCAnLXRuJywgJzgnLCAnLW1hJywgJzIwMCcsICctbWV0YWxfYmluZGluZycsICctaW1hZScsICc8aW5maWxlLm1hZT4nLCAnLW9tYWUnLCAnPG91dGZpbGUubWFlPic=

> <r_lp_tautomer_probability>
1

> <r_epik_Ionization_Penalty>
5.4698

> <r_epik_Ionization_Penalty_Charging>
4.98646

> <r_epik_Ionization_Penalty_Neutral>
0.483343

> <r_epik_State_Penalty>
4.98633

> <r_epik_Charging_Adjusted_Penalty>
9.97279

> <i_epik_Tot_Q>
-1

> <i_epik_Tot_abs_Q>
1

> <r_epik_Metal_State_Penalty>
1.11062

> <b_epik_Metal_Only>
1

> <s_lp_Force_Field>
OPLS_2005

> <r_lp_Energy>
-0.551018

> <b_lp_Chiralities_Consistent>
1

> <s_lp_Variant>
AV-unprocessed.smi:2073-2

> <Gold.Version>
5.8.1

> <Gold.Id.Protein>
6NUR|6NUR_protein|mol2

> <Gold.PLP.Fitness>
42.0979

> <Gold.PLP.PLP>
-23.8353

> <Gold.PLP.part.hbond>
-5.3857

> <Gold.PLP.part.metal>
0.0000

> <Gold.PLP.part.buried>
-4.0707

> <Gold.PLP.part.nonpolar>
-14.8375

> <Gold.PLP.part.repulsive>
0.1530

> <Gold.PLP.ligand.clash>
0.0000

> <Gold.PLP.ligand.torsion>
0.8158

> <Gold.PLP.Chemscore.Hbond>
5.6080

> <Gold.PLP.Chemscore.CHOScore>
1.0000

> <Gold.PLP.Chemscore.Metal>
0.0000

> <Gold.Chemscore.Hbonds>
donor molecule, donor type, donor heavy atom, donor atom, acceptor molecule, acceptor atom, score
      L1  H    12    25       P1  7957  0.88
      L1  H    12    26       P1  7948  1.00
      P1  H  6896  6907       L1     6  1.14
      P1  H  6934  6947       L1     5  0.74
      P1  H  7989  7998       L1    13  1.00
      L1  C    14    27       P1  7948  1.00

> <Gold.PLP.Chemscore.Internal.Correction>
0.0702

> <Gold.Rescore>
     Score         DG    S(hbond)    S(metal)    S(lipo)     H(rot)  DE(clash)    DE(int)     intcor
     17.36     -18.20       3.98        0.00      36.68       1.90       0.02       0.83       ----

> <Gold.Chemscore.Fitness>
17.3607

> <Gold.Chemscore.DG>
-18.2044

> <Gold.Chemscore.ZeroCoef>
-5.4800

> <Gold.Chemscore.Hbond>
3.9819

> <Gold.Chemscore.Metal>
0.0000

> <Gold.Chemscore.Lipo>
36.6819

> <Gold.Chemscore.Internal_Hbond>
0.0000

> <Gold.Chemscore.DEClash>
0.0174

> <Gold.Chemscore.DEInternal>
0.8263

> <Gold.Chemscore.Rot>
1.9012

> <Gold.Chemscore.Internal.Correction>
   9.000000E+99

> <Gold.Chemscore.Hbonds>
donor molecule, donor type, donor heavy atom, donor atom, acceptor molecule, acceptor atom, score
      L1  H    12    25       P1  7957  0.85
      L1  H    12    26       P1  7948  0.72
      P1  H  6896  6907       L1     6  0.22
      P1  H  6934  6947       L1     5  0.69
      P1  H  7989  7998       L1    13  0.94

> <Gold.Chemscore.Hbond.Weighted>
-13.2997

> <Gold.Chemscore.Metal.Weighted>
-0.0000

> <Gold.Chemscore.Lipo.Weighted>
-4.2918

> <Gold.Chemscore.Internal_Hbond.Weighted>
0.0000

> <Gold.Chemscore.DEClash.Weighted>
0.0174

> <Gold.Chemscore.DEInternal.Weighted>
0.8263

> <Gold.Chemscore.Rot.Weighted>
4.8671

> <Gold.Chemscore.Internal.Correction.Weighted>
   9.000000E+99

> <Gold.Protein.RotatedTorsions>
[ 6907 6896 6895 6894 ] final  -57.54 input  -60.11 | X-H torsion
[ 7974 7965 7964 7962 ] final  159.55 input  175.53 | X-H torsion
[ 8008 7997 7996 7995 ] final -159.69 input   59.86 | X-H torsion
[ 10167 10162 10161 10158 ] final -118.74 input  -65.29 | X-H torsion
[ 10718 10713 10712 10709 ] final  -23.88 input   66.30 | X-H torsion
[ 10763 10752 10751 10750 ] final -104.46 input  -60.55 | X-H torsion
[ 11005 11000 10999 10996 ] final -135.67 input  -57.11 | X-H torsion

> <Gold.Protein.ActiveResidues>
 VAL166  LYS551  ARG553  GLY616  TRP617  ASP618  TYR619  PRO620  LYS621  CYS622 
 ASP623  PHE694  ASN695  SER759  ASP760  ASP761  ALA762  ILE779  LEU786  VAL792 
 PHE793  MET794  SER795  GLU796  ALA797  LYS798  CYS799  TRP800  GLU811  SER814 

> <Gold.Protein.RotatedAtoms>
  150.8078  134.7214  159.6659 H   0  0  0  0  0  0  0  0  0  0  0  0  # atno 6907 bound_to 6896
  152.4198  134.5973  160.0000 H   0  0  0  0  0  0  0  0  0  0  0  0  # atno 6908 bound_to 6896
  151.6191  133.3303  159.3120 H   0  0  0  0  0  0  0  0  0  0  0  0  # atno 6909 bound_to 6896
  144.7784  139.7633  143.6269 H   0  0  0  0  0  0  0  0  0  0  0  0  # atno 7974 bound_to 7965
  155.7664  140.0846  157.2130 H   0  0  0  0  0  0  0  0  0  0  0  0  # atno 8008 bound_to 7997
  154.3999  140.1533  156.2948 H   0  0  0  0  0  0  0  0  0  0  0  0  # atno 8009 bound_to 7997
  155.8790  140.3421  155.5877 H   0  0  0  0  0  0  0  0  0  0  0  0  # atno 8010 bound_to 7997
  140.0542  143.5031  152.2066 H   0  0  0  0  0  0  0  0  0  0  0  0  # atno 10167 bound_to 10162
  156.4851  130.4554  149.6789 H   0  0  0  0  0  0  0  0  0  0  0  0  # atno 10718 bound_to 10713
  154.7880  135.4785  153.9988 H   0  0  0  0  0  0  0  0  0  0  0  0  # atno 10763 bound_to 10752
  153.1588  135.6805  153.8780 H   0  0  0  0  0  0  0  0  0  0  0  0  # atno 10764 bound_to 10752
  153.8400  135.3180  155.3403 H   0  0  0  0  0  0  0  0  0  0  0  0  # atno 10765 bound_to 10752
  140.8877  134.1852  157.4549 H   0  0  0  0  0  0  0  0  0  0  0  0  # atno 11005 bound_to 11000
  146.1978  139.5255  142.9763 LP  0  0  0  0  0  0  0  0  0  0  0  0  # atno 17320 bound_to 7965
  145.6119  141.0338  143.1962 LP  0  0  0  0  0  0  0  0  0  0  0  0  # atno 17321 bound_to 7965
  139.5934  144.7558  151.3345 LP  0  0  0  0  0  0  0  0  0  0  0  0  # atno 17342 bound_to 10162
  140.7202  143.7155  150.7736 LP  0  0  0  0  0  0  0  0  0  0  0  0  # atno 17343 bound_to 10162
  156.3483  130.7418  151.2374 LP  0  0  0  0  0  0  0  0  0  0  0  0  # atno 17370 bound_to 10713
  157.7479  131.0384  150.4502 LP  0  0  0  0  0  0  0  0  0  0  0  0  # atno 17371 bound_to 10713
  139.8726  134.9845  156.5241 LP  0  0  0  0  0  0  0  0  0  0  0  0  # atno 17394 bound_to 11000
  140.8385  133.8223  155.9052 LP  0  0  0  0  0  0  0  0  0  0  0  0  # atno 17395 bound_to 11000

$$$$
