AV-unprocessed.smi:1006|AV-procd|sdf|4396|dock8
  -GOLD-   22720 2333D 1   1.00000     0.00000
 Structure written by MMmdl.
 47 49  0  0  0  0  0  0  0  0  3 V2000
  150.7817  131.1575  156.1173 C   0  0  0  0  0  0  0  0  0  0  0  0
  150.1061  132.2365  155.2980 C   0  0  0  0  0  0  0  0  0  0  0  0
  149.4968  131.9615  154.0569 C   0  0  0  0  0  0  0  0  0  0  0  0
  148.9002  133.0450  153.3890 C   0  0  0  0  0  0  0  0  0  0  0  0
  148.2732  132.8682  152.1584 N   0  0  0  0  0  0  0  0  0  0  0  0
  148.9118  134.2874  153.9119 N   0  0  0  0  0  0  0  0  0  0  0  0
  149.5075  134.4797  155.0965 C   0  0  0  0  0  0  0  0  0  0  0  0
  149.5230  136.1100  155.8219 S   0  0  0  0  0  0  0  0  0  0  0  0
  150.6196  137.0366  154.7026 C   0  0  0  0  0  0  0  0  0  0  0  0
  150.4362  138.5562  154.8486 C   0  0  2  0  0  0  0  0  0  0  0  0
  150.8468  139.1878  153.6513 O   0  0  0  0  0  0  0  0  0  0  0  0
  151.2329  139.1239  156.0394 C   0  0  0  0  0  0  0  0  0  0  0  0
  150.9258  140.5364  156.3096 N   0  0  0  0  0  0  0  0  0  0  0  0
  150.2012  141.4223  155.5731 C   0  0  0  0  0  0  0  0  0  0  0  0
  150.2003  142.6089  156.2407 N   0  3  0  0  0  0  0  0  0  0  0  0
  150.9350  142.4801  157.4212 C   0  0  0  0  0  0  0  0  0  0  0  0
  151.2164  143.4025  158.4220 C   0  0  0  0  0  0  0  0  0  0  0  0
  152.0038  142.9565  159.5073 C   0  0  0  0  0  0  0  0  0  0  0  0
  152.3295  143.9395  160.6189 C   0  0  0  0  0  0  0  0  0  0  0  0
  152.4826  141.6218  159.5618 C   0  0  0  0  0  0  0  0  0  0  0  0
  153.3318  141.1539  160.7314 C   0  0  0  0  0  0  0  0  0  0  0  0
  152.1844  140.6989  158.5339 C   0  0  0  0  0  0  0  0  0  0  0  0
  151.4052  141.1531  157.4721 C   0  0  0  0  0  0  0  0  0  0  0  0
  150.0955  133.4985  155.7959 N   0  3  0  0  0  0  0  0  0  0  0  0
  150.9574  130.2634  155.5182 H   0  0  0  0  0  0  0  0  0  0  0  0
  150.1570  130.8822  156.9673 H   0  0  0  0  0  0  0  0  0  0  0  0
  151.7439  131.5062  156.4941 H   0  0  0  0  0  0  0  0  0  0  0  0
  149.4883  130.9646  153.6399 H   0  0  0  0  0  0  0  0  0  0  0  0
  148.2280  131.9638  151.7114 H   0  0  0  0  0  0  0  0  0  0  0  0
  147.8163  133.6345  151.6849 H   0  0  0  0  0  0  0  0  0  0  0  0
  151.6493  136.7654  154.9377 H   0  0  0  0  0  0  0  0  0  0  0  0
  150.4340  136.7334  153.6713 H   0  0  0  0  0  0  0  0  0  0  0  0
  149.3780  138.7752  154.9980 H   0  0  0  0  0  0  0  0  0  0  0  0
  150.2552  138.9337  152.9591 H   0  0  0  0  0  0  0  0  0  0  0  0
  150.9894  138.5677  156.9455 H   0  0  0  0  0  0  0  0  0  0  0  0
  152.3066  139.0075  155.8916 H   0  0  0  0  0  0  0  0  0  0  0  0
  149.7147  141.2212  154.6295 H   0  0  0  0  0  0  0  0  0  0  0  0
  150.8502  144.4176  158.3725 H   0  0  0  0  0  0  0  0  0  0  0  0
  151.9191  143.5929  161.5676 H   0  0  0  0  0  0  0  0  0  0  0  0
  151.9106  144.9254  160.4149 H   0  0  0  0  0  0  0  0  0  0  0  0
  153.4082  144.0527  160.7280 H   0  0  0  0  0  0  0  0  0  0  0  0
  153.6041  140.1029  160.6316 H   0  0  0  0  0  0  0  0  0  0  0  0
  152.7893  141.2695  161.6702 H   0  0  0  0  0  0  0  0  0  0  0  0
  154.2540  141.7322  160.7901 H   0  0  0  0  0  0  0  0  0  0  0  0
  152.5551  139.6857  158.5741 H   0  0  0  0  0  0  0  0  0  0  0  0
  150.5347  133.6916  156.6962 H   0  0  0  0  0  0  0  0  0  0  0  0
  149.7326  143.4440  155.9120 H   0  0  0  0  0  0  0  0  0  0  0  0
  1  2  1  0  0  0  0
  1 25  1  0  0  0  0
  1 26  1  0  0  0  0
  1 27  1  0  0  0  0
  2 24  1  0  0  0  0
  2  3  2  0  0  0  0
  3  4  1  0  0  0  0
  3 28  1  0  0  0  0
  4  5  1  0  0  0  0
  4  6  2  0  0  0  0
  5 29  1  0  0  0  0
  5 30  1  0  0  0  0
  6  7  1  0  0  0  0
  7  8  1  0  0  0  0
  7 24  2  0  0  0  0
  8  9  1  0  0  0  0
  9 10  1  0  0  0  0
  9 31  1  0  0  0  0
  9 32  1  0  0  0  0
 10 11  1  0  0  0  0
 10 12  1  0  0  0  0
 10 33  1  0  0  0  0
 11 34  1  0  0  0  0
 12 13  1  0  0  0  0
 12 35  1  0  0  0  0
 12 36  1  0  0  0  0
 13 23  1  0  0  0  0
 13 14  1  0  0  0  0
 14 15  2  0  0  0  0
 14 37  1  0  0  0  0
 15 16  1  0  0  0  0
 15 47  1  0  0  0  0
 16 23  2  0  0  0  0
 16 17  1  0  0  0  0
 17 18  2  0  0  0  0
 17 38  1  0  0  0  0
 18 19  1  0  0  0  0
 18 20  1  0  0  0  0
 19 39  1  0  0  0  0
 19 40  1  0  0  0  0
 19 41  1  0  0  0  0
 20 21  1  0  0  0  0
 20 22  2  0  0  0  0
 21 42  1  0  0  0  0
 21 43  1  0  0  0  0
 21 44  1  0  0  0  0
 22 23  1  0  0  0  0
 22 45  1  0  0  0  0
 24 46  1  0  0  0  0
M  CHG  1  15   1
M  CHG  1  24   1
M  END
> <s_m_source_file>
AV-unprocessed.smi

> <i_m_source_file_index>
1006

> <i_lp_mmshare_version>
43012

> <i_f3d_flags>
0

> <s_epik_input>
W0NIM11jMVtjSF1jKFtOSDJdKW5jKG4xKVNbQ0gyXVtDQEhdKFtPSF0pW0NIMl1uKFtjSF1uMiljKGMyMylbY0hdYyhbQ0gzXSljKFtjSF0zKVtDSDNd

> <s_epik_cmdline>
J2VwaWtfcHl0aG9uJywgJy1waCcsICc3LjAnLCAnLXRuJywgJzgnLCAnLW1hJywgJzIwMCcsICctbWV0YWxfYmluZGluZycsICctaW1hZScsICc8aW5maWxlLm1hZT4nLCAnLW9tYWUnLCAnPG91dGZpbGUubWFlPic=

> <r_lp_tautomer_probability>
0.999762

> <r_epik_Ionization_Penalty>
1.50932

> <r_epik_Ionization_Penalty_Charging>
1.50929

> <r_epik_Ionization_Penalty_Neutral>
3.48853e-05

> <r_epik_State_Penalty>
1.56619

> <r_epik_Charging_Adjusted_Penalty>
3.07548

> <i_epik_Tot_Q>
2

> <i_epik_Tot_abs_Q>
2

> <r_epik_Metal_State_Penalty>
1.82892

> <b_epik_Metal_Only>
0

> <s_lp_Force_Field>
OPLS_2005

> <r_lp_Energy>
18.0663

> <b_lp_Chiralities_Consistent>
1

> <s_lp_Variant>
AV-unprocessed.smi:1006-7

> <Gold.Version>
5.8.1

> <Gold.Id.Protein>
6NUR|6NUR_protein|mol2

> <Gold.PLP.Fitness>
58.7425

> <Gold.PLP.PLP>
-47.4662

> <Gold.PLP.part.hbond>
-4.0000

> <Gold.PLP.part.metal>
0.0000

> <Gold.PLP.part.buried>
-4.1083

> <Gold.PLP.part.nonpolar>
-40.5982

> <Gold.PLP.part.repulsive>
1.8817

> <Gold.PLP.ligand.clash>
0.0000

> <Gold.PLP.ligand.torsion>
0.5019

> <Gold.PLP.Chemscore.Hbond>
4.0860

> <Gold.PLP.Chemscore.CHOScore>
0.0000

> <Gold.PLP.Chemscore.Metal>
0.0000

> <Gold.Chemscore.Hbonds>
donor molecule, donor type, donor heavy atom, donor atom, acceptor molecule, acceptor atom, score
      L1  H     5    29       P1 10747  0.88
      L1  H    11    34       P1  7957  0.37
      L1  H    15    47       P1  8028  2.00
      P1  H  7989  7998       L1    11  0.93

> <Gold.PLP.Chemscore.Internal.Correction>
0.0220

> <Gold.Rescore>
     Score         DG    S(hbond)    S(metal)    S(lipo)     H(rot)  DE(clash)    DE(int)     intcor
     18.79     -20.76       2.93        0.00     111.65       2.96       1.45       0.51       ----

> <Gold.Chemscore.Fitness>
18.7939

> <Gold.Chemscore.DG>
-20.7613

> <Gold.Chemscore.ZeroCoef>
-5.4800

> <Gold.Chemscore.Hbond>
2.9328

> <Gold.Chemscore.Metal>
0.0000

> <Gold.Chemscore.Lipo>
111.6487

> <Gold.Chemscore.Internal_Hbond>
0.0000

> <Gold.Chemscore.DEClash>
1.4532

> <Gold.Chemscore.DEInternal>
0.5142

> <Gold.Chemscore.Rot>
2.9599

> <Gold.Chemscore.Internal.Correction>
   9.000000E+99

> <Gold.Chemscore.Hbonds>
donor molecule, donor type, donor heavy atom, donor atom, acceptor molecule, acceptor atom, score
      L1  H     5    29       P1 10747  0.86
      L1  H    11    34       P1  7957  0.24
      L1  H    15    47       P1  8028  0.95
      P1  H  7989  7998       L1    11  0.83

> <Gold.Chemscore.Hbond.Weighted>
-9.7956

> <Gold.Chemscore.Metal.Weighted>
-0.0000

> <Gold.Chemscore.Lipo.Weighted>
-13.0629

> <Gold.Chemscore.Internal_Hbond.Weighted>
0.0000

> <Gold.Chemscore.DEClash.Weighted>
1.4532

> <Gold.Chemscore.DEInternal.Weighted>
0.5142

> <Gold.Chemscore.Rot.Weighted>
7.5772

> <Gold.Chemscore.Internal.Correction.Weighted>
   9.000000E+99

> <Gold.Protein.RotatedTorsions>
[ 6907 6896 6895 6894 ] final  -82.32 input  -60.11 | X-H torsion
[ 7974 7965 7964 7962 ] final   57.56 input  175.53 | X-H torsion
[ 8008 7997 7996 7995 ] final  -48.89 input   59.86 | X-H torsion
[ 10167 10162 10161 10158 ] final  -91.47 input  -65.29 | X-H torsion
[ 10718 10713 10712 10709 ] final  168.29 input   66.30 | X-H torsion
[ 10763 10752 10751 10750 ] final  -79.42 input  -60.55 | X-H torsion
[ 11005 11000 10999 10996 ] final  -40.35 input  -57.11 | X-H torsion

> <Gold.Protein.ActiveResidues>
 VAL166  LYS551  ARG553  GLY616  TRP617  ASP618  TYR619  PRO620  LYS621  CYS622 
 ASP623  PHE694  ASN695  SER759  ASP760  ASP761  ALA762  ILE779  LEU786  VAL792 
 PHE793  MET794  SER795  GLU796  ALA797  LYS798  CYS799  TRP800  GLU811  SER814 

> <Gold.Protein.RotatedAtoms>
  150.6899  134.3682  159.4980 H   0  0  0  0  0  0  0  0  0  0  0  0  # atno 6907 bound_to 6896
  152.1502  134.8992  160.0557 H   0  0  0  0  0  0  0  0  0  0  0  0  # atno 6908 bound_to 6896
  152.0092  133.3820  159.4250 H   0  0  0  0  0  0  0  0  0  0  0  0  # atno 6909 bound_to 6896
  145.9277  139.3782  143.0440 H   0  0  0  0  0  0  0  0  0  0  0  0  # atno 7974 bound_to 7965
  154.4035  140.1310  156.4412 H   0  0  0  0  0  0  0  0  0  0  0  0  # atno 8008 bound_to 7997
  155.7457  140.3489  155.5105 H   0  0  0  0  0  0  0  0  0  0  0  0  # atno 8009 bound_to 7997
  155.8997  140.1017  157.1349 H   0  0  0  0  0  0  0  0  0  0  0  0  # atno 8010 bound_to 7997
  140.3446  143.2924  151.9796 H   0  0  0  0  0  0  0  0  0  0  0  0  # atno 10167 bound_to 10162
  157.0392  131.0281  151.2719 H   0  0  0  0  0  0  0  0  0  0  0  0  # atno 10718 bound_to 10713
  154.5385  135.5696  153.6819 H   0  0  0  0  0  0  0  0  0  0  0  0  # atno 10763 bound_to 10752
  152.9957  135.6222  154.2534 H   0  0  0  0  0  0  0  0  0  0  0  0  # atno 10764 bound_to 10752
  154.2464  135.2860  155.2813 H   0  0  0  0  0  0  0  0  0  0  0  0  # atno 10765 bound_to 10752
  141.0168  133.6881  156.2310 H   0  0  0  0  0  0  0  0  0  0  0  0  # atno 11005 bound_to 11000
  145.8467  140.9551  143.0771 LP  0  0  0  0  0  0  0  0  0  0  0  0  # atno 17320 bound_to 7965
  144.6761  140.0354  143.7482 LP  0  0  0  0  0  0  0  0  0  0  0  0  # atno 17321 bound_to 7965
  139.4835  144.6128  151.7402 LP  0  0  0  0  0  0  0  0  0  0  0  0  # atno 17342 bound_to 10162
  140.5277  144.0780  150.6043 LP  0  0  0  0  0  0  0  0  0  0  0  0  # atno 17343 bound_to 10162
  157.5118  130.7943  149.7713 LP  0  0  0  0  0  0  0  0  0  0  0  0  # atno 17370 bound_to 10713
  156.0044  130.3863  150.2486 LP  0  0  0  0  0  0  0  0  0  0  0  0  # atno 17371 bound_to 10713
  140.6640  134.4937  157.5584 LP  0  0  0  0  0  0  0  0  0  0  0  0  # atno 17394 bound_to 11000
  139.9122  134.8321  156.1489 LP  0  0  0  0  0  0  0  0  0  0  0  0  # atno 17395 bound_to 11000

$$$$
