AV-unprocessed.smi:809|AV-procd|sdf|3805|dock10
  -GOLD-   22720 1243D 1   1.00000     0.00000
 Structure written by MMmdl.
 40 41  0  0  0  0  0  0  0  0  2 V2000
  151.9999  144.5748  159.7709 C   0  0  0  0  0  0  0  0  0  0  0  0
  151.6304  143.4091  158.9084 C   0  0  0  0  0  0  0  0  0  0  0  0
  152.3233  142.2312  158.7695 C   0  0  0  0  0  0  0  0  0  0  0  0
  151.5368  141.1362  157.6642 S   0  0  0  0  0  0  0  0  0  0  0  0
  150.2791  142.3397  157.4289 C   0  0  0  0  0  0  0  0  0  0  0  0
  149.1748  142.1118  156.5669 N   0  0  0  0  0  0  0  0  0  0  0  0
  149.1029  141.2838  155.5103 C   0  0  0  0  0  0  0  0  0  0  0  0
  150.0049  140.5389  155.1267 O   0  0  0  0  0  0  0  0  0  0  0  0
  147.9072  141.3689  154.9102 N   0  0  0  0  0  0  0  0  0  0  0  0
  147.5095  140.6275  153.7159 C   0  0  0  0  0  0  0  0  0  0  0  0
  146.8684  139.2486  154.0240 C   0  0  1  0  0  0  0  0  0  0  0  0
  145.7090  139.4911  154.8007 O   0  0  0  0  0  0  0  0  0  0  0  0
  146.4055  138.5820  152.7093 C   0  0  0  0  0  0  0  0  0  0  0  0
  145.8513  137.1614  152.9211 C   0  0  0  0  0  0  0  0  0  0  0  0
  146.8390  136.3046  153.6197 N   0  3  2  0  0  0  0  0  0  0  0  0
  146.3926  134.8985  153.7203 C   0  0  0  0  0  0  0  0  0  0  0  0
  147.2251  136.8706  154.9348 C   0  0  0  0  0  0  0  0  0  0  0  0
  147.8132  138.2858  154.7828 C   0  0  0  0  0  0  0  0  0  0  0  0
  150.4645  143.4585  158.1388 N   0  0  0  0  0  0  0  0  0  0  0  0
  153.0072  144.4690  160.1743 H   0  0  0  0  0  0  0  0  0  0  0  0
  151.3151  144.6714  160.6135 H   0  0  0  0  0  0  0  0  0  0  0  0
  151.9674  145.5083  159.2086 H   0  0  0  0  0  0  0  0  0  0  0  0
  153.2456  141.9413  159.2505 H   0  0  0  0  0  0  0  0  0  0  0  0
  148.3472  142.6516  156.7725 H   0  0  0  0  0  0  0  0  0  0  0  0
  147.2241  142.0013  155.3006 H   0  0  0  0  0  0  0  0  0  0  0  0
  146.8624  141.2308  153.0762 H   0  0  0  0  0  0  0  0  0  0  0  0
  148.4269  140.4770  153.1461 H   0  0  0  0  0  0  0  0  0  0  0  0
  144.9435  139.3503  154.2657 H   0  0  0  0  0  0  0  0  0  0  0  0
  145.6557  139.2007  152.2135 H   0  0  0  0  0  0  0  0  0  0  0  0
  147.2482  138.5217  152.0190 H   0  0  0  0  0  0  0  0  0  0  0  0
  144.9226  137.1941  153.4931 H   0  0  0  0  0  0  0  0  0  0  0  0
  145.6082  136.7213  151.9532 H   0  0  0  0  0  0  0  0  0  0  0  0
  145.4892  134.8162  154.3262 H   0  0  0  0  0  0  0  0  0  0  0  0
  147.1672  134.2795  154.1743 H   0  0  0  0  0  0  0  0  0  0  0  0
  146.1798  134.4905  152.7318 H   0  0  0  0  0  0  0  0  0  0  0  0
  146.3563  136.8896  155.5948 H   0  0  0  0  0  0  0  0  0  0  0  0
  147.9638  136.2225  155.4076 H   0  0  0  0  0  0  0  0  0  0  0  0
  148.7611  138.2178  154.2469 H   0  0  0  0  0  0  0  0  0  0  0  0
  148.0504  138.6783  155.7724 H   0  0  0  0  0  0  0  0  0  0  0  0
  147.6732  136.2999  153.0499 H   0  0  0  0  0  0  0  0  0  0  0  0
  1  2  1  0  0  0  0
  1 20  1  0  0  0  0
  1 21  1  0  0  0  0
  1 22  1  0  0  0  0
  2 19  1  0  0  0  0
  2  3  2  0  0  0  0
  3  4  1  0  0  0  0
  3 23  1  0  0  0  0
  4  5  1  0  0  0  0
  5  6  1  0  0  0  0
  5 19  2  0  0  0  0
  6  7  1  0  0  0  0
  6 24  1  0  0  0  0
  7  8  2  0  0  0  0
  7  9  1  0  0  0  0
  9 10  1  0  0  0  0
  9 25  1  0  0  0  0
 10 11  1  0  0  0  0
 10 26  1  0  0  0  0
 10 27  1  0  0  0  0
 11 18  1  0  0  0  0
 11 12  1  0  0  0  0
 11 13  1  0  0  0  0
 12 28  1  0  0  0  0
 13 14  1  0  0  0  0
 13 29  1  0  0  0  0
 13 30  1  0  0  0  0
 14 15  1  0  0  0  0
 14 31  1  0  0  0  0
 14 32  1  0  0  0  0
 15 16  1  0  0  0  0
 15 17  1  0  0  0  0
 15 40  1  0  0  0  0
 16 33  1  0  0  0  0
 16 34  1  0  0  0  0
 16 35  1  0  0  0  0
 17 18  1  0  0  0  0
 17 36  1  0  0  0  0
 17 37  1  0  0  0  0
 18 38  1  0  0  0  0
 18 39  1  0  0  0  0
M  CHG  1  15   1
M  END
> <s_m_source_file>
AV-unprocessed.smi

> <i_m_source_file_index>
809

> <i_lp_mmshare_version>
43012

> <i_f3d_flags>
0

> <s_epik_input>
W0NIM11jMVtjSF1zYyhuMSlbTkhdQyg9TylbTkhdW0NIMl1DMihbT0hdKVtDSDJdW0NIMl1OKFtDSDNdKVtDSDJdW0NIMl0y

> <s_epik_cmdline>
J2VwaWtfcHl0aG9uJywgJy1waCcsICc3LjAnLCAnLXRuJywgJzgnLCAnLW1hJywgJzIwMCcsICctbWV0YWxfYmluZGluZycsICctaW1hZScsICc8aW5maWxlLm1hZT4nLCAnLW9tYWUnLCAnPG91dGZpbGUubWFlPic=

> <r_lp_tautomer_probability>
0.999

> <r_epik_Ionization_Penalty>
0.00116503

> <r_epik_Ionization_Penalty_Charging>
0.000767707

> <r_epik_Ionization_Penalty_Neutral>
0.00039732

> <r_epik_State_Penalty>
0.000177984

> <r_epik_Charging_Adjusted_Penalty>
0.00094569

> <i_epik_Tot_Q>
1

> <i_epik_Tot_abs_Q>
1

> <r_epik_Metal_State_Penalty>
0.00775393

> <b_epik_Metal_Only>
0

> <s_lp_Force_Field>
OPLS_2005

> <r_lp_Energy>
16.8218

> <b_lp_Chiralities_Consistent>
1

> <s_lp_Variant>
AV-unprocessed.smi:809-1

> <Gold.Version>
5.8.1

> <Gold.Id.Protein>
6NUR|6NUR_protein|mol2

> <Gold.PLP.Fitness>
45.7966

> <Gold.PLP.PLP>
-32.5622

> <Gold.PLP.part.hbond>
-4.0000

> <Gold.PLP.part.metal>
0.0000

> <Gold.PLP.part.buried>
-1.7042

> <Gold.PLP.part.nonpolar>
-27.7575

> <Gold.PLP.part.repulsive>
0.5228

> <Gold.PLP.ligand.clash>
0.0000

> <Gold.PLP.ligand.torsion>
0.3210

> <Gold.PLP.Chemscore.Hbond>
4.6240

> <Gold.PLP.Chemscore.CHOScore>
0.0000

> <Gold.PLP.Chemscore.Metal>
0.0000

> <Gold.Chemscore.Hbonds>
donor molecule, donor type, donor heavy atom, donor atom, acceptor molecule, acceptor atom, score
      L1  H    15    40       P1  7948  2.00
      P1  H  7989  7998       L1     8  0.25

> <Gold.PLP.Chemscore.Internal.Correction>
0.0045

> <Gold.Rescore>
     Score         DG    S(hbond)    S(metal)    S(lipo)     H(rot)  DE(clash)    DE(int)     intcor
     18.81     -22.09       3.56        0.00      80.68       1.85       1.90       1.38       ----

> <Gold.Chemscore.Fitness>
18.8137

> <Gold.Chemscore.DG>
-22.0915

> <Gold.Chemscore.ZeroCoef>
-5.4800

> <Gold.Chemscore.Hbond>
3.5630

> <Gold.Chemscore.Metal>
0.0000

> <Gold.Chemscore.Lipo>
80.6803

> <Gold.Chemscore.Internal_Hbond>
0.0000

> <Gold.Chemscore.DEClash>
1.8955

> <Gold.Chemscore.DEInternal>
1.3823

> <Gold.Chemscore.Rot>
1.8471

> <Gold.Chemscore.Internal.Correction>
   9.000000E+99

> <Gold.Chemscore.Hbonds>
donor molecule, donor type, donor heavy atom, donor atom, acceptor molecule, acceptor atom, score
      L1  H     6    24       P1  8028  0.01
      L1  H    12    28       P1 10175  0.03
      L1  H    15    40       P1  7948  1.00
      P1  H  7989  7998       L1     8  0.26

> <Gold.Chemscore.Hbond.Weighted>
-11.9005

> <Gold.Chemscore.Metal.Weighted>
-0.0000

> <Gold.Chemscore.Lipo.Weighted>
-9.4396

> <Gold.Chemscore.Internal_Hbond.Weighted>
0.0000

> <Gold.Chemscore.DEClash.Weighted>
1.8955

> <Gold.Chemscore.DEInternal.Weighted>
1.3823

> <Gold.Chemscore.Rot.Weighted>
4.7286

> <Gold.Chemscore.Internal.Correction.Weighted>
   9.000000E+99

> <Gold.Protein.RotatedTorsions>
[ 6907 6896 6895 6894 ] final  -96.23 input  -60.11 | X-H torsion
[ 7974 7965 7964 7962 ] final -170.76 input  175.53 | X-H torsion
[ 8008 7997 7996 7995 ] final   -9.48 input   59.86 | X-H torsion
[ 10167 10162 10161 10158 ] final -172.36 input  -65.29 | X-H torsion
[ 10718 10713 10712 10709 ] final -149.10 input   66.30 | X-H torsion
[ 10763 10752 10751 10750 ] final -159.23 input  -60.55 | X-H torsion
[ 11005 11000 10999 10996 ] final -135.34 input  -57.11 | X-H torsion

> <Gold.Protein.ActiveResidues>
 VAL166  LYS551  ARG553  GLY616  TRP617  ASP618  TYR619  PRO620  LYS621  CYS622 
 ASP623  PHE694  ASN695  SER759  ASP760  ASP761  ALA762  ILE779  LEU786  VAL792 
 PHE793  MET794  SER795  GLU796  ALA797  LYS798  CYS799  TRP800  GLU811  SER814 

> <Gold.Protein.RotatedAtoms>
  150.6983  134.1535  159.4149 H   0  0  0  0  0  0  0  0  0  0  0  0  # atno 6907 bound_to 6896
  151.9517  135.0163  160.0551 H   0  0  0  0  0  0  0  0  0  0  0  0  # atno 6908 bound_to 6896
  152.2004  133.4802  159.5092 H   0  0  0  0  0  0  0  0  0  0  0  0  # atno 6909 bound_to 6896
  144.7166  140.2024  143.6337 H   0  0  0  0  0  0  0  0  0  0  0  0  # atno 7974 bound_to 7965
  154.5643  140.2354  155.8288 H   0  0  0  0  0  0  0  0  0  0  0  0  # atno 8008 bound_to 7997
  156.2055  140.3041  155.9577 H   0  0  0  0  0  0  0  0  0  0  0  0  # atno 8009 bound_to 7997
  155.2831  140.0423  157.3007 H   0  0  0  0  0  0  0  0  0  0  0  0  # atno 8010 bound_to 7997
  139.5749  144.1555  152.1436 H   0  0  0  0  0  0  0  0  0  0  0  0  # atno 10167 bound_to 10162
  156.4287  130.8065  151.2291 H   0  0  0  0  0  0  0  0  0  0  0  0  # atno 10718 bound_to 10713
  154.7492  135.3088  154.8589 H   0  0  0  0  0  0  0  0  0  0  0  0  # atno 10763 bound_to 10752
  153.9381  135.6778  153.4749 H   0  0  0  0  0  0  0  0  0  0  0  0  # atno 10764 bound_to 10752
  153.1088  135.4876  154.8926 H   0  0  0  0  0  0  0  0  0  0  0  0  # atno 10765 bound_to 10752
  140.8907  134.1816  157.4530 H   0  0  0  0  0  0  0  0  0  0  0  0  # atno 11005 bound_to 11000
  145.8668  139.2251  143.1684 LP  0  0  0  0  0  0  0  0  0  0  0  0  # atno 17320 bound_to 7965
  146.0122  140.8425  142.9965 LP  0  0  0  0  0  0  0  0  0  0  0  0  # atno 17321 bound_to 7965
  140.1096  144.5468  150.6934 LP  0  0  0  0  0  0  0  0  0  0  0  0  # atno 17342 bound_to 10162
  140.7032  143.2449  151.4803 LP  0  0  0  0  0  0  0  0  0  0  0  0  # atno 17343 bound_to 10162
  157.7508  131.0205  150.3711 LP  0  0  0  0  0  0  0  0  0  0  0  0  # atno 17370 bound_to 10713
  156.4044  130.3922  149.6936 LP  0  0  0  0  0  0  0  0  0  0  0  0  # atno 17371 bound_to 10713
  139.8729  134.9857  156.5293 LP  0  0  0  0  0  0  0  0  0  0  0  0  # atno 17394 bound_to 11000
  140.8351  133.8249  155.9021 LP  0  0  0  0  0  0  0  0  0  0  0  0  # atno 17395 bound_to 11000

$$$$
