AV-unprocessed.smi:790|AV-procd|sdf|3740|dock3
  -GOLD-   22720 1173D 1   1.00000     0.00000
 Structure written by MMmdl.
 38 40  0  0  0  0  0  0  0  0  1 V2000
  150.7267  140.7593  156.4271 O   0  0  0  0  0  0  0  0  0  0  0  0
  150.2746  141.8887  156.2394 C   0  0  0  0  0  0  0  0  0  0  0  0
  150.5594  142.9742  156.9787 N   0  0  0  0  0  0  0  0  0  0  0  0
  151.3970  143.0678  158.1224 C   0  0  0  0  0  0  0  0  0  0  0  0
  152.1448  141.9880  158.6511 C   0  0  0  0  0  0  0  0  0  0  0  0
  152.9266  142.2028  159.8025 C   0  0  0  0  0  0  0  0  0  0  0  0
  152.9264  143.4846  160.3866 C   0  0  0  0  0  0  0  0  0  0  0  0
  152.2065  144.5183  159.9022 N   0  0  0  0  0  0  0  0  0  0  0  0
  151.4583  144.3045  158.7988 C   0  0  0  0  0  0  0  0  0  0  0  0
  149.4403  142.1931  155.2366 N   0  0  0  0  0  0  0  0  0  0  0  0
  148.9615  141.2472  154.2310 C   0  0  2  0  0  0  0  0  0  0  0  0
  147.5206  141.5455  153.7451 C   0  0  2  0  0  0  0  0  0  0  0  0
  146.5445  141.7077  154.9302 C   0  0  0  0  0  0  0  0  0  0  0  0
  146.4481  140.2741  155.4848 C   0  0  0  0  0  0  0  0  0  0  0  0
  147.3527  139.4758  154.5257 C   0  0  1  0  0  0  0  0  0  0  0  0
  147.0941  140.1875  153.2026 C   0  0  0  0  0  0  0  0  0  0  0  0
  148.8346  139.8169  154.8156 C   0  0  1  0  0  0  0  0  0  0  0  0
  149.8334  138.8278  154.1840 C   0  0  0  0  0  0  0  0  0  0  0  0
  151.1546  139.1625  154.5521 O   0  0  0  0  0  0  0  0  0  0  0  0
  150.1800  143.8491  156.6475 H   0  0  0  0  0  0  0  0  0  0  0  0
  152.1231  141.0041  158.2089 H   0  0  0  0  0  0  0  0  0  0  0  0
  153.5104  141.4014  160.2306 H   0  0  0  0  0  0  0  0  0  0  0  0
  153.5151  143.6831  161.2700 H   0  0  0  0  0  0  0  0  0  0  0  0
  150.8937  145.1533  158.4412 H   0  0  0  0  0  0  0  0  0  0  0  0
  149.1215  143.1472  155.1524 H   0  0  0  0  0  0  0  0  0  0  0  0
  149.6405  141.2445  153.3754 H   0  0  0  0  0  0  0  0  0  0  0  0
  147.4653  142.3613  153.0238 H   0  0  0  0  0  0  0  0  0  0  0  0
  146.8781  142.4276  155.6774 H   0  0  0  0  0  0  0  0  0  0  0  0
  145.5684  142.0407  154.5750 H   0  0  0  0  0  0  0  0  0  0  0  0
  146.7779  140.2043  156.5219 H   0  0  0  0  0  0  0  0  0  0  0  0
  145.4192  139.9155  155.4380 H   0  0  0  0  0  0  0  0  0  0  0  0
  147.1350  138.4075  154.5223 H   0  0  0  0  0  0  0  0  0  0  0  0
  146.0486  140.1532  152.8906 H   0  0  0  0  0  0  0  0  0  0  0  0
  147.7188  139.8324  152.3818 H   0  0  0  0  0  0  0  0  0  0  0  0
  149.0054  139.8240  155.8940 H   0  0  0  0  0  0  0  0  0  0  0  0
  149.6246  137.8005  154.4829 H   0  0  0  0  0  0  0  0  0  0  0  0
  149.7624  138.8664  153.0966 H   0  0  0  0  0  0  0  0  0  0  0  0
  151.4273  138.5871  155.2503 H   0  0  0  0  0  0  0  0  0  0  0  0
  1  2  2  0  0  0  0
  2  3  1  0  0  0  0
  2 10  1  0  0  0  0
  3  4  1  0  0  0  0
  3 20  1  0  0  0  0
  4  9  1  0  0  0  0
  4  5  2  0  0  0  0
  5  6  1  0  0  0  0
  5 21  1  0  0  0  0
  6  7  2  0  0  0  0
  6 22  1  0  0  0  0
  7  8  1  0  0  0  0
  7 23  1  0  0  0  0
  8  9  2  0  0  0  0
  9 24  1  0  0  0  0
 10 11  1  0  0  0  0
 10 25  1  0  0  0  0
 11 17  1  0  0  0  0
 11 12  1  0  0  0  0
 11 26  1  0  0  0  0
 12 16  1  0  0  0  0
 12 13  1  0  0  0  0
 12 27  1  0  0  0  0
 13 14  1  0  0  0  0
 13 28  1  0  0  0  0
 13 29  1  0  0  0  0
 14 15  1  0  0  0  0
 14 30  1  0  0  0  0
 14 31  1  0  0  0  0
 15 16  1  0  0  0  0
 15 17  1  0  0  0  0
 15 32  1  0  0  0  0
 16 33  1  0  0  0  0
 16 34  1  0  0  0  0
 17 18  1  0  0  0  0
 17 35  1  0  0  0  0
 18 19  1  0  0  0  0
 18 36  1  0  0  0  0
 18 37  1  0  0  0  0
 19 38  1  0  0  0  0
M  END
> <s_m_source_file>
AV-unprocessed.smi

> <i_m_source_file_index>
790

> <i_lp_mmshare_version>
43012

> <i_f3d_flags>
0

> <s_epik_input>
W0NIMl0xW0NIMl1bQ0BASF0oW0NIMl0yKVtDQEBIXShbQ0gyXVtPSF0pW0NAQEhdKFtDQEhdMTIpW05IXUMoPU8pW05IXWMzW2NIXVtjSF1bY0hdbltjSF0z

> <s_epik_cmdline>
J2VwaWtfcHl0aG9uJywgJy1waCcsICc3LjAnLCAnLXRuJywgJzgnLCAnLW1hJywgJzIwMCcsICctbWV0YWxfYmluZGluZycsICctaW1hZScsICc8aW5maWxlLm1hZT4nLCAnLW9tYWUnLCAnPG91dGZpbGUubWFlPic=

> <r_epik_Ionization_Penalty>
0.00497582

> <r_epik_Ionization_Penalty_Charging>
0

> <r_epik_Ionization_Penalty_Neutral>
0.00497582

> <r_epik_State_Penalty>
0.00358602

> <r_epik_Charging_Adjusted_Penalty>
0.00358602

> <i_epik_Tot_Q>
0

> <i_epik_Tot_abs_Q>
0

> <r_epik_Metal_State_Penalty>
-0

> <b_epik_Metal_Only>
0

> <s_lp_Force_Field>
OPLS_2005

> <r_lp_Energy>
50.978

> <b_lp_Chiralities_Consistent>
1

> <s_lp_Variant>
AV-unprocessed.smi:790-1

> <Gold.Version>
5.8.1

> <Gold.Id.Protein>
6NUR|6NUR_protein|mol2

> <Gold.PLP.Fitness>
42.9117

> <Gold.PLP.PLP>
-37.9975

> <Gold.PLP.part.hbond>
-3.0000

> <Gold.PLP.part.metal>
0.0000

> <Gold.PLP.part.buried>
-4.9388

> <Gold.PLP.part.nonpolar>
-30.3268

> <Gold.PLP.part.repulsive>
0.2982

> <Gold.PLP.ligand.clash>
3.3018

> <Gold.PLP.ligand.torsion>
0.3891

> <Gold.PLP.Chemscore.Hbond>
2.9920

> <Gold.PLP.Chemscore.CHOScore>
0.0000

> <Gold.PLP.Chemscore.Metal>
0.0000

> <Gold.Chemscore.Hbonds>
donor molecule, donor type, donor heavy atom, donor atom, acceptor molecule, acceptor atom, score
      L1  H     3    20       P1  8028  0.99
      L1  H    10    25       P1  8028  1.00
      P1  H  7989  7998       L1    19  0.94

> <Gold.PLP.Chemscore.Internal.Correction>
0.0183

> <Gold.Rescore>
     Score         DG    S(hbond)    S(metal)    S(lipo)     H(rot)  DE(clash)    DE(int)     intcor
     17.49     -20.72       2.69        0.00      92.48       1.78       0.00       3.22       ----

> <Gold.Chemscore.Fitness>
17.4919

> <Gold.Chemscore.DG>
-20.7192

> <Gold.Chemscore.ZeroCoef>
-5.4800

> <Gold.Chemscore.Hbond>
2.6861

> <Gold.Chemscore.Metal>
0.0000

> <Gold.Chemscore.Lipo>
92.4794

> <Gold.Chemscore.Internal_Hbond>
0.0000

> <Gold.Chemscore.DEClash>
0.0029

> <Gold.Chemscore.DEInternal>
3.2244

> <Gold.Chemscore.Rot>
1.7783

> <Gold.Chemscore.Internal.Correction>
   9.000000E+99

> <Gold.Chemscore.Hbonds>
donor molecule, donor type, donor heavy atom, donor atom, acceptor molecule, acceptor atom, score
      L1  H     3    20       P1  8028  0.93
      L1  H    10    25       P1  8028  0.99
      P1  H  7989  7998       L1    19  0.50

> <Gold.Chemscore.Hbond.Weighted>
-8.9716

> <Gold.Chemscore.Metal.Weighted>
-0.0000

> <Gold.Chemscore.Lipo.Weighted>
-10.8201

> <Gold.Chemscore.Internal_Hbond.Weighted>
0.0000

> <Gold.Chemscore.DEClash.Weighted>
0.0029

> <Gold.Chemscore.DEInternal.Weighted>
3.2244

> <Gold.Chemscore.Rot.Weighted>
4.5525

> <Gold.Chemscore.Internal.Correction.Weighted>
   9.000000E+99

> <Gold.Protein.RotatedTorsions>
[ 6907 6896 6895 6894 ] final   42.99 input  -60.11 | X-H torsion
[ 7974 7965 7964 7962 ] final   81.65 input  175.53 | X-H torsion
[ 8008 7997 7996 7995 ] final   84.58 input   59.86 | X-H torsion
[ 10167 10162 10161 10158 ] final  110.91 input  -65.29 | X-H torsion
[ 10718 10713 10712 10709 ] final   33.79 input   66.30 | X-H torsion
[ 10763 10752 10751 10750 ] final -110.35 input  -60.55 | X-H torsion
[ 11005 11000 10999 10996 ] final  159.69 input  -57.11 | X-H torsion

> <Gold.Protein.ActiveResidues>
 VAL166  LYS551  ARG553  GLY616  TRP617  ASP618  TYR619  PRO620  LYS621  CYS622 
 ASP623  PHE694  ASN695  SER759  ASP760  ASP761  ALA762  ILE779  LEU786  VAL792 
 PHE793  MET794  SER795  GLU796  ALA797  LYS798  CYS799  TRP800  GLU811  SER814 

> <Gold.Protein.RotatedAtoms>
  152.2147  134.8469  160.0493 H   0  0  0  0  0  0  0  0  0  0  0  0  # atno 6907 bound_to 6896
  151.9275  133.3597  159.3927 H   0  0  0  0  0  0  0  0  0  0  0  0  # atno 6908 bound_to 6896
  150.6985  134.4497  159.5374 H   0  0  0  0  0  0  0  0  0  0  0  0  # atno 6909 bound_to 6896
  145.6354  139.2413  143.2061 H   0  0  0  0  0  0  0  0  0  0  0  0  # atno 7974 bound_to 7965
  155.9389  140.3409  155.6311 H   0  0  0  0  0  0  0  0  0  0  0  0  # atno 8008 bound_to 7997
  155.7064  140.0766  157.2407 H   0  0  0  0  0  0  0  0  0  0  0  0  # atno 8009 bound_to 7997
  154.4099  140.1630  156.2235 H   0  0  0  0  0  0  0  0  0  0  0  0  # atno 8010 bound_to 7997
  139.6652  144.7127  151.1790 H   0  0  0  0  0  0  0  0  0  0  0  0  # atno 10167 bound_to 10162
  157.3022  130.7356  149.6674 H   0  0  0  0  0  0  0  0  0  0  0  0  # atno 10718 bound_to 10713
  154.8243  135.4567  154.0871 H   0  0  0  0  0  0  0  0  0  0  0  0  # atno 10763 bound_to 10752
  153.2199  135.6892  153.8019 H   0  0  0  0  0  0  0  0  0  0  0  0  # atno 10764 bound_to 10752
  153.7440  135.3308  155.3286 H   0  0  0  0  0  0  0  0  0  0  0  0  # atno 10765 bound_to 10752
  140.1986  134.8354  157.2993 H   0  0  0  0  0  0  0  0  0  0  0  0  # atno 11005 bound_to 11000
  146.1324  140.7168  142.9406 LP  0  0  0  0  0  0  0  0  0  0  0  0  # atno 17320 bound_to 7965
  144.7178  140.4269  143.7031 LP  0  0  0  0  0  0  0  0  0  0  0  0  # atno 17321 bound_to 7965
  140.7596  143.5931  150.8776 LP  0  0  0  0  0  0  0  0  0  0  0  0  # atno 17342 bound_to 10162
  139.9591  143.6184  152.3007 LP  0  0  0  0  0  0  0  0  0  0  0  0  # atno 17343 bound_to 10162
  155.9672  130.4276  150.4753 LP  0  0  0  0  0  0  0  0  0  0  0  0  # atno 17370 bound_to 10713
  157.2736  131.0592  151.2244 LP  0  0  0  0  0  0  0  0  0  0  0  0  # atno 17371 bound_to 10713
  140.2079  134.4174  155.7628 LP  0  0  0  0  0  0  0  0  0  0  0  0  # atno 17394 bound_to 11000
  141.2227  133.7104  156.8291 LP  0  0  0  0  0  0  0  0  0  0  0  0  # atno 17395 bound_to 11000

$$$$
