AV-unprocessed.smi:886|AV-procd|sdf|4048|dock1
  -GOLD-   22720 1533D 1   1.00000     0.00000
 Structure written by MMmdl.
 35 37  0  0  0  0  0  0  0  0  1 V2000
  155.1868  140.5114  161.2511 C   0  0  0  0  0  0  0  0  0  0  0  0
  154.1920  141.4421  160.7413 N   0  0  0  0  0  0  0  0  0  0  0  0
  153.5952  141.3286  159.5447 C   0  0  0  0  0  0  0  0  0  0  0  0
  153.8228  140.4052  158.7618 O   0  0  0  0  0  0  0  0  0  0  0  0
  152.5842  142.4010  159.2265 C   0  0  0  0  0  0  0  0  0  0  0  0
  152.7137  143.6781  159.8216 C   0  0  0  0  0  0  0  0  0  0  0  0
  151.7884  144.6891  159.5072 C   0  0  0  0  0  0  0  0  0  0  0  0
  150.7608  144.3897  158.5970 C   0  0  0  0  0  0  0  0  0  0  0  0
  150.6232  143.1824  158.0136 N   0  0  0  0  0  0  0  0  0  0  0  0
  151.5114  142.2019  158.3094 C   0  0  0  0  0  0  0  0  0  0  0  0
  151.3131  140.9548  157.6903 N   0  0  0  0  0  0  0  0  0  0  0  0
  151.1513  140.8635  156.2421 C   0  0  2  0  0  0  0  0  0  0  0  0
  149.8300  140.2082  155.8328 C   0  0  0  0  0  0  0  0  0  0  0  0
  150.3092  139.0763  154.9136 C   0  0  2  0  0  0  0  0  0  0  0  0
  150.9346  137.9269  155.7150 C   0  0  0  0  0  0  0  0  0  0  0  0
  152.2676  138.5372  156.1427 C   0  0  0  0  0  0  0  0  0  0  0  0
  152.1786  139.9503  155.5412 C   0  0  1  0  0  0  0  0  0  0  0  0
  151.4697  139.6624  154.3478 O   0  0  0  0  0  0  0  0  0  0  0  0
  155.5275  140.8334  162.2350 H   0  0  0  0  0  0  0  0  0  0  0  0
  156.0521  140.4658  160.5885 H   0  0  0  0  0  0  0  0  0  0  0  0
  154.7674  139.5091  161.3468 H   0  0  0  0  0  0  0  0  0  0  0  0
  153.9390  142.2198  161.3337 H   0  0  0  0  0  0  0  0  0  0  0  0
  153.5179  143.8923  160.5108 H   0  0  0  0  0  0  0  0  0  0  0  0
  151.8669  145.6707  159.9505 H   0  0  0  0  0  0  0  0  0  0  0  0
  150.0303  145.1387  158.3297 H   0  0  0  0  0  0  0  0  0  0  0  0
  151.7076  140.1481  158.1529 H   0  0  0  0  0  0  0  0  0  0  0  0
  151.1906  141.8629  155.8062 H   0  0  0  0  0  0  0  0  0  0  0  0
  149.2452  139.8314  156.6732 H   0  0  0  0  0  0  0  0  0  0  0  0
  149.2112  140.9185  155.2837 H   0  0  0  0  0  0  0  0  0  0  0  0
  149.5659  138.7531  154.1844 H   0  0  0  0  0  0  0  0  0  0  0  0
  150.3160  137.6264  156.5613 H   0  0  0  0  0  0  0  0  0  0  0  0
  151.0985  137.0533  155.0832 H   0  0  0  0  0  0  0  0  0  0  0  0
  152.4108  138.5374  157.2232 H   0  0  0  0  0  0  0  0  0  0  0  0
  153.0957  137.9852  155.6968 H   0  0  0  0  0  0  0  0  0  0  0  0
  153.1491  140.4197  155.3777 H   0  0  0  0  0  0  0  0  0  0  0  0
  1  2  1  0  0  0  0
  1 19  1  0  0  0  0
  1 20  1  0  0  0  0
  1 21  1  0  0  0  0
  2  3  1  0  0  0  0
  2 22  1  0  0  0  0
  3  4  2  0  0  0  0
  3  5  1  0  0  0  0
  5 10  1  0  0  0  0
  5  6  2  0  0  0  0
  6  7  1  0  0  0  0
  6 23  1  0  0  0  0
  7  8  2  0  0  0  0
  7 24  1  0  0  0  0
  8  9  1  0  0  0  0
  8 25  1  0  0  0  0
  9 10  2  0  0  0  0
 10 11  1  0  0  0  0
 11 12  1  0  0  0  0
 11 26  1  0  0  0  0
 12 17  1  0  0  0  0
 12 13  1  0  0  0  0
 12 27  1  0  0  0  0
 13 14  1  0  0  0  0
 13 28  1  0  0  0  0
 13 29  1  0  0  0  0
 14 18  1  0  0  0  0
 14 15  1  0  0  0  0
 14 30  1  0  0  0  0
 15 16  1  0  0  0  0
 15 31  1  0  0  0  0
 15 32  1  0  0  0  0
 16 17  1  0  0  0  0
 16 33  1  0  0  0  0
 16 34  1  0  0  0  0
 17 18  1  0  0  0  0
 17 35  1  0  0  0  0
M  END
> <s_m_source_file>
AV-unprocessed.smi

> <i_m_source_file_index>
886

> <i_lp_mmshare_version>
43012

> <i_f3d_flags>
0

> <s_epik_input>
W0NIM11bTkhdQyg9TyljMVtjSF1bY0hdW2NIXW5jMVtOSF1bQ0BIXShbQ0gyXVtDQEhdMjMpW0NASF0oTzMpW0NIMl1bQ0gyXTI=

> <s_epik_cmdline>
J2VwaWtfcHl0aG9uJywgJy1waCcsICc3LjAnLCAnLXRuJywgJzgnLCAnLW1hJywgJzIwMCcsICctbWV0YWxfYmluZGluZycsICctaW1hZScsICc8aW5maWxlLm1hZT4nLCAnLW9tYWUnLCAnPG91dGZpbGUubWFlPic=

> <r_lp_tautomer_probability>
1

> <r_epik_Ionization_Penalty>
0.0065447

> <r_epik_Ionization_Penalty_Charging>
0

> <r_epik_Ionization_Penalty_Neutral>
0.0065447

> <r_epik_State_Penalty>
0.00484214

> <r_epik_Charging_Adjusted_Penalty>
0.00484214

> <i_epik_Tot_Q>
0

> <i_epik_Tot_abs_Q>
0

> <r_epik_Metal_State_Penalty>
-0

> <b_epik_Metal_Only>
0

> <s_lp_Force_Field>
OPLS_2005

> <r_lp_Energy>
46.6605

> <b_lp_Chiralities_Consistent>
1

> <s_lp_Variant>
AV-unprocessed.smi:886-1

> <Gold.Version>
5.8.1

> <Gold.Id.Protein>
6NUR|6NUR_protein|mol2

> <Gold.PLP.Fitness>
42.4147

> <Gold.PLP.PLP>
-35.3099

> <Gold.PLP.part.hbond>
-1.9500

> <Gold.PLP.part.metal>
0.0000

> <Gold.PLP.part.buried>
-1.8262

> <Gold.PLP.part.nonpolar>
-30.5503

> <Gold.PLP.part.repulsive>
0.3352

> <Gold.PLP.ligand.clash>
0.0000

> <Gold.PLP.ligand.torsion>
0.7349

> <Gold.PLP.Chemscore.Hbond>
1.8723

> <Gold.PLP.Chemscore.CHOScore>
0.9786

> <Gold.PLP.Chemscore.Metal>
0.0000

> <Gold.Chemscore.Hbonds>
donor molecule, donor type, donor heavy atom, donor atom, acceptor molecule, acceptor atom, score
      P1  H  7989  7998       L1    18  0.86
      P1  H  7997  8010       L1     4  0.80
      L1  C     8    25       P1  8028  0.01
      L1  C     8    25       P1  8029  1.00

> <Gold.PLP.Chemscore.Internal.Correction>
0.0221

> <Gold.Rescore>
     Score         DG    S(hbond)    S(metal)    S(lipo)     H(rot)  DE(clash)    DE(int)     intcor
     17.71     -18.72       1.70        0.00      86.62       1.00       0.29       0.72       ----

> <Gold.Chemscore.Fitness>
17.7115

> <Gold.Chemscore.DG>
-18.7231

> <Gold.Chemscore.ZeroCoef>
-5.4800

> <Gold.Chemscore.Hbond>
1.6973

> <Gold.Chemscore.Metal>
0.0000

> <Gold.Chemscore.Lipo>
86.6168

> <Gold.Chemscore.Internal_Hbond>
0.0000

> <Gold.Chemscore.DEClash>
0.2946

> <Gold.Chemscore.DEInternal>
0.7170

> <Gold.Chemscore.Rot>
1.0000

> <Gold.Chemscore.Internal.Correction>
   9.000000E+99

> <Gold.Chemscore.Hbonds>
donor molecule, donor type, donor heavy atom, donor atom, acceptor molecule, acceptor atom, score
      P1  H  7989  7998       L1    18  0.42
      P1  H  7997  8010       L1     4  0.80

> <Gold.Chemscore.Hbond.Weighted>
-5.6689

> <Gold.Chemscore.Metal.Weighted>
-0.0000

> <Gold.Chemscore.Lipo.Weighted>
-10.1342

> <Gold.Chemscore.Internal_Hbond.Weighted>
0.0000

> <Gold.Chemscore.DEClash.Weighted>
0.2946

> <Gold.Chemscore.DEInternal.Weighted>
0.7170

> <Gold.Chemscore.Rot.Weighted>
2.5600

> <Gold.Chemscore.Internal.Correction.Weighted>
   9.000000E+99

> <Gold.Protein.RotatedTorsions>
[ 6907 6896 6895 6894 ] final  -40.77 input  -60.11 | X-H torsion
[ 7974 7965 7964 7962 ] final -175.11 input  175.53 | X-H torsion
[ 8008 7997 7996 7995 ] final   21.21 input   59.86 | X-H torsion
[ 10167 10162 10161 10158 ] final  -68.00 input  -65.29 | X-H torsion
[ 10718 10713 10712 10709 ] final   27.05 input   66.30 | X-H torsion
[ 10763 10752 10751 10750 ] final   14.31 input  -60.55 | X-H torsion
[ 11005 11000 10999 10996 ] final  -92.47 input  -57.11 | X-H torsion

> <Gold.Protein.ActiveResidues>
 VAL166  LYS551  ARG553  GLY616  TRP617  ASP618  TYR619  PRO620  LYS621  CYS622 
 ASP623  PHE694  ASN695  SER759  ASP760  ASP761  ALA762  ILE779  LEU786  VAL792 
 PHE793  MET794  SER795  GLU796  ALA797  LYS798  CYS799  TRP800  GLU811  SER814 

> <Gold.Protein.RotatedAtoms>
  150.9745  134.9112  159.7807 H   0  0  0  0  0  0  0  0  0  0  0  0  # atno 6907 bound_to 6896
  152.5201  134.3495  159.9256 H   0  0  0  0  0  0  0  0  0  0  0  0  # atno 6908 bound_to 6896
  151.3503  133.3887  159.2714 H   0  0  0  0  0  0  0  0  0  0  0  0  # atno 6909 bound_to 6896
  144.7129  140.1370  143.6394 H   0  0  0  0  0  0  0  0  0  0  0  0  # atno 7974 bound_to 7965
  154.9472  140.3061  155.5092 H   0  0  0  0  0  0  0  0  0  0  0  0  # atno 8008 bound_to 7997
  156.2990  140.2325  156.4484 H   0  0  0  0  0  0  0  0  0  0  0  0  # atno 8009 bound_to 7997
  154.8089  140.0429  157.1317 H   0  0  0  0  0  0  0  0  0  0  0  0  # atno 8010 bound_to 7997
  140.5540  143.2312  151.6856 H   0  0  0  0  0  0  0  0  0  0  0  0  # atno 10167 bound_to 10162
  157.2150  130.6952  149.6245 H   0  0  0  0  0  0  0  0  0  0  0  0  # atno 10718 bound_to 10713
  153.1634  135.6800  153.8709 H   0  0  0  0  0  0  0  0  0  0  0  0  # atno 10763 bound_to 10752
  153.8097  135.3144  155.3400 H   0  0  0  0  0  0  0  0  0  0  0  0  # atno 10764 bound_to 10752
  154.7948  135.4813  154.0226 H   0  0  0  0  0  0  0  0  0  0  0  0  # atno 10765 bound_to 10752
  141.1521  133.7823  157.0024 H   0  0  0  0  0  0  0  0  0  0  0  0  # atno 11005 bound_to 11000
  145.9236  139.2561  143.1367 LP  0  0  0  0  0  0  0  0  0  0  0  0  # atno 17320 bound_to 7965
  145.9595  140.8846  143.0218 LP  0  0  0  0  0  0  0  0  0  0  0  0  # atno 17321 bound_to 7965
  139.5040  144.3771  152.0413 LP  0  0  0  0  0  0  0  0  0  0  0  0  # atno 17342 bound_to 10162
  140.2891  144.3774  150.6094 LP  0  0  0  0  0  0  0  0  0  0  0  0  # atno 17343 bound_to 10162
  155.9687  130.4538  150.5827 LP  0  0  0  0  0  0  0  0  0  0  0  0  # atno 17370 bound_to 10713
  157.3633  131.0753  151.1618 LP  0  0  0  0  0  0  0  0  0  0  0  0  # atno 17371 bound_to 10713
  140.0931  134.9580  157.1807 LP  0  0  0  0  0  0  0  0  0  0  0  0  # atno 17394 bound_to 11000
  140.3419  134.2694  155.7211 LP  0  0  0  0  0  0  0  0  0  0  0  0  # atno 17395 bound_to 11000

$$$$
