AV-unprocessed.smi:1095|AV-procd|sdf|4747|dock4
  -GOLD-   22720 3283D 1   1.00000     0.00000
 Structure written by MMmdl.
 50 51  0  0  0  0  0  0  0  0  1 V2000
  152.0495  146.0145  159.7963 C   0  0  0  0  0  0  0  0  0  0  0  0
  151.0559  144.9287  160.2327 C   0  0  0  0  0  0  0  0  0  0  0  0
  151.7044  143.5576  160.5123 C   0  0  2  0  0  0  0  0  0  0  0  0
  152.7603  143.6691  161.6295 C   0  0  0  0  0  0  0  0  0  0  0  0
  153.4132  142.3121  161.9360 C   0  0  0  0  0  0  0  0  0  0  0  0
  154.0558  141.6916  160.6814 C   0  0  1  0  0  0  0  0  0  0  0  0
  154.7216  140.3405  161.0172 C   0  0  0  0  0  0  0  0  0  0  0  0
  155.8603  140.5131  161.9122 N   0  0  0  0  0  0  0  0  0  0  0  0
  156.1808  139.7063  162.9357 C   0  0  0  0  0  0  0  0  0  0  0  0
  155.4785  138.7699  163.3157 O   0  0  0  0  0  0  0  0  0  0  0  0
  157.5284  139.9713  163.6042 C   0  0  0  0  0  0  0  0  0  0  0  0
  157.2968  140.2861  165.0614 C   0  0  0  0  0  0  0  0  0  0  0  0
  157.7281  139.5361  166.1964 C   0  0  0  0  0  0  0  0  0  0  0  0
  158.5129  138.2558  166.2290 C   0  0  0  0  0  0  0  0  0  0  0  0
  157.3408  140.0801  167.3377 N   0  0  0  0  0  0  0  0  0  0  0  0
  156.6567  141.1845  166.9785 N   0  0  0  0  0  0  0  0  0  0  0  0
  156.0802  142.0286  168.0068 C   0  0  0  0  0  0  0  0  0  0  0  0
  156.6064  141.3355  165.6064 C   0  0  0  0  0  0  0  0  0  0  0  0
  155.8915  142.4752  164.9549 C   0  0  0  0  0  0  0  0  0  0  0  0
  153.0059  141.5829  159.5538 C   0  0  0  0  0  0  0  0  0  0  0  0
  152.3441  142.9371  159.2530 C   0  0  0  0  0  0  0  0  0  0  0  0
  151.5244  146.9345  159.5388 H   0  0  0  0  0  0  0  0  0  0  0  0
  152.6167  145.7011  158.9194 H   0  0  0  0  0  0  0  0  0  0  0  0
  152.7579  146.2562  160.5884 H   0  0  0  0  0  0  0  0  0  0  0  0
  150.5078  145.2674  161.1126 H   0  0  0  0  0  0  0  0  0  0  0  0
  150.3138  144.8155  159.4415 H   0  0  0  0  0  0  0  0  0  0  0  0
  150.9224  142.8831  160.8647 H   0  0  0  0  0  0  0  0  0  0  0  0
  153.5302  144.3855  161.3397 H   0  0  0  0  0  0  0  0  0  0  0  0
  152.3021  144.0613  162.5381 H   0  0  0  0  0  0  0  0  0  0  0  0
  154.1656  142.4406  162.7148 H   0  0  0  0  0  0  0  0  0  0  0  0
  152.6634  141.6317  162.3420 H   0  0  0  0  0  0  0  0  0  0  0  0
  154.8398  142.3703  160.3413 H   0  0  0  0  0  0  0  0  0  0  0  0
  154.0045  139.6914  161.5203 H   0  0  0  0  0  0  0  0  0  0  0  0
  155.0098  139.8219  160.1013 H   0  0  0  0  0  0  0  0  0  0  0  0
  156.5035  141.2573  161.6840 H   0  0  0  0  0  0  0  0  0  0  0  0
  158.1750  139.1024  163.4771 H   0  0  0  0  0  0  0  0  0  0  0  0
  158.0269  140.7935  163.0895 H   0  0  0  0  0  0  0  0  0  0  0  0
  159.1894  138.1845  165.3780 H   0  0  0  0  0  0  0  0  0  0  0  0
  157.8478  137.3928  166.1976 H   0  0  0  0  0  0  0  0  0  0  0  0
  159.1166  138.1791  167.1341 H   0  0  0  0  0  0  0  0  0  0  0  0
  154.9935  141.9459  167.9797 H   0  0  0  0  0  0  0  0  0  0  0  0
  156.3638  143.0668  167.8327 H   0  0  0  0  0  0  0  0  0  0  0  0
  156.4337  141.7291  168.9945 H   0  0  0  0  0  0  0  0  0  0  0  0
  155.7479  142.2942  163.8898 H   0  0  0  0  0  0  0  0  0  0  0  0
  156.4574  143.4001  165.0665 H   0  0  0  0  0  0  0  0  0  0  0  0
  154.9069  142.6237  165.3987 H   0  0  0  0  0  0  0  0  0  0  0  0
  153.4644  141.2104  158.6378 H   0  0  0  0  0  0  0  0  0  0  0  0
  152.2411  140.8566  159.8316 H   0  0  0  0  0  0  0  0  0  0  0  0
  151.5947  142.7947  158.4749 H   0  0  0  0  0  0  0  0  0  0  0  0
  153.0885  143.6203  158.8416 H   0  0  0  0  0  0  0  0  0  0  0  0
  1  2  1  0  0  0  0
  1 22  1  0  0  0  0
  1 23  1  0  0  0  0
  1 24  1  0  0  0  0
  2  3  1  0  0  0  0
  2 25  1  0  0  0  0
  2 26  1  0  0  0  0
  3 21  1  0  0  0  0
  3  4  1  0  0  0  0
  3 27  1  0  0  0  0
  4  5  1  0  0  0  0
  4 28  1  0  0  0  0
  4 29  1  0  0  0  0
  5  6  1  0  0  0  0
  5 30  1  0  0  0  0
  5 31  1  0  0  0  0
  6  7  1  0  0  0  0
  6 20  1  0  0  0  0
  6 32  1  0  0  0  0
  7  8  1  0  0  0  0
  7 33  1  0  0  0  0
  7 34  1  0  0  0  0
  8  9  1  0  0  0  0
  8 35  1  0  0  0  0
  9 10  2  0  0  0  0
  9 11  1  0  0  0  0
 11 12  1  0  0  0  0
 11 36  1  0  0  0  0
 11 37  1  0  0  0  0
 12 18  2  0  0  0  0
 12 13  1  0  0  0  0
 13 14  1  0  0  0  0
 13 15  2  0  0  0  0
 14 38  1  0  0  0  0
 14 39  1  0  0  0  0
 14 40  1  0  0  0  0
 15 16  1  0  0  0  0
 16 17  1  0  0  0  0
 16 18  1  0  0  0  0
 17 41  1  0  0  0  0
 17 42  1  0  0  0  0
 17 43  1  0  0  0  0
 18 19  1  0  0  0  0
 19 44  1  0  0  0  0
 19 45  1  0  0  0  0
 19 46  1  0  0  0  0
 20 21  1  0  0  0  0
 20 47  1  0  0  0  0
 20 48  1  0  0  0  0
 21 49  1  0  0  0  0
 21 50  1  0  0  0  0
M  END
> <s_m_source_file>
AV-unprocessed.smi

> <i_m_source_file_index>
1095

> <i_lp_mmshare_version>
43012

> <i_f3d_flags>
0

> <s_epik_input>
W0NIM11bQ0gyXVtDQEBIXTFbQ0gyXVtDSDJdW0NASF0oW0NIMl1bQ0gyXTEpW0NIMl1bTkhdQyg9TylbQ0gyXWMyYyhbQ0gzXSlubihbQ0gzXSljMltDSDNd

> <s_epik_cmdline>
J2VwaWtfcHl0aG9uJywgJy1waCcsICc3LjAnLCAnLXRuJywgJzgnLCAnLW1hJywgJzIwMCcsICctbWV0YWxfYmluZGluZycsICctaW1hZScsICc8aW5maWxlLm1hZT4nLCAnLW9tYWUnLCAnPG91dGZpbGUubWFlPic=

> <r_lp_tautomer_probability>
1

> <r_epik_Ionization_Penalty>
0.00317479

> <r_epik_Ionization_Penalty_Charging>
0

> <r_epik_Ionization_Penalty_Neutral>
0.00317479

> <r_epik_State_Penalty>
0.00223767

> <r_epik_Charging_Adjusted_Penalty>
0.00223767

> <i_epik_Tot_Q>
0

> <i_epik_Tot_abs_Q>
0

> <r_epik_Metal_State_Penalty>
-0

> <b_epik_Metal_Only>
0

> <s_lp_Force_Field>
OPLS_2005

> <r_lp_Energy>
5.54232

> <b_lp_Chiralities_Consistent>
1

> <s_lp_Variant>
AV-unprocessed.smi:1095-1

> <Gold.Version>
5.8.1

> <Gold.Id.Protein>
6NUR|6NUR_protein|mol2

> <Gold.PLP.Fitness>
47.1418

> <Gold.PLP.PLP>
-47.4893

> <Gold.PLP.part.hbond>
-1.6875

> <Gold.PLP.part.metal>
0.0000

> <Gold.PLP.part.buried>
-5.1130

> <Gold.PLP.part.nonpolar>
-40.3557

> <Gold.PLP.part.repulsive>
0.0654

> <Gold.PLP.ligand.clash>
0.0000

> <Gold.PLP.ligand.torsion>
0.1951

> <Gold.PLP.Chemscore.Hbond>
0.0000

> <Gold.PLP.Chemscore.CHOScore>
0.0000

> <Gold.PLP.Chemscore.Metal>
0.0000

> <Gold.PLP.Chemscore.Internal.Correction>
0.0427

> <Gold.Rescore>
     Score         DG    S(hbond)    S(metal)    S(lipo)     H(rot)  DE(clash)    DE(int)     intcor
     16.27     -16.75       0.00        0.00     127.72       1.43       0.07       0.41       ----

> <Gold.Chemscore.Fitness>
16.2700

> <Gold.Chemscore.DG>
-16.7538

> <Gold.Chemscore.ZeroCoef>
-5.4800

> <Gold.Chemscore.Hbond>
0.0000

> <Gold.Chemscore.Metal>
0.0000

> <Gold.Chemscore.Lipo>
127.7248

> <Gold.Chemscore.Internal_Hbond>
0.0000

> <Gold.Chemscore.DEClash>
0.0736

> <Gold.Chemscore.DEInternal>
0.4102

> <Gold.Chemscore.Rot>
1.4336

> <Gold.Chemscore.Internal.Correction>
   9.000000E+99

> <Gold.Chemscore.Hbond.Weighted>
-0.0000

> <Gold.Chemscore.Metal.Weighted>
-0.0000

> <Gold.Chemscore.Lipo.Weighted>
-14.9438

> <Gold.Chemscore.Internal_Hbond.Weighted>
0.0000

> <Gold.Chemscore.DEClash.Weighted>
0.0736

> <Gold.Chemscore.DEInternal.Weighted>
0.4102

> <Gold.Chemscore.Rot.Weighted>
3.6700

> <Gold.Chemscore.Internal.Correction.Weighted>
   9.000000E+99

> <Gold.Protein.RotatedTorsions>
[ 6907 6896 6895 6894 ] final -148.06 input  -60.11 | X-H torsion
[ 7974 7965 7964 7962 ] final  -10.51 input  175.53 | X-H torsion
[ 8008 7997 7996 7995 ] final   40.56 input   59.86 | X-H torsion
[ 10167 10162 10161 10158 ] final  -23.00 input  -65.29 | X-H torsion
[ 10718 10713 10712 10709 ] final  134.15 input   66.30 | X-H torsion
[ 10763 10752 10751 10750 ] final -121.55 input  -60.55 | X-H torsion
[ 11005 11000 10999 10996 ] final   49.82 input  -57.11 | X-H torsion

> <Gold.Protein.ActiveResidues>
 VAL166  LYS551  ARG553  GLY616  TRP617  ASP618  TYR619  PRO620  LYS621  CYS622 
 ASP623  PHE694  ASN695  SER759  ASP760  ASP761  ALA762  ILE779  LEU786  VAL792 
 PHE793  MET794  SER795  GLU796  ALA797  LYS798  CYS799  TRP800  GLU811  SER814 

> <Gold.Protein.RotatedAtoms>
  151.1644  133.4824  159.2593 H   0  0  0  0  0  0  0  0  0  0  0  0  # atno 6907 bound_to 6896
  151.1420  135.0184  159.8640 H   0  0  0  0  0  0  0  0  0  0  0  0  # atno 6908 bound_to 6896
  152.5462  134.1537  159.8582 H   0  0  0  0  0  0  0  0  0  0  0  0  # atno 6909 bound_to 6896
  146.2218  140.2774  142.8360 H   0  0  0  0  0  0  0  0  0  0  0  0  # atno 7974 bound_to 7965
  155.2552  140.3355  155.4278 H   0  0  0  0  0  0  0  0  0  0  0  0  # atno 8008 bound_to 7997
  156.2199  140.1804  156.7546 H   0  0  0  0  0  0  0  0  0  0  0  0  # atno 8009 bound_to 7997
  154.5809  140.0654  156.9087 H   0  0  0  0  0  0  0  0  0  0  0  0  # atno 8010 bound_to 7997
  140.7287  143.4483  151.0554 H   0  0  0  0  0  0  0  0  0  0  0  0  # atno 10167 bound_to 10162
  157.4702  131.1079  150.9813 H   0  0  0  0  0  0  0  0  0  0  0  0  # atno 10718 bound_to 10713
  154.8670  135.4164  154.2639 H   0  0  0  0  0  0  0  0  0  0  0  0  # atno 10763 bound_to 10752
  153.3561  135.7001  153.6755 H   0  0  0  0  0  0  0  0  0  0  0  0  # atno 10764 bound_to 10752
  153.5674  135.3598  155.2796 H   0  0  0  0  0  0  0  0  0  0  0  0  # atno 10765 bound_to 10752
  140.1070  134.5005  155.8711 H   0  0  0  0  0  0  0  0  0  0  0  0  # atno 11005 bound_to 11000
  144.9222  140.7881  143.5741 LP  0  0  0  0  0  0  0  0  0  0  0  0  # atno 17320 bound_to 7965
  145.2712  139.1954  143.4840 LP  0  0  0  0  0  0  0  0  0  0  0  0  # atno 17321 bound_to 7965
  139.8157  143.7889  152.3174 LP  0  0  0  0  0  0  0  0  0  0  0  0  # atno 17342 bound_to 10162
  139.7954  144.7394  150.9897 LP  0  0  0  0  0  0  0  0  0  0  0  0  # atno 17343 bound_to 10162
  157.0580  130.5814  149.5381 LP  0  0  0  0  0  0  0  0  0  0  0  0  # atno 17370 bound_to 10713
  156.0069  130.5157  150.7861 LP  0  0  0  0  0  0  0  0  0  0  0  0  # atno 17371 bound_to 10713
  141.2121  133.6714  156.6630 LP  0  0  0  0  0  0  0  0  0  0  0  0  # atno 17394 bound_to 11000
  140.3142  134.8061  157.4201 LP  0  0  0  0  0  0  0  0  0  0  0  0  # atno 17395 bound_to 11000

$$$$
