AV-unprocessed.smi:1417|AV-procd|sdf|5765|dock5
  -GOLD-   22720 5403D 1   1.00000     0.00000
 Structure written by MMmdl.
 39 40  0  0  0  0  0  0  0  0  1 V2000
  153.5283  142.1521  160.6995 C   0  0  0  0  0  0  0  0  0  0  0  0
  152.6037  142.5980  159.6189 C   0  0  0  0  0  0  0  0  0  0  0  0
  151.5517  141.9967  158.9875 C   0  0  0  0  0  0  0  0  0  0  0  0
  151.1248  142.9913  158.0598 C   0  0  0  0  0  0  0  0  0  0  0  0
  150.0543  142.8762  157.1357 N   0  0  0  0  0  0  0  0  0  0  0  0
  149.4762  141.7599  156.6611 C   0  0  0  0  0  0  0  0  0  0  0  0
  149.7744  140.6097  156.9826 O   0  0  0  0  0  0  0  0  0  0  0  0
  148.5126  142.0535  155.7760 N   0  0  0  0  0  0  0  0  0  0  0  0
  147.6931  141.0760  155.0658 C   0  0  0  0  0  0  0  0  0  0  0  0
  146.8930  140.2084  156.0521 C   0  0  0  0  0  0  0  0  0  0  0  0
  146.1453  139.0765  155.3260 C   0  0  0  0  0  0  0  0  0  0  0  0
  147.0879  138.2366  154.5725 N   0  0  0  0  0  0  0  0  0  0  0  0
  146.4218  137.0856  153.9201 C   0  0  0  0  0  0  0  0  0  0  0  0
  145.7231  137.4154  152.5955 C   0  0  0  0  0  0  0  0  0  0  0  0
  144.7371  138.3154  152.6354 N   0  0  0  0  0  0  0  0  0  0  0  0
  146.0640  136.8585  151.5544 O   0  0  0  0  0  0  0  0  0  0  0  0
  147.7757  139.0389  153.5558 C   0  0  0  0  0  0  0  0  0  0  0  0
  148.5904  140.1650  154.2158 C   0  0  0  0  0  0  0  0  0  0  0  0
  151.8524  144.0913  158.1236 N   0  0  0  0  0  0  0  0  0  0  0  0
  152.8019  143.8487  159.1231 O   0  0  0  0  0  0  0  0  0  0  0  0
  153.4293  141.0817  160.8803 H   0  0  0  0  0  0  0  0  0  0  0  0
  153.3128  142.6743  161.6317 H   0  0  0  0  0  0  0  0  0  0  0  0
  154.5652  142.3540  160.4298 H   0  0  0  0  0  0  0  0  0  0  0  0
  151.1662  141.0050  159.1703 H   0  0  0  0  0  0  0  0  0  0  0  0
  149.6880  143.7511  156.7909 H   0  0  0  0  0  0  0  0  0  0  0  0
  148.3340  143.0261  155.5735 H   0  0  0  0  0  0  0  0  0  0  0  0
  147.0011  141.5981  154.4019 H   0  0  0  0  0  0  0  0  0  0  0  0
  147.5634  139.7775  156.7978 H   0  0  0  0  0  0  0  0  0  0  0  0
  146.1780  140.8233  156.5997 H   0  0  0  0  0  0  0  0  0  0  0  0
  145.6129  138.4910  156.0753 H   0  0  0  0  0  0  0  0  0  0  0  0
  145.3901  139.4906  154.6555 H   0  0  0  0  0  0  0  0  0  0  0  0
  147.1473  136.2874  153.7515 H   0  0  0  0  0  0  0  0  0  0  0  0
  145.6629  136.6774  154.5891 H   0  0  0  0  0  0  0  0  0  0  0  0
  144.2444  138.5568  151.7878 H   0  0  0  0  0  0  0  0  0  0  0  0
  144.4832  138.7447  153.5132 H   0  0  0  0  0  0  0  0  0  0  0  0
  148.4543  138.4058  152.9824 H   0  0  0  0  0  0  0  0  0  0  0  0
  147.0569  139.4557  152.8479 H   0  0  0  0  0  0  0  0  0  0  0  0
  149.0974  140.7514  153.4487 H   0  0  0  0  0  0  0  0  0  0  0  0
  149.3731  139.7264  154.8370 H   0  0  0  0  0  0  0  0  0  0  0  0
  1  2  1  0  0  0  0
  1 21  1  0  0  0  0
  1 22  1  0  0  0  0
  1 23  1  0  0  0  0
  2 20  1  0  0  0  0
  2  3  2  0  0  0  0
  3  4  1  0  0  0  0
  3 24  1  0  0  0  0
  4  5  1  0  0  0  0
  4 19  2  0  0  0  0
  5  6  1  0  0  0  0
  5 25  1  0  0  0  0
  6  7  2  0  0  0  0
  6  8  1  0  0  0  0
  8  9  1  0  0  0  0
  8 26  1  0  0  0  0
  9 18  1  0  0  0  0
  9 10  1  0  0  0  0
  9 27  1  0  0  0  0
 10 11  1  0  0  0  0
 10 28  1  0  0  0  0
 10 29  1  0  0  0  0
 11 12  1  0  0  0  0
 11 30  1  0  0  0  0
 11 31  1  0  0  0  0
 12 13  1  0  0  0  0
 12 17  1  0  0  0  0
 13 14  1  0  0  0  0
 13 32  1  0  0  0  0
 13 33  1  0  0  0  0
 14 15  1  0  0  0  0
 14 16  2  0  0  0  0
 15 34  1  0  0  0  0
 15 35  1  0  0  0  0
 17 18  1  0  0  0  0
 17 36  1  0  0  0  0
 17 37  1  0  0  0  0
 18 38  1  0  0  0  0
 18 39  1  0  0  0  0
 19 20  1  0  0  0  0
M  END
> <s_m_source_file>
AV-unprocessed.smi

> <i_m_source_file_index>
1417

> <i_lp_mmshare_version>
43012

> <i_f3d_flags>
0

> <s_epik_input>
W0NIM11jMVtjSF1jKG5vMSlbTkhdQyg9TylbTkhdW0NIXTJbQ0gyXVtDSDJdTihbQ0gyXVtDSDJdMilbQ0gyXUMoPU8pW05IMl0=

> <s_epik_cmdline>
J2VwaWtfcHl0aG9uJywgJy1waCcsICc3LjAnLCAnLXRuJywgJzgnLCAnLW1hJywgJzIwMCcsICctbWV0YWxfYmluZGluZycsICctaW1hZScsICc8aW5maWxlLm1hZT4nLCAnLW9tYWUnLCAnPG91dGZpbGUubWFlPic=

> <r_epik_Ionization_Penalty>
0.155825

> <r_epik_Ionization_Penalty_Charging>
0

> <r_epik_Ionization_Penalty_Neutral>
0.155825

> <r_epik_State_Penalty>
0.145092

> <r_epik_Charging_Adjusted_Penalty>
0.145092

> <i_epik_Tot_Q>
0

> <i_epik_Tot_abs_Q>
0

> <r_epik_Metal_State_Penalty>
0.171119

> <b_epik_Metal_Only>
0

> <s_lp_Force_Field>
OPLS_2005

> <r_lp_Energy>
11.4398

> <b_lp_Chiralities_Consistent>
1

> <s_lp_Variant>
AV-unprocessed.smi:1417-1

> <Gold.Version>
5.8.1

> <Gold.Id.Protein>
6NUR|6NUR_protein|mol2

> <Gold.PLP.Fitness>
36.2446

> <Gold.PLP.PLP>
-27.7853

> <Gold.PLP.part.hbond>
-3.1936

> <Gold.PLP.part.metal>
0.0000

> <Gold.PLP.part.buried>
-5.5253

> <Gold.PLP.part.nonpolar>
-19.5048

> <Gold.PLP.part.repulsive>
0.7180

> <Gold.PLP.ligand.clash>
0.0000

> <Gold.PLP.ligand.torsion>
0.2772

> <Gold.PLP.Chemscore.Hbond>
3.0000

> <Gold.PLP.Chemscore.CHOScore>
0.0000

> <Gold.PLP.Chemscore.Metal>
0.0000

> <Gold.Chemscore.Hbonds>
donor molecule, donor type, donor heavy atom, donor atom, acceptor molecule, acceptor atom, score
      L1  H     5    25       P1  8028  1.00
      L1  H     8    26       P1  8028  0.99
      L1  H    15    34       P1 10171  1.00

> <Gold.PLP.Chemscore.Internal.Correction>
0.0136

> <Gold.Rescore>
     Score         DG    S(hbond)    S(metal)    S(lipo)     H(rot)  DE(clash)    DE(int)     intcor
     13.54     -16.60       3.09        0.00      51.16       2.02       0.88       2.18       ----

> <Gold.Chemscore.Fitness>
13.5358

> <Gold.Chemscore.DG>
-16.5952

> <Gold.Chemscore.ZeroCoef>
-5.4800

> <Gold.Chemscore.Hbond>
3.0852

> <Gold.Chemscore.Metal>
0.0000

> <Gold.Chemscore.Lipo>
51.1637

> <Gold.Chemscore.Internal_Hbond>
0.0000

> <Gold.Chemscore.DEClash>
0.8833

> <Gold.Chemscore.DEInternal>
2.1761

> <Gold.Chemscore.Rot>
2.0217

> <Gold.Chemscore.Internal.Correction>
   9.000000E+99

> <Gold.Chemscore.Hbonds>
donor molecule, donor type, donor heavy atom, donor atom, acceptor molecule, acceptor atom, score
      L1  H     5    25       P1  8028  0.96
      L1  H     8    26       P1  8028  0.92
      L1  H    15    34       P1 10171  0.95

> <Gold.Chemscore.Hbond.Weighted>
-10.3046

> <Gold.Chemscore.Metal.Weighted>
-0.0000

> <Gold.Chemscore.Lipo.Weighted>
-5.9862

> <Gold.Chemscore.Internal_Hbond.Weighted>
0.0000

> <Gold.Chemscore.DEClash.Weighted>
0.8833

> <Gold.Chemscore.DEInternal.Weighted>
2.1761

> <Gold.Chemscore.Rot.Weighted>
5.1755

> <Gold.Chemscore.Internal.Correction.Weighted>
   9.000000E+99

> <Gold.Protein.RotatedTorsions>
[ 6907 6896 6895 6894 ] final -113.77 input  -60.11 | X-H torsion
[ 7974 7965 7964 7962 ] final  -99.38 input  175.53 | X-H torsion
[ 8008 7997 7996 7995 ] final  112.31 input   59.86 | X-H torsion
[ 10167 10162 10161 10158 ] final   67.06 input  -65.29 | X-H torsion
[ 10718 10713 10712 10709 ] final  -41.84 input   66.30 | X-H torsion
[ 10763 10752 10751 10750 ] final   45.68 input  -60.55 | X-H torsion
[ 11005 11000 10999 10996 ] final -134.69 input  -57.11 | X-H torsion

> <Gold.Protein.ActiveResidues>
 VAL166  LYS551  ARG553  GLY616  TRP617  ASP618  TYR619  PRO620  LYS621  CYS622 
 ASP623  PHE694  ASN695  SER759  ASP760  ASP761  ALA762  ILE779  LEU786  VAL792 
 PHE793  MET794  SER795  GLU796  ALA797  LYS798  CYS799  TRP800  GLU811  SER814 

> <Gold.Protein.RotatedAtoms>
  150.7853  133.8897  159.3309 H   0  0  0  0  0  0  0  0  0  0  0  0  # atno 6907 bound_to 6896
  151.6750  135.0968  160.0214 H   0  0  0  0  0  0  0  0  0  0  0  0  # atno 6908 bound_to 6896
  152.3915  133.6647  159.6277 H   0  0  0  0  0  0  0  0  0  0  0  0  # atno 6909 bound_to 6896
  145.3083  140.9394  143.2784 H   0  0  0  0  0  0  0  0  0  0  0  0  # atno 7974 bound_to 7965
  156.2183  140.3002  155.9892 H   0  0  0  0  0  0  0  0  0  0  0  0  # atno 8008 bound_to 7997
  155.2547  140.0427  157.3008 H   0  0  0  0  0  0  0  0  0  0  0  0  # atno 8009 bound_to 7997
  154.5802  140.2373  155.8073 H   0  0  0  0  0  0  0  0  0  0  0  0  # atno 8010 bound_to 7997
  140.0936  144.4966  150.7083 H   0  0  0  0  0  0  0  0  0  0  0  0  # atno 10167 bound_to 10162
  156.2660  130.4202  149.8489 H   0  0  0  0  0  0  0  0  0  0  0  0  # atno 10718 bound_to 10713
  152.9821  135.6032  154.3476 H   0  0  0  0  0  0  0  0  0  0  0  0  # atno 10763 bound_to 10752
  154.3168  135.2770  155.2541 H   0  0  0  0  0  0  0  0  0  0  0  0  # atno 10764 bound_to 10752
  154.4725  135.5938  153.6388 H   0  0  0  0  0  0  0  0  0  0  0  0  # atno 10765 bound_to 10752
  140.8967  134.1743  157.4490 H   0  0  0  0  0  0  0  0  0  0  0  0  # atno 11005 bound_to 11000
  144.9037  139.4617  143.6620 LP  0  0  0  0  0  0  0  0  0  0  0  0  # atno 17320 bound_to 7965
  146.3127  139.7805  142.9007 LP  0  0  0  0  0  0  0  0  0  0  0  0  # atno 17321 bound_to 7965
  140.7015  143.2438  151.4849 LP  0  0  0  0  0  0  0  0  0  0  0  0  # atno 17342 bound_to 10162
  139.5711  144.1927  152.1837 LP  0  0  0  0  0  0  0  0  0  0  0  0  # atno 17343 bound_to 10162
  156.5988  130.8537  151.3426 LP  0  0  0  0  0  0  0  0  0  0  0  0  # atno 17370 bound_to 10713
  157.7267  130.9633  150.1669 LP  0  0  0  0  0  0  0  0  0  0  0  0  # atno 17371 bound_to 10713
  139.8736  134.9881  156.5398 LP  0  0  0  0  0  0  0  0  0  0  0  0  # atno 17394 bound_to 11000
  140.8280  133.8301  155.8957 LP  0  0  0  0  0  0  0  0  0  0  0  0  # atno 17395 bound_to 11000

$$$$
