AV-unprocessed.smi:808|AV-procd|sdf|3804|dock1
  -GOLD-   22720 1243D 1   1.00000     0.00000
 Structure written by MMmdl.
 34 35  0  0  0  0  0  0  0  0  2 V2000
  151.5485  140.9463  157.4448 O   0  0  0  0  0  0  0  0  0  0  0  0
  150.8148  141.7601  156.8838 C   0  0  0  0  0  0  0  0  0  0  0  0
  149.9000  141.3038  155.7431 C   0  0  0  0  0  0  0  0  0  0  0  0
  150.1753  139.9341  155.3430 N   0  0  0  0  0  0  0  0  0  0  0  0
  150.1542  138.7967  156.1284 C   0  0  0  0  0  0  0  0  0  0  0  0
  150.5023  137.7776  155.2946 C   0  0  0  0  0  0  0  0  0  0  0  0
  150.6374  136.3333  155.6592 C   0  0  0  0  0  0  0  0  0  0  0  0
  150.1590  135.9470  156.7481 O   0  0  0  0  0  0  0  0  0  0  0  0
  151.2221  135.5698  154.8591 O   0  5  0  0  0  0  0  0  0  0  0  0
  150.7155  138.3543  154.0158 C   0  0  0  0  0  0  0  0  0  0  0  0
  150.5144  139.6646  154.0546 N   0  0  0  0  0  0  0  0  0  0  0  0
  150.7738  143.0628  157.2072 N   0  0  0  0  0  0  0  0  0  0  0  0
  151.5372  143.6971  158.2761 C   0  0  0  0  0  0  0  0  0  0  0  0
  151.5642  142.7686  159.5051 C   0  0  0  0  0  0  0  0  0  0  0  0
  152.3049  143.4180  160.6851 C   0  0  0  0  0  0  0  0  0  0  0  0
  151.6955  144.7829  161.0420 C   0  0  0  0  0  0  0  0  0  0  0  0
  151.6708  145.7152  159.8205 C   0  0  0  0  0  0  0  0  0  0  0  0
  150.9314  145.0688  158.6378 C   0  0  0  0  0  0  0  0  0  0  0  0
  148.8593  141.3771  156.0607 H   0  0  0  0  0  0  0  0  0  0  0  0
  150.0193  141.9591  154.8789 H   0  0  0  0  0  0  0  0  0  0  0  0
  149.9087  138.8136  157.1800 H   0  0  0  0  0  0  0  0  0  0  0  0
  151.0037  137.8826  153.0879 H   0  0  0  0  0  0  0  0  0  0  0  0
  150.1415  143.6558  156.6891 H   0  0  0  0  0  0  0  0  0  0  0  0
  152.5659  143.8426  157.9405 H   0  0  0  0  0  0  0  0  0  0  0  0
  150.5447  142.5264  159.8088 H   0  0  0  0  0  0  0  0  0  0  0  0
  152.0419  141.8222  159.2482 H   0  0  0  0  0  0  0  0  0  0  0  0
  152.2724  142.7578  161.5523 H   0  0  0  0  0  0  0  0  0  0  0  0
  153.3583  143.5431  160.4312 H   0  0  0  0  0  0  0  0  0  0  0  0
  150.6807  144.6439  161.4169 H   0  0  0  0  0  0  0  0  0  0  0  0
  152.2638  145.2439  161.8504 H   0  0  0  0  0  0  0  0  0  0  0  0
  151.1953  146.6606  160.0834 H   0  0  0  0  0  0  0  0  0  0  0  0
  152.6926  145.9553  159.5240 H   0  0  0  0  0  0  0  0  0  0  0  0
  150.9682  145.7366  157.7765 H   0  0  0  0  0  0  0  0  0  0  0  0
  149.8771  144.9513  158.8925 H   0  0  0  0  0  0  0  0  0  0  0  0
  1  2  2  0  0  0  0
  2  3  1  0  0  0  0
  2 12  1  0  0  0  0
  3  4  1  0  0  0  0
  3 19  1  0  0  0  0
  3 20  1  0  0  0  0
  4 11  1  0  0  0  0
  4  5  1  0  0  0  0
  5  6  2  0  0  0  0
  5 21  1  0  0  0  0
  6  7  1  0  0  0  0
  6 10  1  0  0  0  0
  7  8  2  0  0  0  0
  7  9  1  0  0  0  0
 10 11  2  0  0  0  0
 10 22  1  0  0  0  0
 12 13  1  0  0  0  0
 12 23  1  0  0  0  0
 13 18  1  0  0  0  0
 13 14  1  0  0  0  0
 13 24  1  0  0  0  0
 14 15  1  0  0  0  0
 14 25  1  0  0  0  0
 14 26  1  0  0  0  0
 15 16  1  0  0  0  0
 15 27  1  0  0  0  0
 15 28  1  0  0  0  0
 16 17  1  0  0  0  0
 16 29  1  0  0  0  0
 16 30  1  0  0  0  0
 17 18  1  0  0  0  0
 17 31  1  0  0  0  0
 17 32  1  0  0  0  0
 18 33  1  0  0  0  0
 18 34  1  0  0  0  0
M  CHG  1   9  -1
M  END
> <s_m_source_file>
AV-unprocessed.smi

> <i_m_source_file_index>
808

> <i_lp_mmshare_version>
43012

> <i_f3d_flags>
0

> <s_epik_input>
Tz1DKFtPSF0pYyhbY0hdbjEpW2NIXW4xW0NIMl1DKD1PKVtOSF1bQ0hdMltDSDJdW0NIMl1bQ0gyXVtDSDJdW0NIMl0y

> <s_epik_cmdline>
J2VwaWtfcHl0aG9uJywgJy1waCcsICc3LjAnLCAnLXRuJywgJzgnLCAnLW1hJywgJzIwMCcsICctbWV0YWxfYmluZGluZycsICctaW1hZScsICc8aW5maWxlLm1hZT4nLCAnLW9tYWUnLCAnPG91dGZpbGUubWFlPic=

> <r_epik_Ionization_Penalty>
0.00097052

> <r_epik_Ionization_Penalty_Charging>
0.000938868

> <r_epik_Ionization_Penalty_Neutral>
3.16514e-05

> <r_epik_State_Penalty>
0.000609423

> <r_epik_Charging_Adjusted_Penalty>
0.00154829

> <i_epik_Tot_Q>
-1

> <i_epik_Tot_abs_Q>
1

> <r_epik_Metal_State_Penalty>
-0

> <b_epik_Metal_Only>
0

> <s_lp_Force_Field>
OPLS_2005

> <r_lp_Energy>
12.0504

> <b_lp_Chiralities_Consistent>
1

> <s_lp_Variant>
AV-unprocessed.smi:808-1

> <Gold.Version>
5.8.1

> <Gold.Id.Protein>
6NUR|6NUR_protein|mol2

> <Gold.PLP.Fitness>
50.7573

> <Gold.PLP.PLP>
-36.3884

> <Gold.PLP.part.hbond>
-2.9621

> <Gold.PLP.part.metal>
0.0000

> <Gold.PLP.part.buried>
-4.7972

> <Gold.PLP.part.nonpolar>
-30.5987

> <Gold.PLP.part.repulsive>
0.4987

> <Gold.PLP.ligand.clash>
0.0000

> <Gold.PLP.ligand.torsion>
0.4241

> <Gold.PLP.Chemscore.Hbond>
3.9913

> <Gold.PLP.Chemscore.CHOScore>
1.0674

> <Gold.PLP.Chemscore.Metal>
0.0000

> <Gold.Chemscore.Hbonds>
donor molecule, donor type, donor heavy atom, donor atom, acceptor molecule, acceptor atom, score
      L1  H    12    23       P1  8028  1.00
      P1  H  7989  7998       L1    11  1.00
      P1  H 10752 10765       L1     9  2.00
      L1  C    10    22       P1  7948  0.04
      L1  C    10    22       P1  7949  1.00

> <Gold.PLP.Chemscore.Internal.Correction>
0.0412

> <Gold.Rescore>
     Score         DG    S(hbond)    S(metal)    S(lipo)     H(rot)  DE(clash)    DE(int)     intcor
     18.37     -21.88       2.83        0.00      94.20       1.59       0.54       2.97       ----

> <Gold.Chemscore.Fitness>
18.3737

> <Gold.Chemscore.DG>
-21.8818

> <Gold.Chemscore.ZeroCoef>
-5.4800

> <Gold.Chemscore.Hbond>
2.8299

> <Gold.Chemscore.Metal>
0.0000

> <Gold.Chemscore.Lipo>
94.2004

> <Gold.Chemscore.Internal_Hbond>
0.0000

> <Gold.Chemscore.DEClash>
0.5375

> <Gold.Chemscore.DEInternal>
2.9705

> <Gold.Chemscore.Rot>
1.5904

> <Gold.Chemscore.Internal.Correction>
   9.000000E+99

> <Gold.Chemscore.Hbonds>
donor molecule, donor type, donor heavy atom, donor atom, acceptor molecule, acceptor atom, score
      L1  H    12    23       P1  8028  0.99
      P1  H  7989  7998       L1    11  0.74
      P1  H 10752 10765       L1     9  0.98

> <Gold.Chemscore.Hbond.Weighted>
-9.4517

> <Gold.Chemscore.Metal.Weighted>
-0.0000

> <Gold.Chemscore.Lipo.Weighted>
-11.0214

> <Gold.Chemscore.Internal_Hbond.Weighted>
0.0000

> <Gold.Chemscore.DEClash.Weighted>
0.5375

> <Gold.Chemscore.DEInternal.Weighted>
2.9705

> <Gold.Chemscore.Rot.Weighted>
4.0714

> <Gold.Chemscore.Internal.Correction.Weighted>
   9.000000E+99

> <Gold.Protein.RotatedTorsions>
[ 6907 6896 6895 6894 ] final  -41.32 input  -60.11 | X-H torsion
[ 7974 7965 7964 7962 ] final  155.71 input  175.53 | X-H torsion
[ 8008 7997 7996 7995 ] final -143.23 input   59.86 | X-H torsion
[ 10167 10162 10161 10158 ] final -154.03 input  -65.29 | X-H torsion
[ 10718 10713 10712 10709 ] final   84.33 input   66.30 | X-H torsion
[ 10763 10752 10751 10750 ] final -179.64 input  -60.55 | X-H torsion
[ 11005 11000 10999 10996 ] final -123.39 input  -57.11 | X-H torsion

> <Gold.Protein.ActiveResidues>
 VAL166  LYS551  ARG553  GLY616  TRP617  ASP618  TYR619  PRO620  LYS621  CYS622 
 ASP623  PHE694  ASN695  SER759  ASP760  ASP761  ALA762  ILE779  LEU786  VAL792 
 PHE793  MET794  SER795  GLU796  ALA797  LYS798  CYS799  TRP800  GLU811  SER814 

> <Gold.Protein.RotatedAtoms>
  150.9681  134.9059  159.7771 H   0  0  0  0  0  0  0  0  0  0  0  0  # atno 6907 bound_to 6896
  152.5180  134.3578  159.9284 H   0  0  0  0  0  0  0  0  0  0  0  0  # atno 6908 bound_to 6896
  151.3588  133.3856  159.2722 H   0  0  0  0  0  0  0  0  0  0  0  0  # atno 6909 bound_to 6896
  144.8008  139.7105  143.6183 H   0  0  0  0  0  0  0  0  0  0  0  0  # atno 7974 bound_to 7965
  155.5072  140.0580  157.2929 H   0  0  0  0  0  0  0  0  0  0  0  0  # atno 8008 bound_to 7997
  154.4565  140.1975  156.0314 H   0  0  0  0  0  0  0  0  0  0  0  0  # atno 8009 bound_to 7997
  156.0808  140.3247  155.7696 H   0  0  0  0  0  0  0  0  0  0  0  0  # atno 8010 bound_to 7997
  139.7048  143.9205  152.2444 H   0  0  0  0  0  0  0  0  0  0  0  0  # atno 10167 bound_to 10162
  157.6896  131.0129  150.2657 H   0  0  0  0  0  0  0  0  0  0  0  0  # atno 10718 bound_to 10713
  154.5325  135.2800  155.1168 H   0  0  0  0  0  0  0  0  0  0  0  0  # atno 10763 bound_to 10752
  154.2682  135.6308  153.5304 H   0  0  0  0  0  0  0  0  0  0  0  0  # atno 10764 bound_to 10752
  152.9960  135.5622  154.5842 H   0  0  0  0  0  0  0  0  0  0  0  0  # atno 10765 bound_to 10752
  140.9922  134.0522  157.3640 H   0  0  0  0  0  0  0  0  0  0  0  0  # atno 11005 bound_to 11000
  146.2288  139.5774  142.9569 LP  0  0  0  0  0  0  0  0  0  0  0  0  # atno 17320 bound_to 7965
  145.5559  141.0409  143.2253 LP  0  0  0  0  0  0  0  0  0  0  0  0  # atno 17321 bound_to 7965
  139.9057  144.6886  150.8616 LP  0  0  0  0  0  0  0  0  0  0  0  0  # atno 17342 bound_to 10162
  140.7719  143.3480  151.2071 LP  0  0  0  0  0  0  0  0  0  0  0  0  # atno 17343 bound_to 10162
  156.3228  130.3788  149.7559 LP  0  0  0  0  0  0  0  0  0  0  0  0  # atno 17370 bound_to 10713
  156.5124  130.8178  151.3174 LP  0  0  0  0  0  0  0  0  0  0  0  0  # atno 17371 bound_to 10713
  139.8998  135.0160  156.7211 LP  0  0  0  0  0  0  0  0  0  0  0  0  # atno 17394 bound_to 11000
  140.7022  133.9297  155.8031 LP  0  0  0  0  0  0  0  0  0  0  0  0  # atno 17395 bound_to 11000

$$$$
