AV-unprocessed.smi:33|AV-procd|sdf|209|dock9
  -GOLD-   2262015503D 1   1.00000     0.00000
 Structure written by MMmdl.
 67 72  0  0  0  0  0  0  0  0  1 V2000
  152.2816  140.5127  158.6410 O   0  0  0  0  0  0  0  0  0  0  0  0
  151.9985  141.5968  158.1270 C   0  0  0  0  0  0  0  0  0  0  0  0
  151.6547  141.7417  156.8322 O   0  0  0  0  0  0  0  0  0  0  0  0
  151.0776  140.6566  156.1243 C   0  0  0  0  0  0  0  0  0  0  0  0
  149.5817  140.9255  155.9084 C   0  0  2  0  0  0  0  0  0  0  0  0
  148.8055  139.9657  156.6352 O   0  0  0  0  0  0  0  0  0  0  0  0
  148.1257  139.1143  155.7603 C   0  0  2  0  0  0  0  0  0  0  0  0
  148.2353  137.7082  156.2580 N   0  0  0  0  0  0  0  0  0  0  0  0
  149.3401  136.8899  156.1755 C   0  0  0  0  0  0  0  0  0  0  0  0
  149.2012  135.7022  156.6983 N   0  0  0  0  0  0  0  0  0  0  0  0
  147.8966  135.6968  157.1728 C   0  0  0  0  0  0  0  0  0  0  0  0
  147.0965  134.7351  157.8471 C   0  0  0  0  0  0  0  0  0  0  0  0
  147.5521  133.5032  158.1769 N   0  0  0  0  0  0  0  0  0  0  0  0
  148.1484  132.6932  157.1037 C   0  0  0  0  0  0  0  0  0  0  0  0
  148.9501  131.8015  157.3899 O   0  0  0  0  0  0  0  0  0  0  0  0
  147.8359  132.9835  155.6626 C   0  0  0  0  0  0  0  0  0  0  0  0
  146.5135  133.2937  155.2763 C   0  0  0  0  0  0  0  0  0  0  0  0
  146.2147  133.5774  153.9296 C   0  0  0  0  0  0  0  0  0  0  0  0
  147.2389  133.5710  152.9637 C   0  0  0  0  0  0  0  0  0  0  0  0
  148.5643  133.2913  153.3467 C   0  0  0  0  0  0  0  0  0  0  0  0
  148.8641  133.0070  154.6932 C   0  0  0  0  0  0  0  0  0  0  0  0
  147.3957  133.0865  159.5781 C   0  0  0  0  0  0  0  0  0  0  0  0
  147.3242  131.8869  159.8510 O   0  0  0  0  0  0  0  0  0  0  0  0
  147.2787  134.1123  160.6698 C   0  0  0  0  0  0  0  0  0  0  0  0
  146.4332  133.8756  161.7760 C   0  0  0  0  0  0  0  0  0  0  0  0
  146.3332  134.8268  162.8098 C   0  0  0  0  0  0  0  0  0  0  0  0
  147.0910  136.0121  162.7531 C   0  0  0  0  0  0  0  0  0  0  0  0
  147.9576  136.2413  161.6675 C   0  0  0  0  0  0  0  0  0  0  0  0
  148.0582  135.2906  160.6335 C   0  0  0  0  0  0  0  0  0  0  0  0
  145.8245  135.0803  158.1751 N   0  0  0  0  0  0  0  0  0  0  0  0
  145.3661  136.2954  157.8616 C   0  0  0  0  0  0  0  0  0  0  0  0
  146.0010  137.2904  157.2386 N   0  0  0  0  0  0  0  0  0  0  0  0
  147.2786  136.9496  156.9046 C   0  0  0  0  0  0  0  0  0  0  0  0
  148.7943  139.2652  154.3975 C   0  0  1  0  0  0  0  0  0  0  0  0
  147.9346  139.0064  153.3056 O   0  0  0  0  0  0  0  0  0  0  0  0
  149.1703  140.7365  154.4462 C   0  0  1  0  0  0  0  0  0  0  0  0
  148.1041  141.5095  154.2201 F   0  0  0  0  0  0  0  0  0  0  0  0
  151.9989  142.8864  158.8755 C   0  0  0  0  0  0  0  0  0  0  0  0
  151.6171  144.0739  158.2085 C   0  0  0  0  0  0  0  0  0  0  0  0
  151.6064  145.3071  158.8888 C   0  0  0  0  0  0  0  0  0  0  0  0
  151.9781  145.3680  160.2443 C   0  0  0  0  0  0  0  0  0  0  0  0
  152.3610  144.1939  160.9188 C   0  0  0  0  0  0  0  0  0  0  0  0
  152.3723  142.9596  160.2402 C   0  0  0  0  0  0  0  0  0  0  0  0
  151.5819  140.5641  155.1618 H   0  0  0  0  0  0  0  0  0  0  0  0
  151.2240  139.7149  156.6527 H   0  0  0  0  0  0  0  0  0  0  0  0
  149.3437  141.9342  156.2488 H   0  0  0  0  0  0  0  0  0  0  0  0
  147.0601  139.3492  155.7596 H   0  0  0  0  0  0  0  0  0  0  0  0
  150.2646  137.2085  155.7164 H   0  0  0  0  0  0  0  0  0  0  0  0
  145.7189  133.3004  156.0085 H   0  0  0  0  0  0  0  0  0  0  0  0
  145.1989  133.8000  153.6379 H   0  0  0  0  0  0  0  0  0  0  0  0
  147.0090  133.7872  151.9307 H   0  0  0  0  0  0  0  0  0  0  0  0
  149.3520  133.2952  152.6079 H   0  0  0  0  0  0  0  0  0  0  0  0
  149.8859  132.7983  154.9759 H   0  0  0  0  0  0  0  0  0  0  0  0
  145.8478  132.9690  161.8307 H   0  0  0  0  0  0  0  0  0  0  0  0
  145.6761  134.6461  163.6474 H   0  0  0  0  0  0  0  0  0  0  0  0
  147.0137  136.7412  163.5461 H   0  0  0  0  0  0  0  0  0  0  0  0
  148.5471  137.1455  161.6282 H   0  0  0  0  0  0  0  0  0  0  0  0
  148.7309  135.4746  159.8081 H   0  0  0  0  0  0  0  0  0  0  0  0
  144.3463  136.5018  158.1522 H   0  0  0  0  0  0  0  0  0  0  0  0
  149.6879  138.6406  154.3488 H   0  0  0  0  0  0  0  0  0  0  0  0
  148.0499  139.6916  152.6650 H   0  0  0  0  0  0  0  0  0  0  0  0
  149.9409  141.0178  153.7276 H   0  0  0  0  0  0  0  0  0  0  0  0
  151.3271  144.0521  157.1677 H   0  0  0  0  0  0  0  0  0  0  0  0
  151.3120  146.2070  158.3691 H   0  0  0  0  0  0  0  0  0  0  0  0
  151.9697  146.3137  160.7658 H   0  0  0  0  0  0  0  0  0  0  0  0
  152.6469  144.2393  161.9596 H   0  0  0  0  0  0  0  0  0  0  0  0
  152.6718  142.0778  160.7877 H   0  0  0  0  0  0  0  0  0  0  0  0
  1  2  2  0  0  0  0
  2  3  1  0  0  0  0
  2 38  1  0  0  0  0
  3  4  1  0  0  0  0
  4  5  1  0  0  0  0
  4 44  1  0  0  0  0
  4 45  1  0  0  0  0
  5 36  1  0  0  0  0
  5  6  1  0  0  0  0
  5 46  1  0  0  0  0
  6  7  1  0  0  0  0
  7  8  1  0  0  0  0
  7 34  1  0  0  0  0
  7 47  1  0  0  0  0
  8 33  1  0  0  0  0
  8  9  1  0  0  0  0
  9 10  2  0  0  0  0
  9 48  1  0  0  0  0
 10 11  1  0  0  0  0
 11 33  2  0  0  0  0
 11 12  1  0  0  0  0
 12 13  1  0  0  0  0
 12 30  2  0  0  0  0
 13 14  1  0  0  0  0
 13 22  1  0  0  0  0
 14 15  2  0  0  0  0
 14 16  1  0  0  0  0
 16 21  1  0  0  0  0
 16 17  2  0  0  0  0
 17 18  1  0  0  0  0
 17 49  1  0  0  0  0
 18 19  2  0  0  0  0
 18 50  1  0  0  0  0
 19 20  1  0  0  0  0
 19 51  1  0  0  0  0
 20 21  2  0  0  0  0
 20 52  1  0  0  0  0
 21 53  1  0  0  0  0
 22 23  2  0  0  0  0
 22 24  1  0  0  0  0
 24 29  1  0  0  0  0
 24 25  2  0  0  0  0
 25 26  1  0  0  0  0
 25 54  1  0  0  0  0
 26 27  2  0  0  0  0
 26 55  1  0  0  0  0
 27 28  1  0  0  0  0
 27 56  1  0  0  0  0
 28 29  2  0  0  0  0
 28 57  1  0  0  0  0
 29 58  1  0  0  0  0
 30 31  1  0  0  0  0
 31 32  2  0  0  0  0
 31 59  1  0  0  0  0
 32 33  1  0  0  0  0
 34 35  1  0  0  0  0
 34 36  1  0  0  0  0
 34 60  1  0  0  0  0
 35 61  1  0  0  0  0
 36 37  1  0  0  0  0
 36 62  1  0  0  0  0
 38 43  1  0  0  0  0
 38 39  2  0  0  0  0
 39 40  1  0  0  0  0
 39 63  1  0  0  0  0
 40 41  2  0  0  0  0
 40 64  1  0  0  0  0
 41 42  1  0  0  0  0
 41 65  1  0  0  0  0
 42 43  2  0  0  0  0
 42 66  1  0  0  0  0
 43 67  1  0  0  0  0
M  END
> <s_m_source_file>
AV-unprocessed.smi

> <i_m_source_file_index>
33

> <i_lp_mmshare_version>
43012

> <i_f3d_flags>
0

> <s_epik_input>
W2NIXTFbY0hdW2NIXVtjSF1bY0hdYzFDKD1PKU9bQ0gyXVtDQEBIXTJPW0NASF0oW0NAQEhdKFtPSF0pW0NAQEhdMkYpbihbY0hdbjMpYyhjMzQpbltjSF1uYzROKEMoPU8pYzVbY0hdW2NIXVtjSF1bY0hdW2NIXTUpQyg9TyljNltjSF1bY0hdW2NIXVtjSF1bY0hdNg==

> <s_epik_cmdline>
J2VwaWtfcHl0aG9uJywgJy1waCcsICc3LjAnLCAnLXRuJywgJzgnLCAnLW1hJywgJzIwMCcsICctbWV0YWxfYmluZGluZycsICctaW1hZScsICc8aW5maWxlLm1hZT4nLCAnLW9tYWUnLCAnPG91dGZpbGUubWFlPic=

> <r_lp_tautomer_probability>
1

> <r_epik_Ionization_Penalty>
0.00067664

> <r_epik_Ionization_Penalty_Charging>
0

> <r_epik_Ionization_Penalty_Neutral>
0.00067664

> <r_epik_State_Penalty>
0.000428095

> <r_epik_Charging_Adjusted_Penalty>
0.000428095

> <i_epik_Tot_Q>
0

> <i_epik_Tot_abs_Q>
0

> <r_epik_Metal_State_Penalty>
-0

> <b_epik_Metal_Only>
0

> <s_epik_Chemistry_Notes>
This compound has an ester and may undergo hydrolysis at high or low pH. This compound contains an acetal/aminal-like group ( X-CH(R)-Y where X, Y are N, S, or O) that may be acid/base labile, releasing an aldehyde.

> <s_lp_Force_Field>
OPLS_2005

> <r_lp_Energy>
71.9351

> <b_lp_Chiralities_Consistent>
1

> <s_lp_Variant>
AV-unprocessed.smi:33-11

> <Gold.Version>
5.8.1

> <Gold.Id.Protein>
6NUR|6NUR_protein|mol2

> <Gold.PLP.Fitness>
63.6368

> <Gold.PLP.PLP>
-65.4501

> <Gold.PLP.part.hbond>
-2.0000

> <Gold.PLP.part.metal>
0.0000

> <Gold.PLP.part.buried>
-4.4494

> <Gold.PLP.part.nonpolar>
-58.5966

> <Gold.PLP.part.repulsive>
0.0287

> <Gold.PLP.ligand.clash>
0.0158

> <Gold.PLP.ligand.torsion>
4.5094

> <Gold.PLP.Chemscore.Hbond>
0.9760

> <Gold.PLP.Chemscore.CHOScore>
0.0000

> <Gold.PLP.Chemscore.Metal>
0.0000

> <Gold.Chemscore.Hbonds>
donor molecule, donor type, donor heavy atom, donor atom, acceptor molecule, acceptor atom, score
      L1  H    35    61       P1  7957  0.40

> <Gold.PLP.Chemscore.Internal.Correction>
4.2932

> <Gold.Rescore>
     Score         DG    S(hbond)    S(metal)    S(lipo)     H(rot)  DE(clash)    DE(int)     intcor
     12.35     -22.03       0.98        0.00     168.58       2.52       1.16       8.52       ----

> <Gold.Chemscore.Fitness>
12.3513

> <Gold.Chemscore.DG>
-22.0293

> <Gold.Chemscore.ZeroCoef>
-5.4800

> <Gold.Chemscore.Hbond>
0.9848

> <Gold.Chemscore.Metal>
0.0000

> <Gold.Chemscore.Lipo>
168.5762

> <Gold.Chemscore.Internal_Hbond>
0.0000

> <Gold.Chemscore.DEClash>
1.1594

> <Gold.Chemscore.DEInternal>
8.5186

> <Gold.Chemscore.Rot>
2.5247

> <Gold.Chemscore.Internal.Correction>
   9.000000E+99

> <Gold.Chemscore.Hbonds>
donor molecule, donor type, donor heavy atom, donor atom, acceptor molecule, acceptor atom, score
      L1  H    35    61       P1  7957  0.40

> <Gold.Chemscore.Hbond.Weighted>
-3.2892

> <Gold.Chemscore.Metal.Weighted>
-0.0000

> <Gold.Chemscore.Lipo.Weighted>
-19.7234

> <Gold.Chemscore.Internal_Hbond.Weighted>
0.0000

> <Gold.Chemscore.DEClash.Weighted>
1.1594

> <Gold.Chemscore.DEInternal.Weighted>
8.5186

> <Gold.Chemscore.Rot.Weighted>
6.4633

> <Gold.Chemscore.Internal.Correction.Weighted>
   9.000000E+99

> <Gold.Protein.RotatedTorsions>
[ 6907 6896 6895 6894 ] final   80.72 input  -60.11 | X-H torsion
[ 7974 7965 7964 7962 ] final  165.95 input  175.53 | X-H torsion
[ 8008 7997 7996 7995 ] final   42.72 input   59.86 | X-H torsion
[ 10167 10162 10161 10158 ] final -152.76 input  -65.29 | X-H torsion
[ 10718 10713 10712 10709 ] final   18.42 input   66.30 | X-H torsion
[ 10763 10752 10751 10750 ] final  132.43 input  -60.55 | X-H torsion
[ 11005 11000 10999 10996 ] final  100.78 input  -57.11 | X-H torsion

> <Gold.Protein.ActiveResidues>
 VAL166  LYS551  ARG553  GLY616  TRP617  ASP618  TYR619  PRO620  LYS621  CYS622 
 ASP623  PHE694  ASN695  SER759  ASP760  ASP761  ALA762  ILE779  LEU786  VAL792 
 PHE793  MET794  SER795  GLU796  ALA797  LYS798  CYS799  TRP800  GLU811  SER814 

> <Gold.Protein.RotatedAtoms>
  152.5244  134.3314  159.9183 H   0  0  0  0  0  0  0  0  0  0  0  0  # atno 6907 bound_to 6896
  151.3263  133.4012  159.2666 H   0  0  0  0  0  0  0  0  0  0  0  0  # atno 6908 bound_to 6896
  150.9917  134.9268  159.7961 H   0  0  0  0  0  0  0  0  0  0  0  0  # atno 6909 bound_to 6896
  144.7481  139.8545  143.6375 H   0  0  0  0  0  0  0  0  0  0  0  0  # atno 7974 bound_to 7965
  155.2909  140.3379  155.4252 H   0  0  0  0  0  0  0  0  0  0  0  0  # atno 8008 bound_to 7997
  156.2046  140.1746  156.7866 H   0  0  0  0  0  0  0  0  0  0  0  0  # atno 8009 bound_to 7997
  154.5604  140.0688  156.8794 H   0  0  0  0  0  0  0  0  0  0  0  0  # atno 8010 bound_to 7997
  139.7154  143.9041  152.2484 H   0  0  0  0  0  0  0  0  0  0  0  0  # atno 10167 bound_to 10162
  157.0961  130.6448  149.5861 H   0  0  0  0  0  0  0  0  0  0  0  0  # atno 10718 bound_to 10713
  153.7906  135.3155  155.3378 H   0  0  0  0  0  0  0  0  0  0  0  0  # atno 10763 bound_to 10752
  154.8127  135.4656  154.0562 H   0  0  0  0  0  0  0  0  0  0  0  0  # atno 10764 bound_to 10752
  153.1879  135.6904  153.8477 H   0  0  0  0  0  0  0  0  0  0  0  0  # atno 10765 bound_to 10752
  139.8771  134.9155  156.4807 H   0  0  0  0  0  0  0  0  0  0  0  0  # atno 11005 bound_to 11000
  146.1392  139.4445  143.0119 LP  0  0  0  0  0  0  0  0  0  0  0  0  # atno 17320 bound_to 7965
  145.7044  141.0126  143.1487 LP  0  0  0  0  0  0  0  0  0  0  0  0  # atno 17321 bound_to 7965
  139.8922  144.6959  150.8757 LP  0  0  0  0  0  0  0  0  0  0  0  0  # atno 17342 bound_to 10162
  140.7742  143.3577  151.1888 LP  0  0  0  0  0  0  0  0  0  0  0  0  # atno 17343 bound_to 10162
  155.9885  130.4929  150.7174 LP  0  0  0  0  0  0  0  0  0  0  0  0  # atno 17370 bound_to 10713
  157.4680  131.0890  151.0674 LP  0  0  0  0  0  0  0  0  0  0  0  0  # atno 17371 bound_to 10713
  140.8729  133.7975  155.9384 LP  0  0  0  0  0  0  0  0  0  0  0  0  # atno 17394 bound_to 11000
  140.8934  134.2467  157.5082 LP  0  0  0  0  0  0  0  0  0  0  0  0  # atno 17395 bound_to 11000

$$$$
