AV-unprocessed.smi:1610|AV-procd|sdf|6472|dock2
  -GOLD-   22720 7133D 1   1.00000     0.00000
 Structure written by MMmdl.
 43 44  0  0  0  0  0  0  0  0  2 V2000
  145.2971  143.6069  161.6128 C   0  0  0  0  0  0  0  0  0  0  0  0
  146.2543  143.6248  160.0455 S   0  0  0  0  0  0  0  0  0  0  0  0
  146.2587  142.2345  159.5629 O   0  0  0  0  0  0  0  0  0  0  0  0
  145.6041  144.6320  159.1921 O   0  0  0  0  0  0  0  0  0  0  0  0
  147.7034  144.1032  160.5924 N   0  5  0  0  0  0  0  0  0  0  0  0
  148.7769  144.4047  159.6560 C   0  0  0  0  0  0  0  0  0  0  0  0
  149.1951  143.1102  158.9052 C   0  0  0  0  0  0  0  0  0  0  0  0
  150.5129  143.2565  158.0945 C   0  0  0  0  0  0  0  0  0  0  0  0
  151.6088  143.6982  158.9816 N   0  0  0  0  0  0  0  0  0  0  0  0
  152.5698  142.9166  159.5331 C   0  0  0  0  0  0  0  0  0  0  0  0
  153.1930  143.2342  160.5471 O   0  0  0  0  0  0  0  0  0  0  0  0
  152.7493  141.7344  158.9179 N   0  0  0  0  0  0  0  0  0  0  0  0
  153.5002  140.6025  159.4580 C   0  0  0  0  0  0  0  0  0  0  0  0
  154.8765  141.0405  160.0012 C   0  0  0  0  0  0  0  0  0  0  0  0
  155.4714  140.1048  161.0453 C   0  0  0  0  0  0  0  0  0  0  0  0
  154.8144  139.8590  162.2699 C   0  0  0  0  0  0  0  0  0  0  0  0
  155.3874  138.9494  163.1792 C   0  0  0  0  0  0  0  0  0  0  0  0
  156.6056  138.3320  162.8335 C   0  0  0  0  0  0  0  0  0  0  0  0
  157.2571  138.5774  161.6768 N   0  0  0  0  0  0  0  0  0  0  0  0
  156.6947  139.4423  160.8057 C   0  0  0  0  0  0  0  0  0  0  0  0
  151.2965  145.0391  159.5059 C   0  0  0  0  0  0  0  0  0  0  0  0
  150.0205  144.9795  160.3939 C   0  0  0  0  0  0  0  0  0  0  0  0
  144.2761  143.2870  161.4082 H   0  0  0  0  0  0  0  0  0  0  0  0
  145.2854  144.6084  162.0421 H   0  0  0  0  0  0  0  0  0  0  0  0
  145.7618  142.9147  162.3144 H   0  0  0  0  0  0  0  0  0  0  0  0
  148.4643  145.1306  158.9044 H   0  0  0  0  0  0  0  0  0  0  0  0
  149.3295  142.3019  159.6234 H   0  0  0  0  0  0  0  0  0  0  0  0
  148.3895  142.7936  158.2420 H   0  0  0  0  0  0  0  0  0  0  0  0
  150.7326  142.3204  157.5814 H   0  0  0  0  0  0  0  0  0  0  0  0
  150.3894  143.9855  157.2908 H   0  0  0  0  0  0  0  0  0  0  0  0
  152.2089  141.5591  158.0833 H   0  0  0  0  0  0  0  0  0  0  0  0
  152.9182  140.1333  160.2513 H   0  0  0  0  0  0  0  0  0  0  0  0
  153.6452  139.8338  158.6978 H   0  0  0  0  0  0  0  0  0  0  0  0
  155.5742  141.1173  159.1664 H   0  0  0  0  0  0  0  0  0  0  0  0
  154.8042  142.0415  160.4271 H   0  0  0  0  0  0  0  0  0  0  0  0
  153.8763  140.3411  162.5013 H   0  0  0  0  0  0  0  0  0  0  0  0
  154.9012  138.7234  164.1164 H   0  0  0  0  0  0  0  0  0  0  0  0
  157.0703  137.6249  163.5047 H   0  0  0  0  0  0  0  0  0  0  0  0
  157.2353  139.6001  159.8843 H   0  0  0  0  0  0  0  0  0  0  0  0
  152.1222  145.4549  160.0848 H   0  0  0  0  0  0  0  0  0  0  0  0
  151.1592  145.7325  158.6733 H   0  0  0  0  0  0  0  0  0  0  0  0
  149.7998  145.9784  160.7701 H   0  0  0  0  0  0  0  0  0  0  0  0
  150.2393  144.3675  161.2709 H   0  0  0  0  0  0  0  0  0  0  0  0
  1  2  1  0  0  0  0
  1 23  1  0  0  0  0
  1 24  1  0  0  0  0
  1 25  1  0  0  0  0
  2  3  2  0  0  0  0
  2  4  2  0  0  0  0
  2  5  1  0  0  0  0
  5  6  1  0  0  0  0
  6 22  1  0  0  0  0
  6  7  1  0  0  0  0
  6 26  1  0  0  0  0
  7  8  1  0  0  0  0
  7 27  1  0  0  0  0
  7 28  1  0  0  0  0
  8  9  1  0  0  0  0
  8 29  1  0  0  0  0
  8 30  1  0  0  0  0
  9 10  1  0  0  0  0
  9 21  1  0  0  0  0
 10 11  2  0  0  0  0
 10 12  1  0  0  0  0
 12 13  1  0  0  0  0
 12 31  1  0  0  0  0
 13 14  1  0  0  0  0
 13 32  1  0  0  0  0
 13 33  1  0  0  0  0
 14 15  1  0  0  0  0
 14 34  1  0  0  0  0
 14 35  1  0  0  0  0
 15 20  1  0  0  0  0
 15 16  2  0  0  0  0
 16 17  1  0  0  0  0
 16 36  1  0  0  0  0
 17 18  2  0  0  0  0
 17 37  1  0  0  0  0
 18 19  1  0  0  0  0
 18 38  1  0  0  0  0
 19 20  2  0  0  0  0
 20 39  1  0  0  0  0
 21 22  1  0  0  0  0
 21 40  1  0  0  0  0
 21 41  1  0  0  0  0
 22 42  1  0  0  0  0
 22 43  1  0  0  0  0
M  CHG  1   5  -1
M  END
> <s_m_source_file>
AV-unprocessed.smi

> <i_m_source_file_index>
1610

> <i_lp_mmshare_version>
43012

> <i_f3d_flags>
0

> <s_epik_input>
W0NIM11TKD1PKSg9TylbTkhdW0NIXTFbQ0gyXVtDSDJdTihbQ0gyXVtDSDJdMSlDKD1PKVtOSF1bQ0gyXVtDSDJdYzJbY0hdW2NIXVtjSF1uW2NIXTI=

> <s_epik_cmdline>
J2VwaWtfcHl0aG9uJywgJy1waCcsICc3LjAnLCAnLXRuJywgJzgnLCAnLW1hJywgJzIwMCcsICctbWV0YWxfYmluZGluZycsICctaW1hZScsICc8aW5maWxlLm1hZT4nLCAnLW9tYWUnLCAnPG91dGZpbGUubWFlPic=

> <r_epik_Ionization_Penalty>
6.72257

> <r_epik_Ionization_Penalty_Charging>
6.70803

> <r_epik_Ionization_Penalty_Neutral>
0.0145361

> <r_epik_State_Penalty>
6.71933

> <r_epik_Charging_Adjusted_Penalty>
13.4274

> <i_epik_Tot_Q>
-1

> <i_epik_Tot_abs_Q>
1

> <r_epik_Metal_State_Penalty>
2.65475

> <b_epik_Metal_Only>
1

> <s_lp_Force_Field>
OPLS_2005

> <r_lp_Energy>
25.1746

> <b_lp_Chiralities_Consistent>
1

> <s_lp_Variant>
AV-unprocessed.smi:1610-3

> <Gold.Version>
5.8.1

> <Gold.Id.Protein>
6NUR|6NUR_protein|mol2

> <Gold.PLP.Fitness>
41.4043

> <Gold.PLP.PLP>
-33.1811

> <Gold.PLP.part.hbond>
-2.0000

> <Gold.PLP.part.metal>
0.0000

> <Gold.PLP.part.buried>
-2.2017

> <Gold.PLP.part.nonpolar>
-29.6081

> <Gold.PLP.part.repulsive>
0.3227

> <Gold.PLP.ligand.clash>
0.0000

> <Gold.PLP.ligand.torsion>
0.9609

> <Gold.PLP.Chemscore.Hbond>
3.0000

> <Gold.PLP.Chemscore.CHOScore>
0.0000

> <Gold.PLP.Chemscore.Metal>
0.0000

> <Gold.Chemscore.Hbonds>
donor molecule, donor type, donor heavy atom, donor atom, acceptor molecule, acceptor atom, score
      P1  H  6933  6944       L1     5  1.61
      P1  H  6934  6946       L1     3  1.00

> <Gold.PLP.Chemscore.Internal.Correction>
1.1451

> <Gold.Rescore>
     Score         DG    S(hbond)    S(metal)    S(lipo)     H(rot)  DE(clash)    DE(int)     intcor
     12.32     -14.99       1.13        0.00      85.76       1.68       0.23       2.44       ----

> <Gold.Chemscore.Fitness>
12.3180

> <Gold.Chemscore.DG>
-14.9894

> <Gold.Chemscore.ZeroCoef>
-5.4800

> <Gold.Chemscore.Hbond>
1.1316

> <Gold.Chemscore.Metal>
0.0000

> <Gold.Chemscore.Lipo>
85.7610

> <Gold.Chemscore.Internal_Hbond>
0.0000

> <Gold.Chemscore.DEClash>
0.2330

> <Gold.Chemscore.DEInternal>
2.4384

> <Gold.Chemscore.Rot>
1.6813

> <Gold.Chemscore.Internal.Correction>
   9.000000E+99

> <Gold.Chemscore.Hbonds>
donor molecule, donor type, donor heavy atom, donor atom, acceptor molecule, acceptor atom, score
      P1  H  6933  6944       L1     5  0.08
      P1  H  6934  6946       L1     3  0.96

> <Gold.Chemscore.Hbond.Weighted>
-3.7796

> <Gold.Chemscore.Metal.Weighted>
-0.0000

> <Gold.Chemscore.Lipo.Weighted>
-10.0340

> <Gold.Chemscore.Internal_Hbond.Weighted>
0.0000

> <Gold.Chemscore.DEClash.Weighted>
0.2330

> <Gold.Chemscore.DEInternal.Weighted>
2.4384

> <Gold.Chemscore.Rot.Weighted>
4.3042

> <Gold.Chemscore.Internal.Correction.Weighted>
   9.000000E+99

> <Gold.Protein.RotatedTorsions>
[ 6907 6896 6895 6894 ] final   67.95 input  -60.11 | X-H torsion
[ 7974 7965 7964 7962 ] final  -68.49 input  175.53 | X-H torsion
[ 8008 7997 7996 7995 ] final  -67.66 input   59.86 | X-H torsion
[ 10167 10162 10161 10158 ] final  153.18 input  -65.29 | X-H torsion
[ 10718 10713 10712 10709 ] final  173.95 input   66.30 | X-H torsion
[ 10763 10752 10751 10750 ] final -139.07 input  -60.55 | X-H torsion
[ 11005 11000 10999 10996 ] final  -51.60 input  -57.11 | X-H torsion

> <Gold.Protein.ActiveResidues>
 VAL166  LYS551  ARG553  GLY616  TRP617  ASP618  TYR619  PRO620  LYS621  CYS622 
 ASP623  PHE694  ASN695  SER759  ASP760  ASP761  ALA762  ILE779  LEU786  VAL792 
 PHE793  MET794  SER795  GLU796  ALA797  LYS798  CYS799  TRP800  GLU811  SER814 

> <Gold.Protein.RotatedAtoms>
  152.4587  134.5232  159.9788 H   0  0  0  0  0  0  0  0  0  0  0  0  # atno 6907 bound_to 6896
  151.5287  133.3447  159.2922 H   0  0  0  0  0  0  0  0  0  0  0  0  # atno 6908 bound_to 6896
  150.8542  134.7905  159.7095 H   0  0  0  0  0  0  0  0  0  0  0  0  # atno 6909 bound_to 6896
  145.7158  140.9059  143.0656 H   0  0  0  0  0  0  0  0  0  0  0  0  # atno 7974 bound_to 7965
  154.4815  140.0888  156.7387 H   0  0  0  0  0  0  0  0  0  0  0  0  # atno 8008 bound_to 7997
  155.4459  140.3455  155.4277 H   0  0  0  0  0  0  0  0  0  0  0  0  # atno 8009 bound_to 7997
  156.1198  140.1471  156.9209 H   0  0  0  0  0  0  0  0  0  0  0  0  # atno 8010 bound_to 7997
  139.4828  144.5295  151.7745 H   0  0  0  0  0  0  0  0  0  0  0  0  # atno 10167 bound_to 10162
  156.9567  131.0048  151.2936 H   0  0  0  0  0  0  0  0  0  0  0  0  # atno 10718 bound_to 10713
  154.8619  135.3593  154.5487 H   0  0  0  0  0  0  0  0  0  0  0  0  # atno 10763 bound_to 10752
  153.6106  135.7009  153.5353 H   0  0  0  0  0  0  0  0  0  0  0  0  # atno 10764 bound_to 10752
  153.3213  135.4150  155.1379 H   0  0  0  0  0  0  0  0  0  0  0  0  # atno 10765 bound_to 10752
  141.0880  133.6638  156.3902 H   0  0  0  0  0  0  0  0  0  0  0  0  # atno 11005 bound_to 11000
  144.6929  139.9136  143.7464 LP  0  0  0  0  0  0  0  0  0  0  0  0  # atno 17320 bound_to 7965
  146.0671  139.3661  143.0546 LP  0  0  0  0  0  0  0  0  0  0  0  0  # atno 17321 bound_to 7965
  140.4820  144.1436  150.5934 LP  0  0  0  0  0  0  0  0  0  0  0  0  # atno 17342 bound_to 10162
  140.4267  143.2586  151.9647 LP  0  0  0  0  0  0  0  0  0  0  0  0  # atno 17343 bound_to 10162
  157.5685  130.8294  149.8360 LP  0  0  0  0  0  0  0  0  0  0  0  0  # atno 17370 bound_to 10713
  156.0339  130.3756  150.1612 LP  0  0  0  0  0  0  0  0  0  0  0  0  # atno 17371 bound_to 10713
  140.5318  134.6205  157.5352 LP  0  0  0  0  0  0  0  0  0  0  0  0  # atno 17394 bound_to 11000
  139.9701  134.7307  156.0059 LP  0  0  0  0  0  0  0  0  0  0  0  0  # atno 17395 bound_to 11000

$$$$
