AV-unprocessed.smi:193|AV-procd|sdf|1513|dock5
  -GOLD-   2262019343D 1   1.00000     0.00000
 Structure written by MMmdl.
 61 65  0  0  0  0  0  0  0  0  1 V2000
  147.0888  141.4497  153.4160 C   0  0  0  0  0  0  0  0  0  0  0  0
  147.4711  141.4497  154.9033 C   0  0  1  0  0  0  0  0  0  0  0  0
  146.7150  140.3514  155.6828 C   0  0  0  0  0  0  0  0  0  0  0  0
  147.4028  139.0626  155.7475 N   0  0  0  0  0  0  0  0  0  0  0  0
  146.5480  138.0162  155.6155 C   0  0  0  0  0  0  0  0  0  0  0  0
  146.1426  137.3196  156.7119 N   0  0  0  0  0  0  0  0  0  0  0  0
  145.2751  136.3110  156.5873 C   0  0  0  0  0  0  0  0  0  0  0  0
  144.6945  135.8416  155.4816 N   0  0  0  0  0  0  0  0  0  0  0  0
  145.0988  136.5339  154.3784 C   0  0  0  0  0  0  0  0  0  0  0  0
  146.0107  137.6269  154.3572 C   0  0  0  0  0  0  0  0  0  0  0  0
  146.1749  138.0811  153.0550 N   0  0  0  0  0  0  0  0  0  0  0  0
  145.4028  137.3037  152.3466 C   0  0  0  0  0  0  0  0  0  0  0  0
  144.7253  136.3402  153.0596 N   0  0  0  0  0  0  0  0  0  0  0  0
  143.8065  135.3475  152.5234 C   0  0  0  0  0  0  0  0  0  0  0  0
  144.4850  134.0205  152.0999 C   0  0  0  0  0  0  0  0  0  0  0  0
  144.8596  133.3305  153.2792 O   0  0  0  0  0  0  0  0  0  0  0  0
  143.4932  133.1377  151.3156 C   0  0  0  0  0  0  0  0  0  0  0  0
  144.1678  131.8843  150.7306 C   0  0  0  0  0  0  0  0  0  0  0  0
  145.2771  132.2602  149.9234 O   0  0  0  0  0  0  0  0  0  0  0  0
  146.2945  132.9249  150.6625 C   0  0  0  0  0  0  0  0  0  0  0  0
  145.7518  134.2423  151.2445 C   0  0  0  0  0  0  0  0  0  0  0  0
  148.4011  138.9559  156.8133 C   0  0  0  0  0  0  0  0  0  0  0  0
  149.6954  139.7291  156.5234 C   0  0  0  0  0  0  0  0  0  0  0  0
  149.4831  141.1725  156.4037 N   0  0  0  0  0  0  0  0  0  0  0  0
  150.7718  141.8246  156.5814 C   0  0  2  0  0  0  0  0  0  0  0  0
  151.5611  141.4828  157.8251 C   0  0  0  0  0  0  0  0  0  0  0  0
  150.8920  142.8319  157.7051 C   0  0  1  0  0  0  0  0  0  0  0  0
  151.7154  144.0888  157.5284 C   0  0  0  0  0  0  0  0  0  0  0  0
  149.0076  141.4773  155.0531 C   0  0  0  0  0  0  0  0  0  0  0  0
  147.4523  140.5528  152.9152 H   0  0  0  0  0  0  0  0  0  0  0  0
  147.5182  142.3104  152.9023 H   0  0  0  0  0  0  0  0  0  0  0  0
  146.0074  141.4941  153.2826 H   0  0  0  0  0  0  0  0  0  0  0  0
  147.1020  142.3933  155.3072 H   0  0  0  0  0  0  0  0  0  0  0  0
  146.5700  140.6969  156.7072 H   0  0  0  0  0  0  0  0  0  0  0  0
  145.7061  140.2473  155.2800 H   0  0  0  0  0  0  0  0  0  0  0  0
  145.0048  135.8108  157.5055 H   0  0  0  0  0  0  0  0  0  0  0  0
  145.3105  137.4079  151.2752 H   0  0  0  0  0  0  0  0  0  0  0  0
  143.0310  135.1590  153.2675 H   0  0  0  0  0  0  0  0  0  0  0  0
  143.2999  135.7941  151.6669 H   0  0  0  0  0  0  0  0  0  0  0  0
  144.0959  132.8999  153.6316 H   0  0  0  0  0  0  0  0  0  0  0  0
  142.6529  132.8502  151.9490 H   0  0  0  0  0  0  0  0  0  0  0  0
  143.0704  133.7145  150.4920 H   0  0  0  0  0  0  0  0  0  0  0  0
  144.4911  131.2049  151.5208 H   0  0  0  0  0  0  0  0  0  0  0  0
  143.4575  131.3337  150.1136 H   0  0  0  0  0  0  0  0  0  0  0  0
  146.6726  132.2723  151.4511 H   0  0  0  0  0  0  0  0  0  0  0  0
  147.1329  133.1305  149.9969 H   0  0  0  0  0  0  0  0  0  0  0  0
  145.5145  134.9151  150.4194 H   0  0  0  0  0  0  0  0  0  0  0  0
  146.5340  134.7322  151.8255 H   0  0  0  0  0  0  0  0  0  0  0  0
  147.9691  139.2941  157.7563 H   0  0  0  0  0  0  0  0  0  0  0  0
  148.6736  137.9094  156.9580 H   0  0  0  0  0  0  0  0  0  0  0  0
  150.3631  139.5458  157.3664 H   0  0  0  0  0  0  0  0  0  0  0  0
  150.2066  139.3246  155.6484 H   0  0  0  0  0  0  0  0  0  0  0  0
  151.3712  142.0374  155.6975 H   0  0  0  0  0  0  0  0  0  0  0  0
  151.1280  140.7692  158.5236 H   0  0  0  0  0  0  0  0  0  0  0  0
  152.6445  141.4421  157.7324 H   0  0  0  0  0  0  0  0  0  0  0  0
  150.0047  142.9775  158.3190 H   0  0  0  0  0  0  0  0  0  0  0  0
  152.5975  143.8927  156.9182 H   0  0  0  0  0  0  0  0  0  0  0  0
  152.0395  144.4625  158.4996 H   0  0  0  0  0  0  0  0  0  0  0  0
  151.1191  144.8594  157.0400 H   0  0  0  0  0  0  0  0  0  0  0  0
  149.4781  140.8146  154.3250 H   0  0  0  0  0  0  0  0  0  0  0  0
  149.3303  142.4820  154.7737 H   0  0  0  0  0  0  0  0  0  0  0  0
  1  2  1  0  0  0  0
  1 30  1  0  0  0  0
  1 31  1  0  0  0  0
  1 32  1  0  0  0  0
  2 29  1  0  0  0  0
  2  3  1  0  0  0  0
  2 33  1  0  0  0  0
  3  4  1  0  0  0  0
  3 34  1  0  0  0  0
  3 35  1  0  0  0  0
  4  5  1  0  0  0  0
  4 22  1  0  0  0  0
  5 10  1  0  0  0  0
  5  6  2  0  0  0  0
  6  7  1  0  0  0  0
  7  8  2  0  0  0  0
  7 36  1  0  0  0  0
  8  9  1  0  0  0  0
  9 13  1  0  0  0  0
  9 10  2  0  0  0  0
 10 11  1  0  0  0  0
 11 12  2  0  0  0  0
 12 13  1  0  0  0  0
 12 37  1  0  0  0  0
 13 14  1  0  0  0  0
 14 15  1  0  0  0  0
 14 38  1  0  0  0  0
 14 39  1  0  0  0  0
 15 21  1  0  0  0  0
 15 16  1  0  0  0  0
 15 17  1  0  0  0  0
 16 40  1  0  0  0  0
 17 18  1  0  0  0  0
 17 41  1  0  0  0  0
 17 42  1  0  0  0  0
 18 19  1  0  0  0  0
 18 43  1  0  0  0  0
 18 44  1  0  0  0  0
 19 20  1  0  0  0  0
 20 21  1  0  0  0  0
 20 45  1  0  0  0  0
 20 46  1  0  0  0  0
 21 47  1  0  0  0  0
 21 48  1  0  0  0  0
 22 23  1  0  0  0  0
 22 49  1  0  0  0  0
 22 50  1  0  0  0  0
 23 24  1  0  0  0  0
 23 51  1  0  0  0  0
 23 52  1  0  0  0  0
 24 25  1  0  0  0  0
 24 29  1  0  0  0  0
 25 27  1  0  0  0  0
 25 26  1  0  0  0  0
 25 53  1  0  0  0  0
 26 27  1  0  0  0  0
 26 54  1  0  0  0  0
 26 55  1  0  0  0  0
 27 28  1  0  0  0  0
 27 56  1  0  0  0  0
 28 57  1  0  0  0  0
 28 58  1  0  0  0  0
 28 59  1  0  0  0  0
 29 60  1  0  0  0  0
 29 61  1  0  0  0  0
M  END
> <s_m_source_file>
AV-unprocessed.smi

> <i_m_source_file_index>
193

> <i_lp_mmshare_version>
43012

> <i_f3d_flags>
0

> <s_epik_input>
W0NIM11bQ0BASF0xW0NIMl1bQ0BIXTFOKFtDSDJdMilbQ0gyXVtDSDJdTihbQ0gyXVtDQEhdMltDSDNdKWMobltjSF1uMyljKGMzNCluW2NIXW40W0NIMl1DNShbT0hdKVtDSDJdW0NIMl1PW0NIMl1bQ0gyXTU=

> <s_epik_cmdline>
J2VwaWtfcHl0aG9uJywgJy1waCcsICc3LjAnLCAnLXRuJywgJzgnLCAnLW1hJywgJzIwMCcsICctbWV0YWxfYmluZGluZycsICctaW1hZScsICc8aW5maWxlLm1hZT4nLCAnLW9tYWUnLCAnPG91dGZpbGUubWFlPic=

> <r_lp_tautomer_probability>
1

> <r_epik_Ionization_Penalty>
1.45227

> <r_epik_Ionization_Penalty_Charging>
0

> <r_epik_Ionization_Penalty_Neutral>
1.45227

> <r_epik_State_Penalty>
2.02377

> <r_epik_Charging_Adjusted_Penalty>
2.02377

> <i_epik_Tot_Q>
0

> <i_epik_Tot_abs_Q>
0

> <r_epik_Metal_State_Penalty>
2.01937

> <b_epik_Metal_Only>
0

> <s_lp_Force_Field>
OPLS_2005

> <r_lp_Energy>
55.7491

> <b_lp_Chiralities_Consistent>
1

> <s_lp_Variant>
AV-unprocessed.smi:193-18

> <Gold.Version>
5.8.1

> <Gold.Id.Protein>
6NUR|6NUR_protein|mol2

> <Gold.PLP.Fitness>
41.2041

> <Gold.PLP.PLP>
-37.5230

> <Gold.PLP.part.hbond>
-1.0000

> <Gold.PLP.part.metal>
0.0000

> <Gold.PLP.part.buried>
-8.5230

> <Gold.PLP.part.nonpolar>
-30.2344

> <Gold.PLP.part.repulsive>
0.4522

> <Gold.PLP.ligand.clash>
0.0000

> <Gold.PLP.ligand.torsion>
1.8665

> <Gold.PLP.Chemscore.Hbond>
0.9913

> <Gold.PLP.Chemscore.CHOScore>
1.0000

> <Gold.PLP.Chemscore.Metal>
0.0000

> <Gold.Chemscore.Hbonds>
donor molecule, donor type, donor heavy atom, donor atom, acceptor molecule, acceptor atom, score
      L1  H    16    40       P1 10957  0.70
      L1  C    12    37       P1 10171  1.00

> <Gold.PLP.Chemscore.Internal.Correction>
1.4403

> <Gold.Rescore>
     Score         DG    S(hbond)    S(metal)    S(lipo)     H(rot)  DE(clash)    DE(int)     intcor
     12.99     -14.85       0.97        0.00      99.87       2.17       0.07       1.80       ----

> <Gold.Chemscore.Fitness>
12.9854

> <Gold.Chemscore.DG>
-14.8541

> <Gold.Chemscore.ZeroCoef>
-5.4800

> <Gold.Chemscore.Hbond>
0.9687

> <Gold.Chemscore.Metal>
0.0000

> <Gold.Chemscore.Lipo>
99.8694

> <Gold.Chemscore.Internal_Hbond>
0.0000

> <Gold.Chemscore.DEClash>
0.0659

> <Gold.Chemscore.DEInternal>
1.8028

> <Gold.Chemscore.Rot>
2.1664

> <Gold.Chemscore.Internal.Correction>
   9.000000E+99

> <Gold.Chemscore.Hbonds>
donor molecule, donor type, donor heavy atom, donor atom, acceptor molecule, acceptor atom, score
      L1  H    16    40       P1 10957  0.54

> <Gold.Chemscore.Hbond.Weighted>
-3.2354

> <Gold.Chemscore.Metal.Weighted>
-0.0000

> <Gold.Chemscore.Lipo.Weighted>
-11.6847

> <Gold.Chemscore.Internal_Hbond.Weighted>
0.0000

> <Gold.Chemscore.DEClash.Weighted>
0.0659

> <Gold.Chemscore.DEInternal.Weighted>
1.8028

> <Gold.Chemscore.Rot.Weighted>
5.5459

> <Gold.Chemscore.Internal.Correction.Weighted>
   9.000000E+99

> <Gold.Protein.RotatedTorsions>
[ 6907 6896 6895 6894 ] final   59.24 input  -60.11 | X-H torsion
[ 7974 7965 7964 7962 ] final  -67.60 input  175.53 | X-H torsion
[ 8008 7997 7996 7995 ] final  -22.86 input   59.86 | X-H torsion
[ 10167 10162 10161 10158 ] final  111.08 input  -65.29 | X-H torsion
[ 10718 10713 10712 10709 ] final -152.08 input   66.30 | X-H torsion
[ 10763 10752 10751 10750 ] final  -99.64 input  -60.55 | X-H torsion
[ 11005 11000 10999 10996 ] final   33.82 input  -57.11 | X-H torsion

> <Gold.Protein.ActiveResidues>
 VAL166  LYS551  ARG553  GLY616  TRP617  ASP618  TYR619  PRO620  LYS621  CYS622 
 ASP623  PHE694  ASN695  SER759  ASP760  ASP761  ALA762  ILE779  LEU786  VAL792 
 PHE793  MET794  SER795  GLU796  ALA797  LYS798  CYS799  TRP800  GLU811  SER814 

> <Gold.Protein.RotatedAtoms>
  152.3897  134.6462  160.0112 H   0  0  0  0  0  0  0  0  0  0  0  0  # atno 6907 bound_to 6896
  151.6699  133.3308  159.3202 H   0  0  0  0  0  0  0  0  0  0  0  0  # atno 6908 bound_to 6896
  150.7815  134.6808  159.6487 H   0  0  0  0  0  0  0  0  0  0  0  0  # atno 6909 bound_to 6896
  145.7271  140.9013  143.0599 H   0  0  0  0  0  0  0  0  0  0  0  0  # atno 7974 bound_to 7965
  154.4619  140.1996  156.0222 H   0  0  0  0  0  0  0  0  0  0  0  0  # atno 8008 bound_to 7997
  156.0855  140.3265  155.7720 H   0  0  0  0  0  0  0  0  0  0  0  0  # atno 8009 bound_to 7997
  155.5042  140.0556  157.2925 H   0  0  0  0  0  0  0  0  0  0  0  0  # atno 8010 bound_to 7997
  139.6638  144.7128  151.1814 H   0  0  0  0  0  0  0  0  0  0  0  0  # atno 10167 bound_to 10162
  156.4678  130.8244  151.2474 H   0  0  0  0  0  0  0  0  0  0  0  0  # atno 10718 bound_to 10713
  154.7515  135.4964  153.9297 H   0  0  0  0  0  0  0  0  0  0  0  0  # atno 10763 bound_to 10752
  153.1148  135.6718  153.9445 H   0  0  0  0  0  0  0  0  0  0  0  0  # atno 10764 bound_to 10752
  153.9194  135.3090  155.3427 H   0  0  0  0  0  0  0  0  0  0  0  0  # atno 10765 bound_to 10752
  140.2592  134.3213  155.7863 H   0  0  0  0  0  0  0  0  0  0  0  0  # atno 11005 bound_to 11000
  144.6902  139.9281  143.7470 LP  0  0  0  0  0  0  0  0  0  0  0  0  # atno 17320 bound_to 7965
  146.0572  139.3568  143.0603 LP  0  0  0  0  0  0  0  0  0  0  0  0  # atno 17321 bound_to 7965
  140.7591  143.5951  150.8756 LP  0  0  0  0  0  0  0  0  0  0  0  0  # atno 17342 bound_to 10162
  139.9611  143.6163  152.3002 LP  0  0  0  0  0  0  0  0  0  0  0  0  # atno 17343 bound_to 10162
  157.7493  131.0086  150.3235 LP  0  0  0  0  0  0  0  0  0  0  0  0  # atno 17370 bound_to 10713
  156.3650  130.3853  149.7221 LP  0  0  0  0  0  0  0  0  0  0  0  0  # atno 17371 bound_to 10713
  141.2192  133.7399  156.9159 LP  0  0  0  0  0  0  0  0  0  0  0  0  # atno 17394 bound_to 11000
  140.1482  134.9248  157.2557 LP  0  0  0  0  0  0  0  0  0  0  0  0  # atno 17395 bound_to 11000

$$$$
