AV-unprocessed.smi:763|AV-procd|sdf|3638|dock7
  -GOLD-   22720 1 33D 1   1.00000     0.00000
 Structure written by MMmdl.
 43 44  0  0  0  0  0  0  0  0  2 V2000
  147.5971  136.2663  161.7400 C   0  0  0  0  0  0  0  0  0  0  0  0
  147.7658  136.9913  160.5349 O   0  0  0  0  0  0  0  0  0  0  0  0
  146.9683  136.4833  159.4780 C   0  0  0  0  0  0  0  0  0  0  0  0
  147.4493  137.0899  158.1505 C   0  0  0  0  0  0  0  0  0  0  0  0
  148.8477  137.3765  158.1837 O   0  0  0  0  0  0  0  0  0  0  0  0
  149.4651  137.9632  157.0915 C   0  0  0  0  0  0  0  0  0  0  0  0
  148.9606  137.7070  155.8575 N   0  0  0  0  0  0  0  0  0  0  0  0
  149.5474  138.2782  154.7885 C   0  0  0  0  0  0  0  0  0  0  0  0
  150.6582  139.1310  154.8910 C   0  0  0  0  0  0  0  0  0  0  0  0
  151.1769  139.3960  156.1711 C   0  0  0  0  0  0  0  0  0  0  0  0
  150.5826  138.8079  157.3151 C   0  0  0  0  0  0  0  0  0  0  0  0
  151.0321  139.0206  158.5638 N   0  5  0  0  0  0  0  0  0  0  0  0
  152.4726  139.6333  158.9759 S   0  0  0  0  0  0  0  0  0  0  0  0
  152.9529  139.0724  160.2480 O   0  0  0  0  0  0  0  0  0  0  0  0
  153.4145  139.6165  157.8456 O   0  0  0  0  0  0  0  0  0  0  0  0
  152.0294  141.4164  159.2773 C   0  0  2  0  0  0  0  0  0  0  0  0
  151.5530  142.0557  157.9532 C   0  0  0  0  0  0  0  0  0  0  0  0
  151.2069  143.5414  158.1200 C   0  0  0  0  0  0  0  0  0  0  0  0
  152.4116  144.3197  158.6631 C   0  0  0  0  0  0  0  0  0  0  0  0
  152.8858  143.7222  159.9942 C   0  0  0  0  0  0  0  0  0  0  0  0
  153.2165  142.2214  159.8680 C   0  0  1  0  0  0  0  0  0  0  0  0
  153.5551  141.7717  161.1644 O   0  0  0  0  0  0  0  0  0  0  0  0
  148.2252  136.6992  162.5184 H   0  0  0  0  0  0  0  0  0  0  0  0
  147.8871  135.2222  161.6155 H   0  0  0  0  0  0  0  0  0  0  0  0
  146.5621  136.3043  162.0826 H   0  0  0  0  0  0  0  0  0  0  0  0
  147.0038  135.3936  159.4536 H   0  0  0  0  0  0  0  0  0  0  0  0
  145.9293  136.7694  159.6484 H   0  0  0  0  0  0  0  0  0  0  0  0
  147.1975  136.4418  157.3100 H   0  0  0  0  0  0  0  0  0  0  0  0
  146.9154  138.0221  157.9648 H   0  0  0  0  0  0  0  0  0  0  0  0
  149.1184  138.0491  153.8245 H   0  0  0  0  0  0  0  0  0  0  0  0
  151.1028  139.5719  154.0115 H   0  0  0  0  0  0  0  0  0  0  0  0
  152.0310  140.0512  156.2565 H   0  0  0  0  0  0  0  0  0  0  0  0
  151.2070  141.4237  159.9935 H   0  0  0  0  0  0  0  0  0  0  0  0
  152.3285  141.9577  157.1926 H   0  0  0  0  0  0  0  0  0  0  0  0
  150.6817  141.5232  157.5713 H   0  0  0  0  0  0  0  0  0  0  0  0
  150.8934  143.9597  157.1632 H   0  0  0  0  0  0  0  0  0  0  0  0
  150.3599  143.6481  158.7992 H   0  0  0  0  0  0  0  0  0  0  0  0
  153.2252  144.2939  157.9373 H   0  0  0  0  0  0  0  0  0  0  0  0
  152.1478  145.3689  158.7983 H   0  0  0  0  0  0  0  0  0  0  0  0
  153.7600  144.2693  160.3497 H   0  0  0  0  0  0  0  0  0  0  0  0
  152.1068  143.8663  160.7448 H   0  0  0  0  0  0  0  0  0  0  0  0
  154.0898  142.0983  159.2260 H   0  0  0  0  0  0  0  0  0  0  0  0
  154.4251  142.0760  161.3710 H   0  0  0  0  0  0  0  0  0  0  0  0
  1  2  1  0  0  0  0
  1 23  1  0  0  0  0
  1 24  1  0  0  0  0
  1 25  1  0  0  0  0
  2  3  1  0  0  0  0
  3  4  1  0  0  0  0
  3 26  1  0  0  0  0
  3 27  1  0  0  0  0
  4  5  1  0  0  0  0
  4 28  1  0  0  0  0
  4 29  1  0  0  0  0
  5  6  1  0  0  0  0
  6 11  1  0  0  0  0
  6  7  2  0  0  0  0
  7  8  1  0  0  0  0
  8  9  2  0  0  0  0
  8 30  1  0  0  0  0
  9 10  1  0  0  0  0
  9 31  1  0  0  0  0
 10 11  2  0  0  0  0
 10 32  1  0  0  0  0
 11 12  1  0  0  0  0
 12 13  1  0  0  0  0
 13 14  2  0  0  0  0
 13 15  2  0  0  0  0
 13 16  1  0  0  0  0
 16 21  1  0  0  0  0
 16 17  1  0  0  0  0
 16 33  1  0  0  0  0
 17 18  1  0  0  0  0
 17 34  1  0  0  0  0
 17 35  1  0  0  0  0
 18 19  1  0  0  0  0
 18 36  1  0  0  0  0
 18 37  1  0  0  0  0
 19 20  1  0  0  0  0
 19 38  1  0  0  0  0
 19 39  1  0  0  0  0
 20 21  1  0  0  0  0
 20 40  1  0  0  0  0
 20 41  1  0  0  0  0
 21 22  1  0  0  0  0
 21 42  1  0  0  0  0
 22 43  1  0  0  0  0
M  CHG  1  12  -1
M  END
> <s_m_source_file>
AV-unprocessed.smi

> <i_m_source_file_index>
763

> <i_lp_mmshare_version>
43012

> <i_f3d_flags>
0

> <s_epik_input>
W0NIM11PW0NIMl1bQ0gyXU9jMW5bY0hdW2NIXVtjSF1jMVtOSF1TKD1PKSg9TylbQ0BASF0yW0NIMl1bQ0gyXVtDSDJdW0NIMl1bQ0BIXTJbT0hd

> <s_epik_cmdline>
J2VwaWtfcHl0aG9uJywgJy1waCcsICc3LjAnLCAnLXRuJywgJzgnLCAnLW1hJywgJzIwMCcsICctbWV0YWxfYmluZGluZycsICctaW1hZScsICc8aW5maWxlLm1hZT4nLCAnLW9tYWUnLCAnPG91dGZpbGUubWFlPic=

> <r_epik_Ionization_Penalty>
0.985866

> <r_epik_Ionization_Penalty_Charging>
0.984689

> <r_epik_Ionization_Penalty_Neutral>
0.00117669

> <r_epik_State_Penalty>
1.03185

> <r_epik_Charging_Adjusted_Penalty>
2.01654

> <i_epik_Tot_Q>
-1

> <i_epik_Tot_abs_Q>
1

> <r_epik_Metal_State_Penalty>
0.379327

> <b_epik_Metal_Only>
0

> <s_lp_Force_Field>
OPLS_2005

> <r_lp_Energy>
11.4471

> <b_lp_Chiralities_Consistent>
1

> <s_lp_Variant>
AV-unprocessed.smi:763-5

> <Gold.Version>
5.8.1

> <Gold.Id.Protein>
6NUR|6NUR_protein|mol2

> <Gold.PLP.Fitness>
41.4343

> <Gold.PLP.PLP>
-34.1065

> <Gold.PLP.part.hbond>
-2.7527

> <Gold.PLP.part.metal>
0.0000

> <Gold.PLP.part.buried>
-3.6912

> <Gold.PLP.part.nonpolar>
-27.9285

> <Gold.PLP.part.repulsive>
0.0408

> <Gold.PLP.ligand.clash>
0.0000

> <Gold.PLP.ligand.torsion>
1.2848

> <Gold.PLP.Chemscore.Hbond>
1.9193

> <Gold.PLP.Chemscore.CHOScore>
1.0000

> <Gold.PLP.Chemscore.Metal>
0.0000

> <Gold.Chemscore.Hbonds>
donor molecule, donor type, donor heavy atom, donor atom, acceptor molecule, acceptor atom, score
      P1  H  6931  6943       L1     2  0.02
      P1  H  6934  6947       L1     2  0.65
      P1  H  7997  8010       L1    15  0.94
      L1  C     8    30       P1  7948  0.68

> <Gold.PLP.Chemscore.Internal.Correction>
1.1396

> <Gold.Rescore>
     Score         DG    S(hbond)    S(metal)    S(lipo)     H(rot)  DE(clash)    DE(int)     intcor
     14.36     -17.16       1.88        0.00      97.65       2.35       0.00       2.80       ----

> <Gold.Chemscore.Fitness>
14.3645

> <Gold.Chemscore.DG>
-17.1604

> <Gold.Chemscore.ZeroCoef>
-5.4800

> <Gold.Chemscore.Hbond>
1.8782

> <Gold.Chemscore.Metal>
0.0000

> <Gold.Chemscore.Lipo>
97.6547

> <Gold.Chemscore.Internal_Hbond>
0.0000

> <Gold.Chemscore.DEClash>
0.0000

> <Gold.Chemscore.DEInternal>
2.7959

> <Gold.Chemscore.Rot>
2.3509

> <Gold.Chemscore.Internal.Correction>
   9.000000E+99

> <Gold.Chemscore.Hbonds>
donor molecule, donor type, donor heavy atom, donor atom, acceptor molecule, acceptor atom, score
      P1  H  6934  6947       L1     2  0.29
      P1  H  7997  8010       L1    15  0.89

> <Gold.Chemscore.Hbond.Weighted>
-6.2730

> <Gold.Chemscore.Metal.Weighted>
-0.0000

> <Gold.Chemscore.Lipo.Weighted>
-11.4256

> <Gold.Chemscore.Internal_Hbond.Weighted>
0.0000

> <Gold.Chemscore.DEClash.Weighted>
0.0000

> <Gold.Chemscore.DEInternal.Weighted>
2.7959

> <Gold.Chemscore.Rot.Weighted>
6.0182

> <Gold.Chemscore.Internal.Correction.Weighted>
   9.000000E+99

> <Gold.Protein.RotatedTorsions>
[ 6907 6896 6895 6894 ] final  -90.11 input  -60.11 | X-H torsion
[ 7974 7965 7964 7962 ] final  -96.55 input  175.53 | X-H torsion
[ 8008 7997 7996 7995 ] final   58.03 input   59.86 | X-H torsion
[ 10167 10162 10161 10158 ] final  129.62 input  -65.29 | X-H torsion
[ 10718 10713 10712 10709 ] final  116.63 input   66.30 | X-H torsion
[ 10763 10752 10751 10750 ] final    9.26 input  -60.55 | X-H torsion
[ 11005 11000 10999 10996 ] final   52.94 input  -57.11 | X-H torsion

> <Gold.Protein.ActiveResidues>
 VAL166  LYS551  ARG553  GLY616  TRP617  ASP618  TYR619  PRO620  LYS621  CYS622 
 ASP623  PHE694  ASN695  SER759  ASP760  ASP761  ALA762  ILE779  LEU786  VAL792 
 PHE793  MET794  SER795  GLU796  ALA797  LYS798  CYS799  TRP800  GLU811  SER814 

> <Gold.Protein.RotatedAtoms>
  150.6879  134.2483  159.4500 H   0  0  0  0  0  0  0  0  0  0  0  0  # atno 6907 bound_to 6896
  152.0422  134.9702  160.0583 H   0  0  0  0  0  0  0  0  0  0  0  0  # atno 6908 bound_to 6896
  152.1199  133.4313  159.4707 H   0  0  0  0  0  0  0  0  0  0  0  0  # atno 6909 bound_to 6896
  145.3454  140.9467  143.2584 H   0  0  0  0  0  0  0  0  0  0  0  0  # atno 7974 bound_to 7965
  155.5434  140.3485  155.4452 H   0  0  0  0  0  0  0  0  0  0  0  0  # atno 8008 bound_to 7997
  156.0635  140.1346  156.9939 H   0  0  0  0  0  0  0  0  0  0  0  0  # atno 8009 bound_to 7997
  154.4491  140.0980  156.6537 H   0  0  0  0  0  0  0  0  0  0  0  0  # atno 8010 bound_to 7997
  139.5469  144.6781  151.4446 H   0  0  0  0  0  0  0  0  0  0  0  0  # atno 10167 bound_to 10162
  157.6148  131.1028  150.7500 H   0  0  0  0  0  0  0  0  0  0  0  0  # atno 10718 bound_to 10713
  153.2160  135.6875  153.8057 H   0  0  0  0  0  0  0  0  0  0  0  0  # atno 10763 bound_to 10752
  153.7273  135.3258  155.3280 H   0  0  0  0  0  0  0  0  0  0  0  0  # atno 10764 bound_to 10752
  154.8246  135.4627  154.0987 H   0  0  0  0  0  0  0  0  0  0  0  0  # atno 10765 bound_to 10752
  140.0808  134.5341  155.8949 H   0  0  0  0  0  0  0  0  0  0  0  0  # atno 11005 bound_to 11000
  144.8758  139.4973  143.6746 LP  0  0  0  0  0  0  0  0  0  0  0  0  # atno 17320 bound_to 7965
  146.2990  139.7367  142.9105 LP  0  0  0  0  0  0  0  0  0  0  0  0  # atno 17321 bound_to 7965
  140.6720  143.8274  150.7011 LP  0  0  0  0  0  0  0  0  0  0  0  0  # atno 17342 bound_to 10162
  140.1701  143.4202  152.2007 LP  0  0  0  0  0  0  0  0  0  0  0  0  # atno 17343 bound_to 10162
  156.7870  130.4878  149.5391 LP  0  0  0  0  0  0  0  0  0  0  0  0  # atno 17370 bound_to 10713
  156.1265  130.6148  151.0271 LP  0  0  0  0  0  0  0  0  0  0  0  0  # atno 17371 bound_to 10713
  141.2046  133.6640  156.6130 LP  0  0  0  0  0  0  0  0  0  0  0  0  # atno 17394 bound_to 11000
  140.3491  134.7784  157.4453 LP  0  0  0  0  0  0  0  0  0  0  0  0  # atno 17395 bound_to 11000

$$$$
