AV-unprocessed.smi:1406|AV-procd|sdf|5713|dock5
  -GOLD-   22720 5343D 1   1.00000     0.00000
 Structure written by MMmdl.
 41 43  0  0  0  0  0  0  0  0  2 V2000
  151.4528  144.8882  159.7153 C   0  0  0  0  0  0  0  0  0  0  0  0
  152.1956  143.5625  159.4514 C   0  0  2  0  0  0  0  0  0  0  0  0
  151.3033  142.4984  158.7925 C   0  0  0  0  0  0  0  0  0  0  0  0
  150.0770  142.6089  158.8038 O   0  0  0  0  0  0  0  0  0  0  0  0
  151.9379  141.4648  158.2165 N   0  0  0  0  0  0  0  0  0  0  0  0
  151.2853  140.3346  157.5629 C   0  0  2  0  0  0  0  0  0  0  0  0
  152.2847  139.2827  157.0503 C   0  0  0  0  0  0  0  0  0  0  0  0
  151.7027  138.7831  155.7133 C   0  0  0  0  0  0  0  0  0  0  0  0
  150.4022  139.4658  155.5735 N   0  3  2  0  0  0  0  0  0  0  0  0
  149.8698  139.6274  154.2030 C   0  0  0  0  0  0  0  0  0  0  0  0
  148.4743  140.2790  154.2739 C   0  0  0  0  0  0  0  0  0  0  0  0
  148.4964  141.5904  155.0853 C   0  0  0  0  0  0  0  0  0  0  0  0
  149.1474  141.3802  156.4660 C   0  0  0  0  0  0  0  0  0  0  0  0
  150.5365  140.7426  156.2911 C   0  0  1  0  0  0  0  0  0  0  0  0
  152.8094  143.0294  160.6614 N   0  0  0  0  0  0  0  0  0  0  0  0
  153.6692  142.0198  160.8146 C   0  0  0  0  0  0  0  0  0  0  0  0
  153.9916  141.7734  162.0764 N   0  0  0  0  0  0  0  0  0  0  0  0
  153.2377  142.7299  162.6954 C   0  0  0  0  0  0  0  0  0  0  0  0
  152.5029  143.5022  161.8954 N   0  0  0  0  0  0  0  0  0  0  0  0
  151.0465  145.3023  158.7919 H   0  0  0  0  0  0  0  0  0  0  0  0
  152.1280  145.6334  160.1367 H   0  0  0  0  0  0  0  0  0  0  0  0
  150.6241  144.7623  160.4133 H   0  0  0  0  0  0  0  0  0  0  0  0
  153.0045  143.7816  158.7520 H   0  0  0  0  0  0  0  0  0  0  0  0
  152.9470  141.4513  158.2522 H   0  0  0  0  0  0  0  0  0  0  0  0
  150.5941  139.8420  158.2506 H   0  0  0  0  0  0  0  0  0  0  0  0
  153.2708  139.7181  156.8815 H   0  0  0  0  0  0  0  0  0  0  0  0
  152.4044  138.4717  157.7698 H   0  0  0  0  0  0  0  0  0  0  0  0
  152.3640  139.0612  154.8910 H   0  0  0  0  0  0  0  0  0  0  0  0
  151.5747  137.7005  155.6938 H   0  0  0  0  0  0  0  0  0  0  0  0
  150.5489  140.2412  153.6092 H   0  0  0  0  0  0  0  0  0  0  0  0
  149.8060  138.6528  153.7177 H   0  0  0  0  0  0  0  0  0  0  0  0
  148.0981  140.4681  153.2680 H   0  0  0  0  0  0  0  0  0  0  0  0
  147.7745  139.5822  154.7375 H   0  0  0  0  0  0  0  0  0  0  0  0
  149.0542  142.3479  154.5335 H   0  0  0  0  0  0  0  0  0  0  0  0
  147.4837  141.9769  155.2021 H   0  0  0  0  0  0  0  0  0  0  0  0
  149.2289  142.3354  156.9848 H   0  0  0  0  0  0  0  0  0  0  0  0
  148.5146  140.7405  157.0827 H   0  0  0  0  0  0  0  0  0  0  0  0
  151.1698  141.4087  155.7003 H   0  0  0  0  0  0  0  0  0  0  0  0
  154.0640  141.4497  159.9863 H   0  0  0  0  0  0  0  0  0  0  0  0
  153.2245  142.8564  163.7679 H   0  0  0  0  0  0  0  0  0  0  0  0
  149.7326  138.9167  156.0933 H   0  0  0  0  0  0  0  0  0  0  0  0
  1  2  1  0  0  0  0
  1 20  1  0  0  0  0
  1 21  1  0  0  0  0
  1 22  1  0  0  0  0
  2  3  1  0  0  0  0
  2 15  1  0  0  0  0
  2 23  1  0  0  0  0
  3  4  2  0  0  0  0
  3  5  1  0  0  0  0
  5  6  1  0  0  0  0
  5 24  1  0  0  0  0
  6 14  1  0  0  0  0
  6  7  1  0  0  0  0
  6 25  1  0  0  0  0
  7  8  1  0  0  0  0
  7 26  1  0  0  0  0
  7 27  1  0  0  0  0
  8  9  1  0  0  0  0
  8 28  1  0  0  0  0
  8 29  1  0  0  0  0
  9 14  1  0  0  0  0
  9 10  1  0  0  0  0
  9 41  1  0  0  0  0
 10 11  1  0  0  0  0
 10 30  1  0  0  0  0
 10 31  1  0  0  0  0
 11 12  1  0  0  0  0
 11 32  1  0  0  0  0
 11 33  1  0  0  0  0
 12 13  1  0  0  0  0
 12 34  1  0  0  0  0
 12 35  1  0  0  0  0
 13 14  1  0  0  0  0
 13 36  1  0  0  0  0
 13 37  1  0  0  0  0
 14 38  1  0  0  0  0
 15 19  1  0  0  0  0
 15 16  1  0  0  0  0
 16 17  2  0  0  0  0
 16 39  1  0  0  0  0
 17 18  1  0  0  0  0
 18 19  2  0  0  0  0
 18 40  1  0  0  0  0
M  CHG  1   9   1
M  END
> <s_m_source_file>
AV-unprocessed.smi

> <i_m_source_file_index>
1406

> <i_lp_mmshare_version>
43012

> <i_f3d_flags>
0

> <s_epik_input>
bjFbY0hdbltjSF1uMVtDQEhdKFtDSDNdKUMoPU8pW05IXVtDQEhdKFtDSDJdW0NIMl0yKVtDQEBIXShOMjMpW0NIMl1bQ0gyXVtDSDJdW0NIMl0z

> <s_epik_cmdline>
J2VwaWtfcHl0aG9uJywgJy1waCcsICc3LjAnLCAnLXRuJywgJzgnLCAnLW1hJywgJzIwMCcsICctbWV0YWxfYmluZGluZycsICctaW1hZScsICc8aW5maWxlLm1hZT4nLCAnLW9tYWUnLCAnPG91dGZpbGUubWFlPic=

> <r_lp_tautomer_probability>
1

> <r_epik_Ionization_Penalty>
0.00197066

> <r_epik_Ionization_Penalty_Charging>
0.00196223

> <r_epik_Ionization_Penalty_Neutral>
8.43107e-06

> <r_epik_State_Penalty>
0.00133866

> <r_epik_Charging_Adjusted_Penalty>
0.00330089

> <i_epik_Tot_Q>
1

> <i_epik_Tot_abs_Q>
1

> <r_epik_Metal_State_Penalty>
-0

> <b_epik_Metal_Only>
0

> <s_lp_Force_Field>
OPLS_2005

> <r_lp_Energy>
39.8757

> <b_lp_Chiralities_Consistent>
1

> <s_lp_Variant>
AV-unprocessed.smi:1406-5

> <Gold.Version>
5.8.1

> <Gold.Id.Protein>
6NUR|6NUR_protein|mol2

> <Gold.PLP.Fitness>
38.9396

> <Gold.PLP.PLP>
-39.8279

> <Gold.PLP.part.hbond>
-1.0920

> <Gold.PLP.part.metal>
0.0000

> <Gold.PLP.part.buried>
-4.2049

> <Gold.PLP.part.nonpolar>
-34.9239

> <Gold.PLP.part.repulsive>
0.3881

> <Gold.PLP.ligand.clash>
0.0000

> <Gold.PLP.ligand.torsion>
0.4988

> <Gold.PLP.Chemscore.Hbond>
0.0000

> <Gold.PLP.Chemscore.CHOScore>
0.0000

> <Gold.PLP.Chemscore.Metal>
0.0000

> <Gold.PLP.Chemscore.Internal.Correction>
0.1093

> <Gold.Rescore>
     Score         DG    S(hbond)    S(metal)    S(lipo)     H(rot)  DE(clash)    DE(int)     intcor
      7.46      -9.36       0.00        0.00      74.47       1.89       0.12       1.78       ----

> <Gold.Chemscore.Fitness>
7.4573

> <Gold.Chemscore.DG>
-9.3637

> <Gold.Chemscore.ZeroCoef>
-5.4800

> <Gold.Chemscore.Hbond>
0.0000

> <Gold.Chemscore.Metal>
0.0000

> <Gold.Chemscore.Lipo>
74.4719

> <Gold.Chemscore.Internal_Hbond>
0.0000

> <Gold.Chemscore.DEClash>
0.1246

> <Gold.Chemscore.DEInternal>
1.7818

> <Gold.Chemscore.Rot>
1.8865

> <Gold.Chemscore.Internal.Correction>
   9.000000E+99

> <Gold.Chemscore.Hbond.Weighted>
-0.0000

> <Gold.Chemscore.Metal.Weighted>
-0.0000

> <Gold.Chemscore.Lipo.Weighted>
-8.7132

> <Gold.Chemscore.Internal_Hbond.Weighted>
0.0000

> <Gold.Chemscore.DEClash.Weighted>
0.1246

> <Gold.Chemscore.DEInternal.Weighted>
1.7818

> <Gold.Chemscore.Rot.Weighted>
4.8295

> <Gold.Chemscore.Internal.Correction.Weighted>
   9.000000E+99

> <Gold.Protein.RotatedTorsions>
[ 6907 6896 6895 6894 ] final  121.66 input  -60.11 | X-H torsion
[ 7974 7965 7964 7962 ] final -116.01 input  175.53 | X-H torsion
[ 8008 7997 7996 7995 ] final -152.24 input   59.86 | X-H torsion
[ 10167 10162 10161 10158 ] final -138.79 input  -65.29 | X-H torsion
[ 10718 10713 10712 10709 ] final  -32.61 input   66.30 | X-H torsion
[ 10763 10752 10751 10750 ] final   90.74 input  -60.55 | X-H torsion
[ 11005 11000 10999 10996 ] final -128.75 input  -57.11 | X-H torsion

> <Gold.Protein.ActiveResidues>
 VAL166  LYS551  ARG553  GLY616  TRP617  ASP618  TYR619  PRO620  LYS621  CYS622 
 ASP623  PHE694  ASN695  SER759  ASP760  ASP761  ALA762  ILE779  LEU786  VAL792 
 PHE793  MET794  SER795  GLU796  ALA797  LYS798  CYS799  TRP800  GLU811  SER814 

> <Gold.Protein.RotatedAtoms>
  152.4304  133.7268  159.6564 H   0  0  0  0  0  0  0  0  0  0  0  0  # atno 6907 bound_to 6896
  150.8183  133.8287  159.3156 H   0  0  0  0  0  0  0  0  0  0  0  0  # atno 6908 bound_to 6896
  151.5977  135.1051  160.0105 H   0  0  0  0  0  0  0  0  0  0  0  0  # atno 6909 bound_to 6896
  145.1018  140.8556  143.3922 H   0  0  0  0  0  0  0  0  0  0  0  0  # atno 7974 bound_to 7965
  155.6521  140.0713  157.2583 H   0  0  0  0  0  0  0  0  0  0  0  0  # atno 8008 bound_to 7997
  154.4160  140.1731  156.1735 H   0  0  0  0  0  0  0  0  0  0  0  0  # atno 8009 bound_to 7997
  155.9768  140.3357  155.6629 H   0  0  0  0  0  0  0  0  0  0  0  0  # atno 8010 bound_to 7997
  139.8443  143.7281  152.2661 H   0  0  0  0  0  0  0  0  0  0  0  0  # atno 10167 bound_to 10162
  156.3728  130.4342  149.7531 H   0  0  0  0  0  0  0  0  0  0  0  0  # atno 10718 bound_to 10713
  153.2008  135.4423  155.0264 H   0  0  0  0  0  0  0  0  0  0  0  0  # atno 10763 bound_to 10752
  154.8145  135.3309  154.7215 H   0  0  0  0  0  0  0  0  0  0  0  0  # atno 10764 bound_to 10752
  153.7661  135.6988  153.4971 H   0  0  0  0  0  0  0  0  0  0  0  0  # atno 10765 bound_to 10752
  140.9490  134.1091  157.4080 H   0  0  0  0  0  0  0  0  0  0  0  0  # atno 11005 bound_to 11000
  145.0947  139.2865  143.5717 LP  0  0  0  0  0  0  0  0  0  0  0  0  # atno 17320 bound_to 7965
  146.3529  140.0495  142.8637 LP  0  0  0  0  0  0  0  0  0  0  0  0  # atno 17321 bound_to 7965
  139.7528  144.7529  151.0481 LP  0  0  0  0  0  0  0  0  0  0  0  0  # atno 17342 bound_to 10162
  140.7795  143.4840  150.9980 LP  0  0  0  0  0  0  0  0  0  0  0  0  # atno 17343 bound_to 10162
  156.4652  130.7971  151.2990 LP  0  0  0  0  0  0  0  0  0  0  0  0  # atno 17370 bound_to 10713
  157.7485  131.0053  150.3109 LP  0  0  0  0  0  0  0  0  0  0  0  0  # atno 17371 bound_to 10713
  139.8842  135.0060  156.6351 LP  0  0  0  0  0  0  0  0  0  0  0  0  # atno 17394 bound_to 11000
  140.7629  133.8802  155.8432 LP  0  0  0  0  0  0  0  0  0  0  0  0  # atno 17395 bound_to 11000

$$$$
