AV-unprocessed.smi:1601|AV-procd|sdf|6432|dock7
  -GOLD-   22720 7 73D 1   1.00000     0.00000
 Structure written by MMmdl.
 41 42  0  0  0  0  0  0  0  0  1 V2000
  146.7952  139.1392  152.2321 C   0  0  0  0  0  0  0  0  0  0  0  0
  146.6441  138.8962  153.7556 C   0  0  1  0  0  0  0  0  0  0  0  0
  146.3394  137.3877  153.9910 C   0  0  0  0  0  0  0  0  0  0  0  0
  145.2317  136.8895  153.1801 N   0  0  0  0  0  0  0  0  0  0  0  0
  145.1266  135.6377  152.7060 C   0  0  0  0  0  0  0  0  0  0  0  0
  145.9796  134.7721  152.9066 O   0  0  0  0  0  0  0  0  0  0  0  0
  143.8583  135.3211  151.8958 C   0  0  2  0  0  0  0  0  0  0  0  0
  142.5702  135.4055  152.7395 C   0  0  0  0  0  0  0  0  0  0  0  0
  143.9849  134.0339  151.2219 N   0  0  0  0  0  0  0  0  0  0  0  0
  144.9713  133.6277  150.3460 C   0  0  0  0  0  0  0  0  0  0  0  0
  144.6965  132.3394  149.9868 C   0  0  0  0  0  0  0  0  0  0  0  0
  143.5120  132.0318  150.7115 C   0  0  0  0  0  0  0  0  0  0  0  0
  143.0911  133.0437  151.4521 N   0  0  0  0  0  0  0  0  0  0  0  0
  147.8025  139.3927  154.5349 N   0  0  0  0  0  0  0  0  0  0  0  0
  149.0229  138.6188  154.2763 C   0  0  0  0  0  0  0  0  0  0  0  0
  150.2451  139.1477  155.0462 C   0  0  0  0  0  0  0  0  0  0  0  0
  150.4590  140.5141  154.7223 O   0  0  0  0  0  0  0  0  0  0  0  0
  149.3296  141.3175  155.0339 C   0  0  0  0  0  0  0  0  0  0  0  0
  148.0988  140.8050  154.2662 C   0  0  0  0  0  0  0  0  0  0  0  0
  145.9607  138.7324  151.6621 H   0  0  0  0  0  0  0  0  0  0  0  0
  147.7071  138.6810  151.8482 H   0  0  0  0  0  0  0  0  0  0  0  0
  146.8179  140.1988  151.9816 H   0  0  0  0  0  0  0  0  0  0  0  0
  145.7652  139.4561  154.0790 H   0  0  0  0  0  0  0  0  0  0  0  0
  147.2229  136.7906  153.7625 H   0  0  0  0  0  0  0  0  0  0  0  0
  146.0850  137.1741  155.0281 H   0  0  0  0  0  0  0  0  0  0  0  0
  144.4908  137.5420  152.9693 H   0  0  0  0  0  0  0  0  0  0  0  0
  143.7820  136.0840  151.1193 H   0  0  0  0  0  0  0  0  0  0  0  0
  142.4622  136.3907  153.1943 H   0  0  0  0  0  0  0  0  0  0  0  0
  142.5570  134.6674  153.5425 H   0  0  0  0  0  0  0  0  0  0  0  0
  141.6891  135.2352  152.1204 H   0  0  0  0  0  0  0  0  0  0  0  0
  145.7786  134.2828  150.0530 H   0  0  0  0  0  0  0  0  0  0  0  0
  145.2578  131.7106  149.3119 H   0  0  0  0  0  0  0  0  0  0  0  0
  142.9509  131.1092  150.7230 H   0  0  0  0  0  0  0  0  0  0  0  0
  148.8876  137.5797  154.5707 H   0  0  0  0  0  0  0  0  0  0  0  0
  149.2420  138.6203  153.2075 H   0  0  0  0  0  0  0  0  0  0  0  0
  150.1026  139.0372  156.1222 H   0  0  0  0  0  0  0  0  0  0  0  0
  151.1349  138.5765  154.7811 H   0  0  0  0  0  0  0  0  0  0  0  0
  149.1476  141.3026  156.1095 H   0  0  0  0  0  0  0  0  0  0  0  0
  149.5425  142.3508  154.7599 H   0  0  0  0  0  0  0  0  0  0  0  0
  148.2519  140.9538  153.1961 H   0  0  0  0  0  0  0  0  0  0  0  0
  147.2633  141.4372  154.5586 H   0  0  0  0  0  0  0  0  0  0  0  0
  1  2  1  0  0  0  0
  1 20  1  0  0  0  0
  1 21  1  0  0  0  0
  1 22  1  0  0  0  0
  2  3  1  0  0  0  0
  2 14  1  0  0  0  0
  2 23  1  0  0  0  0
  3  4  1  0  0  0  0
  3 24  1  0  0  0  0
  3 25  1  0  0  0  0
  4  5  1  0  0  0  0
  4 26  1  0  0  0  0
  5  6  2  0  0  0  0
  5  7  1  0  0  0  0
  7  8  1  0  0  0  0
  7  9  1  0  0  0  0
  7 27  1  0  0  0  0
  8 28  1  0  0  0  0
  8 29  1  0  0  0  0
  8 30  1  0  0  0  0
  9 13  1  0  0  0  0
  9 10  1  0  0  0  0
 10 11  2  0  0  0  0
 10 31  1  0  0  0  0
 11 12  1  0  0  0  0
 11 32  1  0  0  0  0
 12 13  2  0  0  0  0
 12 33  1  0  0  0  0
 14 19  1  0  0  0  0
 14 15  1  0  0  0  0
 15 16  1  0  0  0  0
 15 34  1  0  0  0  0
 15 35  1  0  0  0  0
 16 17  1  0  0  0  0
 16 36  1  0  0  0  0
 16 37  1  0  0  0  0
 17 18  1  0  0  0  0
 18 19  1  0  0  0  0
 18 38  1  0  0  0  0
 18 39  1  0  0  0  0
 19 40  1  0  0  0  0
 19 41  1  0  0  0  0
M  END
> <s_m_source_file>
AV-unprocessed.smi

> <i_m_source_file_index>
1601

> <i_lp_mmshare_version>
43012

> <i_f3d_flags>
0

> <s_epik_input>
W0NIMl0xW0NIMl1PW0NIMl1bQ0gyXU4xW0NASF0oW0NIM10pW0NIMl1bTkhdQyg9TylbQ0BIXShbQ0gzXSluMltjSF1bY0hdW2NIXW4y

> <s_epik_cmdline>
J2VwaWtfcHl0aG9uJywgJy1waCcsICc3LjAnLCAnLXRuJywgJzgnLCAnLW1hJywgJzIwMCcsICctbWV0YWxfYmluZGluZycsICctaW1hZScsICc8aW5maWxlLm1hZT4nLCAnLW9tYWUnLCAnPG91dGZpbGUubWFlPic=

> <r_lp_tautomer_probability>
1

> <r_epik_Ionization_Penalty>
0.203323

> <r_epik_Ionization_Penalty_Charging>
0

> <r_epik_Ionization_Penalty_Neutral>
0.203323

> <r_epik_State_Penalty>
0.193192

> <r_epik_Charging_Adjusted_Penalty>
0.193192

> <i_epik_Tot_Q>
0

> <i_epik_Tot_abs_Q>
0

> <r_epik_Metal_State_Penalty>
0.193187

> <b_epik_Metal_Only>
0

> <s_lp_Force_Field>
OPLS_2005

> <r_lp_Energy>
32.6682

> <b_lp_Chiralities_Consistent>
1

> <s_lp_Variant>
AV-unprocessed.smi:1601-2

> <Gold.Version>
5.8.1

> <Gold.Id.Protein>
6NUR|6NUR_protein|mol2

> <Gold.PLP.Fitness>
38.6858

> <Gold.PLP.PLP>
-30.8524

> <Gold.PLP.part.hbond>
-0.7660

> <Gold.PLP.part.metal>
0.0000

> <Gold.PLP.part.buried>
-3.4083

> <Gold.PLP.part.nonpolar>
-27.8075

> <Gold.PLP.part.repulsive>
0.5772

> <Gold.PLP.ligand.clash>
0.0000

> <Gold.PLP.ligand.torsion>
0.4143

> <Gold.PLP.Chemscore.Hbond>
1.0000

> <Gold.PLP.Chemscore.CHOScore>
1.8435

> <Gold.PLP.Chemscore.Metal>
0.0000

> <Gold.Chemscore.Hbonds>
donor molecule, donor type, donor heavy atom, donor atom, acceptor molecule, acceptor atom, score
      P1  H  7989  7998       L1    17  0.99
      L1  C    10    31       P1  7921  0.80
      L1  C    12    33       P1 10952  0.99

> <Gold.PLP.Chemscore.Internal.Correction>
0.1316

> <Gold.Rescore>
     Score         DG    S(hbond)    S(metal)    S(lipo)     H(rot)  DE(clash)    DE(int)     intcor
     11.62     -13.47       0.93        0.00      80.82       1.79       0.07       1.79       ----

> <Gold.Chemscore.Fitness>
11.6173

> <Gold.Chemscore.DG>
-13.4747

> <Gold.Chemscore.ZeroCoef>
-5.4800

> <Gold.Chemscore.Hbond>
0.9324

> <Gold.Chemscore.Metal>
0.0000

> <Gold.Chemscore.Lipo>
80.8174

> <Gold.Chemscore.Internal_Hbond>
0.0000

> <Gold.Chemscore.DEClash>
0.0713

> <Gold.Chemscore.DEInternal>
1.7862

> <Gold.Chemscore.Rot>
1.7872

> <Gold.Chemscore.Internal.Correction>
   9.000000E+99

> <Gold.Chemscore.Hbonds>
donor molecule, donor type, donor heavy atom, donor atom, acceptor molecule, acceptor atom, score
      P1  H  7989  7998       L1    17  0.90

> <Gold.Chemscore.Hbond.Weighted>
-3.1143

> <Gold.Chemscore.Metal.Weighted>
-0.0000

> <Gold.Chemscore.Lipo.Weighted>
-9.4556

> <Gold.Chemscore.Internal_Hbond.Weighted>
0.0000

> <Gold.Chemscore.DEClash.Weighted>
0.0713

> <Gold.Chemscore.DEInternal.Weighted>
1.7862

> <Gold.Chemscore.Rot.Weighted>
4.5752

> <Gold.Chemscore.Internal.Correction.Weighted>
   9.000000E+99

> <Gold.Protein.RotatedTorsions>
[ 6907 6896 6895 6894 ] final -104.94 input  -60.11 | X-H torsion
[ 7974 7965 7964 7962 ] final   12.96 input  175.53 | X-H torsion
[ 8008 7997 7996 7995 ] final -145.06 input   59.86 | X-H torsion
[ 10167 10162 10161 10158 ] final  119.09 input  -65.29 | X-H torsion
[ 10718 10713 10712 10709 ] final  125.34 input   66.30 | X-H torsion
[ 10763 10752 10751 10750 ] final  147.79 input  -60.55 | X-H torsion
[ 11005 11000 10999 10996 ] final   14.31 input  -57.11 | X-H torsion

> <Gold.Protein.ActiveResidues>
 VAL166  LYS551  ARG553  GLY616  TRP617  ASP618  TYR619  PRO620  LYS621  CYS622 
 ASP623  PHE694  ASN695  SER759  ASP760  ASP761  ALA762  ILE779  LEU786  VAL792 
 PHE793  MET794  SER795  GLU796  ALA797  LYS798  CYS799  TRP800  GLU811  SER814 

> <Gold.Protein.RotatedAtoms>
  150.7312  134.0201  159.3698 H   0  0  0  0  0  0  0  0  0  0  0  0  # atno 6907 bound_to 6896
  151.8166  135.0662  160.0429 H   0  0  0  0  0  0  0  0  0  0  0  0  # atno 6908 bound_to 6896
  152.3034  133.5642  159.5670 H   0  0  0  0  0  0  0  0  0  0  0  0  # atno 6909 bound_to 6896
  146.2340  139.9259  142.8503 H   0  0  0  0  0  0  0  0  0  0  0  0  # atno 7974 bound_to 7965
  155.5371  140.0605  157.2877 H   0  0  0  0  0  0  0  0  0  0  0  0  # atno 8008 bound_to 7997
  154.4464  140.1926  156.0597 H   0  0  0  0  0  0  0  0  0  0  0  0  # atno 8009 bound_to 7997
  156.0611  140.3272  155.7467 H   0  0  0  0  0  0  0  0  0  0  0  0  # atno 8010 bound_to 7997
  139.6069  144.7072  151.2933 H   0  0  0  0  0  0  0  0  0  0  0  0  # atno 10167 bound_to 10162
  157.5511  131.1094  150.8700 H   0  0  0  0  0  0  0  0  0  0  0  0  # atno 10718 bound_to 10713
  154.0441  135.2887  155.3350 H   0  0  0  0  0  0  0  0  0  0  0  0  # atno 10763 bound_to 10752
  154.6910  135.5226  153.8396 H   0  0  0  0  0  0  0  0  0  0  0  0  # atno 10764 bound_to 10752
  153.0588  135.6605  154.0643 H   0  0  0  0  0  0  0  0  0  0  0  0  # atno 10765 bound_to 10752
  140.4709  134.1032  155.7732 H   0  0  0  0  0  0  0  0  0  0  0  0  # atno 11005 bound_to 11000
  145.2091  140.9888  143.4111 LP  0  0  0  0  0  0  0  0  0  0  0  0  # atno 17320 bound_to 7965
  144.9707  139.3883  143.6310 LP  0  0  0  0  0  0  0  0  0  0  0  0  # atno 17321 bound_to 7965
  140.7291  143.6917  150.7917 LP  0  0  0  0  0  0  0  0  0  0  0  0  # atno 17342 bound_to 10162
  140.0504  143.5255  152.2676 LP  0  0  0  0  0  0  0  0  0  0  0  0  # atno 17343 bound_to 10162
  156.9224  130.5320  149.5279 LP  0  0  0  0  0  0  0  0  0  0  0  0  # atno 17370 bound_to 10713
  156.0578  130.5636  150.9128 LP  0  0  0  0  0  0  0  0  0  0  0  0  # atno 17371 bound_to 10713
  141.1577  133.8851  157.1932 LP  0  0  0  0  0  0  0  0  0  0  0  0  # atno 17394 bound_to 11000
  139.9886  135.0073  156.9921 LP  0  0  0  0  0  0  0  0  0  0  0  0  # atno 17395 bound_to 11000

$$$$
