AV-unprocessed.smi:646|AV-procd|sdf|3165|dock4
  -GOLD-   22720 0 83D 1   1.00000     0.00000
 Structure written by MMmdl.
 44 45  0  0  0  0  0  0  0  0  1 V2000
  144.6164  134.4534  160.2444 C   0  0  0  0  0  0  0  0  0  0  0  0
  145.6576  135.1705  160.8971 O   0  0  0  0  0  0  0  0  0  0  0  0
  146.5968  134.4118  161.6715 C   0  0  1  0  0  0  0  0  0  0  0  0
  145.8746  133.6710  162.8047 C   0  0  0  0  0  0  0  0  0  0  0  0
  147.5404  133.6270  160.7404 C   0  0  0  0  0  0  0  0  0  0  0  0
  148.4660  134.8446  160.7006 C   0  0  1  0  0  0  0  0  0  0  0  0
  148.1735  135.6911  159.5453 N   0  0  0  0  0  0  0  0  0  0  0  0
  149.0372  135.9843  158.5623 C   0  0  0  0  0  0  0  0  0  0  0  0
  150.1887  135.5524  158.5189 O   0  0  0  0  0  0  0  0  0  0  0  0
  148.5293  136.9239  157.4674 C   0  0  0  0  0  0  0  0  0  0  0  0
  149.5915  137.1238  156.4159 C   0  0  0  0  0  0  0  0  0  0  0  0
  150.2022  136.1347  155.5933 C   0  0  0  0  0  0  0  0  0  0  0  0
  149.9409  134.6563  155.5675 C   0  0  0  0  0  0  0  0  0  0  0  0
  151.0968  136.6581  154.7721 N   0  0  0  0  0  0  0  0  0  0  0  0
  151.1001  138.0314  155.0349 O   0  0  0  0  0  0  0  0  0  0  0  0
  150.1953  138.2842  156.0144 C   0  0  0  0  0  0  0  0  0  0  0  0
  150.0453  139.7084  156.4306 C   0  0  0  0  0  0  0  0  0  0  0  0
  147.8130  135.3313  162.0215 C   0  0  0  0  0  0  0  0  0  0  0  0
  147.5293  136.8339  162.1849 C   0  0  0  0  0  0  0  0  0  0  0  0
  148.6142  134.9341  163.2705 C   0  0  0  0  0  0  0  0  0  0  0  0
  144.0765  135.1329  159.5857 H   0  0  0  0  0  0  0  0  0  0  0  0
  143.8926  134.0565  160.9558 H   0  0  0  0  0  0  0  0  0  0  0  0
  144.9942  133.6339  159.6341 H   0  0  0  0  0  0  0  0  0  0  0  0
  146.5738  133.1732  163.4757 H   0  0  0  0  0  0  0  0  0  0  0  0
  145.2154  132.8904  162.4264 H   0  0  0  0  0  0  0  0  0  0  0  0
  145.2749  134.3544  163.4063 H   0  0  0  0  0  0  0  0  0  0  0  0
  148.0026  132.7733  161.2386 H   0  0  0  0  0  0  0  0  0  0  0  0
  147.1315  133.3315  159.7741 H   0  0  0  0  0  0  0  0  0  0  0  0
  149.5184  134.5730  160.8010 H   0  0  0  0  0  0  0  0  0  0  0  0
  147.2497  136.0966  159.5018 H   0  0  0  0  0  0  0  0  0  0  0  0
  147.6187  136.5017  157.0412 H   0  0  0  0  0  0  0  0  0  0  0  0
  148.2384  137.8735  157.9181 H   0  0  0  0  0  0  0  0  0  0  0  0
  150.0918  134.2175  156.5539 H   0  0  0  0  0  0  0  0  0  0  0  0
  150.6008  134.1389  154.8702 H   0  0  0  0  0  0  0  0  0  0  0  0
  148.9135  134.4495  155.2674 H   0  0  0  0  0  0  0  0  0  0  0  0
  149.1542  139.8476  157.0428 H   0  0  0  0  0  0  0  0  0  0  0  0
  149.9576  140.3586  155.5601 H   0  0  0  0  0  0  0  0  0  0  0  0
  150.9084  140.0333  157.0113 H   0  0  0  0  0  0  0  0  0  0  0  0
  148.4543  137.4082  162.2466 H   0  0  0  0  0  0  0  0  0  0  0  0
  146.9573  137.0345  163.0913 H   0  0  0  0  0  0  0  0  0  0  0  0
  146.9582  137.2486  161.3545 H   0  0  0  0  0  0  0  0  0  0  0  0
  149.5425  135.5015  163.3451 H   0  0  0  0  0  0  0  0  0  0  0  0
  148.8905  133.8795  163.2599 H   0  0  0  0  0  0  0  0  0  0  0  0
  148.0498  135.1118  164.1866 H   0  0  0  0  0  0  0  0  0  0  0  0
  1  2  1  0  0  0  0
  1 21  1  0  0  0  0
  1 22  1  0  0  0  0
  1 23  1  0  0  0  0
  2  3  1  0  0  0  0
  3 18  1  0  0  0  0
  3  4  1  0  0  0  0
  3  5  1  0  0  0  0
  4 24  1  0  0  0  0
  4 25  1  0  0  0  0
  4 26  1  0  0  0  0
  5  6  1  0  0  0  0
  5 27  1  0  0  0  0
  5 28  1  0  0  0  0
  6  7  1  0  0  0  0
  6 18  1  0  0  0  0
  6 29  1  0  0  0  0
  7  8  1  0  0  0  0
  7 30  1  0  0  0  0
  8  9  2  0  0  0  0
  8 10  1  0  0  0  0
 10 11  1  0  0  0  0
 10 31  1  0  0  0  0
 10 32  1  0  0  0  0
 11 16  2  0  0  0  0
 11 12  1  0  0  0  0
 12 13  1  0  0  0  0
 12 14  2  0  0  0  0
 13 33  1  0  0  0  0
 13 34  1  0  0  0  0
 13 35  1  0  0  0  0
 14 15  1  0  0  0  0
 15 16  1  0  0  0  0
 16 17  1  0  0  0  0
 17 36  1  0  0  0  0
 17 37  1  0  0  0  0
 17 38  1  0  0  0  0
 18 19  1  0  0  0  0
 18 20  1  0  0  0  0
 19 39  1  0  0  0  0
 19 40  1  0  0  0  0
 19 41  1  0  0  0  0
 20 42  1  0  0  0  0
 20 43  1  0  0  0  0
 20 44  1  0  0  0  0
M  END
> <s_m_source_file>
AV-unprocessed.smi

> <i_m_source_file_index>
646

> <i_lp_mmshare_version>
43012

> <i_f3d_flags>
0

> <s_epik_input>
W0NIM11PW0NAQF0xKFtDSDNdKVtDSDJdW0NASF0oQzEoW0NIM10pW0NIM10pW05IXUMoPU8pW0NIMl1jMmMoW0NIM10pbm9jMltDSDNd

> <s_epik_cmdline>
J2VwaWtfcHl0aG9uJywgJy1waCcsICc3LjAnLCAnLXRuJywgJzgnLCAnLW1hJywgJzIwMCcsICctbWV0YWxfYmluZGluZycsICctaW1hZScsICc8aW5maWxlLm1hZT4nLCAnLW9tYWUnLCAnPG91dGZpbGUubWFlPic=

> <r_lp_tautomer_probability>
1

> <r_epik_Ionization_Penalty>
2.13169e-08

> <r_epik_Ionization_Penalty_Charging>
0

> <r_epik_Ionization_Penalty_Neutral>
2.13169e-08

> <r_epik_State_Penalty>
-0

> <r_epik_Charging_Adjusted_Penalty>
0

> <i_epik_Tot_Q>
0

> <i_epik_Tot_abs_Q>
0

> <r_epik_Metal_State_Penalty>
-0

> <b_epik_Metal_Only>
0

> <s_lp_Force_Field>
OPLS_2005

> <r_lp_Energy>
17.7516

> <b_lp_Chiralities_Consistent>
1

> <s_lp_Variant>
AV-unprocessed.smi:646-1

> <Gold.Version>
5.8.1

> <Gold.Id.Protein>
6NUR|6NUR_protein|mol2

> <Gold.PLP.Fitness>
30.6882

> <Gold.PLP.PLP>
-24.8126

> <Gold.PLP.part.hbond>
-2.0000

> <Gold.PLP.part.metal>
0.0000

> <Gold.PLP.part.buried>
-4.9176

> <Gold.PLP.part.nonpolar>
-19.0215

> <Gold.PLP.part.repulsive>
0.4188

> <Gold.PLP.ligand.clash>
0.0000

> <Gold.PLP.ligand.torsion>
0.2458

> <Gold.PLP.Chemscore.Hbond>
1.9920

> <Gold.PLP.Chemscore.CHOScore>
0.0000

> <Gold.PLP.Chemscore.Metal>
0.0000

> <Gold.Chemscore.Hbonds>
donor molecule, donor type, donor heavy atom, donor atom, acceptor molecule, acceptor atom, score
      P1  H  6896  6909       L1     9  0.81
      P1  H 10752 10764       L1    14  0.78

> <Gold.PLP.Chemscore.Internal.Correction>
0.3913

> <Gold.Rescore>
     Score         DG    S(hbond)    S(metal)    S(lipo)     H(rot)  DE(clash)    DE(int)     intcor
     15.33     -16.12       1.89        0.00      69.70       1.49       0.00       0.79       ----

> <Gold.Chemscore.Fitness>
15.3258

> <Gold.Chemscore.DG>
-16.1241

> <Gold.Chemscore.ZeroCoef>
-5.4800

> <Gold.Chemscore.Hbond>
1.8894

> <Gold.Chemscore.Metal>
0.0000

> <Gold.Chemscore.Lipo>
69.7029

> <Gold.Chemscore.Internal_Hbond>
0.0000

> <Gold.Chemscore.DEClash>
0.0038

> <Gold.Chemscore.DEInternal>
0.7944

> <Gold.Chemscore.Rot>
1.4928

> <Gold.Chemscore.Internal.Correction>
   9.000000E+99

> <Gold.Chemscore.Hbonds>
donor molecule, donor type, donor heavy atom, donor atom, acceptor molecule, acceptor atom, score
      P1  H  6896  6909       L1     9  0.75
      P1  H 10752 10764       L1    14  0.72

> <Gold.Chemscore.Hbond.Weighted>
-6.3105

> <Gold.Chemscore.Metal.Weighted>
-0.0000

> <Gold.Chemscore.Lipo.Weighted>
-8.1552

> <Gold.Chemscore.Internal_Hbond.Weighted>
0.0000

> <Gold.Chemscore.DEClash.Weighted>
0.0038

> <Gold.Chemscore.DEInternal.Weighted>
0.7944

> <Gold.Chemscore.Rot.Weighted>
3.8217

> <Gold.Chemscore.Internal.Correction.Weighted>
   9.000000E+99

> <Gold.Protein.RotatedTorsions>
[ 6907 6896 6895 6894 ] final   44.93 input  -60.11 | X-H torsion
[ 7974 7965 7964 7962 ] final -142.07 input  175.53 | X-H torsion
[ 8008 7997 7996 7995 ] final  174.96 input   59.86 | X-H torsion
[ 10167 10162 10161 10158 ] final -110.18 input  -65.29 | X-H torsion
[ 10718 10713 10712 10709 ] final -102.08 input   66.30 | X-H torsion
[ 10763 10752 10751 10750 ] final  -66.63 input  -60.55 | X-H torsion
[ 11005 11000 10999 10996 ] final  -32.82 input  -57.11 | X-H torsion

> <Gold.Protein.ActiveResidues>
 VAL166  LYS551  ARG553  GLY616  TRP617  ASP618  TYR619  PRO620  LYS621  CYS622 
 ASP623  PHE694  ASN695  SER759  ASP760  ASP761  ALA762  ILE779  LEU786  VAL792 
 PHE793  MET794  SER795  GLU796  ALA797  LYS798  CYS799  TRP800  GLU811  SER814 

> <Gold.Protein.RotatedAtoms>
  152.2385  134.8252  160.0463 H   0  0  0  0  0  0  0  0  0  0  0  0  # atno 6907 bound_to 6896
  151.8975  133.3525  159.3827 H   0  0  0  0  0  0  0  0  0  0  0  0  # atno 6908 bound_to 6896
  150.7046  134.4787  159.5504 H   0  0  0  0  0  0  0  0  0  0  0  0  # atno 6909 bound_to 6896
  144.8471  140.6002  143.5414 H   0  0  0  0  0  0  0  0  0  0  0  0  # atno 7974 bound_to 7965
  156.0920  140.1421  156.9580 H   0  0  0  0  0  0  0  0  0  0  0  0  # atno 8008 bound_to 7997
  154.4648  140.0930  156.7037 H   0  0  0  0  0  0  0  0  0  0  0  0  # atno 8009 bound_to 7997
  155.4904  140.3448  155.4356 H   0  0  0  0  0  0  0  0  0  0  0  0  # atno 8010 bound_to 7997
  140.1473  143.4229  152.1520 H   0  0  0  0  0  0  0  0  0  0  0  0  # atno 10167 bound_to 10162
  156.0216  130.5403  150.7056 H   0  0  0  0  0  0  0  0  0  0  0  0  # atno 10718 bound_to 10713
  154.3626  135.6112  153.5698 H   0  0  0  0  0  0  0  0  0  0  0  0  # atno 10763 bound_to 10752
  152.9793  135.5819  154.4615 H   0  0  0  0  0  0  0  0  0  0  0  0  # atno 10764 bound_to 10752
  154.4355  135.2849  155.1861 H   0  0  0  0  0  0  0  0  0  0  0  0  # atno 10765 bound_to 10752
  140.9583  133.7179  156.1329 H   0  0  0  0  0  0  0  0  0  0  0  0  # atno 11005 bound_to 11000
  145.4575  139.1516  143.3884 LP  0  0  0  0  0  0  0  0  0  0  0  0  # atno 17320 bound_to 7965
  146.2753  140.4704  142.8798 LP  0  0  0  0  0  0  0  0  0  0  0  0  # atno 17321 bound_to 7965
  139.5443  144.7284  151.4633 LP  0  0  0  0  0  0  0  0  0  0  0  0  # atno 17342 bound_to 10162
  140.6724  143.8264  150.7016 LP  0  0  0  0  0  0  0  0  0  0  0  0  # atno 17343 bound_to 10162
  157.4706  131.0893  151.0646 LP  0  0  0  0  0  0  0  0  0  0  0  0  # atno 17370 bound_to 10713
  157.1107  130.6020  149.5481 LP  0  0  0  0  0  0  0  0  0  0  0  0  # atno 17371 bound_to 10713
  140.7504  134.4052  157.5542 LP  0  0  0  0  0  0  0  0  0  0  0  0  # atno 17394 bound_to 11000
  139.8869  134.8895  156.2555 LP  0  0  0  0  0  0  0  0  0  0  0  0  # atno 17395 bound_to 11000

$$$$
