AV-unprocessed.smi:1797|AV-procd|sdf|7258|dock7
  -GOLD-   22720 8513D 1   1.00000     0.00000
 Structure written by MMmdl.
 29 30  0  0  0  0  0  0  0  0  2 V2000
  151.1118  131.9542  155.7055 C   0  0  0  0  0  0  0  0  0  0  0  0
  150.0230  132.9526  155.5093 C   0  0  0  0  0  0  0  0  0  0  0  0
  149.8143  133.9688  156.3498 N   0  0  0  0  0  0  0  0  0  0  0  0
  148.7447  134.7606  155.9575 N   0  0  0  0  0  0  0  0  0  0  0  0
  148.1688  134.3410  154.8218 C   0  0  0  0  0  0  0  0  0  0  0  0
  147.1172  134.9715  154.2665 N   0  5  0  0  0  0  0  0  0  0  0  0
  146.3744  134.4208  153.2705 C   0  0  0  0  0  0  0  0  0  0  0  0
  145.3801  133.7260  153.4767 O   0  0  0  0  0  0  0  0  0  0  0  0
  146.7537  134.6557  151.9991 N   0  0  0  0  0  0  0  0  0  0  0  0
  146.1031  134.1517  150.7936 C   0  0  1  0  0  0  0  0  0  0  0  0
  146.2127  132.6220  150.7084 C   0  0  0  0  0  0  0  0  0  0  0  0
  145.5285  132.0891  149.4393 C   0  0  0  0  0  0  0  0  0  0  0  0
  144.1467  132.7083  149.1807 C   0  0  0  0  0  0  0  0  0  0  0  0
  143.3733  132.1558  148.4013 O   0  0  0  0  0  0  0  0  0  0  0  0
  143.8259  133.8652  149.7864 N   0  0  0  0  0  0  0  0  0  0  0  0
  144.6205  134.5650  150.7954 C   0  0  0  0  0  0  0  0  0  0  0  0
  148.9130  132.8902  154.1506 S   0  0  0  0  0  0  0  0  0  0  0  0
  152.0605  132.3654  155.3602 H   0  0  0  0  0  0  0  0  0  0  0  0
  150.8979  131.0455  155.1425 H   0  0  0  0  0  0  0  0  0  0  0  0
  151.2028  131.6963  156.7610 H   0  0  0  0  0  0  0  0  0  0  0  0
  147.5674  135.2373  151.8622 H   0  0  0  0  0  0  0  0  0  0  0  0
  146.5808  134.5918  149.9160 H   0  0  0  0  0  0  0  0  0  0  0  0
  147.2594  132.3157  150.7101 H   0  0  0  0  0  0  0  0  0  0  0  0
  145.7578  132.1665  151.5896 H   0  0  0  0  0  0  0  0  0  0  0  0
  146.1533  132.3083  148.5728 H   0  0  0  0  0  0  0  0  0  0  0  0
  145.4384  131.0038  149.4925 H   0  0  0  0  0  0  0  0  0  0  0  0
  142.9243  134.2653  149.5704 H   0  0  0  0  0  0  0  0  0  0  0  0
  144.1732  134.3495  151.7670 H   0  0  0  0  0  0  0  0  0  0  0  0
  144.5275  135.6402  150.6400 H   0  0  0  0  0  0  0  0  0  0  0  0
  1  2  1  0  0  0  0
  1 18  1  0  0  0  0
  1 19  1  0  0  0  0
  1 20  1  0  0  0  0
  2 17  1  0  0  0  0
  2  3  2  0  0  0  0
  3  4  1  0  0  0  0
  4  5  2  0  0  0  0
  5  6  1  0  0  0  0
  5 17  1  0  0  0  0
  6  7  1  0  0  0  0
  7  8  2  0  0  0  0
  7  9  1  0  0  0  0
  9 10  1  0  0  0  0
  9 21  1  0  0  0  0
 10 16  1  0  0  0  0
 10 11  1  0  0  0  0
 10 22  1  0  0  0  0
 11 12  1  0  0  0  0
 11 23  1  0  0  0  0
 11 24  1  0  0  0  0
 12 13  1  0  0  0  0
 12 25  1  0  0  0  0
 12 26  1  0  0  0  0
 13 14  2  0  0  0  0
 13 15  1  0  0  0  0
 15 16  1  0  0  0  0
 15 27  1  0  0  0  0
 16 28  1  0  0  0  0
 16 29  1  0  0  0  0
M  CHG  1   6  -1
M  END
> <s_m_source_file>
AV-unprocessed.smi

> <i_m_source_file_index>
1797

> <i_lp_mmshare_version>
43012

> <i_f3d_flags>
0

> <s_epik_input>
W0NIM11jMW5uYyhzMSlbTkhdQyg9TylbTkhdW0NAQEhdMltDSDJdW0NIMl1DKD1PKVtOSF1bQ0gyXTI=

> <s_epik_cmdline>
J2VwaWtfcHl0aG9uJywgJy1waCcsICc3LjAnLCAnLXRuJywgJzgnLCAnLW1hJywgJzIwMCcsICctbWV0YWxfYmluZGluZycsICctaW1hZScsICc8aW5maWxlLm1hZT4nLCAnLW9tYWUnLCAnPG91dGZpbGUubWFlPic=

> <r_lp_tautomer_probability>
1

> <r_epik_Ionization_Penalty>
3.31792

> <r_epik_Ionization_Penalty_Charging>
3.17379

> <r_epik_Ionization_Penalty_Neutral>
0.144127

> <r_epik_State_Penalty>
3.17099

> <r_epik_Charging_Adjusted_Penalty>
6.34478

> <i_epik_Tot_Q>
-1

> <i_epik_Tot_abs_Q>
1

> <r_epik_Metal_State_Penalty>
0.468583

> <b_epik_Metal_Only>
1

> <s_lp_Force_Field>
OPLS_2005

> <r_lp_Energy>
8.48183

> <b_lp_Chiralities_Consistent>
1

> <s_lp_Variant>
AV-unprocessed.smi:1797-4

> <Gold.Version>
5.8.1

> <Gold.Id.Protein>
6NUR|6NUR_protein|mol2

> <Gold.PLP.Fitness>
34.8891

> <Gold.PLP.PLP>
-28.3637

> <Gold.PLP.part.hbond>
-3.0960

> <Gold.PLP.part.metal>
0.0000

> <Gold.PLP.part.buried>
-4.7878

> <Gold.PLP.part.nonpolar>
-20.6527

> <Gold.PLP.part.repulsive>
0.6274

> <Gold.PLP.ligand.clash>
0.0000

> <Gold.PLP.ligand.torsion>
0.8084

> <Gold.PLP.Chemscore.Hbond>
2.7137

> <Gold.PLP.Chemscore.CHOScore>
0.0000

> <Gold.PLP.Chemscore.Metal>
0.0000

> <Gold.Chemscore.Hbonds>
donor molecule, donor type, donor heavy atom, donor atom, acceptor molecule, acceptor atom, score
      L1  H     9    21       P1  7948  1.00
      L1  H    15    27       P1 10186  1.00
      P1  H 10785 10796       L1    14  0.70

> <Gold.PLP.Chemscore.Internal.Correction>
0.0012

> <Gold.Rescore>
     Score         DG    S(hbond)    S(metal)    S(lipo)     H(rot)  DE(clash)    DE(int)     intcor
     15.76     -17.92       2.90        0.00      45.59       1.00       0.04       2.13       ----

> <Gold.Chemscore.Fitness>
15.7578

> <Gold.Chemscore.DG>
-17.9240

> <Gold.Chemscore.ZeroCoef>
-5.4800

> <Gold.Chemscore.Hbond>
2.8953

> <Gold.Chemscore.Metal>
0.0000

> <Gold.Chemscore.Lipo>
45.5865

> <Gold.Chemscore.Internal_Hbond>
0.0000

> <Gold.Chemscore.DEClash>
0.0354

> <Gold.Chemscore.DEInternal>
2.1308

> <Gold.Chemscore.Rot>
1.0000

> <Gold.Chemscore.Internal.Correction>
   9.000000E+99

> <Gold.Chemscore.Hbonds>
donor molecule, donor type, donor heavy atom, donor atom, acceptor molecule, acceptor atom, score
      L1  H     9    21       P1  7948  0.94
      L1  H    15    27       P1 10186  0.99
      P1  H 10785 10796       L1    14  0.59

> <Gold.Chemscore.Hbond.Weighted>
-9.6703

> <Gold.Chemscore.Metal.Weighted>
-0.0000

> <Gold.Chemscore.Lipo.Weighted>
-5.3336

> <Gold.Chemscore.Internal_Hbond.Weighted>
0.0000

> <Gold.Chemscore.DEClash.Weighted>
0.0354

> <Gold.Chemscore.DEInternal.Weighted>
2.1308

> <Gold.Chemscore.Rot.Weighted>
2.5600

> <Gold.Chemscore.Internal.Correction.Weighted>
   9.000000E+99

> <Gold.Protein.RotatedTorsions>
[ 6907 6896 6895 6894 ] final   91.74 input  -60.11 | X-H torsion
[ 7974 7965 7964 7962 ] final  172.96 input  175.53 | X-H torsion
[ 8008 7997 7996 7995 ] final -150.74 input   59.86 | X-H torsion
[ 10167 10162 10161 10158 ] final    9.56 input  -65.29 | X-H torsion
[ 10718 10713 10712 10709 ] final -121.74 input   66.30 | X-H torsion
[ 10763 10752 10751 10750 ] final  169.61 input  -60.55 | X-H torsion
[ 11005 11000 10999 10996 ] final   71.96 input  -57.11 | X-H torsion

> <Gold.Protein.ActiveResidues>
 VAL166  LYS551  ARG553  GLY616  TRP617  ASP618  TYR619  PRO620  LYS621  CYS622 
 ASP623  PHE694  ASN695  SER759  ASP760  ASP761  ALA762  ILE779  LEU786  VAL792 
 PHE793  MET794  SER795  GLU796  ALA797  LYS798  CYS799  TRP800  GLU811  SER814 

> <Gold.Protein.RotatedAtoms>
  152.5451  134.1610  159.8557 H   0  0  0  0  0  0  0  0  0  0  0  0  # atno 6907 bound_to 6896
  151.1628  133.4827  159.2601 H   0  0  0  0  0  0  0  0  0  0  0  0  # atno 6908 bound_to 6896
  151.1355  135.0163  159.8657 H   0  0  0  0  0  0  0  0  0  0  0  0  # atno 6909 bound_to 6896
  144.7255  139.9577  143.6434 H   0  0  0  0  0  0  0  0  0  0  0  0  # atno 7974 bound_to 7965
  155.6284  140.0689  157.2656 H   0  0  0  0  0  0  0  0  0  0  0  0  # atno 8008 bound_to 7997
  154.4212  140.1772  156.1494 H   0  0  0  0  0  0  0  0  0  0  0  0  # atno 8009 bound_to 7997
  155.9953  140.3341  155.6796 H   0  0  0  0  0  0  0  0  0  0  0  0  # atno 8010 bound_to 7997
  140.6247  143.8126  150.7219 H   0  0  0  0  0  0  0  0  0  0  0  0  # atno 10167 bound_to 10162
  156.1362  130.6432  150.9699 H   0  0  0  0  0  0  0  0  0  0  0  0  # atno 10718 bound_to 10713
  154.3856  135.2753  155.2185 H   0  0  0  0  0  0  0  0  0  0  0  0  # atno 10763 bound_to 10752
  154.4274  135.5985  153.6050 H   0  0  0  0  0  0  0  0  0  0  0  0  # atno 10764 bound_to 10752
  152.9833  135.5987  154.4104 H   0  0  0  0  0  0  0  0  0  0  0  0  # atno 10765 bound_to 10752
  139.9516  134.7217  156.0850 H   0  0  0  0  0  0  0  0  0  0  0  0  # atno 11005 bound_to 11000
  146.0662  139.3653  143.0551 LP  0  0  0  0  0  0  0  0  0  0  0  0  # atno 17320 bound_to 7965
  145.8028  140.9763  143.0990 LP  0  0  0  0  0  0  0  0  0  0  0  0  # atno 17321 bound_to 7965
  140.1724  143.4183  152.1991 LP  0  0  0  0  0  0  0  0  0  0  0  0  # atno 17342 bound_to 10162
  139.5470  144.7306  151.4553 LP  0  0  0  0  0  0  0  0  0  0  0  0  # atno 17343 bound_to 10162
  157.6534  131.0893  150.8001 LP  0  0  0  0  0  0  0  0  0  0  0  0  # atno 17370 bound_to 10713
  156.8080  130.4943  149.5360 LP  0  0  0  0  0  0  0  0  0  0  0  0  # atno 17371 bound_to 10713
  141.1180  133.6622  156.3142 LP  0  0  0  0  0  0  0  0  0  0  0  0  # atno 17394 bound_to 11000
  140.5706  134.5844  157.5456 LP  0  0  0  0  0  0  0  0  0  0  0  0  # atno 17395 bound_to 11000

$$$$
