AV-unprocessed.smi:258|AV-procd|sdf|1972|dock5
  -GOLD-   2262021133D 1   1.00000     0.00000
 Structure written by MMmdl.
 57 60  0  0  0  0  0  0  0  0  1 V2000
  148.5956  143.8399  161.1653 O   0  0  0  0  0  0  0  0  0  0  0  0
  149.4037  144.7473  160.4462 C   0  0  0  0  0  0  0  0  0  0  0  0
  150.8840  144.5185  160.7776 C   0  0  0  0  0  0  0  0  0  0  0  0
  151.6551  144.6805  159.5955 O   0  0  0  0  0  0  0  0  0  0  0  0
  152.4149  143.5375  159.2238 C   0  0  1  0  0  0  0  0  0  0  0  0
  153.1369  142.9346  160.4460 C   0  0  0  0  0  0  0  0  0  0  0  0
  153.8180  141.6115  160.0658 C   0  0  0  0  0  0  0  0  0  0  0  0
  152.8112  140.6326  159.4416 C   0  0  0  0  0  0  0  0  0  0  0  0
  152.1151  141.2526  158.3130 N   0  0  0  0  0  0  0  0  0  0  0  0
  151.4275  140.4362  157.4747 C   0  0  0  0  0  0  0  0  0  0  0  0
  151.1809  140.8268  156.1950 N   0  0  0  0  0  0  0  0  0  0  0  0
  150.5162  140.0233  155.3592 C   0  0  0  0  0  0  0  0  0  0  0  0
  150.0131  138.8096  155.5916 N   0  0  0  0  0  0  0  0  0  0  0  0
  150.2480  138.4170  156.8763 C   0  0  0  0  0  0  0  0  0  0  0  0
  150.9410  139.1592  157.8738 C   0  0  0  0  0  0  0  0  0  0  0  0
  150.9732  138.4373  159.0619 N   0  0  0  0  0  0  0  0  0  0  0  0
  150.3436  137.3291  158.7797 C   0  0  0  0  0  0  0  0  0  0  0  0
  149.8753  137.2350  157.4893 N   0  0  0  0  0  0  0  0  0  0  0  0
  149.1509  136.1242  156.9012 C   0  0  0  0  0  0  0  0  0  0  0  0
  149.9694  135.4233  155.7870 C   0  0  1  0  0  0  0  0  0  0  0  0
  151.3440  134.9440  156.3100 C   0  0  0  0  0  0  0  0  0  0  0  0
  152.2771  136.0038  156.2938 O   0  0  0  0  0  0  0  0  0  0  0  0
  149.1369  134.3094  155.1018 C   0  0  1  0  0  0  0  0  0  0  0  0
  149.6913  133.7879  153.7754 C   0  0  0  0  0  0  0  0  0  0  0  0
  149.5666  132.2670  153.8881 C   0  0  0  0  0  0  0  0  0  0  0  0
  148.6249  132.0627  154.9296 O   0  0  0  0  0  0  0  0  0  0  0  0
  148.9001  133.0362  155.9222 C   0  0  0  0  0  0  0  0  0  0  0  0
  151.4377  142.5121  158.6205 C   0  0  0  0  0  0  0  0  0  0  0  0
  147.7195  144.1907  161.2138 H   0  0  0  0  0  0  0  0  0  0  0  0
  149.2178  144.6604  159.3752 H   0  0  0  0  0  0  0  0  0  0  0  0
  149.1112  145.7543  160.7443 H   0  0  0  0  0  0  0  0  0  0  0  0
  151.2035  145.2679  161.5029 H   0  0  0  0  0  0  0  0  0  0  0  0
  151.0318  143.5411  161.2377 H   0  0  0  0  0  0  0  0  0  0  0  0
  153.1442  143.8056  158.4567 H   0  0  0  0  0  0  0  0  0  0  0  0
  153.8815  143.6256  160.8402 H   0  0  0  0  0  0  0  0  0  0  0  0
  152.4186  142.7584  161.2477 H   0  0  0  0  0  0  0  0  0  0  0  0
  154.6232  141.8072  159.3564 H   0  0  0  0  0  0  0  0  0  0  0  0
  154.2806  141.1610  160.9444 H   0  0  0  0  0  0  0  0  0  0  0  0
  153.3357  139.7347  159.1115 H   0  0  0  0  0  0  0  0  0  0  0  0
  152.0807  140.3236  160.1907 H   0  0  0  0  0  0  0  0  0  0  0  0
  150.3660  140.4084  154.3613 H   0  0  0  0  0  0  0  0  0  0  0  0
  150.2041  136.5442  159.5088 H   0  0  0  0  0  0  0  0  0  0  0  0
  148.8825  135.4274  157.6964 H   0  0  0  0  0  0  0  0  0  0  0  0
  148.2044  136.5093  156.5195 H   0  0  0  0  0  0  0  0  0  0  0  0
  150.1693  136.1537  155.0002 H   0  0  0  0  0  0  0  0  0  0  0  0
  151.2698  134.5610  157.3278 H   0  0  0  0  0  0  0  0  0  0  0  0
  151.7467  134.1391  155.6966 H   0  0  0  0  0  0  0  0  0  0  0  0
  152.3846  136.3235  157.1768 H   0  0  0  0  0  0  0  0  0  0  0  0
  148.1544  134.7255  154.8708 H   0  0  0  0  0  0  0  0  0  0  0  0
  149.0881  134.1636  152.9480 H   0  0  0  0  0  0  0  0  0  0  0  0
  150.7217  134.0843  153.5811 H   0  0  0  0  0  0  0  0  0  0  0  0
  149.2424  131.8005  152.9575 H   0  0  0  0  0  0  0  0  0  0  0  0
  150.5211  131.8245  154.1774 H   0  0  0  0  0  0  0  0  0  0  0  0
  149.7847  132.7277  156.4793 H   0  0  0  0  0  0  0  0  0  0  0  0
  148.0716  133.1353  156.6238 H   0  0  0  0  0  0  0  0  0  0  0  0
  150.6316  142.3082  159.3268 H   0  0  0  0  0  0  0  0  0  0  0  0
  150.9717  142.9391  157.7328 H   0  0  0  0  0  0  0  0  0  0  0  0
  1  2  1  0  0  0  0
  1 29  1  0  0  0  0
  2  3  1  0  0  0  0
  2 30  1  0  0  0  0
  2 31  1  0  0  0  0
  3  4  1  0  0  0  0
  3 32  1  0  0  0  0
  3 33  1  0  0  0  0
  4  5  1  0  0  0  0
  5 28  1  0  0  0  0
  5  6  1  0  0  0  0
  5 34  1  0  0  0  0
  6  7  1  0  0  0  0
  6 35  1  0  0  0  0
  6 36  1  0  0  0  0
  7  8  1  0  0  0  0
  7 37  1  0  0  0  0
  7 38  1  0  0  0  0
  8  9  1  0  0  0  0
  8 39  1  0  0  0  0
  8 40  1  0  0  0  0
  9 10  1  0  0  0  0
  9 28  1  0  0  0  0
 10 15  1  0  0  0  0
 10 11  2  0  0  0  0
 11 12  1  0  0  0  0
 12 13  2  0  0  0  0
 12 41  1  0  0  0  0
 13 14  1  0  0  0  0
 14 18  1  0  0  0  0
 14 15  2  0  0  0  0
 15 16  1  0  0  0  0
 16 17  2  0  0  0  0
 17 18  1  0  0  0  0
 17 42  1  0  0  0  0
 18 19  1  0  0  0  0
 19 20  1  0  0  0  0
 19 43  1  0  0  0  0
 19 44  1  0  0  0  0
 20 21  1  0  0  0  0
 20 23  1  0  0  0  0
 20 45  1  0  0  0  0
 21 22  1  0  0  0  0
 21 46  1  0  0  0  0
 21 47  1  0  0  0  0
 22 48  1  0  0  0  0
 23 27  1  0  0  0  0
 23 24  1  0  0  0  0
 23 49  1  0  0  0  0
 24 25  1  0  0  0  0
 24 50  1  0  0  0  0
 24 51  1  0  0  0  0
 25 26  1  0  0  0  0
 25 52  1  0  0  0  0
 25 53  1  0  0  0  0
 26 27  1  0  0  0  0
 27 54  1  0  0  0  0
 27 55  1  0  0  0  0
 28 56  1  0  0  0  0
 28 57  1  0  0  0  0
M  END
> <s_m_source_file>
AV-unprocessed.smi

> <i_m_source_file_index>
258

> <i_lp_mmshare_version>
43012

> <i_f3d_flags>
0

> <s_epik_input>
W09IXVtDSDJdW0NIMl1PW0NAQEhdMVtDSDJdW0NIMl1bQ0gyXU4oW0NIMl0xKWMobltjSF1uMiljKGMyMyluW2NIXW4zW0NIMl1bQ0BIXShbQ0gyXVtPSF0pW0NAQEhdNFtDSDJdW0NIMl1PW0NIMl00

> <s_epik_cmdline>
J2VwaWtfcHl0aG9uJywgJy1waCcsICc3LjAnLCAnLXRuJywgJzgnLCAnLW1hJywgJzIwMCcsICctbWV0YWxfYmluZGluZycsICctaW1hZScsICc8aW5maWxlLm1hZT4nLCAnLW9tYWUnLCAnPG91dGZpbGUubWFlPic=

> <r_lp_tautomer_probability>
1

> <r_epik_Ionization_Penalty>
0.00349036

> <r_epik_Ionization_Penalty_Charging>
0

> <r_epik_Ionization_Penalty_Neutral>
0.00349036

> <r_epik_State_Penalty>
0.00229798

> <r_epik_Charging_Adjusted_Penalty>
0.00229798

> <i_epik_Tot_Q>
0

> <i_epik_Tot_abs_Q>
0

> <r_epik_Metal_State_Penalty>
-0

> <b_epik_Metal_Only>
0

> <s_lp_Force_Field>
OPLS_2005

> <r_lp_Energy>
51.0481

> <b_lp_Chiralities_Consistent>
1

> <s_lp_Variant>
AV-unprocessed.smi:258-8

> <Gold.Version>
5.8.1

> <Gold.Id.Protein>
6NUR|6NUR_protein|mol2

> <Gold.PLP.Fitness>
46.8039

> <Gold.PLP.PLP>
-43.6041

> <Gold.PLP.part.hbond>
-2.2893

> <Gold.PLP.part.metal>
0.0000

> <Gold.PLP.part.buried>
-8.4758

> <Gold.PLP.part.nonpolar>
-33.3618

> <Gold.PLP.part.repulsive>
0.1195

> <Gold.PLP.ligand.clash>
0.0000

> <Gold.PLP.ligand.torsion>
1.5718

> <Gold.PLP.Chemscore.Hbond>
1.9120

> <Gold.PLP.Chemscore.CHOScore>
0.0000

> <Gold.PLP.Chemscore.Metal>
0.0000

> <Gold.Chemscore.Hbonds>
donor molecule, donor type, donor heavy atom, donor atom, acceptor molecule, acceptor atom, score
      P1  H  6933  6944       L1     1  0.76
      P1  H 10752 10763       L1    22  0.80

> <Gold.PLP.Chemscore.Internal.Correction>
0.6074

> <Gold.Rescore>
     Score         DG    S(hbond)    S(metal)    S(lipo)     H(rot)  DE(clash)    DE(int)     intcor
      9.41     -12.47       1.82        0.00     100.32       4.22       0.01       3.05       ----

> <Gold.Chemscore.Fitness>
9.4140

> <Gold.Chemscore.DG>
-12.4700

> <Gold.Chemscore.ZeroCoef>
-5.4800

> <Gold.Chemscore.Hbond>
1.8166

> <Gold.Chemscore.Metal>
0.0000

> <Gold.Chemscore.Lipo>
100.3212

> <Gold.Chemscore.Internal_Hbond>
0.0000

> <Gold.Chemscore.DEClash>
0.0108

> <Gold.Chemscore.DEInternal>
3.0452

> <Gold.Chemscore.Rot>
4.2246

> <Gold.Chemscore.Internal.Correction>
   9.000000E+99

> <Gold.Chemscore.Hbonds>
donor molecule, donor type, donor heavy atom, donor atom, acceptor molecule, acceptor atom, score
      P1  H  6933  6944       L1     1  0.51
      P1  H 10752 10763       L1    22  0.12

> <Gold.Chemscore.Hbond.Weighted>
-6.0673

> <Gold.Chemscore.Metal.Weighted>
-0.0000

> <Gold.Chemscore.Lipo.Weighted>
-11.7376

> <Gold.Chemscore.Internal_Hbond.Weighted>
0.0000

> <Gold.Chemscore.DEClash.Weighted>
0.0108

> <Gold.Chemscore.DEInternal.Weighted>
3.0452

> <Gold.Chemscore.Rot.Weighted>
10.8149

> <Gold.Chemscore.Internal.Correction.Weighted>
   9.000000E+99

> <Gold.Protein.RotatedTorsions>
[ 6907 6896 6895 6894 ] final -113.82 input  -60.11 | X-H torsion
[ 7974 7965 7964 7962 ] final  125.64 input  175.53 | X-H torsion
[ 8008 7997 7996 7995 ] final  154.56 input   59.86 | X-H torsion
[ 10167 10162 10161 10158 ] final   69.12 input  -65.29 | X-H torsion
[ 10718 10713 10712 10709 ] final -136.10 input   66.30 | X-H torsion
[ 10763 10752 10751 10750 ] final   82.54 input  -60.55 | X-H torsion
[ 11005 11000 10999 10996 ] final  127.14 input  -57.11 | X-H torsion

> <Gold.Protein.ActiveResidues>
 VAL166  LYS551  ARG553  GLY616  TRP617  ASP618  TYR619  PRO620  LYS621  CYS622 
 ASP623  PHE694  ASN695  SER759  ASP760  ASP761  ALA762  ILE779  LEU786  VAL792 
 PHE793  MET794  SER795  GLU796  ALA797  LYS798  CYS799  TRP800  GLU811  SER814 

> <Gold.Protein.RotatedAtoms>
  150.7857  133.8890  159.3307 H   0  0  0  0  0  0  0  0  0  0  0  0  # atno 6907 bound_to 6896
  151.6741  135.0970  160.0213 H   0  0  0  0  0  0  0  0  0  0  0  0  # atno 6908 bound_to 6896
  152.3920  133.6653  159.6280 H   0  0  0  0  0  0  0  0  0  0  0  0  # atno 6909 bound_to 6896
  145.0707  139.3732  143.4959 H   0  0  0  0  0  0  0  0  0  0  0  0  # atno 7974 bound_to 7965
  156.2525  140.1963  156.6664 H   0  0  0  0  0  0  0  0  0  0  0  0  # atno 8008 bound_to 7997
  154.6425  140.0582  156.9888 H   0  0  0  0  0  0  0  0  0  0  0  0  # atno 8009 bound_to 7997
  155.1541  140.3254  155.4428 H   0  0  0  0  0  0  0  0  0  0  0  0  # atno 8010 bound_to 7997
  140.0712  144.5151  150.7226 H   0  0  0  0  0  0  0  0  0  0  0  0  # atno 10167 bound_to 10162
  156.2734  130.7278  151.1253 H   0  0  0  0  0  0  0  0  0  0  0  0  # atno 10718 bound_to 10713
  153.1211  135.4724  154.9197 H   0  0  0  0  0  0  0  0  0  0  0  0  # atno 10763 bound_to 10752
  154.7577  135.3123  154.8441 H   0  0  0  0  0  0  0  0  0  0  0  0  # atno 10764 bound_to 10752
  153.9006  135.6875  153.4809 H   0  0  0  0  0  0  0  0  0  0  0  0  # atno 10765 bound_to 10752
  139.9492  134.9625  156.8811 H   0  0  0  0  0  0  0  0  0  0  0  0  # atno 11005 bound_to 11000
  146.3528  140.0451  142.8640 LP  0  0  0  0  0  0  0  0  0  0  0  0  # atno 17320 bound_to 7965
  145.1296  140.9510  143.4552 LP  0  0  0  0  0  0  0  0  0  0  0  0  # atno 17321 bound_to 7965
  140.7124  143.2516  151.4539 LP  0  0  0  0  0  0  0  0  0  0  0  0  # atno 17342 bound_to 10162
  139.5835  144.1657  152.1999 LP  0  0  0  0  0  0  0  0  0  0  0  0  # atno 17343 bound_to 10162
  157.7291  131.0626  150.5789 LP  0  0  0  0  0  0  0  0  0  0  0  0  # atno 17370 bound_to 10713
  156.5887  130.4323  149.5946 LP  0  0  0  0  0  0  0  0  0  0  0  0  # atno 17371 bound_to 10713
  140.5760  134.0398  155.7447 LP  0  0  0  0  0  0  0  0  0  0  0  0  # atno 17394 bound_to 11000
  141.1151  133.9554  157.2838 LP  0  0  0  0  0  0  0  0  0  0  0  0  # atno 17395 bound_to 11000

$$$$
