AV-unprocessed.smi:69|AV-procd|sdf|646|dock9
  -GOLD-   2262016543D 1   1.00000     0.00000
 Structure written by MMmdl.
 32 34  0  0  0  0  0  0  0  0  1 V2000
  155.4744  144.0072  159.8404 N   0  0  0  0  0  0  0  0  0  0  0  0
  154.5746  143.1850  160.3970 C   0  0  0  0  0  0  0  0  0  0  0  0
  153.9562  143.5835  161.5333 N   0  0  0  0  0  0  0  0  0  0  0  0
  153.0538  142.7810  162.1070 C   0  0  0  0  0  0  0  0  0  0  0  0
  152.6387  141.5745  161.7129 N   0  0  0  0  0  0  0  0  0  0  0  0
  153.2620  141.1745  160.5660 C   0  0  0  0  0  0  0  0  0  0  0  0
  154.2397  141.9202  159.8507 C   0  0  0  0  0  0  0  0  0  0  0  0
  154.6573  141.2067  158.7354 N   0  0  0  0  0  0  0  0  0  0  0  0
  153.9627  140.1020  158.7920 C   0  0  0  0  0  0  0  0  0  0  0  0
  153.0935  140.0018  159.8567 N   0  0  0  0  0  0  0  0  0  0  0  0
  152.1657  138.8696  160.1745 C   0  0  1  0  0  0  0  0  0  0  0  0
  151.4187  138.5751  159.0368 O   0  0  0  0  0  0  0  0  0  0  0  0
  151.1778  137.1742  158.9890 C   0  0  1  0  0  0  0  0  0  0  0  0
  150.7688  136.7324  157.5730 C   0  0  0  0  0  0  0  0  0  0  0  0
  150.8137  135.3250  157.4722 O   0  0  0  0  0  0  0  0  0  0  0  0
  152.4893  136.5759  159.5201 C   0  0  1  0  0  0  0  0  0  0  0  0
  153.4514  136.4529  158.4863 O   0  0  0  0  0  0  0  0  0  0  0  0
  152.9031  137.5797  160.5952 C   0  0  1  0  0  0  0  0  0  0  0  0
  154.3084  137.6935  160.7561 O   0  0  0  0  0  0  0  0  0  0  0  0
  151.5138  139.2568  160.9592 H   0  0  0  0  0  0  0  0  0  0  0  0
  150.3847  136.9362  159.7008 H   0  0  0  0  0  0  0  0  0  0  0  0
  152.3326  135.5837  159.9443 H   0  0  0  0  0  0  0  0  0  0  0  0
  152.4789  137.2708  161.5514 H   0  0  0  0  0  0  0  0  0  0  0  0
  155.9483  143.7332  158.9915 H   0  0  0  0  0  0  0  0  0  0  0  0
  155.6729  144.9000  160.2677 H   0  0  0  0  0  0  0  0  0  0  0  0
  152.5976  143.1590  163.0099 H   0  0  0  0  0  0  0  0  0  0  0  0
  154.0623  139.3249  158.0483 H   0  0  0  0  0  0  0  0  0  0  0  0
  149.7751  137.0992  157.3138 H   0  0  0  0  0  0  0  0  0  0  0  0
  151.4672  137.1327  156.8374 H   0  0  0  0  0  0  0  0  0  0  0  0
  150.6215  134.9578  158.3215 H   0  0  0  0  0  0  0  0  0  0  0  0
  154.3120  136.4928  158.8753 H   0  0  0  0  0  0  0  0  0  0  0  0
  154.4918  138.4825  161.2426 H   0  0  0  0  0  0  0  0  0  0  0  0
  1  2  1  0  0  0  0
  1 24  1  0  0  0  0
  1 25  1  0  0  0  0
  2  7  1  0  0  0  0
  2  3  2  0  0  0  0
  3  4  1  0  0  0  0
  4  5  2  0  0  0  0
  4 26  1  0  0  0  0
  5  6  1  0  0  0  0
  6 10  1  0  0  0  0
  6  7  2  0  0  0  0
  7  8  1  0  0  0  0
  8  9  2  0  0  0  0
  9 10  1  0  0  0  0
  9 27  1  0  0  0  0
 10 11  1  0  0  0  0
 11 20  1  0  0  0  0
 11 18  1  0  0  0  0
 11 12  1  0  0  0  0
 12 13  1  0  0  0  0
 13 21  1  0  0  0  0
 13 14  1  0  0  0  0
 13 16  1  0  0  0  0
 14 15  1  0  0  0  0
 14 28  1  0  0  0  0
 14 29  1  0  0  0  0
 15 30  1  0  0  0  0
 16 22  1  0  0  0  0
 16 17  1  0  0  0  0
 16 18  1  0  0  0  0
 17 31  1  0  0  0  0
 18 23  1  0  0  0  0
 18 19  1  0  0  0  0
 19 32  1  0  0  0  0
M  END
> <s_m_source_file>
AV-unprocessed.smi

> <i_m_source_file_index>
69

> <i_lp_mmshare_version>
43012

> <i_f3d_flags>
0

> <s_epik_input>
bjFbY0hdbmMoW05IMl0pYyhjMTIpbltjSF1uMltDQEBIXTNPW0NASF0oW0NIMl1bT0hdKVtDQEBIXShbT0hdKVtDQEhdM1tPSF0=

> <s_epik_cmdline>
J2VwaWtfcHl0aG9uJywgJy1waCcsICc3LjAnLCAnLXRuJywgJzgnLCAnLW1hJywgJzIwMCcsICctbWV0YWxfYmluZGluZycsICctaW1hZScsICc8aW5maWxlLm1hZT4nLCAnLW9tYWUnLCAnPG91dGZpbGUubWFlPic=

> <r_lp_tautomer_probability>
1

> <r_epik_Ionization_Penalty>
0.000428445

> <r_epik_Ionization_Penalty_Charging>
0

> <r_epik_Ionization_Penalty_Neutral>
0.000428445

> <r_epik_State_Penalty>
-0

> <r_epik_Charging_Adjusted_Penalty>
0

> <i_epik_Tot_Q>
0

> <i_epik_Tot_abs_Q>
0

> <r_epik_Metal_State_Penalty>
-0

> <b_epik_Metal_Only>
0

> <s_epik_Chemistry_Notes>
This compound contains an acetal/aminal-like group ( X-CH(R)-Y where X, Y are N, S, or O) that may be acid/base labile, releasing an aldehyde.

> <s_lp_Force_Field>
OPLS_2005

> <r_lp_Energy>
45.7014

> <b_lp_Chiralities_Consistent>
1

> <s_lp_Variant>
AV-unprocessed.smi:69-4

> <Gold.Version>
5.8.1

> <Gold.Id.Protein>
6NUR|6NUR_protein|mol2

> <Gold.PLP.Fitness>
38.2865

> <Gold.PLP.PLP>
-32.8609

> <Gold.PLP.part.hbond>
-4.5683

> <Gold.PLP.part.metal>
0.0000

> <Gold.PLP.part.buried>
-4.7909

> <Gold.PLP.part.nonpolar>
-22.6150

> <Gold.PLP.part.repulsive>
0.0925

> <Gold.PLP.ligand.clash>
0.0000

> <Gold.PLP.ligand.torsion>
0.2045

> <Gold.PLP.Chemscore.Hbond>
1.9440

> <Gold.PLP.Chemscore.CHOScore>
0.0000

> <Gold.PLP.Chemscore.Metal>
0.0000

> <Gold.PLP.Chemscore.Internal.Correction>
0.0026

> <Gold.Rescore>
     Score         DG    S(hbond)    S(metal)    S(lipo)     H(rot)  DE(clash)    DE(int)     intcor
      5.51      -7.41       2.46        0.00      34.36       4.03       1.69       0.20       ----

> <Gold.Chemscore.Fitness>
5.5105

> <Gold.Chemscore.DG>
-7.4063

> <Gold.Chemscore.ZeroCoef>
-5.4800

> <Gold.Chemscore.Hbond>
2.4603

> <Gold.Chemscore.Metal>
0.0000

> <Gold.Chemscore.Lipo>
34.3590

> <Gold.Chemscore.Internal_Hbond>
0.0000

> <Gold.Chemscore.DEClash>
1.6934

> <Gold.Chemscore.DEInternal>
0.2023

> <Gold.Chemscore.Rot>
4.0277

> <Gold.Chemscore.Internal.Correction>
   9.000000E+99

> <Gold.Chemscore.Hbond.Weighted>
-8.2172

> <Gold.Chemscore.Metal.Weighted>
-0.0000

> <Gold.Chemscore.Lipo.Weighted>
-4.0200

> <Gold.Chemscore.Internal_Hbond.Weighted>
0.0000

> <Gold.Chemscore.DEClash.Weighted>
1.6934

> <Gold.Chemscore.DEInternal.Weighted>
0.2023

> <Gold.Chemscore.Rot.Weighted>
10.3110

> <Gold.Chemscore.Internal.Correction.Weighted>
   9.000000E+99

> <Gold.Protein.RotatedTorsions>
[ 6907 6896 6895 6894 ] final  161.99 input  -60.11 | X-H torsion
[ 7974 7965 7964 7962 ] final   90.97 input  175.53 | X-H torsion
[ 8008 7997 7996 7995 ] final  -39.72 input   59.86 | X-H torsion
[ 10167 10162 10161 10158 ] final   13.08 input  -65.29 | X-H torsion
[ 10718 10713 10712 10709 ] final  -72.83 input   66.30 | X-H torsion
[ 10763 10752 10751 10750 ] final  -86.64 input  -60.55 | X-H torsion
[ 11005 11000 10999 10996 ] final  116.41 input  -57.11 | X-H torsion

> <Gold.Protein.ActiveResidues>
 VAL166  LYS551  ARG553  GLY616  TRP617  ASP618  TYR619  PRO620  LYS621  CYS622 
 ASP623  PHE694  ASN695  SER759  ASP760  ASP761  ALA762  ILE779  LEU786  VAL792 
 PHE793  MET794  SER795  GLU796  ALA797  LYS798  CYS799  TRP800  GLU811  SER814 

> <Gold.Protein.RotatedAtoms>
  151.9473  133.3655  159.3986 H   0  0  0  0  0  0  0  0  0  0  0  0  # atno 6907 bound_to 6896
  150.6987  134.4377  159.5287 H   0  0  0  0  0  0  0  0  0  0  0  0  # atno 6908 bound_to 6896
  152.2044  134.8558  160.0555 H   0  0  0  0  0  0  0  0  0  0  0  0  # atno 6909 bound_to 6896
  145.5119  139.2277  143.2720 H   0  0  0  0  0  0  0  0  0  0  0  0  # atno 7974 bound_to 7965
  154.4020  140.1544  156.2909 H   0  0  0  0  0  0  0  0  0  0  0  0  # atno 8008 bound_to 7997
  155.8786  140.3445  155.5849 H   0  0  0  0  0  0  0  0  0  0  0  0  # atno 8009 bound_to 7997
  155.7693  140.0828  157.2106 H   0  0  0  0  0  0  0  0  0  0  0  0  # atno 8010 bound_to 7997
  140.6026  143.8573  150.6981 H   0  0  0  0  0  0  0  0  0  0  0  0  # atno 10167 bound_to 10162
  156.0304  130.4381  150.2651 H   0  0  0  0  0  0  0  0  0  0  0  0  # atno 10718 bound_to 10713
  154.6247  135.5442  153.7614 H   0  0  0  0  0  0  0  0  0  0  0  0  # atno 10763 bound_to 10752
  153.0255  135.6421  154.1389 H   0  0  0  0  0  0  0  0  0  0  0  0  # atno 10764 bound_to 10752
  154.1322  135.2913  155.3162 H   0  0  0  0  0  0  0  0  0  0  0  0  # atno 10765 bound_to 10752
  139.9040  134.9597  156.7193 H   0  0  0  0  0  0  0  0  0  0  0  0  # atno 11005 bound_to 11000
  146.2161  140.5926  142.9038 LP  0  0  0  0  0  0  0  0  0  0  0  0  # atno 17320 bound_to 7965
  144.7723  140.5664  143.6662 LP  0  0  0  0  0  0  0  0  0  0  0  0  # atno 17321 bound_to 7965
  140.2123  143.3874  152.1709 LP  0  0  0  0  0  0  0  0  0  0  0  0  # atno 17342 bound_to 10162
  139.5302  144.7150  151.5084 LP  0  0  0  0  0  0  0  0  0  0  0  0  # atno 17343 bound_to 10162
  157.0754  131.0128  151.3175 LP  0  0  0  0  0  0  0  0  0  0  0  0  # atno 17370 bound_to 10713
  157.4968  130.7855  149.7563 LP  0  0  0  0  0  0  0  0  0  0  0  0  # atno 17371 bound_to 10713
  140.7013  133.9304  155.8026 LP  0  0  0  0  0  0  0  0  0  0  0  0  # atno 17394 bound_to 11000
  141.0369  134.0676  157.3948 LP  0  0  0  0  0  0  0  0  0  0  0  0  # atno 17395 bound_to 11000

$$$$
