AV-unprocessed.smi:2740|AV-procd|sdf|10555|dock3
  -GOLD-   2272015 03D 1   1.00000     0.00000
 Structure written by MMmdl.
 31 32  0  0  0  0  0  0  0  0  1 V2000
  143.7605  132.4245  149.5235 C   0  0  0  0  0  0  0  0  0  0  0  0
  144.8794  132.5038  150.5062 C   0  0  0  0  0  0  0  0  0  0  0  0
  145.4215  131.4797  151.2448 C   0  0  0  0  0  0  0  0  0  0  0  0
  146.4683  131.8769  152.0802 N   0  0  0  0  0  0  0  0  0  0  0  0
  146.7204  133.1865  151.9800 C   0  0  0  0  0  0  0  0  0  0  0  0
  147.7334  133.8661  152.7065 N   0  0  0  0  0  0  0  0  0  0  0  0
  148.2231  133.5713  153.9234 C   0  0  0  0  0  0  0  0  0  0  0  0
  147.8469  132.6392  154.6344 O   0  0  0  0  0  0  0  0  0  0  0  0
  149.1868  134.4329  154.2799 N   0  0  0  0  0  0  0  0  0  0  0  0
  149.9268  134.4013  155.5378 C   0  0  0  0  0  0  0  0  0  0  0  0
  150.2123  132.9619  155.9994 C   0  0  1  0  0  0  0  0  0  0  0  0
  150.6952  132.0117  154.9027 C   0  0  0  0  0  0  0  0  0  0  0  0
  151.4480  130.9767  155.7060 C   0  0  0  0  0  0  0  0  0  0  0  0
  152.1142  131.8382  156.7745 C   0  0  0  0  0  0  0  0  0  0  0  0
  151.2519  132.9561  156.9745 O   0  0  0  0  0  0  0  0  0  0  0  0
  145.6725  134.0217  150.8440 S   0  0  0  0  0  0  0  0  0  0  0  0
  143.5576  131.3908  149.2426 H   0  0  0  0  0  0  0  0  0  0  0  0
  144.0016  132.9770  148.6151 H   0  0  0  0  0  0  0  0  0  0  0  0
  142.8470  132.8455  149.9437 H   0  0  0  0  0  0  0  0  0  0  0  0
  145.1261  130.4408  151.2371 H   0  0  0  0  0  0  0  0  0  0  0  0
  148.1378  134.6654  152.2415 H   0  0  0  0  0  0  0  0  0  0  0  0
  149.4302  135.1676  153.6321 H   0  0  0  0  0  0  0  0  0  0  0  0
  150.8552  134.9701  155.4627 H   0  0  0  0  0  0  0  0  0  0  0  0
  149.3212  134.9084  156.2893 H   0  0  0  0  0  0  0  0  0  0  0  0
  149.3238  132.5400  156.4720 H   0  0  0  0  0  0  0  0  0  0  0  0
  149.8798  131.5886  154.3152 H   0  0  0  0  0  0  0  0  0  0  0  0
  151.3785  132.5227  154.2228 H   0  0  0  0  0  0  0  0  0  0  0  0
  150.7479  130.2785  156.1669 H   0  0  0  0  0  0  0  0  0  0  0  0
  152.1615  130.4060  155.1111 H   0  0  0  0  0  0  0  0  0  0  0  0
  152.2800  131.2918  157.7032 H   0  0  0  0  0  0  0  0  0  0  0  0
  153.0784  132.2050  156.4208 H   0  0  0  0  0  0  0  0  0  0  0  0
  1  2  1  0  0  0  0
  1 17  1  0  0  0  0
  1 18  1  0  0  0  0
  1 19  1  0  0  0  0
  2 16  1  0  0  0  0
  2  3  2  0  0  0  0
  3  4  1  0  0  0  0
  3 20  1  0  0  0  0
  4  5  2  0  0  0  0
  5  6  1  0  0  0  0
  5 16  1  0  0  0  0
  6  7  1  0  0  0  0
  6 21  1  0  0  0  0
  7  8  2  0  0  0  0
  7  9  1  0  0  0  0
  9 10  1  0  0  0  0
  9 22  1  0  0  0  0
 10 11  1  0  0  0  0
 10 23  1  0  0  0  0
 10 24  1  0  0  0  0
 11 15  1  0  0  0  0
 11 12  1  0  0  0  0
 11 25  1  0  0  0  0
 12 13  1  0  0  0  0
 12 26  1  0  0  0  0
 12 27  1  0  0  0  0
 13 14  1  0  0  0  0
 13 28  1  0  0  0  0
 13 29  1  0  0  0  0
 14 15  1  0  0  0  0
 14 30  1  0  0  0  0
 14 31  1  0  0  0  0
M  END
> <s_m_source_file>
AV-unprocessed.smi

> <i_m_source_file_index>
2740

> <i_lp_mmshare_version>
43012

> <i_f3d_flags>
0

> <s_epik_input>
W0NIM11jMVtjSF1uYyhzMSlbTkhdQyg9TylbTkhdW0NIMl1bQ0BASF0yW0NIMl1bQ0gyXVtDSDJdTzI=

> <s_epik_cmdline>
J2VwaWtfcHl0aG9uJywgJy1waCcsICc3LjAnLCAnLXRuJywgJzgnLCAnLW1hJywgJzIwMCcsICctbWV0YWxfYmluZGluZycsICctaW1hZScsICc8aW5maWxlLm1hZT4nLCAnLW9tYWUnLCAnPG91dGZpbGUubWFlPic=

> <r_lp_tautomer_probability>
0.999

> <r_epik_Ionization_Penalty>
0.000387528

> <r_epik_Ionization_Penalty_Charging>
0

> <r_epik_Ionization_Penalty_Neutral>
0.000387528

> <r_epik_State_Penalty>
0.000177984

> <r_epik_Charging_Adjusted_Penalty>
0.000177984

> <i_epik_Tot_Q>
0

> <i_epik_Tot_abs_Q>
0

> <r_epik_Metal_State_Penalty>
0.00626158

> <b_epik_Metal_Only>
0

> <s_lp_Force_Field>
OPLS_2005

> <r_lp_Energy>
15.3507

> <b_lp_Chiralities_Consistent>
1

> <s_lp_Variant>
AV-unprocessed.smi:2740-2

> <Gold.Version>
5.8.1

> <Gold.Id.Protein>
6NUR|6NUR_protein|mol2

> <Gold.PLP.Fitness>
34.3859

> <Gold.PLP.PLP>
-27.4582

> <Gold.PLP.part.hbond>
-3.0000

> <Gold.PLP.part.metal>
0.0000

> <Gold.PLP.part.buried>
-4.7620

> <Gold.PLP.part.nonpolar>
-20.1195

> <Gold.PLP.part.repulsive>
0.1491

> <Gold.PLP.ligand.clash>
0.0006

> <Gold.PLP.ligand.torsion>
0.4817

> <Gold.PLP.Chemscore.Hbond>
2.6295

> <Gold.PLP.Chemscore.CHOScore>
0.0000

> <Gold.PLP.Chemscore.Metal>
0.0000

> <Gold.Chemscore.Hbonds>
donor molecule, donor type, donor heavy atom, donor atom, acceptor molecule, acceptor atom, score
      L1  H     6    21       P1  7948  1.00
      L1  H     9    22       P1  7948  0.67
      P1  H  6896  6907       L1    15  0.36

> <Gold.PLP.Chemscore.Internal.Correction>
0.0032

> <Gold.Rescore>
     Score         DG    S(hbond)    S(metal)    S(lipo)     H(rot)  DE(clash)    DE(int)     intcor
     12.71     -14.77       1.82        0.00      55.07       1.27       0.15       1.90       ----

> <Gold.Chemscore.Fitness>
12.7146

> <Gold.Chemscore.DG>
-14.7653

> <Gold.Chemscore.ZeroCoef>
-5.4800

> <Gold.Chemscore.Hbond>
1.8226

> <Gold.Chemscore.Metal>
0.0000

> <Gold.Chemscore.Lipo>
55.0698

> <Gold.Chemscore.Internal_Hbond>
0.0000

> <Gold.Chemscore.DEClash>
0.1461

> <Gold.Chemscore.DEInternal>
1.9046

> <Gold.Chemscore.Rot>
1.2678

> <Gold.Chemscore.Internal.Correction>
   9.000000E+99

> <Gold.Chemscore.Hbonds>
donor molecule, donor type, donor heavy atom, donor atom, acceptor molecule, acceptor atom, score
      L1  H     6    21       P1  7948  0.26
      L1  H     9    22       P1  7948  0.09
      P1  H  6896  6907       L1    15  0.24

> <Gold.Chemscore.Hbond.Weighted>
-6.0876

> <Gold.Chemscore.Metal.Weighted>
-0.0000

> <Gold.Chemscore.Lipo.Weighted>
-6.4432

> <Gold.Chemscore.Internal_Hbond.Weighted>
0.0000

> <Gold.Chemscore.DEClash.Weighted>
0.1461

> <Gold.Chemscore.DEInternal.Weighted>
1.9046

> <Gold.Chemscore.Rot.Weighted>
3.2455

> <Gold.Chemscore.Internal.Correction.Weighted>
   9.000000E+99

> <Gold.Protein.RotatedTorsions>
[ 6907 6896 6895 6894 ] final -152.13 input  -60.11 | X-H torsion
[ 7974 7965 7964 7962 ] final   99.17 input  175.53 | X-H torsion
[ 8008 7997 7996 7995 ] final  174.02 input   59.86 | X-H torsion
[ 10167 10162 10161 10158 ] final  -96.45 input  -65.29 | X-H torsion
[ 10718 10713 10712 10709 ] final  -88.81 input   66.30 | X-H torsion
[ 10763 10752 10751 10750 ] final  -86.67 input  -60.55 | X-H torsion
[ 11005 11000 10999 10996 ] final   11.84 input  -57.11 | X-H torsion

> <Gold.Protein.ActiveResidues>
 VAL166  LYS551  ARG553  GLY616  TRP617  ASP618  TYR619  PRO620  LYS621  CYS622 
 ASP623  PHE694  ASN695  SER759  ASP760  ASP761  ALA762  ILE779  LEU786  VAL792 
 PHE793  MET794  SER795  GLU796  ALA797  LYS798  CYS799  TRP800  GLU811  SER814 

> <Gold.Protein.RotatedAtoms>
  151.2232  133.4491  159.2601 H   0  0  0  0  0  0  0  0  0  0  0  0  # atno 6907 bound_to 6896
  151.0865  134.9890  159.8392 H   0  0  0  0  0  0  0  0  0  0  0  0  # atno 6908 bound_to 6896
  152.5430  134.2168  159.8825 H   0  0  0  0  0  0  0  0  0  0  0  0  # atno 6909 bound_to 6896
  145.4025  139.2345  143.3292 H   0  0  0  0  0  0  0  0  0  0  0  0  # atno 7974 bound_to 7965
  156.1017  140.1445  156.9459 H   0  0  0  0  0  0  0  0  0  0  0  0  # atno 8008 bound_to 7997
  154.4707  140.0911  156.7181 H   0  0  0  0  0  0  0  0  0  0  0  0  # atno 8009 bound_to 7997
  155.4749  140.3443  155.4333 H   0  0  0  0  0  0  0  0  0  0  0  0  # atno 8010 bound_to 7997
  140.2937  143.3205  152.0320 H   0  0  0  0  0  0  0  0  0  0  0  0  # atno 10167 bound_to 10162
  155.9983  130.4849  150.5076 H   0  0  0  0  0  0  0  0  0  0  0  0  # atno 10718 bound_to 10713
  154.6250  135.5441  153.7617 H   0  0  0  0  0  0  0  0  0  0  0  0  # atno 10763 bound_to 10752
  153.0257  135.6422  154.1384 H   0  0  0  0  0  0  0  0  0  0  0  0  # atno 10764 bound_to 10752
  154.1317  135.2914  155.3163 H   0  0  0  0  0  0  0  0  0  0  0  0  # atno 10765 bound_to 10752
  140.4987  134.0768  155.7788 H   0  0  0  0  0  0  0  0  0  0  0  0  # atno 11005 bound_to 11000
  146.2745  140.4724  142.8801 LP  0  0  0  0  0  0  0  0  0  0  0  0  # atno 17320 bound_to 7965
  144.8364  140.6789  143.6257 LP  0  0  0  0  0  0  0  0  0  0  0  0  # atno 17321 bound_to 7965
  139.4932  144.6506  151.6683 LP  0  0  0  0  0  0  0  0  0  0  0  0  # atno 17342 bound_to 10162
  140.5711  144.0108  150.6217 LP  0  0  0  0  0  0  0  0  0  0  0  0  # atno 17343 bound_to 10162
  157.3053  131.0653  151.2039 LP  0  0  0  0  0  0  0  0  0  0  0  0  # atno 17370 bound_to 10713
  157.3004  130.6840  149.6161 LP  0  0  0  0  0  0  0  0  0  0  0  0  # atno 17371 bound_to 10713
  141.1447  133.9076  157.2244 LP  0  0  0  0  0  0  0  0  0  0  0  0  # atno 17394 bound_to 11000
  139.9726  135.0123  156.9551 LP  0  0  0  0  0  0  0  0  0  0  0  0  # atno 17395 bound_to 11000

$$$$
