AV-unprocessed.smi:2034|AV-procd|sdf|8266|dock2
  -GOLD-   2272010543D 1   1.00000     0.00000
 Structure written by MMmdl.
 50 52  0  0  0  0  0  0  0  0  1 V2000
  153.5514  141.2254  160.5452 C   0  0  0  0  0  0  0  0  0  0  0  0
  153.1202  141.9227  159.2505 C   0  0  1  0  0  0  0  0  0  0  0  0
  152.1099  141.0804  158.4487 C   0  0  0  0  0  0  0  0  0  0  0  0
  151.6369  141.8240  157.2842 N   0  0  0  0  0  0  0  0  0  0  0  0
  150.9297  141.0671  156.3250 C   0  0  0  0  0  0  0  0  0  0  0  0
  151.4804  139.8656  155.8204 C   0  0  0  0  0  0  0  0  0  0  0  0
  150.7550  139.1242  154.8689 C   0  0  0  0  0  0  0  0  0  0  0  0
  149.4950  139.5906  154.4473 C   0  0  0  0  0  0  0  0  0  0  0  0
  148.7906  138.8311  153.4750 N   0  0  0  0  0  0  0  0  0  0  0  0
  147.4840  138.8812  153.1647 C   0  0  0  0  0  0  0  0  0  0  0  0
  146.6497  139.6040  153.7095 O   0  0  0  0  0  0  0  0  0  0  0  0
  147.1848  138.0144  152.1874 N   0  0  0  0  0  0  0  0  0  0  0  0
  145.8490  137.7937  151.6453 C   0  0  0  0  0  0  0  0  0  0  0  0
  145.4158  136.3259  151.7952 C   0  0  1  0  0  0  0  0  0  0  0  0
  143.9541  136.1505  152.1929 C   0  0  0  0  0  0  0  0  0  0  0  0
  143.6685  134.7246  151.7611 C   0  0  0  0  0  0  0  0  0  0  0  0
  144.6663  134.4815  150.6237 C   0  0  0  0  0  0  0  0  0  0  0  0
  145.4709  135.6538  150.5460 O   0  0  0  0  0  0  0  0  0  0  0  0
  149.0325  140.8120  154.9914 C   0  0  0  0  0  0  0  0  0  0  0  0
  149.7270  141.5271  155.9012 N   0  0  0  0  0  0  0  0  0  0  0  0
  151.1288  143.1530  157.6176 C   0  0  0  0  0  0  0  0  0  0  0  0
  152.1661  143.9359  158.4440 C   0  0  1  0  0  0  0  0  0  0  0  0
  151.6210  145.2874  158.9174 C   0  0  0  0  0  0  0  0  0  0  0  0
  152.5241  143.1713  159.5921 O   0  0  0  0  0  0  0  0  0  0  0  0
  154.0221  140.2648  160.3353 H   0  0  0  0  0  0  0  0  0  0  0  0
  152.6978  141.0447  161.1994 H   0  0  0  0  0  0  0  0  0  0  0  0
  154.2691  141.8344  161.0950 H   0  0  0  0  0  0  0  0  0  0  0  0
  154.0091  142.1046  158.6435 H   0  0  0  0  0  0  0  0  0  0  0  0
  152.5794  140.1407  158.1611 H   0  0  0  0  0  0  0  0  0  0  0  0
  151.2519  140.8273  159.0731 H   0  0  0  0  0  0  0  0  0  0  0  0
  152.4504  139.5138  156.1392 H   0  0  0  0  0  0  0  0  0  0  0  0
  151.1641  138.2067  154.4717 H   0  0  0  0  0  0  0  0  0  0  0  0
  149.3329  138.1246  153.0002 H   0  0  0  0  0  0  0  0  0  0  0  0
  147.9297  137.4527  151.8021 H   0  0  0  0  0  0  0  0  0  0  0  0
  145.1343  138.4511  152.1430 H   0  0  0  0  0  0  0  0  0  0  0  0
  145.8518  138.0798  150.5932 H   0  0  0  0  0  0  0  0  0  0  0  0
  146.0532  135.8023  152.5103 H   0  0  0  0  0  0  0  0  0  0  0  0
  143.7795  136.3170  153.2564 H   0  0  0  0  0  0  0  0  0  0  0  0
  143.3229  136.8406  151.6309 H   0  0  0  0  0  0  0  0  0  0  0  0
  143.8643  134.0343  152.5826 H   0  0  0  0  0  0  0  0  0  0  0  0
  142.6331  134.5897  151.4473 H   0  0  0  0  0  0  0  0  0  0  0  0
  145.2938  133.6155  150.8377 H   0  0  0  0  0  0  0  0  0  0  0  0
  144.1668  134.3112  149.6696 H   0  0  0  0  0  0  0  0  0  0  0  0
  148.0969  141.2556  154.6887 H   0  0  0  0  0  0  0  0  0  0  0  0
  150.9012  143.7065  156.7054 H   0  0  0  0  0  0  0  0  0  0  0  0
  150.1987  143.0513  158.1789 H   0  0  0  0  0  0  0  0  0  0  0  0
  153.0583  144.1136  157.8408 H   0  0  0  0  0  0  0  0  0  0  0  0
  151.3418  145.9159  158.0714 H   0  0  0  0  0  0  0  0  0  0  0  0
  152.3679  145.8265  159.5003 H   0  0  0  0  0  0  0  0  0  0  0  0
  150.7383  145.1581  159.5445 H   0  0  0  0  0  0  0  0  0  0  0  0
  1  2  1  0  0  0  0
  1 25  1  0  0  0  0
  1 26  1  0  0  0  0
  1 27  1  0  0  0  0
  2 24  1  0  0  0  0
  2  3  1  0  0  0  0
  2 28  1  0  0  0  0
  3  4  1  0  0  0  0
  3 29  1  0  0  0  0
  3 30  1  0  0  0  0
  4  5  1  0  0  0  0
  4 21  1  0  0  0  0
  5 20  1  0  0  0  0
  5  6  2  0  0  0  0
  6  7  1  0  0  0  0
  6 31  1  0  0  0  0
  7  8  2  0  0  0  0
  7 32  1  0  0  0  0
  8  9  1  0  0  0  0
  8 19  1  0  0  0  0
  9 10  1  0  0  0  0
  9 33  1  0  0  0  0
 10 11  2  0  0  0  0
 10 12  1  0  0  0  0
 12 13  1  0  0  0  0
 12 34  1  0  0  0  0
 13 14  1  0  0  0  0
 13 35  1  0  0  0  0
 13 36  1  0  0  0  0
 14 18  1  0  0  0  0
 14 15  1  0  0  0  0
 14 37  1  0  0  0  0
 15 16  1  0  0  0  0
 15 38  1  0  0  0  0
 15 39  1  0  0  0  0
 16 17  1  0  0  0  0
 16 40  1  0  0  0  0
 16 41  1  0  0  0  0
 17 18  1  0  0  0  0
 17 42  1  0  0  0  0
 17 43  1  0  0  0  0
 19 20  2  0  0  0  0
 19 44  1  0  0  0  0
 21 22  1  0  0  0  0
 21 45  1  0  0  0  0
 21 46  1  0  0  0  0
 22 23  1  0  0  0  0
 22 24  1  0  0  0  0
 22 47  1  0  0  0  0
 23 48  1  0  0  0  0
 23 49  1  0  0  0  0
 23 50  1  0  0  0  0
M  END
> <s_m_source_file>
AV-unprocessed.smi

> <i_m_source_file_index>
2034

> <i_lp_mmshare_version>
43012

> <i_f3d_flags>
0

> <s_epik_input>
W0NIM11bQ0BASF0xW0NIMl1OKFtDSDJdW0NASF0oTzEpW0NIM10pYzJbY0hdW2NIXWMoW2NIXW4yKVtOSF1DKD1PKVtOSF1bQ0gyXVtDQEBIXTNbQ0gyXVtDSDJdW0NIMl1PMw==

> <s_epik_cmdline>
J2VwaWtfcHl0aG9uJywgJy1waCcsICc3LjAnLCAnLXRuJywgJzgnLCAnLW1hJywgJzIwMCcsICctbWV0YWxfYmluZGluZycsICctaW1hZScsICc8aW5maWxlLm1hZT4nLCAnLW9tYWUnLCAnPG91dGZpbGUubWFlPic=

> <r_lp_tautomer_probability>
1

> <r_epik_Ionization_Penalty>
0.00268225

> <r_epik_Ionization_Penalty_Charging>
0

> <r_epik_Ionization_Penalty_Neutral>
0.00268225

> <r_epik_State_Penalty>
0.00184408

> <r_epik_Charging_Adjusted_Penalty>
0.00184408

> <i_epik_Tot_Q>
0

> <i_epik_Tot_abs_Q>
0

> <r_epik_Metal_State_Penalty>
-0

> <b_epik_Metal_Only>
0

> <s_lp_Force_Field>
OPLS_2005

> <r_lp_Energy>
32.5235

> <b_lp_Chiralities_Consistent>
1

> <s_lp_Variant>
AV-unprocessed.smi:2034-4

> <Gold.Version>
5.8.1

> <Gold.Id.Protein>
6NUR|6NUR_protein|mol2

> <Gold.PLP.Fitness>
52.1481

> <Gold.PLP.PLP>
-49.1187

> <Gold.PLP.part.hbond>
-3.0741

> <Gold.PLP.part.metal>
0.0000

> <Gold.PLP.part.buried>
-3.2754

> <Gold.PLP.part.nonpolar>
-45.0106

> <Gold.PLP.part.repulsive>
1.2549

> <Gold.PLP.ligand.clash>
0.0000

> <Gold.PLP.ligand.torsion>
0.8466

> <Gold.PLP.Chemscore.Hbond>
1.4618

> <Gold.PLP.Chemscore.CHOScore>
0.0000

> <Gold.PLP.Chemscore.Metal>
0.0000

> <Gold.Chemscore.Hbonds>
donor molecule, donor type, donor heavy atom, donor atom, acceptor molecule, acceptor atom, score
      L1  H     9    33       P1  7948  0.45
      L1  H    12    34       P1  7948  1.00

> <Gold.PLP.Chemscore.Internal.Correction>
0.3372

> <Gold.Rescore>
     Score         DG    S(hbond)    S(metal)    S(lipo)     H(rot)  DE(clash)    DE(int)     intcor
     18.37     -21.62       1.89        0.00     113.94       1.37       1.32       1.94       ----

> <Gold.Chemscore.Fitness>
18.3668

> <Gold.Chemscore.DG>
-21.6174

> <Gold.Chemscore.ZeroCoef>
-5.4800

> <Gold.Chemscore.Hbond>
1.8874

> <Gold.Chemscore.Metal>
0.0000

> <Gold.Chemscore.Lipo>
113.9417

> <Gold.Chemscore.Internal_Hbond>
0.0000

> <Gold.Chemscore.DEClash>
1.3154

> <Gold.Chemscore.DEInternal>
1.9351

> <Gold.Chemscore.Rot>
1.3663

> <Gold.Chemscore.Internal.Correction>
   9.000000E+99

> <Gold.Chemscore.Hbonds>
donor molecule, donor type, donor heavy atom, donor atom, acceptor molecule, acceptor atom, score
      L1  H     9    33       P1  7948  0.42
      L1  H    12    34       P1  7948  0.94

> <Gold.Chemscore.Hbond.Weighted>
-6.3039

> <Gold.Chemscore.Metal.Weighted>
-0.0000

> <Gold.Chemscore.Lipo.Weighted>
-13.3312

> <Gold.Chemscore.Internal_Hbond.Weighted>
0.0000

> <Gold.Chemscore.DEClash.Weighted>
1.3154

> <Gold.Chemscore.DEInternal.Weighted>
1.9351

> <Gold.Chemscore.Rot.Weighted>
3.4977

> <Gold.Chemscore.Internal.Correction.Weighted>
   9.000000E+99

> <Gold.Protein.RotatedTorsions>
[ 6907 6896 6895 6894 ] final  -78.63 input  -60.11 | X-H torsion
[ 7974 7965 7964 7962 ] final -144.55 input  175.53 | X-H torsion
[ 8008 7997 7996 7995 ] final  -99.00 input   59.86 | X-H torsion
[ 10167 10162 10161 10158 ] final  -69.86 input  -65.29 | X-H torsion
[ 10718 10713 10712 10709 ] final   51.12 input   66.30 | X-H torsion
[ 10763 10752 10751 10750 ] final   16.07 input  -60.55 | X-H torsion
[ 11005 11000 10999 10996 ] final -157.77 input  -57.11 | X-H torsion

> <Gold.Protein.ActiveResidues>
 VAL166  LYS551  ARG553  GLY616  TRP617  ASP618  TYR619  PRO620  LYS621  CYS622 
 ASP623  PHE694  ASN695  SER759  ASP760  ASP761  ALA762  ILE779  LEU786  VAL792 
 PHE793  MET794  SER795  GLU796  ALA797  LYS798  CYS799  TRP800  GLU811  SER814 

> <Gold.Protein.RotatedAtoms>
  150.6968  134.4244  159.5219 H   0  0  0  0  0  0  0  0  0  0  0  0  # atno 6907 bound_to 6896
  152.1981  134.8609  160.0520 H   0  0  0  0  0  0  0  0  0  0  0  0  # atno 6908 bound_to 6896
  151.9540  133.3639  159.4047 H   0  0  0  0  0  0  0  0  0  0  0  0  # atno 6909 bound_to 6896
  144.8290  140.5696  143.5528 H   0  0  0  0  0  0  0  0  0  0  0  0  # atno 7974 bound_to 7965
  154.8089  140.0451  157.1328 H   0  0  0  0  0  0  0  0  0  0  0  0  # atno 8008 bound_to 7997
  154.9391  140.3050  155.5109 H   0  0  0  0  0  0  0  0  0  0  0  0  # atno 8009 bound_to 7997
  156.2969  140.2309  156.4459 H   0  0  0  0  0  0  0  0  0  0  0  0  # atno 8010 bound_to 7997
  140.5398  143.2315  151.7110 H   0  0  0  0  0  0  0  0  0  0  0  0  # atno 10167 bound_to 10162
  157.4951  130.8401  149.8248 H   0  0  0  0  0  0  0  0  0  0  0  0  # atno 10718 bound_to 10713
  153.1465  135.6770  153.8947 H   0  0  0  0  0  0  0  0  0  0  0  0  # atno 10763 bound_to 10752
  153.8387  135.3108  155.3425 H   0  0  0  0  0  0  0  0  0  0  0  0  # atno 10764 bound_to 10752
  154.7829  135.4878  153.9968 H   0  0  0  0  0  0  0  0  0  0  0  0  # atno 10765 bound_to 10752
  140.6610  134.4349  157.5234 H   0  0  0  0  0  0  0  0  0  0  0  0  # atno 11005 bound_to 11000
  145.4938  139.1487  143.3695 LP  0  0  0  0  0  0  0  0  0  0  0  0  # atno 17320 bound_to 7965
  146.2594  140.5076  142.8860 LP  0  0  0  0  0  0  0  0  0  0  0  0  # atno 17321 bound_to 7965
  139.4984  144.3986  152.0205 LP  0  0  0  0  0  0  0  0  0  0  0  0  # atno 17342 bound_to 10162
  140.3094  144.3555  150.6038 LP  0  0  0  0  0  0  0  0  0  0  0  0  # atno 17343 bound_to 10162
  156.0196  130.3800  150.2004 LP  0  0  0  0  0  0  0  0  0  0  0  0  # atno 17370 bound_to 10713
  157.0193  130.9974  151.3344 LP  0  0  0  0  0  0  0  0  0  0  0  0  # atno 17371 bound_to 10713
  139.9013  134.8550  156.1885 LP  0  0  0  0  0  0  0  0  0  0  0  0  # atno 17394 bound_to 11000
  141.0465  133.6910  156.1693 LP  0  0  0  0  0  0  0  0  0  0  0  0  # atno 17395 bound_to 11000

$$$$
