AV-unprocessed.smi:2373|AV-procd|sdf|9439|dock5
  -GOLD-   2272013 63D 1   1.00000     0.00000
 Structure written by MMmdl.
 47 48  0  0  0  0  0  0  0  0  2 V2000
  149.0452  127.6808  153.6168 C   0  0  0  0  0  0  0  0  0  0  0  0
  148.2240  128.6762  152.9368 N   0  0  0  0  0  0  0  0  0  0  0  0
  147.2218  128.2621  151.9635 C   0  0  0  0  0  0  0  0  0  0  0  0
  148.4645  130.0501  153.1546 C   0  0  0  0  0  0  0  0  0  0  0  0
  149.4688  130.5330  154.0286 C   0  0  0  0  0  0  0  0  0  0  0  0
  149.6476  131.9218  154.1927 C   0  0  0  0  0  0  0  0  0  0  0  0
  148.8211  132.8252  153.4927 C   0  0  0  0  0  0  0  0  0  0  0  0
  149.0514  134.2153  153.6830 N   0  0  0  0  0  0  0  0  0  0  0  0
  149.6935  134.8321  154.6903 C   0  0  0  0  0  0  0  0  0  0  0  0
  150.2378  134.2637  155.6356 O   0  0  0  0  0  0  0  0  0  0  0  0
  149.6818  136.1655  154.5220 N   0  0  0  0  0  0  0  0  0  0  0  0
  150.2670  137.1987  155.3904 C   0  0  0  0  0  0  0  0  0  0  0  0
  150.3175  136.7184  156.8730 C   0  0  0  0  0  0  0  0  0  0  0  0
  150.9836  137.6856  157.8713 C   0  0  0  0  0  0  0  0  0  0  0  0
  151.1418  137.0431  159.1175 O   0  0  0  0  0  0  0  0  0  0  0  0
  151.6816  137.4899  154.8291 C   0  0  0  0  0  0  0  0  0  0  0  0
  152.3075  138.7723  155.4053 C   0  0  0  0  0  0  0  0  0  0  0  0
  151.4492  139.8786  155.1657 O   0  0  0  0  0  0  0  0  0  0  0  0
  150.1891  139.7402  155.8073 C   0  0  0  0  0  0  0  0  0  0  0  0
  149.4458  138.5091  155.2588 C   0  0  0  0  0  0  0  0  0  0  0  0
  147.8386  132.2941  152.6233 C   0  0  0  0  0  0  0  0  0  0  0  0
  147.7032  130.9567  152.4946 N   0  3  0  0  0  0  0  0  0  0  0  0
  148.9635  127.7902  154.6987 H   0  0  0  0  0  0  0  0  0  0  0  0
  150.0929  127.7910  153.3344 H   0  0  0  0  0  0  0  0  0  0  0  0
  148.7345  126.6676  153.3608 H   0  0  0  0  0  0  0  0  0  0  0  0
  147.4536  128.6658  150.9775 H   0  0  0  0  0  0  0  0  0  0  0  0
  146.2326  128.6116  152.2604 H   0  0  0  0  0  0  0  0  0  0  0  0
  147.1782  127.1765  151.8757 H   0  0  0  0  0  0  0  0  0  0  0  0
  150.1104  129.8596  154.5770 H   0  0  0  0  0  0  0  0  0  0  0  0
  150.4164  132.2875  154.8577 H   0  0  0  0  0  0  0  0  0  0  0  0
  148.7144  134.8141  152.9433 H   0  0  0  0  0  0  0  0  0  0  0  0
  149.2059  136.5132  153.7023 H   0  0  0  0  0  0  0  0  0  0  0  0
  149.3103  136.5002  157.2260 H   0  0  0  0  0  0  0  0  0  0  0  0
  150.8419  135.7635  156.9226 H   0  0  0  0  0  0  0  0  0  0  0  0
  151.9649  138.0057  157.5219 H   0  0  0  0  0  0  0  0  0  0  0  0
  150.3797  138.5798  158.0212 H   0  0  0  0  0  0  0  0  0  0  0  0
  151.7531  137.5412  159.6384 H   0  0  0  0  0  0  0  0  0  0  0  0
  152.3524  136.6459  154.9856 H   0  0  0  0  0  0  0  0  0  0  0  0
  151.6195  137.6151  153.7467 H   0  0  0  0  0  0  0  0  0  0  0  0
  152.5126  138.6746  156.4720 H   0  0  0  0  0  0  0  0  0  0  0  0
  153.2647  138.9662  154.9211 H   0  0  0  0  0  0  0  0  0  0  0  0
  150.3214  139.6753  156.8880 H   0  0  0  0  0  0  0  0  0  0  0  0
  149.6031  140.6398  155.6191 H   0  0  0  0  0  0  0  0  0  0  0  0
  149.2214  138.6934  154.2068 H   0  0  0  0  0  0  0  0  0  0  0  0
  148.4821  138.4193  155.7607 H   0  0  0  0  0  0  0  0  0  0  0  0
  147.1612  132.8748  152.0158 H   0  0  0  0  0  0  0  0  0  0  0  0
  146.9845  130.6090  151.8593 H   0  0  0  0  0  0  0  0  0  0  0  0
  1  2  1  0  0  0  0
  1 23  1  0  0  0  0
  1 24  1  0  0  0  0
  1 25  1  0  0  0  0
  2  3  1  0  0  0  0
  2  4  1  0  0  0  0
  3 26  1  0  0  0  0
  3 27  1  0  0  0  0
  3 28  1  0  0  0  0
  4 22  1  0  0  0  0
  4  5  2  0  0  0  0
  5  6  1  0  0  0  0
  5 29  1  0  0  0  0
  6  7  2  0  0  0  0
  6 30  1  0  0  0  0
  7  8  1  0  0  0  0
  7 21  1  0  0  0  0
  8  9  1  0  0  0  0
  8 31  1  0  0  0  0
  9 10  2  0  0  0  0
  9 11  1  0  0  0  0
 11 12  1  0  0  0  0
 11 32  1  0  0  0  0
 12 20  1  0  0  0  0
 12 13  1  0  0  0  0
 12 16  1  0  0  0  0
 13 14  1  0  0  0  0
 13 33  1  0  0  0  0
 13 34  1  0  0  0  0
 14 15  1  0  0  0  0
 14 35  1  0  0  0  0
 14 36  1  0  0  0  0
 15 37  1  0  0  0  0
 16 17  1  0  0  0  0
 16 38  1  0  0  0  0
 16 39  1  0  0  0  0
 17 18  1  0  0  0  0
 17 40  1  0  0  0  0
 17 41  1  0  0  0  0
 18 19  1  0  0  0  0
 19 20  1  0  0  0  0
 19 42  1  0  0  0  0
 19 43  1  0  0  0  0
 20 44  1  0  0  0  0
 20 45  1  0  0  0  0
 21 22  2  0  0  0  0
 21 46  1  0  0  0  0
 22 47  1  0  0  0  0
M  CHG  1  22   1
M  END
> <s_m_source_file>
AV-unprocessed.smi

> <i_m_source_file_index>
2373

> <i_lp_mmshare_version>
43012

> <i_f3d_flags>
0

> <s_epik_input>
W0NIM11OKFtDSDNdKWMxW2NIXVtjSF1jKFtjSF1uMSlbTkhdQyg9TylbTkhdQzIoW0NIMl1bQ0gyXVtPSF0pW0NIMl1bQ0gyXU9bQ0gyXVtDSDJdMg==

> <s_epik_cmdline>
J2VwaWtfcHl0aG9uJywgJy1waCcsICc3LjAnLCAnLXRuJywgJzgnLCAnLW1hJywgJzIwMCcsICctbWV0YWxfYmluZGluZycsICctaW1hZScsICc8aW5maWxlLm1hZT4nLCAnLW9tYWUnLCAnPG91dGZpbGUubWFlPic=

> <r_lp_tautomer_probability>
0.999994

> <r_epik_Ionization_Penalty>
0.250535

> <r_epik_Ionization_Penalty_Charging>
0.250515

> <r_epik_Ionization_Penalty_Neutral>
1.96065e-05

> <r_epik_State_Penalty>
0.241842

> <r_epik_Charging_Adjusted_Penalty>
0.492357

> <i_epik_Tot_Q>
1

> <i_epik_Tot_abs_Q>
1

> <r_epik_Metal_State_Penalty>
0.533268

> <b_epik_Metal_Only>
0

> <s_lp_Force_Field>
OPLS_2005

> <r_lp_Energy>
24.7544

> <b_lp_Chiralities_Consistent>
1

> <s_lp_Variant>
AV-unprocessed.smi:2373-1

> <Gold.Version>
5.8.1

> <Gold.Id.Protein>
6NUR|6NUR_protein|mol2

> <Gold.PLP.Fitness>
44.2041

> <Gold.PLP.PLP>
-34.3007

> <Gold.PLP.part.hbond>
-5.0000

> <Gold.PLP.part.metal>
0.0000

> <Gold.PLP.part.buried>
-2.7884

> <Gold.PLP.part.nonpolar>
-26.8555

> <Gold.PLP.part.repulsive>
0.1121

> <Gold.PLP.ligand.clash>
0.0000

> <Gold.PLP.ligand.torsion>
0.6611

> <Gold.PLP.Chemscore.Hbond>
3.7280

> <Gold.PLP.Chemscore.CHOScore>
0.0000

> <Gold.PLP.Chemscore.Metal>
0.0000

> <Gold.Chemscore.Hbonds>
donor molecule, donor type, donor heavy atom, donor atom, acceptor molecule, acceptor atom, score
      L1  H     8    31       P1  7948  0.94
      L1  H    11    32       P1  7948  0.85
      P1  H  6896  6907       L1    15  0.63
      P1  H  7989  7998       L1    18  1.00

> <Gold.PLP.Chemscore.Internal.Correction>
0.0417

> <Gold.Rescore>
     Score         DG    S(hbond)    S(metal)    S(lipo)     H(rot)  DE(clash)    DE(int)     intcor
     12.23     -17.26       2.63        0.00      72.00       2.12       0.09       4.93       ----

> <Gold.Chemscore.Fitness>
12.2320

> <Gold.Chemscore.DG>
-17.2574

> <Gold.Chemscore.ZeroCoef>
-5.4800

> <Gold.Chemscore.Hbond>
2.6255

> <Gold.Chemscore.Metal>
0.0000

> <Gold.Chemscore.Lipo>
71.9999

> <Gold.Chemscore.Internal_Hbond>
0.0000

> <Gold.Chemscore.DEClash>
0.0918

> <Gold.Chemscore.DEInternal>
4.9336

> <Gold.Chemscore.Rot>
2.1155

> <Gold.Chemscore.Internal.Correction>
   9.000000E+99

> <Gold.Chemscore.Hbonds>
donor molecule, donor type, donor heavy atom, donor atom, acceptor molecule, acceptor atom, score
      L1  H     8    31       P1  7948  0.20
      L1  H    11    32       P1  7948  0.82
      P1  H  6896  6907       L1    15  0.09
      P1  H  7989  7998       L1    18  0.93

> <Gold.Chemscore.Hbond.Weighted>
-8.7691

> <Gold.Chemscore.Metal.Weighted>
-0.0000

> <Gold.Chemscore.Lipo.Weighted>
-8.4240

> <Gold.Chemscore.Internal_Hbond.Weighted>
0.0000

> <Gold.Chemscore.DEClash.Weighted>
0.0918

> <Gold.Chemscore.DEInternal.Weighted>
4.9336

> <Gold.Chemscore.Rot.Weighted>
5.4158

> <Gold.Chemscore.Internal.Correction.Weighted>
   9.000000E+99

> <Gold.Protein.RotatedTorsions>
[ 6907 6896 6895 6894 ] final    1.56 input  -60.11 | X-H torsion
[ 7974 7965 7964 7962 ] final   12.95 input  175.53 | X-H torsion
[ 8008 7997 7996 7995 ] final -178.61 input   59.86 | X-H torsion
[ 10167 10162 10161 10158 ] final  -52.24 input  -65.29 | X-H torsion
[ 10718 10713 10712 10709 ] final -110.85 input   66.30 | X-H torsion
[ 10763 10752 10751 10750 ] final  102.38 input  -60.55 | X-H torsion
[ 11005 11000 10999 10996 ] final   47.70 input  -57.11 | X-H torsion

> <Gold.Protein.ActiveResidues>
 VAL166  LYS551  ARG553  GLY616  TRP617  ASP618  TYR619  PRO620  LYS621  CYS622 
 ASP623  PHE694  ASN695  SER759  ASP760  ASP761  ALA762  ILE779  LEU786  VAL792 
 PHE793  MET794  SER795  GLU796  ALA797  LYS798  CYS799  TRP800  GLU811  SER814 

> <Gold.Protein.RotatedAtoms>
  151.5947  135.1051  160.0046 H   0  0  0  0  0  0  0  0  0  0  0  0  # atno 6907 bound_to 6896
  152.4289  133.7238  159.6559 H   0  0  0  0  0  0  0  0  0  0  0  0  # atno 6908 bound_to 6896
  150.8179  133.8232  159.3174 H   0  0  0  0  0  0  0  0  0  0  0  0  # atno 6909 bound_to 6896
  146.2340  139.9261  142.8503 H   0  0  0  0  0  0  0  0  0  0  0  0  # atno 7974 bound_to 7965
  156.0209  140.1261  157.0358 H   0  0  0  0  0  0  0  0  0  0  0  0  # atno 8008 bound_to 7997
  154.4311  140.1069  156.6032 H   0  0  0  0  0  0  0  0  0  0  0  0  # atno 8009 bound_to 7997
  155.5946  140.3470  155.4578 H   0  0  0  0  0  0  0  0  0  0  0  0  # atno 8010 bound_to 7997
  140.6547  143.2591  151.4620 H   0  0  0  0  0  0  0  0  0  0  0  0  # atno 10167 bound_to 10162
  156.0614  130.5837  150.8293 H   0  0  0  0  0  0  0  0  0  0  0  0  # atno 10718 bound_to 10713
  153.3388  135.4012  155.1555 H   0  0  0  0  0  0  0  0  0  0  0  0  # atno 10763 bound_to 10752
  154.8639  135.3628  154.5373 H   0  0  0  0  0  0  0  0  0  0  0  0  # atno 10764 bound_to 10752
  153.5816  135.7076  153.5520 H   0  0  0  0  0  0  0  0  0  0  0  0  # atno 10765 bound_to 10752
  140.1256  134.4773  155.8562 H   0  0  0  0  0  0  0  0  0  0  0  0  # atno 11005 bound_to 11000
  145.2089  140.9887  143.4112 LP  0  0  0  0  0  0  0  0  0  0  0  0  # atno 17320 bound_to 7965
  144.9708  139.3882  143.6310 LP  0  0  0  0  0  0  0  0  0  0  0  0  # atno 17321 bound_to 7965
  139.5768  144.1801  152.1914 LP  0  0  0  0  0  0  0  0  0  0  0  0  # atno 17342 bound_to 10162
  140.1114  144.5454  150.6922 LP  0  0  0  0  0  0  0  0  0  0  0  0  # atno 17343 bound_to 10162
  157.5625  131.0946  150.9538 LP  0  0  0  0  0  0  0  0  0  0  0  0  # atno 17370 bound_to 10713
  156.9773  130.5513  149.5294 LP  0  0  0  0  0  0  0  0  0  0  0  0  # atno 17371 bound_to 10713
  141.2160  133.6776  156.6971 LP  0  0  0  0  0  0  0  0  0  0  0  0  # atno 17394 bound_to 11000
  140.2909  134.8241  157.4015 LP  0  0  0  0  0  0  0  0  0  0  0  0  # atno 17395 bound_to 11000

$$$$
