AV-unprocessed.smi:2026|AV-procd|sdf|8202|dock8
  -GOLD-   2272010463D 1   1.00000     0.00000
 Structure written by MMmdl.
 46 48  0  0  0  0  0  0  0  0  1 V2000
  152.9651  142.0812  161.1850 C   0  0  0  0  0  0  0  0  0  0  0  0
  152.3288  141.8895  159.8194 C   0  0  0  0  0  0  0  0  0  0  0  0
  152.7335  140.7975  159.0189 C   0  0  0  0  0  0  0  0  0  0  0  0
  152.1664  140.5844  157.7432 C   0  0  0  0  0  0  0  0  0  0  0  0
  152.4099  139.5953  156.8057 N   0  0  0  0  0  0  0  0  0  0  0  0
  151.5734  139.9393  155.8306 C   0  0  0  0  0  0  0  0  0  0  0  0
  150.8163  141.0361  156.0254 N   0  0  0  0  0  0  0  0  0  0  0  0
  149.8431  141.5980  155.1057 C   0  0  0  0  0  0  0  0  0  0  0  0
  148.3913  141.3990  155.5830 C   0  0  1  0  0  0  0  0  0  0  0  0
  148.1041  142.3643  156.5768 O   0  0  0  0  0  0  0  0  0  0  0  0
  147.3870  141.5653  154.4239 C   0  0  0  0  0  0  0  0  0  0  0  0
  146.1110  142.1256  154.8797 N   0  0  0  0  0  0  0  0  0  0  0  0
  145.6068  143.3010  154.4645 C   0  0  0  0  0  0  0  0  0  0  0  0
  146.1130  144.0676  153.6464 O   0  0  0  0  0  0  0  0  0  0  0  0
  144.4439  143.5064  155.0971 N   0  0  0  0  0  0  0  0  0  0  0  0
  144.0990  142.4320  156.0086 C   0  0  0  0  0  0  0  0  0  0  0  0
  144.0318  142.9433  157.4587 C   0  0  0  0  0  0  0  0  0  0  0  0
  142.7955  141.7385  155.5730 C   0  0  0  0  0  0  0  0  0  0  0  0
  145.3116  141.5423  155.7827 C   0  0  0  0  0  0  0  0  0  0  0  0
  145.4979  140.4699  156.3586 O   0  0  0  0  0  0  0  0  0  0  0  0
  151.1755  141.5019  157.2859 C   0  0  0  0  0  0  0  0  0  0  0  0
  150.7644  142.5920  158.0735 C   0  0  0  0  0  0  0  0  0  0  0  0
  151.3413  142.7900  159.3454 C   0  0  0  0  0  0  0  0  0  0  0  0
  150.8897  143.9700  160.1880 C   0  0  0  0  0  0  0  0  0  0  0  0
  153.6759  141.2854  161.4094 H   0  0  0  0  0  0  0  0  0  0  0  0
  152.2042  142.0791  161.9655 H   0  0  0  0  0  0  0  0  0  0  0  0
  153.5009  143.0298  161.2256 H   0  0  0  0  0  0  0  0  0  0  0  0
  153.4856  140.1113  159.3792 H   0  0  0  0  0  0  0  0  0  0  0  0
  151.5045  139.3602  154.9211 H   0  0  0  0  0  0  0  0  0  0  0  0
  150.0596  142.6582  154.9687 H   0  0  0  0  0  0  0  0  0  0  0  0
  149.9859  141.1245  154.1333 H   0  0  0  0  0  0  0  0  0  0  0  0
  148.2991  140.4054  156.0240 H   0  0  0  0  0  0  0  0  0  0  0  0
  148.6173  143.1387  156.4034 H   0  0  0  0  0  0  0  0  0  0  0  0
  147.8177  142.1633  153.6185 H   0  0  0  0  0  0  0  0  0  0  0  0
  147.1840  140.5906  153.9767 H   0  0  0  0  0  0  0  0  0  0  0  0
  143.8616  144.3210  154.9663 H   0  0  0  0  0  0  0  0  0  0  0  0
  143.7975  142.1350  158.1523 H   0  0  0  0  0  0  0  0  0  0  0  0
  143.2597  143.7053  157.5699 H   0  0  0  0  0  0  0  0  0  0  0  0
  144.9776  143.3862  157.7752 H   0  0  0  0  0  0  0  0  0  0  0  0
  142.5366  140.9230  156.2493 H   0  0  0  0  0  0  0  0  0  0  0  0
  142.8758  141.3203  154.5684 H   0  0  0  0  0  0  0  0  0  0  0  0
  141.9607  142.4399  155.5697 H   0  0  0  0  0  0  0  0  0  0  0  0
  150.0096  143.2692  157.7025 H   0  0  0  0  0  0  0  0  0  0  0  0
  150.1553  144.5783  159.6595 H   0  0  0  0  0  0  0  0  0  0  0  0
  151.7363  144.6103  160.4368 H   0  0  0  0  0  0  0  0  0  0  0  0
  150.4328  143.6231  161.1150 H   0  0  0  0  0  0  0  0  0  0  0  0
  1  2  1  0  0  0  0
  1 25  1  0  0  0  0
  1 26  1  0  0  0  0
  1 27  1  0  0  0  0
  2 23  1  0  0  0  0
  2  3  2  0  0  0  0
  3  4  1  0  0  0  0
  3 28  1  0  0  0  0
  4 21  2  0  0  0  0
  4  5  1  0  0  0  0
  5  6  2  0  0  0  0
  6  7  1  0  0  0  0
  6 29  1  0  0  0  0
  7  8  1  0  0  0  0
  7 21  1  0  0  0  0
  8  9  1  0  0  0  0
  8 30  1  0  0  0  0
  8 31  1  0  0  0  0
  9 10  1  0  0  0  0
  9 11  1  0  0  0  0
  9 32  1  0  0  0  0
 10 33  1  0  0  0  0
 11 12  1  0  0  0  0
 11 34  1  0  0  0  0
 11 35  1  0  0  0  0
 12 19  1  0  0  0  0
 12 13  1  0  0  0  0
 13 14  2  0  0  0  0
 13 15  1  0  0  0  0
 15 16  1  0  0  0  0
 15 36  1  0  0  0  0
 16 17  1  0  0  0  0
 16 18  1  0  0  0  0
 16 19  1  0  0  0  0
 17 37  1  0  0  0  0
 17 38  1  0  0  0  0
 17 39  1  0  0  0  0
 18 40  1  0  0  0  0
 18 41  1  0  0  0  0
 18 42  1  0  0  0  0
 19 20  2  0  0  0  0
 21 22  1  0  0  0  0
 22 23  2  0  0  0  0
 22 43  1  0  0  0  0
 23 24  1  0  0  0  0
 24 44  1  0  0  0  0
 24 45  1  0  0  0  0
 24 46  1  0  0  0  0
M  END
> <s_m_source_file>
AV-unprocessed.smi

> <i_m_source_file_index>
2026

> <i_lp_mmshare_version>
43012

> <i_f3d_flags>
0

> <s_epik_input>
W0NIM11jKFtjSF0xKWMoW0NIM10pW2NIXWMoYzEyKW4oW2NIXW4yKVtDSDJdW0NASF0oW09IXSlbQ0gyXU4oQzM9TylDKD1PKVtOSF1DMyhbQ0gzXSlbQ0gzXQ==

> <s_epik_cmdline>
J2VwaWtfcHl0aG9uJywgJy1waCcsICc3LjAnLCAnLXRuJywgJzgnLCAnLW1hJywgJzIwMCcsICctbWV0YWxfYmluZGluZycsICctaW1hZScsICc8aW5maWxlLm1hZT4nLCAnLW9tYWUnLCAnPG91dGZpbGUubWFlPic=

> <r_lp_tautomer_probability>
1

> <r_epik_Ionization_Penalty>
0.103994

> <r_epik_Ionization_Penalty_Charging>
0

> <r_epik_Ionization_Penalty_Neutral>
0.103994

> <r_epik_State_Penalty>
0.0938482

> <r_epik_Charging_Adjusted_Penalty>
0.0938482

> <i_epik_Tot_Q>
0

> <i_epik_Tot_abs_Q>
0

> <r_epik_Metal_State_Penalty>
0.106997

> <b_epik_Metal_Only>
0

> <s_lp_Force_Field>
OPLS_2005

> <r_lp_Energy>
23.8549

> <b_lp_Chiralities_Consistent>
1

> <s_lp_Variant>
AV-unprocessed.smi:2026-2

> <Gold.Version>
5.8.1

> <Gold.Id.Protein>
6NUR|6NUR_protein|mol2

> <Gold.PLP.Fitness>
46.4787

> <Gold.PLP.PLP>
-42.0021

> <Gold.PLP.part.hbond>
-2.6478

> <Gold.PLP.part.metal>
0.0000

> <Gold.PLP.part.buried>
-2.3594

> <Gold.PLP.part.nonpolar>
-36.8054

> <Gold.PLP.part.repulsive>
0.2600

> <Gold.PLP.ligand.clash>
0.0000

> <Gold.PLP.ligand.torsion>
0.7034

> <Gold.PLP.Chemscore.Hbond>
1.9500

> <Gold.PLP.Chemscore.CHOScore>
0.0000

> <Gold.PLP.Chemscore.Metal>
0.0000

> <Gold.Chemscore.Hbonds>
donor molecule, donor type, donor heavy atom, donor atom, acceptor molecule, acceptor atom, score
      L1  H    10    33       P1  8028  1.00
      P1  H  7997  8010       L1     5  0.70

> <Gold.PLP.Chemscore.Internal.Correction>
0.0335

> <Gold.Rescore>
     Score         DG    S(hbond)    S(metal)    S(lipo)     H(rot)  DE(clash)    DE(int)     intcor
     14.54     -15.69       1.54        0.00      96.52       2.44       0.53       0.61       ----

> <Gold.Chemscore.Fitness>
14.5442

> <Gold.Chemscore.DG>
-15.6929

> <Gold.Chemscore.ZeroCoef>
-5.4800

> <Gold.Chemscore.Hbond>
1.5435

> <Gold.Chemscore.Metal>
0.0000

> <Gold.Chemscore.Lipo>
96.5248

> <Gold.Chemscore.Internal_Hbond>
0.0000

> <Gold.Chemscore.DEClash>
0.5338

> <Gold.Chemscore.DEInternal>
0.6149

> <Gold.Chemscore.Rot>
2.4358

> <Gold.Chemscore.Internal.Correction>
   9.000000E+99

> <Gold.Chemscore.Hbonds>
donor molecule, donor type, donor heavy atom, donor atom, acceptor molecule, acceptor atom, score
      L1  H    10    33       P1  8028  0.87
      P1  H  7997  8010       L1     5  0.07

> <Gold.Chemscore.Hbond.Weighted>
-5.1552

> <Gold.Chemscore.Metal.Weighted>
-0.0000

> <Gold.Chemscore.Lipo.Weighted>
-11.2934

> <Gold.Chemscore.Internal_Hbond.Weighted>
0.0000

> <Gold.Chemscore.DEClash.Weighted>
0.5338

> <Gold.Chemscore.DEInternal.Weighted>
0.6149

> <Gold.Chemscore.Rot.Weighted>
6.2357

> <Gold.Chemscore.Internal.Correction.Weighted>
   9.000000E+99

> <Gold.Protein.RotatedTorsions>
[ 6907 6896 6895 6894 ] final  147.49 input  -60.11 | X-H torsion
[ 7974 7965 7964 7962 ] final  -40.66 input  175.53 | X-H torsion
[ 8008 7997 7996 7995 ] final   62.46 input   59.86 | X-H torsion
[ 10167 10162 10161 10158 ] final -164.73 input  -65.29 | X-H torsion
[ 10718 10713 10712 10709 ] final   66.51 input   66.30 | X-H torsion
[ 10763 10752 10751 10750 ] final  129.56 input  -60.55 | X-H torsion
[ 11005 11000 10999 10996 ] final   77.30 input  -57.11 | X-H torsion

> <Gold.Protein.ActiveResidues>
 VAL166  LYS551  ARG553  GLY616  TRP617  ASP618  TYR619  PRO620  LYS621  CYS622 
 ASP623  PHE694  ASN695  SER759  ASP760  ASP761  ALA762  ILE779  LEU786  VAL792 
 PHE793  MET794  SER795  GLU796  ALA797  LYS798  CYS799  TRP800  GLU811  SER814 

> <Gold.Protein.RotatedAtoms>
  152.1541  133.4540  159.4827 H   0  0  0  0  0  0  0  0  0  0  0  0  # atno 6907 bound_to 6896
  150.6899  134.2153  159.4384 H   0  0  0  0  0  0  0  0  0  0  0  0  # atno 6908 bound_to 6896
  152.0051  134.9907  160.0617 H   0  0  0  0  0  0  0  0  0  0  0  0  # atno 6909 bound_to 6896
  146.0284  140.6762  142.9144 H   0  0  0  0  0  0  0  0  0  0  0  0  # atno 7974 bound_to 7965
  155.6146  140.3495  155.4633 H   0  0  0  0  0  0  0  0  0  0  0  0  # atno 8008 bound_to 7997
  156.0127  140.1236  157.0461 H   0  0  0  0  0  0  0  0  0  0  0  0  # atno 8009 bound_to 7997
  154.4286  140.1078  156.5838 H   0  0  0  0  0  0  0  0  0  0  0  0  # atno 8010 bound_to 7997
  139.6231  144.0586  152.1950 H   0  0  0  0  0  0  0  0  0  0  0  0  # atno 10167 bound_to 10162
  157.6174  130.9272  150.0119 H   0  0  0  0  0  0  0  0  0  0  0  0  # atno 10718 bound_to 10713
  153.7438  135.3220  155.3309 H   0  0  0  0  0  0  0  0  0  0  0  0  # atno 10763 bound_to 10752
  154.8286  135.4551  154.1000 H   0  0  0  0  0  0  0  0  0  0  0  0  # atno 10764 bound_to 10752
  153.2183  135.6945  153.8113 H   0  0  0  0  0  0  0  0  0  0  0  0  # atno 10765 bound_to 10752
  139.9260  134.7672  156.1505 H   0  0  0  0  0  0  0  0  0  0  0  0  # atno 11005 bound_to 11000
  144.7019  140.3691  143.7149 LP  0  0  0  0  0  0  0  0  0  0  0  0  # atno 17320 bound_to 7965
  145.7080  139.1677  143.2555 LP  0  0  0  0  0  0  0  0  0  0  0  0  # atno 17321 bound_to 7965
  140.0232  144.6137  150.7549 LP  0  0  0  0  0  0  0  0  0  0  0  0  # atno 17342 bound_to 10162
  140.7394  143.2791  151.3653 LP  0  0  0  0  0  0  0  0  0  0  0  0  # atno 17343 bound_to 10162
  156.1302  130.3643  149.9744 LP  0  0  0  0  0  0  0  0  0  0  0  0  # atno 17370 bound_to 10713
  156.7807  130.9220  151.3646 LP  0  0  0  0  0  0  0  0  0  0  0  0  # atno 17371 bound_to 10713
  141.0818  133.6751  156.2352 LP  0  0  0  0  0  0  0  0  0  0  0  0  # atno 17394 bound_to 11000
  140.6334  134.5240  157.5562 LP  0  0  0  0  0  0  0  0  0  0  0  0  # atno 17395 bound_to 11000

$$$$
