AV-unprocessed.smi:732|AV-procd|sdf|3528|dock9
  -GOLD-   22720 0523D 1   1.00000     0.00000
 Structure written by MMmdl.
 34 36  0  0  0  0  0  0  0  0  1 V2000
  147.0878  139.4368  153.1237 C   0  0  0  0  0  0  0  0  0  0  0  0
  147.4399  140.1782  154.3676 C   0  0  0  0  0  0  0  0  0  0  0  0
  148.4166  141.0869  154.6638 C   0  0  0  0  0  0  0  0  0  0  0  0
  148.1711  141.3859  156.0303 C   0  0  0  0  0  0  0  0  0  0  0  0
  148.9841  142.3143  156.7289 N   0  0  0  0  0  0  0  0  0  0  0  0
  150.3238  142.4168  156.6986 C   0  0  0  0  0  0  0  0  0  0  0  0
  151.0743  141.7092  156.0259 O   0  0  0  0  0  0  0  0  0  0  0  0
  150.7501  143.4008  157.5015 N   0  0  0  0  0  0  0  0  0  0  0  0
  152.1126  143.7860  157.6969 C   0  0  2  0  0  0  0  0  0  0  0  0
  152.8597  143.2707  158.9147 C   0  0  2  0  0  0  0  0  0  0  0  0
  152.2208  142.4682  160.0381 C   0  0  0  0  0  0  0  0  0  0  0  0
  152.3192  143.2220  161.3790 C   0  0  0  0  0  0  0  0  0  0  0  0
  151.8968  144.7122  161.3053 C   0  0  0  0  0  0  0  0  0  0  0  0
  151.4647  145.1810  159.9019 C   0  0  0  0  0  0  0  0  0  0  0  0
  152.4561  144.7223  158.8426 C   0  0  2  0  0  0  0  0  0  0  0  0
  147.1388  140.7194  156.5241 N   0  0  0  0  0  0  0  0  0  0  0  0
  146.6648  139.9422  155.4607 O   0  0  0  0  0  0  0  0  0  0  0  0
  147.8582  139.5641  152.3630 H   0  0  0  0  0  0  0  0  0  0  0  0
  146.1444  139.7974  152.7136 H   0  0  0  0  0  0  0  0  0  0  0  0
  146.9845  138.3703  153.3246 H   0  0  0  0  0  0  0  0  0  0  0  0
  149.1811  141.4737  154.0064 H   0  0  0  0  0  0  0  0  0  0  0  0
  148.4924  142.9687  157.3191 H   0  0  0  0  0  0  0  0  0  0  0  0
  150.0575  143.9257  158.0153 H   0  0  0  0  0  0  0  0  0  0  0  0
  152.7144  143.9131  156.7981 H   0  0  0  0  0  0  0  0  0  0  0  0
  153.9245  143.0822  158.7917 H   0  0  0  0  0  0  0  0  0  0  0  0
  151.1727  142.2751  159.8111 H   0  0  0  0  0  0  0  0  0  0  0  0
  152.7049  141.4936  160.1064 H   0  0  0  0  0  0  0  0  0  0  0  0
  151.7229  142.7042  162.1309 H   0  0  0  0  0  0  0  0  0  0  0  0
  153.3495  143.1704  161.7335 H   0  0  0  0  0  0  0  0  0  0  0  0
  151.0912  144.9038  162.0148 H   0  0  0  0  0  0  0  0  0  0  0  0
  152.7342  145.3274  161.6369 H   0  0  0  0  0  0  0  0  0  0  0  0
  150.4734  144.7855  159.6824 H   0  0  0  0  0  0  0  0  0  0  0  0
  151.3760  146.2672  159.8674 H   0  0  0  0  0  0  0  0  0  0  0  0
  153.2754  145.4194  158.6775 H   0  0  0  0  0  0  0  0  0  0  0  0
  1  2  1  0  0  0  0
  1 18  1  0  0  0  0
  1 19  1  0  0  0  0
  1 20  1  0  0  0  0
  2 17  1  0  0  0  0
  2  3  2  0  0  0  0
  3  4  1  0  0  0  0
  3 21  1  0  0  0  0
  4  5  1  0  0  0  0
  4 16  2  0  0  0  0
  5  6  1  0  0  0  0
  5 22  1  0  0  0  0
  6  7  2  0  0  0  0
  6  8  1  0  0  0  0
  8  9  1  0  0  0  0
  8 23  1  0  0  0  0
  9 15  1  0  0  0  0
  9 10  1  0  0  0  0
  9 24  1  0  0  0  0
 10 15  1  0  0  0  0
 10 11  1  0  0  0  0
 10 25  1  0  0  0  0
 11 12  1  0  0  0  0
 11 26  1  0  0  0  0
 11 27  1  0  0  0  0
 12 13  1  0  0  0  0
 12 28  1  0  0  0  0
 12 29  1  0  0  0  0
 13 14  1  0  0  0  0
 13 30  1  0  0  0  0
 13 31  1  0  0  0  0
 14 15  1  0  0  0  0
 14 32  1  0  0  0  0
 14 33  1  0  0  0  0
 15 34  1  0  0  0  0
 16 17  1  0  0  0  0
M  END
> <s_m_source_file>
AV-unprocessed.smi

> <i_m_source_file_index>
732

> <i_lp_mmshare_version>
43012

> <i_f3d_flags>
0

> <s_epik_input>
W0NIM11jMVtjSF1jKG5vMSlbTkhdQyg9TylbTkhdW0NASF0yW0NAQEhdKFtDQEBIXTIzKVtDSDJdW0NIMl1bQ0gyXVtDSDJdMw==

> <s_epik_cmdline>
J2VwaWtfcHl0aG9uJywgJy1waCcsICc3LjAnLCAnLXRuJywgJzgnLCAnLW1hJywgJzIwMCcsICctbWV0YWxfYmluZGluZycsICctaW1hZScsICc8aW5maWxlLm1hZT4nLCAnLW9tYWUnLCAnPG91dGZpbGUubWFlPic=

> <r_lp_tautomer_probability>
1

> <r_epik_Ionization_Penalty>
2.39506e-05

> <r_epik_Ionization_Penalty_Charging>
0

> <r_epik_Ionization_Penalty_Neutral>
2.39506e-05

> <r_epik_State_Penalty>
-0

> <r_epik_Charging_Adjusted_Penalty>
0

> <i_epik_Tot_Q>
0

> <i_epik_Tot_abs_Q>
0

> <r_epik_Metal_State_Penalty>
-0

> <b_epik_Metal_Only>
0

> <s_lp_Force_Field>
OPLS_2005

> <r_lp_Energy>
36.3442

> <b_lp_Chiralities_Consistent>
1

> <s_lp_Variant>
AV-unprocessed.smi:732-2

> <Gold.Version>
5.8.1

> <Gold.Id.Protein>
6NUR|6NUR_protein|mol2

> <Gold.PLP.Fitness>
34.0771

> <Gold.PLP.PLP>
-35.1884

> <Gold.PLP.part.hbond>
-2.1110

> <Gold.PLP.part.metal>
0.0000

> <Gold.PLP.part.buried>
0.4414

> <Gold.PLP.part.nonpolar>
-33.6513

> <Gold.PLP.part.repulsive>
0.1364

> <Gold.PLP.ligand.clash>
0.0000

> <Gold.PLP.ligand.torsion>
0.5773

> <Gold.PLP.Chemscore.Hbond>
0.0000

> <Gold.PLP.Chemscore.CHOScore>
0.0000

> <Gold.PLP.Chemscore.Metal>
0.0000

> <Gold.PLP.Chemscore.Internal.Correction>
0.0432

> <Gold.Rescore>
     Score         DG    S(hbond)    S(metal)    S(lipo)     H(rot)  DE(clash)    DE(int)     intcor
     13.38     -15.12       0.00        0.00     104.23       1.00       1.06       0.68       ----

> <Gold.Chemscore.Fitness>
13.3835

> <Gold.Chemscore.DG>
-15.1177

> <Gold.Chemscore.ZeroCoef>
-5.4800

> <Gold.Chemscore.Hbond>
0.0007

> <Gold.Chemscore.Metal>
0.0000

> <Gold.Chemscore.Lipo>
104.2348

> <Gold.Chemscore.Internal_Hbond>
0.0000

> <Gold.Chemscore.DEClash>
1.0590

> <Gold.Chemscore.DEInternal>
0.6753

> <Gold.Chemscore.Rot>
1.0000

> <Gold.Chemscore.Internal.Correction>
   9.000000E+99

> <Gold.Chemscore.Hbond.Weighted>
-0.0022

> <Gold.Chemscore.Metal.Weighted>
-0.0000

> <Gold.Chemscore.Lipo.Weighted>
-12.1955

> <Gold.Chemscore.Internal_Hbond.Weighted>
0.0000

> <Gold.Chemscore.DEClash.Weighted>
1.0590

> <Gold.Chemscore.DEInternal.Weighted>
0.6753

> <Gold.Chemscore.Rot.Weighted>
2.5600

> <Gold.Chemscore.Internal.Correction.Weighted>
   9.000000E+99

> <Gold.Protein.RotatedTorsions>
[ 6907 6896 6895 6894 ] final  170.72 input  -60.11 | X-H torsion
[ 7974 7965 7964 7962 ] final   -4.28 input  175.53 | X-H torsion
[ 8008 7997 7996 7995 ] final  114.90 input   59.86 | X-H torsion
[ 10167 10162 10161 10158 ] final  -44.00 input  -65.29 | X-H torsion
[ 10718 10713 10712 10709 ] final  -27.73 input   66.30 | X-H torsion
[ 10763 10752 10751 10750 ] final -118.02 input  -60.55 | X-H torsion
[ 11005 11000 10999 10996 ] final -108.95 input  -57.11 | X-H torsion

> <Gold.Protein.ActiveResidues>
 VAL166  LYS551  ARG553  GLY616  TRP617  ASP618  TYR619  PRO620  LYS621  CYS622 
 ASP623  PHE694  ASN695  SER759  ASP760  ASP761  ALA762  ILE779  LEU786  VAL792 
 PHE793  MET794  SER795  GLU796  ALA797  LYS798  CYS799  TRP800  GLU811  SER814 

> <Gold.Protein.RotatedAtoms>
  151.8116  133.3382  159.3556 H   0  0  0  0  0  0  0  0  0  0  0  0  # atno 6907 bound_to 6896
  150.7324  134.5658  159.5875 H   0  0  0  0  0  0  0  0  0  0  0  0  # atno 6908 bound_to 6896
  152.3071  134.7543  160.0396 H   0  0  0  0  0  0  0  0  0  0  0  0  # atno 6909 bound_to 6896
  146.2375  140.1848  142.8332 H   0  0  0  0  0  0  0  0  0  0  0  0  # atno 7974 bound_to 7965
  156.2349  140.2949  156.0286 H   0  0  0  0  0  0  0  0  0  0  0  0  # atno 8008 bound_to 7997
  155.2120  140.0413  157.2952 H   0  0  0  0  0  0  0  0  0  0  0  0  # atno 8009 bound_to 7997
  154.6061  140.2439  155.7737 H   0  0  0  0  0  0  0  0  0  0  0  0  # atno 8010 bound_to 7997
  140.6913  143.2953  151.3433 H   0  0  0  0  0  0  0  0  0  0  0  0  # atno 10167 bound_to 10162
  156.4344  130.4451  149.7095 H   0  0  0  0  0  0  0  0  0  0  0  0  # atno 10718 bound_to 10713
  154.8574  135.4289  154.2072 H   0  0  0  0  0  0  0  0  0  0  0  0  # atno 10763 bound_to 10752
  153.3106  135.6975  153.7125 H   0  0  0  0  0  0  0  0  0  0  0  0  # atno 10764 bound_to 10752
  153.6219  135.3500  155.2988 H   0  0  0  0  0  0  0  0  0  0  0  0  # atno 10765 bound_to 10752
  141.0874  133.9115  157.2154 H   0  0  0  0  0  0  0  0  0  0  0  0  # atno 11005 bound_to 11000
  144.9905  140.8543  143.5342 LP  0  0  0  0  0  0  0  0  0  0  0  0  # atno 17320 bound_to 7965
  145.1853  139.2330  143.5271 LP  0  0  0  0  0  0  0  0  0  0  0  0  # atno 17321 bound_to 7965
  139.6319  144.0705  152.2483 LP  0  0  0  0  0  0  0  0  0  0  0  0  # atno 17342 bound_to 10162
  140.0182  144.6173  150.7589 LP  0  0  0  0  0  0  0  0  0  0  0  0  # atno 17343 bound_to 10162
  156.3985  130.7663  151.2669 LP  0  0  0  0  0  0  0  0  0  0  0  0  # atno 17370 bound_to 10713
  157.7507  131.0247  150.3886 LP  0  0  0  0  0  0  0  0  0  0  0  0  # atno 17371 bound_to 10713
  139.9694  135.0132  156.9473 LP  0  0  0  0  0  0  0  0  0  0  0  0  # atno 17394 bound_to 11000
  140.5331  134.0794  155.7321 LP  0  0  0  0  0  0  0  0  0  0  0  0  # atno 17395 bound_to 11000

$$$$
