AV-unprocessed.smi:2845|AV-procd|sdf|10946|dock10
  -GOLD-   2272015393D 1   1.00000     0.00000
 Structure written by MMmdl.
 42 44  0  0  0  0  0  0  0  0  1 V2000
  152.8271  143.6270  162.3773 C   0  0  0  0  0  0  0  0  0  0  0  0
  152.4630  142.9990  161.0435 C   0  0  0  0  0  0  0  0  0  0  0  0
  152.7742  141.6396  160.8167 C   0  0  0  0  0  0  0  0  0  0  0  0
  152.4541  141.0180  159.5899 C   0  0  0  0  0  0  0  0  0  0  0  0
  152.6682  139.7200  159.1593 N   0  0  0  0  0  0  0  0  0  0  0  0
  152.1534  139.7569  157.9340 C   0  0  0  0  0  0  0  0  0  0  0  0
  151.6266  140.9253  157.5200 N   0  0  0  0  0  0  0  0  0  0  0  0
  151.0180  141.1966  156.2294 C   0  0  0  0  0  0  0  0  0  0  0  0
  149.6737  141.9381  156.3544 C   0  0  1  0  0  0  0  0  0  0  0  0
  149.1258  142.1503  155.0666 O   0  0  0  0  0  0  0  0  0  0  0  0
  148.6686  141.1650  157.2290 C   0  0  0  0  0  0  0  0  0  0  0  0
  147.6265  142.0230  157.7629 N   0  0  0  0  0  0  0  0  0  0  0  0
  146.6806  142.7265  157.1337 C   0  0  0  0  0  0  0  0  0  0  0  0
  145.8793  143.4018  157.9468 N   0  0  0  0  0  0  0  0  0  0  0  0
  146.4321  143.0378  159.1398 C   0  0  0  0  0  0  0  0  0  0  0  0
  145.7620  143.6492  160.7181 S   0  0  2  0  0  0  0  0  0  0  0  0
  146.1330  145.4388  160.4011 C   0  0  0  0  0  0  0  0  0  0  0  0
  146.7324  143.1728  161.8010 O   0  0  0  0  0  0  0  0  0  0  0  0
  147.4805  142.2175  159.0952 N   0  0  0  0  0  0  0  0  0  0  0  0
  151.8063  141.7988  158.5878 C   0  0  0  0  0  0  0  0  0  0  0  0
  151.4899  143.1522  158.8029 C   0  0  0  0  0  0  0  0  0  0  0  0
  151.8189  143.7582  160.0338 C   0  0  0  0  0  0  0  0  0  0  0  0
  151.4751  145.2207  160.2547 C   0  0  0  0  0  0  0  0  0  0  0  0
  153.3234  142.9106  163.0328 H   0  0  0  0  0  0  0  0  0  0  0  0
  151.9326  143.9838  162.8882 H   0  0  0  0  0  0  0  0  0  0  0  0
  153.5030  144.4697  162.2312 H   0  0  0  0  0  0  0  0  0  0  0  0
  153.2643  141.0604  161.5855 H   0  0  0  0  0  0  0  0  0  0  0  0
  152.1573  138.8826  157.2993 H   0  0  0  0  0  0  0  0  0  0  0  0
  151.7164  141.7736  155.6220 H   0  0  0  0  0  0  0  0  0  0  0  0
  150.8751  140.2440  155.7180 H   0  0  0  0  0  0  0  0  0  0  0  0
  149.8511  142.9158  156.8047 H   0  0  0  0  0  0  0  0  0  0  0  0
  148.9545  143.0738  154.9600 H   0  0  0  0  0  0  0  0  0  0  0  0
  148.2089  140.3521  156.6643 H   0  0  0  0  0  0  0  0  0  0  0  0
  149.1847  140.7050  158.0727 H   0  0  0  0  0  0  0  0  0  0  0  0
  146.5747  142.7419  156.0588 H   0  0  0  0  0  0  0  0  0  0  0  0
  146.2283  145.6399  159.3340 H   0  0  0  0  0  0  0  0  0  0  0  0
  147.0639  145.7227  160.8919 H   0  0  0  0  0  0  0  0  0  0  0  0
  145.3301  146.0612  160.7960 H   0  0  0  0  0  0  0  0  0  0  0  0
  150.9971  143.7189  158.0271 H   0  0  0  0  0  0  0  0  0  0  0  0
  150.9636  145.6441  159.3900 H   0  0  0  0  0  0  0  0  0  0  0  0
  152.3803  145.8035  160.4263 H   0  0  0  0  0  0  0  0  0  0  0  0
  150.8202  145.3340  161.1188 H   0  0  0  0  0  0  0  0  0  0  0  0
  1  2  1  0  0  0  0
  1 24  1  0  0  0  0
  1 25  1  0  0  0  0
  1 26  1  0  0  0  0
  2 22  1  0  0  0  0
  2  3  2  0  0  0  0
  3  4  1  0  0  0  0
  3 27  1  0  0  0  0
  4 20  2  0  0  0  0
  4  5  1  0  0  0  0
  5  6  2  0  0  0  0
  6  7  1  0  0  0  0
  6 28  1  0  0  0  0
  7  8  1  0  0  0  0
  7 20  1  0  0  0  0
  8  9  1  0  0  0  0
  8 29  1  0  0  0  0
  8 30  1  0  0  0  0
  9 10  1  0  0  0  0
  9 11  1  0  0  0  0
  9 31  1  0  0  0  0
 10 32  1  0  0  0  0
 11 12  1  0  0  0  0
 11 33  1  0  0  0  0
 11 34  1  0  0  0  0
 12 19  1  0  0  0  0
 12 13  1  0  0  0  0
 13 14  2  0  0  0  0
 13 35  1  0  0  0  0
 14 15  1  0  0  0  0
 15 16  1  0  0  0  0
 15 19  2  0  0  0  0
 16 17  1  0  0  0  0
 16 18  2  0  0  0  0
 17 36  1  0  0  0  0
 17 37  1  0  0  0  0
 17 38  1  0  0  0  0
 20 21  1  0  0  0  0
 21 22  2  0  0  0  0
 21 39  1  0  0  0  0
 22 23  1  0  0  0  0
 23 40  1  0  0  0  0
 23 41  1  0  0  0  0
 23 42  1  0  0  0  0
M  END
> <s_m_source_file>
AV-unprocessed.smi

> <i_m_source_file_index>
2845

> <i_lp_mmshare_version>
43012

> <i_f3d_flags>
0

> <s_epik_input>
W0NIM11jKFtjSF0xKWMoW0NIM10pW2NIXWMoYzEyKW4oW2NIXW4yKVtDSDJdW0NASF0oW09IXSlbQ0gyXW4zW2NIXW5jKG4zKVtTQF0oPU8pW0NIM10=

> <s_epik_cmdline>
J2VwaWtfcHl0aG9uJywgJy1waCcsICc3LjAnLCAnLXRuJywgJzgnLCAnLW1hJywgJzIwMCcsICctbWV0YWxfYmluZGluZycsICctaW1hZScsICc8aW5maWxlLm1hZT4nLCAnLW9tYWUnLCAnPG91dGZpbGUubWFlPic=

> <r_lp_tautomer_probability>
1

> <r_epik_Ionization_Penalty>
0.0968684

> <r_epik_Ionization_Penalty_Charging>
0

> <r_epik_Ionization_Penalty_Neutral>
0.0968684

> <r_epik_State_Penalty>
0.0870047

> <r_epik_Charging_Adjusted_Penalty>
0.0870047

> <i_epik_Tot_Q>
0

> <i_epik_Tot_abs_Q>
0

> <r_epik_Metal_State_Penalty>
0.0746849

> <b_epik_Metal_Only>
0

> <s_lp_Force_Field>
OPLS_2005

> <r_lp_Energy>
9.68664

> <b_lp_Chiralities_Consistent>
1

> <s_lp_Variant>
AV-unprocessed.smi:2845-4

> <Gold.Version>
5.8.1

> <Gold.Id.Protein>
6NUR|6NUR_protein|mol2

> <Gold.PLP.Fitness>
50.4015

> <Gold.PLP.PLP>
-44.6380

> <Gold.PLP.part.hbond>
-3.8258

> <Gold.PLP.part.metal>
0.0000

> <Gold.PLP.part.buried>
-7.6676

> <Gold.PLP.part.nonpolar>
-34.3575

> <Gold.PLP.part.repulsive>
0.2646

> <Gold.PLP.ligand.clash>
0.0000

> <Gold.PLP.ligand.torsion>
0.9622

> <Gold.PLP.Chemscore.Hbond>
2.2187

> <Gold.PLP.Chemscore.CHOScore>
0.0000

> <Gold.PLP.Chemscore.Metal>
0.0000

> <Gold.Chemscore.Hbonds>
donor molecule, donor type, donor heavy atom, donor atom, acceptor molecule, acceptor atom, score
      L1  H    10    32       P1  8028  1.00
      P1  H  6933  6944       L1    18  0.82
      P1  H  6934  6946       L1    19  0.33

> <Gold.PLP.Chemscore.Internal.Correction>
1.0319

> <Gold.Rescore>
     Score         DG    S(hbond)    S(metal)    S(lipo)     H(rot)  DE(clash)    DE(int)     intcor
     15.77     -17.20       1.98        0.00     103.02       2.71       0.11       1.32       ----

> <Gold.Chemscore.Fitness>
15.7732

> <Gold.Chemscore.DG>
-17.1950

> <Gold.Chemscore.ZeroCoef>
-5.4800

> <Gold.Chemscore.Hbond>
1.9764

> <Gold.Chemscore.Metal>
0.0000

> <Gold.Chemscore.Lipo>
103.0210

> <Gold.Chemscore.Internal_Hbond>
0.0000

> <Gold.Chemscore.DEClash>
0.1065

> <Gold.Chemscore.DEInternal>
1.3153

> <Gold.Chemscore.Rot>
2.7108

> <Gold.Chemscore.Internal.Correction>
   9.000000E+99

> <Gold.Chemscore.Hbonds>
donor molecule, donor type, donor heavy atom, donor atom, acceptor molecule, acceptor atom, score
      L1  H    10    32       P1  8028  0.95
      P1  H  6933  6944       L1    18  0.80
      P1  H  6934  6946       L1    19  0.08

> <Gold.Chemscore.Hbond.Weighted>
-6.6012

> <Gold.Chemscore.Metal.Weighted>
-0.0000

> <Gold.Chemscore.Lipo.Weighted>
-12.0535

> <Gold.Chemscore.Internal_Hbond.Weighted>
0.0000

> <Gold.Chemscore.DEClash.Weighted>
0.1065

> <Gold.Chemscore.DEInternal.Weighted>
1.3153

> <Gold.Chemscore.Rot.Weighted>
6.9396

> <Gold.Chemscore.Internal.Correction.Weighted>
   9.000000E+99

> <Gold.Protein.RotatedTorsions>
[ 6907 6896 6895 6894 ] final  -41.26 input  -60.11 | X-H torsion
[ 7974 7965 7964 7962 ] final  -52.60 input  175.53 | X-H torsion
[ 8008 7997 7996 7995 ] final -101.71 input   59.86 | X-H torsion
[ 10167 10162 10161 10158 ] final   14.64 input  -65.29 | X-H torsion
[ 10718 10713 10712 10709 ] final   96.78 input   66.30 | X-H torsion
[ 10763 10752 10751 10750 ] final -105.55 input  -60.55 | X-H torsion
[ 11005 11000 10999 10996 ] final  128.12 input  -57.11 | X-H torsion

> <Gold.Protein.ActiveResidues>
 VAL166  LYS551  ARG553  GLY616  TRP617  ASP618  TYR619  PRO620  LYS621  CYS622 
 ASP623  PHE694  ASN695  SER759  ASP760  ASP761  ALA762  ILE779  LEU786  VAL792 
 PHE793  MET794  SER795  GLU796  ALA797  LYS798  CYS799  TRP800  GLU811  SER814 

> <Gold.Protein.RotatedAtoms>
  150.9688  134.9064  159.7775 H   0  0  0  0  0  0  0  0  0  0  0  0  # atno 6907 bound_to 6896
  152.5183  134.3570  159.9281 H   0  0  0  0  0  0  0  0  0  0  0  0  # atno 6908 bound_to 6896
  151.3580  133.3859  159.2721 H   0  0  0  0  0  0  0  0  0  0  0  0  # atno 6909 bound_to 6896
  145.9061  140.7954  142.9718 H   0  0  0  0  0  0  0  0  0  0  0  0  # atno 7974 bound_to 7965
  154.8464  140.0433  157.1575 H   0  0  0  0  0  0  0  0  0  0  0  0  # atno 8008 bound_to 7997
  154.8991  140.2997  155.5307 H   0  0  0  0  0  0  0  0  0  0  0  0  # atno 8009 bound_to 7997
  156.2994  140.2379  156.4016 H   0  0  0  0  0  0  0  0  0  0  0  0  # atno 8010 bound_to 7997
  140.5922  143.8773  150.6884 H   0  0  0  0  0  0  0  0  0  0  0  0  # atno 10167 bound_to 10162
  157.6922  131.0589  150.4544 H   0  0  0  0  0  0  0  0  0  0  0  0  # atno 10718 bound_to 10713
  154.7954  135.4745  154.0149 H   0  0  0  0  0  0  0  0  0  0  0  0  # atno 10763 bound_to 10752
  153.1695  135.6822  153.8634 H   0  0  0  0  0  0  0  0  0  0  0  0  # atno 10764 bound_to 10752
  153.8221  135.3203  155.3389 H   0  0  0  0  0  0  0  0  0  0  0  0  # atno 10765 bound_to 10752
  139.9543  134.9616  156.8955 H   0  0  0  0  0  0  0  0  0  0  0  0  # atno 11005 bound_to 11000
  144.6739  140.1753  143.7410 LP  0  0  0  0  0  0  0  0  0  0  0  0  # atno 17320 bound_to 7965
  145.8730  139.2282  143.1650 LP  0  0  0  0  0  0  0  0  0  0  0  0  # atno 17321 bound_to 7965
  140.2298  143.3744  152.1574 LP  0  0  0  0  0  0  0  0  0  0  0  0  # atno 17342 bound_to 10162
  139.5235  144.7072  151.5319 LP  0  0  0  0  0  0  0  0  0  0  0  0  # atno 17343 bound_to 10162
  156.4893  130.4091  149.6416 LP  0  0  0  0  0  0  0  0  0  0  0  0  # atno 17370 bound_to 10713
  156.3433  130.7393  151.2342 LP  0  0  0  0  0  0  0  0  0  0  0  0  # atno 17371 bound_to 10713
  140.5645  134.0503  155.7409 LP  0  0  0  0  0  0  0  0  0  0  0  0  # atno 17394 bound_to 11000
  141.1212  133.9458  157.2725 LP  0  0  0  0  0  0  0  0  0  0  0  0  # atno 17395 bound_to 11000

$$$$
