AV-unprocessed.smi:2488|AV-procd|sdf|9794|dock3
  -GOLD-   2272013433D 1   1.00000     0.00000
 Structure written by MMmdl.
 33 34  0  0  0  0  0  0  0  0  1 V2000
  152.1756  144.3287  158.5854 C   0  0  0  0  0  0  0  0  0  0  0  0
  151.9402  143.2693  159.6680 C   0  0  0  0  0  0  0  0  0  0  0  0
  152.4759  141.9073  159.2669 C   0  0  0  0  0  0  0  0  0  0  0  0
  153.6129  141.4990  159.8729 N   0  0  0  0  0  0  0  0  0  0  0  0
  154.0906  140.3053  159.5140 C   0  0  0  0  0  0  0  0  0  0  0  0
  153.5624  139.4715  158.6151 N   0  0  0  0  0  0  0  0  0  0  0  0
  152.4200  139.8621  157.9985 C   0  0  0  0  0  0  0  0  0  0  0  0
  151.8351  139.0191  157.0308 N   0  0  0  0  0  0  0  0  0  0  0  0
  152.6235  139.0422  155.8005 C   0  0  0  0  0  0  0  0  0  0  0  0
  151.9197  138.2570  154.6859 C   0  0  0  0  0  0  0  0  0  0  0  0
  151.6804  136.9311  155.1357 O   0  0  0  0  0  0  0  0  0  0  0  0
  150.8053  136.9111  156.2565 C   0  0  0  0  0  0  0  0  0  0  0  0
  151.4277  137.6672  157.4552 C   0  0  2  0  0  0  0  0  0  0  0  0
  150.4263  137.5916  158.6274 C   0  0  0  0  0  0  0  0  0  0  0  0
  149.1790  138.0334  158.4334 N   0  0  0  0  0  0  0  0  0  0  0  0
  150.7877  137.1412  159.7123 O   0  0  0  0  0  0  0  0  0  0  0  0
  151.8277  141.1105  158.2983 C   0  0  0  0  0  0  0  0  0  0  0  0
  150.6888  141.5209  157.6884 F   0  0  0  0  0  0  0  0  0  0  0  0
  151.7793  145.2957  158.8953 H   0  0  0  0  0  0  0  0  0  0  0  0
  151.6853  144.0511  157.6518 H   0  0  0  0  0  0  0  0  0  0  0  0
  153.2393  144.4547  158.3815 H   0  0  0  0  0  0  0  0  0  0  0  0
  152.4184  143.5799  160.5978 H   0  0  0  0  0  0  0  0  0  0  0  0
  150.8744  143.1939  159.8852 H   0  0  0  0  0  0  0  0  0  0  0  0
  154.9994  139.9814  159.9990 H   0  0  0  0  0  0  0  0  0  0  0  0
  152.7886  140.0674  155.4663 H   0  0  0  0  0  0  0  0  0  0  0  0
  153.6068  138.6086  155.9926 H   0  0  0  0  0  0  0  0  0  0  0  0
  150.9830  138.7371  154.3973 H   0  0  0  0  0  0  0  0  0  0  0  0
  152.5480  138.2219  153.7960 H   0  0  0  0  0  0  0  0  0  0  0  0
  149.8431  137.3435  155.9742 H   0  0  0  0  0  0  0  0  0  0  0  0
  150.6154  135.8693  156.5183 H   0  0  0  0  0  0  0  0  0  0  0  0
  152.3256  137.1233  157.7552 H   0  0  0  0  0  0  0  0  0  0  0  0
  148.5095  137.9965  159.1884 H   0  0  0  0  0  0  0  0  0  0  0  0
  148.9136  138.4056  157.5334 H   0  0  0  0  0  0  0  0  0  0  0  0
  1  2  1  0  0  0  0
  1 19  1  0  0  0  0
  1 20  1  0  0  0  0
  1 21  1  0  0  0  0
  2  3  1  0  0  0  0
  2 22  1  0  0  0  0
  2 23  1  0  0  0  0
  3 17  1  0  0  0  0
  3  4  2  0  0  0  0
  4  5  1  0  0  0  0
  5  6  2  0  0  0  0
  5 24  1  0  0  0  0
  6  7  1  0  0  0  0
  7  8  1  0  0  0  0
  7 17  2  0  0  0  0
  8 13  1  0  0  0  0
  8  9  1  0  0  0  0
  9 10  1  0  0  0  0
  9 25  1  0  0  0  0
  9 26  1  0  0  0  0
 10 11  1  0  0  0  0
 10 27  1  0  0  0  0
 10 28  1  0  0  0  0
 11 12  1  0  0  0  0
 12 13  1  0  0  0  0
 12 29  1  0  0  0  0
 12 30  1  0  0  0  0
 13 14  1  0  0  0  0
 13 31  1  0  0  0  0
 14 15  1  0  0  0  0
 14 16  2  0  0  0  0
 15 32  1  0  0  0  0
 15 33  1  0  0  0  0
 17 18  1  0  0  0  0
M  END
> <s_m_source_file>
AV-unprocessed.smi

> <i_m_source_file_index>
2488

> <i_lp_mmshare_version>
43012

> <i_f3d_flags>
0

> <s_epik_input>
W0NIM11bQ0gyXWMxbltjSF1uYyhjMUYpTjJbQ0gyXVtDSDJdT1tDSDJdW0NASF0yQyg9TylbTkgyXQ==

> <s_epik_cmdline>
J2VwaWtfcHl0aG9uJywgJy1waCcsICc3LjAnLCAnLXRuJywgJzgnLCAnLW1hJywgJzIwMCcsICctbWV0YWxfYmluZGluZycsICctaW1hZScsICc8aW5maWxlLm1hZT4nLCAnLW9tYWUnLCAnPG91dGZpbGUubWFlPic=

> <r_lp_tautomer_probability>
1

> <r_epik_Ionization_Penalty>
2.73136e-05

> <r_epik_Ionization_Penalty_Charging>
0

> <r_epik_Ionization_Penalty_Neutral>
2.73136e-05

> <r_epik_State_Penalty>
-0

> <r_epik_Charging_Adjusted_Penalty>
0

> <i_epik_Tot_Q>
0

> <i_epik_Tot_abs_Q>
0

> <r_epik_Metal_State_Penalty>
-0

> <b_epik_Metal_Only>
0

> <s_lp_Force_Field>
OPLS_2005

> <r_lp_Energy>
13.0675

> <b_lp_Chiralities_Consistent>
1

> <s_lp_Variant>
AV-unprocessed.smi:2488-2

> <Gold.Version>
5.8.1

> <Gold.Id.Protein>
6NUR|6NUR_protein|mol2

> <Gold.PLP.Fitness>
37.8914

> <Gold.PLP.PLP>
-30.4840

> <Gold.PLP.part.hbond>
-3.0000

> <Gold.PLP.part.metal>
0.0000

> <Gold.PLP.part.buried>
-4.0102

> <Gold.PLP.part.nonpolar>
-24.0818

> <Gold.PLP.part.repulsive>
0.2631

> <Gold.PLP.ligand.clash>
0.0000

> <Gold.PLP.ligand.torsion>
0.4079

> <Gold.PLP.Chemscore.Hbond>
2.6800

> <Gold.PLP.Chemscore.CHOScore>
0.0000

> <Gold.PLP.Chemscore.Metal>
0.0000

> <Gold.Chemscore.Hbonds>
donor molecule, donor type, donor heavy atom, donor atom, acceptor molecule, acceptor atom, score
      P1  H  6896  6909       L1    16  0.89
      P1  H  7997  8009       L1     6  0.56
      P1  H 10752 10763       L1    11  1.00

> <Gold.PLP.Chemscore.Internal.Correction>
0.1831

> <Gold.Rescore>
     Score         DG    S(hbond)    S(metal)    S(lipo)     H(rot)  DE(clash)    DE(int)     intcor
     14.30     -14.60       1.99        0.00      61.85       1.86       0.10       0.20       ----

> <Gold.Chemscore.Fitness>
14.2979

> <Gold.Chemscore.DG>
-14.6005

> <Gold.Chemscore.ZeroCoef>
-5.4800

> <Gold.Chemscore.Hbond>
1.9885

> <Gold.Chemscore.Metal>
0.0000

> <Gold.Chemscore.Lipo>
61.8468

> <Gold.Chemscore.Internal_Hbond>
0.0000

> <Gold.Chemscore.DEClash>
0.0998

> <Gold.Chemscore.DEInternal>
0.2028

> <Gold.Chemscore.Rot>
1.8582

> <Gold.Chemscore.Internal.Correction>
   9.000000E+99

> <Gold.Chemscore.Hbonds>
donor molecule, donor type, donor heavy atom, donor atom, acceptor molecule, acceptor atom, score
      P1  H  6896  6909       L1    16  0.83
      P1  H  7997  8009       L1     6  0.01
      P1  H 10752 10763       L1    11  0.94

> <Gold.Chemscore.Hbond.Weighted>
-6.6414

> <Gold.Chemscore.Metal.Weighted>
-0.0000

> <Gold.Chemscore.Lipo.Weighted>
-7.2361

> <Gold.Chemscore.Internal_Hbond.Weighted>
0.0000

> <Gold.Chemscore.DEClash.Weighted>
0.0998

> <Gold.Chemscore.DEInternal.Weighted>
0.2028

> <Gold.Chemscore.Rot.Weighted>
4.7570

> <Gold.Chemscore.Internal.Correction.Weighted>
   9.000000E+99

> <Gold.Protein.RotatedTorsions>
[ 6907 6896 6895 6894 ] final   96.35 input  -60.11 | X-H torsion
[ 7974 7965 7964 7962 ] final -155.28 input  175.53 | X-H torsion
[ 8008 7997 7996 7995 ] final  144.16 input   59.86 | X-H torsion
[ 10167 10162 10161 10158 ] final  -79.84 input  -65.29 | X-H torsion
[ 10718 10713 10712 10709 ] final   66.76 input   66.30 | X-H torsion
[ 10763 10752 10751 10750 ] final   65.50 input  -60.55 | X-H torsion
[ 11005 11000 10999 10996 ] final  114.77 input  -57.11 | X-H torsion

> <Gold.Protein.ActiveResidues>
 VAL166  LYS551  ARG553  GLY616  TRP617  ASP618  TYR619  PRO620  LYS621  CYS622 
 ASP623  PHE694  ASN695  SER759  ASP760  ASP761  ALA762  ILE779  LEU786  VAL792 
 PHE793  MET794  SER795  GLU796  ALA797  LYS798  CYS799  TRP800  GLU811  SER814 

> <Gold.Protein.RotatedAtoms>
  152.5436  134.0900  159.8272 H   0  0  0  0  0  0  0  0  0  0  0  0  # atno 6907 bound_to 6896
  151.0991  133.5250  159.2618 H   0  0  0  0  0  0  0  0  0  0  0  0  # atno 6908 bound_to 6896
  151.2012  135.0452  159.8927 H   0  0  0  0  0  0  0  0  0  0  0  0  # atno 6909 bound_to 6896
  144.7648  140.4272  143.5950 H   0  0  0  0  0  0  0  0  0  0  0  0  # atno 7974 bound_to 7965
  156.2914  140.2243  156.5008 H   0  0  0  0  0  0  0  0  0  0  0  0  # atno 8008 bound_to 7997
  154.7692  140.0468  157.1058 H   0  0  0  0  0  0  0  0  0  0  0  0  # atno 8009 bound_to 7997
  154.9895  140.3088  155.4915 H   0  0  0  0  0  0  0  0  0  0  0  0  # atno 8010 bound_to 7997
  140.4557  143.2469  151.8423 H   0  0  0  0  0  0  0  0  0  0  0  0  # atno 10167 bound_to 10162
  157.6189  130.9285  150.0152 H   0  0  0  0  0  0  0  0  0  0  0  0  # atno 10718 bound_to 10713
  153.0099  135.5354  154.6678 H   0  0  0  0  0  0  0  0  0  0  0  0  # atno 10763 bound_to 10752
  154.5870  135.2855  155.0677 H   0  0  0  0  0  0  0  0  0  0  0  0  # atno 10764 bound_to 10752
  154.1784  135.6520  153.5080 H   0  0  0  0  0  0  0  0  0  0  0  0  # atno 10765 bound_to 10752
  139.8990  134.9573  156.6943 H   0  0  0  0  0  0  0  0  0  0  0  0  # atno 11005 bound_to 11000
  145.6505  139.1564  143.2865 LP  0  0  0  0  0  0  0  0  0  0  0  0  # atno 17320 bound_to 7965
  146.1745  140.6594  142.9217 LP  0  0  0  0  0  0  0  0  0  0  0  0  # atno 17321 bound_to 7965
  139.4801  144.5067  151.8987 LP  0  0  0  0  0  0  0  0  0  0  0  0  # atno 17342 bound_to 10162
  140.4154  144.2314  150.5888 LP  0  0  0  0  0  0  0  0  0  0  0  0  # atno 17343 bound_to 10162
  156.1325  130.3643  149.9710 LP  0  0  0  0  0  0  0  0  0  0  0  0  # atno 17370 bound_to 10713
  156.7768  130.9206  151.3645 LP  0  0  0  0  0  0  0  0  0  0  0  0  # atno 17371 bound_to 10713
  140.7200  133.9149  155.8140 LP  0  0  0  0  0  0  0  0  0  0  0  0  # atno 17394 bound_to 11000
  141.0234  134.0857  157.4095 LP  0  0  0  0  0  0  0  0  0  0  0  0  # atno 17395 bound_to 11000

$$$$
