AV-unprocessed.smi:2746|AV-procd|sdf|10574|dock3
  -GOLD-   2272015 23D 1   1.00000     0.00000
 Structure written by MMmdl.
 39 40  0  0  0  0  0  0  0  0  2 V2000
  146.1905  133.0095  151.7067 C   0  0  0  0  0  0  0  0  0  0  0  0
  145.7849  134.2664  151.9416 C   0  0  0  0  0  0  0  0  0  0  0  0
  145.9400  135.4165  150.9636 C   0  0  1  0  0  0  0  0  0  0  0  0
  144.5859  135.8121  150.3617 C   0  0  0  0  0  0  0  0  0  0  0  0
  146.5318  136.5738  151.6268 N   0  0  0  0  0  0  0  0  0  0  0  0
  145.8772  137.4240  152.4354 C   0  0  0  0  0  0  0  0  0  0  0  0
  144.6754  137.3350  152.6894 O   0  0  0  0  0  0  0  0  0  0  0  0
  146.6909  138.5623  152.9787 C   0  0  0  0  0  0  0  0  0  0  0  0
  147.9367  138.3692  153.6225 C   0  0  0  0  0  0  0  0  0  0  0  0
  148.6407  139.4811  154.1333 C   0  0  0  0  0  0  0  0  0  0  0  0
  149.8760  139.2770  154.7630 N   0  0  0  0  0  0  0  0  0  0  0  0
  150.8485  138.5918  153.9208 C   0  0  0  0  0  0  0  0  0  0  0  0
  152.1280  138.2996  154.7240 C   0  0  0  0  0  0  0  0  0  0  0  0
  152.6376  139.5140  155.2673 O   0  0  0  0  0  0  0  0  0  0  0  0
  151.7095  140.1355  156.1521 C   0  0  0  0  0  0  0  0  0  0  0  0
  150.4199  140.4778  155.3857 C   0  0  0  0  0  0  0  0  0  0  0  0
  148.0758  140.7705  153.9940 C   0  0  0  0  0  0  0  0  0  0  0  0
  146.8277  140.9082  153.3561 C   0  0  0  0  0  0  0  0  0  0  0  0
  146.1903  139.8158  152.8832 N   0  3  0  0  0  0  0  0  0  0  0  0
  146.6684  132.7381  150.7769 H   0  0  0  0  0  0  0  0  0  0  0  0
  146.0491  132.2341  152.4447 H   0  0  0  0  0  0  0  0  0  0  0  0
  145.3103  134.4979  152.8842 H   0  0  0  0  0  0  0  0  0  0  0  0
  146.5931  135.1006  150.1476 H   0  0  0  0  0  0  0  0  0  0  0  0
  144.1324  134.9721  149.8345 H   0  0  0  0  0  0  0  0  0  0  0  0
  144.6965  136.6274  149.6460 H   0  0  0  0  0  0  0  0  0  0  0  0
  143.8861  136.1374  151.1322 H   0  0  0  0  0  0  0  0  0  0  0  0
  147.5127  136.7411  151.4559 H   0  0  0  0  0  0  0  0  0  0  0  0
  148.3551  137.3789  153.7330 H   0  0  0  0  0  0  0  0  0  0  0  0
  150.4222  137.6606  153.5454 H   0  0  0  0  0  0  0  0  0  0  0  0
  151.0904  139.2095  153.0548 H   0  0  0  0  0  0  0  0  0  0  0  0
  151.9305  137.5853  155.5250 H   0  0  0  0  0  0  0  0  0  0  0  0
  152.8844  137.8537  154.0782 H   0  0  0  0  0  0  0  0  0  0  0  0
  151.4988  139.4773  156.9965 H   0  0  0  0  0  0  0  0  0  0  0  0
  152.1578  141.0422  156.5584 H   0  0  0  0  0  0  0  0  0  0  0  0
  150.6344  141.2281  154.6237 H   0  0  0  0  0  0  0  0  0  0  0  0
  149.6839  140.9084  156.0659 H   0  0  0  0  0  0  0  0  0  0  0  0
  148.5868  141.6440  154.3722 H   0  0  0  0  0  0  0  0  0  0  0  0
  146.3223  141.8520  153.2124 H   0  0  0  0  0  0  0  0  0  0  0  0
  145.2842  139.9375  152.4292 H   0  0  0  0  0  0  0  0  0  0  0  0
  1  2  2  0  0  0  0
  1 20  1  0  0  0  0
  1 21  1  0  0  0  0
  2  3  1  0  0  0  0
  2 22  1  0  0  0  0
  3  4  1  0  0  0  0
  3  5  1  0  0  0  0
  3 23  1  0  0  0  0
  4 24  1  0  0  0  0
  4 25  1  0  0  0  0
  4 26  1  0  0  0  0
  5  6  1  0  0  0  0
  5 27  1  0  0  0  0
  6  7  2  0  0  0  0
  6  8  1  0  0  0  0
  8 19  1  0  0  0  0
  8  9  2  0  0  0  0
  9 10  1  0  0  0  0
  9 28  1  0  0  0  0
 10 11  1  0  0  0  0
 10 17  2  0  0  0  0
 11 16  1  0  0  0  0
 11 12  1  0  0  0  0
 12 13  1  0  0  0  0
 12 29  1  0  0  0  0
 12 30  1  0  0  0  0
 13 14  1  0  0  0  0
 13 31  1  0  0  0  0
 13 32  1  0  0  0  0
 14 15  1  0  0  0  0
 15 16  1  0  0  0  0
 15 33  1  0  0  0  0
 15 34  1  0  0  0  0
 16 35  1  0  0  0  0
 16 36  1  0  0  0  0
 17 18  1  0  0  0  0
 17 37  1  0  0  0  0
 18 19  2  0  0  0  0
 18 38  1  0  0  0  0
 19 39  1  0  0  0  0
M  CHG  1  19   1
M  END
> <s_m_source_file>
AV-unprocessed.smi

> <i_m_source_file_index>
2746

> <i_lp_mmshare_version>
43012

> <i_f3d_flags>
0

> <s_epik_input>
W0NIMl09W0NIXVtDQEhdKFtDSDNdKVtOSF1DKD1PKWMxW2NIXWMoW2NIXVtjSF1uMSlOMltDSDJdW0NIMl1PW0NIMl1bQ0gyXTI=

> <s_epik_cmdline>
J2VwaWtfcHl0aG9uJywgJy1waCcsICc3LjAnLCAnLXRuJywgJzgnLCAnLW1hJywgJzIwMCcsICctbWV0YWxfYmluZGluZycsICctaW1hZScsICc8aW5maWxlLm1hZT4nLCAnLW9tYWUnLCAnPG91dGZpbGUubWFlPic=

> <r_lp_tautomer_probability>
1

> <r_epik_Ionization_Penalty>
0.451073

> <r_epik_Ionization_Penalty_Charging>
0.450607

> <r_epik_Ionization_Penalty_Neutral>
0.000466544

> <r_epik_State_Penalty>
0.453375

> <r_epik_Charging_Adjusted_Penalty>
0.903982

> <i_epik_Tot_Q>
1

> <i_epik_Tot_abs_Q>
1

> <r_epik_Metal_State_Penalty>
1.0249

> <b_epik_Metal_Only>
0

> <s_lp_Force_Field>
OPLS_2005

> <r_lp_Energy>
25.7361

> <b_lp_Chiralities_Consistent>
1

> <s_lp_Variant>
AV-unprocessed.smi:2746-4

> <Gold.Version>
5.8.1

> <Gold.Id.Protein>
6NUR|6NUR_protein|mol2

> <Gold.PLP.Fitness>
41.5894

> <Gold.PLP.PLP>
-32.2060

> <Gold.PLP.part.hbond>
-3.3332

> <Gold.PLP.part.metal>
0.0000

> <Gold.PLP.part.buried>
-1.1969

> <Gold.PLP.part.nonpolar>
-28.5182

> <Gold.PLP.part.repulsive>
0.3843

> <Gold.PLP.ligand.clash>
0.2989

> <Gold.PLP.ligand.torsion>
1.2435

> <Gold.PLP.Chemscore.Hbond>
3.9947

> <Gold.PLP.Chemscore.CHOScore>
0.0000

> <Gold.PLP.Chemscore.Metal>
0.0000

> <Gold.Chemscore.Hbonds>
donor molecule, donor type, donor heavy atom, donor atom, acceptor molecule, acceptor atom, score
      L1  H     5    27       P1  7948  0.86
      L1  H    19    39       P1 10175  2.00
      P1  H  7997  8009       L1    14  1.00

> <Gold.PLP.Chemscore.Internal.Correction>
0.1852

> <Gold.Rescore>
     Score         DG    S(hbond)    S(metal)    S(lipo)     H(rot)  DE(clash)    DE(int)     intcor
     17.93     -20.59       2.84        0.00      76.43       1.30       0.01       2.65       ----

> <Gold.Chemscore.Fitness>
17.9328

> <Gold.Chemscore.DG>
-20.5929

> <Gold.Chemscore.ZeroCoef>
-5.4800

> <Gold.Chemscore.Hbond>
2.8450

> <Gold.Chemscore.Metal>
0.0000

> <Gold.Chemscore.Lipo>
76.4268

> <Gold.Chemscore.Internal_Hbond>
0.0000

> <Gold.Chemscore.DEClash>
0.0103

> <Gold.Chemscore.DEInternal>
2.6498

> <Gold.Chemscore.Rot>
1.3013

> <Gold.Chemscore.Internal.Correction>
   9.000000E+99

> <Gold.Chemscore.Hbonds>
donor molecule, donor type, donor heavy atom, donor atom, acceptor molecule, acceptor atom, score
      L1  H     5    27       P1  7948  0.80
      L1  H    19    39       P1 10175  0.91
      P1  H  7997  8009       L1    14  0.33

> <Gold.Chemscore.Hbond.Weighted>
-9.5023

> <Gold.Chemscore.Metal.Weighted>
-0.0000

> <Gold.Chemscore.Lipo.Weighted>
-8.9419

> <Gold.Chemscore.Internal_Hbond.Weighted>
0.0000

> <Gold.Chemscore.DEClash.Weighted>
0.0103

> <Gold.Chemscore.DEInternal.Weighted>
2.6498

> <Gold.Chemscore.Rot.Weighted>
3.3313

> <Gold.Chemscore.Internal.Correction.Weighted>
   9.000000E+99

> <Gold.Protein.RotatedTorsions>
[ 6907 6896 6895 6894 ] final  156.21 input  -60.11 | X-H torsion
[ 7974 7965 7964 7962 ] final   57.33 input  175.53 | X-H torsion
[ 8008 7997 7996 7995 ] final -140.07 input   59.86 | X-H torsion
[ 10167 10162 10161 10158 ] final  -47.93 input  -65.29 | X-H torsion
[ 10718 10713 10712 10709 ] final  113.68 input   66.30 | X-H torsion
[ 10763 10752 10751 10750 ] final   75.86 input  -60.55 | X-H torsion
[ 11005 11000 10999 10996 ] final  -82.57 input  -57.11 | X-H torsion

> <Gold.Protein.ActiveResidues>
 VAL166  LYS551  ARG553  GLY616  TRP617  ASP618  TYR619  PRO620  LYS621  CYS622 
 ASP623  PHE694  ASN695  SER759  ASP760  ASP761  ALA762  ILE779  LEU786  VAL792 
 PHE793  MET794  SER795  GLU796  ALA797  LYS798  CYS799  TRP800  GLU811  SER814 

> <Gold.Protein.RotatedAtoms>
  152.0330  133.3945  159.4304 H   0  0  0  0  0  0  0  0  0  0  0  0  # atno 6907 bound_to 6896
  150.6881  134.3499  159.4914 H   0  0  0  0  0  0  0  0  0  0  0  0  # atno 6908 bound_to 6896
  152.1288  134.9150  160.0610 H   0  0  0  0  0  0  0  0  0  0  0  0  # atno 6909 bound_to 6896
  145.9302  139.3801  143.0425 H   0  0  0  0  0  0  0  0  0  0  0  0  # atno 7974 bound_to 7965
  155.4553  140.0541  157.2997 H   0  0  0  0  0  0  0  0  0  0  0  0  # atno 8008 bound_to 7997
  154.4760  140.2061  155.9833 H   0  0  0  0  0  0  0  0  0  0  0  0  # atno 8009 bound_to 7997
  156.1132  140.3200  155.8107 H   0  0  0  0  0  0  0  0  0  0  0  0  # atno 8010 bound_to 7997
  140.6753  143.2762  151.3997 H   0  0  0  0  0  0  0  0  0  0  0  0  # atno 10167 bound_to 10162
  157.6325  131.0987  150.7075 H   0  0  0  0  0  0  0  0  0  0  0  0  # atno 10718 bound_to 10713
  153.0684  135.4973  154.8251 H   0  0  0  0  0  0  0  0  0  0  0  0  # atno 10763 bound_to 10752
  154.6987  135.2997  154.9375 H   0  0  0  0  0  0  0  0  0  0  0  0  # atno 10764 bound_to 10752
  154.0106  135.6755  153.4818 H   0  0  0  0  0  0  0  0  0  0  0  0  # atno 10765 bound_to 10752
  141.1662  133.7251  156.8591 H   0  0  0  0  0  0  0  0  0  0  0  0  # atno 11005 bound_to 11000
  145.8436  140.9567  143.0786 LP  0  0  0  0  0  0  0  0  0  0  0  0  # atno 17320 bound_to 7965
  144.6764  140.0316  143.7482 LP  0  0  0  0  0  0  0  0  0  0  0  0  # atno 17321 bound_to 7965
  139.6043  144.1230  152.2232 LP  0  0  0  0  0  0  0  0  0  0  0  0  # atno 17342 bound_to 10162
  140.0624  144.5845  150.7253 LP  0  0  0  0  0  0  0  0  0  0  0  0  # atno 17343 bound_to 10162
  156.7412  130.4740  149.5477 LP  0  0  0  0  0  0  0  0  0  0  0  0  # atno 17370 bound_to 10713
  156.1538  130.6328  151.0630 LP  0  0  0  0  0  0  0  0  0  0  0  0  # atno 17371 bound_to 10713
  140.1861  134.8999  157.3006 LP  0  0  0  0  0  0  0  0  0  0  0  0  # atno 17394 bound_to 11000
  140.2341  134.3874  155.7509 LP  0  0  0  0  0  0  0  0  0  0  0  0  # atno 17395 bound_to 11000

$$$$
