AV-unprocessed.smi:2588|AV-procd|sdf|10148|dock4
  -GOLD-   2272014163D 1   1.00000     0.00000
 Structure written by MMmdl.
 40 41  0  0  0  0  0  0  0  0  2 V2000
  143.6094  135.5680  152.1061 C   0  0  0  0  0  0  0  0  0  0  0  0
  145.0654  135.2748  151.6862 C   0  0  0  0  0  0  0  0  0  0  0  0
  145.4861  133.9243  152.3047 C   0  0  0  0  0  0  0  0  0  0  0  0
  145.9977  136.3947  152.0445 N   0  3  2  0  0  0  0  0  0  0  0  0
  145.9838  136.7243  153.5007 C   0  0  0  0  0  0  0  0  0  0  0  0
  147.0173  137.8038  153.8630 C   0  0  0  0  0  0  0  0  0  0  0  0
  146.7941  139.0815  153.0466 C   0  0  1  0  0  0  0  0  0  0  0  0
  147.8208  140.0676  153.3698 N   0  0  0  0  0  0  0  0  0  0  0  0
  148.0753  140.5418  154.5992 C   0  0  0  0  0  0  0  0  0  0  0  0
  147.4381  140.2004  155.5966 O   0  0  0  0  0  0  0  0  0  0  0  0
  149.2082  141.5724  154.7010 C   0  0  0  0  0  0  0  0  0  0  0  0
  150.0859  141.3564  155.8525 N   0  0  0  0  0  0  0  0  0  0  0  0
  149.8008  142.0106  157.0103 N   0  0  0  0  0  0  0  0  0  0  0  0
  150.6469  141.7273  157.9303 C   0  0  0  0  0  0  0  0  0  0  0  0
  151.9339  140.5987  157.4858 S   0  0  0  0  0  0  0  0  0  0  0  0
  151.2052  140.5284  155.8577 C   0  0  0  0  0  0  0  0  0  0  0  0
  151.6582  139.8477  154.9392 O   0  0  0  0  0  0  0  0  0  0  0  0
  146.8222  138.7217  151.5543 C   0  0  0  0  0  0  0  0  0  0  0  0
  145.7955  137.6257  151.2238 C   0  0  0  0  0  0  0  0  0  0  0  0
  142.9735  134.6955  151.9522 H   0  0  0  0  0  0  0  0  0  0  0  0
  143.1593  136.3690  151.5213 H   0  0  0  0  0  0  0  0  0  0  0  0
  143.5460  135.8363  153.1613 H   0  0  0  0  0  0  0  0  0  0  0  0
  145.0825  135.1584  150.6013 H   0  0  0  0  0  0  0  0  0  0  0  0
  144.7250  133.1613  152.1371 H   0  0  0  0  0  0  0  0  0  0  0  0
  145.6341  134.0069  153.3820 H   0  0  0  0  0  0  0  0  0  0  0  0
  146.4012  133.5334  151.8608 H   0  0  0  0  0  0  0  0  0  0  0  0
  144.9838  137.0513  153.7905 H   0  0  0  0  0  0  0  0  0  0  0  0
  146.2174  135.8477  154.1015 H   0  0  0  0  0  0  0  0  0  0  0  0
  146.9549  138.0266  154.9290 H   0  0  0  0  0  0  0  0  0  0  0  0
  148.0225  137.4175  153.6861 H   0  0  0  0  0  0  0  0  0  0  0  0
  145.8139  139.4894  153.3022 H   0  0  0  0  0  0  0  0  0  0  0  0
  148.3880  140.4063  152.6060 H   0  0  0  0  0  0  0  0  0  0  0  0
  149.8085  141.5429  153.7902 H   0  0  0  0  0  0  0  0  0  0  0  0
  148.7667  142.5692  154.7462 H   0  0  0  0  0  0  0  0  0  0  0  0
  150.6440  142.1151  158.9488 H   0  0  0  0  0  0  0  0  0  0  0  0
  146.6154  139.6055  150.9494 H   0  0  0  0  0  0  0  0  0  0  0  0
  147.8201  138.3822  151.2722 H   0  0  0  0  0  0  0  0  0  0  0  0
  145.9012  137.4087  150.1625 H   0  0  0  0  0  0  0  0  0  0  0  0
  144.7825  138.0019  151.3749 H   0  0  0  0  0  0  0  0  0  0  0  0
  146.9294  136.0658  151.8342 H   0  0  0  0  0  0  0  0  0  0  0  0
  1  2  1  0  0  0  0
  1 20  1  0  0  0  0
  1 21  1  0  0  0  0
  1 22  1  0  0  0  0
  2  3  1  0  0  0  0
  2  4  1  0  0  0  0
  2 23  1  0  0  0  0
  3 24  1  0  0  0  0
  3 25  1  0  0  0  0
  3 26  1  0  0  0  0
  4 19  1  0  0  0  0
  4  5  1  0  0  0  0
  4 40  1  0  0  0  0
  5  6  1  0  0  0  0
  5 27  1  0  0  0  0
  5 28  1  0  0  0  0
  6  7  1  0  0  0  0
  6 29  1  0  0  0  0
  6 30  1  0  0  0  0
  7  8  1  0  0  0  0
  7 18  1  0  0  0  0
  7 31  1  0  0  0  0
  8  9  1  0  0  0  0
  8 32  1  0  0  0  0
  9 10  2  0  0  0  0
  9 11  1  0  0  0  0
 11 12  1  0  0  0  0
 11 33  1  0  0  0  0
 11 34  1  0  0  0  0
 12 16  1  0  0  0  0
 12 13  1  0  0  0  0
 13 14  2  0  0  0  0
 14 15  1  0  0  0  0
 14 35  1  0  0  0  0
 15 16  1  0  0  0  0
 16 17  2  0  0  0  0
 18 19  1  0  0  0  0
 18 36  1  0  0  0  0
 18 37  1  0  0  0  0
 19 38  1  0  0  0  0
 19 39  1  0  0  0  0
M  CHG  1   4   1
M  END
> <s_m_source_file>
AV-unprocessed.smi

> <i_m_source_file_index>
2588

> <i_lp_mmshare_version>
43012

> <i_f3d_flags>
0

> <s_epik_input>
W0NIM11bQ0hdKFtDSDNdKU4xW0NIMl1bQ0gyXVtDSF0oW0NIMl1bQ0gyXTEpW05IXUMoPU8pW0NIMl1uMm5bY0hdc2MyPU8=

> <s_epik_cmdline>
J2VwaWtfcHl0aG9uJywgJy1waCcsICc3LjAnLCAnLXRuJywgJzgnLCAnLW1hJywgJzIwMCcsICctbWV0YWxfYmluZGluZycsICctaW1hZScsICc8aW5maWxlLm1hZT4nLCAnLW9tYWUnLCAnPG91dGZpbGUubWFlPic=

> <r_lp_tautomer_probability>
1

> <r_epik_Ionization_Penalty>
0.00923155

> <r_epik_Ionization_Penalty_Charging>
0.00923117

> <r_epik_Ionization_Penalty_Neutral>
3.88423e-07

> <r_epik_State_Penalty>
0.0069994

> <r_epik_Charging_Adjusted_Penalty>
0.0162306

> <i_epik_Tot_Q>
1

> <i_epik_Tot_abs_Q>
1

> <r_epik_Metal_State_Penalty>
0.0069994

> <b_epik_Metal_Only>
0

> <s_lp_Force_Field>
OPLS_2005

> <r_lp_Energy>
22.17

> <b_lp_Chiralities_Consistent>
1

> <s_lp_Variant>
AV-unprocessed.smi:2588-1

> <Gold.Version>
5.8.1

> <Gold.Id.Protein>
6NUR|6NUR_protein|mol2

> <Gold.PLP.Fitness>
40.9711

> <Gold.PLP.PLP>
-30.3065

> <Gold.PLP.part.hbond>
-3.0000

> <Gold.PLP.part.metal>
0.0000

> <Gold.PLP.part.buried>
1.2915

> <Gold.PLP.part.nonpolar>
-30.3835

> <Gold.PLP.part.repulsive>
0.2938

> <Gold.PLP.ligand.clash>
0.0000

> <Gold.PLP.ligand.torsion>
0.6810

> <Gold.PLP.Chemscore.Hbond>
3.9920

> <Gold.PLP.Chemscore.CHOScore>
0.0000

> <Gold.PLP.Chemscore.Metal>
0.0000

> <Gold.Chemscore.Hbonds>
donor molecule, donor type, donor heavy atom, donor atom, acceptor molecule, acceptor atom, score
      L1  H     4    40       P1  7948  2.00
      L1  H     8    32       P1  7957  0.99
      P1  H  7989  7998       L1    17  1.00

> <Gold.PLP.Chemscore.Internal.Correction>
0.0506

> <Gold.Rescore>
     Score         DG    S(hbond)    S(metal)    S(lipo)     H(rot)  DE(clash)    DE(int)     intcor
     14.76     -17.62       2.84        0.00      63.66       1.88       2.25       0.61       ----

> <Gold.Chemscore.Fitness>
14.7562

> <Gold.Chemscore.DG>
-17.6154

> <Gold.Chemscore.ZeroCoef>
-5.4800

> <Gold.Chemscore.Hbond>
2.8410

> <Gold.Chemscore.Metal>
0.0000

> <Gold.Chemscore.Lipo>
63.6571

> <Gold.Chemscore.Internal_Hbond>
0.0000

> <Gold.Chemscore.DEClash>
2.2504

> <Gold.Chemscore.DEInternal>
0.6087

> <Gold.Chemscore.Rot>
1.8756

> <Gold.Chemscore.Internal.Correction>
   9.000000E+99

> <Gold.Chemscore.Hbonds>
donor molecule, donor type, donor heavy atom, donor atom, acceptor molecule, acceptor atom, score
      L1  H     4    40       P1  7948  0.94
      L1  H     8    32       P1  7957  0.94
      P1  H  7989  7998       L1    17  0.59

> <Gold.Chemscore.Hbond.Weighted>
-9.4890

> <Gold.Chemscore.Metal.Weighted>
-0.0000

> <Gold.Chemscore.Lipo.Weighted>
-7.4479

> <Gold.Chemscore.Internal_Hbond.Weighted>
0.0000

> <Gold.Chemscore.DEClash.Weighted>
2.2504

> <Gold.Chemscore.DEInternal.Weighted>
0.6087

> <Gold.Chemscore.Rot.Weighted>
4.8015

> <Gold.Chemscore.Internal.Correction.Weighted>
   9.000000E+99

> <Gold.Protein.RotatedTorsions>
[ 6907 6896 6895 6894 ] final  -97.73 input  -60.11 | X-H torsion
[ 7974 7965 7964 7962 ] final  101.57 input  175.53 | X-H torsion
[ 8008 7997 7996 7995 ] final  146.93 input   59.86 | X-H torsion
[ 10167 10162 10161 10158 ] final -166.81 input  -65.29 | X-H torsion
[ 10718 10713 10712 10709 ] final  164.40 input   66.30 | X-H torsion
[ 10763 10752 10751 10750 ] final  -69.50 input  -60.55 | X-H torsion
[ 11005 11000 10999 10996 ] final   47.80 input  -57.11 | X-H torsion

> <Gold.Protein.ActiveResidues>
 VAL166  LYS551  ARG553  GLY616  TRP617  ASP618  TYR619  PRO620  LYS621  CYS622 
 ASP623  PHE694  ASN695  SER759  ASP760  ASP761  ALA762  ILE779  LEU786  VAL792 
 PHE793  MET794  SER795  GLU796  ALA797  LYS798  CYS799  TRP800  GLU811  SER814 

> <Gold.Protein.RotatedAtoms>
  150.7025  134.1304  159.4067 H   0  0  0  0  0  0  0  0  0  0  0  0  # atno 6907 bound_to 6896
  151.9289  135.0263  160.0537 H   0  0  0  0  0  0  0  0  0  0  0  0  # atno 6908 bound_to 6896
  152.2192  133.4935  159.5190 H   0  0  0  0  0  0  0  0  0  0  0  0  # atno 6909 bound_to 6896
  145.3706  139.2399  143.3457 H   0  0  0  0  0  0  0  0  0  0  0  0  # atno 7974 bound_to 7965
  156.2840  140.2169  156.5456 H   0  0  0  0  0  0  0  0  0  0  0  0  # atno 8008 bound_to 7997
  154.7333  140.0493  157.0768 H   0  0  0  0  0  0  0  0  0  0  0  0  # atno 8009 bound_to 7997
  155.0325  140.3136  155.4756 H   0  0  0  0  0  0  0  0  0  0  0  0  # atno 8010 bound_to 7997
  139.6090  144.0852  152.1823 H   0  0  0  0  0  0  0  0  0  0  0  0  # atno 10167 bound_to 10162
  157.0949  131.0427  151.2522 H   0  0  0  0  0  0  0  0  0  0  0  0  # atno 10718 bound_to 10713
  154.4043  135.6024  153.5915 H   0  0  0  0  0  0  0  0  0  0  0  0  # atno 10763 bound_to 10752
  152.9789  135.5914  154.4147 H   0  0  0  0  0  0  0  0  0  0  0  0  # atno 10764 bound_to 10752
  154.3950  135.2842  155.2110 H   0  0  0  0  0  0  0  0  0  0  0  0  # atno 10765 bound_to 10752
  140.1247  134.4784  155.8569 H   0  0  0  0  0  0  0  0  0  0  0  0  # atno 11005 bound_to 11000
  146.2887  140.4356  142.8748 LP  0  0  0  0  0  0  0  0  0  0  0  0  # atno 17320 bound_to 7965
  144.8579  140.7097  143.6126 LP  0  0  0  0  0  0  0  0  0  0  0  0  # atno 17321 bound_to 7965
  140.0467  144.5965  150.7368 LP  0  0  0  0  0  0  0  0  0  0  0  0  # atno 17342 bound_to 10162
  140.7306  143.2685  151.3966 LP  0  0  0  0  0  0  0  0  0  0  0  0  # atno 17343 bound_to 10162
  157.4690  130.7697  149.7305 LP  0  0  0  0  0  0  0  0  0  0  0  0  # atno 17370 bound_to 10713
  155.9888  130.3956  150.3100 LP  0  0  0  0  0  0  0  0  0  0  0  0  # atno 17371 bound_to 10713
  141.2159  133.6773  156.6955 LP  0  0  0  0  0  0  0  0  0  0  0  0  # atno 17394 bound_to 11000
  140.2920  134.8233  157.4024 LP  0  0  0  0  0  0  0  0  0  0  0  0  # atno 17395 bound_to 11000

$$$$
