AV-unprocessed.smi:716|AV-procd|sdf|3488|dock10
  -GOLD-   22720 0483D 1   1.00000     0.00000
 Structure written by MMmdl.
 48 50  0  0  0  0  0  0  0  0  1 V2000
  146.1245  137.3203  152.2707 C   0  0  0  0  0  0  0  0  0  0  0  0
  146.7151  138.7125  152.5036 C   0  0  0  0  0  0  0  0  0  0  0  0
  146.9383  138.8872  153.8922 O   0  0  0  0  0  0  0  0  0  0  0  0
  147.7938  139.9819  154.1808 C   0  0  2  0  0  0  0  0  0  0  0  0
  149.2859  139.6360  154.2049 C   0  0  0  0  0  0  0  0  0  0  0  0
  149.3835  140.6118  155.3785 C   0  0  2  0  0  0  0  0  0  0  0  0
  150.3308  140.1672  156.3940 N   0  0  0  0  0  0  0  0  0  0  0  0
  151.6638  140.1964  156.2557 C   0  0  0  0  0  0  0  0  0  0  0  0
  152.2286  140.6211  155.2469 O   0  0  0  0  0  0  0  0  0  0  0  0
  152.4768  139.6893  157.4552 C   0  0  0  0  0  0  0  0  0  0  0  0
  152.6299  140.6936  158.5175 N   0  0  0  0  0  0  0  0  0  0  0  0
  151.9811  141.8913  158.2657 N   0  0  0  0  0  0  0  0  0  0  0  0
  152.0341  142.8682  159.1109 C   0  0  0  0  0  0  0  0  0  0  0  0
  151.3055  144.1314  158.7605 C   0  0  0  0  0  0  0  0  0  0  0  0
  152.7827  142.7079  160.3428 C   0  0  0  0  0  0  0  0  0  0  0  0
  153.4096  141.5376  160.5884 C   0  0  0  0  0  0  0  0  0  0  0  0
  153.3549  140.4241  159.6440 C   0  0  0  0  0  0  0  0  0  0  0  0
  153.9080  139.3425  159.8425 O   0  0  0  0  0  0  0  0  0  0  0  0
  147.8960  140.3069  155.6923 C   0  0  0  0  0  0  0  0  0  0  0  0
  147.5459  139.1830  156.6768 C   0  0  0  0  0  0  0  0  0  0  0  0
  146.0593  139.3365  157.0075 C   0  0  0  0  0  0  0  0  0  0  0  0
  145.7272  140.8081  156.7379 C   0  0  0  0  0  0  0  0  0  0  0  0
  147.0201  141.4412  156.2126 C   0  0  0  0  0  0  0  0  0  0  0  0
  145.9358  137.1496  151.2108 H   0  0  0  0  0  0  0  0  0  0  0  0
  145.1802  137.2018  152.8024 H   0  0  0  0  0  0  0  0  0  0  0  0
  146.8057  136.5435  152.6191 H   0  0  0  0  0  0  0  0  0  0  0  0
  147.6503  138.8150  151.9517 H   0  0  0  0  0  0  0  0  0  0  0  0
  146.0278  139.4755  152.1354 H   0  0  0  0  0  0  0  0  0  0  0  0
  147.5762  140.8680  153.5799 H   0  0  0  0  0  0  0  0  0  0  0  0
  149.4812  138.5968  154.4762 H   0  0  0  0  0  0  0  0  0  0  0  0
  149.8385  139.9349  153.3139 H   0  0  0  0  0  0  0  0  0  0  0  0
  149.5387  141.6385  155.0374 H   0  0  0  0  0  0  0  0  0  0  0  0
  149.9470  139.8098  157.2567 H   0  0  0  0  0  0  0  0  0  0  0  0
  151.9802  138.7981  157.8434 H   0  0  0  0  0  0  0  0  0  0  0  0
  153.4605  139.3536  157.1208 H   0  0  0  0  0  0  0  0  0  0  0  0
  151.3592  144.8561  159.5734 H   0  0  0  0  0  0  0  0  0  0  0  0
  150.2525  143.9310  158.5619 H   0  0  0  0  0  0  0  0  0  0  0  0
  151.7364  144.5932  157.8718 H   0  0  0  0  0  0  0  0  0  0  0  0
  152.8327  143.5216  161.0514 H   0  0  0  0  0  0  0  0  0  0  0  0
  153.9669  141.4194  161.5059 H   0  0  0  0  0  0  0  0  0  0  0  0
  147.7676  138.1893  156.2866 H   0  0  0  0  0  0  0  0  0  0  0  0
  148.1171  139.2920  157.5992 H   0  0  0  0  0  0  0  0  0  0  0  0
  145.4624  138.6983  156.3548 H   0  0  0  0  0  0  0  0  0  0  0  0
  145.8438  139.0469  158.0363 H   0  0  0  0  0  0  0  0  0  0  0  0
  144.9392  140.8774  155.9869 H   0  0  0  0  0  0  0  0  0  0  0  0
  145.3722  141.3177  157.6339 H   0  0  0  0  0  0  0  0  0  0  0  0
  147.5287  141.9556  157.0291 H   0  0  0  0  0  0  0  0  0  0  0  0
  146.8130  142.1927  155.4503 H   0  0  0  0  0  0  0  0  0  0  0  0
  1  2  1  0  0  0  0
  1 24  1  0  0  0  0
  1 25  1  0  0  0  0
  1 26  1  0  0  0  0
  2  3  1  0  0  0  0
  2 27  1  0  0  0  0
  2 28  1  0  0  0  0
  3  4  1  0  0  0  0
  4 19  1  0  0  0  0
  4  5  1  0  0  0  0
  4 29  1  0  0  0  0
  5  6  1  0  0  0  0
  5 30  1  0  0  0  0
  5 31  1  0  0  0  0
  6  7  1  0  0  0  0
  6 19  1  0  0  0  0
  6 32  1  0  0  0  0
  7  8  1  0  0  0  0
  7 33  1  0  0  0  0
  8  9  2  0  0  0  0
  8 10  1  0  0  0  0
 10 11  1  0  0  0  0
 10 34  1  0  0  0  0
 10 35  1  0  0  0  0
 11 17  1  0  0  0  0
 11 12  1  0  0  0  0
 12 13  2  0  0  0  0
 13 14  1  0  0  0  0
 13 15  1  0  0  0  0
 14 36  1  0  0  0  0
 14 37  1  0  0  0  0
 14 38  1  0  0  0  0
 15 16  2  0  0  0  0
 15 39  1  0  0  0  0
 16 17  1  0  0  0  0
 16 40  1  0  0  0  0
 17 18  2  0  0  0  0
 19 23  1  0  0  0  0
 19 20  1  0  0  0  0
 20 21  1  0  0  0  0
 20 41  1  0  0  0  0
 20 42  1  0  0  0  0
 21 22  1  0  0  0  0
 21 43  1  0  0  0  0
 21 44  1  0  0  0  0
 22 23  1  0  0  0  0
 22 45  1  0  0  0  0
 22 46  1  0  0  0  0
 23 47  1  0  0  0  0
 23 48  1  0  0  0  0
M  END
> <s_m_source_file>
AV-unprocessed.smi

> <i_m_source_file_index>
716

> <i_lp_mmshare_version>
43012

> <i_f3d_flags>
0

> <s_epik_input>
W0NIMl0xW0NIMl1bQ0gyXVtDSDJdQzEyW0NASF0oT1tDSDJdW0NIM10pW0NIMl1bQ0BIXTJbTkhdQyg9TylbQ0gyXW4zbmMoW0NIM10pW2NIXVtjSF1jMz1P

> <s_epik_cmdline>
J2VwaWtfcHl0aG9uJywgJy1waCcsICc3LjAnLCAnLXRuJywgJzgnLCAnLW1hJywgJzIwMCcsICctbWV0YWxfYmluZGluZycsICctaW1hZScsICc8aW5maWxlLm1hZT4nLCAnLW9tYWUnLCAnPG91dGZpbGUubWFlPic=

> <r_lp_tautomer_probability>
1

> <r_epik_Ionization_Penalty>
4.75561e-08

> <r_epik_Ionization_Penalty_Charging>
2.86617e-08

> <r_epik_Ionization_Penalty_Neutral>
1.88944e-08

> <r_epik_State_Penalty>
-0

> <r_epik_Charging_Adjusted_Penalty>
2.86617e-08

> <i_epik_Tot_Q>
0

> <i_epik_Tot_abs_Q>
0

> <r_epik_Metal_State_Penalty>
-0

> <b_epik_Metal_Only>
0

> <s_lp_Force_Field>
OPLS_2005

> <r_lp_Energy>
50.3273

> <b_lp_Chiralities_Consistent>
1

> <s_lp_Variant>
AV-unprocessed.smi:716-3

> <Gold.Version>
5.8.1

> <Gold.Id.Protein>
6NUR|6NUR_protein|mol2

> <Gold.PLP.Fitness>
41.2336

> <Gold.PLP.PLP>
-38.2139

> <Gold.PLP.part.hbond>
-1.7939

> <Gold.PLP.part.metal>
0.0000

> <Gold.PLP.part.buried>
1.5407

> <Gold.PLP.part.nonpolar>
-37.9344

> <Gold.PLP.part.repulsive>
0.2397

> <Gold.PLP.ligand.clash>
0.0000

> <Gold.PLP.ligand.torsion>
0.6634

> <Gold.PLP.Chemscore.Hbond>
1.3380

> <Gold.PLP.Chemscore.CHOScore>
0.0000

> <Gold.PLP.Chemscore.Metal>
0.0000

> <Gold.Chemscore.Hbonds>
donor molecule, donor type, donor heavy atom, donor atom, acceptor molecule, acceptor atom, score
      P1  H  7989  7998       L1     9  0.50
      P1  H  7997  8009       L1     9  0.20

> <Gold.PLP.Chemscore.Internal.Correction>
0.3327

> <Gold.Rescore>
     Score         DG    S(hbond)    S(metal)    S(lipo)     H(rot)  DE(clash)    DE(int)     intcor
     12.30     -14.34       0.82        0.00      90.17       1.73       0.19       1.86       ----

> <Gold.Chemscore.Fitness>
12.2964

> <Gold.Chemscore.DG>
-14.3401

> <Gold.Chemscore.ZeroCoef>
-5.4800

> <Gold.Chemscore.Hbond>
0.8236

> <Gold.Chemscore.Metal>
0.0000

> <Gold.Chemscore.Lipo>
90.1742

> <Gold.Chemscore.Internal_Hbond>
0.0000

> <Gold.Chemscore.DEClash>
0.1867

> <Gold.Chemscore.DEInternal>
1.8571

> <Gold.Chemscore.Rot>
1.7348

> <Gold.Chemscore.Internal.Correction>
   9.000000E+99

> <Gold.Chemscore.Hbonds>
donor molecule, donor type, donor heavy atom, donor atom, acceptor molecule, acceptor atom, score
      P1  H  7989  7998       L1     9  0.50
      P1  H  7997  8009       L1     9  0.03

> <Gold.Chemscore.Hbond.Weighted>
-2.7509

> <Gold.Chemscore.Metal.Weighted>
-0.0000

> <Gold.Chemscore.Lipo.Weighted>
-10.5504

> <Gold.Chemscore.Internal_Hbond.Weighted>
0.0000

> <Gold.Chemscore.DEClash.Weighted>
0.1867

> <Gold.Chemscore.DEInternal.Weighted>
1.8571

> <Gold.Chemscore.Rot.Weighted>
4.4411

> <Gold.Chemscore.Internal.Correction.Weighted>
   9.000000E+99

> <Gold.Protein.RotatedTorsions>
[ 6907 6896 6895 6894 ] final -114.60 input  -60.11 | X-H torsion
[ 7974 7965 7964 7962 ] final  143.64 input  175.53 | X-H torsion
[ 8008 7997 7996 7995 ] final -141.50 input   59.86 | X-H torsion
[ 10167 10162 10161 10158 ] final   23.50 input  -65.29 | X-H torsion
[ 10718 10713 10712 10709 ] final   83.46 input   66.30 | X-H torsion
[ 10763 10752 10751 10750 ] final  156.01 input  -60.55 | X-H torsion
[ 11005 11000 10999 10996 ] final   56.35 input  -57.11 | X-H torsion

> <Gold.Protein.ActiveResidues>
 VAL166  LYS551  ARG553  GLY616  TRP617  ASP618  TYR619  PRO620  LYS621  CYS622 
 ASP623  PHE694  ASN695  SER759  ASP760  ASP761  ALA762  ILE779  LEU786  VAL792 
 PHE793  MET794  SER795  GLU796  ALA797  LYS798  CYS799  TRP800  GLU811  SER814 

> <Gold.Protein.RotatedAtoms>
  150.7914  133.8778  159.3276 H   0  0  0  0  0  0  0  0  0  0  0  0  # atno 6907 bound_to 6896
  151.6615  135.0987  160.0190 H   0  0  0  0  0  0  0  0  0  0  0  0  # atno 6908 bound_to 6896
  152.3989  133.6749  159.6335 H   0  0  0  0  0  0  0  0  0  0  0  0  # atno 6909 bound_to 6896
  144.8903  139.5567  143.5801 H   0  0  0  0  0  0  0  0  0  0  0  0  # atno 7974 bound_to 7965
  155.4789  140.0559  157.2970 H   0  0  0  0  0  0  0  0  0  0  0  0  # atno 8008 bound_to 7997
  154.4668  140.2022  156.0050 H   0  0  0  0  0  0  0  0  0  0  0  0  # atno 8009 bound_to 7997
  156.0988  140.3222  155.7918 H   0  0  0  0  0  0  0  0  0  0  0  0  # atno 8010 bound_to 7997
  140.5264  143.9916  150.6442 H   0  0  0  0  0  0  0  0  0  0  0  0  # atno 10167 bound_to 10162
  157.6879  131.0092  150.2527 H   0  0  0  0  0  0  0  0  0  0  0  0  # atno 10718 bound_to 10713
  154.1775  135.2801  155.3062 H   0  0  0  0  0  0  0  0  0  0  0  0  # atno 10763 bound_to 10752
  154.6028  135.5524  153.7395 H   0  0  0  0  0  0  0  0  0  0  0  0  # atno 10764 bound_to 10752
  153.0147  135.6396  154.1914 H   0  0  0  0  0  0  0  0  0  0  0  0  # atno 10765 bound_to 10752
  140.0536  134.5702  155.9234 H   0  0  0  0  0  0  0  0  0  0  0  0  # atno 11005 bound_to 11000
  146.3050  139.7550  142.9063 LP  0  0  0  0  0  0  0  0  0  0  0  0  # atno 17320 bound_to 7965
  145.3794  141.0356  143.3186 LP  0  0  0  0  0  0  0  0  0  0  0  0  # atno 17321 bound_to 7965
  140.3279  143.3096  152.0717 LP  0  0  0  0  0  0  0  0  0  0  0  0  # atno 17342 bound_to 10162
  139.4939  144.6529  151.6636 LP  0  0  0  0  0  0  0  0  0  0  0  0  # atno 17343 bound_to 10162
  156.3121  130.3773  149.7652 LP  0  0  0  0  0  0  0  0  0  0  0  0  # atno 17370 bound_to 10713
  156.5249  130.8232  151.3217 LP  0  0  0  0  0  0  0  0  0  0  0  0  # atno 17371 bound_to 10713
  141.1942  133.6582  156.5582 LP  0  0  0  0  0  0  0  0  0  0  0  0  # atno 17394 bound_to 11000
  140.3879  134.7466  157.4703 LP  0  0  0  0  0  0  0  0  0  0  0  0  # atno 17395 bound_to 11000

$$$$
