AV-unprocessed.smi:3176|AV-procd|sdf|12124|dock6
  -GOLD-   2272017563D 1   1.00000     0.00000
 Structure written by MMmdl.
 32 33  0  0  0  0  0  0  0  0  1 V2000
  152.8378  138.8770  155.3341 O   0  0  0  0  0  0  0  0  0  0  0  0
  151.6220  138.6797  155.3357 C   0  0  0  0  0  0  0  0  0  0  0  0
  150.7295  139.5907  155.7531 N   0  0  0  0  0  0  0  0  0  0  0  0
  151.0632  140.9132  156.2696 C   0  0  0  0  0  0  0  0  0  0  0  0
  150.8601  140.9948  157.7921 C   0  0  0  0  0  0  0  0  0  0  0  0
  151.2824  142.3374  158.3574 C   0  0  0  0  0  0  0  0  0  0  0  0
  152.4251  142.4443  159.1786 C   0  0  0  0  0  0  0  0  0  0  0  0
  152.7795  143.7142  159.6735 C   0  0  0  0  0  0  0  0  0  0  0  0
  151.9824  144.8227  159.3287 C   0  0  0  0  0  0  0  0  0  0  0  0
  150.8620  144.6111  158.5005 C   0  0  0  0  0  0  0  0  0  0  0  0
  150.5137  143.3978  158.0201 N   0  0  0  0  0  0  0  0  0  0  0  0
  151.0543  137.3458  154.8385 C   0  0  2  0  0  0  0  0  0  0  0  0
  149.5155  137.3072  154.7911 C   0  0  0  0  0  0  0  0  0  0  0  0
  149.1440  136.3600  155.9150 C   0  0  0  0  0  0  0  0  0  0  0  0
  150.3532  135.4372  155.9556 C   0  0  0  0  0  0  0  0  0  0  0  0
  151.4412  136.3266  155.7589 O   0  0  0  0  0  0  0  0  0  0  0  0
  149.7499  139.3493  155.7118 H   0  0  0  0  0  0  0  0  0  0  0  0
  152.0918  141.1667  156.0074 H   0  0  0  0  0  0  0  0  0  0  0  0
  150.4262  141.6428  155.7684 H   0  0  0  0  0  0  0  0  0  0  0  0
  149.8119  140.8196  158.0391 H   0  0  0  0  0  0  0  0  0  0  0  0
  151.4264  140.2077  158.2920 H   0  0  0  0  0  0  0  0  0  0  0  0
  153.0183  141.5750  159.4229 H   0  0  0  0  0  0  0  0  0  0  0  0
  153.6472  143.8353  160.3051 H   0  0  0  0  0  0  0  0  0  0  0  0
  152.2242  145.8114  159.6898 H   0  0  0  0  0  0  0  0  0  0  0  0
  150.2289  145.4387  158.2159 H   0  0  0  0  0  0  0  0  0  0  0  0
  151.4581  137.1070  153.8531 H   0  0  0  0  0  0  0  0  0  0  0  0
  149.0408  138.2830  154.9051 H   0  0  0  0  0  0  0  0  0  0  0  0
  149.1885  136.8973  153.8348 H   0  0  0  0  0  0  0  0  0  0  0  0
  149.0600  136.9074  156.8548 H   0  0  0  0  0  0  0  0  0  0  0  0
  148.2067  135.8314  155.7387 H   0  0  0  0  0  0  0  0  0  0  0  0
  150.4406  134.8956  156.8976 H   0  0  0  0  0  0  0  0  0  0  0  0
  150.3195  134.7129  155.1401 H   0  0  0  0  0  0  0  0  0  0  0  0
  1  2  2  0  0  0  0
  2  3  1  0  0  0  0
  2 12  1  0  0  0  0
  3  4  1  0  0  0  0
  3 17  1  0  0  0  0
  4  5  1  0  0  0  0
  4 18  1  0  0  0  0
  4 19  1  0  0  0  0
  5  6  1  0  0  0  0
  5 20  1  0  0  0  0
  5 21  1  0  0  0  0
  6 11  1  0  0  0  0
  6  7  2  0  0  0  0
  7  8  1  0  0  0  0
  7 22  1  0  0  0  0
  8  9  2  0  0  0  0
  8 23  1  0  0  0  0
  9 10  1  0  0  0  0
  9 24  1  0  0  0  0
 10 11  2  0  0  0  0
 10 25  1  0  0  0  0
 12 16  1  0  0  0  0
 12 13  1  0  0  0  0
 12 26  1  0  0  0  0
 13 14  1  0  0  0  0
 13 27  1  0  0  0  0
 13 28  1  0  0  0  0
 14 15  1  0  0  0  0
 14 29  1  0  0  0  0
 14 30  1  0  0  0  0
 15 16  1  0  0  0  0
 15 31  1  0  0  0  0
 15 32  1  0  0  0  0
M  END
> <s_m_source_file>
AV-unprocessed.smi

> <i_m_source_file_index>
3176

> <i_lp_mmshare_version>
43012

> <i_f3d_flags>
0

> <s_epik_input>
TzFbQ0gyXVtDSDJdW0NIMl1bQ0BIXTFDKD1PKVtOSF1bQ0gyXVtDSDJdYzJbY0hdW2NIXVtjSF1bY0hdbjI=

> <s_epik_cmdline>
J2VwaWtfcHl0aG9uJywgJy1waCcsICc3LjAnLCAnLXRuJywgJzgnLCAnLW1hJywgJzIwMCcsICctbWV0YWxfYmluZGluZycsICctaW1hZScsICc8aW5maWxlLm1hZT4nLCAnLW9tYWUnLCAnPG91dGZpbGUubWFlPic=

> <r_epik_Ionization_Penalty>
0.0282744

> <r_epik_Ionization_Penalty_Charging>
0

> <r_epik_Ionization_Penalty_Neutral>
0.0282744

> <r_epik_State_Penalty>
0.0231919

> <r_epik_Charging_Adjusted_Penalty>
0.0231919

> <i_epik_Tot_Q>
0

> <i_epik_Tot_abs_Q>
0

> <r_epik_Metal_State_Penalty>
0.02213

> <b_epik_Metal_Only>
0

> <s_lp_Force_Field>
OPLS_2005

> <r_lp_Energy>
16.3652

> <b_lp_Chiralities_Consistent>
1

> <s_lp_Variant>
AV-unprocessed.smi:3176-1

> <Gold.Version>
5.8.1

> <Gold.Id.Protein>
6NUR|6NUR_protein|mol2

> <Gold.PLP.Fitness>
42.0312

> <Gold.PLP.PLP>
-33.4928

> <Gold.PLP.part.hbond>
-2.0000

> <Gold.PLP.part.metal>
0.0000

> <Gold.PLP.part.buried>
-5.6298

> <Gold.PLP.part.nonpolar>
-27.9160

> <Gold.PLP.part.repulsive>
0.3302

> <Gold.PLP.ligand.clash>
0.0000

> <Gold.PLP.ligand.torsion>
0.2363

> <Gold.PLP.Chemscore.Hbond>
2.0000

> <Gold.PLP.Chemscore.CHOScore>
0.9985

> <Gold.PLP.Chemscore.Metal>
0.0000

> <Gold.Chemscore.Hbonds>
donor molecule, donor type, donor heavy atom, donor atom, acceptor molecule, acceptor atom, score
      P1  H  7997  8008       L1     1  0.73
      P1  H 10752 10763       L1    16  0.98
      L1  C    10    25       P1  8029  0.97

> <Gold.PLP.Chemscore.Internal.Correction>
0.0156

> <Gold.Rescore>
     Score         DG    S(hbond)    S(metal)    S(lipo)     H(rot)  DE(clash)    DE(int)     intcor
     17.18     -17.49       1.59        0.00      90.53       1.52       0.07       0.24       ----

> <Gold.Chemscore.Fitness>
17.1757

> <Gold.Chemscore.DG>
-17.4864

> <Gold.Chemscore.ZeroCoef>
-5.4800

> <Gold.Chemscore.Hbond>
1.5855

> <Gold.Chemscore.Metal>
0.0000

> <Gold.Chemscore.Lipo>
90.5253

> <Gold.Chemscore.Internal_Hbond>
0.0000

> <Gold.Chemscore.DEClash>
0.0669

> <Gold.Chemscore.DEInternal>
0.2439

> <Gold.Chemscore.Rot>
1.5159

> <Gold.Chemscore.Internal.Correction>
   9.000000E+99

> <Gold.Chemscore.Hbonds>
donor molecule, donor type, donor heavy atom, donor atom, acceptor molecule, acceptor atom, score
      P1  H  7997  8008       L1     1  0.73
      P1  H 10752 10763       L1    16  0.53

> <Gold.Chemscore.Hbond.Weighted>
-5.2956

> <Gold.Chemscore.Metal.Weighted>
-0.0000

> <Gold.Chemscore.Lipo.Weighted>
-10.5915

> <Gold.Chemscore.Internal_Hbond.Weighted>
0.0000

> <Gold.Chemscore.DEClash.Weighted>
0.0669

> <Gold.Chemscore.DEInternal.Weighted>
0.2439

> <Gold.Chemscore.Rot.Weighted>
3.8807

> <Gold.Chemscore.Internal.Correction.Weighted>
   9.000000E+99

> <Gold.Protein.RotatedTorsions>
[ 6907 6896 6895 6894 ] final   74.11 input  -60.11 | X-H torsion
[ 7974 7965 7964 7962 ] final   81.15 input  175.53 | X-H torsion
[ 8008 7997 7996 7995 ] final  -20.34 input   59.86 | X-H torsion
[ 10167 10162 10161 10158 ] final  -94.26 input  -65.29 | X-H torsion
[ 10718 10713 10712 10709 ] final  -99.68 input   66.30 | X-H torsion
[ 10763 10752 10751 10750 ] final   92.11 input  -60.55 | X-H torsion
[ 11005 11000 10999 10996 ] final   43.37 input  -57.11 | X-H torsion

> <Gold.Protein.ActiveResidues>
 VAL166  LYS551  ARG553  GLY616  TRP617  ASP618  TYR619  PRO620  LYS621  CYS622 
 ASP623  PHE694  ASN695  SER759  ASP760  ASP761  ALA762  ILE779  LEU786  VAL792 
 PHE793  MET794  SER795  GLU796  ALA797  LYS798  CYS799  TRP800  GLU811  SER814 

> <Gold.Protein.RotatedAtoms>
  152.4959  134.4321  159.9515 H   0  0  0  0  0  0  0  0  0  0  0  0  # atno 6907 bound_to 6896
  151.4300  133.3667  159.2775 H   0  0  0  0  0  0  0  0  0  0  0  0  # atno 6908 bound_to 6896
  150.9162  134.8602  159.7518 H   0  0  0  0  0  0  0  0  0  0  0  0  # atno 6909 bound_to 6896
  145.6420  139.2427  143.2025 H   0  0  0  0  0  0  0  0  0  0  0  0  # atno 7974 bound_to 7965
  154.4776  140.2064  155.9840 H   0  0  0  0  0  0  0  0  0  0  0  0  # atno 8008 bound_to 7997
  156.1115  140.3228  155.8049 H   0  0  0  0  0  0  0  0  0  0  0  0  # atno 8009 bound_to 7997
  155.4627  140.0525  157.2980 H   0  0  0  0  0  0  0  0  0  0  0  0  # atno 8010 bound_to 7997
  140.3162  143.3076  152.0095 H   0  0  0  0  0  0  0  0  0  0  0  0  # atno 10167 bound_to 10162
  156.0141  130.5293  150.6705 H   0  0  0  0  0  0  0  0  0  0  0  0  # atno 10718 bound_to 10713
  153.2155  135.4373  155.0430 H   0  0  0  0  0  0  0  0  0  0  0  0  # atno 10763 bound_to 10752
  154.8223  135.3343  154.7004 H   0  0  0  0  0  0  0  0  0  0  0  0  # atno 10764 bound_to 10752
  153.7439  135.7003  153.5016 H   0  0  0  0  0  0  0  0  0  0  0  0  # atno 10765 bound_to 10752
  140.1651  134.4292  155.8292 H   0  0  0  0  0  0  0  0  0  0  0  0  # atno 11005 bound_to 11000
  146.1273  140.7231  142.9429 LP  0  0  0  0  0  0  0  0  0  0  0  0  # atno 17320 bound_to 7965
  144.7154  140.4190  143.7048 LP  0  0  0  0  0  0  0  0  0  0  0  0  # atno 17321 bound_to 7965
  139.4883  144.6346  151.7001 LP  0  0  0  0  0  0  0  0  0  0  0  0  # atno 17342 bound_to 10162
  140.5524  144.0403  150.6133 LP  0  0  0  0  0  0  0  0  0  0  0  0  # atno 17343 bound_to 10162
  157.4429  131.0863  151.0925 LP  0  0  0  0  0  0  0  0  0  0  0  0  # atno 17370 bound_to 10713
  157.1464  130.6165  149.5569 LP  0  0  0  0  0  0  0  0  0  0  0  0  # atno 17371 bound_to 10713
  141.2213  133.6931  156.7664 LP  0  0  0  0  0  0  0  0  0  0  0  0  # atno 17394 bound_to 11000
  140.2443  134.8589  157.3605 LP  0  0  0  0  0  0  0  0  0  0  0  0  # atno 17395 bound_to 11000

$$$$
