AV-unprocessed.smi:1973|AV-procd|sdf|7978|dock4
  -GOLD-   2272010153D 1   1.00000     0.00000
 Structure written by MMmdl.
 48 50  0  0  0  0  0  0  0  0  2 V2000
  152.6977  142.6761  159.1411 C   0  0  0  0  0  0  0  0  0  0  0  0
  152.5282  141.2968  158.8675 O   0  0  0  0  0  0  0  0  0  0  0  0
  151.2654  141.0067  158.2916 C   0  0  0  0  0  0  0  0  0  0  0  0
  151.2275  141.5043  156.8374 C   0  0  0  0  0  0  0  0  0  0  0  0
  150.9191  140.4195  155.8985 N   0  0  0  0  0  0  0  0  0  0  0  0
  149.6951  140.5575  155.2645 N   0  0  0  0  0  0  0  0  0  0  0  0
  149.2944  139.6616  154.4211 C   0  0  0  0  0  0  0  0  0  0  0  0
  147.9842  139.7729  153.7215 C   0  0  0  0  0  0  0  0  0  0  0  0
  147.2208  140.7206  153.9128 O   0  0  0  0  0  0  0  0  0  0  0  0
  147.6978  138.7702  152.8734 N   0  0  0  0  0  0  0  0  0  0  0  0
  146.4736  138.6721  152.0897 C   0  0  0  0  0  0  0  0  0  0  0  0
  145.7906  137.3119  152.3058 C   0  0  2  0  0  0  0  0  0  0  0  0
  146.1169  136.6578  153.6468 C   0  0  0  0  0  0  0  0  0  0  0  0
  145.8280  135.1687  153.4202 C   0  0  0  0  0  0  0  0  0  0  0  0
  145.8372  134.9483  151.9550 N   0  3  2  0  0  0  0  0  0  0  0  0
  146.6565  133.7976  151.5189 C   0  0  0  0  0  0  0  0  0  0  0  0
  145.9966  132.9556  150.4533 C   0  0  0  0  0  0  0  0  0  0  0  0
  146.0588  132.4592  151.8816 C   0  0  0  0  0  0  0  0  0  0  0  0
  146.2076  136.2258  151.3121 C   0  0  0  0  0  0  0  0  0  0  0  0
  150.1163  138.5021  154.1205 C   0  0  0  0  0  0  0  0  0  0  0  0
  151.3064  138.3797  154.7484 C   0  0  0  0  0  0  0  0  0  0  0  0
  151.7814  139.3748  155.7106 C   0  0  0  0  0  0  0  0  0  0  0  0
  152.8584  139.2791  156.2980 O   0  0  0  0  0  0  0  0  0  0  0  0
  153.6797  142.8427  159.5838 H   0  0  0  0  0  0  0  0  0  0  0  0
  151.9459  143.0336  159.8459 H   0  0  0  0  0  0  0  0  0  0  0  0
  152.6336  143.2703  158.2287 H   0  0  0  0  0  0  0  0  0  0  0  0
  151.0635  139.9350  158.3327 H   0  0  0  0  0  0  0  0  0  0  0  0
  150.4838  141.5053  158.8663 H   0  0  0  0  0  0  0  0  0  0  0  0
  150.4616  142.2766  156.7475 H   0  0  0  0  0  0  0  0  0  0  0  0
  152.1650  142.0024  156.5851 H   0  0  0  0  0  0  0  0  0  0  0  0
  148.3793  138.0329  152.7644 H   0  0  0  0  0  0  0  0  0  0  0  0
  145.7941  139.4810  152.3640 H   0  0  0  0  0  0  0  0  0  0  0  0
  146.7174  138.8039  151.0346 H   0  0  0  0  0  0  0  0  0  0  0  0
  144.7084  137.4412  152.2442 H   0  0  0  0  0  0  0  0  0  0  0  0
  147.1745  136.7905  153.8798 H   0  0  0  0  0  0  0  0  0  0  0  0
  145.5410  137.0772  154.4723 H   0  0  0  0  0  0  0  0  0  0  0  0
  146.5579  134.5456  153.9394 H   0  0  0  0  0  0  0  0  0  0  0  0
  144.8406  134.9045  153.7996 H   0  0  0  0  0  0  0  0  0  0  0  0
  147.7357  133.9407  151.5211 H   0  0  0  0  0  0  0  0  0  0  0  0
  145.0273  133.2723  150.0726 H   0  0  0  0  0  0  0  0  0  0  0  0
  146.6432  132.4658  149.7280 H   0  0  0  0  0  0  0  0  0  0  0  0
  146.7465  131.6436  152.0952 H   0  0  0  0  0  0  0  0  0  0  0  0
  145.1307  132.4457  152.4505 H   0  0  0  0  0  0  0  0  0  0  0  0
  145.7248  136.3358  150.3404 H   0  0  0  0  0  0  0  0  0  0  0  0
  147.2876  136.2591  151.1565 H   0  0  0  0  0  0  0  0  0  0  0  0
  149.7912  137.7515  153.4146 H   0  0  0  0  0  0  0  0  0  0  0  0
  151.9275  137.5220  154.5350 H   0  0  0  0  0  0  0  0  0  0  0  0
  144.8809  134.7583  151.6918 H   0  0  0  0  0  0  0  0  0  0  0  0
  1  2  1  0  0  0  0
  1 24  1  0  0  0  0
  1 25  1  0  0  0  0
  1 26  1  0  0  0  0
  2  3  1  0  0  0  0
  3  4  1  0  0  0  0
  3 27  1  0  0  0  0
  3 28  1  0  0  0  0
  4  5  1  0  0  0  0
  4 29  1  0  0  0  0
  4 30  1  0  0  0  0
  5 22  1  0  0  0  0
  5  6  1  0  0  0  0
  6  7  2  0  0  0  0
  7  8  1  0  0  0  0
  7 20  1  0  0  0  0
  8  9  2  0  0  0  0
  8 10  1  0  0  0  0
 10 11  1  0  0  0  0
 10 31  1  0  0  0  0
 11 12  1  0  0  0  0
 11 32  1  0  0  0  0
 11 33  1  0  0  0  0
 12 19  1  0  0  0  0
 12 13  1  0  0  0  0
 12 34  1  0  0  0  0
 13 14  1  0  0  0  0
 13 35  1  0  0  0  0
 13 36  1  0  0  0  0
 14 15  1  0  0  0  0
 14 37  1  0  0  0  0
 14 38  1  0  0  0  0
 15 16  1  0  0  0  0
 15 19  1  0  0  0  0
 15 48  1  0  0  0  0
 16 18  1  0  0  0  0
 16 17  1  0  0  0  0
 16 39  1  0  0  0  0
 17 18  1  0  0  0  0
 17 40  1  0  0  0  0
 17 41  1  0  0  0  0
 18 42  1  0  0  0  0
 18 43  1  0  0  0  0
 19 44  1  0  0  0  0
 19 45  1  0  0  0  0
 20 21  2  0  0  0  0
 20 46  1  0  0  0  0
 21 22  1  0  0  0  0
 21 47  1  0  0  0  0
 22 23  2  0  0  0  0
M  CHG  1  15   1
M  END
> <s_m_source_file>
AV-unprocessed.smi

> <i_m_source_file_index>
1973

> <i_lp_mmshare_version>
43012

> <i_f3d_flags>
0

> <s_epik_input>
W0NIM11PW0NIMl1bQ0gyXW4xbmMoW2NIXVtjSF1jMT1PKUMoPU8pW05IXVtDSDJdW0NAQEhdMltDSDJdW0NIMl1OKFtDSDJdMilbQ0hdM1tDSDJdW0NIMl0z

> <s_epik_cmdline>
J2VwaWtfcHl0aG9uJywgJy1waCcsICc3LjAnLCAnLXRuJywgJzgnLCAnLW1hJywgJzIwMCcsICctbWV0YWxfYmluZGluZycsICctaW1hZScsICc8aW5maWxlLm1hZT4nLCAnLW9tYWUnLCAnPG91dGZpbGUubWFlPic=

> <r_lp_tautomer_probability>
1

> <r_epik_Ionization_Penalty>
0.000225706

> <r_epik_Ionization_Penalty_Charging>
0.000223776

> <r_epik_Ionization_Penalty_Neutral>
1.93004e-06

> <r_epik_State_Penalty>
-0

> <r_epik_Charging_Adjusted_Penalty>
0.000223776

> <i_epik_Tot_Q>
1

> <i_epik_Tot_abs_Q>
1

> <r_epik_Metal_State_Penalty>
-0

> <b_epik_Metal_Only>
0

> <s_lp_Force_Field>
OPLS_2005

> <r_lp_Energy>
60.0274

> <b_lp_Chiralities_Consistent>
1

> <s_lp_Variant>
AV-unprocessed.smi:1973-3

> <Gold.Version>
5.8.1

> <Gold.Id.Protein>
6NUR|6NUR_protein|mol2

> <Gold.PLP.Fitness>
44.6613

> <Gold.PLP.PLP>
-41.0476

> <Gold.PLP.part.hbond>
-3.0994

> <Gold.PLP.part.metal>
0.0000

> <Gold.PLP.part.buried>
-1.9195

> <Gold.PLP.part.nonpolar>
-37.3674

> <Gold.PLP.part.repulsive>
0.2965

> <Gold.PLP.ligand.clash>
0.5853

> <Gold.PLP.ligand.torsion>
1.5627

> <Gold.PLP.Chemscore.Hbond>
1.9913

> <Gold.PLP.Chemscore.CHOScore>
0.0000

> <Gold.PLP.Chemscore.Metal>
0.0000

> <Gold.Chemscore.Hbonds>
donor molecule, donor type, donor heavy atom, donor atom, acceptor molecule, acceptor atom, score
      L1  H    10    31       P1  7948  0.89
      P1  H  7997  8008       L1    23  1.00

> <Gold.PLP.Chemscore.Internal.Correction>
1.3507

> <Gold.Rescore>
     Score         DG    S(hbond)    S(metal)    S(lipo)     H(rot)  DE(clash)    DE(int)     intcor
     15.26     -18.26       1.94        0.00      97.07       1.97       1.41       1.59       ----

> <Gold.Chemscore.Fitness>
15.2624

> <Gold.Chemscore.DG>
-18.2610

> <Gold.Chemscore.ZeroCoef>
-5.4800

> <Gold.Chemscore.Hbond>
1.9369

> <Gold.Chemscore.Metal>
0.0000

> <Gold.Chemscore.Lipo>
97.0732

> <Gold.Chemscore.Internal_Hbond>
0.0000

> <Gold.Chemscore.DEClash>
1.4074

> <Gold.Chemscore.DEInternal>
1.5911

> <Gold.Chemscore.Rot>
1.9711

> <Gold.Chemscore.Internal.Correction>
   9.000000E+99

> <Gold.Chemscore.Hbonds>
donor molecule, donor type, donor heavy atom, donor atom, acceptor molecule, acceptor atom, score
      L1  H    10    31       P1  7948  0.80
      P1  H  7997  8008       L1    23  1.00

> <Gold.Chemscore.Hbond.Weighted>
-6.4694

> <Gold.Chemscore.Metal.Weighted>
-0.0000

> <Gold.Chemscore.Lipo.Weighted>
-11.3576

> <Gold.Chemscore.Internal_Hbond.Weighted>
0.0000

> <Gold.Chemscore.DEClash.Weighted>
1.4074

> <Gold.Chemscore.DEInternal.Weighted>
1.5911

> <Gold.Chemscore.Rot.Weighted>
5.0460

> <Gold.Chemscore.Internal.Correction.Weighted>
   9.000000E+99

> <Gold.Protein.RotatedTorsions>
[ 6907 6896 6895 6894 ] final   33.48 input  -60.11 | X-H torsion
[ 7974 7965 7964 7962 ] final -123.11 input  175.53 | X-H torsion
[ 8008 7997 7996 7995 ] final  -32.30 input   59.86 | X-H torsion
[ 10167 10162 10161 10158 ] final  -62.88 input  -65.29 | X-H torsion
[ 10718 10713 10712 10709 ] final  132.89 input   66.30 | X-H torsion
[ 10763 10752 10751 10750 ] final -147.28 input  -60.55 | X-H torsion
[ 11005 11000 10999 10996 ] final -110.82 input  -57.11 | X-H torsion

> <Gold.Protein.ActiveResidues>
 VAL166  LYS551  ARG553  GLY616  TRP617  ASP618  TYR619  PRO620  LYS621  CYS622 
 ASP623  PHE694  ASN695  SER759  ASP760  ASP761  ALA762  ILE779  LEU786  VAL792 
 PHE793  MET794  SER795  GLU796  ALA797  LYS798  CYS799  TRP800  GLU811  SER814 

> <Gold.Protein.RotatedAtoms>
  152.0891  134.9419  160.0571 H   0  0  0  0  0  0  0  0  0  0  0  0  # atno 6907 bound_to 6896
  152.0677  133.4087  159.4454 H   0  0  0  0  0  0  0  0  0  0  0  0  # atno 6908 bound_to 6896
  150.6836  134.3047  159.4764 H   0  0  0  0  0  0  0  0  0  0  0  0  # atno 6909 bound_to 6896
  145.0222  140.7998  143.4374 H   0  0  0  0  0  0  0  0  0  0  0  0  # atno 7974 bound_to 7965
  154.4184  140.1741  156.1705 H   0  0  0  0  0  0  0  0  0  0  0  0  # atno 8008 bound_to 7997
  155.9764  140.3381  155.6599 H   0  0  0  0  0  0  0  0  0  0  0  0  # atno 8009 bound_to 7997
  155.6557  140.0695  157.2562 H   0  0  0  0  0  0  0  0  0  0  0  0  # atno 8010 bound_to 7997
  140.5909  143.2341  151.6142 H   0  0  0  0  0  0  0  0  0  0  0  0  # atno 10167 bound_to 10162
  157.4826  131.1086  150.9661 H   0  0  0  0  0  0  0  0  0  0  0  0  # atno 10718 bound_to 10713
  154.8294  135.3364  154.6793 H   0  0  0  0  0  0  0  0  0  0  0  0  # atno 10763 bound_to 10752
  153.7415  135.6945  153.4970 H   0  0  0  0  0  0  0  0  0  0  0  0  # atno 10764 bound_to 10752
  153.2240  135.4439  155.0473 H   0  0  0  0  0  0  0  0  0  0  0  0  # atno 10765 bound_to 10752
  141.0770  133.9285  157.2370 H   0  0  0  0  0  0  0  0  0  0  0  0  # atno 11005 bound_to 11000
  145.1880  139.2316  143.5257 LP  0  0  0  0  0  0  0  0  0  0  0  0  # atno 17320 bound_to 7965
  146.3487  140.1670  142.8590 LP  0  0  0  0  0  0  0  0  0  0  0  0  # atno 17321 bound_to 7965
  139.5227  144.3156  152.0955 LP  0  0  0  0  0  0  0  0  0  0  0  0  # atno 17342 bound_to 10162
  140.2320  144.4358  150.6296 LP  0  0  0  0  0  0  0  0  0  0  0  0  # atno 17343 bound_to 10162
  157.0389  130.5741  149.5353 LP  0  0  0  0  0  0  0  0  0  0  0  0  # atno 17370 bound_to 10713
  156.0130  130.5222  150.8047 LP  0  0  0  0  0  0  0  0  0  0  0  0  # atno 17371 bound_to 10713
  139.9582  135.0160  156.9187 LP  0  0  0  0  0  0  0  0  0  0  0  0  # atno 17394 bound_to 11000
  140.5552  134.0588  155.7381 LP  0  0  0  0  0  0  0  0  0  0  0  0  # atno 17395 bound_to 11000

$$$$
