AV-unprocessed.smi:1627|AV-procd|sdf|6516|dock1
  -GOLD-   22720 7183D 1   1.00000     0.00000
 Structure written by MMmdl.
 43 44  0  0  0  0  0  0  0  0  1 V2000
  156.1445  134.3026  161.3462 C   0  0  0  0  0  0  0  0  0  0  0  0
  155.3153  135.2266  162.2502 C   0  0  2  0  0  0  0  0  0  0  0  0
  154.4184  134.4046  162.9930 O   0  0  0  0  0  0  0  0  0  0  0  0
  155.0299  133.4201  163.8206 C   0  0  0  0  0  0  0  0  0  0  0  0
  153.9784  132.8321  164.7693 C   0  0  0  0  0  0  0  0  0  0  0  0
  153.3908  133.8211  165.4420 F   0  0  0  0  0  0  0  0  0  0  0  0
  153.0491  132.1752  164.0757 F   0  0  0  0  0  0  0  0  0  0  0  0
  154.5547  132.0054  165.6414 F   0  0  0  0  0  0  0  0  0  0  0  0
  154.5329  136.2599  161.4233 C   0  0  0  0  0  0  0  0  0  0  0  0
  153.7310  135.8767  160.5719 O   0  0  0  0  0  0  0  0  0  0  0  0
  154.7962  137.5508  161.6985 N   0  0  0  0  0  0  0  0  0  0  0  0
  154.2043  138.7127  161.1345 C   0  0  0  0  0  0  0  0  0  0  0  0
  154.4847  139.9579  161.7322 C   0  0  0  0  0  0  0  0  0  0  0  0
  153.8879  141.1208  161.2098 C   0  0  0  0  0  0  0  0  0  0  0  0
  153.0187  140.9991  160.1064 C   0  0  0  0  0  0  0  0  0  0  0  0
  152.4173  142.1516  159.5814 N   0  0  0  0  0  0  0  0  0  0  0  0
  151.5488  141.8762  158.4393 C   0  0  0  0  0  0  0  0  0  0  0  0
  150.7575  143.1335  158.0387 C   0  0  0  0  0  0  0  0  0  0  0  0
  151.7027  144.3186  157.7830 C   0  0  0  0  0  0  0  0  0  0  0  0
  152.6143  144.5439  159.0001 C   0  0  0  0  0  0  0  0  0  0  0  0
  153.3580  143.2504  159.3761 C   0  0  0  0  0  0  0  0  0  0  0  0
  152.7315  139.8066  159.5334 N   0  0  0  0  0  0  0  0  0  0  0  0
  153.3075  138.6950  160.0387 C   0  0  0  0  0  0  0  0  0  0  0  0
  156.8435  134.8717  160.7322 H   0  0  0  0  0  0  0  0  0  0  0  0
  155.5103  133.7177  160.6788 H   0  0  0  0  0  0  0  0  0  0  0  0
  156.7271  133.6007  161.9431 H   0  0  0  0  0  0  0  0  0  0  0  0
  155.9945  135.7343  162.9378 H   0  0  0  0  0  0  0  0  0  0  0  0
  155.4538  132.6276  163.2022 H   0  0  0  0  0  0  0  0  0  0  0  0
  155.8456  133.8487  164.4042 H   0  0  0  0  0  0  0  0  0  0  0  0
  155.5469  137.7197  162.3524 H   0  0  0  0  0  0  0  0  0  0  0  0
  155.1508  140.0254  162.5801 H   0  0  0  0  0  0  0  0  0  0  0  0
  154.0920  142.0859  161.6503 H   0  0  0  0  0  0  0  0  0  0  0  0
  152.1521  141.5353  157.5965 H   0  0  0  0  0  0  0  0  0  0  0  0
  150.8600  141.0676  158.6872 H   0  0  0  0  0  0  0  0  0  0  0  0
  150.1598  142.9310  157.1497 H   0  0  0  0  0  0  0  0  0  0  0  0
  150.0559  143.3911  158.8331 H   0  0  0  0  0  0  0  0  0  0  0  0
  152.3121  144.1177  156.9010 H   0  0  0  0  0  0  0  0  0  0  0  0
  151.1286  145.2203  157.5687 H   0  0  0  0  0  0  0  0  0  0  0  0
  153.3304  145.3392  158.7911 H   0  0  0  0  0  0  0  0  0  0  0  0
  152.0152  144.8795  159.8475 H   0  0  0  0  0  0  0  0  0  0  0  0
  153.9431  143.4090  160.2829 H   0  0  0  0  0  0  0  0  0  0  0  0
  154.0608  142.9855  158.5847 H   0  0  0  0  0  0  0  0  0  0  0  0
  153.0129  137.7758  159.5570 H   0  0  0  0  0  0  0  0  0  0  0  0
  1  2  1  0  0  0  0
  1 24  1  0  0  0  0
  1 25  1  0  0  0  0
  1 26  1  0  0  0  0
  2  3  1  0  0  0  0
  2  9  1  0  0  0  0
  2 27  1  0  0  0  0
  3  4  1  0  0  0  0
  4  5  1  0  0  0  0
  4 28  1  0  0  0  0
  4 29  1  0  0  0  0
  5  6  1  0  0  0  0
  5  7  1  0  0  0  0
  5  8  1  0  0  0  0
  9 10  2  0  0  0  0
  9 11  1  0  0  0  0
 11 12  1  0  0  0  0
 11 30  1  0  0  0  0
 12 23  1  0  0  0  0
 12 13  2  0  0  0  0
 13 14  1  0  0  0  0
 13 31  1  0  0  0  0
 14 15  2  0  0  0  0
 14 32  1  0  0  0  0
 15 16  1  0  0  0  0
 15 22  1  0  0  0  0
 16 21  1  0  0  0  0
 16 17  1  0  0  0  0
 17 18  1  0  0  0  0
 17 33  1  0  0  0  0
 17 34  1  0  0  0  0
 18 19  1  0  0  0  0
 18 35  1  0  0  0  0
 18 36  1  0  0  0  0
 19 20  1  0  0  0  0
 19 37  1  0  0  0  0
 19 38  1  0  0  0  0
 20 21  1  0  0  0  0
 20 39  1  0  0  0  0
 20 40  1  0  0  0  0
 21 41  1  0  0  0  0
 21 42  1  0  0  0  0
 22 23  2  0  0  0  0
 23 43  1  0  0  0  0
M  END
> <s_m_source_file>
AV-unprocessed.smi

> <i_m_source_file_index>
1627

> <i_lp_mmshare_version>
43012

> <i_f3d_flags>
0

> <s_epik_input>
RkMoRikoRilbQ0gyXU9bQ0BASF0oW0NIM10pQyg9TylbTkhdYzFbY0hdW2NIXWMobltjSF0xKU4yW0NIMl1bQ0gyXVtDSDJdW0NIMl1bQ0gyXTI=

> <s_epik_cmdline>
J2VwaWtfcHl0aG9uJywgJy1waCcsICc3LjAnLCAnLXRuJywgJzgnLCAnLW1hJywgJzIwMCcsICctbWV0YWxfYmluZGluZycsICctaW1hZScsICc8aW5maWxlLm1hZT4nLCAnLW9tYWUnLCAnPG91dGZpbGUubWFlPic=

> <r_lp_tautomer_probability>
1

> <r_epik_Ionization_Penalty>
0.0254771

> <r_epik_Ionization_Penalty_Charging>
0

> <r_epik_Ionization_Penalty_Neutral>
0.0254771

> <r_epik_State_Penalty>
0.0187406

> <r_epik_Charging_Adjusted_Penalty>
0.0187406

> <i_epik_Tot_Q>
0

> <i_epik_Tot_abs_Q>
0

> <r_epik_Metal_State_Penalty>
0.017939

> <b_epik_Metal_Only>
0

> <s_lp_Force_Field>
OPLS_2005

> <r_lp_Energy>
26.2479

> <b_lp_Chiralities_Consistent>
1

> <s_lp_Variant>
AV-unprocessed.smi:1627-1

> <Gold.Version>
5.8.1

> <Gold.Id.Protein>
6NUR|6NUR_protein|mol2

> <Gold.PLP.Fitness>
46.2614

> <Gold.PLP.PLP>
-43.4043

> <Gold.PLP.part.hbond>
-1.0000

> <Gold.PLP.part.metal>
0.0000

> <Gold.PLP.part.buried>
-5.3775

> <Gold.PLP.part.nonpolar>
-37.0158

> <Gold.PLP.part.repulsive>
0.0000

> <Gold.PLP.ligand.clash>
0.0000

> <Gold.PLP.ligand.torsion>
0.2270

> <Gold.PLP.Chemscore.Hbond>
1.0000

> <Gold.PLP.Chemscore.CHOScore>
0.0000

> <Gold.PLP.Chemscore.Metal>
0.0000

> <Gold.Chemscore.Hbonds>
donor molecule, donor type, donor heavy atom, donor atom, acceptor molecule, acceptor atom, score
      P1  H  6896  6909       L1    10  1.00

> <Gold.PLP.Chemscore.Internal.Correction>
0.3111

> <Gold.Rescore>
     Score         DG    S(hbond)    S(metal)    S(lipo)     H(rot)  DE(clash)    DE(int)     intcor
     14.44     -15.95       1.00        0.00     101.77       1.87       0.01       1.50       ----

> <Gold.Chemscore.Fitness>
14.4402

> <Gold.Chemscore.DG>
-15.9482

> <Gold.Chemscore.ZeroCoef>
-5.4800

> <Gold.Chemscore.Hbond>
0.9999

> <Gold.Chemscore.Metal>
0.0000

> <Gold.Chemscore.Lipo>
101.7693

> <Gold.Chemscore.Internal_Hbond>
0.0000

> <Gold.Chemscore.DEClash>
0.0126

> <Gold.Chemscore.DEInternal>
1.4954

> <Gold.Chemscore.Rot>
1.8665

> <Gold.Chemscore.Internal.Correction>
   9.000000E+99

> <Gold.Chemscore.Hbonds>
donor molecule, donor type, donor heavy atom, donor atom, acceptor molecule, acceptor atom, score
      P1  H  6896  6909       L1    10  1.00

> <Gold.Chemscore.Hbond.Weighted>
-3.3395

> <Gold.Chemscore.Metal.Weighted>
-0.0000

> <Gold.Chemscore.Lipo.Weighted>
-11.9070

> <Gold.Chemscore.Internal_Hbond.Weighted>
0.0000

> <Gold.Chemscore.DEClash.Weighted>
0.0126

> <Gold.Chemscore.DEInternal.Weighted>
1.4954

> <Gold.Chemscore.Rot.Weighted>
4.7783

> <Gold.Chemscore.Internal.Correction.Weighted>
   9.000000E+99

> <Gold.Protein.RotatedTorsions>
[ 6907 6896 6895 6894 ] final  161.67 input  -60.11 | X-H torsion
[ 7974 7965 7964 7962 ] final   32.20 input  175.53 | X-H torsion
[ 8008 7997 7996 7995 ] final -169.81 input   59.86 | X-H torsion
[ 10167 10162 10161 10158 ] final -120.33 input  -65.29 | X-H torsion
[ 10718 10713 10712 10709 ] final  160.25 input   66.30 | X-H torsion
[ 10763 10752 10751 10750 ] final   24.99 input  -60.55 | X-H torsion
[ 11005 11000 10999 10996 ] final    0.07 input  -57.11 | X-H torsion

> <Gold.Protein.ActiveResidues>
 VAL166  LYS551  ARG553  GLY616  TRP617  ASP618  TYR619  PRO620  LYS621  CYS622 
 ASP623  PHE694  ASN695  SER759  ASP760  ASP761  ALA762  ILE779  LEU786  VAL792 
 PHE793  MET794  SER795  GLU796  ALA797  LYS798  CYS799  TRP800  GLU811  SER814 

> <Gold.Protein.RotatedAtoms>
  151.9521  133.3669  159.4003 H   0  0  0  0  0  0  0  0  0  0  0  0  # atno 6907 bound_to 6896
  150.6979  134.4329  159.5266 H   0  0  0  0  0  0  0  0  0  0  0  0  # atno 6908 bound_to 6896
  152.2004  134.8593  160.0559 H   0  0  0  0  0  0  0  0  0  0  0  0  # atno 6909 bound_to 6896
  146.1501  139.6557  142.9104 H   0  0  0  0  0  0  0  0  0  0  0  0  # atno 7974 bound_to 7965
  155.9100  140.1056  157.1286 H   0  0  0  0  0  0  0  0  0  0  0  0  # atno 8008 bound_to 7997
  154.4038  140.1276  156.4610 H   0  0  0  0  0  0  0  0  0  0  0  0  # atno 8009 bound_to 7997
  155.7321  140.3468  155.5066 H   0  0  0  0  0  0  0  0  0  0  0  0  # atno 8010 bound_to 7997
  140.0370  143.5191  152.2149 H   0  0  0  0  0  0  0  0  0  0  0  0  # atno 10167 bound_to 10162
  157.1530  131.0568  151.2270 H   0  0  0  0  0  0  0  0  0  0  0  0  # atno 10718 bound_to 10713
  153.0724  135.6593  154.0219 H   0  0  0  0  0  0  0  0  0  0  0  0  # atno 10763 bound_to 10752
  153.9862  135.2950  155.3417 H   0  0  0  0  0  0  0  0  0  0  0  0  # atno 10764 bound_to 10752
  154.7102  135.5208  153.8725 H   0  0  0  0  0  0  0  0  0  0  0  0  # atno 10765 bound_to 10752
  140.6307  133.9578  155.8272 H   0  0  0  0  0  0  0  0  0  0  0  0  # atno 11005 bound_to 11000
  145.4842  141.0438  143.2629 LP  0  0  0  0  0  0  0  0  0  0  0  0  # atno 17320 bound_to 7965
  144.7894  139.6359  143.7120 LP  0  0  0  0  0  0  0  0  0  0  0  0  # atno 17321 bound_to 7965
  139.6038  144.7590  151.3108 LP  0  0  0  0  0  0  0  0  0  0  0  0  # atno 17342 bound_to 10162
  140.7277  143.6956  150.7886 LP  0  0  0  0  0  0  0  0  0  0  0  0  # atno 17343 bound_to 10162
  157.4203  130.7434  149.6908 LP  0  0  0  0  0  0  0  0  0  0  0  0  # atno 17370 bound_to 10713
  155.9767  130.4072  150.3761 LP  0  0  0  0  0  0  0  0  0  0  0  0  # atno 17371 bound_to 10713
  141.0678  134.0251  157.3570 LP  0  0  0  0  0  0  0  0  0  0  0  0  # atno 17394 bound_to 11000
  139.9117  135.0191  156.7719 LP  0  0  0  0  0  0  0  0  0  0  0  0  # atno 17395 bound_to 11000

$$$$
