AV-unprocessed.smi:2290|AV-procd|sdf|9210|dock7
  -GOLD-   2272012433D 1   1.00000     0.00000
 Structure written by MMmdl.
 38 39  0  0  0  0  0  0  0  0  1 V2000
  147.2040  132.4325  161.4663 C   0  0  0  0  0  0  0  0  0  0  0  0
  147.6439  133.7804  160.9228 C   0  0  0  0  0  0  0  0  0  0  0  0
  148.2622  133.7534  159.6693 N   0  0  0  0  0  0  0  0  0  0  0  0
  148.6693  134.8544  159.1273 C   0  0  0  0  0  0  0  0  0  0  0  0
  148.5077  136.0947  159.7659 N   0  0  0  0  0  0  0  0  0  0  0  0
  149.0069  137.2725  159.0376 C   0  0  0  0  0  0  0  0  0  0  0  0
  150.5350  137.2171  158.8142 C   0  0  2  0  0  0  0  0  0  0  0  0
  151.2183  137.2075  160.0516 O   0  0  0  0  0  0  0  0  0  0  0  0
  151.0639  138.4051  157.9937 C   0  0  0  0  0  0  0  0  0  0  0  0
  151.3251  139.5121  158.8485 O   0  0  0  0  0  0  0  0  0  0  0  0
  151.9052  140.6292  158.1886 C   0  0  0  0  0  0  0  0  0  0  0  0
  152.2340  141.6772  159.2073 C   0  0  0  0  0  0  0  0  0  0  0  0
  151.8366  142.9901  159.2041 C   0  0  0  0  0  0  0  0  0  0  0  0
  152.3348  143.7316  160.3156 C   0  0  0  0  0  0  0  0  0  0  0  0
  153.1148  142.9772  161.1507 C   0  0  0  0  0  0  0  0  0  0  0  0
  153.2569  141.3361  160.5838 S   0  0  0  0  0  0  0  0  0  0  0  0
  147.9107  136.2114  160.9873 C   0  0  0  0  0  0  0  0  0  0  0  0
  147.7634  137.3069  161.5329 O   0  0  0  0  0  0  0  0  0  0  0  0
  147.4562  134.9497  161.5938 C   0  0  0  0  0  0  0  0  0  0  0  0
  146.7891  135.0404  162.9607 C   0  0  0  0  0  0  0  0  0  0  0  0
  147.6989  132.2219  162.4148 H   0  0  0  0  0  0  0  0  0  0  0  0
  147.4507  131.6258  160.7746 H   0  0  0  0  0  0  0  0  0  0  0  0
  146.1253  132.4183  161.6241 H   0  0  0  0  0  0  0  0  0  0  0  0
  149.1539  134.8885  158.1500 H   0  0  0  0  0  0  0  0  0  0  0  0
  148.5037  137.3144  158.0699 H   0  0  0  0  0  0  0  0  0  0  0  0
  148.7253  138.2083  159.5250 H   0  0  0  0  0  0  0  0  0  0  0  0
  150.8086  136.3029  158.2861 H   0  0  0  0  0  0  0  0  0  0  0  0
  151.1836  138.0763  160.4216 H   0  0  0  0  0  0  0  0  0  0  0  0
  151.9606  138.1264  157.4376 H   0  0  0  0  0  0  0  0  0  0  0  0
  150.3083  138.6829  157.2577 H   0  0  0  0  0  0  0  0  0  0  0  0
  152.8222  140.3020  157.6987 H   0  0  0  0  0  0  0  0  0  0  0  0
  151.2470  141.0178  157.4099 H   0  0  0  0  0  0  0  0  0  0  0  0
  151.2082  143.4400  158.4499 H   0  0  0  0  0  0  0  0  0  0  0  0
  152.1085  144.7777  160.4603 H   0  0  0  0  0  0  0  0  0  0  0  0
  153.6154  143.2842  162.0572 H   0  0  0  0  0  0  0  0  0  0  0  0
  145.8996  135.6688  162.9035 H   0  0  0  0  0  0  0  0  0  0  0  0
  147.4730  135.4868  163.6834 H   0  0  0  0  0  0  0  0  0  0  0  0
  146.4820  134.0730  163.3547 H   0  0  0  0  0  0  0  0  0  0  0  0
  1  2  1  0  0  0  0
  1 21  1  0  0  0  0
  1 22  1  0  0  0  0
  1 23  1  0  0  0  0
  2 19  2  0  0  0  0
  2  3  1  0  0  0  0
  3  4  2  0  0  0  0
  4  5  1  0  0  0  0
  4 24  1  0  0  0  0
  5  6  1  0  0  0  0
  5 17  1  0  0  0  0
  6  7  1  0  0  0  0
  6 25  1  0  0  0  0
  6 26  1  0  0  0  0
  7  8  1  0  0  0  0
  7  9  1  0  0  0  0
  7 27  1  0  0  0  0
  8 28  1  0  0  0  0
  9 10  1  0  0  0  0
  9 29  1  0  0  0  0
  9 30  1  0  0  0  0
 10 11  1  0  0  0  0
 11 12  1  0  0  0  0
 11 31  1  0  0  0  0
 11 32  1  0  0  0  0
 12 16  1  0  0  0  0
 12 13  2  0  0  0  0
 13 14  1  0  0  0  0
 13 33  1  0  0  0  0
 14 15  2  0  0  0  0
 14 34  1  0  0  0  0
 15 16  1  0  0  0  0
 15 35  1  0  0  0  0
 17 18  2  0  0  0  0
 17 19  1  0  0  0  0
 19 20  1  0  0  0  0
 20 36  1  0  0  0  0
 20 37  1  0  0  0  0
 20 38  1  0  0  0  0
M  END
> <s_m_source_file>
AV-unprocessed.smi

> <i_m_source_file_index>
2290

> <i_lp_mmshare_version>
43012

> <i_f3d_flags>
0

> <s_epik_input>
W0NIM11jMW5bY0hdbihjKD1PKWMxW0NIM10pW0NIMl1bQ0BIXShbT0hdKVtDSDJdT1tDSDJdYzJbY0hdW2NIXVtjSF1zMg==

> <s_epik_cmdline>
J2VwaWtfcHl0aG9uJywgJy1waCcsICc3LjAnLCAnLXRuJywgJzgnLCAnLW1hJywgJzIwMCcsICctbWV0YWxfYmluZGluZycsICctaW1hZScsICc8aW5maWxlLm1hZT4nLCAnLW9tYWUnLCAnPG91dGZpbGUubWFlPic=

> <r_lp_tautomer_probability>
1

> <r_epik_Ionization_Penalty>
4.77825e-05

> <r_epik_Ionization_Penalty_Charging>
1.20754e-07

> <r_epik_Ionization_Penalty_Neutral>
4.76618e-05

> <r_epik_State_Penalty>
-0

> <r_epik_Charging_Adjusted_Penalty>
1.20754e-07

> <i_epik_Tot_Q>
0

> <i_epik_Tot_abs_Q>
0

> <r_epik_Metal_State_Penalty>
-0

> <b_epik_Metal_Only>
0

> <s_lp_Force_Field>
OPLS_2005

> <r_lp_Energy>
18.6865

> <b_lp_Chiralities_Consistent>
1

> <s_lp_Variant>
AV-unprocessed.smi:2290-1

> <Gold.Version>
5.8.1

> <Gold.Id.Protein>
6NUR|6NUR_protein|mol2

> <Gold.PLP.Fitness>
47.8597

> <Gold.PLP.PLP>
-40.1640

> <Gold.PLP.part.hbond>
-2.9513

> <Gold.PLP.part.metal>
0.0000

> <Gold.PLP.part.buried>
-4.5822

> <Gold.PLP.part.nonpolar>
-32.0577

> <Gold.PLP.part.repulsive>
0.0000

> <Gold.PLP.ligand.clash>
0.0000

> <Gold.PLP.ligand.torsion>
0.3078

> <Gold.PLP.Chemscore.Hbond>
2.7593

> <Gold.PLP.Chemscore.CHOScore>
0.0000

> <Gold.PLP.Chemscore.Metal>
0.0000

> <Gold.Chemscore.Hbonds>
donor molecule, donor type, donor heavy atom, donor atom, acceptor molecule, acceptor atom, score
      P1  H  6896  6908       L1     8  0.47
      P1  H  6931  6943       L1    18  0.98
      P1  H  6934  6947       L1    18  0.70

> <Gold.PLP.Chemscore.Internal.Correction>
0.0335

> <Gold.Rescore>
     Score         DG    S(hbond)    S(metal)    S(lipo)     H(rot)  DE(clash)    DE(int)     intcor
     18.54     -18.85       2.67        0.00      94.00       2.55       0.03       0.28       ----

> <Gold.Chemscore.Fitness>
18.5388

> <Gold.Chemscore.DG>
-18.8525

> <Gold.Chemscore.ZeroCoef>
-5.4800

> <Gold.Chemscore.Hbond>
2.6658

> <Gold.Chemscore.Metal>
0.0000

> <Gold.Chemscore.Lipo>
94.0040

> <Gold.Chemscore.Internal_Hbond>
0.0000

> <Gold.Chemscore.DEClash>
0.0310

> <Gold.Chemscore.DEInternal>
0.2827

> <Gold.Chemscore.Rot>
2.5507

> <Gold.Chemscore.Internal.Correction>
   9.000000E+99

> <Gold.Chemscore.Hbonds>
donor molecule, donor type, donor heavy atom, donor atom, acceptor molecule, acceptor atom, score
      P1  H  6896  6908       L1     8  0.02
      P1  H  6931  6943       L1    18  0.92
      P1  H  6934  6947       L1    18  0.70

> <Gold.Chemscore.Hbond.Weighted>
-8.9038

> <Gold.Chemscore.Metal.Weighted>
-0.0000

> <Gold.Chemscore.Lipo.Weighted>
-10.9985

> <Gold.Chemscore.Internal_Hbond.Weighted>
0.0000

> <Gold.Chemscore.DEClash.Weighted>
0.0310

> <Gold.Chemscore.DEInternal.Weighted>
0.2827

> <Gold.Chemscore.Rot.Weighted>
6.5298

> <Gold.Chemscore.Internal.Correction.Weighted>
   9.000000E+99

> <Gold.Protein.RotatedTorsions>
[ 6907 6896 6895 6894 ] final -133.43 input  -60.11 | X-H torsion
[ 7974 7965 7964 7962 ] final   48.29 input  175.53 | X-H torsion
[ 8008 7997 7996 7995 ] final -145.44 input   59.86 | X-H torsion
[ 10167 10162 10161 10158 ] final  -82.44 input  -65.29 | X-H torsion
[ 10718 10713 10712 10709 ] final  -15.16 input   66.30 | X-H torsion
[ 10763 10752 10751 10750 ] final  166.99 input  -60.55 | X-H torsion
[ 11005 11000 10999 10996 ] final  115.21 input  -57.11 | X-H torsion

> <Gold.Protein.ActiveResidues>
 VAL166  LYS551  ARG553  GLY616  TRP617  ASP618  TYR619  PRO620  LYS621  CYS622 
 ASP623  PHE694  ASN695  SER759  ASP760  ASP761  ALA762  ILE779  LEU786  VAL792 
 PHE793  MET794  SER795  GLU796  ALA797  LYS798  CYS799  TRP800  GLU811  SER814 

> <Gold.Protein.RotatedAtoms>
  150.9740  133.6315  159.2733 H   0  0  0  0  0  0  0  0  0  0  0  0  # atno 6907 bound_to 6896
  151.3593  135.0899  159.9439 H   0  0  0  0  0  0  0  0  0  0  0  0  # atno 6908 bound_to 6896
  152.5193  133.9316  159.7638 H   0  0  0  0  0  0  0  0  0  0  0  0  # atno 6909 bound_to 6896
  146.0218  139.4660  142.9892 H   0  0  0  0  0  0  0  0  0  0  0  0  # atno 7974 bound_to 7965
  155.5432  140.0610  157.2866 H   0  0  0  0  0  0  0  0  0  0  0  0  # atno 8008 bound_to 7997
  154.4445  140.1915  156.0656 H   0  0  0  0  0  0  0  0  0  0  0  0  # atno 8009 bound_to 7997
  156.0570  140.3277  155.7421 H   0  0  0  0  0  0  0  0  0  0  0  0  # atno 8010 bound_to 7997
  140.4319  143.2545  151.8747 H   0  0  0  0  0  0  0  0  0  0  0  0  # atno 10167 bound_to 10162
  156.6057  130.4836  149.6222 H   0  0  0  0  0  0  0  0  0  0  0  0  # atno 10718 bound_to 10713
  154.3472  135.2753  155.2391 H   0  0  0  0  0  0  0  0  0  0  0  0  # atno 10763 bound_to 10752
  154.4636  135.5901  153.6276 H   0  0  0  0  0  0  0  0  0  0  0  0  # atno 10764 bound_to 10752
  152.9852  135.6071  154.3679 H   0  0  0  0  0  0  0  0  0  0  0  0  # atno 10765 bound_to 10752
  139.9003  134.9580  156.7011 H   0  0  0  0  0  0  0  0  0  0  0  0  # atno 11005 bound_to 11000
  145.7181  141.0084  143.1417 LP  0  0  0  0  0  0  0  0  0  0  0  0  # atno 17320 bound_to 7965
  144.6993  139.8837  143.7449 LP  0  0  0  0  0  0  0  0  0  0  0  0  # atno 17321 bound_to 7965
  139.4785  144.5325  151.8646 LP  0  0  0  0  0  0  0  0  0  0  0  0  # atno 17342 bound_to 10162
  140.4417  144.1977  150.5892 LP  0  0  0  0  0  0  0  0  0  0  0  0  # atno 17343 bound_to 10162
  156.2432  130.6863  151.1575 LP  0  0  0  0  0  0  0  0  0  0  0  0  # atno 17370 bound_to 10713
  157.7268  131.0644  150.5894 LP  0  0  0  0  0  0  0  0  0  0  0  0  # atno 17371 bound_to 10713
  140.7150  133.9190  155.8109 LP  0  0  0  0  0  0  0  0  0  0  0  0  # atno 17394 bound_to 11000
  141.0271  134.0808  157.4056 LP  0  0  0  0  0  0  0  0  0  0  0  0  # atno 17395 bound_to 11000

$$$$
