AV-unprocessed.smi:1803|AV-procd|sdf|7282|dock5
  -GOLD-   22720 8543D 1   1.00000     0.00000
 Structure written by MMmdl.
 36 38  0  0  0  0  0  0  0  0  2 V2000
  145.9309  138.0772  154.4207 O   0  0  0  0  0  0  0  0  0  0  0  0
  146.7531  137.4201  153.7851 C   0  0  0  0  0  0  0  0  0  0  0  0
  148.0072  137.8764  153.5835 N   0  0  0  0  0  0  0  0  0  0  0  0
  148.6427  139.0839  153.9961 C   0  0  0  0  0  0  0  0  0  0  0  0
  149.9264  139.1699  154.3823 N   0  0  0  0  0  0  0  0  0  0  0  0
  150.2743  140.4603  154.7572 N   0  0  0  0  0  0  0  0  0  0  0  0
  149.2379  141.2966  154.6522 C   0  0  0  0  0  0  0  0  0  0  0  0
  147.7361  140.5879  154.0848 S   0  0  0  0  0  0  0  0  0  0  0  0
  146.4697  136.2198  153.2522 N   0  0  0  0  0  0  0  0  0  0  0  0
  145.2031  135.5032  153.3793 C   0  0  1  0  0  0  0  0  0  0  0  0
  144.0195  136.2755  152.7642 C   0  0  0  0  0  0  0  0  0  0  0  0
  143.2112  135.2164  152.0080 C   0  0  0  0  0  0  0  0  0  0  0  0
  144.2426  134.2744  151.5585 N   0  3  2  0  0  0  0  0  0  0  0  0
  143.8149  132.9765  150.9981 C   0  0  0  0  0  0  0  0  0  0  0  0
  145.0582  132.2498  150.4419 C   0  0  0  0  0  0  0  0  0  0  0  0
  146.1922  132.1490  151.4873 C   0  0  0  0  0  0  0  0  0  0  0  0
  146.5055  133.5191  152.1258 C   0  0  0  0  0  0  0  0  0  0  0  0
  145.2001  134.1294  152.6685 C   0  0  1  0  0  0  0  0  0  0  0  0
  148.5660  137.3041  152.9669 H   0  0  0  0  0  0  0  0  0  0  0  0
  149.3578  142.3372  154.9151 H   0  0  0  0  0  0  0  0  0  0  0  0
  147.2044  135.7544  152.7385 H   0  0  0  0  0  0  0  0  0  0  0  0
  144.9869  135.3432  154.4376 H   0  0  0  0  0  0  0  0  0  0  0  0
  143.4231  136.7967  153.5137 H   0  0  0  0  0  0  0  0  0  0  0  0
  144.3813  137.0227  152.0558 H   0  0  0  0  0  0  0  0  0  0  0  0
  142.5165  134.7105  152.6805 H   0  0  0  0  0  0  0  0  0  0  0  0
  142.6463  135.6330  151.1737 H   0  0  0  0  0  0  0  0  0  0  0  0
  143.3259  132.3775  151.7676 H   0  0  0  0  0  0  0  0  0  0  0  0
  143.0869  133.1398  150.2028 H   0  0  0  0  0  0  0  0  0  0  0  0
  144.7836  131.2548  150.0908 H   0  0  0  0  0  0  0  0  0  0  0  0
  145.4274  132.7905  149.5693 H   0  0  0  0  0  0  0  0  0  0  0  0
  145.8974  131.4471  152.2687 H   0  0  0  0  0  0  0  0  0  0  0  0
  147.0906  131.7356  151.0278 H   0  0  0  0  0  0  0  0  0  0  0  0
  147.2328  133.3943  152.9285 H   0  0  0  0  0  0  0  0  0  0  0  0
  146.9577  134.1813  151.3858 H   0  0  0  0  0  0  0  0  0  0  0  0
  144.7707  133.4197  153.3793 H   0  0  0  0  0  0  0  0  0  0  0  0
  144.7410  134.7538  150.8225 H   0  0  0  0  0  0  0  0  0  0  0  0
  1  2  2  0  0  0  0
  2  3  1  0  0  0  0
  2  9  1  0  0  0  0
  3  4  1  0  0  0  0
  3 19  1  0  0  0  0
  4  8  1  0  0  0  0
  4  5  2  0  0  0  0
  5  6  1  0  0  0  0
  6  7  2  0  0  0  0
  7  8  1  0  0  0  0
  7 20  1  0  0  0  0
  9 10  1  0  0  0  0
  9 21  1  0  0  0  0
 10 18  1  0  0  0  0
 10 11  1  0  0  0  0
 10 22  1  0  0  0  0
 11 12  1  0  0  0  0
 11 23  1  0  0  0  0
 11 24  1  0  0  0  0
 12 13  1  0  0  0  0
 12 25  1  0  0  0  0
 12 26  1  0  0  0  0
 13 18  1  0  0  0  0
 13 14  1  0  0  0  0
 13 36  1  0  0  0  0
 14 15  1  0  0  0  0
 14 27  1  0  0  0  0
 14 28  1  0  0  0  0
 15 16  1  0  0  0  0
 15 29  1  0  0  0  0
 15 30  1  0  0  0  0
 16 17  1  0  0  0  0
 16 31  1  0  0  0  0
 16 32  1  0  0  0  0
 17 18  1  0  0  0  0
 17 33  1  0  0  0  0
 17 34  1  0  0  0  0
 18 35  1  0  0  0  0
M  CHG  1  13   1
M  END
> <s_m_source_file>
AV-unprocessed.smi

> <i_m_source_file_index>
1803

> <i_lp_mmshare_version>
43012

> <i_f3d_flags>
0

> <s_epik_input>
czFbY0hdbm5jMVtOSF1DKD1PKVtOSF1bQ0BIXShbQ0gyXVtDSDJdMilbQ0BASF0oTjIzKVtDSDJdW0NIMl1bQ0gyXVtDSDJdMw==

> <s_epik_cmdline>
J2VwaWtfcHl0aG9uJywgJy1waCcsICc3LjAnLCAnLXRuJywgJzgnLCAnLW1hJywgJzIwMCcsICctbWV0YWxfYmluZGluZycsICctaW1hZScsICc8aW5maWxlLm1hZT4nLCAnLW9tYWUnLCAnPG91dGZpbGUubWFlPic=

> <r_lp_tautomer_probability>
1

> <r_epik_Ionization_Penalty>
0.00213286

> <r_epik_Ionization_Penalty_Charging>
0.00107044

> <r_epik_Ionization_Penalty_Neutral>
0.00106242

> <r_epik_State_Penalty>
-0

> <r_epik_Charging_Adjusted_Penalty>
0.00107044

> <i_epik_Tot_Q>
1

> <i_epik_Tot_abs_Q>
1

> <r_epik_Metal_State_Penalty>
0.292783

> <b_epik_Metal_Only>
0

> <s_lp_Force_Field>
OPLS_2005

> <r_lp_Energy>
42.6804

> <b_lp_Chiralities_Consistent>
1

> <s_lp_Variant>
AV-unprocessed.smi:1803-4

> <Gold.Version>
5.8.1

> <Gold.Id.Protein>
6NUR|6NUR_protein|mol2

> <Gold.PLP.Fitness>
36.7787

> <Gold.PLP.PLP>
-26.0226

> <Gold.PLP.part.hbond>
-3.0000

> <Gold.PLP.part.metal>
0.0000

> <Gold.PLP.part.buried>
-4.3608

> <Gold.PLP.part.nonpolar>
-19.1937

> <Gold.PLP.part.repulsive>
0.3886

> <Gold.PLP.ligand.clash>
0.0000

> <Gold.PLP.ligand.torsion>
0.2625

> <Gold.PLP.Chemscore.Hbond>
2.7600

> <Gold.PLP.Chemscore.CHOScore>
1.0000

> <Gold.PLP.Chemscore.Metal>
0.0000

> <Gold.Chemscore.Hbonds>
donor molecule, donor type, donor heavy atom, donor atom, acceptor molecule, acceptor atom, score
      L1  H     3    19       P1  7948  1.00
      L1  H     9    21       P1  7948  0.78
      P1  H  7989  7998       L1     6  0.99
      L1  C     7    20       P1  8028  1.00

> <Gold.PLP.Chemscore.Internal.Correction>
0.0010

> <Gold.Rescore>
     Score         DG    S(hbond)    S(metal)    S(lipo)     H(rot)  DE(clash)    DE(int)     intcor
     16.17     -16.47       1.96        0.00      59.97       1.00       0.04       0.26       ----

> <Gold.Chemscore.Fitness>
16.1661

> <Gold.Chemscore.DG>
-16.4672

> <Gold.Chemscore.ZeroCoef>
-5.4800

> <Gold.Chemscore.Hbond>
1.9552

> <Gold.Chemscore.Metal>
0.0000

> <Gold.Chemscore.Lipo>
59.9736

> <Gold.Chemscore.Internal_Hbond>
0.0000

> <Gold.Chemscore.DEClash>
0.0389

> <Gold.Chemscore.DEInternal>
0.2622

> <Gold.Chemscore.Rot>
1.0000

> <Gold.Chemscore.Internal.Correction>
   9.000000E+99

> <Gold.Chemscore.Hbonds>
donor molecule, donor type, donor heavy atom, donor atom, acceptor molecule, acceptor atom, score
      L1  H     3    19       P1  7948  0.97
      L1  H     9    21       P1  7948  0.75
      P1  H  7989  7998       L1     6  0.25

> <Gold.Chemscore.Hbond.Weighted>
-6.5303

> <Gold.Chemscore.Metal.Weighted>
-0.0000

> <Gold.Chemscore.Lipo.Weighted>
-7.0169

> <Gold.Chemscore.Internal_Hbond.Weighted>
0.0000

> <Gold.Chemscore.DEClash.Weighted>
0.0389

> <Gold.Chemscore.DEInternal.Weighted>
0.2622

> <Gold.Chemscore.Rot.Weighted>
2.5600

> <Gold.Chemscore.Internal.Correction.Weighted>
   9.000000E+99

> <Gold.Protein.RotatedTorsions>
[ 6907 6896 6895 6894 ] final  -53.96 input  -60.11 | X-H torsion
[ 7974 7965 7964 7962 ] final    5.31 input  175.53 | X-H torsion
[ 8008 7997 7996 7995 ] final -120.11 input   59.86 | X-H torsion
[ 10167 10162 10161 10158 ] final  -47.78 input  -65.29 | X-H torsion
[ 10718 10713 10712 10709 ] final  -22.00 input   66.30 | X-H torsion
[ 10763 10752 10751 10750 ] final -173.31 input  -60.55 | X-H torsion
[ 11005 11000 10999 10996 ] final -132.76 input  -57.11 | X-H torsion

> <Gold.Protein.ActiveResidues>
 VAL166  LYS551  ARG553  GLY616  TRP617  ASP618  TYR619  PRO620  LYS621  CYS622 
 ASP623  PHE694  ASN695  SER759  ASP760  ASP761  ALA762  ILE779  LEU786  VAL792 
 PHE793  MET794  SER795  GLU796  ALA797  LYS798  CYS799  TRP800  GLU811  SER814 

> <Gold.Protein.RotatedAtoms>
  150.8380  134.7661  159.6908 H   0  0  0  0  0  0  0  0  0  0  0  0  # atno 6907 bound_to 6896
  152.4473  134.5465  159.9864 H   0  0  0  0  0  0  0  0  0  0  0  0  # atno 6908 bound_to 6896
  151.5611  133.3365  159.3007 H   0  0  0  0  0  0  0  0  0  0  0  0  # atno 6909 bound_to 6896
  146.2441  140.0403  142.8382 H   0  0  0  0  0  0  0  0  0  0  0  0  # atno 7974 bound_to 7965
  155.1266  140.0399  157.2764 H   0  0  0  0  0  0  0  0  0  0  0  0  # atno 8008 bound_to 7997
  154.6574  140.2583  155.7121 H   0  0  0  0  0  0  0  0  0  0  0  0  # atno 8009 bound_to 7997
  156.2604  140.2824  156.1032 H   0  0  0  0  0  0  0  0  0  0  0  0  # atno 8010 bound_to 7997
  140.6760  143.2769  151.3976 H   0  0  0  0  0  0  0  0  0  0  0  0  # atno 10167 bound_to 10162
  156.5105  130.4609  149.6651 H   0  0  0  0  0  0  0  0  0  0  0  0  # atno 10718 bound_to 10713
  154.6093  135.2863  155.0449 H   0  0  0  0  0  0  0  0  0  0  0  0  # atno 10763 bound_to 10752
  154.1685  135.6476  153.5007 H   0  0  0  0  0  0  0  0  0  0  0  0  # atno 10764 bound_to 10752
  153.0188  135.5395  154.6841 H   0  0  0  0  0  0  0  0  0  0  0  0  # atno 10765 bound_to 10752
  140.9142  134.1529  157.4366 H   0  0  0  0  0  0  0  0  0  0  0  0  # atno 11005 bound_to 11000
  145.1075  140.9385  143.4676 LP  0  0  0  0  0  0  0  0  0  0  0  0  # atno 17320 bound_to 7965
  145.0609  139.3106  143.5881 LP  0  0  0  0  0  0  0  0  0  0  0  0  # atno 17321 bound_to 7965
  139.6053  144.1211  152.2242 LP  0  0  0  0  0  0  0  0  0  0  0  0  # atno 17342 bound_to 10162
  140.0607  144.5858  150.7265 LP  0  0  0  0  0  0  0  0  0  0  0  0  # atno 17343 bound_to 10162
  156.3245  130.7298  151.2216 LP  0  0  0  0  0  0  0  0  0  0  0  0  # atno 17370 bound_to 10713
  157.7451  131.0447  150.4804 LP  0  0  0  0  0  0  0  0  0  0  0  0  # atno 17371 bound_to 10713
  139.8763  134.9947  156.5707 LP  0  0  0  0  0  0  0  0  0  0  0  0  # atno 17394 bound_to 11000
  140.8072  133.8458  155.8778 LP  0  0  0  0  0  0  0  0  0  0  0  0  # atno 17395 bound_to 11000

$$$$
