AV-unprocessed.smi:490|AV-procd|sdf|2705|dock9
  -GOLD-   2262023143D 1   1.00000     0.00000
 Structure written by MMmdl.
 50 52  0  0  0  0  0  0  0  0  2 V2000
  147.5584  136.6419  162.1381 C   0  0  0  0  0  0  0  0  0  0  0  0
  147.6780  135.4657  161.1842 C   0  0  0  0  0  0  0  0  0  0  0  0
  147.3701  134.1725  161.6538 C   0  0  0  0  0  0  0  0  0  0  0  0
  147.4729  133.0613  160.7989 C   0  0  0  0  0  0  0  0  0  0  0  0
  147.8745  133.2326  159.4603 C   0  0  0  0  0  0  0  0  0  0  0  0
  147.9831  132.0239  158.5495 C   0  0  0  0  0  0  0  0  0  0  0  0
  148.1679  134.5273  158.9742 C   0  0  0  0  0  0  0  0  0  0  0  0
  148.5413  134.6798  157.6632 O   0  0  0  0  0  0  0  0  0  0  0  0
  147.6116  135.4291  156.8939 C   0  0  0  0  0  0  0  0  0  0  0  0
  147.8149  135.1104  155.4049 C   0  0  2  0  0  0  0  0  0  0  0  0
  147.9077  136.3277  154.6913 O   0  0  0  0  0  0  0  0  0  0  0  0
  146.6511  134.2741  154.8361 C   0  0  0  0  0  0  0  0  0  0  0  0
  146.9621  133.6683  153.5308 N   0  0  0  0  0  0  0  0  0  0  0  0
  148.1352  133.1496  153.0655 C   0  0  0  0  0  0  0  0  0  0  0  0
  149.4347  133.0723  153.7971 C   0  0  0  0  0  0  0  0  0  0  0  0
  149.3388  132.3172  154.9842 O   0  0  0  0  0  0  0  0  0  0  0  0
  147.9046  132.6986  151.8006 N   0  3  0  0  0  0  0  0  0  0  0  0
  146.5748  132.9336  151.4502 C   0  0  0  0  0  0  0  0  0  0  0  0
  145.8803  132.6532  150.2776 C   0  0  0  0  0  0  0  0  0  0  0  0
  144.5213  133.0274  150.2422 C   0  0  0  0  0  0  0  0  0  0  0  0
  143.9036  133.6537  151.3439 C   0  0  0  0  0  0  0  0  0  0  0  0
  144.6177  133.9310  152.5285 C   0  0  0  0  0  0  0  0  0  0  0  0
  145.9618  133.5578  152.5565 C   0  0  0  0  0  0  0  0  0  0  0  0
  148.0911  135.6475  159.8404 C   0  0  0  0  0  0  0  0  0  0  0  0
  148.4499  137.0370  159.3308 C   0  0  0  0  0  0  0  0  0  0  0  0
  147.1007  136.3429  163.0815 H   0  0  0  0  0  0  0  0  0  0  0  0
  146.9409  137.4288  161.7046 H   0  0  0  0  0  0  0  0  0  0  0  0
  148.5429  137.0543  162.3595 H   0  0  0  0  0  0  0  0  0  0  0  0
  147.0568  134.0248  162.6771 H   0  0  0  0  0  0  0  0  0  0  0  0
  147.2394  132.0763  161.1757 H   0  0  0  0  0  0  0  0  0  0  0  0
  148.9076  132.0583  157.9722 H   0  0  0  0  0  0  0  0  0  0  0  0
  147.1436  131.9969  157.8548 H   0  0  0  0  0  0  0  0  0  0  0  0
  147.9814  131.0959  159.1220 H   0  0  0  0  0  0  0  0  0  0  0  0
  146.6046  135.1349  157.1945 H   0  0  0  0  0  0  0  0  0  0  0  0
  147.6967  136.5003  157.0838 H   0  0  0  0  0  0  0  0  0  0  0  0
  148.7453  134.5564  155.2757 H   0  0  0  0  0  0  0  0  0  0  0  0
  148.0792  136.1307  153.7833 H   0  0  0  0  0  0  0  0  0  0  0  0
  146.4169  133.4555  155.5177 H   0  0  0  0  0  0  0  0  0  0  0  0
  145.7390  134.8657  154.7550 H   0  0  0  0  0  0  0  0  0  0  0  0
  150.1892  132.6220  153.1514 H   0  0  0  0  0  0  0  0  0  0  0  0
  149.7782  134.0781  154.0387 H   0  0  0  0  0  0  0  0  0  0  0  0
  149.6235  131.4342  154.8033 H   0  0  0  0  0  0  0  0  0  0  0  0
  146.3518  132.1735  149.4324 H   0  0  0  0  0  0  0  0  0  0  0  0
  143.9413  132.8302  149.3519 H   0  0  0  0  0  0  0  0  0  0  0  0
  142.8604  133.9276  151.2795 H   0  0  0  0  0  0  0  0  0  0  0  0
  144.1330  134.4139  153.3636 H   0  0  0  0  0  0  0  0  0  0  0  0
  149.0041  137.0009  158.3932 H   0  0  0  0  0  0  0  0  0  0  0  0
  149.0765  137.5664  160.0485 H   0  0  0  0  0  0  0  0  0  0  0  0
  147.5449  137.6219  159.1667 H   0  0  0  0  0  0  0  0  0  0  0  0
  148.6086  132.2589  151.2219 H   0  0  0  0  0  0  0  0  0  0  0  0
  1  2  1  0  0  0  0
  1 26  1  0  0  0  0
  1 27  1  0  0  0  0
  1 28  1  0  0  0  0
  2 24  1  0  0  0  0
  2  3  2  0  0  0  0
  3  4  1  0  0  0  0
  3 29  1  0  0  0  0
  4  5  2  0  0  0  0
  4 30  1  0  0  0  0
  5  6  1  0  0  0  0
  5  7  1  0  0  0  0
  6 31  1  0  0  0  0
  6 32  1  0  0  0  0
  6 33  1  0  0  0  0
  7  8  1  0  0  0  0
  7 24  2  0  0  0  0
  8  9  1  0  0  0  0
  9 10  1  0  0  0  0
  9 34  1  0  0  0  0
  9 35  1  0  0  0  0
 10 11  1  0  0  0  0
 10 12  1  0  0  0  0
 10 36  1  0  0  0  0
 11 37  1  0  0  0  0
 12 13  1  0  0  0  0
 12 38  1  0  0  0  0
 12 39  1  0  0  0  0
 13 23  1  0  0  0  0
 13 14  1  0  0  0  0
 14 15  1  0  0  0  0
 14 17  2  0  0  0  0
 15 16  1  0  0  0  0
 15 40  1  0  0  0  0
 15 41  1  0  0  0  0
 16 42  1  0  0  0  0
 17 18  1  0  0  0  0
 17 50  1  0  0  0  0
 18 23  2  0  0  0  0
 18 19  1  0  0  0  0
 19 20  2  0  0  0  0
 19 43  1  0  0  0  0
 20 21  1  0  0  0  0
 20 44  1  0  0  0  0
 21 22  2  0  0  0  0
 21 45  1  0  0  0  0
 22 23  1  0  0  0  0
 22 46  1  0  0  0  0
 24 25  1  0  0  0  0
 25 47  1  0  0  0  0
 25 48  1  0  0  0  0
 25 49  1  0  0  0  0
M  CHG  1  17   1
M  END
> <s_m_source_file>
AV-unprocessed.smi

> <i_m_source_file_index>
490

> <i_lp_mmshare_version>
43012

> <i_f3d_flags>
0

> <s_epik_input>
W0NIM11jMVtjSF1bY0hdYyhbQ0gzXSljKGMxW0NIM10pT1tDSDJdW0NASF0oW09IXSlbQ0gyXW4oYyhuMilbQ0gyXVtPSF0pYyhjMjMpW2NIXVtjSF1bY0hdW2NIXTM=

> <s_epik_cmdline>
J2VwaWtfcHl0aG9uJywgJy1waCcsICc3LjAnLCAnLXRuJywgJzgnLCAnLW1hJywgJzIwMCcsICctbWV0YWxfYmluZGluZycsICctaW1hZScsICc8aW5maWxlLm1hZT4nLCAnLW9tYWUnLCAnPG91dGZpbGUubWFlPic=

> <r_lp_tautomer_probability>
1

> <r_epik_Ionization_Penalty>
1.43125

> <r_epik_Ionization_Penalty_Charging>
1.43039

> <r_epik_Ionization_Penalty_Neutral>
0.000858184

> <r_epik_State_Penalty>
1.51493

> <r_epik_Charging_Adjusted_Penalty>
2.94531

> <i_epik_Tot_Q>
1

> <i_epik_Tot_abs_Q>
1

> <r_epik_Metal_State_Penalty>
5.5599

> <b_epik_Metal_Only>
0

> <s_lp_Force_Field>
OPLS_2005

> <r_lp_Energy>
24.6054

> <b_lp_Chiralities_Consistent>
1

> <s_lp_Variant>
AV-unprocessed.smi:490-3

> <Gold.Version>
5.8.1

> <Gold.Id.Protein>
6NUR|6NUR_protein|mol2

> <Gold.PLP.Fitness>
43.2044

> <Gold.PLP.PLP>
-39.6440

> <Gold.PLP.part.hbond>
-2.0000

> <Gold.PLP.part.metal>
0.0000

> <Gold.PLP.part.buried>
-5.7816

> <Gold.PLP.part.nonpolar>
-31.6740

> <Gold.PLP.part.repulsive>
0.0447

> <Gold.PLP.ligand.clash>
0.0000

> <Gold.PLP.ligand.torsion>
1.2604

> <Gold.PLP.Chemscore.Hbond>
1.9913

> <Gold.PLP.Chemscore.CHOScore>
0.0000

> <Gold.PLP.Chemscore.Metal>
0.0000

> <Gold.Chemscore.Hbonds>
donor molecule, donor type, donor heavy atom, donor atom, acceptor molecule, acceptor atom, score
      L1  H    11    37       P1  7948  0.80
      L1  H    17    50       P1 10747  0.91

> <Gold.PLP.Chemscore.Internal.Correction>
0.1075

> <Gold.Rescore>
     Score         DG    S(hbond)    S(metal)    S(lipo)     H(rot)  DE(clash)    DE(int)     intcor
     13.95     -15.36       1.93        0.00      95.24       3.02       0.14       1.27       ----

> <Gold.Chemscore.Fitness>
13.9476

> <Gold.Chemscore.DG>
-15.3587

> <Gold.Chemscore.ZeroCoef>
-5.4800

> <Gold.Chemscore.Hbond>
1.9345

> <Gold.Chemscore.Metal>
0.0000

> <Gold.Chemscore.Lipo>
95.2433

> <Gold.Chemscore.Internal_Hbond>
0.0000

> <Gold.Chemscore.DEClash>
0.1401

> <Gold.Chemscore.DEInternal>
1.2711

> <Gold.Chemscore.Rot>
3.0180

> <Gold.Chemscore.Internal.Correction>
   9.000000E+99

> <Gold.Chemscore.Hbonds>
donor molecule, donor type, donor heavy atom, donor atom, acceptor molecule, acceptor atom, score
      L1  H    11    37       P1  7948  0.78
      L1  H    17    50       P1 10747  0.90

> <Gold.Chemscore.Hbond.Weighted>
-6.4613

> <Gold.Chemscore.Metal.Weighted>
-0.0000

> <Gold.Chemscore.Lipo.Weighted>
-11.1435

> <Gold.Chemscore.Internal_Hbond.Weighted>
0.0000

> <Gold.Chemscore.DEClash.Weighted>
0.1401

> <Gold.Chemscore.DEInternal.Weighted>
1.2711

> <Gold.Chemscore.Rot.Weighted>
7.7260

> <Gold.Chemscore.Internal.Correction.Weighted>
   9.000000E+99

> <Gold.Protein.RotatedTorsions>
[ 6907 6896 6895 6894 ] final  -20.26 input  -60.11 | X-H torsion
[ 7974 7965 7964 7962 ] final   52.91 input  175.53 | X-H torsion
[ 8008 7997 7996 7995 ] final  130.98 input   59.86 | X-H torsion
[ 10167 10162 10161 10158 ] final  -18.53 input  -65.29 | X-H torsion
[ 10718 10713 10712 10709 ] final   42.36 input   66.30 | X-H torsion
[ 10763 10752 10751 10750 ] final -152.09 input  -60.55 | X-H torsion
[ 11005 11000 10999 10996 ] final   10.38 input  -57.11 | X-H torsion

> <Gold.Protein.ActiveResidues>
 VAL166  LYS551  ARG553  GLY616  TRP617  ASP618  TYR619  PRO620  LYS621  CYS622 
 ASP623  PHE694  ASN695  SER759  ASP760  ASP761  ALA762  ILE779  LEU786  VAL792 
 PHE793  MET794  SER795  GLU796  ALA797  LYS798  CYS799  TRP800  GLU811  SER814 

> <Gold.Protein.RotatedAtoms>
  151.2508  135.0621  159.9060 H   0  0  0  0  0  0  0  0  0  0  0  0  # atno 6907 bound_to 6896
  152.5380  134.0334  159.8045 H   0  0  0  0  0  0  0  0  0  0  0  0  # atno 6908 bound_to 6896
  151.0542  133.5549  159.2671 H   0  0  0  0  0  0  0  0  0  0  0  0  # atno 6909 bound_to 6896
  145.9765  139.4200  143.0158 H   0  0  0  0  0  0  0  0  0  0  0  0  # atno 7974 bound_to 7965
  156.2963  140.2582  156.2851 H   0  0  0  0  0  0  0  0  0  0  0  0  # atno 8008 bound_to 7997
  154.9564  140.0393  157.2188 H   0  0  0  0  0  0  0  0  0  0  0  0  # atno 8009 bound_to 7997
  154.7987  140.2824  155.5942 H   0  0  0  0  0  0  0  0  0  0  0  0  # atno 8010 bound_to 7997
  140.7259  143.4907  150.9996 H   0  0  0  0  0  0  0  0  0  0  0  0  # atno 10167 bound_to 10162
  157.4040  130.7876  149.7373 H   0  0  0  0  0  0  0  0  0  0  0  0  # atno 10718 bound_to 10713
  154.8016  135.3244  154.7534 H   0  0  0  0  0  0  0  0  0  0  0  0  # atno 10763 bound_to 10752
  153.8201  135.6888  153.4832 H   0  0  0  0  0  0  0  0  0  0  0  0  # atno 10764 bound_to 10752
  153.1737  135.4613  154.9880 H   0  0  0  0  0  0  0  0  0  0  0  0  # atno 10765 bound_to 10752
  140.5151  134.0614  155.7829 H   0  0  0  0  0  0  0  0  0  0  0  0  # atno 11005 bound_to 11000
  145.7831  140.9847  143.1089 LP  0  0  0  0  0  0  0  0  0  0  0  0  # atno 17320 bound_to 7965
  144.6850  139.9589  143.7480 LP  0  0  0  0  0  0  0  0  0  0  0  0  # atno 17321 bound_to 7965
  139.8611  143.7313  152.3173 LP  0  0  0  0  0  0  0  0  0  0  0  0  # atno 17342 bound_to 10162
  139.7529  144.7529  151.0479 LP  0  0  0  0  0  0  0  0  0  0  0  0  # atno 17343 bound_to 10162
  155.9831  130.4003  150.3380 LP  0  0  0  0  0  0  0  0  0  0  0  0  # atno 17370 bound_to 10713
  157.1511  131.0321  151.2884 LP  0  0  0  0  0  0  0  0  0  0  0  0  # atno 17371 bound_to 10713
  141.1364  133.9213  157.2423 LP  0  0  0  0  0  0  0  0  0  0  0  0  # atno 17394 bound_to 11000
  139.9637  135.0147  156.9329 LP  0  0  0  0  0  0  0  0  0  0  0  0  # atno 17395 bound_to 11000

$$$$
