AV-unprocessed.smi:1292|AV-procd|sdf|5397|dock6
  -GOLD-   22720 4553D 1   1.00000     0.00000
 Structure written by MMmdl.
 39 40  0  0  0  0  0  0  0  0  2 V2000
  151.7133  144.4848  158.4040 C   0  0  0  0  0  0  0  0  0  0  0  0
  151.9056  143.1937  159.2119 C   0  0  2  0  0  0  0  0  0  0  0  0
  153.0033  143.3514  160.2732 C   0  0  0  0  0  0  0  0  0  0  0  0
  153.1447  142.0466  161.0616 C   0  0  0  0  0  0  0  0  0  0  0  0
  153.4430  140.8626  160.1290 C   0  0  0  0  0  0  0  0  0  0  0  0
  152.4332  140.7528  159.0559 N   0  0  0  0  0  0  0  0  0  0  0  0
  152.3190  139.2463  158.1965 S   0  0  0  0  0  0  0  0  0  0  0  0
  153.5919  139.0729  157.4781 O   0  0  0  0  0  0  0  0  0  0  0  0
  151.9492  138.2291  159.1950 O   0  0  0  0  0  0  0  0  0  0  0  0
  151.0943  139.6785  157.2288 N   0  5  0  0  0  0  0  0  0  0  0  0
  151.3737  140.1761  155.8939 C   0  0  0  0  0  0  0  0  0  0  0  0
  150.6095  139.3449  154.8363 C   0  0  0  0  0  0  0  0  0  0  0  0
  149.2910  139.9516  154.3572 C   0  0  0  0  0  0  0  0  0  0  0  0
  148.3035  139.1430  153.7483 C   0  0  0  0  0  0  0  0  0  0  0  0
  147.1036  139.7466  153.3251 C   0  0  0  0  0  0  0  0  0  0  0  0
  146.9344  141.1310  153.5178 C   0  0  0  0  0  0  0  0  0  0  0  0
  147.9795  141.8545  154.1253 C   0  0  0  0  0  0  0  0  0  0  0  0
  149.1348  141.2870  154.5309 N   0  0  0  0  0  0  0  0  0  0  0  0
  152.2169  141.9991  158.2898 C   0  0  0  0  0  0  0  0  0  0  0  0
  152.6205  144.7508  157.8606 H   0  0  0  0  0  0  0  0  0  0  0  0
  151.4560  145.3210  159.0544 H   0  0  0  0  0  0  0  0  0  0  0  0
  150.9095  144.3746  157.6755 H   0  0  0  0  0  0  0  0  0  0  0  0
  150.9657  142.9852  159.7253 H   0  0  0  0  0  0  0  0  0  0  0  0
  153.9528  143.6030  159.7985 H   0  0  0  0  0  0  0  0  0  0  0  0
  152.7620  144.1704  160.9514 H   0  0  0  0  0  0  0  0  0  0  0  0
  153.9393  142.1428  161.8018 H   0  0  0  0  0  0  0  0  0  0  0  0
  152.2265  141.8513  161.6172 H   0  0  0  0  0  0  0  0  0  0  0  0
  154.4294  140.9770  159.6774 H   0  0  0  0  0  0  0  0  0  0  0  0
  153.4671  139.9412  160.7102 H   0  0  0  0  0  0  0  0  0  0  0  0
  151.0791  141.2214  155.7968 H   0  0  0  0  0  0  0  0  0  0  0  0
  152.4393  140.1470  155.6633 H   0  0  0  0  0  0  0  0  0  0  0  0
  151.2535  139.1659  153.9737 H   0  0  0  0  0  0  0  0  0  0  0  0
  150.3961  138.3592  155.2508 H   0  0  0  0  0  0  0  0  0  0  0  0
  148.4597  138.0825  153.6173 H   0  0  0  0  0  0  0  0  0  0  0  0
  146.3257  139.1574  152.8623 H   0  0  0  0  0  0  0  0  0  0  0  0
  146.0268  141.6269  153.2076 H   0  0  0  0  0  0  0  0  0  0  0  0
  147.8864  142.9180  154.2876 H   0  0  0  0  0  0  0  0  0  0  0  0
  151.3932  141.8588  157.5903 H   0  0  0  0  0  0  0  0  0  0  0  0
  153.1051  142.2027  157.6899 H   0  0  0  0  0  0  0  0  0  0  0  0
  1  2  1  0  0  0  0
  1 20  1  0  0  0  0
  1 21  1  0  0  0  0
  1 22  1  0  0  0  0
  2 19  1  0  0  0  0
  2  3  1  0  0  0  0
  2 23  1  0  0  0  0
  3  4  1  0  0  0  0
  3 24  1  0  0  0  0
  3 25  1  0  0  0  0
  4  5  1  0  0  0  0
  4 26  1  0  0  0  0
  4 27  1  0  0  0  0
  5  6  1  0  0  0  0
  5 28  1  0  0  0  0
  5 29  1  0  0  0  0
  6  7  1  0  0  0  0
  6 19  1  0  0  0  0
  7  8  2  0  0  0  0
  7  9  2  0  0  0  0
  7 10  1  0  0  0  0
 10 11  1  0  0  0  0
 11 12  1  0  0  0  0
 11 30  1  0  0  0  0
 11 31  1  0  0  0  0
 12 13  1  0  0  0  0
 12 32  1  0  0  0  0
 12 33  1  0  0  0  0
 13 18  1  0  0  0  0
 13 14  2  0  0  0  0
 14 15  1  0  0  0  0
 14 34  1  0  0  0  0
 15 16  2  0  0  0  0
 15 35  1  0  0  0  0
 16 17  1  0  0  0  0
 16 36  1  0  0  0  0
 17 18  2  0  0  0  0
 17 37  1  0  0  0  0
 19 38  1  0  0  0  0
 19 39  1  0  0  0  0
M  CHG  1  10  -1
M  END
> <s_m_source_file>
AV-unprocessed.smi

> <i_m_source_file_index>
1292

> <i_lp_mmshare_version>
43012

> <i_f3d_flags>
0

> <s_epik_input>
W0NIM11bQ0BASF0xW0NIMl1bQ0gyXVtDSDJdTihbQ0gyXTEpUyg9TykoPU8pW05IXVtDSDJdW0NIMl1jMltjSF1bY0hdW2NIXVtjSF1uMg==

> <s_epik_cmdline>
J2VwaWtfcHl0aG9uJywgJy1waCcsICc3LjAnLCAnLXRuJywgJzgnLCAnLW1hJywgJzIwMCcsICctbWV0YWxfYmluZGluZycsICctaW1hZScsICc8aW5maWxlLm1hZT4nLCAnLW9tYWUnLCAnPG91dGZpbGUubWFlPic=

> <r_epik_Ionization_Penalty>
2.02944

> <r_epik_Ionization_Penalty_Charging>
1.95606

> <r_epik_Ionization_Penalty_Neutral>
0.0733799

> <r_epik_State_Penalty>
2.47711

> <r_epik_Charging_Adjusted_Penalty>
4.43317

> <i_epik_Tot_Q>
-1

> <i_epik_Tot_abs_Q>
1

> <r_epik_Metal_State_Penalty>
0.729901

> <b_epik_Metal_Only>
0

> <s_lp_Force_Field>
OPLS_2005

> <r_lp_Energy>
8.05256

> <b_lp_Chiralities_Consistent>
1

> <s_lp_Variant>
AV-unprocessed.smi:1292-3

> <Gold.Version>
5.8.1

> <Gold.Id.Protein>
6NUR|6NUR_protein|mol2

> <Gold.PLP.Fitness>
47.4851

> <Gold.PLP.PLP>
-42.8052

> <Gold.PLP.part.hbond>
-1.0346

> <Gold.PLP.part.metal>
0.0000

> <Gold.PLP.part.buried>
-3.9593

> <Gold.PLP.part.nonpolar>
-37.6997

> <Gold.PLP.part.repulsive>
0.1460

> <Gold.PLP.ligand.clash>
0.0000

> <Gold.PLP.ligand.torsion>
2.2063

> <Gold.PLP.Chemscore.Hbond>
1.0000

> <Gold.PLP.Chemscore.CHOScore>
1.0000

> <Gold.PLP.Chemscore.Metal>
0.0000

> <Gold.Chemscore.Hbonds>
donor molecule, donor type, donor heavy atom, donor atom, acceptor molecule, acceptor atom, score
      P1  H  7997  8010       L1     8  0.93
      L1  C    17    37       P1  8028  1.00

> <Gold.PLP.Chemscore.Internal.Correction>
3.0924

> <Gold.Rescore>
     Score         DG    S(hbond)    S(metal)    S(lipo)     H(rot)  DE(clash)    DE(int)     intcor
     16.64     -18.92       0.99        0.00     114.40       1.27       0.05       2.22       ----

> <Gold.Chemscore.Fitness>
16.6449

> <Gold.Chemscore.DG>
-18.9216

> <Gold.Chemscore.ZeroCoef>
-5.4800

> <Gold.Chemscore.Hbond>
0.9932

> <Gold.Chemscore.Metal>
0.0000

> <Gold.Chemscore.Lipo>
114.4049

> <Gold.Chemscore.Internal_Hbond>
0.0000

> <Gold.Chemscore.DEClash>
0.0540

> <Gold.Chemscore.DEInternal>
2.2227

> <Gold.Chemscore.Rot>
1.2738

> <Gold.Chemscore.Internal.Correction>
   9.000000E+99

> <Gold.Chemscore.Hbonds>
donor molecule, donor type, donor heavy atom, donor atom, acceptor molecule, acceptor atom, score
      P1  H  7997  8010       L1     8  0.84

> <Gold.Chemscore.Hbond.Weighted>
-3.3172

> <Gold.Chemscore.Metal.Weighted>
-0.0000

> <Gold.Chemscore.Lipo.Weighted>
-13.3854

> <Gold.Chemscore.Internal_Hbond.Weighted>
0.0000

> <Gold.Chemscore.DEClash.Weighted>
0.0540

> <Gold.Chemscore.DEInternal.Weighted>
2.2227

> <Gold.Chemscore.Rot.Weighted>
3.2610

> <Gold.Chemscore.Internal.Correction.Weighted>
   9.000000E+99

> <Gold.Protein.RotatedTorsions>
[ 6907 6896 6895 6894 ] final   87.67 input  -60.11 | X-H torsion
[ 7974 7965 7964 7962 ] final   -6.37 input  175.53 | X-H torsion
[ 8008 7997 7996 7995 ] final   58.46 input   59.86 | X-H torsion
[ 10167 10162 10161 10158 ] final  -68.76 input  -65.29 | X-H torsion
[ 10718 10713 10712 10709 ] final   30.07 input   66.30 | X-H torsion
[ 10763 10752 10751 10750 ] final -160.66 input  -60.55 | X-H torsion
[ 11005 11000 10999 10996 ] final  -97.89 input  -57.11 | X-H torsion

> <Gold.Protein.ActiveResidues>
 VAL166  LYS551  ARG553  GLY616  TRP617  ASP618  TYR619  PRO620  LYS621  CYS622 
 ASP623  PHE694  ASN695  SER759  ASP760  ASP761  ALA762  ILE779  LEU786  VAL792 
 PHE793  MET794  SER795  GLU796  ALA797  LYS798  CYS799  TRP800  GLU811  SER814 

> <Gold.Protein.RotatedAtoms>
  152.5414  134.2241  159.8798 H   0  0  0  0  0  0  0  0  0  0  0  0  # atno 6907 bound_to 6896
  151.2216  133.4492  159.2608 H   0  0  0  0  0  0  0  0  0  0  0  0  # atno 6908 bound_to 6896
  151.0800  134.9865  159.8407 H   0  0  0  0  0  0  0  0  0  0  0  0  # atno 6909 bound_to 6896
  146.2332  140.2160  142.8336 H   0  0  0  0  0  0  0  0  0  0  0  0  # atno 7974 bound_to 7965
  155.5503  140.3486  155.4467 H   0  0  0  0  0  0  0  0  0  0  0  0  # atno 8008 bound_to 7997
  156.0588  140.1335  156.9992 H   0  0  0  0  0  0  0  0  0  0  0  0  # atno 8009 bound_to 7997
  154.4469  140.0989  156.6470 H   0  0  0  0  0  0  0  0  0  0  0  0  # atno 8010 bound_to 7997
  140.5483  143.2312  151.6960 H   0  0  0  0  0  0  0  0  0  0  0  0  # atno 10167 bound_to 10162
  157.2548  130.7132  149.6423 H   0  0  0  0  0  0  0  0  0  0  0  0  # atno 10718 bound_to 10713
  154.7371  135.3060  154.8792 H   0  0  0  0  0  0  0  0  0  0  0  0  # atno 10763 bound_to 10752
  153.9618  135.6752  153.4749 H   0  0  0  0  0  0  0  0  0  0  0  0  # atno 10764 bound_to 10752
  153.0973  135.4929  154.8725 H   0  0  0  0  0  0  0  0  0  0  0  0  # atno 10765 bound_to 10752
  141.1364  133.8204  157.0766 H   0  0  0  0  0  0  0  0  0  0  0  0  # atno 11005 bound_to 11000
  144.9669  140.8330  143.5479 LP  0  0  0  0  0  0  0  0  0  0  0  0  # atno 17320 bound_to 7965
  145.2137  139.2192  143.5129 LP  0  0  0  0  0  0  0  0  0  0  0  0  # atno 17321 bound_to 7965
  139.5016  144.3859  152.0329 LP  0  0  0  0  0  0  0  0  0  0  0  0  # atno 17342 bound_to 10162
  140.2974  144.3685  150.6070 LP  0  0  0  0  0  0  0  0  0  0  0  0  # atno 17343 bound_to 10162
  155.9665  130.4416  150.5347 LP  0  0  0  0  0  0  0  0  0  0  0  0  # atno 17370 bound_to 10713
  157.3239  131.0687  151.1911 LP  0  0  0  0  0  0  0  0  0  0  0  0  # atno 17371 bound_to 10713
  140.0478  134.9821  157.1080 LP  0  0  0  0  0  0  0  0  0  0  0  0  # atno 17394 bound_to 11000
  140.4036  134.2056  155.7163 LP  0  0  0  0  0  0  0  0  0  0  0  0  # atno 17395 bound_to 11000

$$$$
