AV-unprocessed.smi:1954|AV-procd|sdf|7897|dock1
  -GOLD-   2272010 53D 1   1.00000     0.00000
 Structure written by MMmdl.
 45 47  0  0  0  0  0  0  0  0  2 V2000
  144.7341  135.8089  153.4464 O   0  0  0  0  0  0  0  0  0  0  0  0
  145.8315  135.9981  152.9221 C   0  0  0  0  0  0  0  0  0  0  0  0
  146.6143  137.0478  153.2099 N   0  0  0  0  0  0  0  0  0  0  0  0
  146.3048  138.1152  154.1614 C   0  0  0  0  0  0  0  0  0  0  0  0
  147.5619  138.6613  154.9100 C   0  0  2  0  0  0  0  0  0  0  0  0
  148.7878  138.0120  154.3148 N   0  3  0  0  0  0  0  0  0  0  0  0
  149.9855  138.8950  154.2378 C   0  0  0  0  0  0  0  0  0  0  0  0
  151.0979  138.2304  153.4130 C   0  0  0  0  0  0  0  0  0  0  0  0
  151.4414  136.9896  154.0124 O   0  0  0  0  0  0  0  0  0  0  0  0
  150.3428  136.0894  154.0154 C   0  0  0  0  0  0  0  0  0  0  0  0
  149.1763  136.6723  154.8333 C   0  0  0  0  0  0  0  0  0  0  0  0
  147.4046  138.4250  156.4393 C   0  0  0  0  0  0  0  0  0  0  0  0
  146.3185  139.3673  156.9657 C   0  0  0  0  0  0  0  0  0  0  0  0
  146.4487  140.9023  156.0184 S   0  0  0  0  0  0  0  0  0  0  0  0
  147.6072  140.2044  154.8086 C   0  0  0  0  0  0  0  0  0  0  0  0
  146.4039  135.2025  152.0021 N   0  0  0  0  0  0  0  0  0  0  0  0
  145.8978  134.0081  151.4227 C   0  0  0  0  0  0  0  0  0  0  0  0
  144.6328  133.4910  151.8060 C   0  0  0  0  0  0  0  0  0  0  0  0
  144.1502  132.3204  151.1891 C   0  0  0  0  0  0  0  0  0  0  0  0
  144.9325  131.7024  150.1981 C   0  0  0  0  0  0  0  0  0  0  0  0
  146.1658  132.2909  149.8655 C   0  0  0  0  0  0  0  0  0  0  0  0
  146.6316  133.4129  150.4545 N   0  0  0  0  0  0  0  0  0  0  0  0
  147.5040  137.1133  152.7366 H   0  0  0  0  0  0  0  0  0  0  0  0
  145.7666  138.9168  153.6553 H   0  0  0  0  0  0  0  0  0  0  0  0
  145.5787  137.7077  154.8638 H   0  0  0  0  0  0  0  0  0  0  0  0
  149.7343  139.8529  153.7850 H   0  0  0  0  0  0  0  0  0  0  0  0
  150.3668  139.1046  155.2378 H   0  0  0  0  0  0  0  0  0  0  0  0
  150.7879  138.0816  152.3774 H   0  0  0  0  0  0  0  0  0  0  0  0
  151.9817  138.8685  153.3928 H   0  0  0  0  0  0  0  0  0  0  0  0
  150.0291  135.8813  152.9908 H   0  0  0  0  0  0  0  0  0  0  0  0
  150.6650  135.1411  154.4460 H   0  0  0  0  0  0  0  0  0  0  0  0
  149.4492  136.7465  155.8869 H   0  0  0  0  0  0  0  0  0  0  0  0
  148.3504  135.9669  154.7504 H   0  0  0  0  0  0  0  0  0  0  0  0
  147.1969  137.3855  156.6944 H   0  0  0  0  0  0  0  0  0  0  0  0
  148.3132  138.7054  156.9715 H   0  0  0  0  0  0  0  0  0  0  0  0
  145.3271  138.9411  156.8126 H   0  0  0  0  0  0  0  0  0  0  0  0
  146.4298  139.5604  158.0329 H   0  0  0  0  0  0  0  0  0  0  0  0
  148.5985  140.5738  155.0738 H   0  0  0  0  0  0  0  0  0  0  0  0
  147.3768  140.5714  153.8080 H   0  0  0  0  0  0  0  0  0  0  0  0
  147.3525  135.4327  151.7450 H   0  0  0  0  0  0  0  0  0  0  0  0
  144.0189  133.9756  152.5495 H   0  0  0  0  0  0  0  0  0  0  0  0
  143.1919  131.9082  151.4678 H   0  0  0  0  0  0  0  0  0  0  0  0
  144.5940  130.8047  149.7021 H   0  0  0  0  0  0  0  0  0  0  0  0
  146.7940  131.8521  149.1044 H   0  0  0  0  0  0  0  0  0  0  0  0
  148.5287  137.8371  153.3540 H   0  0  0  0  0  0  0  0  0  0  0  0
  1  2  2  0  0  0  0
  2  3  1  0  0  0  0
  2 16  1  0  0  0  0
  3  4  1  0  0  0  0
  3 23  1  0  0  0  0
  4  5  1  0  0  0  0
  4 24  1  0  0  0  0
  4 25  1  0  0  0  0
  5 15  1  0  0  0  0
  5  6  1  0  0  0  0
  5 12  1  0  0  0  0
  6 11  1  0  0  0  0
  6  7  1  0  0  0  0
  6 45  1  0  0  0  0
  7  8  1  0  0  0  0
  7 26  1  0  0  0  0
  7 27  1  0  0  0  0
  8  9  1  0  0  0  0
  8 28  1  0  0  0  0
  8 29  1  0  0  0  0
  9 10  1  0  0  0  0
 10 11  1  0  0  0  0
 10 30  1  0  0  0  0
 10 31  1  0  0  0  0
 11 32  1  0  0  0  0
 11 33  1  0  0  0  0
 12 13  1  0  0  0  0
 12 34  1  0  0  0  0
 12 35  1  0  0  0  0
 13 14  1  0  0  0  0
 13 36  1  0  0  0  0
 13 37  1  0  0  0  0
 14 15  1  0  0  0  0
 15 38  1  0  0  0  0
 15 39  1  0  0  0  0
 16 17  1  0  0  0  0
 16 40  1  0  0  0  0
 17 22  1  0  0  0  0
 17 18  2  0  0  0  0
 18 19  1  0  0  0  0
 18 41  1  0  0  0  0
 19 20  2  0  0  0  0
 19 42  1  0  0  0  0
 20 21  1  0  0  0  0
 20 43  1  0  0  0  0
 21 22  2  0  0  0  0
 21 44  1  0  0  0  0
M  CHG  1   6   1
M  END
> <s_m_source_file>
AV-unprocessed.smi

> <i_m_source_file_index>
1954

> <i_lp_mmshare_version>
43012

> <i_f3d_flags>
0

> <s_epik_input>
bjFbY0hdW2NIXVtjSF1bY0hdYzFbTkhdQyg9TylbTkhdW0NIMl1bQ0BdMihbQ0gyXVtDSDJdU1tDSDJdMilOM1tDSDJdW0NIMl1PW0NIMl1bQ0gyXTM=

> <s_epik_cmdline>
J2VwaWtfcHl0aG9uJywgJy1waCcsICc3LjAnLCAnLXRuJywgJzgnLCAnLW1hJywgJzIwMCcsICctbWV0YWxfYmluZGluZycsICctaW1hZScsICc8aW5maWxlLm1hZT4nLCAnLW9tYWUnLCAnPG91dGZpbGUubWFlPic=

> <r_epik_Ionization_Penalty>
2.03222

> <r_epik_Ionization_Penalty_Charging>
2.03219

> <r_epik_Ionization_Penalty_Neutral>
3.25833e-05

> <r_epik_State_Penalty>
2.16328

> <r_epik_Charging_Adjusted_Penalty>
4.19546

> <i_epik_Tot_Q>
1

> <i_epik_Tot_abs_Q>
1

> <r_epik_Metal_State_Penalty>
2.16328

> <b_epik_Metal_Only>
0

> <s_lp_Force_Field>
OPLS_2005

> <r_lp_Energy>
46.5202

> <b_lp_Chiralities_Consistent>
1

> <s_lp_Variant>
AV-unprocessed.smi:1954-4

> <Gold.Version>
5.8.1

> <Gold.Id.Protein>
6NUR|6NUR_protein|mol2

> <Gold.PLP.Fitness>
45.0634

> <Gold.PLP.PLP>
-32.4340

> <Gold.PLP.part.hbond>
-3.6832

> <Gold.PLP.part.metal>
0.0000

> <Gold.PLP.part.buried>
0.1088

> <Gold.PLP.part.nonpolar>
-30.2400

> <Gold.PLP.part.repulsive>
0.6853

> <Gold.PLP.ligand.clash>
0.0000

> <Gold.PLP.ligand.torsion>
2.3962

> <Gold.PLP.Chemscore.Hbond>
4.7630

> <Gold.PLP.Chemscore.CHOScore>
1.0000

> <Gold.PLP.Chemscore.Metal>
0.0000

> <Gold.Chemscore.Hbonds>
donor molecule, donor type, donor heavy atom, donor atom, acceptor molecule, acceptor atom, score
      L1  H     3    23       P1  7948  0.98
      L1  H     6    45       P1  7948  0.76
      L1  H    16    40       P1  7948  1.00
      P1  H 10752 10765       L1     9  0.32
      L1  C    21    44       P1 10747  0.43

> <Gold.PLP.Chemscore.Internal.Correction>
0.1328

> <Gold.Rescore>
     Score         DG    S(hbond)    S(metal)    S(lipo)     H(rot)  DE(clash)    DE(int)     intcor
     14.98     -21.35       2.94        0.00      85.45       1.54       2.58       3.79       ----

> <Gold.Chemscore.Fitness>
14.9777

> <Gold.Chemscore.DG>
-21.3537

> <Gold.Chemscore.ZeroCoef>
-5.4800

> <Gold.Chemscore.Hbond>
2.9361

> <Gold.Chemscore.Metal>
0.0000

> <Gold.Chemscore.Lipo>
85.4538

> <Gold.Chemscore.Internal_Hbond>
0.0000

> <Gold.Chemscore.DEClash>
2.5831

> <Gold.Chemscore.DEInternal>
3.7929

> <Gold.Chemscore.Rot>
1.5355

> <Gold.Chemscore.Internal.Correction>
   9.000000E+99

> <Gold.Chemscore.Hbonds>
donor molecule, donor type, donor heavy atom, donor atom, acceptor molecule, acceptor atom, score
      L1  H     3    23       P1  7948  0.93
      L1  H     6    45       P1  7948  0.38
      L1  H    16    40       P1  7948  0.98
      P1  H 10752 10765       L1     9  0.07

> <Gold.Chemscore.Hbond.Weighted>
-9.8065

> <Gold.Chemscore.Metal.Weighted>
-0.0000

> <Gold.Chemscore.Lipo.Weighted>
-9.9981

> <Gold.Chemscore.Internal_Hbond.Weighted>
0.0000

> <Gold.Chemscore.DEClash.Weighted>
2.5831

> <Gold.Chemscore.DEInternal.Weighted>
3.7929

> <Gold.Chemscore.Rot.Weighted>
3.9309

> <Gold.Chemscore.Internal.Correction.Weighted>
   9.000000E+99

> <Gold.Protein.RotatedTorsions>
[ 6907 6896 6895 6894 ] final  105.00 input  -60.11 | X-H torsion
[ 7974 7965 7964 7962 ] final   69.54 input  175.53 | X-H torsion
[ 8008 7997 7996 7995 ] final  -46.65 input   59.86 | X-H torsion
[ 10167 10162 10161 10158 ] final   70.15 input  -65.29 | X-H torsion
[ 10718 10713 10712 10709 ] final -166.12 input   66.30 | X-H torsion
[ 10763 10752 10751 10750 ] final -169.38 input  -60.55 | X-H torsion
[ 11005 11000 10999 10996 ] final   98.16 input  -57.11 | X-H torsion

> <Gold.Protein.ActiveResidues>
 VAL166  LYS551  ARG553  GLY616  TRP617  ASP618  TYR619  PRO620  LYS621  CYS622 
 ASP623  PHE694  ASN695  SER759  ASP760  ASP761  ALA762  ILE779  LEU786  VAL792 
 PHE793  MET794  SER795  GLU796  ALA797  LYS798  CYS799  TRP800  GLU811  SER814 

> <Gold.Protein.RotatedAtoms>
  152.5245  133.9593  159.7709 H   0  0  0  0  0  0  0  0  0  0  0  0  # atno 6907 bound_to 6896
  150.9887  133.6163  159.2718 H   0  0  0  0  0  0  0  0  0  0  0  0  # atno 6908 bound_to 6896
  151.3314  135.0848  159.9393 H   0  0  0  0  0  0  0  0  0  0  0  0  # atno 6909 bound_to 6896
  145.7892  139.2925  143.1220 H   0  0  0  0  0  0  0  0  0  0  0  0  # atno 7974 bound_to 7965
  154.4009  140.1366  156.4047 H   0  0  0  0  0  0  0  0  0  0  0  0  # atno 8008 bound_to 7997
  155.7791  140.3482  155.5267 H   0  0  0  0  0  0  0  0  0  0  0  0  # atno 8009 bound_to 7997
  155.8691  140.0969  157.1552 H   0  0  0  0  0  0  0  0  0  0  0  0  # atno 8010 bound_to 7997
  140.0601  144.5240  150.7301 H   0  0  0  0  0  0  0  0  0  0  0  0  # atno 10167 bound_to 10162
  156.6633  130.9054  151.3032 H   0  0  0  0  0  0  0  0  0  0  0  0  # atno 10718 bound_to 10713
  154.6529  135.2914  154.9965 H   0  0  0  0  0  0  0  0  0  0  0  0  # atno 10763 bound_to 10752
  154.1051  135.6571  153.4879 H   0  0  0  0  0  0  0  0  0  0  0  0  # atno 10764 bound_to 10752
  153.0386  135.5252  154.7444 H   0  0  0  0  0  0  0  0  0  0  0  0  # atno 10765 bound_to 10752
  139.8773  134.9036  156.4415 H   0  0  0  0  0  0  0  0  0  0  0  0  # atno 11005 bound_to 11000
  145.9995  140.8533  143.0026 LP  0  0  0  0  0  0  0  0  0  0  0  0  # atno 17320 bound_to 7965
  144.6784  140.2331  143.7353 LP  0  0  0  0  0  0  0  0  0  0  0  0  # atno 17321 bound_to 7965
  140.7176  143.2559  151.4384 LP  0  0  0  0  0  0  0  0  0  0  0  0  # atno 17342 bound_to 10162
  139.5899  144.1521  152.2076 LP  0  0  0  0  0  0  0  0  0  0  0  0  # atno 17343 bound_to 10162
  157.7102  130.9432  150.1064 LP  0  0  0  0  0  0  0  0  0  0  0  0  # atno 17370 bound_to 10713
  156.1994  130.3659  149.8807 LP  0  0  0  0  0  0  0  0  0  0  0  0  # atno 17371 bound_to 10713
  140.8996  133.7789  155.9665 LP  0  0  0  0  0  0  0  0  0  0  0  0  # atno 17394 bound_to 11000
  140.8665  134.2778  157.5210 LP  0  0  0  0  0  0  0  0  0  0  0  0  # atno 17395 bound_to 11000

$$$$
