AV-unprocessed.smi:601|AV-procd|sdf|3031|dock8
  -GOLD-   2262023543D 1   1.00000     0.00000
 Structure written by MMmdl.
 50 51  0  0  0  0  0  0  0  0  1 V2000
  148.2343  141.4113  155.3793 C   0  0  0  0  0  0  0  0  0  0  0  0
  147.3081  140.3881  156.0496 C   0  0  0  0  0  0  0  0  0  0  0  0
  147.9671  139.6214  157.2073 C   0  0  0  0  0  0  0  0  0  0  0  0
  147.1755  138.3740  157.6496 C   0  0  0  0  0  0  0  0  0  0  0  0
  147.9520  137.4893  158.5325 N   0  0  0  0  0  0  0  0  0  0  0  0
  147.4684  137.1094  159.7452 C   0  0  0  0  0  0  0  0  0  0  0  0
  146.3739  137.4988  160.1571 O   0  0  0  0  0  0  0  0  0  0  0  0
  148.3158  136.1681  160.6407 C   0  0  2  0  0  0  0  0  0  0  0  0
  147.6164  134.8690  161.0608 C   0  0  0  0  0  0  0  0  0  0  0  0
  146.7997  135.2604  162.2852 C   0  0  0  0  0  0  0  0  0  0  0  0
  147.4201  136.5846  162.7418 C   0  0  0  0  0  0  0  0  0  0  0  0
  148.5577  136.7743  161.9058 O   0  0  0  0  0  0  0  0  0  0  0  0
  149.1499  136.9690  158.0105 C   0  0  0  0  0  0  0  0  0  0  0  0
  149.1602  136.0303  157.0177 C   0  0  0  0  0  0  0  0  0  0  0  0
  147.9711  135.5821  156.4631 N   0  0  0  0  0  0  0  0  0  0  0  0
  150.3560  135.5155  156.5082 N   0  0  0  0  0  0  0  0  0  0  0  0
  150.4169  134.5409  155.4373 C   0  0  0  0  0  0  0  0  0  0  0  0
  149.7642  133.2024  155.8218 C   0  0  0  0  0  0  0  0  0  0  0  0
  149.7230  132.2157  154.6508 C   0  0  0  0  0  0  0  0  0  0  0  0
  151.5980  135.9858  156.9986 C   0  0  0  0  0  0  0  0  0  0  0  0
  152.6876  135.6101  156.5647 O   0  0  0  0  0  0  0  0  0  0  0  0
  151.5608  136.9239  158.0243 N   0  0  0  0  0  0  0  0  0  0  0  0
  150.4069  137.4583  158.5914 C   0  0  0  0  0  0  0  0  0  0  0  0
  150.5037  138.2801  159.5018 O   0  0  0  0  0  0  0  0  0  0  0  0
  152.4460  137.2503  158.3835 H   0  0  0  0  0  0  0  0  0  0  0  0
  147.6958  141.9777  154.6193 H   0  0  0  0  0  0  0  0  0  0  0  0
  149.0793  140.9278  154.8893 H   0  0  0  0  0  0  0  0  0  0  0  0
  148.6276  142.1221  156.1063 H   0  0  0  0  0  0  0  0  0  0  0  0
  146.4335  140.9139  156.4340 H   0  0  0  0  0  0  0  0  0  0  0  0
  146.9333  139.6852  155.3048 H   0  0  0  0  0  0  0  0  0  0  0  0
  148.9792  139.3415  156.9179 H   0  0  0  0  0  0  0  0  0  0  0  0
  148.0727  140.3038  158.0509 H   0  0  0  0  0  0  0  0  0  0  0  0
  146.2531  138.6732  158.1504 H   0  0  0  0  0  0  0  0  0  0  0  0
  146.8571  137.8143  156.7692 H   0  0  0  0  0  0  0  0  0  0  0  0
  149.2570  135.9409  160.1404 H   0  0  0  0  0  0  0  0  0  0  0  0
  147.0107  134.4168  160.2744 H   0  0  0  0  0  0  0  0  0  0  0  0
  148.3702  134.1342  161.3458 H   0  0  0  0  0  0  0  0  0  0  0  0
  145.7491  135.4018  162.0287 H   0  0  0  0  0  0  0  0  0  0  0  0
  146.8555  134.4939  163.0588 H   0  0  0  0  0  0  0  0  0  0  0  0
  146.7197  137.4088  162.5994 H   0  0  0  0  0  0  0  0  0  0  0  0
  147.7128  136.5679  163.7919 H   0  0  0  0  0  0  0  0  0  0  0  0
  147.0776  135.9344  156.7757 H   0  0  0  0  0  0  0  0  0  0  0  0
  147.9578  135.0059  155.6340 H   0  0  0  0  0  0  0  0  0  0  0  0
  149.9622  134.9811  154.5482 H   0  0  0  0  0  0  0  0  0  0  0  0
  151.4686  134.4145  155.1809 H   0  0  0  0  0  0  0  0  0  0  0  0
  150.3108  132.7525  156.6516 H   0  0  0  0  0  0  0  0  0  0  0  0
  148.7486  133.3743  156.1801 H   0  0  0  0  0  0  0  0  0  0  0  0
  149.2639  131.2741  154.9527 H   0  0  0  0  0  0  0  0  0  0  0  0
  150.7266  131.9951  154.2862 H   0  0  0  0  0  0  0  0  0  0  0  0
  149.1441  132.6173  153.8187 H   0  0  0  0  0  0  0  0  0  0  0  0
  1  2  1  0  0  0  0
  1 26  1  0  0  0  0
  1 27  1  0  0  0  0
  1 28  1  0  0  0  0
  2  3  1  0  0  0  0
  2 29  1  0  0  0  0
  2 30  1  0  0  0  0
  3  4  1  0  0  0  0
  3 31  1  0  0  0  0
  3 32  1  0  0  0  0
  4  5  1  0  0  0  0
  4 33  1  0  0  0  0
  4 34  1  0  0  0  0
  5  6  1  0  0  0  0
  5 13  1  0  0  0  0
  6  7  2  0  0  0  0
  6  8  1  0  0  0  0
  8 12  1  0  0  0  0
  8  9  1  0  0  0  0
  8 35  1  0  0  0  0
  9 10  1  0  0  0  0
  9 36  1  0  0  0  0
  9 37  1  0  0  0  0
 10 11  1  0  0  0  0
 10 38  1  0  0  0  0
 10 39  1  0  0  0  0
 11 12  1  0  0  0  0
 11 40  1  0  0  0  0
 11 41  1  0  0  0  0
 13 23  1  0  0  0  0
 13 14  2  0  0  0  0
 14 15  1  0  0  0  0
 14 16  1  0  0  0  0
 15 42  1  0  0  0  0
 15 43  1  0  0  0  0
 16 17  1  0  0  0  0
 16 20  1  0  0  0  0
 17 18  1  0  0  0  0
 17 44  1  0  0  0  0
 17 45  1  0  0  0  0
 18 19  1  0  0  0  0
 18 46  1  0  0  0  0
 18 47  1  0  0  0  0
 19 48  1  0  0  0  0
 19 49  1  0  0  0  0
 19 50  1  0  0  0  0
 20 21  2  0  0  0  0
 20 22  1  0  0  0  0
 22 25  1  0  0  0  0
 22 23  1  0  0  0  0
 23 24  2  0  0  0  0
M  END
> <s_m_source_file>
AV-unprocessed.smi

> <i_m_source_file_index>
601

> <i_lp_mmshare_version>
43012

> <i_f3d_flags>
0

> <s_epik_input>
TzFbQ0gyXVtDSDJdW0NIMl1bQ0BIXTFDKD1PKU4oW0NIMl1bQ0gyXVtDSDJdW0NIM10pYzJjKFtOSDJdKW4oW0NIMl1bQ0gyXVtDSDNdKWMoPU8pW25IXWMyPU8=

> <s_epik_cmdline>
J2VwaWtfcHl0aG9uJywgJy1waCcsICc3LjAnLCAnLXRuJywgJzgnLCAnLW1hJywgJzIwMCcsICctbWV0YWxfYmluZGluZycsICctaW1hZScsICc8aW5maWxlLm1hZT4nLCAnLW9tYWUnLCAnPG91dGZpbGUubWFlPic=

> <r_lp_tautomer_probability>
1

> <r_epik_Ionization_Penalty>
6.19718e-05

> <r_epik_Ionization_Penalty_Charging>
2.78773e-05

> <r_epik_Ionization_Penalty_Neutral>
3.40944e-05

> <r_epik_State_Penalty>
-0

> <r_epik_Charging_Adjusted_Penalty>
2.78773e-05

> <i_epik_Tot_Q>
0

> <i_epik_Tot_abs_Q>
0

> <r_epik_Metal_State_Penalty>
0.0271358

> <b_epik_Metal_Only>
0

> <s_lp_Force_Field>
OPLS_2005

> <r_lp_Energy>
42.1273

> <b_lp_Chiralities_Consistent>
1

> <s_lp_Variant>
AV-unprocessed.smi:601-1

> <Gold.Version>
5.8.1

> <Gold.Id.Protein>
6NUR|6NUR_protein|mol2

> <Gold.PLP.Fitness>
36.3132

> <Gold.PLP.PLP>
-29.5427

> <Gold.PLP.part.hbond>
-3.8623

> <Gold.PLP.part.metal>
0.0000

> <Gold.PLP.part.buried>
-2.6961

> <Gold.PLP.part.nonpolar>
-23.9403

> <Gold.PLP.part.repulsive>
0.1050

> <Gold.PLP.ligand.clash>
0.0000

> <Gold.PLP.ligand.torsion>
1.5097

> <Gold.PLP.Chemscore.Hbond>
2.5100

> <Gold.PLP.Chemscore.CHOScore>
0.0000

> <Gold.PLP.Chemscore.Metal>
0.0000

> <Gold.Chemscore.Hbonds>
donor molecule, donor type, donor heavy atom, donor atom, acceptor molecule, acceptor atom, score
      P1  H  6931  6943       L1    12  1.00
      P1  H  6934  6947       L1     7  0.55
      P1  H 10752 10765       L1    21  0.91

> <Gold.PLP.Chemscore.Internal.Correction>
2.2599

> <Gold.Rescore>
     Score         DG    S(hbond)    S(metal)    S(lipo)     H(rot)  DE(clash)    DE(int)     intcor
     10.87     -13.71       1.93        0.00      58.10       1.96       0.07       2.76       ----

> <Gold.Chemscore.Fitness>
10.8737

> <Gold.Chemscore.DG>
-13.7088

> <Gold.Chemscore.ZeroCoef>
-5.4800

> <Gold.Chemscore.Hbond>
1.9309

> <Gold.Chemscore.Metal>
0.0000

> <Gold.Chemscore.Lipo>
58.1018

> <Gold.Chemscore.Internal_Hbond>
0.0000

> <Gold.Chemscore.DEClash>
0.0701

> <Gold.Chemscore.DEInternal>
2.7649

> <Gold.Chemscore.Rot>
1.9603

> <Gold.Chemscore.Internal.Correction>
   9.000000E+99

> <Gold.Chemscore.Hbonds>
donor molecule, donor type, donor heavy atom, donor atom, acceptor molecule, acceptor atom, score
      P1  H  6931  6943       L1    12  0.74
      P1  H  6934  6947       L1     7  0.03
      P1  H 10752 10765       L1    21  0.89

> <Gold.Chemscore.Hbond.Weighted>
-6.4494

> <Gold.Chemscore.Metal.Weighted>
-0.0000

> <Gold.Chemscore.Lipo.Weighted>
-6.7979

> <Gold.Chemscore.Internal_Hbond.Weighted>
0.0000

> <Gold.Chemscore.DEClash.Weighted>
0.0701

> <Gold.Chemscore.DEInternal.Weighted>
2.7649

> <Gold.Chemscore.Rot.Weighted>
5.0185

> <Gold.Chemscore.Internal.Correction.Weighted>
   9.000000E+99

> <Gold.Protein.RotatedTorsions>
[ 6907 6896 6895 6894 ] final   12.99 input  -60.11 | X-H torsion
[ 7974 7965 7964 7962 ] final -152.51 input  175.53 | X-H torsion
[ 8008 7997 7996 7995 ] final   63.62 input   59.86 | X-H torsion
[ 10167 10162 10161 10158 ] final -140.97 input  -65.29 | X-H torsion
[ 10718 10713 10712 10709 ] final  -26.45 input   66.30 | X-H torsion
[ 10763 10752 10751 10750 ] final -124.73 input  -60.55 | X-H torsion
[ 11005 11000 10999 10996 ] final -152.66 input  -57.11 | X-H torsion

> <Gold.Protein.ActiveResidues>
 VAL166  LYS551  ARG553  GLY616  TRP617  ASP618  TYR619  PRO620  LYS621  CYS622 
 ASP623  PHE694  ASN695  SER759  ASP760  ASP761  ALA762  ILE779  LEU786  VAL792 
 PHE793  MET794  SER795  GLU796  ALA797  LYS798  CYS799  TRP800  GLU811  SER814 

> <Gold.Protein.RotatedAtoms>
  151.7791  135.0766  160.0370 H   0  0  0  0  0  0  0  0  0  0  0  0  # atno 6907 bound_to 6896
  152.3235  133.5876  159.5769 H   0  0  0  0  0  0  0  0  0  0  0  0  # atno 6908 bound_to 6896
  150.7383  133.9891  159.3643 H   0  0  0  0  0  0  0  0  0  0  0  0  # atno 6909 bound_to 6896
  144.7790  140.4652  143.5852 H   0  0  0  0  0  0  0  0  0  0  0  0  # atno 7974 bound_to 7965
  155.6332  140.3496  155.4690 H   0  0  0  0  0  0  0  0  0  0  0  0  # atno 8008 bound_to 7997
  155.9986  140.1208  157.0593 H   0  0  0  0  0  0  0  0  0  0  0  0  # atno 8009 bound_to 7997
  154.4241  140.1105  156.5652 H   0  0  0  0  0  0  0  0  0  0  0  0  # atno 8010 bound_to 7997
  139.8230  143.7548  152.2666 H   0  0  0  0  0  0  0  0  0  0  0  0  # atno 10167 bound_to 10162
  156.4511  130.4484  149.6989 H   0  0  0  0  0  0  0  0  0  0  0  0  # atno 10718 bound_to 10713
  154.8727  135.4054  154.3152 H   0  0  0  0  0  0  0  0  0  0  0  0  # atno 10763 bound_to 10752
  153.3990  135.7017  153.6445 H   0  0  0  0  0  0  0  0  0  0  0  0  # atno 10764 bound_to 10752
  153.5196  135.3690  155.2596 H   0  0  0  0  0  0  0  0  0  0  0  0  # atno 10765 bound_to 10752
  140.7165  134.3775  157.5190 H   0  0  0  0  0  0  0  0  0  0  0  0  # atno 11005 bound_to 11000
  145.6103  139.1512  143.3079 LP  0  0  0  0  0  0  0  0  0  0  0  0  # atno 17320 bound_to 7965
  146.1987  140.6219  142.9112 LP  0  0  0  0  0  0  0  0  0  0  0  0  # atno 17321 bound_to 7965
  139.7732  144.7469  151.0194 LP  0  0  0  0  0  0  0  0  0  0  0  0  # atno 17342 bound_to 10162
  140.7812  143.4622  151.0262 LP  0  0  0  0  0  0  0  0  0  0  0  0  # atno 17343 bound_to 10162
  156.3815  130.7581  151.2575 LP  0  0  0  0  0  0  0  0  0  0  0  0  # atno 17370 bound_to 10713
  157.7503  131.0294  150.4092 LP  0  0  0  0  0  0  0  0  0  0  0  0  # atno 17371 bound_to 10713
  139.8858  134.8925  156.2618 LP  0  0  0  0  0  0  0  0  0  0  0  0  # atno 17394 bound_to 11000
  141.0040  133.7134  156.1005 LP  0  0  0  0  0  0  0  0  0  0  0  0  # atno 17395 bound_to 11000

$$$$
