AV-unprocessed.smi:794|AV-procd|sdf|3760|dock7
  -GOLD-   22720 1193D 1   1.00000     0.00000
 Structure written by MMmdl.
 41 43  0  0  0  0  0  0  0  0  1 V2000
  146.1691  140.5904  156.6062 C   0  0  0  0  0  0  0  0  0  0  0  0
  146.4901  140.1151  155.2222 C   0  0  0  0  0  0  0  0  0  0  0  0
  146.4819  138.7450  154.9435 N   0  0  0  0  0  0  0  0  0  0  0  0
  146.7900  138.4854  153.6688 C   0  0  0  0  0  0  0  0  0  0  0  0
  146.8523  137.1824  153.1087 N   0  0  0  0  0  0  0  0  0  0  0  0
  145.9133  136.2205  153.1384 C   0  0  0  0  0  0  0  0  0  0  0  0
  144.8214  136.3081  153.7004 O   0  0  0  0  0  0  0  0  0  0  0  0
  146.3106  135.1337  152.4605 N   0  0  0  0  0  0  0  0  0  0  0  0
  145.5309  133.9053  152.2997 C   0  0  2  0  0  0  0  0  0  0  0  0
  146.4146  132.7864  151.7067 C   0  0  1  0  0  0  0  0  0  0  0  0
  145.7147  131.4306  151.9114 C   0  0  0  0  0  0  0  0  0  0  0  0
  144.5469  131.5028  150.9093 C   0  0  0  0  0  0  0  0  0  0  0  0
  144.7350  132.8896  150.2617 C   0  0  2  0  0  0  0  0  0  0  0  0
  146.2536  132.9937  150.2057 C   0  0  0  0  0  0  0  0  0  0  0  0
  144.3525  133.9907  151.2814 C   0  0  2  0  0  0  0  0  0  0  0  0
  144.1094  135.3706  150.6281 C   0  0  0  0  0  0  0  0  0  0  0  0
  145.3227  135.9092  150.1464 O   0  0  0  0  0  0  0  0  0  0  0  0
  147.1141  139.9234  152.7162 S   0  0  0  0  0  0  0  0  0  0  0  0
  146.8061  140.8955  154.1339 C   0  0  0  0  0  0  0  0  0  0  0  0
  146.9022  142.3839  154.0766 C   0  0  0  0  0  0  0  0  0  0  0  0
  146.9629  141.2276  156.9968 H   0  0  0  0  0  0  0  0  0  0  0  0
  146.0449  139.7592  157.3011 H   0  0  0  0  0  0  0  0  0  0  0  0
  145.2452  141.1689  156.6173 H   0  0  0  0  0  0  0  0  0  0  0  0
  147.7044  136.9640  152.6140 H   0  0  0  0  0  0  0  0  0  0  0  0
  147.2237  135.1485  152.0301 H   0  0  0  0  0  0  0  0  0  0  0  0
  145.1621  133.5953  153.2794 H   0  0  0  0  0  0  0  0  0  0  0  0
  147.4446  132.7950  152.0657 H   0  0  0  0  0  0  0  0  0  0  0  0
  146.3833  130.6062  151.6606 H   0  0  0  0  0  0  0  0  0  0  0  0
  145.3760  131.2854  152.9379 H   0  0  0  0  0  0  0  0  0  0  0  0
  144.6344  130.7115  150.1635 H   0  0  0  0  0  0  0  0  0  0  0  0
  143.5751  131.3976  151.3928 H   0  0  0  0  0  0  0  0  0  0  0  0
  144.2351  132.9797  149.2970 H   0  0  0  0  0  0  0  0  0  0  0  0
  146.6141  133.9631  149.8592 H   0  0  0  0  0  0  0  0  0  0  0  0
  146.7189  132.2077  149.6082 H   0  0  0  0  0  0  0  0  0  0  0  0
  143.4290  133.7095  151.7907 H   0  0  0  0  0  0  0  0  0  0  0  0
  143.4330  135.2776  149.7783 H   0  0  0  0  0  0  0  0  0  0  0  0
  143.6589  136.0738  151.3287 H   0  0  0  0  0  0  0  0  0  0  0  0
  145.4835  135.5623  149.2821 H   0  0  0  0  0  0  0  0  0  0  0  0
  146.0653  142.8475  154.5993 H   0  0  0  0  0  0  0  0  0  0  0  0
  146.8908  142.7410  153.0465 H   0  0  0  0  0  0  0  0  0  0  0  0
  147.8250  142.7288  154.5430 H   0  0  0  0  0  0  0  0  0  0  0  0
  1  2  1  0  0  0  0
  1 21  1  0  0  0  0
  1 22  1  0  0  0  0
  1 23  1  0  0  0  0
  2 19  2  0  0  0  0
  2  3  1  0  0  0  0
  3  4  2  0  0  0  0
  4  5  1  0  0  0  0
  4 18  1  0  0  0  0
  5  6  1  0  0  0  0
  5 24  1  0  0  0  0
  6  7  2  0  0  0  0
  6  8  1  0  0  0  0
  8  9  1  0  0  0  0
  8 25  1  0  0  0  0
  9 15  1  0  0  0  0
  9 10  1  0  0  0  0
  9 26  1  0  0  0  0
 10 14  1  0  0  0  0
 10 11  1  0  0  0  0
 10 27  1  0  0  0  0
 11 12  1  0  0  0  0
 11 28  1  0  0  0  0
 11 29  1  0  0  0  0
 12 13  1  0  0  0  0
 12 30  1  0  0  0  0
 12 31  1  0  0  0  0
 13 14  1  0  0  0  0
 13 15  1  0  0  0  0
 13 32  1  0  0  0  0
 14 33  1  0  0  0  0
 14 34  1  0  0  0  0
 15 16  1  0  0  0  0
 15 35  1  0  0  0  0
 16 17  1  0  0  0  0
 16 36  1  0  0  0  0
 16 37  1  0  0  0  0
 17 38  1  0  0  0  0
 18 19  1  0  0  0  0
 19 20  1  0  0  0  0
 20 39  1  0  0  0  0
 20 40  1  0  0  0  0
 20 41  1  0  0  0  0
M  END
> <s_m_source_file>
AV-unprocessed.smi

> <i_m_source_file_index>
794

> <i_lp_mmshare_version>
43012

> <i_f3d_flags>
0

> <s_epik_input>
W0NIM11jMW5jKHNjMVtDSDNdKVtOSF1DKD1PKVtOSF1bQ0BIXShbQ0BASF0yMylbQ0BIXShbQ0gyXVtPSF0pW0NAQEhdKFtDSDJdMylbQ0gyXVtDSDJdMg==

> <s_epik_cmdline>
J2VwaWtfcHl0aG9uJywgJy1waCcsICc3LjAnLCAnLXRuJywgJzgnLCAnLW1hJywgJzIwMCcsICctbWV0YWxfYmluZGluZycsICctaW1hZScsICc8aW5maWxlLm1hZT4nLCAnLW9tYWUnLCAnPG91dGZpbGUubWFlPic=

> <r_lp_tautomer_probability>
0.999

> <r_epik_Ionization_Penalty>
0.000713029

> <r_epik_Ionization_Penalty_Charging>
0

> <r_epik_Ionization_Penalty_Neutral>
0.000713029

> <r_epik_State_Penalty>
0.000177984

> <r_epik_Charging_Adjusted_Penalty>
0.000177984

> <i_epik_Tot_Q>
0

> <i_epik_Tot_abs_Q>
0

> <r_epik_Metal_State_Penalty>
-0

> <b_epik_Metal_Only>
0

> <s_lp_Force_Field>
OPLS_2005

> <r_lp_Energy>
48.2777

> <b_lp_Chiralities_Consistent>
1

> <s_lp_Variant>
AV-unprocessed.smi:794-5

> <Gold.Version>
5.8.1

> <Gold.Id.Protein>
6NUR|6NUR_protein|mol2

> <Gold.PLP.Fitness>
40.3992

> <Gold.PLP.PLP>
-33.0405

> <Gold.PLP.part.hbond>
-3.9595

> <Gold.PLP.part.metal>
0.0000

> <Gold.PLP.part.buried>
-3.6792

> <Gold.PLP.part.nonpolar>
-25.3483

> <Gold.PLP.part.repulsive>
0.1528

> <Gold.PLP.ligand.clash>
0.0000

> <Gold.PLP.ligand.torsion>
0.6952

> <Gold.PLP.Chemscore.Hbond>
2.9120

> <Gold.PLP.Chemscore.CHOScore>
0.0000

> <Gold.PLP.Chemscore.Metal>
0.0000

> <Gold.Chemscore.Hbonds>
donor molecule, donor type, donor heavy atom, donor atom, acceptor molecule, acceptor atom, score
      L1  H     5    24       P1  7948  1.00
      L1  H     8    25       P1  7948  0.91
      L1  H    17    38       P1  7921  1.00

> <Gold.PLP.Chemscore.Internal.Correction>
0.0131

> <Gold.Rescore>
     Score         DG    S(hbond)    S(metal)    S(lipo)     H(rot)  DE(clash)    DE(int)     intcor
     16.95     -20.24       2.94        0.00      81.15       1.78       0.13       3.16       ----

> <Gold.Chemscore.Fitness>
16.9517

> <Gold.Chemscore.DG>
-20.2408

> <Gold.Chemscore.ZeroCoef>
-5.4800

> <Gold.Chemscore.Hbond>
2.9407

> <Gold.Chemscore.Metal>
0.0000

> <Gold.Chemscore.Lipo>
81.1548

> <Gold.Chemscore.Internal_Hbond>
0.0000

> <Gold.Chemscore.DEClash>
0.1261

> <Gold.Chemscore.DEInternal>
3.1630

> <Gold.Chemscore.Rot>
1.7798

> <Gold.Chemscore.Internal.Correction>
   9.000000E+99

> <Gold.Chemscore.Hbonds>
donor molecule, donor type, donor heavy atom, donor atom, acceptor molecule, acceptor atom, score
      L1  H     5    24       P1  7948  0.99
      L1  H     8    25       P1  7948  0.83
      L1  H    17    38       P1  7921  1.00

> <Gold.Chemscore.Hbond.Weighted>
-9.8219

> <Gold.Chemscore.Metal.Weighted>
-0.0000

> <Gold.Chemscore.Lipo.Weighted>
-9.4951

> <Gold.Chemscore.Internal_Hbond.Weighted>
0.0000

> <Gold.Chemscore.DEClash.Weighted>
0.1261

> <Gold.Chemscore.DEInternal.Weighted>
3.1630

> <Gold.Chemscore.Rot.Weighted>
4.5562

> <Gold.Chemscore.Internal.Correction.Weighted>
   9.000000E+99

> <Gold.Protein.RotatedTorsions>
[ 6907 6896 6895 6894 ] final -152.15 input  -60.11 | X-H torsion
[ 7974 7965 7964 7962 ] final -164.92 input  175.53 | X-H torsion
[ 8008 7997 7996 7995 ] final -125.17 input   59.86 | X-H torsion
[ 10167 10162 10161 10158 ] final -127.93 input  -65.29 | X-H torsion
[ 10718 10713 10712 10709 ] final  143.16 input   66.30 | X-H torsion
[ 10763 10752 10751 10750 ] final  176.37 input  -60.55 | X-H torsion
[ 11005 11000 10999 10996 ] final  -51.90 input  -57.11 | X-H torsion

> <Gold.Protein.ActiveResidues>
 VAL166  LYS551  ARG553  GLY616  TRP617  ASP618  TYR619  PRO620  LYS621  CYS622 
 ASP623  PHE694  ASN695  SER759  ASP760  ASP761  ALA762  ILE779  LEU786  VAL792 
 PHE793  MET794  SER795  GLU796  ALA797  LYS798  CYS799  TRP800  GLU811  SER814 

> <Gold.Protein.RotatedAtoms>
  151.2236  133.4489  159.2601 H   0  0  0  0  0  0  0  0  0  0  0  0  # atno 6907 bound_to 6896
  151.0861  134.9888  159.8390 H   0  0  0  0  0  0  0  0  0  0  0  0  # atno 6908 bound_to 6896
  152.5429  134.2173  159.8826 H   0  0  0  0  0  0  0  0  0  0  0  0  # atno 6909 bound_to 6896
  144.7284  140.2890  143.6223 H   0  0  0  0  0  0  0  0  0  0  0  0  # atno 7974 bound_to 7965
  155.2089  140.0418  157.2930 H   0  0  0  0  0  0  0  0  0  0  0  0  # atno 8008 bound_to 7997
  154.6025  140.2456  155.7745 H   0  0  0  0  0  0  0  0  0  0  0  0  # atno 8009 bound_to 7997
  156.2330  140.2931  156.0246 H   0  0  0  0  0  0  0  0  0  0  0  0  # atno 8010 bound_to 7997
  139.9557  143.6006  152.2461 H   0  0  0  0  0  0  0  0  0  0  0  0  # atno 10167 bound_to 10162
  157.3722  131.0980  151.0818 H   0  0  0  0  0  0  0  0  0  0  0  0  # atno 10718 bound_to 10713
  154.4802  135.2774  155.1576 H   0  0  0  0  0  0  0  0  0  0  0  0  # atno 10763 bound_to 10752
  154.3289  135.6194  153.5546 H   0  0  0  0  0  0  0  0  0  0  0  0  # atno 10764 bound_to 10752
  152.9874  135.5761  154.5201 H   0  0  0  0  0  0  0  0  0  0  0  0  # atno 10765 bound_to 10752
  141.0896  133.6635  156.3945 H   0  0  0  0  0  0  0  0  0  0  0  0  # atno 11005 bound_to 11000
  145.7873  139.1914  143.2123 LP  0  0  0  0  0  0  0  0  0  0  0  0  # atno 17320 bound_to 7965
  146.0784  140.7791  142.9653 LP  0  0  0  0  0  0  0  0  0  0  0  0  # atno 17321 bound_to 7965
  139.6593  144.7662  151.1993 LP  0  0  0  0  0  0  0  0  0  0  0  0  # atno 17342 bound_to 10162
  140.7569  143.6035  150.8676 LP  0  0  0  0  0  0  0  0  0  0  0  0  # atno 17343 bound_to 10162
  157.1918  130.6355  149.5707 LP  0  0  0  0  0  0  0  0  0  0  0  0  # atno 17370 bound_to 10713
  155.9758  130.4719  150.6483 LP  0  0  0  0  0  0  0  0  0  0  0  0  # atno 17371 bound_to 10713
  140.5284  134.6237  157.5341 LP  0  0  0  0  0  0  0  0  0  0  0  0  # atno 17394 bound_to 11000
  139.9719  134.7278  156.0024 LP  0  0  0  0  0  0  0  0  0  0  0  0  # atno 17395 bound_to 11000

$$$$
