AV-unprocessed.smi:212|AV-procd|sdf|1617|dock3
  -GOLD-   2262019543D 1   1.00000     0.00000
 Structure written by MMmdl.
 65 68  0  0  0  0  0  0  0  0  2 V2000
  142.5557  137.4579  153.4089 C   0  0  0  0  0  0  0  0  0  0  0  0
  143.4222  136.7044  152.3813 C   0  0  2  0  0  0  0  0  0  0  0  0
  143.2290  135.1759  152.4566 C   0  0  0  0  0  0  0  0  0  0  0  0
  144.0261  134.4892  151.4083 N   0  3  2  0  0  0  0  0  0  0  0  0
  143.7827  133.0232  151.3517 C   0  0  0  0  0  0  0  0  0  0  0  0
  144.2388  132.3971  150.0131 C   0  0  0  0  0  0  0  0  0  0  0  0
  143.8493  133.3129  148.8408 C   0  0  0  0  0  0  0  0  0  0  0  0
  145.7520  132.1119  149.9861 C   0  0  0  0  0  0  0  0  0  0  0  0
  143.5522  131.1770  149.8158 O   0  0  0  0  0  0  0  0  0  0  0  0
  145.4678  134.8431  151.4726 C   0  0  0  0  0  0  0  0  0  0  0  0
  145.6751  136.3713  151.4429 C   0  0  0  0  0  0  0  0  0  0  0  0
  144.8444  137.0597  152.4280 N   0  0  0  0  0  0  0  0  0  0  0  0
  145.4155  137.2264  153.6444 C   0  0  0  0  0  0  0  0  0  0  0  0
  144.9461  136.5459  154.7221 N   0  0  0  0  0  0  0  0  0  0  0  0
  145.5078  136.7258  155.9216 C   0  0  0  0  0  0  0  0  0  0  0  0
  146.5254  137.5227  156.2561 N   0  0  0  0  0  0  0  0  0  0  0  0
  146.9957  138.2072  155.1740 C   0  0  0  0  0  0  0  0  0  0  0  0
  146.5024  138.1169  153.8429 C   0  0  0  0  0  0  0  0  0  0  0  0
  147.2237  138.9587  153.0066 N   0  0  0  0  0  0  0  0  0  0  0  0
  148.0974  139.5174  153.7997 C   0  0  0  0  0  0  0  0  0  0  0  0
  148.0345  139.1198  155.1165 N   0  0  0  0  0  0  0  0  0  0  0  0
  148.8793  139.5877  156.2021 C   0  0  0  0  0  0  0  0  0  0  0  0
  149.9583  140.6027  155.7478 C   0  0  2  0  0  0  0  0  0  0  0  0
  151.2271  139.8724  155.2362 C   0  0  0  0  0  0  0  0  0  0  0  0
  151.6497  138.8636  156.1292 O   0  0  0  0  0  0  0  0  0  0  0  0
  150.2789  141.6033  156.8930 C   0  0  2  0  0  0  0  0  0  0  0  0
  151.2885  142.6832  156.5378 C   0  0  0  0  0  0  0  0  0  0  0  0
  151.7257  143.1893  157.9076 C   0  0  0  0  0  0  0  0  0  0  0  0
  151.6433  142.0664  158.7761 O   0  0  0  0  0  0  0  0  0  0  0  0
  150.9599  140.9991  158.1269 C   0  0  0  0  0  0  0  0  0  0  0  0
  141.4979  137.2453  153.2534 H   0  0  0  0  0  0  0  0  0  0  0  0
  142.6879  138.5366  153.3191 H   0  0  0  0  0  0  0  0  0  0  0  0
  142.7974  137.1734  154.4336 H   0  0  0  0  0  0  0  0  0  0  0  0
  143.0763  137.0244  151.3974 H   0  0  0  0  0  0  0  0  0  0  0  0
  143.5110  134.7966  153.4398 H   0  0  0  0  0  0  0  0  0  0  0  0
  142.1736  134.9383  152.3167 H   0  0  0  0  0  0  0  0  0  0  0  0
  144.2710  132.5274  152.1925 H   0  0  0  0  0  0  0  0  0  0  0  0
  142.7177  132.8215  151.4791 H   0  0  0  0  0  0  0  0  0  0  0  0
  144.3422  134.2825  148.9175 H   0  0  0  0  0  0  0  0  0  0  0  0
  142.7739  133.4929  148.8150 H   0  0  0  0  0  0  0  0  0  0  0  0
  144.1319  132.8772  147.8816 H   0  0  0  0  0  0  0  0  0  0  0  0
  146.3266  133.0255  150.1430 H   0  0  0  0  0  0  0  0  0  0  0  0
  146.0591  131.6921  149.0273 H   0  0  0  0  0  0  0  0  0  0  0  0
  146.0462  131.4011  150.7587 H   0  0  0  0  0  0  0  0  0  0  0  0
  143.6355  130.6537  150.5992 H   0  0  0  0  0  0  0  0  0  0  0  0
  145.9023  134.4188  152.3782 H   0  0  0  0  0  0  0  0  0  0  0  0
  145.9991  134.3903  150.6355 H   0  0  0  0  0  0  0  0  0  0  0  0
  146.7277  136.6125  151.5983 H   0  0  0  0  0  0  0  0  0  0  0  0
  145.4148  136.7564  150.4563 H   0  0  0  0  0  0  0  0  0  0  0  0
  145.0799  136.1505  156.7294 H   0  0  0  0  0  0  0  0  0  0  0  0
  148.8186  140.2390  153.4439 H   0  0  0  0  0  0  0  0  0  0  0  0
  148.2182  140.0298  156.9468 H   0  0  0  0  0  0  0  0  0  0  0  0
  149.3503  138.7277  156.6798 H   0  0  0  0  0  0  0  0  0  0  0  0
  149.5359  141.1657  154.9137 H   0  0  0  0  0  0  0  0  0  0  0  0
  151.0536  139.4397  154.2504 H   0  0  0  0  0  0  0  0  0  0  0  0
  152.0695  140.5547  155.1327 H   0  0  0  0  0  0  0  0  0  0  0  0
  150.8982  138.3463  156.3764 H   0  0  0  0  0  0  0  0  0  0  0  0
  149.3567  142.0918  157.2125 H   0  0  0  0  0  0  0  0  0  0  0  0
  152.1395  142.2504  156.0096 H   0  0  0  0  0  0  0  0  0  0  0  0
  150.8723  143.4807  155.9216 H   0  0  0  0  0  0  0  0  0  0  0  0
  152.7303  143.6122  157.8950 H   0  0  0  0  0  0  0  0  0  0  0  0
  151.0388  143.9565  158.2668 H   0  0  0  0  0  0  0  0  0  0  0  0
  150.2505  140.5263  158.8065 H   0  0  0  0  0  0  0  0  0  0  0  0
  151.6986  140.2517  157.8340 H   0  0  0  0  0  0  0  0  0  0  0  0
  143.6883  134.8544  150.5293 H   0  0  0  0  0  0  0  0  0  0  0  0
  1  2  1  0  0  0  0
  1 31  1  0  0  0  0
  1 32  1  0  0  0  0
  1 33  1  0  0  0  0
  2 12  1  0  0  0  0
  2  3  1  0  0  0  0
  2 34  1  0  0  0  0
  3  4  1  0  0  0  0
  3 35  1  0  0  0  0
  3 36  1  0  0  0  0
  4  5  1  0  0  0  0
  4 10  1  0  0  0  0
  4 65  1  0  0  0  0
  5  6  1  0  0  0  0
  5 37  1  0  0  0  0
  5 38  1  0  0  0  0
  6  7  1  0  0  0  0
  6  8  1  0  0  0  0
  6  9  1  0  0  0  0
  7 39  1  0  0  0  0
  7 40  1  0  0  0  0
  7 41  1  0  0  0  0
  8 42  1  0  0  0  0
  8 43  1  0  0  0  0
  8 44  1  0  0  0  0
  9 45  1  0  0  0  0
 10 11  1  0  0  0  0
 10 46  1  0  0  0  0
 10 47  1  0  0  0  0
 11 12  1  0  0  0  0
 11 48  1  0  0  0  0
 11 49  1  0  0  0  0
 12 13  1  0  0  0  0
 13 18  1  0  0  0  0
 13 14  2  0  0  0  0
 14 15  1  0  0  0  0
 15 16  2  0  0  0  0
 15 50  1  0  0  0  0
 16 17  1  0  0  0  0
 17 21  1  0  0  0  0
 17 18  2  0  0  0  0
 18 19  1  0  0  0  0
 19 20  2  0  0  0  0
 20 21  1  0  0  0  0
 20 51  1  0  0  0  0
 21 22  1  0  0  0  0
 22 23  1  0  0  0  0
 22 52  1  0  0  0  0
 22 53  1  0  0  0  0
 23 24  1  0  0  0  0
 23 26  1  0  0  0  0
 23 54  1  0  0  0  0
 24 25  1  0  0  0  0
 24 55  1  0  0  0  0
 24 56  1  0  0  0  0
 25 57  1  0  0  0  0
 26 30  1  0  0  0  0
 26 27  1  0  0  0  0
 26 58  1  0  0  0  0
 27 28  1  0  0  0  0
 27 59  1  0  0  0  0
 27 60  1  0  0  0  0
 28 29  1  0  0  0  0
 28 61  1  0  0  0  0
 28 62  1  0  0  0  0
 29 30  1  0  0  0  0
 30 63  1  0  0  0  0
 30 64  1  0  0  0  0
M  CHG  1   4   1
M  END
> <s_m_source_file>
AV-unprocessed.smi

> <i_m_source_file_index>
212

> <i_lp_mmshare_version>
43012

> <i_f3d_flags>
0

> <s_epik_input>
W0NIM11bQ0BASF0xW0NIMl1OKFtDSDJdQyhbQ0gzXSkoW0NIM10pW09IXSlbQ0gyXVtDSDJdTjFjKG5bY0hdbjIpYyhjMjMpbltjSF1uM1tDSDJdW0NASF0oW0NIMl1bT0hdKVtDQEBIXTRbQ0gyXVtDSDJdT1tDSDJdNA==

> <s_epik_cmdline>
J2VwaWtfcHl0aG9uJywgJy1waCcsICc3LjAnLCAnLXRuJywgJzgnLCAnLW1hJywgJzIwMCcsICctbWV0YWxfYmluZGluZycsICctaW1hZScsICc8aW5maWxlLm1hZT4nLCAnLW9tYWUnLCAnPG91dGZpbGUubWFlPic=

> <r_lp_tautomer_probability>
1

> <r_epik_Ionization_Penalty>
0.00182193

> <r_epik_Ionization_Penalty_Charging>
0.00173996

> <r_epik_Ionization_Penalty_Neutral>
8.19718e-05

> <r_epik_State_Penalty>
-0

> <r_epik_Charging_Adjusted_Penalty>
0.00173996

> <i_epik_Tot_Q>
1

> <i_epik_Tot_abs_Q>
1

> <r_epik_Metal_State_Penalty>
-0

> <b_epik_Metal_Only>
0

> <s_lp_Force_Field>
OPLS_2005

> <r_lp_Energy>
60.482

> <b_lp_Chiralities_Consistent>
1

> <s_lp_Variant>
AV-unprocessed.smi:212-1

> <Gold.Version>
5.8.1

> <Gold.Id.Protein>
6NUR|6NUR_protein|mol2

> <Gold.PLP.Fitness>
42.7100

> <Gold.PLP.PLP>
-39.0306

> <Gold.PLP.part.hbond>
-1.7064

> <Gold.PLP.part.metal>
0.0000

> <Gold.PLP.part.buried>
-1.5130

> <Gold.PLP.part.nonpolar>
-35.5309

> <Gold.PLP.part.repulsive>
0.4866

> <Gold.PLP.ligand.clash>
0.0000

> <Gold.PLP.ligand.torsion>
1.3092

> <Gold.PLP.Chemscore.Hbond>
0.8960

> <Gold.PLP.Chemscore.CHOScore>
0.7794

> <Gold.PLP.Chemscore.Metal>
0.0000

> <Gold.Chemscore.Hbonds>
donor molecule, donor type, donor heavy atom, donor atom, acceptor molecule, acceptor atom, score
      P1  H 10785 10796       L1     9  0.86
      L1  C    20    51       P1  7957  0.76

> <Gold.PLP.Chemscore.Internal.Correction>
1.2716

> <Gold.Rescore>
     Score         DG    S(hbond)    S(metal)    S(lipo)     H(rot)  DE(clash)    DE(int)     intcor
      8.11     -11.36       0.80        0.00     108.05       3.68       0.44       2.81       ----

> <Gold.Chemscore.Fitness>
8.1143

> <Gold.Chemscore.DG>
-11.3637

> <Gold.Chemscore.ZeroCoef>
-5.4800

> <Gold.Chemscore.Hbond>
0.7980

> <Gold.Chemscore.Metal>
0.0000

> <Gold.Chemscore.Lipo>
108.0533

> <Gold.Chemscore.Internal_Hbond>
0.0000

> <Gold.Chemscore.DEClash>
0.4428

> <Gold.Chemscore.DEInternal>
2.8065

> <Gold.Chemscore.Rot>
3.6812

> <Gold.Chemscore.Internal.Correction>
   9.000000E+99

> <Gold.Chemscore.Hbonds>
donor molecule, donor type, donor heavy atom, donor atom, acceptor molecule, acceptor atom, score
      P1  H 10785 10796       L1     9  0.27

> <Gold.Chemscore.Hbond.Weighted>
-2.6654

> <Gold.Chemscore.Metal.Weighted>
-0.0000

> <Gold.Chemscore.Lipo.Weighted>
-12.6422

> <Gold.Chemscore.Internal_Hbond.Weighted>
0.0000

> <Gold.Chemscore.DEClash.Weighted>
0.4428

> <Gold.Chemscore.DEInternal.Weighted>
2.8065

> <Gold.Chemscore.Rot.Weighted>
9.4239

> <Gold.Chemscore.Internal.Correction.Weighted>
   9.000000E+99

> <Gold.Protein.RotatedTorsions>
[ 6907 6896 6895 6894 ] final   51.93 input  -60.11 | X-H torsion
[ 7974 7965 7964 7962 ] final -167.74 input  175.53 | X-H torsion
[ 8008 7997 7996 7995 ] final -103.17 input   59.86 | X-H torsion
[ 10167 10162 10161 10158 ] final   40.63 input  -65.29 | X-H torsion
[ 10718 10713 10712 10709 ] final   52.43 input   66.30 | X-H torsion
[ 10763 10752 10751 10750 ] final  134.19 input  -60.55 | X-H torsion
[ 11005 11000 10999 10996 ] final  175.52 input  -57.11 | X-H torsion

> <Gold.Protein.ActiveResidues>
 VAL166  LYS551  ARG553  GLY616  TRP617  ASP618  TYR619  PRO620  LYS621  CYS622 
 ASP623  PHE694  ASN695  SER759  ASP760  ASP761  ALA762  ILE779  LEU786  VAL792 
 PHE793  MET794  SER795  GLU796  ALA797  LYS798  CYS799  TRP800  GLU811  SER814 

> <Gold.Protein.RotatedAtoms>
  152.3179  134.7416  160.0320 H   0  0  0  0  0  0  0  0  0  0  0  0  # atno 6907 bound_to 6896
  151.7874  133.3350  159.3497 H   0  0  0  0  0  0  0  0  0  0  0  0  # atno 6908 bound_to 6896
  150.7354  134.5805  159.5980 H   0  0  0  0  0  0  0  0  0  0  0  0  # atno 6909 bound_to 6896
  144.7217  140.2474  143.6283 H   0  0  0  0  0  0  0  0  0  0  0  0  # atno 7974 bound_to 7965
  154.8671  140.0424  157.1701 H   0  0  0  0  0  0  0  0  0  0  0  0  # atno 8008 bound_to 7997
  154.8778  140.2968  155.5422 H   0  0  0  0  0  0  0  0  0  0  0  0  # atno 8009 bound_to 7997
  156.2999  140.2417  156.3777 H   0  0  0  0  0  0  0  0  0  0  0  0  # atno 8010 bound_to 7997
  140.3723  144.2089  150.6133 H   0  0  0  0  0  0  0  0  0  0  0  0  # atno 10167 bound_to 10162
  157.5074  130.8478  149.8392 H   0  0  0  0  0  0  0  0  0  0  0  0  # atno 10718 bound_to 10713
  153.8195  135.3118  155.3409 H   0  0  0  0  0  0  0  0  0  0  0  0  # atno 10763 bound_to 10752
  154.8018  135.4722  154.0298 H   0  0  0  0  0  0  0  0  0  0  0  0  # atno 10764 bound_to 10752
  153.1702  135.6876  153.8708 H   0  0  0  0  0  0  0  0  0  0  0  0  # atno 10765 bound_to 10752
  140.3631  134.7095  157.4344 H   0  0  0  0  0  0  0  0  0  0  0  0  # atno 11005 bound_to 11000
  145.8261  139.2065  143.1910 LP  0  0  0  0  0  0  0  0  0  0  0  0  # atno 17320 bound_to 7965
  146.0472  140.8106  142.9800 LP  0  0  0  0  0  0  0  0  0  0  0  0  # atno 17321 bound_to 7965
  140.5021  143.2315  151.8663 LP  0  0  0  0  0  0  0  0  0  0  0  0  # atno 17342 bound_to 10162
  139.4802  144.5047  151.9013 LP  0  0  0  0  0  0  0  0  0  0  0  0  # atno 17343 bound_to 10162
  156.0267  130.3777  150.1803 LP  0  0  0  0  0  0  0  0  0  0  0  0  # atno 17370 bound_to 10713
  156.9993  130.9917  151.3395 LP  0  0  0  0  0  0  0  0  0  0  0  0  # atno 17371 bound_to 10713
  140.0611  134.5995  155.8748 LP  0  0  0  0  0  0  0  0  0  0  0  0  # atno 17394 bound_to 11000
  141.1978  133.6598  156.5759 LP  0  0  0  0  0  0  0  0  0  0  0  0  # atno 17395 bound_to 11000

$$$$
