AV-unprocessed.smi:2356|AV-procd|sdf|9400|dock2
  -GOLD-   2272013 33D 1   1.00000     0.00000
 Structure written by MMmdl.
 54 57  0  0  0  0  0  0  0  0  2 V2000
  147.5833  142.3530  153.9915 C   0  0  0  0  0  0  0  0  0  0  0  0
  148.7059  141.5817  154.6618 C   0  0  0  0  0  0  0  0  0  0  0  0
  149.5366  142.2719  155.4747 N   0  3  0  0  0  0  0  0  0  0  0  0
  150.5792  141.7185  156.1378 C   0  0  0  0  0  0  0  0  0  0  0  0
  151.3708  142.5437  156.9591 N   0  0  0  0  0  0  0  0  0  0  0  0
  151.2662  143.9925  156.9073 C   0  0  0  0  0  0  0  0  0  0  0  0
  152.1442  144.4854  158.0568 C   0  0  0  0  0  0  0  0  0  0  0  0
  152.0108  143.3737  159.0977 C   0  0  0  0  0  0  0  0  0  0  0  0
  151.8472  142.0989  158.2624 C   0  0  0  0  0  0  0  0  0  0  0  0
  150.8133  140.3324  155.9873 C   0  0  0  0  0  0  0  0  0  0  0  0
  149.9759  139.5680  155.1504 C   0  0  0  0  0  0  0  0  0  0  0  0
  148.9092  140.1962  154.4613 C   0  0  0  0  0  0  0  0  0  0  0  0
  148.0064  139.4964  153.6140 N   0  0  0  0  0  0  0  0  0  0  0  0
  147.4556  138.2790  153.7855 C   0  0  0  0  0  0  0  0  0  0  0  0
  147.6742  137.5417  154.7441 O   0  0  0  0  0  0  0  0  0  0  0  0
  146.6379  137.8991  152.7870 N   0  0  0  0  0  0  0  0  0  0  0  0
  145.8830  136.6507  152.6533 C   0  0  1  0  0  0  0  0  0  0  0  0
  144.4288  136.8356  153.1183 C   0  0  0  0  0  0  0  0  0  0  0  0
  143.6028  135.5708  152.8401 C   0  0  0  0  0  0  0  0  0  0  0  0
  143.6635  135.2302  151.4570 O   0  0  0  0  0  0  0  0  0  0  0  0
  144.9745  134.9818  150.9473 C   0  0  2  0  0  0  0  0  0  0  0  0
  145.5545  133.6798  151.4834 C   0  0  0  0  0  0  0  0  0  0  0  0
  146.5501  132.8847  150.6715 C   0  0  0  0  0  0  0  0  0  0  0  0
  145.1517  132.3541  150.8817 C   0  0  0  0  0  0  0  0  0  0  0  0
  145.8868  136.2021  151.1834 C   0  0  0  0  0  0  0  0  0  0  0  0
  146.6168  141.9139  154.2407 H   0  0  0  0  0  0  0  0  0  0  0  0
  147.7034  142.3299  152.9080 H   0  0  0  0  0  0  0  0  0  0  0  0
  147.5721  143.3965  154.3091 H   0  0  0  0  0  0  0  0  0  0  0  0
  151.6016  144.3888  155.9485 H   0  0  0  0  0  0  0  0  0  0  0  0
  150.2276  144.2877  157.0623 H   0  0  0  0  0  0  0  0  0  0  0  0
  153.1815  144.5570  157.7264 H   0  0  0  0  0  0  0  0  0  0  0  0
  151.8419  145.4630  158.4330 H   0  0  0  0  0  0  0  0  0  0  0  0
  152.8591  143.3253  159.7811 H   0  0  0  0  0  0  0  0  0  0  0  0
  151.1112  143.5387  159.6921 H   0  0  0  0  0  0  0  0  0  0  0  0
  151.1596  141.4029  158.7446 H   0  0  0  0  0  0  0  0  0  0  0  0
  152.8065  141.5973  158.1318 H   0  0  0  0  0  0  0  0  0  0  0  0
  151.6217  139.8411  156.5082 H   0  0  0  0  0  0  0  0  0  0  0  0
  150.1619  138.5086  155.0675 H   0  0  0  0  0  0  0  0  0  0  0  0
  147.8004  139.9492  152.7355 H   0  0  0  0  0  0  0  0  0  0  0  0
  146.5370  138.5510  152.0221 H   0  0  0  0  0  0  0  0  0  0  0  0
  146.3581  135.8698  153.2487 H   0  0  0  0  0  0  0  0  0  0  0  0
  144.3909  137.0729  154.1817 H   0  0  0  0  0  0  0  0  0  0  0  0
  143.9773  137.6798  152.5949 H   0  0  0  0  0  0  0  0  0  0  0  0
  143.9445  134.7398  153.4573 H   0  0  0  0  0  0  0  0  0  0  0  0
  142.5602  135.7443  153.1069 H   0  0  0  0  0  0  0  0  0  0  0  0
  144.8589  134.8604  149.8695 H   0  0  0  0  0  0  0  0  0  0  0  0
  145.7202  133.6704  152.5585 H   0  0  0  0  0  0  0  0  0  0  0  0
  146.8041  133.2498  149.6782 H   0  0  0  0  0  0  0  0  0  0  0  0
  147.3602  132.3962  151.2092 H   0  0  0  0  0  0  0  0  0  0  0  0
  145.0278  131.5127  151.5602 H   0  0  0  0  0  0  0  0  0  0  0  0
  144.4757  132.3690  150.0291 H   0  0  0  0  0  0  0  0  0  0  0  0
  145.5353  137.0232  150.5565 H   0  0  0  0  0  0  0  0  0  0  0  0
  146.9031  135.9814  150.8544 H   0  0  0  0  0  0  0  0  0  0  0  0
  149.3669  143.2703  155.5953 H   0  0  0  0  0  0  0  0  0  0  0  0
  1  2  1  0  0  0  0
  1 26  1  0  0  0  0
  1 27  1  0  0  0  0
  1 28  1  0  0  0  0
  2 12  1  0  0  0  0
  2  3  2  0  0  0  0
  3  4  1  0  0  0  0
  3 54  1  0  0  0  0
  4  5  1  0  0  0  0
  4 10  2  0  0  0  0
  5  9  1  0  0  0  0
  5  6  1  0  0  0  0
  6  7  1  0  0  0  0
  6 29  1  0  0  0  0
  6 30  1  0  0  0  0
  7  8  1  0  0  0  0
  7 31  1  0  0  0  0
  7 32  1  0  0  0  0
  8  9  1  0  0  0  0
  8 33  1  0  0  0  0
  8 34  1  0  0  0  0
  9 35  1  0  0  0  0
  9 36  1  0  0  0  0
 10 11  1  0  0  0  0
 10 37  1  0  0  0  0
 11 12  2  0  0  0  0
 11 38  1  0  0  0  0
 12 13  1  0  0  0  0
 13 14  1  0  0  0  0
 13 39  1  0  0  0  0
 14 15  2  0  0  0  0
 14 16  1  0  0  0  0
 16 17  1  0  0  0  0
 16 40  1  0  0  0  0
 17 25  1  0  0  0  0
 17 18  1  0  0  0  0
 17 41  1  0  0  0  0
 18 19  1  0  0  0  0
 18 42  1  0  0  0  0
 18 43  1  0  0  0  0
 19 20  1  0  0  0  0
 19 44  1  0  0  0  0
 19 45  1  0  0  0  0
 20 21  1  0  0  0  0
 21 22  1  0  0  0  0
 21 25  1  0  0  0  0
 21 46  1  0  0  0  0
 22 24  1  0  0  0  0
 22 23  1  0  0  0  0
 22 47  1  0  0  0  0
 23 24  1  0  0  0  0
 23 48  1  0  0  0  0
 23 49  1  0  0  0  0
 24 50  1  0  0  0  0
 24 51  1  0  0  0  0
 25 52  1  0  0  0  0
 25 53  1  0  0  0  0
M  CHG  1   3   1
M  END
> <s_m_source_file>
AV-unprocessed.smi

> <i_m_source_file_index>
2356

> <i_lp_mmshare_version>
43012

> <i_f3d_flags>
0

> <s_epik_input>
W0NIMl0xW0NIMl1bQ0gyXVtDSDJdTjFjKG5jMltDSDNdKVtjSF1bY0hdYzJbTkhdQyg9TylbTkhdW0NAQEhdM1tDSDJdW0NIMl1PW0NASF0oW0NIMl0zKVtDSF00W0NIMl1bQ0gyXTQ=

> <s_epik_cmdline>
J2VwaWtfcHl0aG9uJywgJy1waCcsICc3LjAnLCAnLXRuJywgJzgnLCAnLW1hJywgJzIwMCcsICctbWV0YWxfYmluZGluZycsICctaW1hZScsICc8aW5maWxlLm1hZT4nLCAnLW9tYWUnLCAnPG91dGZpbGUubWFlPic=

> <r_lp_tautomer_probability>
0.999994

> <r_epik_Ionization_Penalty>
0.534681

> <r_epik_Ionization_Penalty_Charging>
0.534661

> <r_epik_Ionization_Penalty_Neutral>
1.99132e-05

> <r_epik_State_Penalty>
0.543738

> <r_epik_Charging_Adjusted_Penalty>
1.0784

> <i_epik_Tot_Q>
1

> <i_epik_Tot_abs_Q>
1

> <r_epik_Metal_State_Penalty>
0.74699

> <b_epik_Metal_Only>
0

> <s_lp_Force_Field>
OPLS_2005

> <r_lp_Energy>
60.4086

> <b_lp_Chiralities_Consistent>
1

> <s_lp_Variant>
AV-unprocessed.smi:2356-8

> <Gold.Version>
5.8.1

> <Gold.Id.Protein>
6NUR|6NUR_protein|mol2

> <Gold.PLP.Fitness>
52.3165

> <Gold.PLP.PLP>
-48.0022

> <Gold.PLP.part.hbond>
-2.9915

> <Gold.PLP.part.metal>
0.0000

> <Gold.PLP.part.buried>
-1.6641

> <Gold.PLP.part.nonpolar>
-44.3833

> <Gold.PLP.part.repulsive>
0.5908

> <Gold.PLP.ligand.clash>
0.0000

> <Gold.PLP.ligand.torsion>
1.5312

> <Gold.PLP.Chemscore.Hbond>
2.0309

> <Gold.PLP.Chemscore.CHOScore>
0.0000

> <Gold.PLP.Chemscore.Metal>
0.0000

> <Gold.Chemscore.Hbonds>
donor molecule, donor type, donor heavy atom, donor atom, acceptor molecule, acceptor atom, score
      L1  H     3    54       P1  8028  1.98
      L1  H    13    39       P1  7957  0.04

> <Gold.PLP.Chemscore.Internal.Correction>
1.2839

> <Gold.Rescore>
     Score         DG    S(hbond)    S(metal)    S(lipo)     H(rot)  DE(clash)    DE(int)     intcor
     17.91     -20.03       1.00        0.00     120.92       1.15       0.28       1.83       ----

> <Gold.Chemscore.Fitness>
17.9136

> <Gold.Chemscore.DG>
-20.0255

> <Gold.Chemscore.ZeroCoef>
-5.4800

> <Gold.Chemscore.Hbond>
1.0001

> <Gold.Chemscore.Metal>
0.0000

> <Gold.Chemscore.Lipo>
120.9157

> <Gold.Chemscore.Internal_Hbond>
0.0000

> <Gold.Chemscore.DEClash>
0.2789

> <Gold.Chemscore.DEInternal>
1.8329

> <Gold.Chemscore.Rot>
1.1493

> <Gold.Chemscore.Internal.Correction>
   9.000000E+99

> <Gold.Chemscore.Hbonds>
donor molecule, donor type, donor heavy atom, donor atom, acceptor molecule, acceptor atom, score
      L1  H     3    54       P1  8028  0.92
      L1  H    13    39       P1  7957  0.05

> <Gold.Chemscore.Hbond.Weighted>
-3.3405

> <Gold.Chemscore.Metal.Weighted>
-0.0000

> <Gold.Chemscore.Lipo.Weighted>
-14.1471

> <Gold.Chemscore.Internal_Hbond.Weighted>
0.0000

> <Gold.Chemscore.DEClash.Weighted>
0.2789

> <Gold.Chemscore.DEInternal.Weighted>
1.8329

> <Gold.Chemscore.Rot.Weighted>
2.9421

> <Gold.Chemscore.Internal.Correction.Weighted>
   9.000000E+99

> <Gold.Protein.RotatedTorsions>
[ 6907 6896 6895 6894 ] final   34.41 input  -60.11 | X-H torsion
[ 7974 7965 7964 7962 ] final   27.80 input  175.53 | X-H torsion
[ 8008 7997 7996 7995 ] final  -10.43 input   59.86 | X-H torsion
[ 10167 10162 10161 10158 ] final -173.31 input  -65.29 | X-H torsion
[ 10718 10713 10712 10709 ] final  -16.54 input   66.30 | X-H torsion
[ 10763 10752 10751 10750 ] final  -50.56 input  -60.55 | X-H torsion
[ 11005 11000 10999 10996 ] final  -18.92 input  -57.11 | X-H torsion

> <Gold.Protein.ActiveResidues>
 VAL166  LYS551  ARG553  GLY616  TRP617  ASP618  TYR619  PRO620  LYS621  CYS622 
 ASP623  PHE694  ASN695  SER759  ASP760  ASP761  ALA762  ILE779  LEU786  VAL792 
 PHE793  MET794  SER795  GLU796  ALA797  LYS798  CYS799  TRP800  GLU811  SER814 

> <Gold.Protein.RotatedAtoms>
  152.1020  134.9335  160.0569 H   0  0  0  0  0  0  0  0  0  0  0  0  # atno 6907 bound_to 6896
  152.0546  133.4029  159.4400 H   0  0  0  0  0  0  0  0  0  0  0  0  # atno 6908 bound_to 6896
  150.6840  134.3190  159.4822 H   0  0  0  0  0  0  0  0  0  0  0  0  # atno 6909 bound_to 6896
  146.1764  139.7142  142.8931 H   0  0  0  0  0  0  0  0  0  0  0  0  # atno 7974 bound_to 7965
  154.5556  140.2329  155.8416 H   0  0  0  0  0  0  0  0  0  0  0  0  # atno 8008 bound_to 7997
  156.1985  140.3059  155.9437 H   0  0  0  0  0  0  0  0  0  0  0  0  # atno 8009 bound_to 7997
  155.2987  140.0430  157.3018 H   0  0  0  0  0  0  0  0  0  0  0  0  # atno 8010 bound_to 7997
  139.5695  144.1675  152.1363 H   0  0  0  0  0  0  0  0  0  0  0  0  # atno 10167 bound_to 10162
  156.5862  130.4787  149.6299 H   0  0  0  0  0  0  0  0  0  0  0  0  # atno 10718 bound_to 10713
  154.1123  135.6547  153.4887 H   0  0  0  0  0  0  0  0  0  0  0  0  # atno 10763 bound_to 10752
  153.0252  135.5250  154.7180 H   0  0  0  0  0  0  0  0  0  0  0  0  # atno 10764 bound_to 10752
  154.6363  135.2982  155.0126 H   0  0  0  0  0  0  0  0  0  0  0  0  # atno 10765 bound_to 10752
  140.8315  133.7993  155.9764 H   0  0  0  0  0  0  0  0  0  0  0  0  # atno 11005 bound_to 11000
  145.4199  141.0405  143.2969 LP  0  0  0  0  0  0  0  0  0  0  0  0  # atno 17320 bound_to 7965
  144.8243  139.5737  143.6972 LP  0  0  0  0  0  0  0  0  0  0  0  0  # atno 17321 bound_to 7965
  140.1205  144.5378  150.6866 LP  0  0  0  0  0  0  0  0  0  0  0  0  # atno 17342 bound_to 10162
  140.6979  143.2416  151.4947 LP  0  0  0  0  0  0  0  0  0  0  0  0  # atno 17343 bound_to 10162
  156.2589  130.6951  151.1713 LP  0  0  0  0  0  0  0  0  0  0  0  0  # atno 17370 bound_to 10713
  157.7315  131.0608  150.5676 LP  0  0  0  0  0  0  0  0  0  0  0  0  # atno 17371 bound_to 10713
  140.8993  134.2399  157.5051 LP  0  0  0  0  0  0  0  0  0  0  0  0  # atno 17394 bound_to 11000
  139.8705  134.9699  156.4681 LP  0  0  0  0  0  0  0  0  0  0  0  0  # atno 17395 bound_to 11000

$$$$
