AV-unprocessed.smi:1525|AV-procd|sdf|6142|dock3
  -GOLD-   22720 6283D 1   1.00000     0.00000
 Structure written by MMmdl.
 49 51  0  0  0  0  0  0  0  0  2 V2000
  145.2605  138.5318  153.1422 O   0  0  0  0  0  0  0  0  0  0  0  0
  146.2822  137.8703  152.9581 C   0  0  0  0  0  0  0  0  0  0  0  0
  146.2751  136.6331  152.4448 N   0  0  0  0  0  0  0  0  0  0  0  0
  145.0700  135.9238  152.0376 C   0  0  0  0  0  0  0  0  0  0  0  0
  145.0664  135.6878  150.5184 C   0  0  0  0  0  0  0  0  0  0  0  0
  145.2479  134.2564  150.1695 N   0  3  0  0  0  0  0  0  0  0  0  0
  146.5084  133.6731  150.6928 C   0  0  0  0  0  0  0  0  0  0  0  0
  146.6416  132.2030  150.2606 C   0  0  0  0  0  0  0  0  0  0  0  0
  145.5083  131.4688  150.7064 O   0  0  0  0  0  0  0  0  0  0  0  0
  144.3004  131.9621  150.1412 C   0  0  0  0  0  0  0  0  0  0  0  0
  144.0892  133.4237  150.5719 C   0  0  0  0  0  0  0  0  0  0  0  0
  147.5342  138.2838  153.2166 N   0  0  0  0  0  0  0  0  0  0  0  0
  147.9604  139.5363  153.7445 C   0  0  0  0  0  0  0  0  0  0  0  0
  147.2020  140.7195  153.5653 C   0  0  0  0  0  0  0  0  0  0  0  0
  147.6775  141.9312  154.0957 C   0  0  0  0  0  0  0  0  0  0  0  0
  148.8971  141.9185  154.7921 C   0  0  0  0  0  0  0  0  0  0  0  0
  149.6216  140.7989  154.9873 N   0  0  0  0  0  0  0  0  0  0  0  0
  149.1688  139.6198  154.4941 C   0  0  0  0  0  0  0  0  0  0  0  0
  149.9575  138.4748  154.7483 N   0  0  0  0  0  0  0  0  0  0  0  0
  149.9415  137.9235  156.1000 C   0  0  0  0  0  0  0  0  0  0  0  0
  151.3644  137.4291  156.3834 C   0  0  0  0  0  0  0  0  0  0  0  0
  151.9653  137.2431  154.9936 C   0  0  0  0  0  0  0  0  0  0  0  0
  151.3068  138.3699  154.2029 C   0  0  0  0  0  0  0  0  0  0  0  0
  147.1578  136.1591  152.3194 H   0  0  0  0  0  0  0  0  0  0  0  0
  145.0113  134.9681  152.5615 H   0  0  0  0  0  0  0  0  0  0  0  0
  144.2074  136.5146  152.3461 H   0  0  0  0  0  0  0  0  0  0  0  0
  144.1469  136.0647  150.0677 H   0  0  0  0  0  0  0  0  0  0  0  0
  145.8838  136.2656  150.0839 H   0  0  0  0  0  0  0  0  0  0  0  0
  147.3697  134.2322  150.3289 H   0  0  0  0  0  0  0  0  0  0  0  0
  146.5198  133.7420  151.7818 H   0  0  0  0  0  0  0  0  0  0  0  0
  146.7402  132.1224  149.1768 H   0  0  0  0  0  0  0  0  0  0  0  0
  147.5401  131.7642  150.6950 H   0  0  0  0  0  0  0  0  0  0  0  0
  144.3312  131.8757  149.0538 H   0  0  0  0  0  0  0  0  0  0  0  0
  143.4710  131.3445  150.4865 H   0  0  0  0  0  0  0  0  0  0  0  0
  143.9557  133.4793  151.6535 H   0  0  0  0  0  0  0  0  0  0  0  0
  143.1769  133.8102  150.1157 H   0  0  0  0  0  0  0  0  0  0  0  0
  148.2768  137.6700  152.9157 H   0  0  0  0  0  0  0  0  0  0  0  0
  146.2602  140.7172  153.0384 H   0  0  0  0  0  0  0  0  0  0  0  0
  147.1207  142.8478  153.9702 H   0  0  0  0  0  0  0  0  0  0  0  0
  149.2976  142.8295  155.2111 H   0  0  0  0  0  0  0  0  0  0  0  0
  149.6199  138.6572  156.8406 H   0  0  0  0  0  0  0  0  0  0  0  0
  149.2456  137.0848  156.1278 H   0  0  0  0  0  0  0  0  0  0  0  0
  151.9198  138.1989  156.9208 H   0  0  0  0  0  0  0  0  0  0  0  0
  151.3855  136.5187  156.9830 H   0  0  0  0  0  0  0  0  0  0  0  0
  153.0542  137.2974  154.9859 H   0  0  0  0  0  0  0  0  0  0  0  0
  151.6687  136.2756  154.5858 H   0  0  0  0  0  0  0  0  0  0  0  0
  151.2872  138.1576  153.1335 H   0  0  0  0  0  0  0  0  0  0  0  0
  151.8637  139.2946  154.3591 H   0  0  0  0  0  0  0  0  0  0  0  0
  145.2939  134.2076  149.1616 H   0  0  0  0  0  0  0  0  0  0  0  0
  1  2  2  0  0  0  0
  2  3  1  0  0  0  0
  2 12  1  0  0  0  0
  3  4  1  0  0  0  0
  3 24  1  0  0  0  0
  4  5  1  0  0  0  0
  4 25  1  0  0  0  0
  4 26  1  0  0  0  0
  5  6  1  0  0  0  0
  5 27  1  0  0  0  0
  5 28  1  0  0  0  0
  6 11  1  0  0  0  0
  6  7  1  0  0  0  0
  6 49  1  0  0  0  0
  7  8  1  0  0  0  0
  7 29  1  0  0  0  0
  7 30  1  0  0  0  0
  8  9  1  0  0  0  0
  8 31  1  0  0  0  0
  8 32  1  0  0  0  0
  9 10  1  0  0  0  0
 10 11  1  0  0  0  0
 10 33  1  0  0  0  0
 10 34  1  0  0  0  0
 11 35  1  0  0  0  0
 11 36  1  0  0  0  0
 12 13  1  0  0  0  0
 12 37  1  0  0  0  0
 13 18  1  0  0  0  0
 13 14  2  0  0  0  0
 14 15  1  0  0  0  0
 14 38  1  0  0  0  0
 15 16  2  0  0  0  0
 15 39  1  0  0  0  0
 16 17  1  0  0  0  0
 16 40  1  0  0  0  0
 17 18  2  0  0  0  0
 18 19  1  0  0  0  0
 19 23  1  0  0  0  0
 19 20  1  0  0  0  0
 20 21  1  0  0  0  0
 20 41  1  0  0  0  0
 20 42  1  0  0  0  0
 21 22  1  0  0  0  0
 21 43  1  0  0  0  0
 21 44  1  0  0  0  0
 22 23  1  0  0  0  0
 22 45  1  0  0  0  0
 22 46  1  0  0  0  0
 23 47  1  0  0  0  0
 23 48  1  0  0  0  0
M  CHG  1   6   1
M  END
> <s_m_source_file>
AV-unprocessed.smi

> <i_m_source_file_index>
1525

> <i_lp_mmshare_version>
43012

> <i_f3d_flags>
0

> <s_epik_input>
W0NIMl0xW0NIMl1PW0NIMl1bQ0gyXU4xW0NIMl1bQ0gyXVtOSF1DKD1PKVtOSF1jMltjSF1bY0hdW2NIXW5jMk4zW0NIMl1bQ0gyXVtDSDJdW0NIMl0z

> <s_epik_cmdline>
J2VwaWtfcHl0aG9uJywgJy1waCcsICc3LjAnLCAnLXRuJywgJzgnLCAnLW1hJywgJzIwMCcsICctbWV0YWxfYmluZGluZycsICctaW1hZScsICc8aW5maWxlLm1hZT4nLCAnLW9tYWUnLCAnPG91dGZpbGUubWFlPic=

> <r_lp_tautomer_probability>
1

> <r_epik_Ionization_Penalty>
0.684913

> <r_epik_Ionization_Penalty_Charging>
0.602531

> <r_epik_Ionization_Penalty_Neutral>
0.0823828

> <r_epik_State_Penalty>
0.678827

> <r_epik_Charging_Adjusted_Penalty>
1.28136

> <i_epik_Tot_Q>
1

> <i_epik_Tot_abs_Q>
1

> <r_epik_Metal_State_Penalty>
0.678066

> <b_epik_Metal_Only>
0

> <s_lp_Force_Field>
OPLS_2005

> <r_lp_Energy>
44.7597

> <b_lp_Chiralities_Consistent>
1

> <s_lp_Variant>
AV-unprocessed.smi:1525-2

> <Gold.Version>
5.8.1

> <Gold.Id.Protein>
6NUR|6NUR_protein|mol2

> <Gold.PLP.Fitness>
41.2642

> <Gold.PLP.PLP>
-30.9342

> <Gold.PLP.part.hbond>
-3.0704

> <Gold.PLP.part.metal>
0.0000

> <Gold.PLP.part.buried>
2.2937

> <Gold.PLP.part.nonpolar>
-34.1825

> <Gold.PLP.part.repulsive>
4.5903

> <Gold.PLP.ligand.clash>
0.0000

> <Gold.PLP.ligand.torsion>
0.7237

> <Gold.PLP.Chemscore.Hbond>
2.8080

> <Gold.PLP.Chemscore.CHOScore>
1.0000

> <Gold.PLP.Chemscore.Metal>
0.0000

> <Gold.Chemscore.Hbonds>
donor molecule, donor type, donor heavy atom, donor atom, acceptor molecule, acceptor atom, score
      L1  H     3    24       P1  7948  0.99
      L1  H     6    49       P1  7921  0.93
      L1  H    12    37       P1  7948  1.00
      L1  C    16    40       P1  8028  0.87

> <Gold.PLP.Chemscore.Internal.Correction>
0.3534

> <Gold.Rescore>
     Score         DG    S(hbond)    S(metal)    S(lipo)     H(rot)  DE(clash)    DE(int)     intcor
     16.71     -21.68       2.71        0.00      97.49       1.66       3.10       1.87       ----

> <Gold.Chemscore.Fitness>
16.7056

> <Gold.Chemscore.DG>
-21.6810

> <Gold.Chemscore.ZeroCoef>
-5.4800

> <Gold.Chemscore.Hbond>
2.7104

> <Gold.Chemscore.Metal>
0.0000

> <Gold.Chemscore.Lipo>
97.4875

> <Gold.Chemscore.Internal_Hbond>
0.0000

> <Gold.Chemscore.DEClash>
3.1022

> <Gold.Chemscore.DEInternal>
1.8732

> <Gold.Chemscore.Rot>
1.6632

> <Gold.Chemscore.Internal.Correction>
   9.000000E+99

> <Gold.Chemscore.Hbonds>
donor molecule, donor type, donor heavy atom, donor atom, acceptor molecule, acceptor atom, score
      L1  H     3    24       P1  7948  0.93
      L1  H     6    49       P1  7921  0.87
      L1  H    12    37       P1  7948  0.97

> <Gold.Chemscore.Hbond.Weighted>
-9.0527

> <Gold.Chemscore.Metal.Weighted>
-0.0000

> <Gold.Chemscore.Lipo.Weighted>
-11.4060

> <Gold.Chemscore.Internal_Hbond.Weighted>
0.0000

> <Gold.Chemscore.DEClash.Weighted>
3.1022

> <Gold.Chemscore.DEInternal.Weighted>
1.8732

> <Gold.Chemscore.Rot.Weighted>
4.2577

> <Gold.Chemscore.Internal.Correction.Weighted>
   9.000000E+99

> <Gold.Protein.RotatedTorsions>
[ 6907 6896 6895 6894 ] final   48.82 input  -60.11 | X-H torsion
[ 7974 7965 7964 7962 ] final -142.96 input  175.53 | X-H torsion
[ 8008 7997 7996 7995 ] final -153.82 input   59.86 | X-H torsion
[ 10167 10162 10161 10158 ] final -119.56 input  -65.29 | X-H torsion
[ 10718 10713 10712 10709 ] final   72.28 input   66.30 | X-H torsion
[ 10763 10752 10751 10750 ] final    5.29 input  -60.55 | X-H torsion
[ 11005 11000 10999 10996 ] final  118.53 input  -57.11 | X-H torsion

> <Gold.Protein.ActiveResidues>
 VAL166  LYS551  ARG553  GLY616  TRP617  ASP618  TYR619  PRO620  LYS621  CYS622 
 ASP623  PHE694  ASN695  SER759  ASP760  ASP761  ALA762  ILE779  LEU786  VAL792 
 PHE793  MET794  SER795  GLU796  ALA797  LYS798  CYS799  TRP800  GLU811  SER814 

> <Gold.Protein.RotatedAtoms>
  152.2838  134.7798  160.0391 H   0  0  0  0  0  0  0  0  0  0  0  0  # atno 6907 bound_to 6896
  151.8368  133.3412  159.3639 H   0  0  0  0  0  0  0  0  0  0  0  0  # atno 6908 bound_to 6896
  150.7201  134.5358  159.5767 H   0  0  0  0  0  0  0  0  0  0  0  0  # atno 6909 bound_to 6896
  144.8405  140.5894  143.5455 H   0  0  0  0  0  0  0  0  0  0  0  0  # atno 7974 bound_to 7965
  155.6768  140.0739  157.2499 H   0  0  0  0  0  0  0  0  0  0  0  0  # atno 8008 bound_to 7997
  154.4113  140.1689  156.1991 H   0  0  0  0  0  0  0  0  0  0  0  0  # atno 8009 bound_to 7997
  155.9569  140.3373  155.6459 H   0  0  0  0  0  0  0  0  0  0  0  0  # atno 8010 bound_to 7997
  140.0454  143.5112  152.2109 H   0  0  0  0  0  0  0  0  0  0  0  0  # atno 10167 bound_to 10162
  157.6493  130.9571  150.0907 H   0  0  0  0  0  0  0  0  0  0  0  0  # atno 10718 bound_to 10713
  153.2612  135.6923  153.7577 H   0  0  0  0  0  0  0  0  0  0  0  0  # atno 10763 bound_to 10752
  153.6635  135.3356  155.3134 H   0  0  0  0  0  0  0  0  0  0  0  0  # atno 10764 bound_to 10752
  154.8431  135.4483  154.1603 H   0  0  0  0  0  0  0  0  0  0  0  0  # atno 10765 bound_to 10752
  139.9113  134.9621  156.7518 H   0  0  0  0  0  0  0  0  0  0  0  0  # atno 11005 bound_to 11000
  145.4704  139.1504  143.3817 LP  0  0  0  0  0  0  0  0  0  0  0  0  # atno 17320 bound_to 7965
  146.2698  140.4837  142.8819 LP  0  0  0  0  0  0  0  0  0  0  0  0  # atno 17321 bound_to 7965
  139.5987  144.7575  151.3224 LP  0  0  0  0  0  0  0  0  0  0  0  0  # atno 17342 bound_to 10162
  140.7241  143.7053  150.7812 LP  0  0  0  0  0  0  0  0  0  0  0  0  # atno 17343 bound_to 10162
  156.1857  130.3652  149.8976 LP  0  0  0  0  0  0  0  0  0  0  0  0  # atno 17370 bound_to 10713
  156.6917  130.8898  151.3589 LP  0  0  0  0  0  0  0  0  0  0  0  0  # atno 17371 bound_to 10713
  140.6768  133.9510  155.7887 LP  0  0  0  0  0  0  0  0  0  0  0  0  # atno 17394 bound_to 11000
  141.0539  134.0445  157.3748 LP  0  0  0  0  0  0  0  0  0  0  0  0  # atno 17395 bound_to 11000

$$$$
