AV-unprocessed.smi:479|AV-procd|sdf|2673|dock1
  -GOLD-   2262023 93D 1   1.00000     0.00000
 Structure written by MMmdl.
 45 47  0  0  0  0  0  0  0  0  1 V2000
  144.4875  142.3212  158.3680 C   0  0  0  0  0  0  0  0  0  0  0  0
  145.4051  142.0605  157.3158 O   0  0  0  0  0  0  0  0  0  0  0  0
  145.2824  142.7767  156.1423 C   0  0  0  0  0  0  0  0  0  0  0  0
  144.3094  143.7882  155.9371 C   0  0  0  0  0  0  0  0  0  0  0  0
  144.2324  144.4871  154.7101 C   0  0  0  0  0  0  0  0  0  0  0  0
  143.2151  145.5510  154.4711 C   0  0  0  0  0  0  0  0  0  0  0  0
  142.0680  145.6829  155.4720 C   0  0  0  0  0  0  0  0  0  0  0  0
  143.2516  146.3209  153.5117 O   0  0  0  0  0  0  0  0  0  0  0  0
  145.1484  144.1656  153.6865 C   0  0  0  0  0  0  0  0  0  0  0  0
  146.1160  143.1642  153.8799 C   0  0  0  0  0  0  0  0  0  0  0  0
  146.1886  142.4591  155.1058 C   0  0  0  0  0  0  0  0  0  0  0  0
  147.1068  141.4613  155.3615 O   0  0  0  0  0  0  0  0  0  0  0  0
  148.3721  141.5216  154.7164 C   0  0  0  0  0  0  0  0  0  0  0  0
  149.4167  140.8333  155.6088 C   0  0  1  0  0  0  0  0  0  0  0  0
  150.5793  140.6064  154.8359 O   0  0  0  0  0  0  0  0  0  0  0  0
  149.7884  141.6994  156.8286 C   0  0  0  0  0  0  0  0  0  0  0  0
  150.7405  141.0456  157.7093 N   0  0  0  0  0  0  0  0  0  0  0  0
  151.0772  139.7413  157.7180 C   0  0  0  0  0  0  0  0  0  0  0  0
  151.9812  139.3505  158.6120 N   0  0  0  0  0  0  0  0  0  0  0  0
  152.2637  140.5402  159.2610 C   0  0  0  0  0  0  0  0  0  0  0  0
  153.1517  140.8155  160.3254 C   0  0  0  0  0  0  0  0  0  0  0  0
  153.2746  142.1261  160.8321 C   0  0  0  0  0  0  0  0  0  0  0  0
  152.5141  143.1794  160.2835 C   0  0  0  0  0  0  0  0  0  0  0  0
  151.6237  142.9298  159.2214 C   0  0  0  0  0  0  0  0  0  0  0  0
  151.5037  141.6207  158.7192 C   0  0  0  0  0  0  0  0  0  0  0  0
  144.7193  141.6746  159.2142 H   0  0  0  0  0  0  0  0  0  0  0  0
  143.4610  142.1099  158.0651 H   0  0  0  0  0  0  0  0  0  0  0  0
  144.5593  143.3537  158.7124 H   0  0  0  0  0  0  0  0  0  0  0  0
  143.6145  144.0314  156.7248 H   0  0  0  0  0  0  0  0  0  0  0  0
  141.5013  144.7534  155.5293 H   0  0  0  0  0  0  0  0  0  0  0  0
  141.3867  146.4782  155.1688 H   0  0  0  0  0  0  0  0  0  0  0  0
  142.4516  145.9233  156.4637 H   0  0  0  0  0  0  0  0  0  0  0  0
  145.1188  144.6829  152.7382 H   0  0  0  0  0  0  0  0  0  0  0  0
  146.7946  142.9567  153.0667 H   0  0  0  0  0  0  0  0  0  0  0  0
  148.3468  141.0571  153.7288 H   0  0  0  0  0  0  0  0  0  0  0  0
  148.6408  142.5711  154.5863 H   0  0  0  0  0  0  0  0  0  0  0  0
  149.0288  139.8747  155.9565 H   0  0  0  0  0  0  0  0  0  0  0  0
  150.7965  139.6879  154.8870 H   0  0  0  0  0  0  0  0  0  0  0  0
  150.2095  142.6525  156.5051 H   0  0  0  0  0  0  0  0  0  0  0  0
  148.8966  141.9351  157.4105 H   0  0  0  0  0  0  0  0  0  0  0  0
  150.6313  139.0384  157.0294 H   0  0  0  0  0  0  0  0  0  0  0  0
  153.7389  140.0166  160.7531 H   0  0  0  0  0  0  0  0  0  0  0  0
  153.9561  142.3238  161.6465 H   0  0  0  0  0  0  0  0  0  0  0  0
  152.6147  144.1793  160.6793 H   0  0  0  0  0  0  0  0  0  0  0  0
  151.0387  143.7331  158.7988 H   0  0  0  0  0  0  0  0  0  0  0  0
  1  2  1  0  0  0  0
  1 26  1  0  0  0  0
  1 27  1  0  0  0  0
  1 28  1  0  0  0  0
  2  3  1  0  0  0  0
  3 11  1  0  0  0  0
  3  4  2  0  0  0  0
  4  5  1  0  0  0  0
  4 29  1  0  0  0  0
  5  6  1  0  0  0  0
  5  9  2  0  0  0  0
  6  7  1  0  0  0  0
  6  8  2  0  0  0  0
  7 30  1  0  0  0  0
  7 31  1  0  0  0  0
  7 32  1  0  0  0  0
  9 10  1  0  0  0  0
  9 33  1  0  0  0  0
 10 11  2  0  0  0  0
 10 34  1  0  0  0  0
 11 12  1  0  0  0  0
 12 13  1  0  0  0  0
 13 14  1  0  0  0  0
 13 35  1  0  0  0  0
 13 36  1  0  0  0  0
 14 15  1  0  0  0  0
 14 16  1  0  0  0  0
 14 37  1  0  0  0  0
 15 38  1  0  0  0  0
 16 17  1  0  0  0  0
 16 39  1  0  0  0  0
 16 40  1  0  0  0  0
 17 25  1  0  0  0  0
 17 18  1  0  0  0  0
 18 19  2  0  0  0  0
 18 41  1  0  0  0  0
 19 20  1  0  0  0  0
 20 25  2  0  0  0  0
 20 21  1  0  0  0  0
 21 22  2  0  0  0  0
 21 42  1  0  0  0  0
 22 23  1  0  0  0  0
 22 43  1  0  0  0  0
 23 24  2  0  0  0  0
 23 44  1  0  0  0  0
 24 25  1  0  0  0  0
 24 45  1  0  0  0  0
M  END
> <s_m_source_file>
AV-unprocessed.smi

> <i_m_source_file_index>
479

> <i_lp_mmshare_version>
43012

> <i_f3d_flags>
0

> <s_epik_input>
W0NIM11PYzFbY0hdYyhDKD1PKVtDSDNdKVtjSF1bY0hdYzFPW0NIMl1bQ0BIXShbT0hdKVtDSDJdbihbY0hdbjIpYyhjMjMpW2NIXVtjSF1bY0hdW2NIXTM=

> <s_epik_cmdline>
J2VwaWtfcHl0aG9uJywgJy1waCcsICc3LjAnLCAnLXRuJywgJzgnLCAnLW1hJywgJzIwMCcsICctbWV0YWxfYmluZGluZycsICctaW1hZScsICc8aW5maWxlLm1hZT4nLCAnLW9tYWUnLCAnPG91dGZpbGUubWFlPic=

> <r_lp_tautomer_probability>
0.99995

> <r_epik_Ionization_Penalty>
0.061028

> <r_epik_Ionization_Penalty_Charging>
0

> <r_epik_Ionization_Penalty_Neutral>
0.061028

> <r_epik_State_Penalty>
0.052945

> <r_epik_Charging_Adjusted_Penalty>
0.052945

> <i_epik_Tot_Q>
0

> <i_epik_Tot_abs_Q>
0

> <r_epik_Metal_State_Penalty>
5.53801e-05

> <b_epik_Metal_Only>
0

> <s_lp_Force_Field>
OPLS_2005

> <r_lp_Energy>
24.9927

> <b_lp_Chiralities_Consistent>
1

> <s_lp_Variant>
AV-unprocessed.smi:479-2

> <Gold.Version>
5.8.1

> <Gold.Id.Protein>
6NUR|6NUR_protein|mol2

> <Gold.PLP.Fitness>
51.8099

> <Gold.PLP.PLP>
-50.4402

> <Gold.PLP.part.hbond>
-3.0000

> <Gold.PLP.part.metal>
0.0000

> <Gold.PLP.part.buried>
-9.3570

> <Gold.PLP.part.nonpolar>
-39.7635

> <Gold.PLP.part.repulsive>
0.2670

> <Gold.PLP.ligand.clash>
0.0000

> <Gold.PLP.ligand.torsion>
0.9108

> <Gold.PLP.Chemscore.Hbond>
1.0000

> <Gold.PLP.Chemscore.CHOScore>
0.0000

> <Gold.PLP.Chemscore.Metal>
0.0000

> <Gold.Chemscore.Hbonds>
donor molecule, donor type, donor heavy atom, donor atom, acceptor molecule, acceptor atom, score
      P1  H  7989  7998       L1    15  0.67

> <Gold.PLP.Chemscore.Internal.Correction>
0.1913

> <Gold.Rescore>
     Score         DG    S(hbond)    S(metal)    S(lipo)     H(rot)  DE(clash)    DE(int)     intcor
     12.82     -15.47       0.89        0.00     117.93       2.66       1.94       0.71       ----

> <Gold.Chemscore.Fitness>
12.8185

> <Gold.Chemscore.DG>
-15.4676

> <Gold.Chemscore.ZeroCoef>
-5.4800

> <Gold.Chemscore.Hbond>
0.8944

> <Gold.Chemscore.Metal>
0.0000

> <Gold.Chemscore.Lipo>
117.9338

> <Gold.Chemscore.Internal_Hbond>
0.0000

> <Gold.Chemscore.DEClash>
1.9434

> <Gold.Chemscore.DEInternal>
0.7057

> <Gold.Chemscore.Rot>
2.6555

> <Gold.Chemscore.Internal.Correction>
   9.000000E+99

> <Gold.Chemscore.Hbonds>
donor molecule, donor type, donor heavy atom, donor atom, acceptor molecule, acceptor atom, score
      P1  H  7989  7998       L1    15  0.07

> <Gold.Chemscore.Hbond.Weighted>
-2.9874

> <Gold.Chemscore.Metal.Weighted>
-0.0000

> <Gold.Chemscore.Lipo.Weighted>
-13.7983

> <Gold.Chemscore.Internal_Hbond.Weighted>
0.0000

> <Gold.Chemscore.DEClash.Weighted>
1.9434

> <Gold.Chemscore.DEInternal.Weighted>
0.7057

> <Gold.Chemscore.Rot.Weighted>
6.7980

> <Gold.Chemscore.Internal.Correction.Weighted>
   9.000000E+99

> <Gold.Protein.RotatedTorsions>
[ 6907 6896 6895 6894 ] final  -28.51 input  -60.11 | X-H torsion
[ 7974 7965 7964 7962 ] final   88.35 input  175.53 | X-H torsion
[ 8008 7997 7996 7995 ] final  150.38 input   59.86 | X-H torsion
[ 10167 10162 10161 10158 ] final   24.04 input  -65.29 | X-H torsion
[ 10718 10713 10712 10709 ] final  154.96 input   66.30 | X-H torsion
[ 10763 10752 10751 10750 ] final  126.22 input  -60.55 | X-H torsion
[ 11005 11000 10999 10996 ] final  -63.40 input  -57.11 | X-H torsion

> <Gold.Protein.ActiveResidues>
 VAL166  LYS551  ARG553  GLY616  TRP617  ASP618  TYR619  PRO620  LYS621  CYS622 
 ASP623  PHE694  ASN695  SER759  ASP760  ASP761  ALA762  ILE779  LEU786  VAL792 
 PHE793  MET794  SER795  GLU796  ALA797  LYS798  CYS799  TRP800  GLU811  SER814 

> <Gold.Protein.RotatedAtoms>
  151.1320  135.0135  159.8586 H   0  0  0  0  0  0  0  0  0  0  0  0  # atno 6907 bound_to 6896
  152.5451  134.1599  159.8563 H   0  0  0  0  0  0  0  0  0  0  0  0  # atno 6908 bound_to 6896
  151.1667  133.4765  159.2627 H   0  0  0  0  0  0  0  0  0  0  0  0  # atno 6909 bound_to 6896
  145.5469  139.2292  143.2534 H   0  0  0  0  0  0  0  0  0  0  0  0  # atno 7974 bound_to 7965
  156.2718  140.2076  156.6007 H   0  0  0  0  0  0  0  0  0  0  0  0  # atno 8008 bound_to 7997
  154.6909  140.0530  157.0385 H   0  0  0  0  0  0  0  0  0  0  0  0  # atno 8009 bound_to 7997
  155.0868  140.3192  155.4588 H   0  0  0  0  0  0  0  0  0  0  0  0  # atno 8010 bound_to 7997
  140.5221  143.9985  150.6422 H   0  0  0  0  0  0  0  0  0  0  0  0  # atno 10167 bound_to 10162
  157.2247  131.0726  151.1890 H   0  0  0  0  0  0  0  0  0  0  0  0  # atno 10718 bound_to 10713
  153.6899  135.3300  155.3199 H   0  0  0  0  0  0  0  0  0  0  0  0  # atno 10763 bound_to 10752
  154.8443  135.4429  154.1519 H   0  0  0  0  0  0  0  0  0  0  0  0  # atno 10764 bound_to 10752
  153.2558  135.6986  153.7708 H   0  0  0  0  0  0  0  0  0  0  0  0  # atno 10765 bound_to 10752
  141.1392  133.6651  156.5675 H   0  0  0  0  0  0  0  0  0  0  0  0  # atno 11005 bound_to 11000
  146.1943  140.6290  142.9131 LP  0  0  0  0  0  0  0  0  0  0  0  0  # atno 17320 bound_to 7965
  144.7549  140.5282  143.6776 LP  0  0  0  0  0  0  0  0  0  0  0  0  # atno 17321 bound_to 7965
  140.3337  143.3062  152.0660 LP  0  0  0  0  0  0  0  0  0  0  0  0  # atno 17342 bound_to 10162
  139.4926  144.6491  151.6714 LP  0  0  0  0  0  0  0  0  0  0  0  0  # atno 17343 bound_to 10162
  157.3540  130.7097  149.6459 LP  0  0  0  0  0  0  0  0  0  0  0  0  # atno 17370 bound_to 10713
  155.9679  130.4244  150.4608 LP  0  0  0  0  0  0  0  0  0  0  0  0  # atno 17371 bound_to 10713
  140.3939  134.7416  157.4738 LP  0  0  0  0  0  0  0  0  0  0  0  0  # atno 17394 bound_to 11000
  140.0546  134.6082  155.8821 LP  0  0  0  0  0  0  0  0  0  0  0  0  # atno 17395 bound_to 11000

$$$$
