AV-unprocessed.smi:263|AV-procd|sdf|2005|dock8
  -GOLD-   2262021203D 1   1.00000     0.00000
 Structure written by MMmdl.
 57 61  0  0  0  0  0  0  0  0  1 V2000
  145.0357  135.3062  150.0618 O   0  0  0  0  0  0  0  0  0  0  0  0
  144.6884  134.5127  151.1834 C   0  0  0  0  0  0  0  0  0  0  0  0
  144.0834  135.4477  152.2605 C   0  0  0  0  0  0  0  0  0  0  0  0
  145.0455  136.3542  152.8682 N   0  0  0  0  0  0  0  0  0  0  0  0
  145.2305  137.6839  152.5637 C   0  0  0  0  0  0  0  0  0  0  0  0
  146.1626  138.2874  153.2489 N   0  0  0  0  0  0  0  0  0  0  0  0
  146.6484  137.3034  154.1021 C   0  0  0  0  0  0  0  0  0  0  0  0
  147.6583  137.2714  155.1049 C   0  0  0  0  0  0  0  0  0  0  0  0
  148.3919  138.3625  155.4409 N   0  0  0  0  0  0  0  0  0  0  0  0
  149.3688  138.7714  154.4339 C   0  0  0  0  0  0  0  0  0  0  0  0
  150.4251  139.7110  155.0406 C   0  0  0  0  0  0  0  0  0  0  0  0
  149.7848  140.9144  155.7727 C   0  0  2  0  0  0  0  0  0  0  0  0
  149.1625  141.7252  154.7918 O   0  0  0  0  0  0  0  0  0  0  0  0
  150.8347  141.8164  156.4636 C   0  0  0  0  0  0  0  0  0  0  0  0
  151.4387  141.1786  157.7255 C   0  0  0  0  0  0  0  0  0  0  0  0
  150.3406  140.7600  158.7124 C   0  0  0  0  0  0  0  0  0  0  0  0
  149.3312  139.8127  158.0485 C   0  0  0  0  0  0  0  0  0  0  0  0
  148.7035  140.4356  156.7814 C   0  0  2  0  0  0  0  0  0  0  0  0
  147.7038  139.4631  156.1185 C   0  0  0  0  0  0  0  0  0  0  0  0
  147.8721  136.0868  155.7386 N   0  0  0  0  0  0  0  0  0  0  0  0
  147.1432  135.0117  155.4250 C   0  0  0  0  0  0  0  0  0  0  0  0
  146.1670  134.8995  154.5224 N   0  0  0  0  0  0  0  0  0  0  0  0
  145.9561  136.0805  153.8738 C   0  0  0  0  0  0  0  0  0  0  0  0
  143.6982  133.4236  150.7162 C   0  0  0  0  0  0  0  0  0  0  0  0
  144.3724  132.3794  149.8088 C   0  0  0  0  0  0  0  0  0  0  0  0
  145.4979  131.8113  150.4674 O   0  0  0  0  0  0  0  0  0  0  0  0
  146.5095  132.7709  150.7483 C   0  0  0  0  0  0  0  0  0  0  0  0
  145.9679  133.8372  151.7170 C   0  0  0  0  0  0  0  0  0  0  0  0
  145.3511  134.7377  149.3759 H   0  0  0  0  0  0  0  0  0  0  0  0
  143.2874  136.0517  151.8226 H   0  0  0  0  0  0  0  0  0  0  0  0
  143.6155  134.8624  153.0535 H   0  0  0  0  0  0  0  0  0  0  0  0
  144.6534  138.1940  151.8060 H   0  0  0  0  0  0  0  0  0  0  0  0
  149.8692  137.9117  153.9901 H   0  0  0  0  0  0  0  0  0  0  0  0
  148.8421  139.2743  153.6219 H   0  0  0  0  0  0  0  0  0  0  0  0
  151.0378  139.1337  155.7326 H   0  0  0  0  0  0  0  0  0  0  0  0
  151.1025  140.0575  154.2591 H   0  0  0  0  0  0  0  0  0  0  0  0
  149.3301  142.6313  155.0009 H   0  0  0  0  0  0  0  0  0  0  0  0
  151.6303  142.0759  155.7637 H   0  0  0  0  0  0  0  0  0  0  0  0
  150.3684  142.7601  156.7518 H   0  0  0  0  0  0  0  0  0  0  0  0
  152.0448  140.3131  157.4576 H   0  0  0  0  0  0  0  0  0  0  0  0
  152.1152  141.8858  158.2062 H   0  0  0  0  0  0  0  0  0  0  0  0
  150.7875  140.2759  159.5812 H   0  0  0  0  0  0  0  0  0  0  0  0
  149.8235  141.6457  159.0839 H   0  0  0  0  0  0  0  0  0  0  0  0
  149.8281  138.8738  157.8023 H   0  0  0  0  0  0  0  0  0  0  0  0
  148.5474  139.5611  158.7634 H   0  0  0  0  0  0  0  0  0  0  0  0
  148.1383  141.3079  157.1136 H   0  0  0  0  0  0  0  0  0  0  0  0
  147.0960  139.9997  155.3884 H   0  0  0  0  0  0  0  0  0  0  0  0
  147.0191  139.0733  156.8731 H   0  0  0  0  0  0  0  0  0  0  0  0
  147.3756  134.1129  155.9767 H   0  0  0  0  0  0  0  0  0  0  0  0
  143.2869  132.9132  151.5880 H   0  0  0  0  0  0  0  0  0  0  0  0
  142.8512  133.8674  150.1916 H   0  0  0  0  0  0  0  0  0  0  0  0
  143.6669  131.5830  149.5715 H   0  0  0  0  0  0  0  0  0  0  0  0
  144.6771  132.8227  148.8596 H   0  0  0  0  0  0  0  0  0  0  0  0
  147.3615  132.2600  151.1971 H   0  0  0  0  0  0  0  0  0  0  0  0
  146.8669  133.2239  149.8223 H   0  0  0  0  0  0  0  0  0  0  0  0
  146.7379  134.5817  151.9229 H   0  0  0  0  0  0  0  0  0  0  0  0
  145.7495  133.3539  152.6703 H   0  0  0  0  0  0  0  0  0  0  0  0
  1  2  1  0  0  0  0
  1 29  1  0  0  0  0
  2 28  1  0  0  0  0
  2  3  1  0  0  0  0
  2 24  1  0  0  0  0
  3  4  1  0  0  0  0
  3 30  1  0  0  0  0
  3 31  1  0  0  0  0
  4 23  1  0  0  0  0
  4  5  1  0  0  0  0
  5  6  2  0  0  0  0
  5 32  1  0  0  0  0
  6  7  1  0  0  0  0
  7 23  2  0  0  0  0
  7  8  1  0  0  0  0
  8  9  1  0  0  0  0
  8 20  2  0  0  0  0
  9 19  1  0  0  0  0
  9 10  1  0  0  0  0
 10 11  1  0  0  0  0
 10 33  1  0  0  0  0
 10 34  1  0  0  0  0
 11 12  1  0  0  0  0
 11 35  1  0  0  0  0
 11 36  1  0  0  0  0
 12 18  1  0  0  0  0
 12 13  1  0  0  0  0
 12 14  1  0  0  0  0
 13 37  1  0  0  0  0
 14 15  1  0  0  0  0
 14 38  1  0  0  0  0
 14 39  1  0  0  0  0
 15 16  1  0  0  0  0
 15 40  1  0  0  0  0
 15 41  1  0  0  0  0
 16 17  1  0  0  0  0
 16 42  1  0  0  0  0
 16 43  1  0  0  0  0
 17 18  1  0  0  0  0
 17 44  1  0  0  0  0
 17 45  1  0  0  0  0
 18 19  1  0  0  0  0
 18 46  1  0  0  0  0
 19 47  1  0  0  0  0
 19 48  1  0  0  0  0
 20 21  1  0  0  0  0
 21 22  2  0  0  0  0
 21 49  1  0  0  0  0
 22 23  1  0  0  0  0
 24 25  1  0  0  0  0
 24 50  1  0  0  0  0
 24 51  1  0  0  0  0
 25 26  1  0  0  0  0
 25 52  1  0  0  0  0
 25 53  1  0  0  0  0
 26 27  1  0  0  0  0
 27 28  1  0  0  0  0
 27 54  1  0  0  0  0
 27 55  1  0  0  0  0
 28 56  1  0  0  0  0
 28 57  1  0  0  0  0
M  END
> <s_m_source_file>
AV-unprocessed.smi

> <i_m_source_file_index>
263

> <i_lp_mmshare_version>
43012

> <i_f3d_flags>
0

> <s_epik_input>
W0NIMl0xW0NIMl1PW0NIMl1bQ0gyXUMxKFtPSF0pW0NIMl1uKFtjSF1uMiljKGMyMyluW2NIXW5jM04oW0NIMl1bQ0gyXTQpW0NIMl1bQ0BASF0oW0NAXTQ1W09IXSlbQ0gyXVtDSDJdW0NIMl1bQ0gyXTU=

> <s_epik_cmdline>
J2VwaWtfcHl0aG9uJywgJy1waCcsICc3LjAnLCAnLXRuJywgJzgnLCAnLW1hJywgJzIwMCcsICctbWV0YWxfYmluZGluZycsICctaW1hZScsICc8aW5maWxlLm1hZT4nLCAnLW9tYWUnLCAnPG91dGZpbGUubWFlPic=

> <r_lp_tautomer_probability>
1

> <r_epik_Ionization_Penalty>
0.00747493

> <r_epik_Ionization_Penalty_Charging>
0

> <r_epik_Ionization_Penalty_Neutral>
0.00747493

> <r_epik_State_Penalty>
0.00549307

> <r_epik_Charging_Adjusted_Penalty>
0.00549307

> <i_epik_Tot_Q>
0

> <i_epik_Tot_abs_Q>
0

> <r_epik_Metal_State_Penalty>
-0

> <b_epik_Metal_Only>
0

> <s_lp_Force_Field>
OPLS_2005

> <r_lp_Energy>
40.0447

> <b_lp_Chiralities_Consistent>
1

> <s_lp_Variant>
AV-unprocessed.smi:263-3

> <Gold.Version>
5.8.1

> <Gold.Id.Protein>
6NUR|6NUR_protein|mol2

> <Gold.PLP.Fitness>
45.8133

> <Gold.PLP.PLP>
-34.7777

> <Gold.PLP.part.hbond>
-2.0000

> <Gold.PLP.part.metal>
0.0000

> <Gold.PLP.part.buried>
-5.4307

> <Gold.PLP.part.nonpolar>
-28.9116

> <Gold.PLP.part.repulsive>
0.5361

> <Gold.PLP.ligand.clash>
0.0000

> <Gold.PLP.ligand.torsion>
0.5378

> <Gold.PLP.Chemscore.Hbond>
1.9920

> <Gold.PLP.Chemscore.CHOScore>
1.9199

> <Gold.PLP.Chemscore.Metal>
0.0000

> <Gold.Chemscore.Hbonds>
donor molecule, donor type, donor heavy atom, donor atom, acceptor molecule, acceptor atom, score
      L1  H     1    29       P1  7921  0.82
      L1  H    13    37       P1  8028  0.52
      L1  C     5    32       P1 10171  1.00
      L1  C     5    32       P1 10175  0.74

> <Gold.PLP.Chemscore.Internal.Correction>
0.3754

> <Gold.Rescore>
     Score         DG    S(hbond)    S(metal)    S(lipo)     H(rot)  DE(clash)    DE(int)     intcor
     14.57     -15.33       1.97        0.00      85.35       2.62       0.24       0.53       ----

> <Gold.Chemscore.Fitness>
14.5664

> <Gold.Chemscore.DG>
-15.3344

> <Gold.Chemscore.ZeroCoef>
-5.4800

> <Gold.Chemscore.Hbond>
1.9713

> <Gold.Chemscore.Metal>
0.0000

> <Gold.Chemscore.Lipo>
85.3484

> <Gold.Chemscore.Internal_Hbond>
0.0000

> <Gold.Chemscore.DEClash>
0.2373

> <Gold.Chemscore.DEInternal>
0.5307

> <Gold.Chemscore.Rot>
2.6232

> <Gold.Chemscore.Internal.Correction>
   9.000000E+99

> <Gold.Chemscore.Hbonds>
donor molecule, donor type, donor heavy atom, donor atom, acceptor molecule, acceptor atom, score
      L1  H     1    29       P1  7921  0.81
      L1  H    13    37       P1  8028  0.52

> <Gold.Chemscore.Hbond.Weighted>
-6.5842

> <Gold.Chemscore.Metal.Weighted>
-0.0000

> <Gold.Chemscore.Lipo.Weighted>
-9.9858

> <Gold.Chemscore.Internal_Hbond.Weighted>
0.0000

> <Gold.Chemscore.DEClash.Weighted>
0.2373

> <Gold.Chemscore.DEInternal.Weighted>
0.5307

> <Gold.Chemscore.Rot.Weighted>
6.7155

> <Gold.Chemscore.Internal.Correction.Weighted>
   9.000000E+99

> <Gold.Protein.RotatedTorsions>
[ 6907 6896 6895 6894 ] final   90.18 input  -60.11 | X-H torsion
[ 7974 7965 7964 7962 ] final    1.18 input  175.53 | X-H torsion
[ 8008 7997 7996 7995 ] final -165.54 input   59.86 | X-H torsion
[ 10167 10162 10161 10158 ] final  -34.79 input  -65.29 | X-H torsion
[ 10718 10713 10712 10709 ] final  -43.95 input   66.30 | X-H torsion
[ 10763 10752 10751 10750 ] final  -73.87 input  -60.55 | X-H torsion
[ 11005 11000 10999 10996 ] final  134.61 input  -57.11 | X-H torsion

> <Gold.Protein.ActiveResidues>
 VAL166  LYS551  ARG553  GLY616  TRP617  ASP618  TYR619  PRO620  LYS621  CYS622 
 ASP623  PHE694  ASN695  SER759  ASP760  ASP761  ALA762  ILE779  LEU786  VAL792 
 PHE793  MET794  SER795  GLU796  ALA797  LYS798  CYS799  TRP800  GLU811  SER814 

> <Gold.Protein.RotatedAtoms>
  152.5442  134.1852  159.8651 H   0  0  0  0  0  0  0  0  0  0  0  0  # atno 6907 bound_to 6896
  151.1851  133.4694  159.2602 H   0  0  0  0  0  0  0  0  0  0  0  0  # atno 6908 bound_to 6896
  151.1139  135.0054  159.8562 H   0  0  0  0  0  0  0  0  0  0  0  0  # atno 6909 bound_to 6896
  146.2439  140.1025  142.8347 H   0  0  0  0  0  0  0  0  0  0  0  0  # atno 7974 bound_to 7965
  155.8512  140.0963  157.1673 H   0  0  0  0  0  0  0  0  0  0  0  0  # atno 8008 bound_to 7997
  154.3985  140.1382  156.3909 H   0  0  0  0  0  0  0  0  0  0  0  0  # atno 8009 bound_to 7997
  155.7959  140.3454  155.5377 H   0  0  0  0  0  0  0  0  0  0  0  0  # atno 8010 bound_to 7997
  140.7178  143.3523  151.2131 H   0  0  0  0  0  0  0  0  0  0  0  0  # atno 10167 bound_to 10162
  156.2437  130.4182  149.8731 H   0  0  0  0  0  0  0  0  0  0  0  0  # atno 10718 bound_to 10713
  154.4654  135.5883  153.6284 H   0  0  0  0  0  0  0  0  0  0  0  0  # atno 10763 bound_to 10752
  152.9828  135.6054  154.3434 H   0  0  0  0  0  0  0  0  0  0  0  0  # atno 10764 bound_to 10752
  154.3310  135.2842  155.2451 H   0  0  0  0  0  0  0  0  0  0  0  0  # atno 10765 bound_to 10752
  139.9926  134.9509  156.9891 H   0  0  0  0  0  0  0  0  0  0  0  0  # atno 11005 bound_to 11000
  145.0556  140.9050  143.4969 LP  0  0  0  0  0  0  0  0  0  0  0  0  # atno 17320 bound_to 7965
  145.1131  139.2743  143.5627 LP  0  0  0  0  0  0  0  0  0  0  0  0  # atno 17321 bound_to 7965
  139.7056  143.9460  152.2925 LP  0  0  0  0  0  0  0  0  0  0  0  0  # atno 17342 bound_to 10162
  139.9168  144.6823  150.8503 LP  0  0  0  0  0  0  0  0  0  0  0  0  # atno 17343 bound_to 10162
  156.6303  130.8663  151.3494 LP  0  0  0  0  0  0  0  0  0  0  0  0  # atno 17370 bound_to 10713
  157.7186  130.9529  150.1349 LP  0  0  0  0  0  0  0  0  0  0  0  0  # atno 17371 bound_to 10713
  140.4879  134.1222  155.7228 LP  0  0  0  0  0  0  0  0  0  0  0  0  # atno 17394 bound_to 11000
  141.1578  133.8850  157.1930 LP  0  0  0  0  0  0  0  0  0  0  0  0  # atno 17395 bound_to 11000

$$$$
