AV-unprocessed.smi:244|AV-procd|sdf|1864|dock6
  -GOLD-   2262020503D 1   1.00000     0.00000
 Structure written by MMmdl.
 57 61  0  0  0  0  0  0  0  0  2 V2000
  145.6038  137.7849  151.0021 C   0  0  0  0  0  0  0  0  0  0  0  0
  144.8444  138.1146  152.2274 N   0  3  1  0  0  0  0  0  0  0  0  0
  143.9011  137.0354  152.6129 C   0  0  0  0  0  0  0  0  0  0  0  0
  143.0506  137.4523  153.8234 C   0  0  0  0  0  0  0  0  0  0  0  0
  143.9510  137.8455  155.0006 C   0  0  2  0  0  0  0  0  0  0  0  0
  143.1478  138.2793  156.0924 O   0  0  0  0  0  0  0  0  0  0  0  0
  143.9374  138.5925  157.2350 C   0  0  0  0  0  0  0  0  0  0  0  0
  144.9064  139.7338  156.8876 C   0  0  0  0  0  0  0  0  0  0  0  0
  145.7212  139.3762  155.7280 N   0  0  0  0  0  0  0  0  0  0  0  0
  146.6953  140.2764  155.4600 C   0  0  0  0  0  0  0  0  0  0  0  0
  146.6737  140.9844  154.2998 N   0  0  0  0  0  0  0  0  0  0  0  0
  147.6500  141.8584  154.0341 C   0  0  0  0  0  0  0  0  0  0  0  0
  148.7214  142.1626  154.7704 N   0  0  0  0  0  0  0  0  0  0  0  0
  148.7467  141.4473  155.9315 C   0  0  0  0  0  0  0  0  0  0  0  0
  147.7816  140.4895  156.3485 C   0  0  0  0  0  0  0  0  0  0  0  0
  148.1411  139.9493  157.5763 N   0  0  0  0  0  0  0  0  0  0  0  0
  149.2575  140.5575  157.8719 C   0  0  0  0  0  0  0  0  0  0  0  0
  149.6891  141.4801  156.9445 N   0  0  0  0  0  0  0  0  0  0  0  0
  150.8906  142.2973  157.0227 C   0  0  0  0  0  0  0  0  0  0  0  0
  150.8517  143.3708  158.1391 C   0  0  0  0  0  0  0  0  0  0  0  0
  149.5273  143.8695  158.2135 O   0  0  0  0  0  0  0  0  0  0  0  0
  151.2374  142.8056  159.5238 C   0  0  0  0  0  0  0  0  0  0  0  0
  151.4060  143.9142  160.5780 C   0  0  0  0  0  0  0  0  0  0  0  0
  152.3442  144.8833  160.1268 O   0  0  0  0  0  0  0  0  0  0  0  0
  151.9196  145.5498  158.9444 C   0  0  0  0  0  0  0  0  0  0  0  0
  151.7930  144.5408  157.7896 C   0  0  0  0  0  0  0  0  0  0  0  0
  144.9071  138.9810  154.5749 C   0  0  1  0  0  0  0  0  0  0  0  0
  145.7313  138.5181  153.3482 C   0  0  0  0  0  0  0  0  0  0  0  0
  146.2489  136.9200  151.1623 H   0  0  0  0  0  0  0  0  0  0  0  0
  146.2279  138.6257  150.6975 H   0  0  0  0  0  0  0  0  0  0  0  0
  144.9266  137.5591  150.1778 H   0  0  0  0  0  0  0  0  0  0  0  0
  143.2474  136.8033  151.7712 H   0  0  0  0  0  0  0  0  0  0  0  0
  144.4597  136.1263  152.8416 H   0  0  0  0  0  0  0  0  0  0  0  0
  142.4078  138.2908  153.5518 H   0  0  0  0  0  0  0  0  0  0  0  0
  142.3902  136.6345  154.1138 H   0  0  0  0  0  0  0  0  0  0  0  0
  144.5259  136.9698  155.3091 H   0  0  0  0  0  0  0  0  0  0  0  0
  143.2796  138.8925  158.0509 H   0  0  0  0  0  0  0  0  0  0  0  0
  144.4812  137.7086  157.5722 H   0  0  0  0  0  0  0  0  0  0  0  0
  144.3362  140.6400  156.6779 H   0  0  0  0  0  0  0  0  0  0  0  0
  145.5499  139.9477  157.7423 H   0  0  0  0  0  0  0  0  0  0  0  0
  147.5605  142.3895  153.0978 H   0  0  0  0  0  0  0  0  0  0  0  0
  149.7981  140.3547  158.7851 H   0  0  0  0  0  0  0  0  0  0  0  0
  151.7385  141.6290  157.1782 H   0  0  0  0  0  0  0  0  0  0  0  0
  151.0514  142.7662  156.0507 H   0  0  0  0  0  0  0  0  0  0  0  0
  149.2070  144.0056  157.3349 H   0  0  0  0  0  0  0  0  0  0  0  0
  150.4962  142.0852  159.8710 H   0  0  0  0  0  0  0  0  0  0  0  0
  152.1788  142.2613  159.4394 H   0  0  0  0  0  0  0  0  0  0  0  0
  150.4513  144.3923  160.8017 H   0  0  0  0  0  0  0  0  0  0  0  0
  151.7685  143.4854  161.5124 H   0  0  0  0  0  0  0  0  0  0  0  0
  150.9758  146.0671  159.1226 H   0  0  0  0  0  0  0  0  0  0  0  0
  152.6541  146.3143  158.6910 H   0  0  0  0  0  0  0  0  0  0  0  0
  152.7864  144.1497  157.5655 H   0  0  0  0  0  0  0  0  0  0  0  0
  151.4547  145.0476  156.8850 H   0  0  0  0  0  0  0  0  0  0  0  0
  144.3106  139.8465  154.2806 H   0  0  0  0  0  0  0  0  0  0  0  0
  146.3823  137.6849  153.6185 H   0  0  0  0  0  0  0  0  0  0  0  0
  146.3741  139.3254  152.9954 H   0  0  0  0  0  0  0  0  0  0  0  0
  144.2798  138.9222  152.0047 H   0  0  0  0  0  0  0  0  0  0  0  0
  1  2  1  0  0  0  0
  1 29  1  0  0  0  0
  1 30  1  0  0  0  0
  1 31  1  0  0  0  0
  2 28  1  0  0  0  0
  2  3  1  0  0  0  0
  2 57  1  0  0  0  0
  3  4  1  0  0  0  0
  3 32  1  0  0  0  0
  3 33  1  0  0  0  0
  4  5  1  0  0  0  0
  4 34  1  0  0  0  0
  4 35  1  0  0  0  0
  5 27  1  0  0  0  0
  5  6  1  0  0  0  0
  5 36  1  0  0  0  0
  6  7  1  0  0  0  0
  7  8  1  0  0  0  0
  7 37  1  0  0  0  0
  7 38  1  0  0  0  0
  8  9  1  0  0  0  0
  8 39  1  0  0  0  0
  8 40  1  0  0  0  0
  9 10  1  0  0  0  0
  9 27  1  0  0  0  0
 10 15  1  0  0  0  0
 10 11  2  0  0  0  0
 11 12  1  0  0  0  0
 12 13  2  0  0  0  0
 12 41  1  0  0  0  0
 13 14  1  0  0  0  0
 14 18  1  0  0  0  0
 14 15  2  0  0  0  0
 15 16  1  0  0  0  0
 16 17  2  0  0  0  0
 17 18  1  0  0  0  0
 17 42  1  0  0  0  0
 18 19  1  0  0  0  0
 19 20  1  0  0  0  0
 19 43  1  0  0  0  0
 19 44  1  0  0  0  0
 20 26  1  0  0  0  0
 20 21  1  0  0  0  0
 20 22  1  0  0  0  0
 21 45  1  0  0  0  0
 22 23  1  0  0  0  0
 22 46  1  0  0  0  0
 22 47  1  0  0  0  0
 23 24  1  0  0  0  0
 23 48  1  0  0  0  0
 23 49  1  0  0  0  0
 24 25  1  0  0  0  0
 25 26  1  0  0  0  0
 25 50  1  0  0  0  0
 25 51  1  0  0  0  0
 26 52  1  0  0  0  0
 26 53  1  0  0  0  0
 27 28  1  0  0  0  0
 27 54  1  0  0  0  0
 28 55  1  0  0  0  0
 28 56  1  0  0  0  0
M  CHG  1   2   1
M  END
> <s_m_source_file>
AV-unprocessed.smi

> <i_m_source_file_index>
244

> <i_lp_mmshare_version>
43012

> <i_f3d_flags>
0

> <s_epik_input>
W0NIMl0xW0NIMl1OKFtDSDNdKVtDSDJdW0NAQEhdKFtDQEhdMTIpTihbQ0gyXVtDSDJdTzIpYyhuW2NIXW4zKWMoYzM0KW5bY0hdbjRbQ0gyXUM1KFtPSF0pW0NIMl1bQ0gyXU9bQ0gyXVtDSDJdNQ==

> <s_epik_cmdline>
J2VwaWtfcHl0aG9uJywgJy1waCcsICc3LjAnLCAnLXRuJywgJzgnLCAnLW1hJywgJzIwMCcsICctbWV0YWxfYmluZGluZycsICctaW1hZScsICc8aW5maWxlLm1hZT4nLCAnLW9tYWUnLCAnPG91dGZpbGUubWFlPic=

> <r_lp_tautomer_probability>
1

> <r_epik_Ionization_Penalty>
0.0136215

> <r_epik_Ionization_Penalty_Charging>
0.0131385

> <r_epik_Ionization_Penalty_Neutral>
0.000483022

> <r_epik_State_Penalty>
0.0104001

> <r_epik_Charging_Adjusted_Penalty>
0.0235387

> <i_epik_Tot_Q>
1

> <i_epik_Tot_abs_Q>
1

> <r_epik_Metal_State_Penalty>
0.0104469

> <b_epik_Metal_Only>
0

> <s_lp_Force_Field>
OPLS_2005

> <r_lp_Energy>
41.0301

> <b_lp_Chiralities_Consistent>
1

> <s_lp_Variant>
AV-unprocessed.smi:244-1

> <Gold.Version>
5.8.1

> <Gold.Id.Protein>
6NUR|6NUR_protein|mol2

> <Gold.PLP.Fitness>
40.1198

> <Gold.PLP.PLP>
-32.3492

> <Gold.PLP.part.hbond>
-4.5086

> <Gold.PLP.part.metal>
0.0000

> <Gold.PLP.part.buried>
1.2862

> <Gold.PLP.part.nonpolar>
-31.9476

> <Gold.PLP.part.repulsive>
2.0030

> <Gold.PLP.ligand.clash>
0.0000

> <Gold.PLP.ligand.torsion>
0.6804

> <Gold.PLP.Chemscore.Hbond>
3.0000

> <Gold.PLP.Chemscore.CHOScore>
0.0000

> <Gold.PLP.Chemscore.Metal>
0.0000

> <Gold.Chemscore.Hbonds>
donor molecule, donor type, donor heavy atom, donor atom, acceptor molecule, acceptor atom, score
      L1  H     2    57       P1 10175  2.00
      L1  H    21    45       P1  8028  0.85

> <Gold.PLP.Chemscore.Internal.Correction>
0.1315

> <Gold.Rescore>
     Score         DG    S(hbond)    S(metal)    S(lipo)     H(rot)  DE(clash)    DE(int)     intcor
     12.04     -15.60       1.74        0.00      82.60       2.09       1.68       1.87       ----

> <Gold.Chemscore.Fitness>
12.0417

> <Gold.Chemscore.DG>
-15.5968

> <Gold.Chemscore.ZeroCoef>
-5.4800

> <Gold.Chemscore.Hbond>
1.7383

> <Gold.Chemscore.Metal>
0.0000

> <Gold.Chemscore.Lipo>
82.5965

> <Gold.Chemscore.Internal_Hbond>
0.0000

> <Gold.Chemscore.DEClash>
1.6840

> <Gold.Chemscore.DEInternal>
1.8711

> <Gold.Chemscore.Rot>
2.0911

> <Gold.Chemscore.Internal.Correction>
   9.000000E+99

> <Gold.Chemscore.Hbonds>
donor molecule, donor type, donor heavy atom, donor atom, acceptor molecule, acceptor atom, score
      L1  H     2    57       P1 10175  0.94
      L1  H    21    45       P1  8028  0.15

> <Gold.Chemscore.Hbond.Weighted>
-5.8061

> <Gold.Chemscore.Metal.Weighted>
-0.0000

> <Gold.Chemscore.Lipo.Weighted>
-9.6638

> <Gold.Chemscore.Internal_Hbond.Weighted>
0.0000

> <Gold.Chemscore.DEClash.Weighted>
1.6840

> <Gold.Chemscore.DEInternal.Weighted>
1.8711

> <Gold.Chemscore.Rot.Weighted>
5.3531

> <Gold.Chemscore.Internal.Correction.Weighted>
   9.000000E+99

> <Gold.Protein.RotatedTorsions>
[ 6907 6896 6895 6894 ] final  114.98 input  -60.11 | X-H torsion
[ 7974 7965 7964 7962 ] final -171.04 input  175.53 | X-H torsion
[ 8008 7997 7996 7995 ] final  -62.28 input   59.86 | X-H torsion
[ 10167 10162 10161 10158 ] final  -45.95 input  -65.29 | X-H torsion
[ 10718 10713 10712 10709 ] final  132.76 input   66.30 | X-H torsion
[ 10763 10752 10751 10750 ] final   42.40 input  -60.55 | X-H torsion
[ 11005 11000 10999 10996 ] final   32.42 input  -57.11 | X-H torsion

> <Gold.Protein.ActiveResidues>
 VAL166  LYS551  ARG553  GLY616  TRP617  ASP618  TYR619  PRO620  LYS621  CYS622 
 ASP623  PHE694  ASN695  SER759  ASP760  ASP761  ALA762  ILE779  LEU786  VAL792 
 PHE793  MET794  SER795  GLU796  ALA797  LYS798  CYS799  TRP800  GLU811  SER814 

> <Gold.Protein.RotatedAtoms>
  152.4770  133.8161  159.7028 H   0  0  0  0  0  0  0  0  0  0  0  0  # atno 6907 bound_to 6896
  150.8793  133.7385  159.2943 H   0  0  0  0  0  0  0  0  0  0  0  0  # atno 6908 bound_to 6896
  151.4894  135.1060  159.9851 H   0  0  0  0  0  0  0  0  0  0  0  0  # atno 6909 bound_to 6896
  144.7162  140.1981  143.6341 H   0  0  0  0  0  0  0  0  0  0  0  0  # atno 7974 bound_to 7965
  154.4492  140.0999  156.6563 H   0  0  0  0  0  0  0  0  0  0  0  0  # atno 8008 bound_to 7997
  155.5342  140.3482  155.4414 H   0  0  0  0  0  0  0  0  0  0  0  0  # atno 8009 bound_to 7997
  156.0643  140.1334  156.9894 H   0  0  0  0  0  0  0  0  0  0  0  0  # atno 8010 bound_to 7997
  140.6837  143.2854  151.3713 H   0  0  0  0  0  0  0  0  0  0  0  0  # atno 10167 bound_to 10162
  157.4839  131.1087  150.9645 H   0  0  0  0  0  0  0  0  0  0  0  0  # atno 10718 bound_to 10713
  152.9884  135.6133  154.2942 H   0  0  0  0  0  0  0  0  0  0  0  0  # atno 10763 bound_to 10752
  154.2666  135.2781  155.2757 H   0  0  0  0  0  0  0  0  0  0  0  0  # atno 10764 bound_to 10752
  154.5159  135.5828  153.6699 H   0  0  0  0  0  0  0  0  0  0  0  0  # atno 10765 bound_to 10752
  140.2736  134.3054  155.7820 H   0  0  0  0  0  0  0  0  0  0  0  0  # atno 11005 bound_to 11000
  145.8705  139.2270  143.1663 LP  0  0  0  0  0  0  0  0  0  0  0  0  # atno 17320 bound_to 7965
  146.0089  140.8453  142.9981 LP  0  0  0  0  0  0  0  0  0  0  0  0  # atno 17321 bound_to 7965
  139.6179  144.0966  152.2363 LP  0  0  0  0  0  0  0  0  0  0  0  0  # atno 17342 bound_to 10162
  140.0401  144.6014  150.7418 LP  0  0  0  0  0  0  0  0  0  0  0  0  # atno 17343 bound_to 10162
  157.0369  130.5733  149.5350 LP  0  0  0  0  0  0  0  0  0  0  0  0  # atno 17370 bound_to 10713
  156.0136  130.5229  150.8067 LP  0  0  0  0  0  0  0  0  0  0  0  0  # atno 17371 bound_to 10713
  141.2174  133.7482  156.9372 LP  0  0  0  0  0  0  0  0  0  0  0  0  # atno 17394 bound_to 11000
  140.1350  134.9331  157.2389 LP  0  0  0  0  0  0  0  0  0  0  0  0  # atno 17395 bound_to 11000

$$$$
