AV-unprocessed.smi:1464|AV-procd|sdf|5939|dock4
  -GOLD-   22720 6 23D 1   1.00000     0.00000
 Structure written by MMmdl.
 40 41  0  0  0  0  0  0  0  0  2 V2000
  151.6240  143.8986  161.2817 C   0  0  0  0  0  0  0  0  0  0  0  0
  152.6242  144.0770  160.1208 C   0  0  2  0  0  0  0  0  0  0  0  0
  152.1481  145.1501  159.1205 C   0  0  0  0  0  0  0  0  0  0  0  0
  150.9718  144.6622  158.2604 C   0  0  0  0  0  0  0  0  0  0  0  0
  151.3244  143.3602  157.5277 C   0  0  0  0  0  0  0  0  0  0  0  0
  151.8002  142.2622  158.4987 C   0  0  1  0  0  0  0  0  0  0  0  0
  152.1977  141.0888  157.7216 N   0  0  0  0  0  0  0  0  0  0  0  0
  151.4979  140.5261  156.7237 C   0  0  0  0  0  0  0  0  0  0  0  0
  150.4059  140.9494  156.3407 O   0  0  0  0  0  0  0  0  0  0  0  0
  152.1493  139.2934  156.0768 C   0  0  0  0  0  0  0  0  0  0  0  0
  151.4442  138.0298  156.3376 N   0  0  0  0  0  0  0  0  0  0  0  0
  151.0114  137.8713  157.7235 N   0  5  0  0  0  0  0  0  0  0  0  0
  150.3200  136.7557  158.0781 C   0  0  0  0  0  0  0  0  0  0  0  0
  149.9048  136.5633  159.2185 O   0  0  0  0  0  0  0  0  0  0  0  0
  150.0713  135.7515  157.0571 C   0  0  0  0  0  0  0  0  0  0  0  0
  150.5079  135.9111  155.7922 C   0  0  0  0  0  0  0  0  0  0  0  0
  151.2455  137.0941  155.3656 C   0  0  0  0  0  0  0  0  0  0  0  0
  151.6544  137.2423  154.2137 O   0  0  0  0  0  0  0  0  0  0  0  0
  152.9773  142.7607  159.3771 C   0  0  2  0  0  0  0  0  0  0  0  0
  153.5215  141.6760  160.3280 C   0  0  0  0  0  0  0  0  0  0  0  0
  150.6761  143.4765  160.9492 H   0  0  0  0  0  0  0  0  0  0  0  0
  151.4063  144.8554  161.7568 H   0  0  0  0  0  0  0  0  0  0  0  0
  152.0222  143.2449  162.0573 H   0  0  0  0  0  0  0  0  0  0  0  0
  153.5449  144.4531  160.5691 H   0  0  0  0  0  0  0  0  0  0  0  0
  151.8704  146.0630  159.6484 H   0  0  0  0  0  0  0  0  0  0  0  0
  152.9766  145.4217  158.4651 H   0  0  0  0  0  0  0  0  0  0  0  0
  150.0906  144.5074  158.8836 H   0  0  0  0  0  0  0  0  0  0  0  0
  150.7008  145.4305  157.5359 H   0  0  0  0  0  0  0  0  0  0  0  0
  150.4575  143.0106  156.9652 H   0  0  0  0  0  0  0  0  0  0  0  0
  152.1049  143.5651  156.7933 H   0  0  0  0  0  0  0  0  0  0  0  0
  150.9667  142.0079  159.1549 H   0  0  0  0  0  0  0  0  0  0  0  0
  153.0805  140.6645  157.9664 H   0  0  0  0  0  0  0  0  0  0  0  0
  152.2200  139.4587  155.0003 H   0  0  0  0  0  0  0  0  0  0  0  0
  153.1804  139.2292  156.4295 H   0  0  0  0  0  0  0  0  0  0  0  0
  149.5264  134.8565  157.3194 H   0  0  0  0  0  0  0  0  0  0  0  0
  150.3019  135.1385  155.0667 H   0  0  0  0  0  0  0  0  0  0  0  0
  153.7971  143.0046  158.6990 H   0  0  0  0  0  0  0  0  0  0  0  0
  152.7356  141.2692  160.9646 H   0  0  0  0  0  0  0  0  0  0  0  0
  154.3039  142.0749  160.9739 H   0  0  0  0  0  0  0  0  0  0  0  0
  153.9558  140.8423  159.7759 H   0  0  0  0  0  0  0  0  0  0  0  0
  1  2  1  0  0  0  0
  1 21  1  0  0  0  0
  1 22  1  0  0  0  0
  1 23  1  0  0  0  0
  2 19  1  0  0  0  0
  2  3  1  0  0  0  0
  2 24  1  0  0  0  0
  3  4  1  0  0  0  0
  3 25  1  0  0  0  0
  3 26  1  0  0  0  0
  4  5  1  0  0  0  0
  4 27  1  0  0  0  0
  4 28  1  0  0  0  0
  5  6  1  0  0  0  0
  5 29  1  0  0  0  0
  5 30  1  0  0  0  0
  6  7  1  0  0  0  0
  6 19  1  0  0  0  0
  6 31  1  0  0  0  0
  7  8  1  0  0  0  0
  7 32  1  0  0  0  0
  8  9  2  0  0  0  0
  8 10  1  0  0  0  0
 10 33  1  0  0  0  0
 10 34  1  0  0  0  0
 10 11  1  0  0  0  0
 11 12  1  0  0  0  0
 11 17  1  0  0  0  0
 12 13  1  0  0  0  0
 13 14  2  0  0  0  0
 13 15  1  0  0  0  0
 15 35  1  0  0  0  0
 15 16  2  0  0  0  0
 16 36  1  0  0  0  0
 16 17  1  0  0  0  0
 17 18  2  0  0  0  0
 19 20  1  0  0  0  0
 19 37  1  0  0  0  0
 20 38  1  0  0  0  0
 20 39  1  0  0  0  0
 20 40  1  0  0  0  0
M  CHG  1  12  -1
M  END
> <s_m_source_file>
AV-unprocessed.smi

> <i_m_source_file_index>
1464

> <i_lp_mmshare_version>
43012

> <i_f3d_flags>
0

> <s_epik_input>
W0NIM11bQ0BASF0xW0NIMl1bQ0gyXVtDSDJdW0NASF0oW0NASF0xW0NIM10pW05IXUMoPU8pW0NIMl1uMltuSF1jKD1PKVtjSF1bY0hdYzI9Tw==

> <s_epik_cmdline>
J2VwaWtfcHl0aG9uJywgJy1waCcsICc3LjAnLCAnLXRuJywgJzgnLCAnLW1hJywgJzIwMCcsICctbWV0YWxfYmluZGluZycsICctaW1hZScsICc8aW5maWxlLm1hZT4nLCAnLW9tYWUnLCAnPG91dGZpbGUubWFlPic=

> <r_lp_tautomer_probability>
1

> <r_epik_Ionization_Penalty>
0.101366

> <r_epik_Ionization_Penalty_Charging>
0.101366

> <r_epik_Ionization_Penalty_Neutral>
1.90469e-08

> <r_epik_State_Penalty>
0.035861

> <r_epik_Charging_Adjusted_Penalty>
0.137227

> <i_epik_Tot_Q>
-1

> <i_epik_Tot_abs_Q>
1

> <r_epik_Metal_State_Penalty>
0.035861

> <b_epik_Metal_Only>
0

> <s_lp_Force_Field>
OPLS_2005

> <r_lp_Energy>
29.8831

> <b_lp_Chiralities_Consistent>
1

> <s_lp_Variant>
AV-unprocessed.smi:1464-5

> <Gold.Version>
5.8.1

> <Gold.Id.Protein>
6NUR|6NUR_protein|mol2

> <Gold.PLP.Fitness>
42.8998

> <Gold.PLP.PLP>
-37.7509

> <Gold.PLP.part.hbond>
-2.0000

> <Gold.PLP.part.metal>
0.0000

> <Gold.PLP.part.buried>
-4.9854

> <Gold.PLP.part.nonpolar>
-32.5243

> <Gold.PLP.part.repulsive>
0.8739

> <Gold.PLP.ligand.clash>
0.0000

> <Gold.PLP.ligand.torsion>
0.4162

> <Gold.PLP.Chemscore.Hbond>
1.9913

> <Gold.PLP.Chemscore.CHOScore>
0.0000

> <Gold.PLP.Chemscore.Metal>
0.0000

> <Gold.Chemscore.Hbonds>
donor molecule, donor type, donor heavy atom, donor atom, acceptor molecule, acceptor atom, score
      P1  H  6896  6908       L1    14  1.00
      P1  H 10752 10764       L1    18  0.94

> <Gold.PLP.Chemscore.Internal.Correction>
0.0076

> <Gold.Rescore>
     Score         DG    S(hbond)    S(metal)    S(lipo)     H(rot)  DE(clash)    DE(int)     intcor
     15.43     -17.25       1.07        0.00     106.08       1.64       0.12       1.70       ----

> <Gold.Chemscore.Fitness>
15.4348

> <Gold.Chemscore.DG>
-17.2518

> <Gold.Chemscore.ZeroCoef>
-5.4800

> <Gold.Chemscore.Hbond>
1.0685

> <Gold.Chemscore.Metal>
0.0000

> <Gold.Chemscore.Lipo>
106.0753

> <Gold.Chemscore.Internal_Hbond>
0.0000

> <Gold.Chemscore.DEClash>
0.1176

> <Gold.Chemscore.DEInternal>
1.6994

> <Gold.Chemscore.Rot>
1.6438

> <Gold.Chemscore.Internal.Correction>
   9.000000E+99

> <Gold.Chemscore.Hbonds>
donor molecule, donor type, donor heavy atom, donor atom, acceptor molecule, acceptor atom, score
      P1  H  6896  6908       L1    14  0.34
      P1  H 10752 10764       L1    18  0.26

> <Gold.Chemscore.Hbond.Weighted>
-3.5690

> <Gold.Chemscore.Metal.Weighted>
-0.0000

> <Gold.Chemscore.Lipo.Weighted>
-12.4108

> <Gold.Chemscore.Internal_Hbond.Weighted>
0.0000

> <Gold.Chemscore.DEClash.Weighted>
0.1176

> <Gold.Chemscore.DEInternal.Weighted>
1.6994

> <Gold.Chemscore.Rot.Weighted>
4.2080

> <Gold.Chemscore.Internal.Correction.Weighted>
   9.000000E+99

> <Gold.Protein.RotatedTorsions>
[ 6907 6896 6895 6894 ] final -164.86 input  -60.11 | X-H torsion
[ 7974 7965 7964 7962 ] final   22.27 input  175.53 | X-H torsion
[ 8008 7997 7996 7995 ] final   16.81 input   59.86 | X-H torsion
[ 10167 10162 10161 10158 ] final -128.49 input  -65.29 | X-H torsion
[ 10718 10713 10712 10709 ] final  -58.48 input   66.30 | X-H torsion
[ 10763 10752 10751 10750 ] final  -91.25 input  -60.55 | X-H torsion
[ 11005 11000 10999 10996 ] final -143.43 input  -57.11 | X-H torsion

> <Gold.Protein.ActiveResidues>
 VAL166  LYS551  ARG553  GLY616  TRP617  ASP618  TYR619  PRO620  LYS621  CYS622 
 ASP623  PHE694  ASN695  SER759  ASP760  ASP761  ALA762  ILE779  LEU786  VAL792 
 PHE793  MET794  SER795  GLU796  ALA797  LYS798  CYS799  TRP800  GLU811  SER814 

> <Gold.Protein.RotatedAtoms>
  151.4184  133.3705  159.2752 H   0  0  0  0  0  0  0  0  0  0  0  0  # atno 6907 bound_to 6896
  150.9311  134.8727  159.7562 H   0  0  0  0  0  0  0  0  0  0  0  0  # atno 6908 bound_to 6896
  152.5028  134.4129  159.9507 H   0  0  0  0  0  0  0  0  0  0  0  0  # atno 6909 bound_to 6896
  146.2036  139.7909  142.8743 H   0  0  0  0  0  0  0  0  0  0  0  0  # atno 7974 bound_to 7965
  154.8823  140.2975  155.5418 H   0  0  0  0  0  0  0  0  0  0  0  0  # atno 8008 bound_to 7997
  156.3022  140.2440  156.3762 H   0  0  0  0  0  0  0  0  0  0  0  0  # atno 8009 bound_to 7997
  154.8704  140.0401  157.1710 H   0  0  0  0  0  0  0  0  0  0  0  0  # atno 8010 bound_to 7997
  139.9497  143.6070  152.2479 H   0  0  0  0  0  0  0  0  0  0  0  0  # atno 10167 bound_to 10162
  156.1132  130.4173  150.0583 H   0  0  0  0  0  0  0  0  0  0  0  0  # atno 10718 bound_to 10713
  154.6741  135.5275  153.8177 H   0  0  0  0  0  0  0  0  0  0  0  0  # atno 10763 bound_to 10752
  153.0521  135.6536  154.0678 H   0  0  0  0  0  0  0  0  0  0  0  0  # atno 10764 bound_to 10752
  154.0574  135.2964  155.3310 H   0  0  0  0  0  0  0  0  0  0  0  0  # atno 10765 bound_to 10752
  140.8126  134.2727  157.4934 H   0  0  0  0  0  0  0  0  0  0  0  0  # atno 11005 bound_to 11000
  145.3398  141.0285  143.3399 LP  0  0  0  0  0  0  0  0  0  0  0  0  # atno 17320 bound_to 7965
  144.8740  139.4998  143.6754 LP  0  0  0  0  0  0  0  0  0  0  0  0  # atno 17321 bound_to 7965
  139.6638  144.7662  151.1912 LP  0  0  0  0  0  0  0  0  0  0  0  0  # atno 17342 bound_to 10162
  140.7586  143.5969  150.8739 LP  0  0  0  0  0  0  0  0  0  0  0  0  # atno 17343 bound_to 10162
  156.8540  130.9469  151.3623 LP  0  0  0  0  0  0  0  0  0  0  0  0  # atno 17370 bound_to 10713
  157.6314  130.8732  149.9281 LP  0  0  0  0  0  0  0  0  0  0  0  0  # atno 17371 bound_to 10713
  139.8713  134.9491  156.4016 LP  0  0  0  0  0  0  0  0  0  0  0  0  # atno 17394 bound_to 11000
  140.9182  133.7663  155.9874 LP  0  0  0  0  0  0  0  0  0  0  0  0  # atno 17395 bound_to 11000

$$$$
