AV-unprocessed.smi:1471|AV-procd|sdf|5962|dock1
  -GOLD-   22720 6 43D 1   1.00000     0.00000
 Structure written by MMmdl.
 42 43  0  0  0  0  0  0  0  0  1 V2000
  148.7971  133.0943  153.3663 C   0  0  0  0  0  0  0  0  0  0  0  0
  149.6429  133.6446  154.4822 C   0  0  0  0  0  0  0  0  0  0  0  0
  149.6063  134.9236  154.6621 N   0  0  0  0  0  0  0  0  0  0  0  0
  150.3172  135.5329  155.6797 N   0  0  0  0  0  0  0  0  0  0  0  0
  150.1222  136.9915  155.7625 C   0  0  0  0  0  0  0  0  0  0  0  0
  150.7797  137.7767  154.6023 C   0  0  2  0  0  0  0  0  0  0  0  0
  151.9857  137.1505  154.2172 O   0  0  0  0  0  0  0  0  0  0  0  0
  151.0578  139.2635  154.8884 C   0  0  0  0  0  0  0  0  0  0  0  0
  151.6618  139.4231  156.1646 O   0  0  0  0  0  0  0  0  0  0  0  0
  150.9270  140.2651  157.0421 C   0  0  0  0  0  0  0  0  0  0  0  0
  151.7988  140.9121  158.1067 C   0  0  0  0  0  0  0  0  0  0  0  0
  152.5406  140.1098  159.0002 C   0  0  0  0  0  0  0  0  0  0  0  0
  153.3554  140.7060  159.9820 C   0  0  0  0  0  0  0  0  0  0  0  0
  153.4219  142.1083  160.0850 C   0  0  0  0  0  0  0  0  0  0  0  0
  152.6749  142.9130  159.2040 C   0  0  0  0  0  0  0  0  0  0  0  0
  151.8706  142.3186  158.2121 C   0  0  0  0  0  0  0  0  0  0  0  0
  151.1725  143.1058  157.3589 F   0  0  0  0  0  0  0  0  0  0  0  0
  151.1518  134.8754  156.5370 C   0  0  0  0  0  0  0  0  0  0  0  0
  151.7954  135.4485  157.4168 O   0  0  0  0  0  0  0  0  0  0  0  0
  151.2048  133.4289  156.3136 C   0  0  0  0  0  0  0  0  0  0  0  0
  152.0651  132.7040  157.1923 C   0  0  0  0  0  0  0  0  0  0  0  0
  152.7475  132.1188  157.9218 N   0  0  0  0  0  0  0  0  0  0  0  0
  150.4804  132.8183  155.3434 C   0  0  0  0  0  0  0  0  0  0  0  0
  150.4861  131.3180  155.0850 C   0  0  0  0  0  0  0  0  0  0  0  0
  149.4206  132.6362  152.5984 H   0  0  0  0  0  0  0  0  0  0  0  0
  148.2003  133.8719  152.8868 H   0  0  0  0  0  0  0  0  0  0  0  0
  148.1077  132.3372  153.7401 H   0  0  0  0  0  0  0  0  0  0  0  0
  149.0639  137.2548  155.7904 H   0  0  0  0  0  0  0  0  0  0  0  0
  150.5304  137.3371  156.7133 H   0  0  0  0  0  0  0  0  0  0  0  0
  150.1284  137.7236  153.7293 H   0  0  0  0  0  0  0  0  0  0  0  0
  152.1814  137.4036  153.3278 H   0  0  0  0  0  0  0  0  0  0  0  0
  151.6864  139.6987  154.1094 H   0  0  0  0  0  0  0  0  0  0  0  0
  150.1118  139.8033  154.8609 H   0  0  0  0  0  0  0  0  0  0  0  0
  150.4695  141.0528  156.4432 H   0  0  0  0  0  0  0  0  0  0  0  0
  150.0994  139.7226  157.5025 H   0  0  0  0  0  0  0  0  0  0  0  0
  152.4920  139.0332  158.9299 H   0  0  0  0  0  0  0  0  0  0  0  0
  153.9271  140.0878  160.6583 H   0  0  0  0  0  0  0  0  0  0  0  0
  154.0452  142.5667  160.8386 H   0  0  0  0  0  0  0  0  0  0  0  0
  152.7272  143.9889  159.2817 H   0  0  0  0  0  0  0  0  0  0  0  0
  151.1657  130.7867  155.7504 H   0  0  0  0  0  0  0  0  0  0  0  0
  150.7970  131.1053  154.0616 H   0  0  0  0  0  0  0  0  0  0  0  0
  149.4893  130.9026  155.2364 H   0  0  0  0  0  0  0  0  0  0  0  0
  1  2  1  0  0  0  0
  1 25  1  0  0  0  0
  1 26  1  0  0  0  0
  1 27  1  0  0  0  0
  2 23  1  0  0  0  0
  2  3  2  0  0  0  0
  3  4  1  0  0  0  0
  4  5  1  0  0  0  0
  4 18  1  0  0  0  0
  5  6  1  0  0  0  0
  5 28  1  0  0  0  0
  5 29  1  0  0  0  0
  6  7  1  0  0  0  0
  6  8  1  0  0  0  0
  6 30  1  0  0  0  0
  7 31  1  0  0  0  0
  8  9  1  0  0  0  0
  8 32  1  0  0  0  0
  8 33  1  0  0  0  0
  9 10  1  0  0  0  0
 10 11  1  0  0  0  0
 10 34  1  0  0  0  0
 10 35  1  0  0  0  0
 11 16  1  0  0  0  0
 11 12  2  0  0  0  0
 12 13  1  0  0  0  0
 12 36  1  0  0  0  0
 13 14  2  0  0  0  0
 13 37  1  0  0  0  0
 14 15  1  0  0  0  0
 14 38  1  0  0  0  0
 15 16  2  0  0  0  0
 15 39  1  0  0  0  0
 16 17  1  0  0  0  0
 18 19  2  0  0  0  0
 18 20  1  0  0  0  0
 20 21  1  0  0  0  0
 20 23  2  0  0  0  0
 21 22  3  0  0  0  0
 23 24  1  0  0  0  0
 24 40  1  0  0  0  0
 24 41  1  0  0  0  0
 24 42  1  0  0  0  0
M  END
> <s_m_source_file>
AV-unprocessed.smi

> <i_m_source_file_index>
1471

> <i_lp_mmshare_version>
43012

> <i_f3d_flags>
0

> <s_epik_input>
TiNDYyhjMVtDSDNdKWMoPU8pbihuYzFbQ0gzXSlbQ0gyXVtDQEhdKFtPSF0pW0NIMl1PW0NIMl1jMltjSF1bY0hdW2NIXVtjSF1jMkY=

> <s_epik_cmdline>
J2VwaWtfcHl0aG9uJywgJy1waCcsICc3LjAnLCAnLXRuJywgJzgnLCAnLW1hJywgJzIwMCcsICctbWV0YWxfYmluZGluZycsICctaW1hZScsICc8aW5maWxlLm1hZT4nLCAnLW9tYWUnLCAnPG91dGZpbGUubWFlPic=

> <r_lp_tautomer_probability>
1

> <r_epik_Ionization_Penalty>
6.13319e-08

> <r_epik_Ionization_Penalty_Charging>
2.19172e-10

> <r_epik_Ionization_Penalty_Neutral>
6.11128e-08

> <r_epik_State_Penalty>
-0

> <r_epik_Charging_Adjusted_Penalty>
2.19172e-10

> <i_epik_Tot_Q>
0

> <i_epik_Tot_abs_Q>
0

> <r_epik_Metal_State_Penalty>
-0

> <b_epik_Metal_Only>
0

> <s_lp_Force_Field>
OPLS_2005

> <r_lp_Energy>
27.5477

> <b_lp_Chiralities_Consistent>
1

> <s_lp_Variant>
AV-unprocessed.smi:1471-1

> <Gold.Version>
5.8.1

> <Gold.Id.Protein>
6NUR|6NUR_protein|mol2

> <Gold.PLP.Fitness>
50.0837

> <Gold.PLP.PLP>
-46.7387

> <Gold.PLP.part.hbond>
-4.0000

> <Gold.PLP.part.metal>
0.0000

> <Gold.PLP.part.buried>
-4.8663

> <Gold.PLP.part.nonpolar>
-38.7281

> <Gold.PLP.part.repulsive>
1.4070

> <Gold.PLP.ligand.clash>
0.0000

> <Gold.PLP.ligand.torsion>
1.0022

> <Gold.PLP.Chemscore.Hbond>
1.6585

> <Gold.PLP.Chemscore.CHOScore>
0.0000

> <Gold.PLP.Chemscore.Metal>
0.0000

> <Gold.Chemscore.Hbonds>
donor molecule, donor type, donor heavy atom, donor atom, acceptor molecule, acceptor atom, score
      P1  H  6896  6908       L1    22  0.35
      P1  H 10752 10763       L1     7  0.94

> <Gold.PLP.Chemscore.Internal.Correction>
0.3740

> <Gold.Rescore>
     Score         DG    S(hbond)    S(metal)    S(lipo)     H(rot)  DE(clash)    DE(int)     intcor
     12.99     -15.06       1.17        0.00     106.36       2.65       1.05       1.02       ----

> <Gold.Chemscore.Fitness>
12.9891

> <Gold.Chemscore.DG>
-15.0588

> <Gold.Chemscore.ZeroCoef>
-5.4800

> <Gold.Chemscore.Hbond>
1.1710

> <Gold.Chemscore.Metal>
0.0000

> <Gold.Chemscore.Lipo>
106.3578

> <Gold.Chemscore.Internal_Hbond>
0.0000

> <Gold.Chemscore.DEClash>
1.0495

> <Gold.Chemscore.DEInternal>
1.0203

> <Gold.Chemscore.Rot>
2.6470

> <Gold.Chemscore.Internal.Correction>
   9.000000E+99

> <Gold.Chemscore.Hbonds>
donor molecule, donor type, donor heavy atom, donor atom, acceptor molecule, acceptor atom, score
      P1  H  6896  6908       L1    22  0.01
      P1  H 10752 10763       L1     7  0.32

> <Gold.Chemscore.Hbond.Weighted>
-3.9112

> <Gold.Chemscore.Metal.Weighted>
-0.0000

> <Gold.Chemscore.Lipo.Weighted>
-12.4439

> <Gold.Chemscore.Internal_Hbond.Weighted>
0.0000

> <Gold.Chemscore.DEClash.Weighted>
1.0495

> <Gold.Chemscore.DEInternal.Weighted>
1.0203

> <Gold.Chemscore.Rot.Weighted>
6.7762

> <Gold.Chemscore.Internal.Correction.Weighted>
   9.000000E+99

> <Gold.Protein.RotatedTorsions>
[ 6907 6896 6895 6894 ] final   34.55 input  -60.11 | X-H torsion
[ 7974 7965 7964 7962 ] final  -52.82 input  175.53 | X-H torsion
[ 8008 7997 7996 7995 ] final  -28.73 input   59.86 | X-H torsion
[ 10167 10162 10161 10158 ] final   59.64 input  -65.29 | X-H torsion
[ 10718 10713 10712 10709 ] final -152.69 input   66.30 | X-H torsion
[ 10763 10752 10751 10750 ] final   48.07 input  -60.55 | X-H torsion
[ 11005 11000 10999 10996 ] final  112.85 input  -57.11 | X-H torsion

> <Gold.Protein.ActiveResidues>
 VAL166  LYS551  ARG553  GLY616  TRP617  ASP618  TYR619  PRO620  LYS621  CYS622 
 ASP623  PHE694  ASN695  SER759  ASP760  ASP761  ALA762  ILE779  LEU786  VAL792 
 PHE793  MET794  SER795  GLU796  ALA797  LYS798  CYS799  TRP800  GLU811  SER814 

> <Gold.Protein.RotatedAtoms>
  152.1040  134.9322  160.0568 H   0  0  0  0  0  0  0  0  0  0  0  0  # atno 6907 bound_to 6896
  152.0525  133.4020  159.4391 H   0  0  0  0  0  0  0  0  0  0  0  0  # atno 6908 bound_to 6896
  150.6840  134.3212  159.4831 H   0  0  0  0  0  0  0  0  0  0  0  0  # atno 6909 bound_to 6896
  145.9037  140.7973  142.9730 H   0  0  0  0  0  0  0  0  0  0  0  0  # atno 7974 bound_to 7965
  154.4319  140.1837  156.1136 H   0  0  0  0  0  0  0  0  0  0  0  0  # atno 8008 bound_to 7997
  156.0198  140.3342  155.7002 H   0  0  0  0  0  0  0  0  0  0  0  0  # atno 8009 bound_to 7997
  155.5992  140.0638  157.2728 H   0  0  0  0  0  0  0  0  0  0  0  0  # atno 8010 bound_to 7997
  140.1743  144.4246  150.6646 H   0  0  0  0  0  0  0  0  0  0  0  0  # atno 10167 bound_to 10162
  156.4758  130.8280  151.2508 H   0  0  0  0  0  0  0  0  0  0  0  0  # atno 10718 bound_to 10713
  152.9794  135.5956  154.3866 H   0  0  0  0  0  0  0  0  0  0  0  0  # atno 10763 bound_to 10752
  154.3525  135.2767  155.2366 H   0  0  0  0  0  0  0  0  0  0  0  0  # atno 10764 bound_to 10752
  154.4399  135.6016  153.6177 H   0  0  0  0  0  0  0  0  0  0  0  0  # atno 10765 bound_to 10752
  139.8938  134.9538  156.6649 H   0  0  0  0  0  0  0  0  0  0  0  0  # atno 11005 bound_to 11000
  144.6737  140.1718  143.7413 LP  0  0  0  0  0  0  0  0  0  0  0  0  # atno 17320 bound_to 7965
  145.8758  139.2296  143.1634 LP  0  0  0  0  0  0  0  0  0  0  0  0  # atno 17321 bound_to 7965
  140.6562  143.2238  151.5964 LP  0  0  0  0  0  0  0  0  0  0  0  0  # atno 17342 bound_to 10162
  139.5324  144.2878  152.1177 LP  0  0  0  0  0  0  0  0  0  0  0  0  # atno 17343 bound_to 10162
  157.7487  131.0061  150.3139 LP  0  0  0  0  0  0  0  0  0  0  0  0  # atno 17370 bound_to 10713
  156.3572  130.3841  149.7281 LP  0  0  0  0  0  0  0  0  0  0  0  0  # atno 17371 bound_to 10713
  140.7418  133.8971  155.8284 LP  0  0  0  0  0  0  0  0  0  0  0  0  # atno 17394 bound_to 11000
  141.0071  134.1071  157.4259 LP  0  0  0  0  0  0  0  0  0  0  0  0  # atno 17395 bound_to 11000

$$$$
