AV-unprocessed.smi:106|AV-procd|sdf|1012|dock4
  -GOLD-   2262018 13D 1   1.00000     0.00000
 Structure written by MMmdl.
 51 54  0  0  0  0  0  0  0  0  1 V2000
  152.2146  136.2910  156.4851 O   0  0  0  0  0  0  0  0  0  0  0  0
  151.5055  137.0244  157.1774 C   0  0  0  0  0  0  0  0  0  0  0  0
  149.9717  136.8451  157.1314 C   0  0  0  0  0  0  0  0  0  0  0  0
  149.3408  136.7892  158.4692 N   0  0  0  0  0  0  0  0  0  0  0  0
  148.2072  137.6017  158.7197 C   0  0  0  0  0  0  0  0  0  0  0  0
  147.7461  138.3406  157.8486 O   0  0  0  0  0  0  0  0  0  0  0  0
  147.6452  137.5027  160.0619 C   0  0  0  0  0  0  0  0  0  0  0  0
  146.5597  138.2268  160.3835 F   0  0  0  0  0  0  0  0  0  0  0  0
  148.1968  136.6928  160.9888 C   0  0  0  0  0  0  0  0  0  0  0  0
  149.3152  135.9186  160.7364 N   0  0  0  0  0  0  0  0  0  0  0  0
  149.9297  135.0237  161.7919 C   0  0  1  0  0  0  0  0  0  0  0  0
  150.2523  135.8293  163.0644 C   0  0  0  0  0  0  0  0  0  0  0  0
  149.6032  135.0037  164.1572 C   0  0  0  0  0  0  0  0  0  0  0  0
  148.4441  134.3554  163.4154 C   0  0  0  0  0  0  0  0  0  0  0  0
  149.0197  134.0254  162.1581 O   0  0  0  0  0  0  0  0  0  0  0  0
  149.9116  135.9514  159.4572 C   0  0  0  0  0  0  0  0  0  0  0  0
  150.9111  135.2717  159.2134 O   0  0  0  0  0  0  0  0  0  0  0  0
  152.0242  137.9885  157.9765 N   0  0  0  0  0  0  0  0  0  0  0  0
  153.4708  138.2253  158.1083 C   0  0  0  0  0  0  0  0  0  0  0  0
  153.8414  139.2410  159.2110 C   0  0  0  0  0  0  0  0  0  0  0  0
  153.0519  140.4825  159.1425 N   0  0  0  0  0  0  0  0  0  0  0  0
  153.5596  141.6448  159.6266 C   0  0  0  0  0  0  0  0  0  0  0  0
  154.6356  141.6899  160.2260 O   0  0  0  0  0  0  0  0  0  0  0  0
  152.8042  142.9068  159.4250 C   0  0  0  0  0  0  0  0  0  0  0  0
  152.0267  143.3744  158.3927 C   0  0  0  0  0  0  0  0  0  0  0  0
  151.5249  144.6900  158.6173 C   0  0  0  0  0  0  0  0  0  0  0  0
  151.9461  145.2245  159.8054 C   0  0  0  0  0  0  0  0  0  0  0  0
  152.9829  144.1231  160.6694 S   0  0  0  0  0  0  0  0  0  0  0  0
  151.6620  140.3280  158.6833 C   0  0  0  0  0  0  0  0  0  0  0  0
  151.1706  138.8741  158.7779 C   0  0  0  0  0  0  0  0  0  0  0  0
  149.5332  137.6517  156.5420 H   0  0  0  0  0  0  0  0  0  0  0  0
  149.7403  135.9421  156.5654 H   0  0  0  0  0  0  0  0  0  0  0  0
  147.7298  136.6638  161.9611 H   0  0  0  0  0  0  0  0  0  0  0  0
  150.8000  134.5634  161.3209 H   0  0  0  0  0  0  0  0  0  0  0  0
  151.3290  135.9433  163.1929 H   0  0  0  0  0  0  0  0  0  0  0  0
  149.7945  136.8185  163.0123 H   0  0  0  0  0  0  0  0  0  0  0  0
  150.2951  134.2383  164.5115 H   0  0  0  0  0  0  0  0  0  0  0  0
  149.2834  135.6008  165.0115 H   0  0  0  0  0  0  0  0  0  0  0  0
  148.0573  133.4720  163.9238 H   0  0  0  0  0  0  0  0  0  0  0  0
  147.6251  135.0635  163.2819 H   0  0  0  0  0  0  0  0  0  0  0  0
  153.9915  137.2900  158.3162 H   0  0  0  0  0  0  0  0  0  0  0  0
  153.8473  138.5942  157.1530 H   0  0  0  0  0  0  0  0  0  0  0  0
  153.6871  138.7922  160.1935 H   0  0  0  0  0  0  0  0  0  0  0  0
  154.9106  139.4454  159.1321 H   0  0  0  0  0  0  0  0  0  0  0  0
  151.8021  142.8295  157.4883 H   0  0  0  0  0  0  0  0  0  0  0  0
  150.8884  145.1943  157.9052 H   0  0  0  0  0  0  0  0  0  0  0  0
  151.7223  146.1969  160.2187 H   0  0  0  0  0  0  0  0  0  0  0  0
  150.9894  140.9511  159.2746 H   0  0  0  0  0  0  0  0  0  0  0  0
  151.5893  140.6627  157.6483 H   0  0  0  0  0  0  0  0  0  0  0  0
  150.1280  138.8482  158.4583 H   0  0  0  0  0  0  0  0  0  0  0  0
  151.1782  138.5343  159.8146 H   0  0  0  0  0  0  0  0  0  0  0  0
  1  2  2  0  0  0  0
  2  3  1  0  0  0  0
  2 18  1  0  0  0  0
  3  4  1  0  0  0  0
  3 31  1  0  0  0  0
  3 32  1  0  0  0  0
  4 16  1  0  0  0  0
  4  5  1  0  0  0  0
  5  6  2  0  0  0  0
  5  7  1  0  0  0  0
  7  8  1  0  0  0  0
  7  9  2  0  0  0  0
  9 10  1  0  0  0  0
  9 33  1  0  0  0  0
 10 11  1  0  0  0  0
 10 16  1  0  0  0  0
 11 15  1  0  0  0  0
 11 12  1  0  0  0  0
 11 34  1  0  0  0  0
 12 13  1  0  0  0  0
 12 35  1  0  0  0  0
 12 36  1  0  0  0  0
 13 14  1  0  0  0  0
 13 37  1  0  0  0  0
 13 38  1  0  0  0  0
 14 15  1  0  0  0  0
 14 39  1  0  0  0  0
 14 40  1  0  0  0  0
 16 17  2  0  0  0  0
 18 30  1  0  0  0  0
 18 19  1  0  0  0  0
 19 20  1  0  0  0  0
 19 41  1  0  0  0  0
 19 42  1  0  0  0  0
 20 21  1  0  0  0  0
 20 43  1  0  0  0  0
 20 44  1  0  0  0  0
 21 22  1  0  0  0  0
 21 29  1  0  0  0  0
 22 23  2  0  0  0  0
 22 24  1  0  0  0  0
 24 28  1  0  0  0  0
 24 25  2  0  0  0  0
 25 26  1  0  0  0  0
 25 45  1  0  0  0  0
 26 27  2  0  0  0  0
 26 46  1  0  0  0  0
 27 28  1  0  0  0  0
 27 47  1  0  0  0  0
 29 30  1  0  0  0  0
 29 48  1  0  0  0  0
 29 49  1  0  0  0  0
 30 50  1  0  0  0  0
 30 51  1  0  0  0  0
M  END
> <s_m_source_file>
AV-unprocessed.smi

> <i_m_source_file_index>
106

> <i_lp_mmshare_version>
43012

> <i_f3d_flags>
0

> <s_epik_input>
czFbY0hdW2NIXVtjSF1jMUMoPU8pTihbQ0gyXVtDSDJdMilbQ0gyXVtDSDJdTjJDKD1PKVtDSDJdbjNjKD1PKWMoRilbY0hdbihjMz1PKVtDQEBIXTRbQ0gyXVtDSDJdW0NIMl1PNA==

> <s_epik_cmdline>
J2VwaWtfcHl0aG9uJywgJy1waCcsICc3LjAnLCAnLXRuJywgJzgnLCAnLW1hJywgJzIwMCcsICctbWV0YWxfYmluZGluZycsICctaW1hZScsICc8aW5maWxlLm1hZT4nLCAnLW9tYWUnLCAnPG91dGZpbGUubWFlPic=

> <r_lp_tautomer_probability>
1

> <r_epik_Ionization_Penalty>
4.82844e-09

> <r_epik_Ionization_Penalty_Charging>
4.20153e-09

> <r_epik_Ionization_Penalty_Neutral>
6.26919e-10

> <r_epik_State_Penalty>
-0

> <r_epik_Charging_Adjusted_Penalty>
4.20153e-09

> <i_epik_Tot_Q>
0

> <i_epik_Tot_abs_Q>
0

> <r_epik_Metal_State_Penalty>
-0

> <b_epik_Metal_Only>
0

> <s_epik_Chemistry_Notes>
This compound contains an acetal/aminal-like group ( X-CH(R)-Y where X, Y are N, S, or O) that may be acid/base labile, releasing an aldehyde.

> <s_lp_Force_Field>
OPLS_2005

> <r_lp_Energy>
72.1787

> <b_lp_Chiralities_Consistent>
1

> <s_lp_Variant>
AV-unprocessed.smi:106-2

> <Gold.Version>
5.8.1

> <Gold.Id.Protein>
6NUR|6NUR_protein|mol2

> <Gold.PLP.Fitness>
55.2343

> <Gold.PLP.PLP>
-50.2208

> <Gold.PLP.part.hbond>
-1.8307

> <Gold.PLP.part.metal>
0.0000

> <Gold.PLP.part.buried>
-8.0803

> <Gold.PLP.part.nonpolar>
-40.6392

> <Gold.PLP.part.repulsive>
0.0000

> <Gold.PLP.ligand.clash>
0.0000

> <Gold.PLP.ligand.torsion>
0.8093

> <Gold.PLP.Chemscore.Hbond>
2.0000

> <Gold.PLP.Chemscore.CHOScore>
0.0000

> <Gold.PLP.Chemscore.Metal>
0.0000

> <Gold.Chemscore.Hbonds>
donor molecule, donor type, donor heavy atom, donor atom, acceptor molecule, acceptor atom, score
      P1  H 10752 10764       L1     1  1.00

> <Gold.PLP.Chemscore.Internal.Correction>
0.6321

> <Gold.Rescore>
     Score         DG    S(hbond)    S(metal)    S(lipo)     H(rot)  DE(clash)    DE(int)     intcor
     16.59     -21.01       1.99        0.00     111.52       1.63       0.16       4.25       ----

> <Gold.Chemscore.Fitness>
16.5905

> <Gold.Chemscore.DG>
-21.0054

> <Gold.Chemscore.ZeroCoef>
-5.4800

> <Gold.Chemscore.Hbond>
1.9873

> <Gold.Chemscore.Metal>
0.0000

> <Gold.Chemscore.Lipo>
111.5223

> <Gold.Chemscore.Internal_Hbond>
0.0000

> <Gold.Chemscore.DEClash>
0.1610

> <Gold.Chemscore.DEInternal>
4.2539

> <Gold.Chemscore.Rot>
1.6252

> <Gold.Chemscore.Internal.Correction>
   9.000000E+99

> <Gold.Chemscore.Hbonds>
donor molecule, donor type, donor heavy atom, donor atom, acceptor molecule, acceptor atom, score
      P1  H 10752 10764       L1     1  1.00

> <Gold.Chemscore.Hbond.Weighted>
-6.6377

> <Gold.Chemscore.Metal.Weighted>
-0.0000

> <Gold.Chemscore.Lipo.Weighted>
-13.0481

> <Gold.Chemscore.Internal_Hbond.Weighted>
0.0000

> <Gold.Chemscore.DEClash.Weighted>
0.1610

> <Gold.Chemscore.DEInternal.Weighted>
4.2539

> <Gold.Chemscore.Rot.Weighted>
4.1605

> <Gold.Chemscore.Internal.Correction.Weighted>
   9.000000E+99

> <Gold.Protein.RotatedTorsions>
[ 6907 6896 6895 6894 ] final  163.53 input  -60.11 | X-H torsion
[ 7974 7965 7964 7962 ] final  -59.28 input  175.53 | X-H torsion
[ 8008 7997 7996 7995 ] final  179.70 input   59.86 | X-H torsion
[ 10167 10162 10161 10158 ] final  116.92 input  -65.29 | X-H torsion
[ 10718 10713 10712 10709 ] final  -66.70 input   66.30 | X-H torsion
[ 10763 10752 10751 10750 ] final  -26.49 input  -60.55 | X-H torsion
[ 11005 11000 10999 10996 ] final -126.70 input  -57.11 | X-H torsion

> <Gold.Protein.ActiveResidues>
 VAL166  LYS551  ARG553  GLY616  TRP617  ASP618  TYR619  PRO620  LYS621  CYS622 
 ASP623  PHE694  ASN695  SER759  ASP760  ASP761  ALA762  ILE779  LEU786  VAL792 
 PHE793  MET794  SER795  GLU796  ALA797  LYS798  CYS799  TRP800  GLU811  SER814 

> <Gold.Protein.RotatedAtoms>
  151.9238  133.3592  159.3906 H   0  0  0  0  0  0  0  0  0  0  0  0  # atno 6907 bound_to 6896
  150.7031  134.4608  159.5389 H   0  0  0  0  0  0  0  0  0  0  0  0  # atno 6908 bound_to 6896
  152.2236  134.8389  160.0533 H   0  0  0  0  0  0  0  0  0  0  0  0  # atno 6909 bound_to 6896
  145.8293  140.8490  143.0092 H   0  0  0  0  0  0  0  0  0  0  0  0  # atno 7974 bound_to 7965
  156.0405  140.1302  157.0161 H   0  0  0  0  0  0  0  0  0  0  0  0  # atno 8008 bound_to 7997
  154.4389  140.1031  156.6300 H   0  0  0  0  0  0  0  0  0  0  0  0  # atno 8009 bound_to 7997
  155.5674  140.3466  155.4509 H   0  0  0  0  0  0  0  0  0  0  0  0  # atno 8010 bound_to 7997
  139.6214  144.7101  151.2626 H   0  0  0  0  0  0  0  0  0  0  0  0  # atno 10167 bound_to 10162
  156.0598  130.4266  150.1746 H   0  0  0  0  0  0  0  0  0  0  0  0  # atno 10718 bound_to 10713
  153.7167  135.6947  153.5023 H   0  0  0  0  0  0  0  0  0  0  0  0  # atno 10763 bound_to 10752
  153.2233  135.4362  155.0512 H   0  0  0  0  0  0  0  0  0  0  0  0  # atno 10764 bound_to 10752
  154.8297  135.3466  154.6702 H   0  0  0  0  0  0  0  0  0  0  0  0  # atno 10765 bound_to 10752
  140.9660  134.0872  157.3920 H   0  0  0  0  0  0  0  0  0  0  0  0  # atno 11005 bound_to 11000
  144.6741  140.0649  143.7475 LP  0  0  0  0  0  0  0  0  0  0  0  0  # atno 17320 bound_to 7965
  145.9588  139.2786  143.1168 LP  0  0  0  0  0  0  0  0  0  0  0  0  # atno 17321 bound_to 7965
  140.7384  143.6649  150.8132 LP  0  0  0  0  0  0  0  0  0  0  0  0  # atno 17342 bound_to 10162
  140.0260  143.5493  152.2780 LP  0  0  0  0  0  0  0  0  0  0  0  0  # atno 17343 bound_to 10162
  156.9817  130.9866  151.3436 LP  0  0  0  0  0  0  0  0  0  0  0  0  # atno 17370 bound_to 10713
  157.5597  130.8238  149.8250 LP  0  0  0  0  0  0  0  0  0  0  0  0  # atno 17371 bound_to 10713
  139.8894  135.0105  156.6680 LP  0  0  0  0  0  0  0  0  0  0  0  0  # atno 17394 bound_to 11000
  140.7399  133.8986  155.8271 LP  0  0  0  0  0  0  0  0  0  0  0  0  # atno 17395 bound_to 11000

$$$$
