AV-unprocessed.smi:1041|AV-procd|sdf|4531|dock4
  -GOLD-   22720 2553D 1   1.00000     0.00000
 Structure written by MMmdl.
 53 54  0  0  0  0  0  0  0  0  2 V2000
  153.1959  129.6756  155.0111 C   0  0  0  0  0  0  0  0  0  0  0  0
  151.8267  129.4227  154.7475 O   0  0  0  0  0  0  0  0  0  0  0  0
  150.9863  130.4843  155.1683 C   0  0  0  0  0  0  0  0  0  0  0  0
  149.5286  130.1255  154.8406 C   0  0  0  0  0  0  0  0  0  0  0  0
  148.6420  131.3161  154.7947 N   0  3  2  0  0  0  0  0  0  0  0  0
  149.1247  132.3332  153.8244 C   0  0  0  0  0  0  0  0  0  0  0  0
  148.1394  133.5112  153.7011 C   0  0  0  0  0  0  0  0  0  0  0  0
  147.8361  134.1634  155.0626 C   0  0  2  0  0  0  0  0  0  0  0  0
  149.0194  135.0182  155.5751 C   0  0  0  0  0  0  0  0  0  0  0  0
  149.3142  136.1282  154.6759 N   0  0  0  0  0  0  0  0  0  0  0  0
  149.3325  137.4257  155.0188 C   0  0  0  0  0  0  0  0  0  0  0  0
  149.1753  137.8299  156.1705 O   0  0  0  0  0  0  0  0  0  0  0  0
  149.5086  138.4223  153.8742 C   0  0  0  0  0  0  0  0  0  0  0  0
  148.5960  139.6437  153.9564 C   0  0  0  0  0  0  0  0  0  0  0  0
  147.3101  139.6416  153.5215 C   0  0  0  0  0  0  0  0  0  0  0  0
  146.6089  138.4372  152.9181 C   0  0  0  0  0  0  0  0  0  0  0  0
  146.5266  140.7795  153.6003 N   0  0  0  0  0  0  0  0  0  0  0  0
  147.0982  141.9262  154.1262 C   0  0  0  0  0  0  0  0  0  0  0  0
  146.1597  143.1130  154.1620 C   0  0  0  0  0  0  0  0  0  0  0  0
  148.3166  142.0285  154.5629 N   0  0  0  0  0  0  0  0  0  0  0  0
  149.1512  140.9008  154.5116 C   0  0  0  0  0  0  0  0  0  0  0  0
  150.3133  140.9686  154.9102 O   0  0  0  0  0  0  0  0  0  0  0  0
  147.3706  133.0630  156.0394 C   0  0  0  0  0  0  0  0  0  0  0  0
  148.3848  131.9111  156.1331 C   0  0  0  0  0  0  0  0  0  0  0  0
  145.5725  140.7328  153.2723 H   0  0  0  0  0  0  0  0  0  0  0  0
  153.7973  128.8360  154.6625 H   0  0  0  0  0  0  0  0  0  0  0  0
  153.3756  129.7972  156.0801 H   0  0  0  0  0  0  0  0  0  0  0  0
  153.5389  130.5724  154.4938 H   0  0  0  0  0  0  0  0  0  0  0  0
  151.1233  130.6887  156.2303 H   0  0  0  0  0  0  0  0  0  0  0  0
  151.2597  131.3950  154.6331 H   0  0  0  0  0  0  0  0  0  0  0  0
  149.4718  129.5914  153.8910 H   0  0  0  0  0  0  0  0  0  0  0  0
  149.1745  129.4312  155.6040 H   0  0  0  0  0  0  0  0  0  0  0  0
  150.1118  132.6860  154.1252 H   0  0  0  0  0  0  0  0  0  0  0  0
  149.2453  131.8714  152.8437 H   0  0  0  0  0  0  0  0  0  0  0  0
  148.5289  134.2535  153.0036 H   0  0  0  0  0  0  0  0  0  0  0  0
  147.2083  133.1476  153.2640 H   0  0  0  0  0  0  0  0  0  0  0  0
  146.9976  134.8466  154.9190 H   0  0  0  0  0  0  0  0  0  0  0  0
  148.8366  135.3759  156.5887 H   0  0  0  0  0  0  0  0  0  0  0  0
  149.9156  134.3999  155.6360 H   0  0  0  0  0  0  0  0  0  0  0  0
  149.4542  135.8976  153.7025 H   0  0  0  0  0  0  0  0  0  0  0  0
  150.5506  138.7418  153.8662 H   0  0  0  0  0  0  0  0  0  0  0  0
  149.3699  137.9159  152.9176 H   0  0  0  0  0  0  0  0  0  0  0  0
  146.5543  137.6252  153.6435 H   0  0  0  0  0  0  0  0  0  0  0  0
  147.1470  138.0814  152.0397 H   0  0  0  0  0  0  0  0  0  0  0  0
  145.5906  138.6780  152.6098 H   0  0  0  0  0  0  0  0  0  0  0  0
  146.7046  144.0341  154.3718 H   0  0  0  0  0  0  0  0  0  0  0  0
  145.4075  142.9761  154.9392 H   0  0  0  0  0  0  0  0  0  0  0  0
  145.6517  143.2306  153.2041 H   0  0  0  0  0  0  0  0  0  0  0  0
  147.1730  133.4717  157.0302 H   0  0  0  0  0  0  0  0  0  0  0  0
  146.4160  132.6634  155.6947 H   0  0  0  0  0  0  0  0  0  0  0  0
  147.9901  131.1581  156.8135 H   0  0  0  0  0  0  0  0  0  0  0  0
  149.3219  132.2620  156.5670 H   0  0  0  0  0  0  0  0  0  0  0  0
  147.7525  130.9932  154.4407 H   0  0  0  0  0  0  0  0  0  0  0  0
  1  2  1  0  0  0  0
  1 26  1  0  0  0  0
  1 27  1  0  0  0  0
  1 28  1  0  0  0  0
  2  3  1  0  0  0  0
  3  4  1  0  0  0  0
  3 29  1  0  0  0  0
  3 30  1  0  0  0  0
  4  5  1  0  0  0  0
  4 31  1  0  0  0  0
  4 32  1  0  0  0  0
  5 24  1  0  0  0  0
  5  6  1  0  0  0  0
  5 53  1  0  0  0  0
  6  7  1  0  0  0  0
  6 33  1  0  0  0  0
  6 34  1  0  0  0  0
  7  8  1  0  0  0  0
  7 35  1  0  0  0  0
  7 36  1  0  0  0  0
  8  9  1  0  0  0  0
  8 23  1  0  0  0  0
  8 37  1  0  0  0  0
  9 10  1  0  0  0  0
  9 38  1  0  0  0  0
  9 39  1  0  0  0  0
 10 11  1  0  0  0  0
 10 40  1  0  0  0  0
 11 12  2  0  0  0  0
 11 13  1  0  0  0  0
 13 41  1  0  0  0  0
 13 42  1  0  0  0  0
 13 14  1  0  0  0  0
 14 21  1  0  0  0  0
 14 15  2  0  0  0  0
 15 16  1  0  0  0  0
 15 17  1  0  0  0  0
 16 43  1  0  0  0  0
 16 44  1  0  0  0  0
 16 45  1  0  0  0  0
 17 25  1  0  0  0  0
 17 18  1  0  0  0  0
 18 19  1  0  0  0  0
 18 20  2  0  0  0  0
 19 46  1  0  0  0  0
 19 47  1  0  0  0  0
 19 48  1  0  0  0  0
 20 21  1  0  0  0  0
 21 22  2  0  0  0  0
 23 24  1  0  0  0  0
 23 49  1  0  0  0  0
 23 50  1  0  0  0  0
 24 51  1  0  0  0  0
 24 52  1  0  0  0  0
M  CHG  1   5   1
M  END
> <s_m_source_file>
AV-unprocessed.smi

> <i_m_source_file_index>
1041

> <i_lp_mmshare_version>
43012

> <i_f3d_flags>
0

> <s_epik_input>
W0NIM11PW0NIMl1bQ0gyXU4xW0NIMl1bQ0gyXVtDSF0oW0NIMl1bQ0gyXTEpW0NIMl1bTkhdQyg9TylbQ0gyXWMyYyhbQ0gzXSluYyhbQ0gzXSlbbkhdYzI9Tw==

> <s_epik_cmdline>
J2VwaWtfcHl0aG9uJywgJy1waCcsICc3LjAnLCAnLXRuJywgJzgnLCAnLW1hJywgJzIwMCcsICctbWV0YWxfYmluZGluZycsICctaW1hZScsICc8aW5maWxlLm1hZT4nLCAnLW9tYWUnLCAnPG91dGZpbGUubWFlPic=

> <r_lp_tautomer_probability>
0.156392

> <r_epik_Ionization_Penalty>
0.0240251

> <r_epik_Ionization_Penalty_Charging>
0.0239146

> <r_epik_Ionization_Penalty_Neutral>
0.000110474

> <r_epik_State_Penalty>
1.15942

> <r_epik_Charging_Adjusted_Penalty>
1.18333

> <i_epik_Tot_Q>
1

> <i_epik_Tot_abs_Q>
1

> <r_epik_Metal_State_Penalty>
1.33297

> <b_epik_Metal_Only>
0

> <s_lp_Force_Field>
OPLS_2005

> <r_lp_Energy>
25.6342

> <b_lp_Chiralities_Consistent>
1

> <s_lp_Variant>
AV-unprocessed.smi:1041-4

> <Gold.Version>
5.8.1

> <Gold.Id.Protein>
6NUR|6NUR_protein|mol2

> <Gold.PLP.Fitness>
41.5118

> <Gold.PLP.PLP>
-34.6848

> <Gold.PLP.part.hbond>
-3.0000

> <Gold.PLP.part.metal>
0.0000

> <Gold.PLP.part.buried>
-1.4675

> <Gold.PLP.part.nonpolar>
-31.4394

> <Gold.PLP.part.repulsive>
1.3912

> <Gold.PLP.ligand.clash>
0.0000

> <Gold.PLP.ligand.torsion>
0.7028

> <Gold.PLP.Chemscore.Hbond>
2.6800

> <Gold.PLP.Chemscore.CHOScore>
0.0000

> <Gold.PLP.Chemscore.Metal>
0.0000

> <Gold.Chemscore.Hbonds>
donor molecule, donor type, donor heavy atom, donor atom, acceptor molecule, acceptor atom, score
      L1  H    10    40       P1  7948  0.98
      L1  H    17    25       P1 10175  0.93
      P1  H  7989  7998       L1    22  0.72

> <Gold.PLP.Chemscore.Internal.Correction>
0.1926

> <Gold.Rescore>
     Score         DG    S(hbond)    S(metal)    S(lipo)     H(rot)  DE(clash)    DE(int)     intcor
     13.55     -14.32       2.15        0.00      67.38       2.43       0.24       0.54       ----

> <Gold.Chemscore.Fitness>
13.5455

> <Gold.Chemscore.DG>
-14.3215

> <Gold.Chemscore.ZeroCoef>
-5.4800

> <Gold.Chemscore.Hbond>
2.1486

> <Gold.Chemscore.Metal>
0.0000

> <Gold.Chemscore.Lipo>
67.3827

> <Gold.Chemscore.Internal_Hbond>
0.0000

> <Gold.Chemscore.DEClash>
0.2390

> <Gold.Chemscore.DEInternal>
0.5369

> <Gold.Chemscore.Rot>
2.4291

> <Gold.Chemscore.Internal.Correction>
   9.000000E+99

> <Gold.Chemscore.Hbonds>
donor molecule, donor type, donor heavy atom, donor atom, acceptor molecule, acceptor atom, score
      L1  H    10    40       P1  7948  0.47
      L1  H    17    25       P1 10175  0.69
      P1  H  7989  7998       L1    22  0.63

> <Gold.Chemscore.Hbond.Weighted>
-7.1763

> <Gold.Chemscore.Metal.Weighted>
-0.0000

> <Gold.Chemscore.Lipo.Weighted>
-7.8838

> <Gold.Chemscore.Internal_Hbond.Weighted>
0.0000

> <Gold.Chemscore.DEClash.Weighted>
0.2390

> <Gold.Chemscore.DEInternal.Weighted>
0.5369

> <Gold.Chemscore.Rot.Weighted>
6.2186

> <Gold.Chemscore.Internal.Correction.Weighted>
   9.000000E+99

> <Gold.Protein.RotatedTorsions>
[ 6907 6896 6895 6894 ] final   66.97 input  -60.11 | X-H torsion
[ 7974 7965 7964 7962 ] final  -31.68 input  175.53 | X-H torsion
[ 8008 7997 7996 7995 ] final  -18.71 input   59.86 | X-H torsion
[ 10167 10162 10161 10158 ] final  -10.12 input  -65.29 | X-H torsion
[ 10718 10713 10712 10709 ] final -128.12 input   66.30 | X-H torsion
[ 10763 10752 10751 10750 ] final  -75.26 input  -60.55 | X-H torsion
[ 11005 11000 10999 10996 ] final  179.09 input  -57.11 | X-H torsion

> <Gold.Protein.ActiveResidues>
 VAL166  LYS551  ARG553  GLY616  TRP617  ASP618  TYR619  PRO620  LYS621  CYS622 
 ASP623  PHE694  ASN695  SER759  ASP760  ASP761  ALA762  ILE779  LEU786  VAL792 
 PHE793  MET794  SER795  GLU796  ALA797  LYS798  CYS799  TRP800  GLU811  SER814 

> <Gold.Protein.RotatedAtoms>
  152.4519  134.5375  159.9828 H   0  0  0  0  0  0  0  0  0  0  0  0  # atno 6907 bound_to 6896
  151.5445  133.3421  159.2949 H   0  0  0  0  0  0  0  0  0  0  0  0  # atno 6908 bound_to 6896
  150.8451  134.7788  159.7027 H   0  0  0  0  0  0  0  0  0  0  0  0  # atno 6909 bound_to 6896
  146.1049  140.5697  142.8804 H   0  0  0  0  0  0  0  0  0  0  0  0  # atno 7974 bound_to 7965
  154.4887  140.2108  155.9597 H   0  0  0  0  0  0  0  0  0  0  0  0  # atno 8008 bound_to 7997
  156.1274  140.3203  155.8266 H   0  0  0  0  0  0  0  0  0  0  0  0  # atno 8009 bound_to 7997
  155.4359  140.0506  157.3005 H   0  0  0  0  0  0  0  0  0  0  0  0  # atno 8010 bound_to 7997
  140.7105  143.5783  150.9019 H   0  0  0  0  0  0  0  0  0  0  0  0  # atno 10167 bound_to 10162
  156.1921  130.6802  151.0437 H   0  0  0  0  0  0  0  0  0  0  0  0  # atno 10718 bound_to 10713
  154.4841  135.5837  153.6411 H   0  0  0  0  0  0  0  0  0  0  0  0  # atno 10763 bound_to 10752
  152.9852  135.6097  154.3208 H   0  0  0  0  0  0  0  0  0  0  0  0  # atno 10764 bound_to 10752
  154.3102  135.2845  155.2549 H   0  0  0  0  0  0  0  0  0  0  0  0  # atno 10765 bound_to 10752
  140.4023  134.6766  157.4569 H   0  0  0  0  0  0  0  0  0  0  0  0  # atno 11005 bound_to 11000
  144.7462  140.5074  143.6834 LP  0  0  0  0  0  0  0  0  0  0  0  0  # atno 17320 bound_to 7965
  145.5781  139.1487  143.3250 LP  0  0  0  0  0  0  0  0  0  0  0  0  # atno 17321 bound_to 7965
  139.9509  143.6273  152.3029 LP  0  0  0  0  0  0  0  0  0  0  0  0  # atno 17342 bound_to 10162
  139.6791  144.7656  151.1641 LP  0  0  0  0  0  0  0  0  0  0  0  0  # atno 17343 bound_to 10162
  157.6935  131.0802  150.7037 LP  0  0  0  0  0  0  0  0  0  0  0  0  # atno 17370 bound_to 10713
  156.7094  130.4647  149.5551 LP  0  0  0  0  0  0  0  0  0  0  0  0  # atno 17371 bound_to 10713
  140.0327  134.6382  155.9085 LP  0  0  0  0  0  0  0  0  0  0  0  0  # atno 17394 bound_to 11000
  141.1852  133.6554  156.5188 LP  0  0  0  0  0  0  0  0  0  0  0  0  # atno 17395 bound_to 11000

$$$$
