AV-unprocessed.smi:1206|AV-procd|sdf|5048|dock1
  -GOLD-   22720 4 73D 1   1.00000     0.00000
 Structure written by MMmdl.
 40 41  0  0  0  0  0  0  0  0  3 V2000
  146.6203  138.0890  155.5199 C   0  0  0  0  0  0  0  0  0  0  0  0
  147.0941  139.3263  156.1937 N   0  3  0  0  0  0  0  0  0  0  0  0
  146.3953  140.5120  155.6367 C   0  0  0  0  0  0  0  0  0  0  0  0
  148.5918  139.4353  156.3681 C   0  0  0  0  0  0  0  0  0  0  0  0
  149.0773  138.1711  157.1473 C   0  0  0  0  0  0  0  0  0  0  0  0
  148.4656  138.0524  158.4715 N   0  0  0  0  0  0  0  0  0  0  0  0
  148.6658  137.0699  159.3615 C   0  0  0  0  0  0  0  0  0  0  0  0
  149.4711  136.1695  159.1167 O   0  0  0  0  0  0  0  0  0  0  0  0
  147.9039  137.1810  160.4712 N   0  5  0  0  0  0  0  0  0  0  0  0
  147.6053  136.0863  161.1903 C   0  0  0  0  0  0  0  0  0  0  0  0
  147.4415  134.8798  160.6243 N   0  0  0  0  0  0  0  0  0  0  0  0
  147.1394  133.8830  161.5422 N   0  0  0  0  0  0  0  0  0  0  0  0
  147.0726  134.3680  162.7819 C   0  0  0  0  0  0  0  0  0  0  0  0
  147.3731  136.0858  162.9405 S   0  0  0  0  0  0  0  0  0  0  0  0
  149.3077  139.5219  154.9862 C   0  0  0  0  0  0  0  0  0  0  0  0
  150.8248  139.7768  155.0810 C   0  0  0  0  0  0  0  0  0  0  0  0
  151.1435  141.0289  155.9081 C   0  0  0  0  0  0  0  0  0  0  0  0
  150.4944  140.9576  157.2963 C   0  0  0  0  0  0  0  0  0  0  0  0
  148.9780  140.7176  157.1799 C   0  0  0  0  0  0  0  0  0  0  0  0
  146.7983  138.1296  154.4449 H   0  0  0  0  0  0  0  0  0  0  0  0
  145.5474  137.9687  155.6718 H   0  0  0  0  0  0  0  0  0  0  0  0
  147.0957  137.1906  155.9094 H   0  0  0  0  0  0  0  0  0  0  0  0
  146.8021  140.7934  154.6649 H   0  0  0  0  0  0  0  0  0  0  0  0
  146.4548  141.3673  156.3096 H   0  0  0  0  0  0  0  0  0  0  0  0
  145.3325  140.3059  155.5060 H   0  0  0  0  0  0  0  0  0  0  0  0
  148.9105  137.2624  156.5688 H   0  0  0  0  0  0  0  0  0  0  0  0
  150.1535  138.1879  157.3036 H   0  0  0  0  0  0  0  0  0  0  0  0
  147.8047  138.7714  158.7287 H   0  0  0  0  0  0  0  0  0  0  0  0
  146.8421  133.7112  163.6073 H   0  0  0  0  0  0  0  0  0  0  0  0
  149.1590  138.6058  154.4145 H   0  0  0  0  0  0  0  0  0  0  0  0
  148.8623  140.3233  154.3954 H   0  0  0  0  0  0  0  0  0  0  0  0
  151.3259  138.9113  155.5148 H   0  0  0  0  0  0  0  0  0  0  0  0
  151.2383  139.8878  154.0780 H   0  0  0  0  0  0  0  0  0  0  0  0
  152.2229  141.1477  156.0059 H   0  0  0  0  0  0  0  0  0  0  0  0
  150.7816  141.9127  155.3814 H   0  0  0  0  0  0  0  0  0  0  0  0
  150.9680  140.1813  157.8964 H   0  0  0  0  0  0  0  0  0  0  0  0
  150.6747  141.8921  157.8284 H   0  0  0  0  0  0  0  0  0  0  0  0
  148.5838  141.6101  156.6946 H   0  0  0  0  0  0  0  0  0  0  0  0
  148.5332  140.6962  158.1752 H   0  0  0  0  0  0  0  0  0  0  0  0
  146.7451  139.2530  157.1397 H   0  0  0  0  0  0  0  0  0  0  0  0
  1  2  1  0  0  0  0
  1 20  1  0  0  0  0
  1 21  1  0  0  0  0
  1 22  1  0  0  0  0
  2  3  1  0  0  0  0
  2  4  1  0  0  0  0
  2 40  1  0  0  0  0
  3 23  1  0  0  0  0
  3 24  1  0  0  0  0
  3 25  1  0  0  0  0
  4 19  1  0  0  0  0
  4  5  1  0  0  0  0
  4 15  1  0  0  0  0
  5  6  1  0  0  0  0
  5 26  1  0  0  0  0
  5 27  1  0  0  0  0
  6  7  1  0  0  0  0
  6 28  1  0  0  0  0
  7  8  2  0  0  0  0
  7  9  1  0  0  0  0
  9 10  1  0  0  0  0
 10 14  1  0  0  0  0
 10 11  2  0  0  0  0
 11 12  1  0  0  0  0
 12 13  2  0  0  0  0
 13 14  1  0  0  0  0
 13 29  1  0  0  0  0
 15 16  1  0  0  0  0
 15 30  1  0  0  0  0
 15 31  1  0  0  0  0
 16 17  1  0  0  0  0
 16 32  1  0  0  0  0
 16 33  1  0  0  0  0
 17 18  1  0  0  0  0
 17 34  1  0  0  0  0
 17 35  1  0  0  0  0
 18 19  1  0  0  0  0
 18 36  1  0  0  0  0
 18 37  1  0  0  0  0
 19 38  1  0  0  0  0
 19 39  1  0  0  0  0
M  CHG  1   2   1
M  CHG  1   9  -1
M  END
> <s_m_source_file>
AV-unprocessed.smi

> <i_m_source_file_index>
1206

> <i_lp_mmshare_version>
43012

> <i_f3d_flags>
0

> <s_epik_input>
W0NIMl0xW0NIMl1bQ0gyXVtDSDJdW0NIMl1DMShOKFtDSDNdKVtDSDNdKVtDSDJdW05IXUMoPU8pW05IXWMybm5bY0hdczI=

> <s_epik_cmdline>
J2VwaWtfcHl0aG9uJywgJy1waCcsICc3LjAnLCAnLXRuJywgJzgnLCAnLW1hJywgJzIwMCcsICctbWV0YWxfYmluZGluZycsICctaW1hZScsICc8aW5maWxlLm1hZT4nLCAnLW9tYWUnLCAnPG91dGZpbGUubWFlPic=

> <r_lp_tautomer_probability>
1

> <r_epik_Ionization_Penalty>
3.99546

> <r_epik_Ionization_Penalty_Charging>
3.96229

> <r_epik_Ionization_Penalty_Neutral>
0.0331711

> <r_epik_State_Penalty>
3.95985

> <r_epik_Charging_Adjusted_Penalty>
7.92214

> <i_epik_Tot_Q>
0

> <i_epik_Tot_abs_Q>
2

> <r_epik_Metal_State_Penalty>
0.609364

> <b_epik_Metal_Only>
1

> <s_lp_Force_Field>
OPLS_2005

> <r_lp_Energy>
23.6676

> <b_lp_Chiralities_Consistent>
1

> <s_lp_Variant>
AV-unprocessed.smi:1206-2

> <Gold.Version>
5.8.1

> <Gold.Id.Protein>
6NUR|6NUR_protein|mol2

> <Gold.PLP.Fitness>
38.7802

> <Gold.PLP.PLP>
-27.1544

> <Gold.PLP.part.hbond>
-3.0000

> <Gold.PLP.part.metal>
0.0000

> <Gold.PLP.part.buried>
-2.9867

> <Gold.PLP.part.nonpolar>
-21.9548

> <Gold.PLP.part.repulsive>
0.1726

> <Gold.PLP.ligand.clash>
0.0000

> <Gold.PLP.ligand.torsion>
0.4035

> <Gold.PLP.Chemscore.Hbond>
4.0906

> <Gold.PLP.Chemscore.CHOScore>
0.0000

> <Gold.PLP.Chemscore.Metal>
0.0000

> <Gold.Chemscore.Hbonds>
donor molecule, donor type, donor heavy atom, donor atom, acceptor molecule, acceptor atom, score
      P1  H  6896  6909       L1     8  1.00
      P1  H  6931  6943       L1     9  1.20
      P1  H  6934  6947       L1     9  1.63

> <Gold.PLP.Chemscore.Internal.Correction>
0.1612

> <Gold.Rescore>
     Score         DG    S(hbond)    S(metal)    S(lipo)     H(rot)  DE(clash)    DE(int)     intcor
     12.30     -14.09       2.11        0.00      49.14       1.64       0.01       1.78       ----

> <Gold.Chemscore.Fitness>
12.3038

> <Gold.Chemscore.DG>
-14.0912

> <Gold.Chemscore.ZeroCoef>
-5.4800

> <Gold.Chemscore.Hbond>
2.1116

> <Gold.Chemscore.Metal>
0.0000

> <Gold.Chemscore.Lipo>
49.1392

> <Gold.Chemscore.Internal_Hbond>
0.0000

> <Gold.Chemscore.DEClash>
0.0106

> <Gold.Chemscore.DEInternal>
1.7767

> <Gold.Chemscore.Rot>
1.6371

> <Gold.Chemscore.Internal.Correction>
   9.000000E+99

> <Gold.Chemscore.Hbonds>
donor molecule, donor type, donor heavy atom, donor atom, acceptor molecule, acceptor atom, score
      P1  H  6896  6909       L1     8  0.97
      P1  H  6931  6943       L1     9  0.09
      P1  H  6934  6947       L1     9  0.71

> <Gold.Chemscore.Hbond.Weighted>
-7.0528

> <Gold.Chemscore.Metal.Weighted>
-0.0000

> <Gold.Chemscore.Lipo.Weighted>
-5.7493

> <Gold.Chemscore.Internal_Hbond.Weighted>
0.0000

> <Gold.Chemscore.DEClash.Weighted>
0.0106

> <Gold.Chemscore.DEInternal.Weighted>
1.7767

> <Gold.Chemscore.Rot.Weighted>
4.1909

> <Gold.Chemscore.Internal.Correction.Weighted>
   9.000000E+99

> <Gold.Protein.RotatedTorsions>
[ 6907 6896 6895 6894 ] final   76.10 input  -60.11 | X-H torsion
[ 7974 7965 7964 7962 ] final  113.51 input  175.53 | X-H torsion
[ 8008 7997 7996 7995 ] final -153.59 input   59.86 | X-H torsion
[ 10167 10162 10161 10158 ] final   67.89 input  -65.29 | X-H torsion
[ 10718 10713 10712 10709 ] final   -8.38 input   66.30 | X-H torsion
[ 10763 10752 10751 10750 ] final   75.13 input  -60.55 | X-H torsion
[ 11005 11000 10999 10996 ] final  158.52 input  -57.11 | X-H torsion

> <Gold.Protein.ActiveResidues>
 VAL166  LYS551  ARG553  GLY616  TRP617  ASP618  TYR619  PRO620  LYS621  CYS622 
 ASP623  PHE694  ASN695  SER759  ASP760  ASP761  ALA762  ILE779  LEU786  VAL792 
 PHE793  MET794  SER795  GLU796  ALA797  LYS798  CYS799  TRP800  GLU811  SER814 

> <Gold.Protein.RotatedAtoms>
  152.5057  134.4020  159.9419 H   0  0  0  0  0  0  0  0  0  0  0  0  # atno 6907 bound_to 6896
  151.3984  133.3759  159.2737 H   0  0  0  0  0  0  0  0  0  0  0  0  # atno 6908 bound_to 6896
  150.9380  134.8812  159.7653 H   0  0  0  0  0  0  0  0  0  0  0  0  # atno 6909 bound_to 6896
  145.2160  139.2884  143.4243 H   0  0  0  0  0  0  0  0  0  0  0  0  # atno 7974 bound_to 7965
  155.6732  140.0736  157.2512 H   0  0  0  0  0  0  0  0  0  0  0  0  # atno 8008 bound_to 7997
  154.4119  140.1695  156.1953 H   0  0  0  0  0  0  0  0  0  0  0  0  # atno 8009 bound_to 7997
  155.9598  140.3370  155.6484 H   0  0  0  0  0  0  0  0  0  0  0  0  # atno 8010 bound_to 7997
  140.0846  144.5041  150.7139 H   0  0  0  0  0  0  0  0  0  0  0  0  # atno 10167 bound_to 10162
  156.7034  130.5100  149.5911 H   0  0  0  0  0  0  0  0  0  0  0  0  # atno 10718 bound_to 10713
  153.0633  135.5000  154.8144 H   0  0  0  0  0  0  0  0  0  0  0  0  # atno 10763 bound_to 10752
  154.6916  135.2985  154.9473 H   0  0  0  0  0  0  0  0  0  0  0  0  # atno 10764 bound_to 10752
  154.0226  135.6740  153.4826 H   0  0  0  0  0  0  0  0  0  0  0  0  # atno 10765 bound_to 10752
  140.1873  134.8433  157.2871 H   0  0  0  0  0  0  0  0  0  0  0  0  # atno 11005 bound_to 11000
  146.3387  140.2451  142.8597 LP  0  0  0  0  0  0  0  0  0  0  0  0  # atno 17320 bound_to 7965
  144.9810  140.8459  143.5397 LP  0  0  0  0  0  0  0  0  0  0  0  0  # atno 17321 bound_to 7965
  140.7060  143.2468  151.4724 LP  0  0  0  0  0  0  0  0  0  0  0  0  # atno 17342 bound_to 10162
  139.5760  144.1819  152.1903 LP  0  0  0  0  0  0  0  0  0  0  0  0  # atno 17343 bound_to 10162
  156.1712  130.6438  151.0839 LP  0  0  0  0  0  0  0  0  0  0  0  0  # atno 17370 bound_to 10713
  157.6964  131.0792  150.6956 LP  0  0  0  0  0  0  0  0  0  0  0  0  # atno 17371 bound_to 10713
  140.2200  134.4035  155.7570 LP  0  0  0  0  0  0  0  0  0  0  0  0  # atno 17394 bound_to 11000
  141.2225  133.7161  156.8474 LP  0  0  0  0  0  0  0  0  0  0  0  0  # atno 17395 bound_to 11000

$$$$
