AV-unprocessed.smi:1768|AV-procd|sdf|7143|dock6
  -GOLD-   22720 8383D 1   1.00000     0.00000
 Structure written by MMmdl.
 33 34  0  0  0  0  0  0  0  0  1 V2000
  147.5672  138.7697  153.2182 C   0  0  0  0  0  0  0  0  0  0  0  0
  148.4250  139.6860  154.0221 C   0  0  0  0  0  0  0  0  0  0  0  0
  149.7392  139.4919  154.1866 N   0  0  0  0  0  0  0  0  0  0  0  0
  150.3220  140.4751  154.9741 N   0  0  0  0  0  0  0  0  0  0  0  0
  149.4263  141.3843  155.3827 C   0  0  0  0  0  0  0  0  0  0  0  0
  149.7485  142.4984  156.2020 N   0  0  0  0  0  0  0  0  0  0  0  0
  150.7602  142.6243  157.0787 C   0  0  0  0  0  0  0  0  0  0  0  0
  151.6099  141.7646  157.3124 O   0  0  0  0  0  0  0  0  0  0  0  0
  150.7354  143.8266  157.6729 N   0  0  0  0  0  0  0  0  0  0  0  0
  151.6845  144.3094  158.6751 C   0  0  2  0  0  0  0  0  0  0  0  0
  153.0546  144.4978  158.0074 C   0  0  0  0  0  0  0  0  0  0  0  0
  151.7554  143.3290  159.8639 C   0  0  2  0  0  0  0  0  0  0  0  0
  152.1527  143.9604  161.2003 C   0  0  0  0  0  0  0  0  0  0  0  0
  152.7085  142.7703  161.9472 C   0  0  0  0  0  0  0  0  0  0  0  0
  153.4427  142.0247  160.8377 C   0  0  0  0  0  0  0  0  0  0  0  0
  152.7456  142.3287  159.6319 O   0  0  0  0  0  0  0  0  0  0  0  0
  147.7818  141.1082  154.8336 S   0  0  0  0  0  0  0  0  0  0  0  0
  148.1804  138.0929  152.6221 H   0  0  0  0  0  0  0  0  0  0  0  0
  146.9317  139.3466  152.5459 H   0  0  0  0  0  0  0  0  0  0  0  0
  146.9335  138.1781  153.8790 H   0  0  0  0  0  0  0  0  0  0  0  0
  149.1352  143.2945  156.1092 H   0  0  0  0  0  0  0  0  0  0  0  0
  149.9986  144.4651  157.4114 H   0  0  0  0  0  0  0  0  0  0  0  0
  151.3659  145.2830  159.0522 H   0  0  0  0  0  0  0  0  0  0  0  0
  153.7848  144.8965  158.7120 H   0  0  0  0  0  0  0  0  0  0  0  0
  152.9924  145.1966  157.1724 H   0  0  0  0  0  0  0  0  0  0  0  0
  153.4433  143.5538  157.6243 H   0  0  0  0  0  0  0  0  0  0  0  0
  150.7975  142.8204  159.9874 H   0  0  0  0  0  0  0  0  0  0  0  0
  152.9350  144.7074  161.0565 H   0  0  0  0  0  0  0  0  0  0  0  0
  151.3166  144.4345  161.7150 H   0  0  0  0  0  0  0  0  0  0  0  0
  153.3576  143.0468  162.7782 H   0  0  0  0  0  0  0  0  0  0  0  0
  151.8930  142.1592  162.3365 H   0  0  0  0  0  0  0  0  0  0  0  0
  154.4662  142.3900  160.7455 H   0  0  0  0  0  0  0  0  0  0  0  0
  153.4814  140.9498  161.0154 H   0  0  0  0  0  0  0  0  0  0  0  0
  1  2  1  0  0  0  0
  1 18  1  0  0  0  0
  1 19  1  0  0  0  0
  1 20  1  0  0  0  0
  2 17  1  0  0  0  0
  2  3  2  0  0  0  0
  3  4  1  0  0  0  0
  4  5  2  0  0  0  0
  5  6  1  0  0  0  0
  5 17  1  0  0  0  0
  6  7  1  0  0  0  0
  6 21  1  0  0  0  0
  7  8  2  0  0  0  0
  7  9  1  0  0  0  0
  9 10  1  0  0  0  0
  9 22  1  0  0  0  0
 10 11  1  0  0  0  0
 10 12  1  0  0  0  0
 10 23  1  0  0  0  0
 11 24  1  0  0  0  0
 11 25  1  0  0  0  0
 11 26  1  0  0  0  0
 12 16  1  0  0  0  0
 12 13  1  0  0  0  0
 12 27  1  0  0  0  0
 13 14  1  0  0  0  0
 13 28  1  0  0  0  0
 13 29  1  0  0  0  0
 14 15  1  0  0  0  0
 14 30  1  0  0  0  0
 14 31  1  0  0  0  0
 15 16  1  0  0  0  0
 15 32  1  0  0  0  0
 15 33  1  0  0  0  0
M  END
> <s_m_source_file>
AV-unprocessed.smi

> <i_m_source_file_index>
1768

> <i_lp_mmshare_version>
43012

> <i_f3d_flags>
0

> <s_epik_input>
W0NIM11jMW5uYyhzMSlbTkhdQyg9TylbTkhdW0NASF0oW0NIM10pW0NAQEhdMltDSDJdW0NIMl1bQ0gyXU8y

> <s_epik_cmdline>
J2VwaWtfcHl0aG9uJywgJy1waCcsICc3LjAnLCAnLXRuJywgJzgnLCAnLW1hJywgJzIwMCcsICctbWV0YWxfYmluZGluZycsICctaW1hZScsICc8aW5maWxlLm1hZT4nLCAnLW9tYWUnLCAnPG91dGZpbGUubWFlPic=

> <r_lp_tautomer_probability>
1

> <r_epik_Ionization_Penalty>
0.000523083

> <r_epik_Ionization_Penalty_Charging>
0

> <r_epik_Ionization_Penalty_Neutral>
0.000523083

> <r_epik_State_Penalty>
-0

> <r_epik_Charging_Adjusted_Penalty>
0

> <i_epik_Tot_Q>
0

> <i_epik_Tot_abs_Q>
0

> <r_epik_Metal_State_Penalty>
0.223408

> <b_epik_Metal_Only>
0

> <s_lp_Force_Field>
OPLS_2005

> <r_lp_Energy>
16.8922

> <b_lp_Chiralities_Consistent>
1

> <s_lp_Variant>
AV-unprocessed.smi:1768-1

> <Gold.Version>
5.8.1

> <Gold.Id.Protein>
6NUR|6NUR_protein|mol2

> <Gold.PLP.Fitness>
41.9467

> <Gold.PLP.PLP>
-36.7341

> <Gold.PLP.part.hbond>
-2.7983

> <Gold.PLP.part.metal>
0.0000

> <Gold.PLP.part.buried>
-3.8297

> <Gold.PLP.part.nonpolar>
-30.7502

> <Gold.PLP.part.repulsive>
0.5091

> <Gold.PLP.ligand.clash>
0.0000

> <Gold.PLP.ligand.torsion>
0.8361

> <Gold.PLP.Chemscore.Hbond>
2.2924

> <Gold.PLP.Chemscore.CHOScore>
0.0000

> <Gold.PLP.Chemscore.Metal>
0.0000

> <Gold.Chemscore.Hbonds>
donor molecule, donor type, donor heavy atom, donor atom, acceptor molecule, acceptor atom, score
      L1  H     6    21       P1  8028  0.96
      L1  H     9    22       P1  8028  0.65
      P1  H  7989  7998       L1     4  0.50

> <Gold.PLP.Chemscore.Internal.Correction>
0.0077

> <Gold.Rescore>
     Score         DG    S(hbond)    S(metal)    S(lipo)     H(rot)  DE(clash)    DE(int)     intcor
     12.82     -19.44       1.91        0.00      93.20       1.29       1.89       4.74       ----

> <Gold.Chemscore.Fitness>
12.8156

> <Gold.Chemscore.DG>
-19.4441

> <Gold.Chemscore.ZeroCoef>
-5.4800

> <Gold.Chemscore.Hbond>
1.9062

> <Gold.Chemscore.Metal>
0.0000

> <Gold.Chemscore.Lipo>
93.2010

> <Gold.Chemscore.Internal_Hbond>
0.0000

> <Gold.Chemscore.DEClash>
1.8867

> <Gold.Chemscore.DEInternal>
4.7418

> <Gold.Chemscore.Rot>
1.2919

> <Gold.Chemscore.Internal.Correction>
   9.000000E+99

> <Gold.Chemscore.Hbonds>
donor molecule, donor type, donor heavy atom, donor atom, acceptor molecule, acceptor atom, score
      L1  H     6    21       P1  8028  0.87
      L1  H     9    22       P1  8028  0.18
      P1  H  7989  7998       L1     4  0.02

> <Gold.Chemscore.Hbond.Weighted>
-6.3668

> <Gold.Chemscore.Metal.Weighted>
-0.0000

> <Gold.Chemscore.Lipo.Weighted>
-10.9045

> <Gold.Chemscore.Internal_Hbond.Weighted>
0.0000

> <Gold.Chemscore.DEClash.Weighted>
1.8867

> <Gold.Chemscore.DEInternal.Weighted>
4.7418

> <Gold.Chemscore.Rot.Weighted>
3.3072

> <Gold.Chemscore.Internal.Correction.Weighted>
   9.000000E+99

> <Gold.Protein.RotatedTorsions>
[ 6907 6896 6895 6894 ] final -149.78 input  -60.11 | X-H torsion
[ 7974 7965 7964 7962 ] final  122.10 input  175.53 | X-H torsion
[ 8008 7997 7996 7995 ] final   75.56 input   59.86 | X-H torsion
[ 10167 10162 10161 10158 ] final  -25.66 input  -65.29 | X-H torsion
[ 10718 10713 10712 10709 ] final   78.56 input   66.30 | X-H torsion
[ 10763 10752 10751 10750 ] final -159.38 input  -60.55 | X-H torsion
[ 11005 11000 10999 10996 ] final   98.51 input  -57.11 | X-H torsion

> <Gold.Protein.ActiveResidues>
 VAL166  LYS551  ARG553  GLY616  TRP617  ASP618  TYR619  PRO620  LYS621  CYS622 
 ASP623  PHE694  ASN695  SER759  ASP760  ASP761  ALA762  ILE779  LEU786  VAL792 
 PHE793  MET794  SER795  GLU796  ALA797  LYS798  CYS799  TRP800  GLU811  SER814 

> <Gold.Protein.RotatedAtoms>
  151.1890  133.4678  159.2594 H   0  0  0  0  0  0  0  0  0  0  0  0  # atno 6907 bound_to 6896
  151.1182  135.0065  159.8536 H   0  0  0  0  0  0  0  0  0  0  0  0  # atno 6908 bound_to 6896
  152.5454  134.1804  159.8686 H   0  0  0  0  0  0  0  0  0  0  0  0  # atno 6909 bound_to 6896
  145.1116  139.3449  143.4760 H   0  0  0  0  0  0  0  0  0  0  0  0  # atno 7974 bound_to 7965
  155.8146  140.3472  155.5478 H   0  0  0  0  0  0  0  0  0  0  0  0  # atno 8008 bound_to 7997
  155.8405  140.0941  157.1757 H   0  0  0  0  0  0  0  0  0  0  0  0  # atno 8009 bound_to 7997
  154.4005  140.1395  156.3710 H   0  0  0  0  0  0  0  0  0  0  0  0  # atno 8010 bound_to 7997
  140.7286  143.4246  151.0897 H   0  0  0  0  0  0  0  0  0  0  0  0  # atno 10167 bound_to 10162
  157.6749  130.9874  150.1804 H   0  0  0  0  0  0  0  0  0  0  0  0  # atno 10718 bound_to 10713
  154.7479  135.3085  154.8610 H   0  0  0  0  0  0  0  0  0  0  0  0  # atno 10763 bound_to 10752
  153.9406  135.6775  153.4748 H   0  0  0  0  0  0  0  0  0  0  0  0  # atno 10764 bound_to 10752
  153.1076  135.4882  154.8905 H   0  0  0  0  0  0  0  0  0  0  0  0  # atno 10765 bound_to 10752
  139.8772  134.9052  156.4467 H   0  0  0  0  0  0  0  0  0  0  0  0  # atno 11005 bound_to 11000
  146.3526  140.1037  142.8607 LP  0  0  0  0  0  0  0  0  0  0  0  0  # atno 17320 bound_to 7965
  145.0841  140.9241  143.4808 LP  0  0  0  0  0  0  0  0  0  0  0  0  # atno 17321 bound_to 7965
  139.7896  143.8238  152.3150 LP  0  0  0  0  0  0  0  0  0  0  0  0  # atno 17342 bound_to 10162
  139.8217  144.7292  150.9564 LP  0  0  0  0  0  0  0  0  0  0  0  0  # atno 17343 bound_to 10162
  156.2538  130.3703  149.8203 LP  0  0  0  0  0  0  0  0  0  0  0  0  # atno 17370 bound_to 10713
  156.5969  130.8530  151.3422 LP  0  0  0  0  0  0  0  0  0  0  0  0  # atno 17371 bound_to 10713
  140.8961  133.7813  155.9627 LP  0  0  0  0  0  0  0  0  0  0  0  0  # atno 17394 bound_to 11000
  140.8701  134.2736  157.5194 LP  0  0  0  0  0  0  0  0  0  0  0  0  # atno 17395 bound_to 11000

$$$$
