AV-unprocessed.smi:1749|AV-procd|sdf|7051|dock3
  -GOLD-   22720 8263D 1   1.00000     0.00000
 Structure written by MMmdl.
 31 32  0  0  0  0  0  0  0  0  2 V2000
  151.3225  142.8091  157.9401 C   0  0  0  0  0  0  0  0  0  0  0  0
  150.7625  141.4707  157.4383 C   0  0  1  0  0  0  0  0  0  0  0  0
  150.6840  141.4340  155.9000 C   0  0  0  0  0  0  0  0  0  0  0  0
  150.1287  140.0933  155.3939 C   0  0  0  0  0  0  0  0  0  0  0  0
  150.9564  138.9099  155.9232 C   0  0  0  0  0  0  0  0  0  0  0  0
  151.0633  138.9219  157.4624 C   0  0  2  0  0  0  0  0  0  0  0  0
  149.7728  138.6306  158.0830 N   0  0  0  0  0  0  0  0  0  0  0  0
  149.4604  137.5612  158.8401 C   0  0  0  0  0  0  0  0  0  0  0  0
  150.3281  136.7206  159.0730 O   0  0  0  0  0  0  0  0  0  0  0  0
  148.1874  137.4699  159.3078 N   0  5  0  0  0  0  0  0  0  0  0  0
  147.8467  136.6488  160.3189 C   0  0  0  0  0  0  0  0  0  0  0  0
  147.6131  137.0971  161.5628 N   0  0  0  0  0  0  0  0  0  0  0  0
  147.2908  136.0847  162.4563 N   0  0  0  0  0  0  0  0  0  0  0  0
  147.2783  134.8942  161.8578 C   0  0  0  0  0  0  0  0  0  0  0  0
  147.6605  134.9013  160.1493 S   0  0  0  0  0  0  0  0  0  0  0  0
  151.5917  140.2800  157.9654 C   0  0  0  0  0  0  0  0  0  0  0  0
  152.3411  142.9705  157.5861 H   0  0  0  0  0  0  0  0  0  0  0  0
  151.3388  142.8433  159.0298 H   0  0  0  0  0  0  0  0  0  0  0  0
  150.7128  143.6440  157.5937 H   0  0  0  0  0  0  0  0  0  0  0  0
  149.7474  141.3786  157.8280 H   0  0  0  0  0  0  0  0  0  0  0  0
  150.0547  142.2480  155.5386 H   0  0  0  0  0  0  0  0  0  0  0  0
  151.6755  141.5988  155.4760 H   0  0  0  0  0  0  0  0  0  0  0  0
  149.0892  139.9854  155.7069 H   0  0  0  0  0  0  0  0  0  0  0  0
  150.1230  140.0821  154.3037 H   0  0  0  0  0  0  0  0  0  0  0  0
  150.5259  137.9694  155.5776 H   0  0  0  0  0  0  0  0  0  0  0  0
  151.9585  138.9578  155.4959 H   0  0  0  0  0  0  0  0  0  0  0  0
  151.7737  138.1528  157.7708 H   0  0  0  0  0  0  0  0  0  0  0  0
  149.0351  139.2972  157.9088 H   0  0  0  0  0  0  0  0  0  0  0  0
  147.0416  134.0068  162.4254 H   0  0  0  0  0  0  0  0  0  0  0  0
  152.6288  140.3956  157.6476 H   0  0  0  0  0  0  0  0  0  0  0  0
  151.6076  140.2888  159.0562 H   0  0  0  0  0  0  0  0  0  0  0  0
  1  2  1  0  0  0  0
  1 17  1  0  0  0  0
  1 18  1  0  0  0  0
  1 19  1  0  0  0  0
  2 16  1  0  0  0  0
  2  3  1  0  0  0  0
  2 20  1  0  0  0  0
  3  4  1  0  0  0  0
  3 21  1  0  0  0  0
  3 22  1  0  0  0  0
  4  5  1  0  0  0  0
  4 23  1  0  0  0  0
  4 24  1  0  0  0  0
  5  6  1  0  0  0  0
  5 25  1  0  0  0  0
  5 26  1  0  0  0  0
  6  7  1  0  0  0  0
  6 16  1  0  0  0  0
  6 27  1  0  0  0  0
  7  8  1  0  0  0  0
  7 28  1  0  0  0  0
  8  9  2  0  0  0  0
  8 10  1  0  0  0  0
 10 11  1  0  0  0  0
 11 15  1  0  0  0  0
 11 12  2  0  0  0  0
 12 13  1  0  0  0  0
 13 14  2  0  0  0  0
 14 15  1  0  0  0  0
 14 29  1  0  0  0  0
 16 30  1  0  0  0  0
 16 31  1  0  0  0  0
M  CHG  1  10  -1
M  END
> <s_m_source_file>
AV-unprocessed.smi

> <i_m_source_file_index>
1749

> <i_lp_mmshare_version>
43012

> <i_f3d_flags>
0

> <s_epik_input>
W0NIM11bQ0BASF0xW0NIMl1bQ0gyXVtDSDJdW0NASF0oW0NIMl0xKVtOSF1DKD1PKVtOSF1jMm5uW2NIXXMy

> <s_epik_cmdline>
J2VwaWtfcHl0aG9uJywgJy1waCcsICc3LjAnLCAnLXRuJywgJzgnLCAnLW1hJywgJzIwMCcsICctbWV0YWxfYmluZGluZycsICctaW1hZScsICc8aW5maWxlLm1hZT4nLCAnLW9tYWUnLCAnPG91dGZpbGUubWFlPic=

> <r_lp_tautomer_probability>
1

> <r_epik_Ionization_Penalty>
4.55442

> <r_epik_Ionization_Penalty_Charging>
4.5081

> <r_epik_Ionization_Penalty_Neutral>
0.0463156

> <r_epik_State_Penalty>
4.50781

> <r_epik_Charging_Adjusted_Penalty>
9.01591

> <i_epik_Tot_Q>
-1

> <i_epik_Tot_abs_Q>
1

> <r_epik_Metal_State_Penalty>
0.823335

> <b_epik_Metal_Only>
1

> <s_lp_Force_Field>
OPLS_2005

> <r_lp_Energy>
7.79441

> <b_lp_Chiralities_Consistent>
1

> <s_lp_Variant>
AV-unprocessed.smi:1749-8

> <Gold.Version>
5.8.1

> <Gold.Id.Protein>
6NUR|6NUR_protein|mol2

> <Gold.PLP.Fitness>
34.8080

> <Gold.PLP.PLP>
-27.9811

> <Gold.PLP.part.hbond>
-3.5298

> <Gold.PLP.part.metal>
0.0000

> <Gold.PLP.part.buried>
-3.9633

> <Gold.PLP.part.nonpolar>
-19.6270

> <Gold.PLP.part.repulsive>
0.1277

> <Gold.PLP.ligand.clash>
0.0000

> <Gold.PLP.ligand.torsion>
0.7802

> <Gold.PLP.Chemscore.Hbond>
2.7920

> <Gold.PLP.Chemscore.CHOScore>
0.0000

> <Gold.PLP.Chemscore.Metal>
0.0000

> <Gold.Chemscore.Hbonds>
donor molecule, donor type, donor heavy atom, donor atom, acceptor molecule, acceptor atom, score
      P1  H  6896  6909       L1     9  1.00
      P1  H  6931  6943       L1    12  1.00
      P1  H  6934  6947       L1    12  0.51

> <Gold.PLP.Chemscore.Internal.Correction>
0.0112

> <Gold.Rescore>
     Score         DG    S(hbond)    S(metal)    S(lipo)     H(rot)  DE(clash)    DE(int)     intcor
     16.40     -17.25       2.27        0.00      57.69       1.00       0.02       0.84       ----

> <Gold.Chemscore.Fitness>
16.3970

> <Gold.Chemscore.DG>
-17.2539

> <Gold.Chemscore.ZeroCoef>
-5.4800

> <Gold.Chemscore.Hbond>
2.2708

> <Gold.Chemscore.Metal>
0.0000

> <Gold.Chemscore.Lipo>
57.6871

> <Gold.Chemscore.Internal_Hbond>
0.0000

> <Gold.Chemscore.DEClash>
0.0188

> <Gold.Chemscore.DEInternal>
0.8381

> <Gold.Chemscore.Rot>
1.0000

> <Gold.Chemscore.Internal.Correction>
   9.000000E+99

> <Gold.Chemscore.Hbonds>
donor molecule, donor type, donor heavy atom, donor atom, acceptor molecule, acceptor atom, score
      P1  H  6896  6909       L1     9  0.98
      P1  H  6931  6943       L1    12  0.47
      P1  H  6934  6947       L1    12  0.05

> <Gold.Chemscore.Hbond.Weighted>
-7.5845

> <Gold.Chemscore.Metal.Weighted>
-0.0000

> <Gold.Chemscore.Lipo.Weighted>
-6.7494

> <Gold.Chemscore.Internal_Hbond.Weighted>
0.0000

> <Gold.Chemscore.DEClash.Weighted>
0.0188

> <Gold.Chemscore.DEInternal.Weighted>
0.8381

> <Gold.Chemscore.Rot.Weighted>
2.5600

> <Gold.Chemscore.Internal.Correction.Weighted>
   9.000000E+99

> <Gold.Protein.RotatedTorsions>
[ 6907 6896 6895 6894 ] final   90.14 input  -60.11 | X-H torsion
[ 7974 7965 7964 7962 ] final  -54.78 input  175.53 | X-H torsion
[ 8008 7997 7996 7995 ] final  -28.41 input   59.86 | X-H torsion
[ 10167 10162 10161 10158 ] final   70.65 input  -65.29 | X-H torsion
[ 10718 10713 10712 10709 ] final -101.55 input   66.30 | X-H torsion
[ 10763 10752 10751 10750 ] final -132.62 input  -60.55 | X-H torsion
[ 11005 11000 10999 10996 ] final   63.88 input  -57.11 | X-H torsion

> <Gold.Protein.ActiveResidues>
 VAL166  LYS551  ARG553  GLY616  TRP617  ASP618  TYR619  PRO620  LYS621  CYS622 
 ASP623  PHE694  ASN695  SER759  ASP760  ASP761  ALA762  ILE779  LEU786  VAL792 
 PHE793  MET794  SER795  GLU796  ALA797  LYS798  CYS799  TRP800  GLU811  SER814 

> <Gold.Protein.RotatedAtoms>
  152.5442  134.1858  159.8653 H   0  0  0  0  0  0  0  0  0  0  0  0  # atno 6907 bound_to 6896
  151.1857  133.4691  159.2602 H   0  0  0  0  0  0  0  0  0  0  0  0  # atno 6908 bound_to 6896
  151.1133  135.0051  159.8560 H   0  0  0  0  0  0  0  0  0  0  0  0  # atno 6909 bound_to 6896
  145.8817  140.8139  142.9836 H   0  0  0  0  0  0  0  0  0  0  0  0  # atno 7974 bound_to 7965
  154.4333  140.1846  156.1085 H   0  0  0  0  0  0  0  0  0  0  0  0  # atno 8008 bound_to 7997
  156.0236  140.3338  155.7039 H   0  0  0  0  0  0  0  0  0  0  0  0  # atno 8009 bound_to 7997
  155.5941  140.0634  157.2741 H   0  0  0  0  0  0  0  0  0  0  0  0  # atno 8010 bound_to 7997
  140.0547  144.5283  150.7338 H   0  0  0  0  0  0  0  0  0  0  0  0  # atno 10167 bound_to 10162
  156.0198  130.5378  150.6979 H   0  0  0  0  0  0  0  0  0  0  0  0  # atno 10718 bound_to 10713
  154.8741  135.3792  154.4439 H   0  0  0  0  0  0  0  0  0  0  0  0  # atno 10763 bound_to 10752
  153.5121  135.7029  153.5780 H   0  0  0  0  0  0  0  0  0  0  0  0  # atno 10764 bound_to 10752
  153.4065  135.3935  155.1988 H   0  0  0  0  0  0  0  0  0  0  0  0  # atno 10765 bound_to 10752
  139.9995  134.6464  155.9954 H   0  0  0  0  0  0  0  0  0  0  0  0  # atno 11005 bound_to 11000
  144.6727  140.1394  143.7438 LP  0  0  0  0  0  0  0  0  0  0  0  0  # atno 17320 bound_to 7965
  145.9015  139.2433  143.1490 LP  0  0  0  0  0  0  0  0  0  0  0  0  # atno 17321 bound_to 7965
  140.7200  143.2580  151.4309 LP  0  0  0  0  0  0  0  0  0  0  0  0  # atno 17342 bound_to 10162
  139.5931  144.1456  152.2112 LP  0  0  0  0  0  0  0  0  0  0  0  0  # atno 17343 bound_to 10162
  157.4646  131.0887  151.0709 LP  0  0  0  0  0  0  0  0  0  0  0  0  # atno 17370 bound_to 10713
  157.1187  130.6052  149.5499 LP  0  0  0  0  0  0  0  0  0  0  0  0  # atno 17371 bound_to 10713
  141.1631  133.6538  156.4385 LP  0  0  0  0  0  0  0  0  0  0  0  0  # atno 17394 bound_to 11000
  140.4755  134.6714  157.5148 LP  0  0  0  0  0  0  0  0  0  0  0  0  # atno 17395 bound_to 11000

$$$$
