AV-unprocessed.smi:1341|AV-procd|sdf|5506|dock6
  -GOLD-   22720 5 93D 1   1.00000     0.00000
 Structure written by MMmdl.
 33 34  0  0  0  0  0  0  0  0  2 V2000
  144.8412  136.5379  162.4321 C   0  0  0  0  0  0  0  0  0  0  0  0
  145.8196  135.6646  162.1408 C   0  0  0  0  0  0  0  0  0  0  0  0
  147.2794  136.0177  161.9362 C   0  0  0  0  0  0  0  0  0  0  0  0
  147.5128  137.0292  160.9106 N   0  5  0  0  0  0  0  0  0  0  0  0
  147.9578  136.7668  159.6465 C   0  0  0  0  0  0  0  0  0  0  0  0
  148.7321  135.8848  159.2587 O   0  0  0  0  0  0  0  0  0  0  0  0
  147.3832  137.7201  158.6237 C   0  0  0  0  0  0  0  0  0  0  0  0
  148.2048  138.6777  158.1233 N   0  0  0  0  0  0  0  0  0  0  0  0
  147.7200  139.5510  157.2351 C   0  0  0  0  0  0  0  0  0  0  0  0
  148.5943  140.5293  156.7443 N   0  0  0  0  0  0  0  0  0  0  0  0
  150.0323  140.4670  156.9991 C   0  0  0  0  0  0  0  0  0  0  0  0
  150.7315  139.7664  155.8195 C   0  0  0  0  0  0  0  0  0  0  0  0
  150.4423  140.4646  154.6095 O   0  0  0  0  0  0  0  0  0  0  0  0
  149.0439  140.5319  154.3350 C   0  0  0  0  0  0  0  0  0  0  0  0
  148.3288  141.2448  155.4969 C   0  0  0  0  0  0  0  0  0  0  0  0
  146.4609  139.5634  156.7833 N   0  0  0  0  0  0  0  0  0  0  0  0
  145.6208  138.6211  157.2580 C   0  0  0  0  0  0  0  0  0  0  0  0
  146.0296  137.6544  158.1968 C   0  0  0  0  0  0  0  0  0  0  0  0
  144.8983  136.4576  158.7309 Cl  0  0  0  0  0  0  0  0  0  0  0  0
  145.0257  137.5972  162.5481 H   0  0  0  0  0  0  0  0  0  0  0  0
  143.8254  136.1953  162.5612 H   0  0  0  0  0  0  0  0  0  0  0  0
  145.5714  134.6182  162.0397 H   0  0  0  0  0  0  0  0  0  0  0  0
  147.6516  136.3624  162.9009 H   0  0  0  0  0  0  0  0  0  0  0  0
  147.8252  135.0927  161.7435 H   0  0  0  0  0  0  0  0  0  0  0  0
  150.4117  141.4844  157.0993 H   0  0  0  0  0  0  0  0  0  0  0  0
  150.2718  139.9653  157.9361 H   0  0  0  0  0  0  0  0  0  0  0  0
  151.8106  139.7566  155.9728 H   0  0  0  0  0  0  0  0  0  0  0  0
  150.4101  138.7268  155.7383 H   0  0  0  0  0  0  0  0  0  0  0  0
  148.8912  141.0794  153.4050 H   0  0  0  0  0  0  0  0  0  0  0  0
  148.6412  139.5286  154.1864 H   0  0  0  0  0  0  0  0  0  0  0  0
  147.2629  141.3443  155.2914 H   0  0  0  0  0  0  0  0  0  0  0  0
  148.7082  142.2628  155.5917 H   0  0  0  0  0  0  0  0  0  0  0  0
  144.6096  138.6359  156.8790 H   0  0  0  0  0  0  0  0  0  0  0  0
  1  2  2  0  0  0  0
  1 20  1  0  0  0  0
  1 21  1  0  0  0  0
  2  3  1  0  0  0  0
  2 22  1  0  0  0  0
  3  4  1  0  0  0  0
  3 23  1  0  0  0  0
  3 24  1  0  0  0  0
  4  5  1  0  0  0  0
  5  6  2  0  0  0  0
  5  7  1  0  0  0  0
  7 18  1  0  0  0  0
  7  8  2  0  0  0  0
  8  9  1  0  0  0  0
  9 10  1  0  0  0  0
  9 16  2  0  0  0  0
 10 15  1  0  0  0  0
 10 11  1  0  0  0  0
 11 12  1  0  0  0  0
 11 25  1  0  0  0  0
 11 26  1  0  0  0  0
 12 13  1  0  0  0  0
 12 27  1  0  0  0  0
 12 28  1  0  0  0  0
 13 14  1  0  0  0  0
 14 15  1  0  0  0  0
 14 29  1  0  0  0  0
 14 30  1  0  0  0  0
 15 31  1  0  0  0  0
 15 32  1  0  0  0  0
 16 17  1  0  0  0  0
 17 18  2  0  0  0  0
 17 33  1  0  0  0  0
 18 19  1  0  0  0  0
M  CHG  1   4  -1
M  END
> <s_m_source_file>
AV-unprocessed.smi

> <i_m_source_file_index>
1341

> <i_lp_mmshare_version>
43012

> <i_f3d_flags>
0

> <s_epik_input>
W0NIMl09W0NIXVtDSDJdW05IXUMoPU8pYzFuYyhuW2NIXWMxQ2wpTjJbQ0gyXVtDSDJdT1tDSDJdW0NIMl0y

> <s_epik_cmdline>
J2VwaWtfcHl0aG9uJywgJy1waCcsICc3LjAnLCAnLXRuJywgJzgnLCAnLW1hJywgJzIwMCcsICctbWV0YWxfYmluZGluZycsICctaW1hZScsICc8aW5maWxlLm1hZT4nLCAnLW9tYWUnLCAnPG91dGZpbGUubWFlPic=

> <r_lp_tautomer_probability>
1

> <r_epik_Ionization_Penalty>
5.99598

> <r_epik_Ionization_Penalty_Charging>
5.99596

> <r_epik_Ionization_Penalty_Neutral>
2.0749e-05

> <r_epik_State_Penalty>
5.99593

> <r_epik_Charging_Adjusted_Penalty>
11.9919

> <i_epik_Tot_Q>
-1

> <i_epik_Tot_abs_Q>
1

> <r_epik_Metal_State_Penalty>
1.94906

> <b_epik_Metal_Only>
1

> <s_lp_Force_Field>
OPLS_2005

> <r_lp_Energy>
16.4854

> <b_lp_Chiralities_Consistent>
1

> <s_lp_Variant>
AV-unprocessed.smi:1341-2

> <Gold.Version>
5.8.1

> <Gold.Id.Protein>
6NUR|6NUR_protein|mol2

> <Gold.PLP.Fitness>
37.7908

> <Gold.PLP.PLP>
-24.0799

> <Gold.PLP.part.hbond>
-4.4546

> <Gold.PLP.part.metal>
0.0000

> <Gold.PLP.part.buried>
-4.2338

> <Gold.PLP.part.nonpolar>
-16.3216

> <Gold.PLP.part.repulsive>
0.0940

> <Gold.PLP.ligand.clash>
0.0000

> <Gold.PLP.ligand.torsion>
1.8465

> <Gold.PLP.Chemscore.Hbond>
5.7200

> <Gold.PLP.Chemscore.CHOScore>
0.0000

> <Gold.PLP.Chemscore.Metal>
0.0000

> <Gold.Chemscore.Hbonds>
donor molecule, donor type, donor heavy atom, donor atom, acceptor molecule, acceptor atom, score
      P1  H  6896  6909       L1     6  0.15
      P1  H  6931  6943       L1     4  1.13
      P1  H  6934  6947       L1     4  2.00
      P1  H  7989  7998       L1    13  1.00

> <Gold.PLP.Chemscore.Internal.Correction>
0.2438

> <Gold.Rescore>
     Score         DG    S(hbond)    S(metal)    S(lipo)     H(rot)  DE(clash)    DE(int)     intcor
     15.23     -17.30       2.79        0.00      46.66       1.15       0.01       2.07       ----

> <Gold.Chemscore.Fitness>
15.2254

> <Gold.Chemscore.DG>
-17.2991

> <Gold.Chemscore.ZeroCoef>
-5.4800

> <Gold.Chemscore.Hbond>
2.7867

> <Gold.Chemscore.Metal>
0.0000

> <Gold.Chemscore.Lipo>
46.6601

> <Gold.Chemscore.Internal_Hbond>
0.0000

> <Gold.Chemscore.DEClash>
0.0073

> <Gold.Chemscore.DEInternal>
2.0664

> <Gold.Chemscore.Rot>
1.1514

> <Gold.Chemscore.Internal.Correction>
   9.000000E+99

> <Gold.Chemscore.Hbonds>
donor molecule, donor type, donor heavy atom, donor atom, acceptor molecule, acceptor atom, score
      P1  H  6896  6909       L1     6  0.17
      P1  H  6931  6943       L1     4  0.10
      P1  H  6934  6947       L1     4  0.45
      P1  H  7989  7998       L1    13  0.94

> <Gold.Chemscore.Hbond.Weighted>
-9.3075

> <Gold.Chemscore.Metal.Weighted>
-0.0000

> <Gold.Chemscore.Lipo.Weighted>
-5.4592

> <Gold.Chemscore.Internal_Hbond.Weighted>
0.0000

> <Gold.Chemscore.DEClash.Weighted>
0.0073

> <Gold.Chemscore.DEInternal.Weighted>
2.0664

> <Gold.Chemscore.Rot.Weighted>
2.9477

> <Gold.Chemscore.Internal.Correction.Weighted>
   9.000000E+99

> <Gold.Protein.RotatedTorsions>
[ 6907 6896 6895 6894 ] final   69.97 input  -60.11 | X-H torsion
[ 7974 7965 7964 7962 ] final -140.08 input  175.53 | X-H torsion
[ 8008 7997 7996 7995 ] final -126.70 input   59.86 | X-H torsion
[ 10167 10162 10161 10158 ] final -115.59 input  -65.29 | X-H torsion
[ 10718 10713 10712 10709 ] final -177.76 input   66.30 | X-H torsion
[ 10763 10752 10751 10750 ] final  163.22 input  -60.55 | X-H torsion
[ 11005 11000 10999 10996 ] final  -92.92 input  -57.11 | X-H torsion

> <Gold.Protein.ActiveResidues>
 VAL166  LYS551  ARG553  GLY616  TRP617  ASP618  TYR619  PRO620  LYS621  CYS622 
 ASP623  PHE694  ASN695  SER759  ASP760  ASP761  ALA762  ILE779  LEU786  VAL792 
 PHE793  MET794  SER795  GLU796  ALA797  LYS798  CYS799  TRP800  GLU811  SER814 

> <Gold.Protein.RotatedAtoms>
  152.4720  134.4938  159.9703 H   0  0  0  0  0  0  0  0  0  0  0  0  # atno 6907 bound_to 6896
  151.4962  133.3508  159.2869 H   0  0  0  0  0  0  0  0  0  0  0  0  # atno 6908 bound_to 6896
  150.8735  134.8141  159.7234 H   0  0  0  0  0  0  0  0  0  0  0  0  # atno 6909 bound_to 6896
  144.8626  140.6243  143.5319 H   0  0  0  0  0  0  0  0  0  0  0  0  # atno 7974 bound_to 7965
  155.2340  140.0426  157.2966 H   0  0  0  0  0  0  0  0  0  0  0  0  # atno 8008 bound_to 7997
  154.5870  140.2416  155.7944 H   0  0  0  0  0  0  0  0  0  0  0  0  # atno 8009 bound_to 7997
  156.2233  140.2963  156.0013 H   0  0  0  0  0  0  0  0  0  0  0  0  # atno 8010 bound_to 7997
  140.0884  143.4722  152.1884 H   0  0  0  0  0  0  0  0  0  0  0  0  # atno 10167 bound_to 10162
  156.8343  130.9664  151.3104 H   0  0  0  0  0  0  0  0  0  0  0  0  # atno 10718 bound_to 10713
  154.2903  135.2761  155.2657 H   0  0  0  0  0  0  0  0  0  0  0  0  # atno 10763 bound_to 10752
  154.5139  135.5775  153.6630 H   0  0  0  0  0  0  0  0  0  0  0  0  # atno 10764 bound_to 10752
  152.9915  135.6188  154.3067 H   0  0  0  0  0  0  0  0  0  0  0  0  # atno 10765 bound_to 10752
  141.1510  133.7853  157.0087 H   0  0  0  0  0  0  0  0  0  0  0  0  # atno 11005 bound_to 11000
  145.4284  139.1553  143.4036 LP  0  0  0  0  0  0  0  0  0  0  0  0  # atno 17320 bound_to 7965
  146.2871  140.4398  142.8753 LP  0  0  0  0  0  0  0  0  0  0  0  0  # atno 17321 bound_to 7965
  139.5739  144.7477  151.3818 LP  0  0  0  0  0  0  0  0  0  0  0  0  # atno 17342 bound_to 10162
  140.7041  143.7557  150.7452 LP  0  0  0  0  0  0  0  0  0  0  0  0  # atno 17343 bound_to 10162
  157.6390  130.8790  149.9413 LP  0  0  0  0  0  0  0  0  0  0  0  0  # atno 17370 bound_to 10713
  156.0916  130.3663  150.0383 LP  0  0  0  0  0  0  0  0  0  0  0  0  # atno 17371 bound_to 10713
  140.0892  134.9602  157.1749 LP  0  0  0  0  0  0  0  0  0  0  0  0  # atno 17394 bound_to 11000
  140.3469  134.2642  155.7204 LP  0  0  0  0  0  0  0  0  0  0  0  0  # atno 17395 bound_to 11000

$$$$
