AV-unprocessed.smi:657|AV-procd|sdf|3225|dock2
  -GOLD-   22720 0163D 1   1.00000     0.00000
 Structure written by MMmdl.
 46 47  0  0  0  0  0  0  0  0  1 V2000
  144.1450  136.2629  152.5301 C   0  0  0  0  0  0  0  0  0  0  0  0
  145.4046  135.6469  151.8927 C   0  0  0  0  0  0  0  0  0  0  0  0
  145.9792  136.5482  150.7805 C   0  0  0  0  0  0  0  0  0  0  0  0
  145.1657  134.2517  151.4588 N   0  0  0  0  0  0  0  0  0  0  0  0
  144.3137  134.1489  150.2613 C   0  0  0  0  0  0  0  0  0  0  0  0
  143.8572  132.6985  150.0308 C   0  0  0  0  0  0  0  0  0  0  0  0
  145.0586  131.7679  149.8586 C   0  0  0  0  0  0  0  0  0  0  0  0
  145.9840  131.9159  151.0682 C   0  0  0  0  0  0  0  0  0  0  0  0
  146.3844  133.3934  151.2910 C   0  0  2  0  0  0  0  0  0  0  0  0
  147.3970  133.4733  152.4501 C   0  0  0  0  0  0  0  0  0  0  0  0
  147.1776  134.1998  153.4202 O   0  0  0  0  0  0  0  0  0  0  0  0
  148.5128  132.7386  152.3211 N   0  0  0  0  0  0  0  0  0  0  0  0
  149.6017  132.6881  153.2886 C   0  0  0  0  0  0  0  0  0  0  0  0
  149.0765  132.4854  154.7183 C   0  0  0  0  0  0  0  0  0  0  0  0
  150.1941  132.1770  155.6745 C   0  0  0  0  0  0  0  0  0  0  0  0
  150.1145  132.0102  157.0866 C   0  0  0  0  0  0  0  0  0  0  0  0
  151.2873  131.7489  157.6406 N   0  0  0  0  0  0  0  0  0  0  0  0
  152.1527  131.7390  156.6060 N   0  0  0  0  0  0  0  0  0  0  0  0
  153.5550  131.4793  156.8514 C   0  0  0  0  0  0  0  0  0  0  0  0
  151.5216  131.9942  155.4076 C   0  0  0  0  0  0  0  0  0  0  0  0
  144.3940  137.1923  153.0429 H   0  0  0  0  0  0  0  0  0  0  0  0
  143.7069  135.5914  153.2694 H   0  0  0  0  0  0  0  0  0  0  0  0
  143.3782  136.5072  151.7957 H   0  0  0  0  0  0  0  0  0  0  0  0
  146.1258  135.6393  152.7082 H   0  0  0  0  0  0  0  0  0  0  0  0
  146.2227  137.5339  151.1773 H   0  0  0  0  0  0  0  0  0  0  0  0
  145.2692  136.6984  149.9673 H   0  0  0  0  0  0  0  0  0  0  0  0
  146.8959  136.1402  150.3559 H   0  0  0  0  0  0  0  0  0  0  0  0
  143.4193  134.7608  150.3578 H   0  0  0  0  0  0  0  0  0  0  0  0
  144.8470  134.5097  149.3808 H   0  0  0  0  0  0  0  0  0  0  0  0
  143.2472  132.3660  150.8720 H   0  0  0  0  0  0  0  0  0  0  0  0
  143.2202  132.6459  149.1476 H   0  0  0  0  0  0  0  0  0  0  0  0
  144.7279  130.7340  149.7567 H   0  0  0  0  0  0  0  0  0  0  0  0
  145.5970  132.0198  148.9442 H   0  0  0  0  0  0  0  0  0  0  0  0
  145.4787  131.5251  151.9532 H   0  0  0  0  0  0  0  0  0  0  0  0
  146.8711  131.2979  150.9210 H   0  0  0  0  0  0  0  0  0  0  0  0
  146.9063  133.7239  150.3907 H   0  0  0  0  0  0  0  0  0  0  0  0
  148.6172  132.1792  151.4870 H   0  0  0  0  0  0  0  0  0  0  0  0
  150.2577  131.8618  153.0127 H   0  0  0  0  0  0  0  0  0  0  0  0
  150.2039  133.5962  153.2255 H   0  0  0  0  0  0  0  0  0  0  0  0
  148.5397  133.3788  155.0395 H   0  0  0  0  0  0  0  0  0  0  0  0
  148.3402  131.6809  154.7207 H   0  0  0  0  0  0  0  0  0  0  0  0
  149.2430  132.0725  157.7216 H   0  0  0  0  0  0  0  0  0  0  0  0
  154.1110  131.5105  155.9141 H   0  0  0  0  0  0  0  0  0  0  0  0
  153.6746  130.4934  157.3018 H   0  0  0  0  0  0  0  0  0  0  0  0
  153.9576  132.2342  157.5276 H   0  0  0  0  0  0  0  0  0  0  0  0
  152.0629  132.0260  154.4735 H   0  0  0  0  0  0  0  0  0  0  0  0
  1  2  1  0  0  0  0
  1 21  1  0  0  0  0
  1 22  1  0  0  0  0
  1 23  1  0  0  0  0
  2  3  1  0  0  0  0
  2  4  1  0  0  0  0
  2 24  1  0  0  0  0
  3 25  1  0  0  0  0
  3 26  1  0  0  0  0
  3 27  1  0  0  0  0
  4  9  1  0  0  0  0
  4  5  1  0  0  0  0
  5  6  1  0  0  0  0
  5 28  1  0  0  0  0
  5 29  1  0  0  0  0
  6  7  1  0  0  0  0
  6 30  1  0  0  0  0
  6 31  1  0  0  0  0
  7  8  1  0  0  0  0
  7 32  1  0  0  0  0
  7 33  1  0  0  0  0
  8  9  1  0  0  0  0
  8 34  1  0  0  0  0
  8 35  1  0  0  0  0
  9 10  1  0  0  0  0
  9 36  1  0  0  0  0
 10 11  2  0  0  0  0
 10 12  1  0  0  0  0
 12 13  1  0  0  0  0
 12 37  1  0  0  0  0
 13 14  1  0  0  0  0
 13 38  1  0  0  0  0
 13 39  1  0  0  0  0
 14 15  1  0  0  0  0
 14 40  1  0  0  0  0
 14 41  1  0  0  0  0
 15 20  2  0  0  0  0
 15 16  1  0  0  0  0
 16 17  2  0  0  0  0
 16 42  1  0  0  0  0
 17 18  1  0  0  0  0
 18 19  1  0  0  0  0
 18 20  1  0  0  0  0
 19 43  1  0  0  0  0
 19 44  1  0  0  0  0
 19 45  1  0  0  0  0
 20 46  1  0  0  0  0
M  END
> <s_m_source_file>
AV-unprocessed.smi

> <i_m_source_file_index>
657

> <i_lp_mmshare_version>
43012

> <i_f3d_flags>
0

> <s_epik_input>
W0NIM11bQ0hdKFtDSDNdKU4xW0NIMl1bQ0gyXVtDSDJdW0NIMl1bQ0BIXTFDKD1PKVtOSF1bQ0gyXVtDSDJdYzJbY0hdbm4oW0NIM10pW2NIXTI=

> <s_epik_cmdline>
J2VwaWtfcHl0aG9uJywgJy1waCcsICc3LjAnLCAnLXRuJywgJzgnLCAnLW1hJywgJzIwMCcsICctbWV0YWxfYmluZGluZycsICctaW1hZScsICc8aW5maWxlLm1hZT4nLCAnLW9tYWUnLCAnPG91dGZpbGUubWFlPic=

> <r_lp_tautomer_probability>
1

> <r_epik_Ionization_Penalty>
1.91154

> <r_epik_Ionization_Penalty_Charging>
0

> <r_epik_Ionization_Penalty_Neutral>
1.91154

> <r_epik_State_Penalty>
2.0331

> <r_epik_Charging_Adjusted_Penalty>
2.0331

> <i_epik_Tot_Q>
0

> <i_epik_Tot_abs_Q>
0

> <r_epik_Metal_State_Penalty>
2.04973

> <b_epik_Metal_Only>
0

> <s_lp_Force_Field>
OPLS_2005

> <r_lp_Energy>
15.3254

> <b_lp_Chiralities_Consistent>
1

> <s_lp_Variant>
AV-unprocessed.smi:657-6

> <Gold.Version>
5.8.1

> <Gold.Id.Protein>
6NUR|6NUR_protein|mol2

> <Gold.PLP.Fitness>
38.6059

> <Gold.PLP.PLP>
-33.1601

> <Gold.PLP.part.hbond>
-1.9838

> <Gold.PLP.part.metal>
0.0000

> <Gold.PLP.part.buried>
-2.1065

> <Gold.PLP.part.nonpolar>
-29.9197

> <Gold.PLP.part.repulsive>
0.2397

> <Gold.PLP.ligand.clash>
0.0000

> <Gold.PLP.ligand.torsion>
0.3361

> <Gold.PLP.Chemscore.Hbond>
1.9913

> <Gold.PLP.Chemscore.CHOScore>
0.0000

> <Gold.PLP.Chemscore.Metal>
0.0000

> <Gold.Chemscore.Hbonds>
donor molecule, donor type, donor heavy atom, donor atom, acceptor molecule, acceptor atom, score
      L1  H    12    37       P1 10747  1.00
      P1  H  6896  6907       L1    17  0.49

> <Gold.PLP.Chemscore.Internal.Correction>
0.1443

> <Gold.Rescore>
     Score         DG    S(hbond)    S(metal)    S(lipo)     H(rot)  DE(clash)    DE(int)     intcor
     15.12     -18.40       1.84        0.00      92.30       1.57       0.16       3.12       ----

> <Gold.Chemscore.Fitness>
15.1235

> <Gold.Chemscore.DG>
-18.4006

> <Gold.Chemscore.ZeroCoef>
-5.4800

> <Gold.Chemscore.Hbond>
1.8411

> <Gold.Chemscore.Metal>
0.0000

> <Gold.Chemscore.Lipo>
92.3045

> <Gold.Chemscore.Internal_Hbond>
0.0000

> <Gold.Chemscore.DEClash>
0.1603

> <Gold.Chemscore.DEInternal>
3.1169

> <Gold.Chemscore.Rot>
1.5736

> <Gold.Chemscore.Internal.Correction>
   9.000000E+99

> <Gold.Chemscore.Hbonds>
donor molecule, donor type, donor heavy atom, donor atom, acceptor molecule, acceptor atom, score
      L1  H    12    37       P1 10747  1.00
      P1  H  6896  6907       L1    17  0.21

> <Gold.Chemscore.Hbond.Weighted>
-6.1494

> <Gold.Chemscore.Metal.Weighted>
-0.0000

> <Gold.Chemscore.Lipo.Weighted>
-10.7996

> <Gold.Chemscore.Internal_Hbond.Weighted>
0.0000

> <Gold.Chemscore.DEClash.Weighted>
0.1603

> <Gold.Chemscore.DEInternal.Weighted>
3.1169

> <Gold.Chemscore.Rot.Weighted>
4.0284

> <Gold.Chemscore.Internal.Correction.Weighted>
   9.000000E+99

> <Gold.Protein.RotatedTorsions>
[ 6907 6896 6895 6894 ] final -169.36 input  -60.11 | X-H torsion
[ 7974 7965 7964 7962 ] final  -72.15 input  175.53 | X-H torsion
[ 8008 7997 7996 7995 ] final  -54.00 input   59.86 | X-H torsion
[ 10167 10162 10161 10158 ] final -124.30 input  -65.29 | X-H torsion
[ 10718 10713 10712 10709 ] final  -35.81 input   66.30 | X-H torsion
[ 10763 10752 10751 10750 ] final  140.90 input  -60.55 | X-H torsion
[ 11005 11000 10999 10996 ] final  -37.01 input  -57.11 | X-H torsion

> <Gold.Protein.ActiveResidues>
 VAL166  LYS551  ARG553  GLY616  TRP617  ASP618  TYR619  PRO620  LYS621  CYS622 
 ASP623  PHE694  ASN695  SER759  ASP760  ASP761  ALA762  ILE779  LEU786  VAL792 
 PHE793  MET794  SER795  GLU796  ALA797  LYS798  CYS799  TRP800  GLU811  SER814 

> <Gold.Protein.RotatedAtoms>
  151.4904  133.3526  159.2852 H   0  0  0  0  0  0  0  0  0  0  0  0  # atno 6907 bound_to 6896
  150.8839  134.8236  159.7255 H   0  0  0  0  0  0  0  0  0  0  0  0  # atno 6908 bound_to 6896
  152.4780  134.4805  159.9716 H   0  0  0  0  0  0  0  0  0  0  0  0  # atno 6909 bound_to 6896
  145.6688  140.9228  143.0894 H   0  0  0  0  0  0  0  0  0  0  0  0  # atno 7974 bound_to 7965
  154.4149  140.1186  156.5244 H   0  0  0  0  0  0  0  0  0  0  0  0  # atno 8008 bound_to 7997
  155.6669  140.3496  155.4784 H   0  0  0  0  0  0  0  0  0  0  0  0  # atno 8009 bound_to 7997
  155.9666  140.1133  157.0839 H   0  0  0  0  0  0  0  0  0  0  0  0  # atno 8010 bound_to 7997
  139.9942  143.5608  152.2329 H   0  0  0  0  0  0  0  0  0  0  0  0  # atno 10167 bound_to 10162
  156.3342  130.4284  149.7845 H   0  0  0  0  0  0  0  0  0  0  0  0  # atno 10718 bound_to 10713
  153.9303  135.2991  155.3446 H   0  0  0  0  0  0  0  0  0  0  0  0  # atno 10763 bound_to 10752
  154.7530  135.4971  153.9326 H   0  0  0  0  0  0  0  0  0  0  0  0  # atno 10764 bound_to 10752
  153.1095  135.6755  153.9631 H   0  0  0  0  0  0  0  0  0  0  0  0  # atno 10765 bound_to 10752
  140.9919  133.7000  156.1865 H   0  0  0  0  0  0  0  0  0  0  0  0  # atno 11005 bound_to 11000
  144.7064  139.8545  143.7428 LP  0  0  0  0  0  0  0  0  0  0  0  0  # atno 17320 bound_to 7965
  146.1063  139.4063  143.0315 LP  0  0  0  0  0  0  0  0  0  0  0  0  # atno 17321 bound_to 7965
  139.6318  144.7645  151.2521 LP  0  0  0  0  0  0  0  0  0  0  0  0  # atno 17342 bound_to 10162
  140.7443  143.6467  150.8286 LP  0  0  0  0  0  0  0  0  0  0  0  0  # atno 17343 bound_to 10162
  156.5106  130.8170  151.3167 LP  0  0  0  0  0  0  0  0  0  0  0  0  # atno 17370 bound_to 10713
  157.7436  130.9915  150.2603 LP  0  0  0  0  0  0  0  0  0  0  0  0  # atno 17371 bound_to 10713
  140.7027  134.4547  157.5585 LP  0  0  0  0  0  0  0  0  0  0  0  0  # atno 17394 bound_to 11000
  139.8996  134.8587  156.1953 LP  0  0  0  0  0  0  0  0  0  0  0  0  # atno 17395 bound_to 11000

$$$$
