AV-unprocessed.smi:1043|AV-procd|sdf|4540|dock1
  -GOLD-   22720 2563D 1   1.00000     0.00000
 Structure written by MMmdl.
 35 36  0  0  0  0  0  0  0  0  1 V2000
  145.7867  134.6789  155.3421 C   0  0  0  0  0  0  0  0  0  0  0  0
  145.8380  135.0359  153.8387 C   0  0  0  0  0  0  0  0  0  0  0  0
  146.9271  135.9968  153.6028 N   0  0  0  0  0  0  0  0  0  0  0  0
  147.1227  137.2006  154.1681 C   0  0  0  0  0  0  0  0  0  0  0  0
  146.3750  137.6966  155.0107 O   0  0  0  0  0  0  0  0  0  0  0  0
  148.2356  137.7801  153.6850 N   0  0  0  0  0  0  0  0  0  0  0  0
  148.7829  139.0487  154.0129 C   0  0  0  0  0  0  0  0  0  0  0  0
  150.0727  139.2453  154.3281 N   0  0  0  0  0  0  0  0  0  0  0  0
  150.3420  140.5789  154.6072 N   0  0  0  0  0  0  0  0  0  0  0  0
  149.2461  141.3345  154.4926 C   0  0  0  0  0  0  0  0  0  0  0  0
  147.7777  140.4905  154.0326 S   0  0  0  0  0  0  0  0  0  0  0  0
  146.1910  133.7397  153.0698 C   0  0  0  0  0  0  0  0  0  0  0  0
  146.1928  133.8324  151.5309 C   0  0  0  0  0  0  0  0  0  0  0  0
  144.7772  133.8219  150.9327 C   0  0  0  0  0  0  0  0  0  0  0  0
  144.0792  135.1901  150.8506 C   0  0  0  0  0  0  0  0  0  0  0  0
  144.3872  136.1922  151.9761 C   0  0  0  0  0  0  0  0  0  0  0  0
  144.4545  135.5996  153.3997 C   0  0  0  0  0  0  0  0  0  0  0  0
  145.0453  133.9036  155.5380 H   0  0  0  0  0  0  0  0  0  0  0  0
  145.5185  135.5344  155.9619 H   0  0  0  0  0  0  0  0  0  0  0  0
  146.7488  134.3071  155.6967 H   0  0  0  0  0  0  0  0  0  0  0  0
  147.6112  135.7059  152.9202 H   0  0  0  0  0  0  0  0  0  0  0  0
  148.7532  137.2503  152.9995 H   0  0  0  0  0  0  0  0  0  0  0  0
  149.3027  142.3963  154.6807 H   0  0  0  0  0  0  0  0  0  0  0  0
  147.1818  133.4096  153.3869 H   0  0  0  0  0  0  0  0  0  0  0  0
  145.5179  132.9365  153.3727 H   0  0  0  0  0  0  0  0  0  0  0  0
  146.7671  134.6882  151.1752 H   0  0  0  0  0  0  0  0  0  0  0  0
  146.7151  132.9524  151.1542 H   0  0  0  0  0  0  0  0  0  0  0  0
  144.8206  133.4069  149.9251 H   0  0  0  0  0  0  0  0  0  0  0  0
  144.1519  133.1299  151.4978 H   0  0  0  0  0  0  0  0  0  0  0  0
  144.3349  135.6631  149.9016 H   0  0  0  0  0  0  0  0  0  0  0  0
  143.0030  135.0190  150.8081 H   0  0  0  0  0  0  0  0  0  0  0  0
  145.3018  136.7332  151.7374 H   0  0  0  0  0  0  0  0  0  0  0  0
  143.6058  136.9528  151.9568 H   0  0  0  0  0  0  0  0  0  0  0  0
  143.6830  134.8375  153.5171 H   0  0  0  0  0  0  0  0  0  0  0  0
  144.1685  136.3906  154.0933 H   0  0  0  0  0  0  0  0  0  0  0  0
  1  2  1  0  0  0  0
  1 18  1  0  0  0  0
  1 19  1  0  0  0  0
  1 20  1  0  0  0  0
  2 17  1  0  0  0  0
  2  3  1  0  0  0  0
  2 12  1  0  0  0  0
  3  4  1  0  0  0  0
  3 21  1  0  0  0  0
  4  5  2  0  0  0  0
  4  6  1  0  0  0  0
  6  7  1  0  0  0  0
  6 22  1  0  0  0  0
  7 11  1  0  0  0  0
  7  8  2  0  0  0  0
  8  9  1  0  0  0  0
  9 10  2  0  0  0  0
 10 11  1  0  0  0  0
 10 23  1  0  0  0  0
 12 13  1  0  0  0  0
 12 24  1  0  0  0  0
 12 25  1  0  0  0  0
 13 14  1  0  0  0  0
 13 26  1  0  0  0  0
 13 27  1  0  0  0  0
 14 15  1  0  0  0  0
 14 28  1  0  0  0  0
 14 29  1  0  0  0  0
 15 16  1  0  0  0  0
 15 30  1  0  0  0  0
 15 31  1  0  0  0  0
 16 17  1  0  0  0  0
 16 32  1  0  0  0  0
 16 33  1  0  0  0  0
 17 34  1  0  0  0  0
 17 35  1  0  0  0  0
M  END
> <s_m_source_file>
AV-unprocessed.smi

> <i_m_source_file_index>
1043

> <i_lp_mmshare_version>
43012

> <i_f3d_flags>
0

> <s_epik_input>
W0NIMl0xW0NIMl1bQ0gyXVtDSDJdW0NIMl1bQ0gyXUMxKFtDSDNdKVtOSF1DKD1PKVtOSF1jMm5uW2NIXXMy

> <s_epik_cmdline>
J2VwaWtfcHl0aG9uJywgJy1waCcsICc3LjAnLCAnLXRuJywgJzgnLCAnLW1hJywgJzIwMCcsICctbWV0YWxfYmluZGluZycsICctaW1hZScsICc8aW5maWxlLm1hZT4nLCAnLW9tYWUnLCAnPG91dGZpbGUubWFlPic=

> <r_lp_tautomer_probability>
1

> <r_epik_Ionization_Penalty>
0.000320341

> <r_epik_Ionization_Penalty_Charging>
0

> <r_epik_Ionization_Penalty_Neutral>
0.000320341

> <r_epik_State_Penalty>
-0

> <r_epik_Charging_Adjusted_Penalty>
0

> <i_epik_Tot_Q>
0

> <i_epik_Tot_abs_Q>
0

> <r_epik_Metal_State_Penalty>
0.170162

> <b_epik_Metal_Only>
0

> <s_lp_Force_Field>
OPLS_2005

> <r_lp_Energy>
19.1751

> <b_lp_Chiralities_Consistent>
1

> <s_lp_Variant>
AV-unprocessed.smi:1043-1

> <Gold.Version>
5.8.1

> <Gold.Id.Protein>
6NUR|6NUR_protein|mol2

> <Gold.PLP.Fitness>
32.9128

> <Gold.PLP.PLP>
-22.1698

> <Gold.PLP.part.hbond>
-3.0000

> <Gold.PLP.part.metal>
0.0000

> <Gold.PLP.part.buried>
-3.9017

> <Gold.PLP.part.nonpolar>
-15.8969

> <Gold.PLP.part.repulsive>
0.3137

> <Gold.PLP.ligand.clash>
0.0000

> <Gold.PLP.ligand.torsion>
0.4650

> <Gold.PLP.Chemscore.Hbond>
2.8880

> <Gold.PLP.Chemscore.CHOScore>
1.0000

> <Gold.PLP.Chemscore.Metal>
0.0000

> <Gold.Chemscore.Hbonds>
donor molecule, donor type, donor heavy atom, donor atom, acceptor molecule, acceptor atom, score
      L1  H     3    21       P1  7948  0.93
      L1  H     6    22       P1  7948  0.99
      P1  H  7989  7998       L1     9  0.93
      L1  C    10    23       P1  8028  0.97

> <Gold.PLP.Chemscore.Internal.Correction>
0.0089

> <Gold.Rescore>
     Score         DG    S(hbond)    S(metal)    S(lipo)     H(rot)  DE(clash)    DE(int)     intcor
     15.09     -15.47       2.34        0.00      40.49       1.00       0.03       0.35       ----

> <Gold.Chemscore.Fitness>
15.0916

> <Gold.Chemscore.DG>
-15.4684

> <Gold.Chemscore.ZeroCoef>
-5.4800

> <Gold.Chemscore.Hbond>
2.3385

> <Gold.Chemscore.Metal>
0.0000

> <Gold.Chemscore.Lipo>
40.4930

> <Gold.Chemscore.Internal_Hbond>
0.0000

> <Gold.Chemscore.DEClash>
0.0262

> <Gold.Chemscore.DEInternal>
0.3505

> <Gold.Chemscore.Rot>
1.0000

> <Gold.Chemscore.Internal.Correction>
   9.000000E+99

> <Gold.Chemscore.Hbonds>
donor molecule, donor type, donor heavy atom, donor atom, acceptor molecule, acceptor atom, score
      L1  H     3    21       P1  7948  0.91
      L1  H     6    22       P1  7948  0.92
      P1  H  7989  7998       L1     9  0.25

> <Gold.Chemscore.Hbond.Weighted>
-7.8107

> <Gold.Chemscore.Metal.Weighted>
-0.0000

> <Gold.Chemscore.Lipo.Weighted>
-4.7377

> <Gold.Chemscore.Internal_Hbond.Weighted>
0.0000

> <Gold.Chemscore.DEClash.Weighted>
0.0262

> <Gold.Chemscore.DEInternal.Weighted>
0.3505

> <Gold.Chemscore.Rot.Weighted>
2.5600

> <Gold.Chemscore.Internal.Correction.Weighted>
   9.000000E+99

> <Gold.Protein.RotatedTorsions>
[ 6907 6896 6895 6894 ] final  179.49 input  -60.11 | X-H torsion
[ 7974 7965 7964 7962 ] final  -32.66 input  175.53 | X-H torsion
[ 8008 7997 7996 7995 ] final  132.37 input   59.86 | X-H torsion
[ 10167 10162 10161 10158 ] final  108.77 input  -65.29 | X-H torsion
[ 10718 10713 10712 10709 ] final  -52.65 input   66.30 | X-H torsion
[ 10763 10752 10751 10750 ] final  154.33 input  -60.55 | X-H torsion
[ 11005 11000 10999 10996 ] final  -40.14 input  -57.11 | X-H torsion

> <Gold.Protein.ActiveResidues>
 VAL166  LYS551  ARG553  GLY616  TRP617  ASP618  TYR619  PRO620  LYS621  CYS622 
 ASP623  PHE694  ASN695  SER759  ASP760  ASP761  ALA762  ILE779  LEU786  VAL792 
 PHE793  MET794  SER795  GLU796  ALA797  LYS798  CYS799  TRP800  GLU811  SER814 

> <Gold.Protein.RotatedAtoms>
  151.6708  133.3314  159.3195 H   0  0  0  0  0  0  0  0  0  0  0  0  # atno 6907 bound_to 6896
  150.7869  134.6864  159.6482 H   0  0  0  0  0  0  0  0  0  0  0  0  # atno 6908 bound_to 6896
  152.3940  134.6399  160.0148 H   0  0  0  0  0  0  0  0  0  0  0  0  # atno 6909 bound_to 6896
  146.0972  140.5820  142.8837 H   0  0  0  0  0  0  0  0  0  0  0  0  # atno 7974 bound_to 7965
  156.2982  140.2548  156.3079 H   0  0  0  0  0  0  0  0  0  0  0  0  # atno 8008 bound_to 7997
  154.9355  140.0397  157.2089 H   0  0  0  0  0  0  0  0  0  0  0  0  # atno 8009 bound_to 7997
  154.8177  140.2855  155.5813 H   0  0  0  0  0  0  0  0  0  0  0  0  # atno 8010 bound_to 7997
  139.6820  144.7117  151.1499 H   0  0  0  0  0  0  0  0  0  0  0  0  # atno 10167 bound_to 10162
  156.1603  130.4150  149.9804 H   0  0  0  0  0  0  0  0  0  0  0  0  # atno 10718 bound_to 10713
  154.1506  135.2815  155.3136 H   0  0  0  0  0  0  0  0  0  0  0  0  # atno 10763 bound_to 10752
  154.6220  135.5464  153.7589 H   0  0  0  0  0  0  0  0  0  0  0  0  # atno 10764 bound_to 10752
  153.0222  135.6441  154.1650 H   0  0  0  0  0  0  0  0  0  0  0  0  # atno 10765 bound_to 10752
  141.0153  133.6888  156.2281 H   0  0  0  0  0  0  0  0  0  0  0  0  # atno 11005 bound_to 11000
  144.7405  140.4928  143.6873 LP  0  0  0  0  0  0  0  0  0  0  0  0  # atno 17320 bound_to 7965
  145.5925  139.1497  143.3174 LP  0  0  0  0  0  0  0  0  0  0  0  0  # atno 17321 bound_to 7965
  140.7655  143.5685  150.9021 LP  0  0  0  0  0  0  0  0  0  0  0  0  # atno 17342 bound_to 10162
  139.9358  143.6440  152.3065 LP  0  0  0  0  0  0  0  0  0  0  0  0  # atno 17343 bound_to 10162
  156.7635  130.9160  151.3642 LP  0  0  0  0  0  0  0  0  0  0  0  0  # atno 17370 bound_to 10713
  157.6727  130.9066  150.0078 LP  0  0  0  0  0  0  0  0  0  0  0  0  # atno 17371 bound_to 10713
  140.6665  134.4913  157.5585 LP  0  0  0  0  0  0  0  0  0  0  0  0  # atno 17394 bound_to 11000
  139.9113  134.8338  156.1518 LP  0  0  0  0  0  0  0  0  0  0  0  0  # atno 17395 bound_to 11000

$$$$
