AV-unprocessed.smi:2339|AV-procd|sdf|9336|dock2
  -GOLD-   2272012553D 1   1.00000     0.00000
 Structure written by MMmdl.
 49 52  0  0  0  0  0  0  0  0  1 V2000
  150.9029  142.2322  157.6755 C   0  0  0  0  0  0  0  0  0  0  0  0
  150.6046  142.1221  156.1762 C   0  0  0  0  0  0  0  0  0  0  0  0
  150.7977  140.7651  155.6856 N   0  0  0  0  0  0  0  0  0  0  0  0
  152.0288  140.1266  155.7911 C   0  0  0  0  0  0  0  0  0  0  0  0
  152.2850  138.8971  155.3045 C   0  0  0  0  0  0  0  0  0  0  0  0
  151.2146  138.1577  154.6060 C   0  0  0  0  0  0  0  0  0  0  0  0
  151.4145  137.0313  154.1521 O   0  0  0  0  0  0  0  0  0  0  0  0
  149.9008  138.8436  154.4849 C   0  0  0  0  0  0  0  0  0  0  0  0
  148.8840  138.1280  153.8322 N   0  0  0  0  0  0  0  0  0  0  0  0
  147.5449  138.2486  153.9390 C   0  0  0  0  0  0  0  0  0  0  0  0
  146.9577  139.0870  154.6193 O   0  0  0  0  0  0  0  0  0  0  0  0
  146.8601  137.3414  153.2203 N   0  0  0  0  0  0  0  0  0  0  0  0
  145.4069  137.1964  153.1160 C   0  0  2  0  0  0  0  0  0  0  0  0
  144.7497  136.9724  154.4855 C   0  0  1  0  0  0  0  0  0  0  0  0
  143.8558  138.0335  155.0669 C   0  0  0  0  0  0  0  0  0  0  0  0
  142.4611  137.5893  154.6154 C   0  0  0  0  0  0  0  0  0  0  0  0
  142.6982  136.7384  153.4958 O   0  0  0  0  0  0  0  0  0  0  0  0
  143.8570  135.9605  153.7880 C   0  0  1  0  0  0  0  0  0  0  0  0
  144.8934  135.8029  152.6522 C   0  0  0  0  0  0  0  0  0  0  0  0
  145.8168  134.5704  152.7753 C   0  0  0  0  0  0  0  0  0  0  0  0
  145.5248  133.6500  151.5925 C   0  0  0  0  0  0  0  0  0  0  0  0
  145.0985  134.6056  150.4887 C   0  0  0  0  0  0  0  0  0  0  0  0
  144.3260  135.6951  151.2291 C   0  0  0  0  0  0  0  0  0  0  0  0
  149.7774  140.0825  155.0261 C   0  0  0  0  0  0  0  0  0  0  0  0
  150.7575  143.2543  158.0249 H   0  0  0  0  0  0  0  0  0  0  0  0
  151.9328  141.9486  157.8940 H   0  0  0  0  0  0  0  0  0  0  0  0
  150.2450  141.5849  158.2561 H   0  0  0  0  0  0  0  0  0  0  0  0
  149.5796  142.4376  155.9779 H   0  0  0  0  0  0  0  0  0  0  0  0
  151.2475  142.8052  155.6201 H   0  0  0  0  0  0  0  0  0  0  0  0
  152.7844  140.6984  156.3101 H   0  0  0  0  0  0  0  0  0  0  0  0
  153.2571  138.4386  155.4125 H   0  0  0  0  0  0  0  0  0  0  0  0
  149.2158  137.4160  153.1975 H   0  0  0  0  0  0  0  0  0  0  0  0
  147.4073  136.6687  152.7033 H   0  0  0  0  0  0  0  0  0  0  0  0
  144.9252  138.0145  152.5752 H   0  0  0  0  0  0  0  0  0  0  0  0
  145.4182  136.4910  155.2016 H   0  0  0  0  0  0  0  0  0  0  0  0
  143.9253  138.0919  156.1533 H   0  0  0  0  0  0  0  0  0  0  0  0
  144.1019  139.0156  154.6615 H   0  0  0  0  0  0  0  0  0  0  0  0
  141.9700  137.0129  155.4007 H   0  0  0  0  0  0  0  0  0  0  0  0
  141.8161  138.4277  154.3527 H   0  0  0  0  0  0  0  0  0  0  0  0
  143.6435  135.0690  154.3794 H   0  0  0  0  0  0  0  0  0  0  0  0
  146.8690  134.8460  152.7303 H   0  0  0  0  0  0  0  0  0  0  0  0
  145.6827  134.0413  153.7193 H   0  0  0  0  0  0  0  0  0  0  0  0
  146.3808  133.0350  151.3131 H   0  0  0  0  0  0  0  0  0  0  0  0
  144.6980  132.9828  151.8397 H   0  0  0  0  0  0  0  0  0  0  0  0
  145.9815  135.0375  150.0157 H   0  0  0  0  0  0  0  0  0  0  0  0
  144.5062  134.1203  149.7126 H   0  0  0  0  0  0  0  0  0  0  0  0
  143.2733  135.4129  151.2669 H   0  0  0  0  0  0  0  0  0  0  0  0
  144.3707  136.6415  150.6913 H   0  0  0  0  0  0  0  0  0  0  0  0
  148.8571  140.6439  155.0066 H   0  0  0  0  0  0  0  0  0  0  0  0
  1  2  1  0  0  0  0
  1 25  1  0  0  0  0
  1 26  1  0  0  0  0
  1 27  1  0  0  0  0
  2  3  1  0  0  0  0
  2 28  1  0  0  0  0
  2 29  1  0  0  0  0
  3 24  1  0  0  0  0
  3  4  1  0  0  0  0
  4  5  2  0  0  0  0
  4 30  1  0  0  0  0
  5  6  1  0  0  0  0
  5 31  1  0  0  0  0
  6  7  2  0  0  0  0
  6  8  1  0  0  0  0
  8  9  1  0  0  0  0
  8 24  2  0  0  0  0
  9 10  1  0  0  0  0
  9 32  1  0  0  0  0
 10 11  2  0  0  0  0
 10 12  1  0  0  0  0
 12 13  1  0  0  0  0
 12 33  1  0  0  0  0
 13 19  1  0  0  0  0
 13 14  1  0  0  0  0
 13 34  1  0  0  0  0
 14 18  1  0  0  0  0
 14 15  1  0  0  0  0
 14 35  1  0  0  0  0
 15 16  1  0  0  0  0
 15 36  1  0  0  0  0
 15 37  1  0  0  0  0
 16 17  1  0  0  0  0
 16 38  1  0  0  0  0
 16 39  1  0  0  0  0
 17 18  1  0  0  0  0
 18 19  1  0  0  0  0
 18 40  1  0  0  0  0
 19 23  1  0  0  0  0
 19 20  1  0  0  0  0
 20 21  1  0  0  0  0
 20 41  1  0  0  0  0
 20 42  1  0  0  0  0
 21 22  1  0  0  0  0
 21 43  1  0  0  0  0
 21 44  1  0  0  0  0
 22 23  1  0  0  0  0
 22 45  1  0  0  0  0
 22 46  1  0  0  0  0
 23 47  1  0  0  0  0
 23 48  1  0  0  0  0
 24 49  1  0  0  0  0
M  END
> <s_m_source_file>
AV-unprocessed.smi

> <i_m_source_file_index>
2339

> <i_lp_mmshare_version>
43012

> <i_f3d_flags>
0

> <s_epik_input>
W0NIM11bQ0gyXW4xW2NIXVtjSF1jKD1PKWMoW2NIXTEpW05IXUMoPU8pW05IXVtDQEBIXTJbQ0BASF0oW0NIMl1bQ0gyXU8zKVtDQEBIXTNDMjRbQ0gyXVtDSDJdW0NIMl1bQ0gyXTQ=

> <s_epik_cmdline>
J2VwaWtfcHl0aG9uJywgJy1waCcsICc3LjAnLCAnLXRuJywgJzgnLCAnLW1hJywgJzIwMCcsICctbWV0YWxfYmluZGluZycsICctaW1hZScsICc8aW5maWxlLm1hZT4nLCAnLW9tYWUnLCAnPG91dGZpbGUubWFlPic=

> <r_lp_tautomer_probability>
1

> <r_epik_Ionization_Penalty>
0.00145966

> <r_epik_Ionization_Penalty_Charging>
0.00143969

> <r_epik_Ionization_Penalty_Neutral>
1.99697e-05

> <r_epik_State_Penalty>
0.000961843

> <r_epik_Charging_Adjusted_Penalty>
0.00240153

> <i_epik_Tot_Q>
0

> <i_epik_Tot_abs_Q>
0

> <r_epik_Metal_State_Penalty>
-0

> <b_epik_Metal_Only>
0

> <s_lp_Force_Field>
OPLS_2005

> <r_lp_Energy>
57.0786

> <b_lp_Chiralities_Consistent>
1

> <s_lp_Variant>
AV-unprocessed.smi:2339-1

> <Gold.Version>
5.8.1

> <Gold.Id.Protein>
6NUR|6NUR_protein|mol2

> <Gold.PLP.Fitness>
43.3485

> <Gold.PLP.PLP>
-34.8792

> <Gold.PLP.part.hbond>
-3.0000

> <Gold.PLP.part.metal>
0.0000

> <Gold.PLP.part.buried>
-3.4011

> <Gold.PLP.part.nonpolar>
-29.8619

> <Gold.PLP.part.repulsive>
1.0587

> <Gold.PLP.ligand.clash>
0.0000

> <Gold.PLP.ligand.torsion>
0.2835

> <Gold.PLP.Chemscore.Hbond>
2.9520

> <Gold.PLP.Chemscore.CHOScore>
0.0000

> <Gold.PLP.Chemscore.Metal>
0.0000

> <Gold.Chemscore.Hbonds>
donor molecule, donor type, donor heavy atom, donor atom, acceptor molecule, acceptor atom, score
      L1  H     9    32       P1  7948  1.00
      L1  H    12    33       P1  7948  0.99
      P1  H 10752 10764       L1     7  0.94

> <Gold.PLP.Chemscore.Internal.Correction>
0.1803

> <Gold.Rescore>
     Score         DG    S(hbond)    S(metal)    S(lipo)     H(rot)  DE(clash)    DE(int)     intcor
     18.94     -21.06       2.81        0.00      78.49       1.17       0.25       1.88       ----

> <Gold.Chemscore.Fitness>
18.9370

> <Gold.Chemscore.DG>
-21.0641

> <Gold.Chemscore.ZeroCoef>
-5.4800

> <Gold.Chemscore.Hbond>
2.8109

> <Gold.Chemscore.Metal>
0.0000

> <Gold.Chemscore.Lipo>
78.4892

> <Gold.Chemscore.Internal_Hbond>
0.0000

> <Gold.Chemscore.DEClash>
0.2473

> <Gold.Chemscore.DEInternal>
1.8799

> <Gold.Chemscore.Rot>
1.1670

> <Gold.Chemscore.Internal.Correction>
   9.000000E+99

> <Gold.Chemscore.Hbonds>
donor molecule, donor type, donor heavy atom, donor atom, acceptor molecule, acceptor atom, score
      L1  H     9    32       P1  7948  0.96
      L1  H    12    33       P1  7948  0.94
      P1  H 10752 10764       L1     7  0.90

> <Gold.Chemscore.Hbond.Weighted>
-9.3883

> <Gold.Chemscore.Metal.Weighted>
-0.0000

> <Gold.Chemscore.Lipo.Weighted>
-9.1832

> <Gold.Chemscore.Internal_Hbond.Weighted>
0.0000

> <Gold.Chemscore.DEClash.Weighted>
0.2473

> <Gold.Chemscore.DEInternal.Weighted>
1.8799

> <Gold.Chemscore.Rot.Weighted>
2.9874

> <Gold.Chemscore.Internal.Correction.Weighted>
   9.000000E+99

> <Gold.Protein.RotatedTorsions>
[ 6907 6896 6895 6894 ] final   13.53 input  -60.11 | X-H torsion
[ 7974 7965 7964 7962 ] final -143.99 input  175.53 | X-H torsion
[ 8008 7997 7996 7995 ] final   94.02 input   59.86 | X-H torsion
[ 10167 10162 10161 10158 ] final -144.19 input  -65.29 | X-H torsion
[ 10718 10713 10712 10709 ] final  -57.08 input   66.30 | X-H torsion
[ 10763 10752 10751 10750 ] final  -85.11 input  -60.55 | X-H torsion
[ 11005 11000 10999 10996 ] final  -25.06 input  -57.11 | X-H torsion

> <Gold.Protein.ActiveResidues>
 VAL166  LYS551  ARG553  GLY616  TRP617  ASP618  TYR619  PRO620  LYS621  CYS622 
 ASP623  PHE694  ASN695  SER759  ASP760  ASP761  ALA762  ILE779  LEU786  VAL792 
 PHE793  MET794  SER795  GLU796  ALA797  LYS798  CYS799  TRP800  GLU811  SER814 

> <Gold.Protein.RotatedAtoms>
  151.7877  135.0744  160.0382 H   0  0  0  0  0  0  0  0  0  0  0  0  # atno 6907 bound_to 6896
  152.3178  133.5817  159.5732 H   0  0  0  0  0  0  0  0  0  0  0  0  # atno 6908 bound_to 6896
  150.7353  133.9972  159.3668 H   0  0  0  0  0  0  0  0  0  0  0  0  # atno 6909 bound_to 6896
  144.8329  140.5766  143.5503 H   0  0  0  0  0  0  0  0  0  0  0  0  # atno 7974 bound_to 7965
  156.0533  140.3305  155.7376 H   0  0  0  0  0  0  0  0  0  0  0  0  # atno 8008 bound_to 7997
  155.5568  140.0615  157.2855 H   0  0  0  0  0  0  0  0  0  0  0  0  # atno 8009 bound_to 7997
  154.4446  140.1884  156.0730 H   0  0  0  0  0  0  0  0  0  0  0  0  # atno 8010 bound_to 7997
  139.7922  143.7950  152.2651 H   0  0  0  0  0  0  0  0  0  0  0  0  # atno 10167 bound_to 10162
  156.1238  130.4164  150.0392 H   0  0  0  0  0  0  0  0  0  0  0  0  # atno 10718 bound_to 10713
  154.6073  135.5497  153.7436 H   0  0  0  0  0  0  0  0  0  0  0  0  # atno 10763 bound_to 10752
  153.0180  135.6381  154.1629 H   0  0  0  0  0  0  0  0  0  0  0  0  # atno 10764 bound_to 10752
  154.1568  135.2899  155.3100 H   0  0  0  0  0  0  0  0  0  0  0  0  # atno 10765 bound_to 10752
  140.8903  133.7593  156.0413 H   0  0  0  0  0  0  0  0  0  0  0  0  # atno 11005 bound_to 11000
  145.4856  139.1492  143.3738 LP  0  0  0  0  0  0  0  0  0  0  0  0  # atno 17320 bound_to 7965
  146.2631  140.4993  142.8845 LP  0  0  0  0  0  0  0  0  0  0  0  0  # atno 17321 bound_to 7965
  139.8044  144.7361  150.9781 LP  0  0  0  0  0  0  0  0  0  0  0  0  # atno 17342 bound_to 10162
  140.7820  143.4312  151.0691 LP  0  0  0  0  0  0  0  0  0  0  0  0  # atno 17343 bound_to 10162
  156.8323  130.9396  151.3636 LP  0  0  0  0  0  0  0  0  0  0  0  0  # atno 17370 bound_to 10713
  157.6421  130.8814  149.9468 LP  0  0  0  0  0  0  0  0  0  0  0  0  # atno 17371 bound_to 10713
  140.8354  134.3129  157.5333 LP  0  0  0  0  0  0  0  0  0  0  0  0  # atno 17394 bound_to 11000
  139.8729  134.9387  156.3721 LP  0  0  0  0  0  0  0  0  0  0  0  0  # atno 17395 bound_to 11000

$$$$
