AV-unprocessed.smi:598|AV-procd|sdf|3026|dock7
  -GOLD-   2262023533D 1   1.00000     0.00000
 Structure written by MMmdl.
 43 44  0  0  0  0  0  0  0  0  3 V2000
  146.7372  131.2071  152.3839 C   0  0  0  0  0  0  0  0  0  0  0  0
  147.4883  132.0482  153.4324 C   0  0  1  0  0  0  0  0  0  0  0  0
  148.9913  131.7084  153.3825 C   0  0  0  0  0  0  0  0  0  0  0  0
  149.7884  132.4927  154.4298 C   0  0  0  0  0  0  0  0  0  0  0  0
  149.5891  133.9990  154.2410 C   0  0  0  0  0  0  0  0  0  0  0  0
  148.0971  134.3798  154.3007 C   0  0  1  0  0  0  0  0  0  0  0  0
  147.9587  135.8171  154.0713 N   0  0  0  0  0  0  0  0  0  0  0  0
  147.5233  136.7114  154.9717 C   0  0  0  0  0  0  0  0  0  0  0  0
  147.2014  136.4099  156.1220 O   0  0  0  0  0  0  0  0  0  0  0  0
  147.4664  138.1693  154.4940 C   0  0  0  0  0  0  0  0  0  0  0  0
  148.6432  138.9590  154.8940 N   0  0  0  0  0  0  0  0  0  0  0  0
  149.9045  138.4759  154.4927 C   0  0  0  0  0  0  0  0  0  0  0  0
  151.0490  139.1126  154.8096 C   0  0  0  0  0  0  0  0  0  0  0  0
  152.3359  138.5976  154.3964 N   0  3  0  0  0  0  0  0  0  0  0  0
  153.3286  139.3022  154.5491 O   0  0  0  0  0  0  0  0  0  0  0  0
  152.3981  137.4738  153.9065 O   0  5  0  0  0  0  0  0  0  0  0  0
  150.9485  140.3328  155.5868 C   0  0  0  0  0  0  0  0  0  0  0  0
  149.7456  140.7973  155.9778 C   0  0  0  0  0  0  0  0  0  0  0  0
  148.5016  140.0991  155.6373 C   0  0  0  0  0  0  0  0  0  0  0  0
  147.3999  140.5141  155.9982 O   0  0  0  0  0  0  0  0  0  0  0  0
  147.2527  133.5776  153.2730 C   0  0  2  0  0  0  0  0  0  0  0  0
  145.7560  133.9452  153.3790 C   0  0  0  0  0  0  0  0  0  0  0  0
  146.9938  131.5153  151.3700 H   0  0  0  0  0  0  0  0  0  0  0  0
  145.6564  131.2844  152.4970 H   0  0  0  0  0  0  0  0  0  0  0  0
  146.9862  130.1499  152.4802 H   0  0  0  0  0  0  0  0  0  0  0  0
  147.1184  131.7513  154.4149 H   0  0  0  0  0  0  0  0  0  0  0  0
  149.1384  130.6403  153.5467 H   0  0  0  0  0  0  0  0  0  0  0  0
  149.3870  131.9237  152.3890 H   0  0  0  0  0  0  0  0  0  0  0  0
  149.4724  132.2003  155.4319 H   0  0  0  0  0  0  0  0  0  0  0  0
  150.8474  132.2450  154.3527 H   0  0  0  0  0  0  0  0  0  0  0  0
  150.1467  134.5368  155.0089 H   0  0  0  0  0  0  0  0  0  0  0  0
  150.0120  134.3035  153.2825 H   0  0  0  0  0  0  0  0  0  0  0  0
  147.7211  134.1411  155.2978 H   0  0  0  0  0  0  0  0  0  0  0  0
  148.2066  136.1544  153.1523 H   0  0  0  0  0  0  0  0  0  0  0  0
  147.3603  138.1667  153.4082 H   0  0  0  0  0  0  0  0  0  0  0  0
  146.5532  138.6365  154.8674 H   0  0  0  0  0  0  0  0  0  0  0  0
  149.8721  137.5572  153.9249 H   0  0  0  0  0  0  0  0  0  0  0  0
  151.8370  140.8820  155.8620 H   0  0  0  0  0  0  0  0  0  0  0  0
  149.6944  141.7074  156.5577 H   0  0  0  0  0  0  0  0  0  0  0  0
  147.5889  133.8617  152.2743 H   0  0  0  0  0  0  0  0  0  0  0  0
  145.3415  133.6366  154.3392 H   0  0  0  0  0  0  0  0  0  0  0  0
  145.1664  133.4752  152.5931 H   0  0  0  0  0  0  0  0  0  0  0  0
  145.5913  135.0180  153.2798 H   0  0  0  0  0  0  0  0  0  0  0  0
  1  2  1  0  0  0  0
  1 23  1  0  0  0  0
  1 24  1  0  0  0  0
  1 25  1  0  0  0  0
  2 21  1  0  0  0  0
  2  3  1  0  0  0  0
  2 26  1  0  0  0  0
  3  4  1  0  0  0  0
  3 27  1  0  0  0  0
  3 28  1  0  0  0  0
  4  5  1  0  0  0  0
  4 29  1  0  0  0  0
  4 30  1  0  0  0  0
  5  6  1  0  0  0  0
  5 31  1  0  0  0  0
  5 32  1  0  0  0  0
  6  7  1  0  0  0  0
  6 21  1  0  0  0  0
  6 33  1  0  0  0  0
  7  8  1  0  0  0  0
  7 34  1  0  0  0  0
  8  9  2  0  0  0  0
  8 10  1  0  0  0  0
 10 11  1  0  0  0  0
 10 35  1  0  0  0  0
 10 36  1  0  0  0  0
 11 19  1  0  0  0  0
 11 12  1  0  0  0  0
 12 13  2  0  0  0  0
 12 37  1  0  0  0  0
 13 14  1  0  0  0  0
 13 17  1  0  0  0  0
 14 15  2  0  0  0  0
 14 16  1  0  0  0  0
 17 18  2  0  0  0  0
 17 38  1  0  0  0  0
 18 19  1  0  0  0  0
 18 39  1  0  0  0  0
 19 20  2  0  0  0  0
 21 22  1  0  0  0  0
 21 40  1  0  0  0  0
 22 41  1  0  0  0  0
 22 42  1  0  0  0  0
 22 43  1  0  0  0  0
M  CHG  1  14   1
M  CHG  1  16  -1
M  END
> <s_m_source_file>
AV-unprocessed.smi

> <i_m_source_file_index>
598

> <i_lp_mmshare_version>
43012

> <i_f3d_flags>
0

> <s_epik_input>
W0NIM11bQ0BASF0xW0NIMl1bQ0gyXVtDSDJdW0NASF0oW0NASF0xW0NIM10pW05IXUMoPU8pW0NIMl1uMltjSF1jKFtOK10oPU8pW08tXSlbY0hdW2NIXWMyPU8=

> <s_epik_cmdline>
J2VwaWtfcHl0aG9uJywgJy1waCcsICc3LjAnLCAnLXRuJywgJzgnLCAnLW1hJywgJzIwMCcsICctbWV0YWxfYmluZGluZycsICctaW1hZScsICc8aW5maWxlLm1hZT4nLCAnLW9tYWUnLCAnPG91dGZpbGUubWFlPic=

> <r_lp_tautomer_probability>
1

> <r_epik_Ionization_Penalty>
1.91291e-08

> <r_epik_Ionization_Penalty_Charging>
8.21931e-11

> <r_epik_Ionization_Penalty_Neutral>
1.90469e-08

> <r_epik_State_Penalty>
-0

> <r_epik_Charging_Adjusted_Penalty>
8.21931e-11

> <i_epik_Tot_Q>
0

> <i_epik_Tot_abs_Q>
2

> <r_epik_Metal_State_Penalty>
-0

> <b_epik_Metal_Only>
0

> <s_lp_Force_Field>
OPLS_2005

> <r_lp_Energy>
23.592

> <b_lp_Chiralities_Consistent>
1

> <s_lp_Variant>
AV-unprocessed.smi:598-6

> <Gold.Version>
5.8.1

> <Gold.Id.Protein>
6NUR|6NUR_protein|mol2

> <Gold.PLP.Fitness>
42.9018

> <Gold.PLP.PLP>
-33.0492

> <Gold.PLP.part.hbond>
-2.6781

> <Gold.PLP.part.metal>
0.0000

> <Gold.PLP.part.buried>
-5.0554

> <Gold.PLP.part.nonpolar>
-27.2702

> <Gold.PLP.part.repulsive>
0.2076

> <Gold.PLP.ligand.clash>
0.0000

> <Gold.PLP.ligand.torsion>
0.3864

> <Gold.PLP.Chemscore.Hbond>
2.6615

> <Gold.PLP.Chemscore.CHOScore>
0.8774

> <Gold.PLP.Chemscore.Metal>
0.0000

> <Gold.Chemscore.Hbonds>
donor molecule, donor type, donor heavy atom, donor atom, acceptor molecule, acceptor atom, score
      L1  H     7    34       P1  7948  0.89
      P1  H  7997  8010       L1    15  1.00
      P1  H 10752 10764       L1    16  0.77
      L1  C    12    37       P1  7948  0.87

> <Gold.PLP.Chemscore.Internal.Correction>
0.0086

> <Gold.Rescore>
     Score         DG    S(hbond)    S(metal)    S(lipo)     H(rot)  DE(clash)    DE(int)     intcor
     17.94     -18.34       2.70        0.00      66.43       1.54       0.00       0.40       ----

> <Gold.Chemscore.Fitness>
17.9444

> <Gold.Chemscore.DG>
-18.3422

> <Gold.Chemscore.ZeroCoef>
-5.4800

> <Gold.Chemscore.Hbond>
2.7036

> <Gold.Chemscore.Metal>
0.0000

> <Gold.Chemscore.Lipo>
66.4340

> <Gold.Chemscore.Internal_Hbond>
0.0000

> <Gold.Chemscore.DEClash>
0.0009

> <Gold.Chemscore.DEInternal>
0.3970

> <Gold.Chemscore.Rot>
1.5393

> <Gold.Chemscore.Internal.Correction>
   9.000000E+99

> <Gold.Chemscore.Hbonds>
donor molecule, donor type, donor heavy atom, donor atom, acceptor molecule, acceptor atom, score
      L1  H     7    34       P1  7948  0.86
      P1  H  7997  8010       L1    15  0.99
      P1  H 10752 10764       L1    16  0.78

> <Gold.Chemscore.Hbond.Weighted>
-9.0301

> <Gold.Chemscore.Metal.Weighted>
-0.0000

> <Gold.Chemscore.Lipo.Weighted>
-7.7728

> <Gold.Chemscore.Internal_Hbond.Weighted>
0.0000

> <Gold.Chemscore.DEClash.Weighted>
0.0009

> <Gold.Chemscore.DEInternal.Weighted>
0.3970

> <Gold.Chemscore.Rot.Weighted>
3.9407

> <Gold.Chemscore.Internal.Correction.Weighted>
   9.000000E+99

> <Gold.Protein.RotatedTorsions>
[ 6907 6896 6895 6894 ] final  -44.80 input  -60.11 | X-H torsion
[ 7974 7965 7964 7962 ] final -112.89 input  175.53 | X-H torsion
[ 8008 7997 7996 7995 ] final  112.83 input   59.86 | X-H torsion
[ 10167 10162 10161 10158 ] final  146.98 input  -65.29 | X-H torsion
[ 10718 10713 10712 10709 ] final   88.47 input   66.30 | X-H torsion
[ 10763 10752 10751 10750 ] final  -89.07 input  -60.55 | X-H torsion
[ 11005 11000 10999 10996 ] final  124.85 input  -57.11 | X-H torsion

> <Gold.Protein.ActiveResidues>
 VAL166  LYS551  ARG553  GLY616  TRP617  ASP618  TYR619  PRO620  LYS621  CYS622 
 ASP623  PHE694  ASN695  SER759  ASP760  ASP761  ALA762  ILE779  LEU786  VAL792 
 PHE793  MET794  SER795  GLU796  ALA797  LYS798  CYS799  TRP800  GLU811  SER814 

> <Gold.Protein.RotatedAtoms>
  150.9288  134.8704  159.7537 H   0  0  0  0  0  0  0  0  0  0  0  0  # atno 6907 bound_to 6896
  152.5028  134.4109  159.9458 H   0  0  0  0  0  0  0  0  0  0  0  0  # atno 6908 bound_to 6896
  151.4137  133.3679  159.2782 H   0  0  0  0  0  0  0  0  0  0  0  0  # atno 6909 bound_to 6896
  145.1386  140.8765  143.3716 H   0  0  0  0  0  0  0  0  0  0  0  0  # atno 7974 bound_to 7965
  156.2218  140.2991  155.9971 H   0  0  0  0  0  0  0  0  0  0  0  0  # atno 8008 bound_to 7997
  155.2461  140.0424  157.2998 H   0  0  0  0  0  0  0  0  0  0  0  0  # atno 8009 bound_to 7997
  154.5853  140.2386  155.8004 H   0  0  0  0  0  0  0  0  0  0  0  0  # atno 8010 bound_to 7997
  139.4898  144.5790  151.6909 H   0  0  0  0  0  0  0  0  0  0  0  0  # atno 10167 bound_to 10162
  157.6949  131.0296  150.3280 H   0  0  0  0  0  0  0  0  0  0  0  0  # atno 10718 bound_to 10713
  154.6513  135.5354  153.7905 H   0  0  0  0  0  0  0  0  0  0  0  0  # atno 10763 bound_to 10752
  153.0388  135.6483  154.1012 H   0  0  0  0  0  0  0  0  0  0  0  0  # atno 10764 bound_to 10752
  154.0929  135.2938  155.3247 H   0  0  0  0  0  0  0  0  0  0  0  0  # atno 10765 bound_to 10752
  139.9378  134.9638  156.8471 H   0  0  0  0  0  0  0  0  0  0  0  0  # atno 11005 bound_to 11000
  145.0557  139.3145  143.5906 LP  0  0  0  0  0  0  0  0  0  0  0  0  # atno 17320 bound_to 7965
  146.3507  139.9981  142.8679 LP  0  0  0  0  0  0  0  0  0  0  0  0  # atno 17321 bound_to 7965
  140.5392  144.0607  150.6082 LP  0  0  0  0  0  0  0  0  0  0  0  0  # atno 17342 bound_to 10162
  140.3623  143.2901  152.0370 LP  0  0  0  0  0  0  0  0  0  0  0  0  # atno 17343 bound_to 10162
  156.3757  130.3871  149.7140 LP  0  0  0  0  0  0  0  0  0  0  0  0  # atno 17370 bound_to 10713
  156.4539  130.7920  151.2941 LP  0  0  0  0  0  0  0  0  0  0  0  0  # atno 17371 bound_to 10713
  140.6030  134.0154  155.7545 LP  0  0  0  0  0  0  0  0  0  0  0  0  # atno 17394 bound_to 11000
  141.1000  133.9783  157.3095 LP  0  0  0  0  0  0  0  0  0  0  0  0  # atno 17395 bound_to 11000

$$$$
