AV-unprocessed.smi:1207|AV-procd|sdf|5056|dock1
  -GOLD-   22720 4 93D 1   1.00000     0.00000
 Structure written by MMmdl.
 52 54  0  0  0  0  0  0  0  0  2 V2000
  152.3414  144.0084  161.2846 C   0  0  0  0  0  0  0  0  0  0  0  0
  152.0993  143.1137  160.0806 C   0  0  0  0  0  0  0  0  0  0  0  0
  151.2125  143.5614  159.0751 C   0  0  0  0  0  0  0  0  0  0  0  0
  151.0068  142.7181  157.9897 C   0  0  0  0  0  0  0  0  0  0  0  0
  150.2045  142.8632  156.8555 N   0  3  0  0  0  0  0  0  0  0  0  0
  150.3303  141.7607  156.0657 C   0  0  0  0  0  0  0  0  0  0  0  0
  151.2027  140.9156  156.6788 N   0  0  0  0  0  0  0  0  0  0  0  0
  151.6860  139.5924  156.2642 C   0  0  0  0  0  0  0  0  0  0  0  0
  150.6759  138.8393  155.3773 C   0  0  1  0  0  0  0  0  0  0  0  0
  150.6919  139.4040  154.0807 O   0  0  0  0  0  0  0  0  0  0  0  0
  151.0279  137.3425  155.2656 C   0  0  0  0  0  0  0  0  0  0  0  0
  150.5516  136.4961  156.3628 N   0  0  0  0  0  0  0  0  0  0  0  0
  150.7114  135.0734  156.0592 C   0  0  0  0  0  0  0  0  0  0  0  0
  149.1577  136.8092  156.6814 C   0  0  0  0  0  0  0  0  0  0  0  0
  148.9093  136.9503  158.1617 C   0  0  0  0  0  0  0  0  0  0  0  0
  147.6606  136.9597  158.8464 C   0  0  0  0  0  0  0  0  0  0  0  0
  146.2802  136.8293  158.2702 C   0  0  0  0  0  0  0  0  0  0  0  0
  147.8142  137.1010  160.1525 N   0  0  0  0  0  0  0  0  0  0  0  0
  149.1931  137.1874  160.3689 O   0  0  0  0  0  0  0  0  0  0  0  0
  149.8223  137.0957  159.1698 C   0  0  0  0  0  0  0  0  0  0  0  0
  151.3119  137.1625  159.1887 C   0  0  0  0  0  0  0  0  0  0  0  0
  151.6504  141.4702  157.8817 C   0  0  0  0  0  0  0  0  0  0  0  0
  152.5294  141.0148  158.8608 C   0  0  0  0  0  0  0  0  0  0  0  0
  152.7493  141.8567  159.9745 C   0  0  0  0  0  0  0  0  0  0  0  0
  153.6995  141.3849  161.0617 C   0  0  0  0  0  0  0  0  0  0  0  0
  151.7946  144.9479  161.2002 H   0  0  0  0  0  0  0  0  0  0  0  0
  153.4007  144.2481  161.3798 H   0  0  0  0  0  0  0  0  0  0  0  0
  152.0141  143.5135  162.1993 H   0  0  0  0  0  0  0  0  0  0  0  0
  150.7138  144.5167  159.1492 H   0  0  0  0  0  0  0  0  0  0  0  0
  149.8265  141.5857  155.1260 H   0  0  0  0  0  0  0  0  0  0  0  0
  152.6260  139.7393  155.7301 H   0  0  0  0  0  0  0  0  0  0  0  0
  151.9254  139.0177  157.1597 H   0  0  0  0  0  0  0  0  0  0  0  0
  149.6807  138.9733  155.7975 H   0  0  0  0  0  0  0  0  0  0  0  0
  149.9152  139.1179  153.6239 H   0  0  0  0  0  0  0  0  0  0  0  0
  150.6194  136.9777  154.3218 H   0  0  0  0  0  0  0  0  0  0  0  0
  152.1100  137.2336  155.1783 H   0  0  0  0  0  0  0  0  0  0  0  0
  150.3489  134.4509  156.8774 H   0  0  0  0  0  0  0  0  0  0  0  0
  151.7573  134.8091  155.9128 H   0  0  0  0  0  0  0  0  0  0  0  0
  150.1600  134.7984  155.1593 H   0  0  0  0  0  0  0  0  0  0  0  0
  148.8804  137.7432  156.1910 H   0  0  0  0  0  0  0  0  0  0  0  0
  148.5051  136.0517  156.2454 H   0  0  0  0  0  0  0  0  0  0  0  0
  146.2323  136.0069  157.5562 H   0  0  0  0  0  0  0  0  0  0  0  0
  145.9895  137.7407  157.7475 H   0  0  0  0  0  0  0  0  0  0  0  0
  145.5352  136.6372  159.0436 H   0  0  0  0  0  0  0  0  0  0  0  0
  151.6998  137.4798  158.2206 H   0  0  0  0  0  0  0  0  0  0  0  0
  151.7366  136.1855  159.4188 H   0  0  0  0  0  0  0  0  0  0  0  0
  151.6611  137.8708  159.9399 H   0  0  0  0  0  0  0  0  0  0  0  0
  153.0229  140.0576  158.7790 H   0  0  0  0  0  0  0  0  0  0  0  0
  154.1031  140.3967  160.8383 H   0  0  0  0  0  0  0  0  0  0  0  0
  153.1850  141.3251  162.0211 H   0  0  0  0  0  0  0  0  0  0  0  0
  154.5393  142.0730  161.1602 H   0  0  0  0  0  0  0  0  0  0  0  0
  149.6122  143.6535  156.6349 H   0  0  0  0  0  0  0  0  0  0  0  0
  1  2  1  0  0  0  0
  1 26  1  0  0  0  0
  1 27  1  0  0  0  0
  1 28  1  0  0  0  0
  2 24  1  0  0  0  0
  2  3  2  0  0  0  0
  3  4  1  0  0  0  0
  3 29  1  0  0  0  0
  4 22  2  0  0  0  0
  4  5  1  0  0  0  0
  5  6  2  0  0  0  0
  5 52  1  0  0  0  0
  6  7  1  0  0  0  0
  6 30  1  0  0  0  0
  7  8  1  0  0  0  0
  7 22  1  0  0  0  0
  8  9  1  0  0  0  0
  8 31  1  0  0  0  0
  8 32  1  0  0  0  0
  9 10  1  0  0  0  0
  9 11  1  0  0  0  0
  9 33  1  0  0  0  0
 10 34  1  0  0  0  0
 11 12  1  0  0  0  0
 11 35  1  0  0  0  0
 11 36  1  0  0  0  0
 12 13  1  0  0  0  0
 12 14  1  0  0  0  0
 13 37  1  0  0  0  0
 13 38  1  0  0  0  0
 13 39  1  0  0  0  0
 14 15  1  0  0  0  0
 14 40  1  0  0  0  0
 14 41  1  0  0  0  0
 15 20  2  0  0  0  0
 15 16  1  0  0  0  0
 16 17  1  0  0  0  0
 16 18  2  0  0  0  0
 17 42  1  0  0  0  0
 17 43  1  0  0  0  0
 17 44  1  0  0  0  0
 18 19  1  0  0  0  0
 19 20  1  0  0  0  0
 20 21  1  0  0  0  0
 21 45  1  0  0  0  0
 21 46  1  0  0  0  0
 21 47  1  0  0  0  0
 22 23  1  0  0  0  0
 23 24  2  0  0  0  0
 23 48  1  0  0  0  0
 24 25  1  0  0  0  0
 25 49  1  0  0  0  0
 25 50  1  0  0  0  0
 25 51  1  0  0  0  0
M  CHG  1   5   1
M  END
> <s_m_source_file>
AV-unprocessed.smi

> <i_m_source_file_index>
1207

> <i_lp_mmshare_version>
43012

> <i_f3d_flags>
0

> <s_epik_input>
W0NIM11jKFtjSF0xKWMoW0NIM10pW2NIXWMoYzEyKW4oW2NIXW4yKVtDSDJdW0NASF0oW09IXSlbQ0gyXU4oW0NIM10pW0NIMl1jM2MoW0NIM10pbm9jM1tDSDNd

> <s_epik_cmdline>
J2VwaWtfcHl0aG9uJywgJy1waCcsICc3LjAnLCAnLXRuJywgJzgnLCAnLW1hJywgJzIwMCcsICctbWV0YWxfYmluZGluZycsICctaW1hZScsICc8aW5maWxlLm1hZT4nLCAnLW9tYWUnLCAnPG91dGZpbGUubWFlPic=

> <r_epik_Ionization_Penalty>
1.48114

> <r_epik_Ionization_Penalty_Charging>
1.21121

> <r_epik_Ionization_Penalty_Neutral>
0.269933

> <r_epik_State_Penalty>
1.53013

> <r_epik_Charging_Adjusted_Penalty>
2.74134

> <i_epik_Tot_Q>
1

> <i_epik_Tot_abs_Q>
1

> <r_epik_Metal_State_Penalty>
1.60462

> <b_epik_Metal_Only>
0

> <s_lp_Force_Field>
OPLS_2005

> <r_lp_Energy>
20.0432

> <b_lp_Chiralities_Consistent>
1

> <s_lp_Variant>
AV-unprocessed.smi:1207-8

> <Gold.Version>
5.8.1

> <Gold.Id.Protein>
6NUR|6NUR_protein|mol2

> <Gold.PLP.Fitness>
53.3965

> <Gold.PLP.PLP>
-43.5045

> <Gold.PLP.part.hbond>
-5.4689

> <Gold.PLP.part.metal>
0.0000

> <Gold.PLP.part.buried>
-4.6063

> <Gold.PLP.part.nonpolar>
-35.3074

> <Gold.PLP.part.repulsive>
0.0484

> <Gold.PLP.ligand.clash>
0.0000

> <Gold.PLP.ligand.torsion>
1.6156

> <Gold.PLP.Chemscore.Hbond>
4.2920

> <Gold.PLP.Chemscore.CHOScore>
0.0000

> <Gold.PLP.Chemscore.Metal>
0.0000

> <Gold.Chemscore.Hbonds>
donor molecule, donor type, donor heavy atom, donor atom, acceptor molecule, acceptor atom, score
      L1  H     5    52       P1  8028  2.00
      P1  H  6931  6943       L1    19  0.42
      P1  H  6934  6947       L1    18  0.58
      P1  H  7989  7998       L1    10  1.00

> <Gold.PLP.Chemscore.Internal.Correction>
0.2471

> <Gold.Rescore>
     Score         DG    S(hbond)    S(metal)    S(lipo)     H(rot)  DE(clash)    DE(int)     intcor
     19.59     -21.41       2.60        0.00     115.62       2.46       0.07       1.76       ----

> <Gold.Chemscore.Fitness>
19.5884

> <Gold.Chemscore.DG>
-21.4148

> <Gold.Chemscore.ZeroCoef>
-5.4800

> <Gold.Chemscore.Hbond>
2.6026

> <Gold.Chemscore.Metal>
0.0000

> <Gold.Chemscore.Lipo>
115.6247

> <Gold.Chemscore.Internal_Hbond>
0.0000

> <Gold.Chemscore.DEClash>
0.0680

> <Gold.Chemscore.DEInternal>
1.7584

> <Gold.Chemscore.Rot>
2.4555

> <Gold.Chemscore.Internal.Correction>
   9.000000E+99

> <Gold.Chemscore.Hbonds>
donor molecule, donor type, donor heavy atom, donor atom, acceptor molecule, acceptor atom, score
      L1  H     5    52       P1  8028  0.97
      P1  H  6931  6943       L1    19  0.06
      P1  H  6934  6947       L1    18  0.13
      P1  H  7989  7998       L1    10  0.97

> <Gold.Chemscore.Hbond.Weighted>
-8.6928

> <Gold.Chemscore.Metal.Weighted>
-0.0000

> <Gold.Chemscore.Lipo.Weighted>
-13.5281

> <Gold.Chemscore.Internal_Hbond.Weighted>
0.0000

> <Gold.Chemscore.DEClash.Weighted>
0.0680

> <Gold.Chemscore.DEInternal.Weighted>
1.7584

> <Gold.Chemscore.Rot.Weighted>
6.2861

> <Gold.Chemscore.Internal.Correction.Weighted>
   9.000000E+99

> <Gold.Protein.RotatedTorsions>
[ 6907 6896 6895 6894 ] final  -23.59 input  -60.11 | X-H torsion
[ 7974 7965 7964 7962 ] final  177.02 input  175.53 | X-H torsion
[ 8008 7997 7996 7995 ] final   67.84 input   59.86 | X-H torsion
[ 10167 10162 10161 10158 ] final   61.66 input  -65.29 | X-H torsion
[ 10718 10713 10712 10709 ] final  -11.32 input   66.30 | X-H torsion
[ 10763 10752 10751 10750 ] final  -59.76 input  -60.55 | X-H torsion
[ 11005 11000 10999 10996 ] final -136.38 input  -57.11 | X-H torsion

> <Gold.Protein.ActiveResidues>
 VAL166  LYS551  ARG553  GLY616  TRP617  ASP618  TYR619  PRO620  LYS621  CYS622 
 ASP623  PHE694  ASN695  SER759  ASP760  ASP761  ALA762  ILE779  LEU786  VAL792 
 PHE793  MET794  SER795  GLU796  ALA797  LYS798  CYS799  TRP800  GLU811  SER814 

> <Gold.Protein.RotatedAtoms>
  151.2018  135.0446  159.8875 H   0  0  0  0  0  0  0  0  0  0  0  0  # atno 6907 bound_to 6896
  152.5432  134.0841  159.8258 H   0  0  0  0  0  0  0  0  0  0  0  0  # atno 6908 bound_to 6896
  151.0983  133.5215  159.2643 H   0  0  0  0  0  0  0  0  0  0  0  0  # atno 6909 bound_to 6896
  144.7175  140.0185  143.6440 H   0  0  0  0  0  0  0  0  0  0  0  0  # atno 7974 bound_to 7965
  155.6991  140.3495  155.4925 H   0  0  0  0  0  0  0  0  0  0  0  0  # atno 8008 bound_to 7997
  155.9457  140.1110  157.1041 H   0  0  0  0  0  0  0  0  0  0  0  0  # atno 8009 bound_to 7997
  154.4111  140.1204  156.4972 H   0  0  0  0  0  0  0  0  0  0  0  0  # atno 8010 bound_to 7997
  140.1523  144.4450  150.6752 H   0  0  0  0  0  0  0  0  0  0  0  0  # atno 10167 bound_to 10162
  156.6608  130.4981  149.6031 H   0  0  0  0  0  0  0  0  0  0  0  0  # atno 10718 bound_to 10713
  154.2588  135.6312  153.5267 H   0  0  0  0  0  0  0  0  0  0  0  0  # atno 10763 bound_to 10752
  152.9899  135.5582  154.5727 H   0  0  0  0  0  0  0  0  0  0  0  0  # atno 10764 bound_to 10752
  154.5271  135.2886  155.1187 H   0  0  0  0  0  0  0  0  0  0  0  0  # atno 10765 bound_to 10752
  140.8810  134.1932  157.4591 H   0  0  0  0  0  0  0  0  0  0  0  0  # atno 11005 bound_to 11000
  146.0200  139.3243  143.0818 LP  0  0  0  0  0  0  0  0  0  0  0  0  # atno 17320 bound_to 7965
  145.8579  140.9492  143.0715 LP  0  0  0  0  0  0  0  0  0  0  0  0  # atno 17321 bound_to 7965
  140.6694  143.2280  151.5662 LP  0  0  0  0  0  0  0  0  0  0  0  0  # atno 17342 bound_to 10162
  139.5420  144.2623  152.1369 LP  0  0  0  0  0  0  0  0  0  0  0  0  # atno 17343 bound_to 10162
  156.2013  130.6621  151.1170 LP  0  0  0  0  0  0  0  0  0  0  0  0  # atno 17370 bound_to 10713
  157.7110  131.0734  150.6499 LP  0  0  0  0  0  0  0  0  0  0  0  0  # atno 17371 bound_to 10713
  139.8719  134.9817  156.5127 LP  0  0  0  0  0  0  0  0  0  0  0  0  # atno 17394 bound_to 11000
  140.8461  133.8167  155.9123 LP  0  0  0  0  0  0  0  0  0  0  0  0  # atno 17395 bound_to 11000

$$$$
