AV-unprocessed.smi:389|AV-procd|sdf|2476|dock2
  -GOLD-   2262022413D 1   1.00000     0.00000
 Structure written by MMmdl.
 34 34  0  0  0  0  0  0  0  0  1 V2000
  151.9115  145.5145  159.5050 C   0  0  0  0  0  0  0  0  0  0  0  0
  151.7633  144.0144  159.2099 C   0  0  0  0  0  0  0  0  0  0  0  0
  153.0040  143.2452  159.6927 C   0  0  0  0  0  0  0  0  0  0  0  0
  151.4731  143.7790  157.7101 C   0  0  0  0  0  0  0  0  0  0  0  0
  150.9847  142.3609  157.3462 C   0  0  0  0  0  0  0  0  0  0  0  0
  150.0170  142.3701  156.2544 N   0  0  0  0  0  0  0  0  0  0  0  0
  149.9754  141.4788  155.2529 C   0  0  0  0  0  0  0  0  0  0  0  0
  150.7203  140.5000  155.1886 O   0  0  0  0  0  0  0  0  0  0  0  0
  148.9253  141.7315  154.1626 C   0  0  0  0  0  0  0  0  0  0  0  0
  147.5537  141.4953  154.6365 N   0  0  0  0  0  0  0  0  0  0  0  0
  147.0667  142.1733  155.7450 C   0  0  0  0  0  0  0  0  0  0  0  0
  145.8189  141.9938  156.2395 C   0  0  0  0  0  0  0  0  0  0  0  0
  144.9028  141.0495  155.6091 C   0  0  0  0  0  0  0  0  0  0  0  0
  143.7547  140.8184  155.9822 O   0  0  0  0  0  0  0  0  0  0  0  0
  145.4297  140.3858  154.4979 N   0  0  0  0  0  0  0  0  0  0  0  0
  146.7145  140.5654  153.9832 C   0  0  0  0  0  0  0  0  0  0  0  0
  147.0812  139.9256  152.9977 O   0  0  0  0  0  0  0  0  0  0  0  0
  144.8322  139.7196  154.0301 H   0  0  0  0  0  0  0  0  0  0  0  0
  152.7508  145.9455  158.9584 H   0  0  0  0  0  0  0  0  0  0  0  0
  152.0795  145.6915  160.5678 H   0  0  0  0  0  0  0  0  0  0  0  0
  151.0120  146.0619  159.2214 H   0  0  0  0  0  0  0  0  0  0  0  0
  150.9081  143.6657  159.7897 H   0  0  0  0  0  0  0  0  0  0  0  0
  153.8922  143.5325  159.1294 H   0  0  0  0  0  0  0  0  0  0  0  0
  152.8747  142.1682  159.5875 H   0  0  0  0  0  0  0  0  0  0  0  0
  153.2015  143.4429  160.7465 H   0  0  0  0  0  0  0  0  0  0  0  0
  150.7213  144.4970  157.3794 H   0  0  0  0  0  0  0  0  0  0  0  0
  152.3672  144.0057  157.1283 H   0  0  0  0  0  0  0  0  0  0  0  0
  151.8349  141.7312  157.0794 H   0  0  0  0  0  0  0  0  0  0  0  0
  150.5204  141.8867  158.2106 H   0  0  0  0  0  0  0  0  0  0  0  0
  149.3605  143.1371  156.2338 H   0  0  0  0  0  0  0  0  0  0  0  0
  149.0404  142.7589  153.8143 H   0  0  0  0  0  0  0  0  0  0  0  0
  149.1269  141.1051  153.2910 H   0  0  0  0  0  0  0  0  0  0  0  0
  147.7111  142.8805  156.2477 H   0  0  0  0  0  0  0  0  0  0  0  0
  145.4973  142.5510  157.1075 H   0  0  0  0  0  0  0  0  0  0  0  0
  1  2  1  0  0  0  0
  1 19  1  0  0  0  0
  1 20  1  0  0  0  0
  1 21  1  0  0  0  0
  2  3  1  0  0  0  0
  2  4  1  0  0  0  0
  2 22  1  0  0  0  0
  3 23  1  0  0  0  0
  3 24  1  0  0  0  0
  3 25  1  0  0  0  0
  4  5  1  0  0  0  0
  4 26  1  0  0  0  0
  4 27  1  0  0  0  0
  5  6  1  0  0  0  0
  5 28  1  0  0  0  0
  5 29  1  0  0  0  0
  6  7  1  0  0  0  0
  6 30  1  0  0  0  0
  7  8  2  0  0  0  0
  7  9  1  0  0  0  0
  9 10  1  0  0  0  0
  9 31  1  0  0  0  0
  9 32  1  0  0  0  0
 10 16  1  0  0  0  0
 10 11  1  0  0  0  0
 11 12  2  0  0  0  0
 11 33  1  0  0  0  0
 12 13  1  0  0  0  0
 12 34  1  0  0  0  0
 13 14  2  0  0  0  0
 13 15  1  0  0  0  0
 15 18  1  0  0  0  0
 15 16  1  0  0  0  0
 16 17  2  0  0  0  0
M  END
> <s_m_source_file>
AV-unprocessed.smi

> <i_m_source_file_index>
389

> <i_lp_mmshare_version>
43012

> <i_f3d_flags>
0

> <s_epik_input>
W0NIM11bQ0hdKFtDSDNdKVtDSDJdW0NIMl1bTkhdQyg9TylbQ0gyXW4xW2NIXVtjSF1jKD1PKVtuSF1jMT1P

> <s_epik_cmdline>
J2VwaWtfcHl0aG9uJywgJy1waCcsICc3LjAnLCAnLXRuJywgJzgnLCAnLW1hJywgJzIwMCcsICctbWV0YWxfYmluZGluZycsICctaW1hZScsICc8aW5maWxlLm1hZT4nLCAnLW9tYWUnLCAnPG91dGZpbGUubWFlPic=

> <r_lp_tautomer_probability>
0.999537

> <r_epik_Ionization_Penalty>
0.00305319

> <r_epik_Ionization_Penalty_Charging>
0.00305317

> <r_epik_Ionization_Penalty_Neutral>
2.06703e-08

> <r_epik_State_Penalty>
0.00214626

> <r_epik_Charging_Adjusted_Penalty>
0.00519944

> <i_epik_Tot_Q>
0

> <i_epik_Tot_abs_Q>
0

> <r_epik_Metal_State_Penalty>
0.361976

> <b_epik_Metal_Only>
0

> <s_lp_Force_Field>
OPLS_2005

> <r_lp_Energy>
4.98151

> <b_lp_Chiralities_Consistent>
1

> <s_lp_Variant>
AV-unprocessed.smi:389-1

> <Gold.Version>
5.8.1

> <Gold.Id.Protein>
6NUR|6NUR_protein|mol2

> <Gold.PLP.Fitness>
42.0937

> <Gold.PLP.PLP>
-33.2750

> <Gold.PLP.part.hbond>
-3.0000

> <Gold.PLP.part.metal>
0.0000

> <Gold.PLP.part.buried>
-0.9717

> <Gold.PLP.part.nonpolar>
-29.6542

> <Gold.PLP.part.repulsive>
0.6637

> <Gold.PLP.ligand.clash>
0.0000

> <Gold.PLP.ligand.torsion>
0.5604

> <Gold.PLP.Chemscore.Hbond>
2.2860

> <Gold.PLP.Chemscore.CHOScore>
1.0000

> <Gold.PLP.Chemscore.Metal>
0.0000

> <Gold.Chemscore.Hbonds>
donor molecule, donor type, donor heavy atom, donor atom, acceptor molecule, acceptor atom, score
      L1  H     6    30       P1  8028  1.00
      L1  H    15    18       P1 10175  0.29
      P1  H  7989  7998       L1     8  1.00
      L1  C    11    33       P1  8028  1.00

> <Gold.PLP.Chemscore.Internal.Correction>
0.0814

> <Gold.Rescore>
     Score         DG    S(hbond)    S(metal)    S(lipo)     H(rot)  DE(clash)    DE(int)     intcor
     11.52     -14.50       1.94        0.00      70.75       2.24       1.42       1.56       ----

> <Gold.Chemscore.Fitness>
11.5175

> <Gold.Chemscore.DG>
-14.5016

> <Gold.Chemscore.ZeroCoef>
-5.4800

> <Gold.Chemscore.Hbond>
1.9408

> <Gold.Chemscore.Metal>
0.0000

> <Gold.Chemscore.Lipo>
70.7478

> <Gold.Chemscore.Internal_Hbond>
0.0000

> <Gold.Chemscore.DEClash>
1.4210

> <Gold.Chemscore.DEInternal>
1.5632

> <Gold.Chemscore.Rot>
2.2414

> <Gold.Chemscore.Internal.Correction>
   9.000000E+99

> <Gold.Chemscore.Hbonds>
donor molecule, donor type, donor heavy atom, donor atom, acceptor molecule, acceptor atom, score
      L1  H     6    30       P1  8028  0.95
      L1  H    15    18       P1 10175  0.28
      P1  H  7989  7998       L1     8  0.24

> <Gold.Chemscore.Hbond.Weighted>
-6.4822

> <Gold.Chemscore.Metal.Weighted>
-0.0000

> <Gold.Chemscore.Lipo.Weighted>
-8.2775

> <Gold.Chemscore.Internal_Hbond.Weighted>
0.0000

> <Gold.Chemscore.DEClash.Weighted>
1.4210

> <Gold.Chemscore.DEInternal.Weighted>
1.5632

> <Gold.Chemscore.Rot.Weighted>
5.7380

> <Gold.Chemscore.Internal.Correction.Weighted>
   9.000000E+99

> <Gold.Protein.RotatedTorsions>
[ 6907 6896 6895 6894 ] final  135.05 input  -60.11 | X-H torsion
[ 7974 7965 7964 7962 ] final  -10.00 input  175.53 | X-H torsion
[ 8008 7997 7996 7995 ] final  -44.44 input   59.86 | X-H torsion
[ 10167 10162 10161 10158 ] final -179.03 input  -65.29 | X-H torsion
[ 10718 10713 10712 10709 ] final -122.72 input   66.30 | X-H torsion
[ 10763 10752 10751 10750 ] final   88.98 input  -60.55 | X-H torsion
[ 11005 11000 10999 10996 ] final   -9.21 input  -57.11 | X-H torsion

> <Gold.Protein.ActiveResidues>
 VAL166  LYS551  ARG553  GLY616  TRP617  ASP618  TYR619  PRO620  LYS621  CYS622 
 ASP623  PHE694  ASN695  SER759  ASP760  ASP761  ALA762  ILE779  LEU786  VAL792 
 PHE793  MET794  SER795  GLU796  ALA797  LYS798  CYS799  TRP800  GLU811  SER814 

> <Gold.Protein.RotatedAtoms>
  152.3047  133.5691  159.5640 H   0  0  0  0  0  0  0  0  0  0  0  0  # atno 6907 bound_to 6896
  150.7294  134.0240  159.3720 H   0  0  0  0  0  0  0  0  0  0  0  0  # atno 6908 bound_to 6896
  151.8138  135.0673  160.0467 H   0  0  0  0  0  0  0  0  0  0  0  0  # atno 6909 bound_to 6896
  146.2234  140.2699  142.8356 H   0  0  0  0  0  0  0  0  0  0  0  0  # atno 7974 bound_to 7965
  154.3997  140.1422  156.3684 H   0  0  0  0  0  0  0  0  0  0  0  0  # atno 8008 bound_to 7997
  155.8116  140.3472  155.5440 H   0  0  0  0  0  0  0  0  0  0  0  0  # atno 8009 bound_to 7997
  155.8381  140.0922  157.1742 H   0  0  0  0  0  0  0  0  0  0  0  0  # atno 8010 bound_to 7997
  139.5405  144.2376  152.0885 H   0  0  0  0  0  0  0  0  0  0  0  0  # atno 10167 bound_to 10162
  156.1442  130.6488  150.9817 H   0  0  0  0  0  0  0  0  0  0  0  0  # atno 10718 bound_to 10713
  153.1824  135.4487  155.0045 H   0  0  0  0  0  0  0  0  0  0  0  0  # atno 10763 bound_to 10752
  154.8038  135.3266  154.7485 H   0  0  0  0  0  0  0  0  0  0  0  0  # atno 10764 bound_to 10752
  153.7948  135.6967  153.4920 H   0  0  0  0  0  0  0  0  0  0  0  0  # atno 10765 bound_to 10752
  140.7317  133.8743  155.8898 H   0  0  0  0  0  0  0  0  0  0  0  0  # atno 11005 bound_to 11000
  144.9276  140.7939  143.5709 LP  0  0  0  0  0  0  0  0  0  0  0  0  # atno 17320 bound_to 7965
  145.2640  139.1981  143.4877 LP  0  0  0  0  0  0  0  0  0  0  0  0  # atno 17321 bound_to 7965
  140.1854  144.4804  150.6506 LP  0  0  0  0  0  0  0  0  0  0  0  0  # atno 17342 bound_to 10162
  140.6632  143.2259  151.5805 LP  0  0  0  0  0  0  0  0  0  0  0  0  # atno 17343 bound_to 10162
  157.6602  131.0882  150.7856 LP  0  0  0  0  0  0  0  0  0  0  0  0  # atno 17370 bound_to 10713
  156.7929  130.4896  149.5382 LP  0  0  0  0  0  0  0  0  0  0  0  0  # atno 17371 bound_to 10713
  140.9915  134.1272  157.4403 LP  0  0  0  0  0  0  0  0  0  0  0  0  # atno 17394 bound_to 11000
  139.8825  135.0042  156.6233 LP  0  0  0  0  0  0  0  0  0  0  0  0  # atno 17395 bound_to 11000

$$$$
