AV-unprocessed.smi:3185|AV-procd|sdf|12169|dock6
  -GOLD-   2272018 03D 1   1.00000     0.00000
 Structure written by MMmdl.
 37 38  0  0  0  0  0  0  0  0  1 V2000
  151.0615  132.6453  157.5492 N   0  0  0  0  0  0  0  0  0  0  0  0
  150.5668  132.3999  156.5326 C   0  0  0  0  0  0  0  0  0  0  0  0
  149.9376  132.0877  155.2409 C   0  0  0  0  0  0  0  0  0  0  0  0
  149.3722  133.3323  154.5434 C   0  0  0  0  0  0  0  0  0  0  0  0
  148.8041  133.0218  153.1529 C   0  0  0  0  0  0  0  0  0  0  0  0
  147.6074  132.2056  153.2870 N   0  0  0  0  0  0  0  0  0  0  0  0
  146.7736  132.2320  152.0892 C   0  0  2  0  0  0  0  0  0  0  0  0
  146.1284  133.6271  151.9325 C   0  0  0  0  0  0  0  0  0  0  0  0
  145.1435  133.6671  150.7543 C   0  0  0  0  0  0  0  0  0  0  0  0
  144.0639  132.5850  150.8965 C   0  0  0  0  0  0  0  0  0  0  0  0
  144.6976  131.1927  151.0274 C   0  0  0  0  0  0  0  0  0  0  0  0
  145.6881  131.1305  152.2096 C   0  0  1  0  0  0  0  0  0  0  0  0
  146.2725  129.7987  152.3264 N   0  0  0  0  0  0  0  0  0  0  0  0
  146.9959  129.1019  151.3805 C   0  0  0  0  0  0  0  0  0  0  0  0
  147.3255  127.8938  151.9246 C   0  0  0  0  0  0  0  0  0  0  0  0
  146.7531  127.9421  153.2259 C   0  0  0  0  0  0  0  0  0  0  0  0
  146.1244  129.0814  153.4639 N   0  0  0  0  0  0  0  0  0  0  0  0
  150.6860  131.6052  154.6121 H   0  0  0  0  0  0  0  0  0  0  0  0
  149.1500  131.3566  155.4247 H   0  0  0  0  0  0  0  0  0  0  0  0
  148.6090  133.7988  155.1677 H   0  0  0  0  0  0  0  0  0  0  0  0
  150.1710  134.0674  154.4400 H   0  0  0  0  0  0  0  0  0  0  0  0
  148.5582  133.9515  152.6398 H   0  0  0  0  0  0  0  0  0  0  0  0
  149.5529  132.5040  152.5522 H   0  0  0  0  0  0  0  0  0  0  0  0
  147.0720  132.4839  154.0968 H   0  0  0  0  0  0  0  0  0  0  0  0
  147.3875  132.0173  151.2130 H   0  0  0  0  0  0  0  0  0  0  0  0
  145.6012  133.8973  152.8487 H   0  0  0  0  0  0  0  0  0  0  0  0
  146.8930  134.3893  151.7805 H   0  0  0  0  0  0  0  0  0  0  0  0
  144.6769  134.6506  150.6930 H   0  0  0  0  0  0  0  0  0  0  0  0
  145.6858  133.5229  149.8191 H   0  0  0  0  0  0  0  0  0  0  0  0
  143.4476  132.7926  151.7720 H   0  0  0  0  0  0  0  0  0  0  0  0
  143.3965  132.6095  150.0346 H   0  0  0  0  0  0  0  0  0  0  0  0
  143.9145  130.4449  151.1578 H   0  0  0  0  0  0  0  0  0  0  0  0
  145.2084  130.9454  150.0956 H   0  0  0  0  0  0  0  0  0  0  0  0
  145.1181  131.3109  153.1232 H   0  0  0  0  0  0  0  0  0  0  0  0
  147.2108  129.5181  150.4073 H   0  0  0  0  0  0  0  0  0  0  0  0
  147.8889  127.0967  151.4629 H   0  0  0  0  0  0  0  0  0  0  0  0
  146.7751  127.1884  153.9989 H   0  0  0  0  0  0  0  0  0  0  0  0
  1  2  3  0  0  0  0
  2  3  1  0  0  0  0
  3  4  1  0  0  0  0
  3 18  1  0  0  0  0
  3 19  1  0  0  0  0
  4  5  1  0  0  0  0
  4 20  1  0  0  0  0
  4 21  1  0  0  0  0
  5  6  1  0  0  0  0
  5 22  1  0  0  0  0
  5 23  1  0  0  0  0
  6  7  1  0  0  0  0
  6 24  1  0  0  0  0
  7 12  1  0  0  0  0
  7  8  1  0  0  0  0
  7 25  1  0  0  0  0
  8  9  1  0  0  0  0
  8 26  1  0  0  0  0
  8 27  1  0  0  0  0
  9 10  1  0  0  0  0
  9 28  1  0  0  0  0
  9 29  1  0  0  0  0
 10 11  1  0  0  0  0
 10 30  1  0  0  0  0
 10 31  1  0  0  0  0
 11 12  1  0  0  0  0
 11 32  1  0  0  0  0
 11 33  1  0  0  0  0
 12 13  1  0  0  0  0
 12 34  1  0  0  0  0
 13 17  1  0  0  0  0
 13 14  1  0  0  0  0
 14 15  2  0  0  0  0
 14 35  1  0  0  0  0
 15 16  1  0  0  0  0
 15 36  1  0  0  0  0
 16 17  2  0  0  0  0
 16 37  1  0  0  0  0
M  END
> <s_m_source_file>
AV-unprocessed.smi

> <i_m_source_file_index>
3185

> <i_lp_mmshare_version>
43012

> <i_f3d_flags>
0

> <s_epik_input>
TiNDW0NIMl1bQ0gyXVtDSDJdW05IXVtDQEBIXTFbQ0gyXVtDSDJdW0NIMl1bQ0gyXVtDQEhdMW4yW2NIXVtjSF1bY0hdbjI=

> <s_epik_cmdline>
J2VwaWtfcHl0aG9uJywgJy1waCcsICc3LjAnLCAnLXRuJywgJzgnLCAnLW1hJywgJzIwMCcsICctbWV0YWxfYmluZGluZycsICctaW1hZScsICc8aW5maWxlLm1hZT4nLCAnLW9tYWUnLCAnPG91dGZpbGUubWFlPic=

> <r_lp_tautomer_probability>
1

> <r_epik_Ionization_Penalty>
2.21326

> <r_epik_Ionization_Penalty_Charging>
0

> <r_epik_Ionization_Penalty_Neutral>
2.21326

> <r_epik_State_Penalty>
2.35651

> <r_epik_Charging_Adjusted_Penalty>
2.35651

> <i_epik_Tot_Q>
0

> <i_epik_Tot_abs_Q>
0

> <r_epik_Metal_State_Penalty>
2.3555

> <b_epik_Metal_Only>
0

> <s_lp_Force_Field>
OPLS_2005

> <r_lp_Energy>
16.739

> <b_lp_Chiralities_Consistent>
1

> <s_lp_Variant>
AV-unprocessed.smi:3185-5

> <Gold.Version>
5.8.1

> <Gold.Id.Protein>
6NUR|6NUR_protein|mol2

> <Gold.PLP.Fitness>
39.2993

> <Gold.PLP.PLP>
-34.5609

> <Gold.PLP.part.hbond>
-1.0000

> <Gold.PLP.part.metal>
0.0000

> <Gold.PLP.part.buried>
-2.1856

> <Gold.PLP.part.nonpolar>
-31.1869

> <Gold.PLP.part.repulsive>
0.1361

> <Gold.PLP.ligand.clash>
0.0000

> <Gold.PLP.ligand.torsion>
0.1989

> <Gold.PLP.Chemscore.Hbond>
1.0000

> <Gold.PLP.Chemscore.CHOScore>
0.6946

> <Gold.PLP.Chemscore.Metal>
0.0000

> <Gold.Chemscore.Hbonds>
donor molecule, donor type, donor heavy atom, donor atom, acceptor molecule, acceptor atom, score
      P1  H  6896  6908       L1     1  1.00
      L1  C    14    35       P1 10747  0.74

> <Gold.PLP.Chemscore.Internal.Correction>
0.0524

> <Gold.Rescore>
     Score         DG    S(hbond)    S(metal)    S(lipo)     H(rot)  DE(clash)    DE(int)     intcor
     13.61     -14.47       0.97        0.00      88.69       1.81       0.63       0.23       ----

> <Gold.Chemscore.Fitness>
13.6097

> <Gold.Chemscore.DG>
-14.4670

> <Gold.Chemscore.ZeroCoef>
-5.4800

> <Gold.Chemscore.Hbond>
0.9721

> <Gold.Chemscore.Metal>
0.0000

> <Gold.Chemscore.Lipo>
88.6862

> <Gold.Chemscore.Internal_Hbond>
0.0000

> <Gold.Chemscore.DEClash>
0.6259

> <Gold.Chemscore.DEInternal>
0.2313

> <Gold.Chemscore.Rot>
1.8110

> <Gold.Chemscore.Internal.Correction>
   9.000000E+99

> <Gold.Chemscore.Hbonds>
donor molecule, donor type, donor heavy atom, donor atom, acceptor molecule, acceptor atom, score
      P1  H  6896  6908       L1     1  0.95

> <Gold.Chemscore.Hbond.Weighted>
-3.2469

> <Gold.Chemscore.Metal.Weighted>
-0.0000

> <Gold.Chemscore.Lipo.Weighted>
-10.3763

> <Gold.Chemscore.Internal_Hbond.Weighted>
0.0000

> <Gold.Chemscore.DEClash.Weighted>
0.6259

> <Gold.Chemscore.DEInternal.Weighted>
0.2313

> <Gold.Chemscore.Rot.Weighted>
4.6362

> <Gold.Chemscore.Internal.Correction.Weighted>
   9.000000E+99

> <Gold.Protein.RotatedTorsions>
[ 6907 6896 6895 6894 ] final   68.45 input  -60.11 | X-H torsion
[ 7974 7965 7964 7962 ] final -116.14 input  175.53 | X-H torsion
[ 8008 7997 7996 7995 ] final   19.83 input   59.86 | X-H torsion
[ 10167 10162 10161 10158 ] final   21.08 input  -65.29 | X-H torsion
[ 10718 10713 10712 10709 ] final -117.75 input   66.30 | X-H torsion
[ 10763 10752 10751 10750 ] final  -55.67 input  -60.55 | X-H torsion
[ 11005 11000 10999 10996 ] final   47.66 input  -57.11 | X-H torsion

> <Gold.Protein.ActiveResidues>
 VAL166  LYS551  ARG553  GLY616  TRP617  ASP618  TYR619  PRO620  LYS621  CYS622 
 ASP623  PHE694  ASN695  SER759  ASP760  ASP761  ALA762  ILE779  LEU786  VAL792 
 PHE793  MET794  SER795  GLU796  ALA797  LYS798  CYS799  TRP800  GLU811  SER814 

> <Gold.Protein.RotatedAtoms>
  152.4621  134.5160  159.9768 H   0  0  0  0  0  0  0  0  0  0  0  0  # atno 6907 bound_to 6896
  151.5207  133.3461  159.2909 H   0  0  0  0  0  0  0  0  0  0  0  0  # atno 6908 bound_to 6896
  150.8588  134.7964  159.7129 H   0  0  0  0  0  0  0  0  0  0  0  0  # atno 6909 bound_to 6896
  145.1002  140.8546  143.3931 H   0  0  0  0  0  0  0  0  0  0  0  0  # atno 7974 bound_to 7965
  154.9266  140.3034  155.5189 H   0  0  0  0  0  0  0  0  0  0  0  0  # atno 8008 bound_to 7997
  156.3006  140.2361  156.4257 H   0  0  0  0  0  0  0  0  0  0  0  0  # atno 8009 bound_to 7997
  154.8279  140.0420  157.1445 H   0  0  0  0  0  0  0  0  0  0  0  0  # atno 8010 bound_to 7997
  140.5454  143.9604  150.6544 H   0  0  0  0  0  0  0  0  0  0  0  0  # atno 10167 bound_to 10162
  156.1056  130.6207  150.9203 H   0  0  0  0  0  0  0  0  0  0  0  0  # atno 10718 bound_to 10713
  154.1944  135.6422  153.5069 H   0  0  0  0  0  0  0  0  0  0  0  0  # atno 10763 bound_to 10752
  153.0027  135.5436  154.6381 H   0  0  0  0  0  0  0  0  0  0  0  0  # atno 10764 bound_to 10752
  154.5778  135.2922  155.0736 H   0  0  0  0  0  0  0  0  0  0  0  0  # atno 10765 bound_to 10752
  140.1260  134.4768  155.8559 H   0  0  0  0  0  0  0  0  0  0  0  0  # atno 11005 bound_to 11000
  145.0965  139.2853  143.5708 LP  0  0  0  0  0  0  0  0  0  0  0  0  # atno 17320 bound_to 7965
  146.3530  140.0518  142.8635 LP  0  0  0  0  0  0  0  0  0  0  0  0  # atno 17321 bound_to 7965
  140.3015  143.3257  152.0967 LP  0  0  0  0  0  0  0  0  0  0  0  0  # atno 17342 bound_to 10162
  139.5005  144.6693  151.6280 LP  0  0  0  0  0  0  0  0  0  0  0  0  # atno 17343 bound_to 10162
  157.6232  131.0928  150.8583 LP  0  0  0  0  0  0  0  0  0  0  0  0  # atno 17370 bound_to 10713
  156.8703  130.5143  149.5297 LP  0  0  0  0  0  0  0  0  0  0  0  0  # atno 17371 bound_to 10713
  141.2161  133.6778  156.6978 LP  0  0  0  0  0  0  0  0  0  0  0  0  # atno 17394 bound_to 11000
  140.2904  134.8245  157.4011 LP  0  0  0  0  0  0  0  0  0  0  0  0  # atno 17395 bound_to 11000

$$$$
