AV-unprocessed.smi:2823|AV-procd|sdf|10884|dock8
  -GOLD-   2272015323D 1   1.00000     0.00000
 Structure written by MMmdl.
 42 43  0  0  0  0  0  0  0  0  1 V2000
  144.2278  132.7778  149.5941 C   0  0  0  0  0  0  0  0  0  0  0  0
  144.4459  133.7974  150.6588 C   0  0  0  0  0  0  0  0  0  0  0  0
  143.4698  134.1332  151.4947 N   0  0  0  0  0  0  0  0  0  0  0  0
  144.0668  135.0960  152.3219 O   0  0  0  0  0  0  0  0  0  0  0  0
  145.3405  135.2186  151.8737 C   0  0  0  0  0  0  0  0  0  0  0  0
  146.2855  136.1014  152.4494 N   0  0  0  0  0  0  0  0  0  0  0  0
  146.0978  136.9020  153.5104 C   0  0  0  0  0  0  0  0  0  0  0  0
  145.0510  136.9896  154.1526 O   0  0  0  0  0  0  0  0  0  0  0  0
  147.2064  137.6003  153.7956 N   0  0  0  0  0  0  0  0  0  0  0  0
  147.3625  138.5405  154.9067 C   0  0  0  0  0  0  0  0  0  0  0  0
  147.6215  140.0071  154.4425 C   0  0  0  0  0  0  0  0  0  0  0  0
  149.1134  140.4311  154.6699 C   0  0  0  0  0  0  0  0  0  0  0  0
  149.7294  140.9011  153.7100 O   0  0  0  0  0  0  0  0  0  0  0  0
  149.7389  140.3055  155.8723 N   0  0  0  0  0  0  0  0  0  0  0  0
  151.1553  140.6689  155.9888 C   0  0  0  0  0  0  0  0  0  0  0  0
  149.1715  139.8507  157.1449 C   0  0  0  0  0  0  0  0  0  0  0  0
  147.1311  140.3023  153.0014 C   0  0  0  0  0  0  0  0  0  0  0  0
  146.8174  141.8028  152.9360 C   0  0  0  0  0  0  0  0  0  0  0  0
  146.5168  142.2293  154.3746 C   0  0  0  0  0  0  0  0  0  0  0  0
  146.6552  140.9525  155.2103 C   0  0  0  0  0  0  0  0  0  0  0  0
  145.6351  134.4369  150.8397 N   0  0  0  0  0  0  0  0  0  0  0  0
  143.4467  133.1086  148.9091 H   0  0  0  0  0  0  0  0  0  0  0  0
  143.9238  131.8288  150.0366 H   0  0  0  0  0  0  0  0  0  0  0  0
  145.1415  132.6144  149.0217 H   0  0  0  0  0  0  0  0  0  0  0  0
  147.1953  136.1187  152.0133 H   0  0  0  0  0  0  0  0  0  0  0  0
  148.0157  137.4602  153.2087 H   0  0  0  0  0  0  0  0  0  0  0  0
  146.4668  138.4548  155.5146 H   0  0  0  0  0  0  0  0  0  0  0  0
  148.1663  138.2098  155.5666 H   0  0  0  0  0  0  0  0  0  0  0  0
  151.7568  140.1372  155.2496 H   0  0  0  0  0  0  0  0  0  0  0  0
  151.5683  140.4262  156.9690 H   0  0  0  0  0  0  0  0  0  0  0  0
  151.2891  141.7402  155.8325 H   0  0  0  0  0  0  0  0  0  0  0  0
  148.0919  139.7609  157.1704 H   0  0  0  0  0  0  0  0  0  0  0  0
  149.4379  140.5438  157.9436 H   0  0  0  0  0  0  0  0  0  0  0  0
  149.5847  138.8749  157.4024 H   0  0  0  0  0  0  0  0  0  0  0  0
  147.8173  140.0313  152.2040 H   0  0  0  0  0  0  0  0  0  0  0  0
  146.2139  139.7424  152.8129 H   0  0  0  0  0  0  0  0  0  0  0  0
  147.6810  142.3533  152.5607 H   0  0  0  0  0  0  0  0  0  0  0  0
  145.9825  142.0063  152.2649 H   0  0  0  0  0  0  0  0  0  0  0  0
  147.2395  142.9782  154.7007 H   0  0  0  0  0  0  0  0  0  0  0  0
  145.5230  142.6665  154.4754 H   0  0  0  0  0  0  0  0  0  0  0  0
  145.6704  140.4881  155.2822 H   0  0  0  0  0  0  0  0  0  0  0  0
  146.9538  141.1659  156.2375 H   0  0  0  0  0  0  0  0  0  0  0  0
  1  2  1  0  0  0  0
  1 22  1  0  0  0  0
  1 23  1  0  0  0  0
  1 24  1  0  0  0  0
  2 21  1  0  0  0  0
  2  3  2  0  0  0  0
  3  4  1  0  0  0  0
  4  5  1  0  0  0  0
  5  6  1  0  0  0  0
  5 21  2  0  0  0  0
  6  7  1  0  0  0  0
  6 25  1  0  0  0  0
  7  8  2  0  0  0  0
  7  9  1  0  0  0  0
  9 10  1  0  0  0  0
  9 26  1  0  0  0  0
 10 11  1  0  0  0  0
 10 27  1  0  0  0  0
 10 28  1  0  0  0  0
 11 20  1  0  0  0  0
 11 12  1  0  0  0  0
 11 17  1  0  0  0  0
 12 13  2  0  0  0  0
 12 14  1  0  0  0  0
 14 15  1  0  0  0  0
 14 16  1  0  0  0  0
 15 29  1  0  0  0  0
 15 30  1  0  0  0  0
 15 31  1  0  0  0  0
 16 32  1  0  0  0  0
 16 33  1  0  0  0  0
 16 34  1  0  0  0  0
 17 18  1  0  0  0  0
 17 35  1  0  0  0  0
 17 36  1  0  0  0  0
 18 19  1  0  0  0  0
 18 37  1  0  0  0  0
 18 38  1  0  0  0  0
 19 20  1  0  0  0  0
 19 39  1  0  0  0  0
 19 40  1  0  0  0  0
 20 41  1  0  0  0  0
 20 42  1  0  0  0  0
M  END
> <s_m_source_file>
AV-unprocessed.smi

> <i_m_source_file_index>
2823

> <i_lp_mmshare_version>
43012

> <i_f3d_flags>
0

> <s_epik_input>
W0NIM11jMW5vYyhuMSlbTkhdQyg9TylbTkhdW0NIMl1DMihDKD1PKU4oW0NIM10pW0NIM10pW0NIMl1bQ0gyXVtDSDJdW0NIMl0y

> <s_epik_cmdline>
J2VwaWtfcHl0aG9uJywgJy1waCcsICc3LjAnLCAnLXRuJywgJzgnLCAnLW1hJywgJzIwMCcsICctbWV0YWxfYmluZGluZycsICctaW1hZScsICc8aW5maWxlLm1hZT4nLCAnLW9tYWUnLCAnPG91dGZpbGUubWFlPic=

> <r_lp_tautomer_probability>
1

> <r_epik_Ionization_Penalty>
4.1201e-05

> <r_epik_Ionization_Penalty_Charging>
0

> <r_epik_Ionization_Penalty_Neutral>
4.1201e-05

> <r_epik_State_Penalty>
-0

> <r_epik_Charging_Adjusted_Penalty>
0

> <i_epik_Tot_Q>
0

> <i_epik_Tot_abs_Q>
0

> <r_epik_Metal_State_Penalty>
0.0212056

> <b_epik_Metal_Only>
0

> <s_lp_Force_Field>
OPLS_2005

> <r_lp_Energy>
33.0432

> <b_lp_Chiralities_Consistent>
1

> <s_lp_Variant>
AV-unprocessed.smi:2823-1

> <Gold.Version>
5.8.1

> <Gold.Id.Protein>
6NUR|6NUR_protein|mol2

> <Gold.PLP.Fitness>
33.2183

> <Gold.PLP.PLP>
-25.2577

> <Gold.PLP.part.hbond>
-3.9814

> <Gold.PLP.part.metal>
0.0000

> <Gold.PLP.part.buried>
-5.6888

> <Gold.PLP.part.nonpolar>
-19.4761

> <Gold.PLP.part.repulsive>
3.5213

> <Gold.PLP.ligand.clash>
0.0000

> <Gold.PLP.ligand.torsion>
1.0727

> <Gold.PLP.Chemscore.Hbond>
3.3040

> <Gold.PLP.Chemscore.CHOScore>
0.0000

> <Gold.PLP.Chemscore.Metal>
0.0000

> <Gold.Chemscore.Hbonds>
donor molecule, donor type, donor heavy atom, donor atom, acceptor molecule, acceptor atom, score
      L1  H     6    25       P1  7948  1.00
      L1  H     9    26       P1  7948  0.91
      P1  H  7989  7998       L1    13  0.38
      P1  H  8011  8017       L1    13  0.95

> <Gold.PLP.Chemscore.Internal.Correction>
0.1939

> <Gold.Rescore>
     Score         DG    S(hbond)    S(metal)    S(lipo)     H(rot)  DE(clash)    DE(int)     intcor
     12.29     -18.18       3.23        0.00      54.24       1.74       3.47       2.42       ----

> <Gold.Chemscore.Fitness>
12.2875

> <Gold.Chemscore.DG>
-18.1757

> <Gold.Chemscore.ZeroCoef>
-5.4800

> <Gold.Chemscore.Hbond>
3.2316

> <Gold.Chemscore.Metal>
0.0000

> <Gold.Chemscore.Lipo>
54.2424

> <Gold.Chemscore.Internal_Hbond>
0.0000

> <Gold.Chemscore.DEClash>
3.4681

> <Gold.Chemscore.DEInternal>
2.4200

> <Gold.Chemscore.Rot>
1.7360

> <Gold.Chemscore.Internal.Correction>
   9.000000E+99

> <Gold.Chemscore.Hbonds>
donor molecule, donor type, donor heavy atom, donor atom, acceptor molecule, acceptor atom, score
      L1  H     6    25       P1  7948  1.00
      L1  H     9    26       P1  7948  0.83
      P1  H  7989  7998       L1    13  0.38
      P1  H  8011  8017       L1    13  0.86

> <Gold.Chemscore.Hbond.Weighted>
-10.7936

> <Gold.Chemscore.Metal.Weighted>
-0.0000

> <Gold.Chemscore.Lipo.Weighted>
-6.3464

> <Gold.Chemscore.Internal_Hbond.Weighted>
0.0000

> <Gold.Chemscore.DEClash.Weighted>
3.4681

> <Gold.Chemscore.DEInternal.Weighted>
2.4200

> <Gold.Chemscore.Rot.Weighted>
4.4443

> <Gold.Chemscore.Internal.Correction.Weighted>
   9.000000E+99

> <Gold.Protein.RotatedTorsions>
[ 6907 6896 6895 6894 ] final   25.20 input  -60.11 | X-H torsion
[ 7974 7965 7964 7962 ] final  -52.16 input  175.53 | X-H torsion
[ 8008 7997 7996 7995 ] final -101.91 input   59.86 | X-H torsion
[ 10167 10162 10161 10158 ] final -122.43 input  -65.29 | X-H torsion
[ 10718 10713 10712 10709 ] final -113.05 input   66.30 | X-H torsion
[ 10763 10752 10751 10750 ] final  -95.35 input  -60.55 | X-H torsion
[ 11005 11000 10999 10996 ] final   82.55 input  -57.11 | X-H torsion

> <Gold.Protein.ActiveResidues>
 VAL166  LYS551  ARG553  GLY616  TRP617  ASP618  TYR619  PRO620  LYS621  CYS622 
 ASP623  PHE694  ASN695  SER759  ASP760  ASP761  ALA762  ILE779  LEU786  VAL792 
 PHE793  MET794  SER795  GLU796  ALA797  LYS798  CYS799  TRP800  GLU811  SER814 

> <Gold.Protein.RotatedAtoms>
  151.9690  135.0086  160.0551 H   0  0  0  0  0  0  0  0  0  0  0  0  # atno 6907 bound_to 6896
  152.1800  133.4696  159.4961 H   0  0  0  0  0  0  0  0  0  0  0  0  # atno 6908 bound_to 6896
  150.6916  134.1762  159.4274 H   0  0  0  0  0  0  0  0  0  0  0  0  # atno 6909 bound_to 6896
  145.9110  140.7915  142.9695 H   0  0  0  0  0  0  0  0  0  0  0  0  # atno 7974 bound_to 7965
  154.8492  140.0431  157.1593 H   0  0  0  0  0  0  0  0  0  0  0  0  # atno 8008 bound_to 7997
  154.8961  140.2993  155.5323 H   0  0  0  0  0  0  0  0  0  0  0  0  # atno 8009 bound_to 7997
  156.2995  140.2384  156.3983 H   0  0  0  0  0  0  0  0  0  0  0  0  # atno 8010 bound_to 7997
  140.0144  143.5409  152.2249 H   0  0  0  0  0  0  0  0  0  0  0  0  # atno 10167 bound_to 10162
  156.0743  130.5953  150.8591 H   0  0  0  0  0  0  0  0  0  0  0  0  # atno 10718 bound_to 10713
  154.7140  135.5124  153.8710 H   0  0  0  0  0  0  0  0  0  0  0  0  # atno 10763 bound_to 10752
  153.0805  135.6630  154.0064 H   0  0  0  0  0  0  0  0  0  0  0  0  # atno 10764 bound_to 10752
  153.9901  135.3020  155.3392 H   0  0  0  0  0  0  0  0  0  0  0  0  # atno 10765 bound_to 10752
  139.9060  134.8080  156.2190 H   0  0  0  0  0  0  0  0  0  0  0  0  # atno 11005 bound_to 11000
  144.6743  140.1826  143.7404 LP  0  0  0  0  0  0  0  0  0  0  0  0  # atno 17320 bound_to 7965
  145.8671  139.2252  143.1682 LP  0  0  0  0  0  0  0  0  0  0  0  0  # atno 17321 bound_to 7965
  139.6183  144.7624  151.2797 LP  0  0  0  0  0  0  0  0  0  0  0  0  # atno 17342 bound_to 10162
  140.7368  143.6696  150.8093 LP  0  0  0  0  0  0  0  0  0  0  0  0  # atno 17343 bound_to 10162
  157.5830  131.0946  150.9240 LP  0  0  0  0  0  0  0  0  0  0  0  0  # atno 17370 bound_to 10713
  156.9432  130.5392  149.5280 LP  0  0  0  0  0  0  0  0  0  0  0  0  # atno 17371 bound_to 10713
  141.0417  133.6934  156.1611 LP  0  0  0  0  0  0  0  0  0  0  0  0  # atno 17394 bound_to 11000
  140.6944  134.4631  157.5588 LP  0  0  0  0  0  0  0  0  0  0  0  0  # atno 17395 bound_to 11000

$$$$
