AV-unprocessed.smi:626|AV-procd|sdf|3109|dock9
  -GOLD-   22720 0 33D 1   1.00000     0.00000
 Structure written by MMmdl.
 34 36  0  0  0  0  0  0  0  0  1 V2000
  149.4006  136.2097  154.5991 C   0  0  0  0  0  0  0  0  0  0  0  0
  150.0590  137.5071  154.5856 N   0  0  0  0  0  0  0  0  0  0  0  0
  151.3117  137.7220  155.0130 C   0  0  0  0  0  0  0  0  0  0  0  0
  152.0286  136.8254  155.4611 O   0  0  0  0  0  0  0  0  0  0  0  0
  151.8158  139.1675  154.9039 C   0  0  0  0  0  0  0  0  0  0  0  0
  152.0389  139.8006  156.2424 C   0  0  0  0  0  0  0  0  0  0  0  0
  152.8969  139.2867  157.1157 N   0  0  0  0  0  0  0  0  0  0  0  0
  152.7950  140.1506  158.2153 O   0  0  0  0  0  0  0  0  0  0  0  0
  151.9067  141.1092  157.8566 C   0  0  0  0  0  0  0  0  0  0  0  0
  151.5175  142.1405  158.8717 C   0  0  2  0  0  0  0  0  0  0  0  0
  150.7702  143.3574  158.2871 C   0  0  0  0  0  0  0  0  0  0  0  0
  151.5518  144.5463  158.8786 C   0  0  1  0  0  0  0  0  0  0  0  0
  151.3327  144.6118  160.4030 C   0  0  0  0  0  0  0  0  0  0  0  0
  152.1667  143.4226  160.9215 C   0  0  0  0  0  0  0  0  0  0  0  0
  152.7017  142.7950  159.6202 C   0  0  2  0  0  0  0  0  0  0  0  0
  152.9873  144.0442  158.7897 C   0  0  0  0  0  0  0  0  0  0  0  0
  151.3676  140.9111  156.6549 N   0  0  0  0  0  0  0  0  0  0  0  0
  148.3973  136.2978  154.1825 H   0  0  0  0  0  0  0  0  0  0  0  0
  149.3149  135.8282  155.6174 H   0  0  0  0  0  0  0  0  0  0  0  0
  149.9557  135.4856  154.0012 H   0  0  0  0  0  0  0  0  0  0  0  0
  149.5311  138.2898  154.2267 H   0  0  0  0  0  0  0  0  0  0  0  0
  152.7497  139.1763  154.3403 H   0  0  0  0  0  0  0  0  0  0  0  0
  151.0976  139.7627  154.3377 H   0  0  0  0  0  0  0  0  0  0  0  0
  150.8745  141.6360  159.5949 H   0  0  0  0  0  0  0  0  0  0  0  0
  150.8368  143.3758  157.1980 H   0  0  0  0  0  0  0  0  0  0  0  0
  149.7134  143.3682  158.5555 H   0  0  0  0  0  0  0  0  0  0  0  0
  151.3623  145.4905  158.3674 H   0  0  0  0  0  0  0  0  0  0  0  0
  151.7089  145.5504  160.8116 H   0  0  0  0  0  0  0  0  0  0  0  0
  150.2786  144.5282  160.6698 H   0  0  0  0  0  0  0  0  0  0  0  0
  152.9890  143.7757  161.5452 H   0  0  0  0  0  0  0  0  0  0  0  0
  151.5767  142.7242  161.5162 H   0  0  0  0  0  0  0  0  0  0  0  0
  153.5513  142.1306  159.7830 H   0  0  0  0  0  0  0  0  0  0  0  0
  153.3068  143.8292  157.7690 H   0  0  0  0  0  0  0  0  0  0  0  0
  153.7114  144.7165  159.2534 H   0  0  0  0  0  0  0  0  0  0  0  0
  1  2  1  0  0  0  0
  1 18  1  0  0  0  0
  1 19  1  0  0  0  0
  1 20  1  0  0  0  0
  2  3  1  0  0  0  0
  2 21  1  0  0  0  0
  3  4  2  0  0  0  0
  3  5  1  0  0  0  0
  5  6  1  0  0  0  0
  5 22  1  0  0  0  0
  5 23  1  0  0  0  0
  6 17  1  0  0  0  0
  6  7  2  0  0  0  0
  7  8  1  0  0  0  0
  8  9  1  0  0  0  0
  9 10  1  0  0  0  0
  9 17  2  0  0  0  0
 10 15  1  0  0  0  0
 10 11  1  0  0  0  0
 10 24  1  0  0  0  0
 11 12  1  0  0  0  0
 11 25  1  0  0  0  0
 11 26  1  0  0  0  0
 12 16  1  0  0  0  0
 12 13  1  0  0  0  0
 12 27  1  0  0  0  0
 13 14  1  0  0  0  0
 13 28  1  0  0  0  0
 13 29  1  0  0  0  0
 14 15  1  0  0  0  0
 14 30  1  0  0  0  0
 14 31  1  0  0  0  0
 15 16  1  0  0  0  0
 15 32  1  0  0  0  0
 16 33  1  0  0  0  0
 16 34  1  0  0  0  0
M  END
> <s_m_source_file>
AV-unprocessed.smi

> <i_m_source_file_index>
626

> <i_lp_mmshare_version>
43012

> <i_f3d_flags>
0

> <s_epik_input>
W0NIM11bTkhdQyg9TylbQ0gyXWMxbm9jKG4xKVtDQEhdKFtDSDJdW0NAQEhdMjMpW0NAQEhdKFtDSDJdMylbQ0gyXVtDSDJdMg==

> <s_epik_cmdline>
J2VwaWtfcHl0aG9uJywgJy1waCcsICc3LjAnLCAnLXRuJywgJzgnLCAnLW1hJywgJzIwMCcsICctbWV0YWxfYmluZGluZycsICctaW1hZScsICc8aW5maWxlLm1hZT4nLCAnLW9tYWUnLCAnPG91dGZpbGUubWFlPic=

> <r_lp_tautomer_probability>
1

> <r_epik_Ionization_Penalty>
1.02916e-07

> <r_epik_Ionization_Penalty_Charging>
0

> <r_epik_Ionization_Penalty_Neutral>
1.02916e-07

> <r_epik_State_Penalty>
-0

> <r_epik_Charging_Adjusted_Penalty>
0

> <i_epik_Tot_Q>
0

> <i_epik_Tot_abs_Q>
0

> <r_epik_Metal_State_Penalty>
-0

> <b_epik_Metal_Only>
0

> <s_lp_Force_Field>
OPLS_2005

> <r_lp_Energy>
49.0538

> <b_lp_Chiralities_Consistent>
1

> <s_lp_Variant>
AV-unprocessed.smi:626-1

> <Gold.Version>
5.8.1

> <Gold.Id.Protein>
6NUR|6NUR_protein|mol2

> <Gold.PLP.Fitness>
41.9041

> <Gold.PLP.PLP>
-37.7352

> <Gold.PLP.part.hbond>
-3.0000

> <Gold.PLP.part.metal>
0.0000

> <Gold.PLP.part.buried>
-4.1057

> <Gold.PLP.part.nonpolar>
-31.1674

> <Gold.PLP.part.repulsive>
0.0847

> <Gold.PLP.ligand.clash>
0.0000

> <Gold.PLP.ligand.torsion>
0.4918

> <Gold.PLP.Chemscore.Hbond>
1.6920

> <Gold.PLP.Chemscore.CHOScore>
0.0000

> <Gold.PLP.Chemscore.Metal>
0.0000

> <Gold.Chemscore.Hbonds>
donor molecule, donor type, donor heavy atom, donor atom, acceptor molecule, acceptor atom, score
      P1  H  7997  8008       L1     7  0.53
      P1  H 10752 10764       L1     4  1.00

> <Gold.PLP.Chemscore.Internal.Correction>
0.0764

> <Gold.Rescore>
     Score         DG    S(hbond)    S(metal)    S(lipo)     H(rot)  DE(clash)    DE(int)     intcor
     15.18     -15.77       1.00        0.00      94.80       1.61       0.05       0.54       ----

> <Gold.Chemscore.Fitness>
15.1819

> <Gold.Chemscore.DG>
-15.7700

> <Gold.Chemscore.ZeroCoef>
-5.4800

> <Gold.Chemscore.Hbond>
0.9954

> <Gold.Chemscore.Metal>
0.0000

> <Gold.Chemscore.Lipo>
94.8017

> <Gold.Chemscore.Internal_Hbond>
0.0000

> <Gold.Chemscore.DEClash>
0.0456

> <Gold.Chemscore.DEInternal>
0.5425

> <Gold.Chemscore.Rot>
1.6119

> <Gold.Chemscore.Internal.Correction>
   9.000000E+99

> <Gold.Chemscore.Hbonds>
donor molecule, donor type, donor heavy atom, donor atom, acceptor molecule, acceptor atom, score
      P1  H  7997  8008       L1     7  0.01
      P1  H 10752 10764       L1     4  0.97

> <Gold.Chemscore.Hbond.Weighted>
-3.3248

> <Gold.Chemscore.Metal.Weighted>
-0.0000

> <Gold.Chemscore.Lipo.Weighted>
-11.0918

> <Gold.Chemscore.Internal_Hbond.Weighted>
0.0000

> <Gold.Chemscore.DEClash.Weighted>
0.0456

> <Gold.Chemscore.DEInternal.Weighted>
0.5425

> <Gold.Chemscore.Rot.Weighted>
4.1266

> <Gold.Chemscore.Internal.Correction.Weighted>
   9.000000E+99

> <Gold.Protein.RotatedTorsions>
[ 6907 6896 6895 6894 ] final  117.52 input  -60.11 | X-H torsion
[ 7974 7965 7964 7962 ] final   14.16 input  175.53 | X-H torsion
[ 8008 7997 7996 7995 ] final  -46.45 input   59.86 | X-H torsion
[ 10167 10162 10161 10158 ] final   53.91 input  -65.29 | X-H torsion
[ 10718 10713 10712 10709 ] final   25.59 input   66.30 | X-H torsion
[ 10763 10752 10751 10750 ] final  -46.69 input  -60.55 | X-H torsion
[ 11005 11000 10999 10996 ] final   -5.45 input  -57.11 | X-H torsion

> <Gold.Protein.ActiveResidues>
 VAL166  LYS551  ARG553  GLY616  TRP617  ASP618  TYR619  PRO620  LYS621  CYS622 
 ASP623  PHE694  ASN695  SER759  ASP760  ASP761  ALA762  ILE779  LEU786  VAL792 
 PHE793  MET794  SER795  GLU796  ALA797  LYS798  CYS799  TRP800  GLU811  SER814 

> <Gold.Protein.RotatedAtoms>
  152.4606  133.7815  159.6852 H   0  0  0  0  0  0  0  0  0  0  0  0  # atno 6907 bound_to 6896
  150.8549  133.7720  159.3018 H   0  0  0  0  0  0  0  0  0  0  0  0  # atno 6908 bound_to 6896
  151.5304  135.1071  159.9953 H   0  0  0  0  0  0  0  0  0  0  0  0  # atno 6909 bound_to 6896
  146.2312  139.9082  142.8528 H   0  0  0  0  0  0  0  0  0  0  0  0  # atno 7974 bound_to 7965
  154.4007  140.1371  156.4014 H   0  0  0  0  0  0  0  0  0  0  0  0  # atno 8008 bound_to 7997
  155.7821  140.3481  155.5282 H   0  0  0  0  0  0  0  0  0  0  0  0  # atno 8009 bound_to 7997
  155.8663  140.0964  157.1570 H   0  0  0  0  0  0  0  0  0  0  0  0  # atno 8010 bound_to 7997
  140.2357  144.3638  150.6398 H   0  0  0  0  0  0  0  0  0  0  0  0  # atno 10167 bound_to 10162
  157.1955  130.6865  149.6167 H   0  0  0  0  0  0  0  0  0  0  0  0  # atno 10718 bound_to 10713
  154.0492  135.6633  153.4798 H   0  0  0  0  0  0  0  0  0  0  0  0  # atno 10763 bound_to 10752
  153.0470  135.5108  154.7767 H   0  0  0  0  0  0  0  0  0  0  0  0  # atno 10764 bound_to 10752
  154.6768  135.3038  154.9634 H   0  0  0  0  0  0  0  0  0  0  0  0  # atno 10765 bound_to 10752
  140.6913  133.9069  155.8620 H   0  0  0  0  0  0  0  0  0  0  0  0  # atno 11005 bound_to 11000
  145.2256  140.9953  143.4020 LP  0  0  0  0  0  0  0  0  0  0  0  0  # atno 17320 bound_to 7965
  144.9573  139.4017  143.6373 LP  0  0  0  0  0  0  0  0  0  0  0  0  # atno 17321 bound_to 7965
  140.6151  143.2172  151.6807 LP  0  0  0  0  0  0  0  0  0  0  0  0  # atno 17342 bound_to 10162
  139.5094  144.3577  152.0592 LP  0  0  0  0  0  0  0  0  0  0  0  0  # atno 17343 bound_to 10162
  155.9706  130.4600  150.6058 LP  0  0  0  0  0  0  0  0  0  0  0  0  # atno 17370 bound_to 10713
  157.3819  131.0782  151.1469 LP  0  0  0  0  0  0  0  0  0  0  0  0  # atno 17371 bound_to 10713
  141.0239  134.0850  157.4090 LP  0  0  0  0  0  0  0  0  0  0  0  0  # atno 17394 bound_to 11000
  139.8923  135.0123  156.6837 LP  0  0  0  0  0  0  0  0  0  0  0  0  # atno 17395 bound_to 11000

$$$$
