AV-unprocessed.smi:2855|AV-procd|sdf|10985|dock5
  -GOLD-   2272015443D 1   1.00000     0.00000
 Structure written by MMmdl.
 46 47  0  0  0  0  0  0  0  0  2 V2000
  143.2736  134.8180  152.1382 C   0  0  0  0  0  0  0  0  0  0  0  0
  144.7598  134.8852  152.5172 C   0  0  2  0  0  0  0  0  0  0  0  0
  145.5221  133.6400  152.0382 C   0  0  0  0  0  0  0  0  0  0  0  0
  147.0103  133.7041  152.4162 C   0  0  0  0  0  0  0  0  0  0  0  0
  147.2277  133.8790  153.9409 C   0  0  1  0  0  0  0  0  0  0  0  0
  148.7394  133.9043  154.3288 C   0  0  0  0  0  0  0  0  0  0  0  0
  149.4571  132.5833  153.9913 C   0  0  0  0  0  0  0  0  0  0  0  0
  148.9690  134.2269  155.8185 C   0  0  0  0  0  0  0  0  0  0  0  0
  146.4309  135.1147  154.4482 C   0  0  1  0  0  0  0  0  0  0  0  0
  147.0529  136.3597  153.9986 N   0  0  0  0  0  0  0  0  0  0  0  0
  147.0510  137.5207  154.6687 C   0  0  0  0  0  0  0  0  0  0  0  0
  146.4594  137.6871  155.7359 O   0  0  0  0  0  0  0  0  0  0  0  0
  147.8220  138.6751  154.0178 C   0  0  0  0  0  0  0  0  0  0  0  0
  149.2140  138.7500  154.4875 N   0  0  0  0  0  0  0  0  0  0  0  0
  149.8970  137.5414  154.7101 C   0  0  0  0  0  0  0  0  0  0  0  0
  151.1759  137.5157  155.1308 C   0  0  0  0  0  0  0  0  0  0  0  0
  151.8540  138.7861  155.3565 C   0  0  0  0  0  0  0  0  0  0  0  0
  153.0204  138.7818  155.7455 O   0  0  0  0  0  0  0  0  0  0  0  0
  151.1499  139.9320  155.1220 N   0  5  0  0  0  0  0  0  0  0  0  0
  149.8502  139.9432  154.6920 C   0  0  0  0  0  0  0  0  0  0  0  0
  149.2337  140.9892  154.4834 O   0  0  0  0  0  0  0  0  0  0  0  0
  144.9452  135.0592  154.0347 C   0  0  0  0  0  0  0  0  0  0  0  0
  142.7808  133.9692  152.6132 H   0  0  0  0  0  0  0  0  0  0  0  0
  143.1474  134.7164  151.0600 H   0  0  0  0  0  0  0  0  0  0  0  0
  142.7494  135.7228  152.4467 H   0  0  0  0  0  0  0  0  0  0  0  0
  145.1849  135.7563  152.0168 H   0  0  0  0  0  0  0  0  0  0  0  0
  145.0763  132.7433  152.4712 H   0  0  0  0  0  0  0  0  0  0  0  0
  145.4264  133.5389  150.9564 H   0  0  0  0  0  0  0  0  0  0  0  0
  147.4802  132.7880  152.0616 H   0  0  0  0  0  0  0  0  0  0  0  0
  147.4891  134.5221  151.8762 H   0  0  0  0  0  0  0  0  0  0  0  0
  146.7895  133.0050  154.4257 H   0  0  0  0  0  0  0  0  0  0  0  0
  149.2318  134.6889  153.7527 H   0  0  0  0  0  0  0  0  0  0  0  0
  148.9588  131.7311  154.4542 H   0  0  0  0  0  0  0  0  0  0  0  0
  150.4881  132.5942  154.3464 H   0  0  0  0  0  0  0  0  0  0  0  0
  149.5045  132.4057  152.9179 H   0  0  0  0  0  0  0  0  0  0  0  0
  148.4287  133.5332  156.4633 H   0  0  0  0  0  0  0  0  0  0  0  0
  148.6524  135.2390  156.0699 H   0  0  0  0  0  0  0  0  0  0  0  0
  150.0264  134.1639  156.0768 H   0  0  0  0  0  0  0  0  0  0  0  0
  146.4464  135.1001  155.5387 H   0  0  0  0  0  0  0  0  0  0  0  0
  147.5615  136.3227  153.1273 H   0  0  0  0  0  0  0  0  0  0  0  0
  147.8001  138.5779  152.9304 H   0  0  0  0  0  0  0  0  0  0  0  0
  147.2912  139.6032  154.2335 H   0  0  0  0  0  0  0  0  0  0  0  0
  149.3253  136.6465  154.5130 H   0  0  0  0  0  0  0  0  0  0  0  0
  151.6874  136.5786  155.2934 H   0  0  0  0  0  0  0  0  0  0  0  0
  144.4292  135.9581  154.3748 H   0  0  0  0  0  0  0  0  0  0  0  0
  144.4666  134.2268  154.5523 H   0  0  0  0  0  0  0  0  0  0  0  0
  1  2  1  0  0  0  0
  1 23  1  0  0  0  0
  1 24  1  0  0  0  0
  1 25  1  0  0  0  0
  2 22  1  0  0  0  0
  2  3  1  0  0  0  0
  2 26  1  0  0  0  0
  3  4  1  0  0  0  0
  3 27  1  0  0  0  0
  3 28  1  0  0  0  0
  4  5  1  0  0  0  0
  4 29  1  0  0  0  0
  4 30  1  0  0  0  0
  5  6  1  0  0  0  0
  5  9  1  0  0  0  0
  5 31  1  0  0  0  0
  6  7  1  0  0  0  0
  6  8  1  0  0  0  0
  6 32  1  0  0  0  0
  7 33  1  0  0  0  0
  7 34  1  0  0  0  0
  7 35  1  0  0  0  0
  8 36  1  0  0  0  0
  8 37  1  0  0  0  0
  8 38  1  0  0  0  0
  9 10  1  0  0  0  0
  9 22  1  0  0  0  0
  9 39  1  0  0  0  0
 10 11  1  0  0  0  0
 10 40  1  0  0  0  0
 11 12  2  0  0  0  0
 11 13  1  0  0  0  0
 13 14  1  0  0  0  0
 13 41  1  0  0  0  0
 13 42  1  0  0  0  0
 14 20  1  0  0  0  0
 14 15  1  0  0  0  0
 15 16  2  0  0  0  0
 15 43  1  0  0  0  0
 16 17  1  0  0  0  0
 16 44  1  0  0  0  0
 17 18  2  0  0  0  0
 17 19  1  0  0  0  0
 19 20  1  0  0  0  0
 20 21  2  0  0  0  0
 22 45  1  0  0  0  0
 22 46  1  0  0  0  0
M  CHG  1  19  -1
M  END
> <s_m_source_file>
AV-unprocessed.smi

> <i_m_source_file_index>
2855

> <i_lp_mmshare_version>
43012

> <i_f3d_flags>
0

> <s_epik_input>
W0NIM11bQ0BASF0xW0NIMl1bQ0gyXVtDQEBIXShbQ0hdKFtDSDNdKVtDSDNdKVtDQEhdKFtDSDJdMSlbTkhdQyg9TylbQ0gyXW4yW2NIXVtjSF1jKD1PKVtuSF1jMj1P

> <s_epik_cmdline>
J2VwaWtfcHl0aG9uJywgJy1waCcsICc3LjAnLCAnLXRuJywgJzgnLCAnLW1hJywgJzIwMCcsICctbWV0YWxfYmluZGluZycsICctaW1hZScsICc8aW5maWxlLm1hZT4nLCAnLW9tYWUnLCAnPG91dGZpbGUubWFlPic=

> <r_lp_tautomer_probability>
0.999537

> <r_epik_Ionization_Penalty>
3.12102

> <r_epik_Ionization_Penalty_Charging>
2.9581e-08

> <r_epik_Ionization_Penalty_Neutral>
3.12102

> <r_epik_State_Penalty>
3.12011

> <r_epik_Charging_Adjusted_Penalty>
3.12011

> <i_epik_Tot_Q>
-1

> <i_epik_Tot_abs_Q>
1

> <r_epik_Metal_State_Penalty>
0.463583

> <b_epik_Metal_Only>
1

> <s_lp_Force_Field>
OPLS_2005

> <r_lp_Energy>
22.0986

> <b_lp_Chiralities_Consistent>
1

> <s_lp_Variant>
AV-unprocessed.smi:2855-9

> <Gold.Version>
5.8.1

> <Gold.Id.Protein>
6NUR|6NUR_protein|mol2

> <Gold.PLP.Fitness>
40.4798

> <Gold.PLP.PLP>
-30.7904

> <Gold.PLP.part.hbond>
-3.9570

> <Gold.PLP.part.metal>
0.0000

> <Gold.PLP.part.buried>
-0.8484

> <Gold.PLP.part.nonpolar>
-25.5916

> <Gold.PLP.part.repulsive>
0.2446

> <Gold.PLP.ligand.clash>
0.0000

> <Gold.PLP.ligand.torsion>
1.1213

> <Gold.PLP.Chemscore.Hbond>
3.2990

> <Gold.PLP.Chemscore.CHOScore>
0.6649

> <Gold.PLP.Chemscore.Metal>
0.0000

> <Gold.Chemscore.Hbonds>
donor molecule, donor type, donor heavy atom, donor atom, acceptor molecule, acceptor atom, score
      L1  H    10    40       P1  7948  1.00
      P1  H  7989  7998       L1    19  0.45
      P1  H  7997  8008       L1    18  1.00
      L1  C    15    43       P1  7948  0.39

> <Gold.PLP.Chemscore.Internal.Correction>
0.0403

> <Gold.Rescore>
     Score         DG    S(hbond)    S(metal)    S(lipo)     H(rot)  DE(clash)    DE(int)     intcor
     14.83     -16.92       2.98        0.00      52.27       1.81       1.03       1.06       ----

> <Gold.Chemscore.Fitness>
14.8309

> <Gold.Chemscore.DG>
-16.9169

> <Gold.Chemscore.ZeroCoef>
-5.4800

> <Gold.Chemscore.Hbond>
2.9806

> <Gold.Chemscore.Metal>
0.0000

> <Gold.Chemscore.Lipo>
52.2666

> <Gold.Chemscore.Internal_Hbond>
0.0000

> <Gold.Chemscore.DEClash>
1.0279

> <Gold.Chemscore.DEInternal>
1.0581

> <Gold.Chemscore.Rot>
1.8100

> <Gold.Chemscore.Internal.Correction>
   9.000000E+99

> <Gold.Chemscore.Hbonds>
donor molecule, donor type, donor heavy atom, donor atom, acceptor molecule, acceptor atom, score
      L1  H    10    40       P1  7948  1.00
      P1  H  7989  7998       L1    19  0.01
      P1  H  7997  8008       L1    18  0.98

> <Gold.Chemscore.Hbond.Weighted>
-9.9552

> <Gold.Chemscore.Metal.Weighted>
-0.0000

> <Gold.Chemscore.Lipo.Weighted>
-6.1152

> <Gold.Chemscore.Internal_Hbond.Weighted>
0.0000

> <Gold.Chemscore.DEClash.Weighted>
1.0279

> <Gold.Chemscore.DEInternal.Weighted>
1.0581

> <Gold.Chemscore.Rot.Weighted>
4.6335

> <Gold.Chemscore.Internal.Correction.Weighted>
   9.000000E+99

> <Gold.Protein.RotatedTorsions>
[ 6907 6896 6895 6894 ] final -158.43 input  -60.11 | X-H torsion
[ 7974 7965 7964 7962 ] final  176.83 input  175.53 | X-H torsion
[ 8008 7997 7996 7995 ] final  -35.79 input   59.86 | X-H torsion
[ 10167 10162 10161 10158 ] final  178.00 input  -65.29 | X-H torsion
[ 10718 10713 10712 10709 ] final -152.04 input   66.30 | X-H torsion
[ 10763 10752 10751 10750 ] final  153.44 input  -60.55 | X-H torsion
[ 11005 11000 10999 10996 ] final  172.79 input  -57.11 | X-H torsion

> <Gold.Protein.ActiveResidues>
 VAL166  LYS551  ARG553  GLY616  TRP617  ASP618  TYR619  PRO620  LYS621  CYS622 
 ASP623  PHE694  ASN695  SER759  ASP760  ASP761  ALA762  ILE779  LEU786  VAL792 
 PHE793  MET794  SER795  GLU796  ALA797  LYS798  CYS799  TRP800  GLU811  SER814 

> <Gold.Protein.RotatedAtoms>
  151.3181  133.4052  159.2651 H   0  0  0  0  0  0  0  0  0  0  0  0  # atno 6907 bound_to 6896
  151.0058  134.9358  159.7990 H   0  0  0  0  0  0  0  0  0  0  0  0  # atno 6908 bound_to 6896
  152.5287  134.3145  159.9178 H   0  0  0  0  0  0  0  0  0  0  0  0  # atno 6909 bound_to 6896
  144.7178  140.0156  143.6440 H   0  0  0  0  0  0  0  0  0  0  0  0  # atno 7974 bound_to 7965
  154.4087  140.1648  156.2268 H   0  0  0  0  0  0  0  0  0  0  0  0  # atno 8008 bound_to 7997
  155.9317  140.3414  155.6231 H   0  0  0  0  0  0  0  0  0  0  0  0  # atno 8009 bound_to 7997
  155.7099  140.0755  157.2366 H   0  0  0  0  0  0  0  0  0  0  0  0  # atno 8010 bound_to 7997
  139.5276  144.2731  152.0611 H   0  0  0  0  0  0  0  0  0  0  0  0  # atno 10167 bound_to 10162
  156.4673  130.8241  151.2471 H   0  0  0  0  0  0  0  0  0  0  0  0  # atno 10718 bound_to 10713
  154.1363  135.2823  155.3172 H   0  0  0  0  0  0  0  0  0  0  0  0  # atno 10763 bound_to 10752
  154.6319  135.5432  153.7694 H   0  0  0  0  0  0  0  0  0  0  0  0  # atno 10764 bound_to 10752
  153.0265  135.6465  154.1511 H   0  0  0  0  0  0  0  0  0  0  0  0  # atno 10765 bound_to 10752
  140.3335  134.7337  157.4151 H   0  0  0  0  0  0  0  0  0  0  0  0  # atno 11005 bound_to 11000
  146.0222  139.3261  143.0806 LP  0  0  0  0  0  0  0  0  0  0  0  0  # atno 17320 bound_to 7965
  145.8554  140.9505  143.0728 LP  0  0  0  0  0  0  0  0  0  0  0  0  # atno 17321 bound_to 7965
  140.2190  144.4486  150.6351 LP  0  0  0  0  0  0  0  0  0  0  0  0  # atno 17342 bound_to 10162
  140.6431  143.2207  151.6246 LP  0  0  0  0  0  0  0  0  0  0  0  0  # atno 17343 bound_to 10162
  157.7494  131.0088  150.3241 LP  0  0  0  0  0  0  0  0  0  0  0  0  # atno 17370 bound_to 10713
  156.3655  130.3854  149.7217 LP  0  0  0  0  0  0  0  0  0  0  0  0  # atno 17371 bound_to 10713
  140.0841  134.5691  155.8510 LP  0  0  0  0  0  0  0  0  0  0  0  0  # atno 17394 bound_to 11000
  141.2057  133.6649  156.6198 LP  0  0  0  0  0  0  0  0  0  0  0  0  # atno 17395 bound_to 11000

$$$$
