AV-unprocessed.smi:3149|AV-procd|sdf|11999|dock5
  -GOLD-   2272017403D 1   1.00000     0.00000
 Structure written by MMmdl.
 38 39  0  0  0  0  0  0  0  0  2 V2000
  148.7699  141.3556  157.9858 C   0  0  0  0  0  0  0  0  0  0  0  0
  150.1665  141.8399  157.5631 C   0  0  2  0  0  0  0  0  0  0  0  0
  150.2243  143.3114  157.7235 N   0  3  0  0  0  0  0  0  0  0  0  0
  151.5816  143.8914  157.6840 C   0  0  0  0  0  0  0  0  0  0  0  0
  152.1060  144.1556  159.0971 C   0  0  0  0  0  0  0  0  0  0  0  0
  151.7452  145.1569  159.7154 O   0  0  0  0  0  0  0  0  0  0  0  0
  152.9316  143.1883  159.6743 N   0  0  0  0  0  0  0  0  0  0  0  0
  152.6976  141.7667  159.4679 C   0  0  0  0  0  0  0  0  0  0  0  0
  153.3072  141.5743  160.8601 C   0  0  0  0  0  0  0  0  0  0  0  0
  153.0420  143.0606  161.1199 C   0  0  0  0  0  0  0  0  0  0  0  0
  150.5262  141.4401  156.1062 C   0  0  2  0  0  0  0  0  0  0  0  0
  149.3197  141.4843  155.1488 C   0  0  0  0  0  0  0  0  0  0  0  0
  151.1545  140.1244  156.0527 N   0  0  0  0  0  0  0  0  0  0  0  0
  151.6436  139.3702  157.0998 C   0  0  0  0  0  0  0  0  0  0  0  0
  152.1174  138.2019  156.5758 C   0  0  0  0  0  0  0  0  0  0  0  0
  151.8768  138.3344  155.1801 C   0  0  0  0  0  0  0  0  0  0  0  0
  151.3003  139.4843  154.8703 N   0  0  0  0  0  0  0  0  0  0  0  0
  148.7040  140.2679  157.9932 H   0  0  0  0  0  0  0  0  0  0  0  0
  147.9971  141.7338  157.3155 H   0  0  0  0  0  0  0  0  0  0  0  0
  148.5286  141.6943  158.9940 H   0  0  0  0  0  0  0  0  0  0  0  0
  150.8892  141.3790  158.2390 H   0  0  0  0  0  0  0  0  0  0  0  0
  149.6827  143.7309  156.9814 H   0  0  0  0  0  0  0  0  0  0  0  0
  152.2597  143.2087  157.1706 H   0  0  0  0  0  0  0  0  0  0  0  0
  151.5543  144.8190  157.1124 H   0  0  0  0  0  0  0  0  0  0  0  0
  151.6398  141.4998  159.4204 H   0  0  0  0  0  0  0  0  0  0  0  0
  153.2802  141.3329  158.6545 H   0  0  0  0  0  0  0  0  0  0  0  0
  152.7445  140.9000  161.5064 H   0  0  0  0  0  0  0  0  0  0  0  0
  154.3689  141.3219  160.8367 H   0  0  0  0  0  0  0  0  0  0  0  0
  153.8833  143.6049  161.5502 H   0  0  0  0  0  0  0  0  0  0  0  0
  152.1053  143.2425  161.6509 H   0  0  0  0  0  0  0  0  0  0  0  0
  151.2624  142.1537  155.7329 H   0  0  0  0  0  0  0  0  0  0  0  0
  148.9365  142.4972  155.0288 H   0  0  0  0  0  0  0  0  0  0  0  0
  148.5013  140.8583  155.5061 H   0  0  0  0  0  0  0  0  0  0  0  0
  149.5972  141.1308  154.1551 H   0  0  0  0  0  0  0  0  0  0  0  0
  151.6114  139.7211  158.1208 H   0  0  0  0  0  0  0  0  0  0  0  0
  152.5693  137.3782  157.1085 H   0  0  0  0  0  0  0  0  0  0  0  0
  152.1007  137.6339  154.3892 H   0  0  0  0  0  0  0  0  0  0  0  0
  149.8007  143.5601  158.6060 H   0  0  0  0  0  0  0  0  0  0  0  0
  1  2  1  0  0  0  0
  1 18  1  0  0  0  0
  1 19  1  0  0  0  0
  1 20  1  0  0  0  0
  2  3  1  0  0  0  0
  2 11  1  0  0  0  0
  2 21  1  0  0  0  0
  3  4  1  0  0  0  0
  3 22  1  0  0  0  0
  3 38  1  0  0  0  0
  4  5  1  0  0  0  0
  4 23  1  0  0  0  0
  4 24  1  0  0  0  0
  5  6  2  0  0  0  0
  5  7  1  0  0  0  0
  7 10  1  0  0  0  0
  7  8  1  0  0  0  0
  8  9  1  0  0  0  0
  8 25  1  0  0  0  0
  8 26  1  0  0  0  0
  9 10  1  0  0  0  0
  9 27  1  0  0  0  0
  9 28  1  0  0  0  0
 10 29  1  0  0  0  0
 10 30  1  0  0  0  0
 11 12  1  0  0  0  0
 11 13  1  0  0  0  0
 11 31  1  0  0  0  0
 12 32  1  0  0  0  0
 12 33  1  0  0  0  0
 12 34  1  0  0  0  0
 13 17  1  0  0  0  0
 13 14  1  0  0  0  0
 14 15  2  0  0  0  0
 14 35  1  0  0  0  0
 15 16  1  0  0  0  0
 15 36  1  0  0  0  0
 16 17  2  0  0  0  0
 16 37  1  0  0  0  0
M  CHG  1   3   1
M  END
> <s_m_source_file>
AV-unprocessed.smi

> <i_m_source_file_index>
3149

> <i_lp_mmshare_version>
43012

> <i_f3d_flags>
0

> <s_epik_input>
bjFbY0hdW2NIXVtjSF1uMVtDQEBIXShbQ0gzXSlbQ0BIXShbQ0gzXSlbTkhdW0NIMl1DKD1PKU4yW0NIMl1bQ0gyXVtDSDJdMg==

> <s_epik_cmdline>
J2VwaWtfcHl0aG9uJywgJy1waCcsICc3LjAnLCAnLXRuJywgJzgnLCAnLW1hJywgJzIwMCcsICctbWV0YWxfYmluZGluZycsICctaW1hZScsICc8aW5maWxlLm1hZT4nLCAnLW9tYWUnLCAnPG91dGZpbGUubWFlPic=

> <r_lp_tautomer_probability>
1

> <r_epik_Ionization_Penalty>
0.141739

> <r_epik_Ionization_Penalty_Charging>
0.141731

> <r_epik_Ionization_Penalty_Neutral>
8.82171e-06

> <r_epik_State_Penalty>
0.131043

> <r_epik_Charging_Adjusted_Penalty>
0.272773

> <i_epik_Tot_Q>
1

> <i_epik_Tot_abs_Q>
1

> <r_epik_Metal_State_Penalty>
0.131384

> <b_epik_Metal_Only>
0

> <s_lp_Force_Field>
OPLS_2005

> <r_lp_Energy>
21.2317

> <b_lp_Chiralities_Consistent>
1

> <s_lp_Variant>
AV-unprocessed.smi:3149-1

> <Gold.Version>
5.8.1

> <Gold.Id.Protein>
6NUR|6NUR_protein|mol2

> <Gold.PLP.Fitness>
49.4266

> <Gold.PLP.PLP>
-43.7357

> <Gold.PLP.part.hbond>
-1.9565

> <Gold.PLP.part.metal>
0.0000

> <Gold.PLP.part.buried>
-4.5085

> <Gold.PLP.part.nonpolar>
-37.3468

> <Gold.PLP.part.repulsive>
0.2029

> <Gold.PLP.ligand.clash>
0.0000

> <Gold.PLP.ligand.torsion>
2.1157

> <Gold.PLP.Chemscore.Hbond>
3.0000

> <Gold.PLP.Chemscore.CHOScore>
0.0000

> <Gold.PLP.Chemscore.Metal>
0.0000

> <Gold.Chemscore.Hbonds>
donor molecule, donor type, donor heavy atom, donor atom, acceptor molecule, acceptor atom, score
      L1  H     3    22       P1  8028  2.00
      P1  H  7989  7998       L1    17  1.00

> <Gold.PLP.Chemscore.Internal.Correction>
0.9223

> <Gold.Rescore>
     Score         DG    S(hbond)    S(metal)    S(lipo)     H(rot)  DE(clash)    DE(int)     intcor
     15.20     -17.16       1.80        0.00      89.02       1.85       0.00       1.96       ----

> <Gold.Chemscore.Fitness>
15.1998

> <Gold.Chemscore.DG>
-17.1620

> <Gold.Chemscore.ZeroCoef>
-5.4800

> <Gold.Chemscore.Hbond>
1.8006

> <Gold.Chemscore.Metal>
0.0000

> <Gold.Chemscore.Lipo>
89.0180

> <Gold.Chemscore.Internal_Hbond>
0.0000

> <Gold.Chemscore.DEClash>
0.0021

> <Gold.Chemscore.DEInternal>
1.9601

> <Gold.Chemscore.Rot>
1.8544

> <Gold.Chemscore.Internal.Correction>
   9.000000E+99

> <Gold.Chemscore.Hbonds>
donor molecule, donor type, donor heavy atom, donor atom, acceptor molecule, acceptor atom, score
      L1  H     3    22       P1  8028  0.94
      P1  H  7989  7998       L1    17  0.59

> <Gold.Chemscore.Hbond.Weighted>
-6.0141

> <Gold.Chemscore.Metal.Weighted>
-0.0000

> <Gold.Chemscore.Lipo.Weighted>
-10.4151

> <Gold.Chemscore.Internal_Hbond.Weighted>
0.0000

> <Gold.Chemscore.DEClash.Weighted>
0.0021

> <Gold.Chemscore.DEInternal.Weighted>
1.9601

> <Gold.Chemscore.Rot.Weighted>
4.7472

> <Gold.Chemscore.Internal.Correction.Weighted>
   9.000000E+99

> <Gold.Protein.RotatedTorsions>
[ 6907 6896 6895 6894 ] final -133.69 input  -60.11 | X-H torsion
[ 7974 7965 7964 7962 ] final  179.88 input  175.53 | X-H torsion
[ 8008 7997 7996 7995 ] final -131.26 input   59.86 | X-H torsion
[ 10167 10162 10161 10158 ] final  179.98 input  -65.29 | X-H torsion
[ 10718 10713 10712 10709 ] final  -84.99 input   66.30 | X-H torsion
[ 10763 10752 10751 10750 ] final -125.96 input  -60.55 | X-H torsion
[ 11005 11000 10999 10996 ] final    3.48 input  -57.11 | X-H torsion

> <Gold.Protein.ActiveResidues>
 VAL166  LYS551  ARG553  GLY616  TRP617  ASP618  TYR619  PRO620  LYS621  CYS622 
 ASP623  PHE694  ASN695  SER759  ASP760  ASP761  ALA762  ILE779  LEU786  VAL792 
 PHE793  MET794  SER795  GLU796  ALA797  LYS798  CYS799  TRP800  GLU811  SER814 

> <Gold.Protein.RotatedAtoms>
  150.9770  133.6285  159.2728 H   0  0  0  0  0  0  0  0  0  0  0  0  # atno 6907 bound_to 6896
  151.3553  135.0892  159.9426 H   0  0  0  0  0  0  0  0  0  0  0  0  # atno 6908 bound_to 6896
  152.5202  133.9354  159.7655 H   0  0  0  0  0  0  0  0  0  0  0  0  # atno 6909 bound_to 6896
  144.7142  140.0615  143.6432 H   0  0  0  0  0  0  0  0  0  0  0  0  # atno 7974 bound_to 7965
  155.3095  140.0456  157.3034 H   0  0  0  0  0  0  0  0  0  0  0  0  # atno 8008 bound_to 7997
  154.5441  140.2297  155.8559 H   0  0  0  0  0  0  0  0  0  0  0  0  # atno 8009 bound_to 7997
  156.1908  140.3051  155.9335 H   0  0  0  0  0  0  0  0  0  0  0  0  # atno 8010 bound_to 7997
  139.5360  144.2495  152.0795 H   0  0  0  0  0  0  0  0  0  0  0  0  # atno 10167 bound_to 10162
  156.0001  130.4716  150.4495 H   0  0  0  0  0  0  0  0  0  0  0  0  # atno 10718 bound_to 10713
  154.8741  135.4011  154.3353 H   0  0  0  0  0  0  0  0  0  0  0  0  # atno 10763 bound_to 10752
  153.4161  135.7022  153.6331 H   0  0  0  0  0  0  0  0  0  0  0  0  # atno 10764 bound_to 10752
  153.5013  135.3727  155.2511 H   0  0  0  0  0  0  0  0  0  0  0  0  # atno 10765 bound_to 10752
  140.5926  133.9909  155.8096 H   0  0  0  0  0  0  0  0  0  0  0  0  # atno 11005 bound_to 11000
  145.9860  139.2978  143.1013 LP  0  0  0  0  0  0  0  0  0  0  0  0  # atno 17320 bound_to 7965
  145.8957  140.9275  143.0529 LP  0  0  0  0  0  0  0  0  0  0  0  0  # atno 17321 bound_to 7965
  140.1966  144.4699  150.6452 LP  0  0  0  0  0  0  0  0  0  0  0  0  # atno 17342 bound_to 10162
  140.6567  143.2239  151.5952 LP  0  0  0  0  0  0  0  0  0  0  0  0  # atno 17343 bound_to 10162
  157.2529  131.0550  151.2368 LP  0  0  0  0  0  0  0  0  0  0  0  0  # atno 17370 bound_to 10713
  157.3511  130.7082  149.6441 LP  0  0  0  0  0  0  0  0  0  0  0  0  # atno 17371 bound_to 10713
  141.0925  133.9895  157.3214 LP  0  0  0  0  0  0  0  0  0  0  0  0  # atno 17394 bound_to 11000
  139.9267  135.0201  156.8259 LP  0  0  0  0  0  0  0  0  0  0  0  0  # atno 17395 bound_to 11000

$$$$
