AV-unprocessed.smi:3110|AV-procd|sdf|11828|dock8
  -GOLD-   2272017203D 1   1.00000     0.00000
 Structure written by MMmdl.
 34 35  0  0  0  0  0  0  0  0  2 V2000
  152.6325  139.5661  157.0019 O   0  0  0  0  0  0  0  0  0  0  0  0
  151.7726  140.3740  157.3542 C   0  0  0  0  0  0  0  0  0  0  0  0
  151.7309  140.8867  158.7981 C   0  0  0  0  0  0  0  0  0  0  0  0
  152.5549  142.1725  159.0201 C   0  0  2  0  0  0  0  0  0  0  0  0
  152.6535  142.5414  160.4778 C   0  0  0  0  0  0  0  0  0  0  0  0
  152.3175  143.8080  160.7131 C   0  0  0  0  0  0  0  0  0  0  0  0
  151.9253  144.5408  159.4604 C   0  0  0  0  0  0  0  0  0  0  0  0
  151.9496  143.4463  158.3707 C   0  0  0  0  0  0  0  0  0  0  0  0
  150.8301  140.8496  156.5257 N   0  0  0  0  0  0  0  0  0  0  0  0
  150.7036  140.4975  155.1168 C   0  0  0  0  0  0  0  0  0  0  0  0
  149.5196  139.5465  154.8743 C   0  0  0  0  0  0  0  0  0  0  0  0
  148.3250  140.2707  154.4384 N   0  0  0  0  0  0  0  0  0  0  0  0
  148.1024  141.6224  154.4969 C   0  0  0  0  0  0  0  0  0  0  0  0
  146.8528  141.8348  153.9736 C   0  0  0  0  0  0  0  0  0  0  0  0
  146.3667  140.6050  153.6181 N   0  3  0  0  0  0  0  0  0  0  0  0
  147.2641  139.6550  153.9013 C   0  0  0  0  0  0  0  0  0  0  0  0
  150.6948  141.0601  159.0939 H   0  0  0  0  0  0  0  0  0  0  0  0
  152.1073  140.0933  159.4446 H   0  0  0  0  0  0  0  0  0  0  0  0
  153.5755  142.0259  158.6632 H   0  0  0  0  0  0  0  0  0  0  0  0
  152.9815  141.8371  161.2283 H   0  0  0  0  0  0  0  0  0  0  0  0
  152.3305  144.2869  161.6813 H   0  0  0  0  0  0  0  0  0  0  0  0
  150.9364  144.9875  159.5663 H   0  0  0  0  0  0  0  0  0  0  0  0
  152.6467  145.3321  159.2545 H   0  0  0  0  0  0  0  0  0  0  0  0
  152.5247  143.7608  157.4992 H   0  0  0  0  0  0  0  0  0  0  0  0
  150.9305  143.2592  158.0292 H   0  0  0  0  0  0  0  0  0  0  0  0
  150.1611  141.5095  156.8960 H   0  0  0  0  0  0  0  0  0  0  0  0
  150.5646  141.4173  154.5479 H   0  0  0  0  0  0  0  0  0  0  0  0
  151.6344  140.0513  154.7621 H   0  0  0  0  0  0  0  0  0  0  0  0
  149.7593  138.8038  154.1117 H   0  0  0  0  0  0  0  0  0  0  0  0
  149.2692  139.0015  155.7856 H   0  0  0  0  0  0  0  0  0  0  0  0
  148.8298  142.3144  154.8958 H   0  0  0  0  0  0  0  0  0  0  0  0
  146.2877  142.7448  153.8314 H   0  0  0  0  0  0  0  0  0  0  0  0
  147.1539  138.5989  153.7289 H   0  0  0  0  0  0  0  0  0  0  0  0
  145.4597  140.4359  153.2014 H   0  0  0  0  0  0  0  0  0  0  0  0
  1  2  2  0  0  0  0
  2  3  1  0  0  0  0
  2  9  1  0  0  0  0
  3  4  1  0  0  0  0
  3 17  1  0  0  0  0
  3 18  1  0  0  0  0
  4  8  1  0  0  0  0
  4  5  1  0  0  0  0
  4 19  1  0  0  0  0
  5  6  2  0  0  0  0
  5 20  1  0  0  0  0
  6  7  1  0  0  0  0
  6 21  1  0  0  0  0
  7  8  1  0  0  0  0
  7 22  1  0  0  0  0
  7 23  1  0  0  0  0
  8 24  1  0  0  0  0
  8 25  1  0  0  0  0
  9 10  1  0  0  0  0
  9 26  1  0  0  0  0
 10 11  1  0  0  0  0
 10 27  1  0  0  0  0
 10 28  1  0  0  0  0
 11 12  1  0  0  0  0
 11 29  1  0  0  0  0
 11 30  1  0  0  0  0
 12 16  1  0  0  0  0
 12 13  1  0  0  0  0
 13 14  2  0  0  0  0
 13 31  1  0  0  0  0
 14 15  1  0  0  0  0
 14 32  1  0  0  0  0
 15 16  2  0  0  0  0
 15 34  1  0  0  0  0
 16 33  1  0  0  0  0
M  CHG  1  15   1
M  END
> <s_m_source_file>
AV-unprocessed.smi

> <i_m_source_file_index>
3110

> <i_lp_mmshare_version>
43012

> <i_f3d_flags>
0

> <s_epik_input>
W0NIMl0xW0NIMl1bQ0hdPVtDSF1bQ0BIXTFbQ0gyXUMoPU8pW05IXVtDSDJdW0NIMl1uMltjSF1bY0hdbltjSF0y

> <s_epik_cmdline>
J2VwaWtfcHl0aG9uJywgJy1waCcsICc3LjAnLCAnLXRuJywgJzgnLCAnLW1hJywgJzIwMCcsICctbWV0YWxfYmluZGluZycsICctaW1hZScsICc8aW5maWxlLm1hZT4nLCAnLW9tYWUnLCAnPG91dGZpbGUubWFlPic=

> <r_lp_tautomer_probability>
1

> <r_epik_Ionization_Penalty>
0.271094

> <r_epik_Ionization_Penalty_Charging>
0

> <r_epik_Ionization_Penalty_Neutral>
0.271094

> <r_epik_State_Penalty>
0.263241

> <r_epik_Charging_Adjusted_Penalty>
0.263241

> <i_epik_Tot_Q>
1

> <i_epik_Tot_abs_Q>
1

> <r_epik_Metal_State_Penalty>
0.547832

> <b_epik_Metal_Only>
0

> <s_lp_Force_Field>
OPLS_2005

> <r_lp_Energy>
18.4695

> <b_lp_Chiralities_Consistent>
1

> <s_lp_Variant>
AV-unprocessed.smi:3110-1

> <Gold.Version>
5.8.1

> <Gold.Id.Protein>
6NUR|6NUR_protein|mol2

> <Gold.PLP.Fitness>
47.9084

> <Gold.PLP.PLP>
-37.7462

> <Gold.PLP.part.hbond>
-2.0000

> <Gold.PLP.part.metal>
0.0000

> <Gold.PLP.part.buried>
-2.6454

> <Gold.PLP.part.nonpolar>
-33.1048

> <Gold.PLP.part.repulsive>
0.1130

> <Gold.PLP.ligand.clash>
0.0000

> <Gold.PLP.ligand.torsion>
0.9302

> <Gold.PLP.Chemscore.Hbond>
3.0000

> <Gold.PLP.Chemscore.CHOScore>
1.0000

> <Gold.PLP.Chemscore.Metal>
0.0000

> <Gold.Chemscore.Hbonds>
donor molecule, donor type, donor heavy atom, donor atom, acceptor molecule, acceptor atom, score
      L1  H    15    34       P1 10175  2.00
      P1  H  7997  8010       L1     1  1.00
      L1  C    13    31       P1  8028  1.00

> <Gold.PLP.Chemscore.Internal.Correction>
0.0226

> <Gold.Rescore>
     Score         DG    S(hbond)    S(metal)    S(lipo)     H(rot)  DE(clash)    DE(int)     intcor
     16.24     -17.93       1.97        0.00      96.09       2.10       0.87       0.81       ----

> <Gold.Chemscore.Fitness>
16.2449

> <Gold.Chemscore.DG>
-17.9257

> <Gold.Chemscore.ZeroCoef>
-5.4800

> <Gold.Chemscore.Hbond>
1.9670

> <Gold.Chemscore.Metal>
0.0000

> <Gold.Chemscore.Lipo>
96.0885

> <Gold.Chemscore.Internal_Hbond>
0.0000

> <Gold.Chemscore.DEClash>
0.8742

> <Gold.Chemscore.DEInternal>
0.8065

> <Gold.Chemscore.Rot>
2.0963

> <Gold.Chemscore.Internal.Correction>
   9.000000E+99

> <Gold.Chemscore.Hbonds>
donor molecule, donor type, donor heavy atom, donor atom, acceptor molecule, acceptor atom, score
      L1  H    15    34       P1 10175  0.95
      P1  H  7997  8010       L1     1  0.99

> <Gold.Chemscore.Hbond.Weighted>
-6.5698

> <Gold.Chemscore.Metal.Weighted>
-0.0000

> <Gold.Chemscore.Lipo.Weighted>
-11.2424

> <Gold.Chemscore.Internal_Hbond.Weighted>
0.0000

> <Gold.Chemscore.DEClash.Weighted>
0.8742

> <Gold.Chemscore.DEInternal.Weighted>
0.8065

> <Gold.Chemscore.Rot.Weighted>
5.3665

> <Gold.Chemscore.Internal.Correction.Weighted>
   9.000000E+99

> <Gold.Protein.RotatedTorsions>
[ 6907 6896 6895 6894 ] final  -76.10 input  -60.11 | X-H torsion
[ 7974 7965 7964 7962 ] final   77.01 input  175.53 | X-H torsion
[ 8008 7997 7996 7995 ] final   54.67 input   59.86 | X-H torsion
[ 10167 10162 10161 10158 ] final   24.56 input  -65.29 | X-H torsion
[ 10718 10713 10712 10709 ] final -149.76 input   66.30 | X-H torsion
[ 10763 10752 10751 10750 ] final  -69.91 input  -60.55 | X-H torsion
[ 11005 11000 10999 10996 ] final -148.72 input  -57.11 | X-H torsion

> <Gold.Protein.ActiveResidues>
 VAL166  LYS551  ARG553  GLY616  TRP617  ASP618  TYR619  PRO620  LYS621  CYS622 
 ASP623  PHE694  ASN695  SER759  ASP760  ASP761  ALA762  ILE779  LEU786  VAL792 
 PHE793  MET794  SER795  GLU796  ALA797  LYS798  CYS799  TRP800  GLU811  SER814 

> <Gold.Protein.RotatedAtoms>
  150.7038  134.4622  159.5385 H   0  0  0  0  0  0  0  0  0  0  0  0  # atno 6907 bound_to 6896
  152.2295  134.8333  160.0484 H   0  0  0  0  0  0  0  0  0  0  0  0  # atno 6908 bound_to 6896
  151.9154  133.3537  159.3915 H   0  0  0  0  0  0  0  0  0  0  0  0  # atno 6909 bound_to 6896
  145.6955  139.2566  143.1735 H   0  0  0  0  0  0  0  0  0  0  0  0  # atno 7974 bound_to 7965
  155.4885  140.3470  155.4351 H   0  0  0  0  0  0  0  0  0  0  0  0  # atno 8008 bound_to 7997
  156.0992  140.1431  156.9518 H   0  0  0  0  0  0  0  0  0  0  0  0  # atno 8009 bound_to 7997
  154.4683  140.0910  156.7056 H   0  0  0  0  0  0  0  0  0  0  0  0  # atno 8010 bound_to 7997
  140.5178  144.0053  150.6402 H   0  0  0  0  0  0  0  0  0  0  0  0  # atno 10167 bound_to 10162
  156.4373  130.8104  151.2333 H   0  0  0  0  0  0  0  0  0  0  0  0  # atno 10718 bound_to 10713
  154.4102  135.6010  153.5948 H   0  0  0  0  0  0  0  0  0  0  0  0  # atno 10763 bound_to 10752
  152.9790  135.5927  154.4079 H   0  0  0  0  0  0  0  0  0  0  0  0  # atno 10764 bound_to 10752
  154.3890  135.2842  155.2144 H   0  0  0  0  0  0  0  0  0  0  0  0  # atno 10765 bound_to 10752
  140.7583  134.3328  157.5108 H   0  0  0  0  0  0  0  0  0  0  0  0  # atno 11005 bound_to 11000
  146.0844  140.7728  142.9626 LP  0  0  0  0  0  0  0  0  0  0  0  0  # atno 17320 bound_to 7965
  144.6984  140.3539  143.7176 LP  0  0  0  0  0  0  0  0  0  0  0  0  # atno 17321 bound_to 7965
  140.3393  143.3029  152.0605 LP  0  0  0  0  0  0  0  0  0  0  0  0  # atno 17342 bound_to 10162
  139.4914  144.6454  151.6790 LP  0  0  0  0  0  0  0  0  0  0  0  0  # atno 17343 bound_to 10162
  157.7507  131.0179  150.3605 LP  0  0  0  0  0  0  0  0  0  0  0  0  # atno 17370 bound_to 10713
  156.3955  130.3906  149.6998 LP  0  0  0  0  0  0  0  0  0  0  0  0  # atno 17371 bound_to 10713
  139.8775  134.9185  156.3205 LP  0  0  0  0  0  0  0  0  0  0  0  0  # atno 17394 bound_to 11000
  140.9687  133.7341  156.0504 LP  0  0  0  0  0  0  0  0  0  0  0  0  # atno 17395 bound_to 11000

$$$$
