AV-unprocessed.smi:856|AV-procd|sdf|3959|dock10
  -GOLD-   22720 1433D 1   1.00000     0.00000
 Structure written by MMmdl.
 42 44  0  0  0  0  0  0  0  0  1 V2000
  154.6791  139.4380  161.9314 C   0  0  0  0  0  0  0  0  0  0  0  0
  153.8852  140.0071  160.8264 N   0  0  0  0  0  0  0  0  0  0  0  0
  153.4917  139.1737  159.8125 C   0  0  0  0  0  0  0  0  0  0  0  0
  153.7545  137.9723  159.7492 O   0  0  0  0  0  0  0  0  0  0  0  0
  152.7036  139.8388  158.7679 C   0  0  0  0  0  0  0  0  0  0  0  0
  152.3957  141.1589  158.8042 C   0  0  0  0  0  0  0  0  0  0  0  0
  151.6383  141.5308  157.6987 N   0  0  0  0  0  0  0  0  0  0  0  0
  151.5251  140.3791  157.0372 C   0  0  0  0  0  0  0  0  0  0  0  0
  152.1310  139.3181  157.6071 N   0  0  0  0  0  0  0  0  0  0  0  0
  152.1449  137.9601  157.0827 C   0  0  0  0  0  0  0  0  0  0  0  0
  151.7519  137.8936  155.5930 C   0  0  2  0  0  0  0  0  0  0  0  0
  151.8258  136.5548  155.1436 O   0  0  0  0  0  0  0  0  0  0  0  0
  152.6847  138.7453  154.7194 C   0  0  0  0  0  0  0  0  0  0  0  0
  153.9164  138.0550  154.5528 O   0  0  0  0  0  0  0  0  0  0  0  0
  154.8946  138.7771  153.8163 C   0  0  0  0  0  0  0  0  0  0  0  0
  156.2115  138.0895  153.9862 C   0  0  0  0  0  0  0  0  0  0  0  0
  157.4769  138.3588  153.5428 C   0  0  0  0  0  0  0  0  0  0  0  0
  158.3059  137.3146  154.0381 C   0  0  0  0  0  0  0  0  0  0  0  0
  157.4839  136.4861  154.7478 C   0  0  0  0  0  0  0  0  0  0  0  0
  156.2030  136.9453  154.7273 O   0  0  0  0  0  0  0  0  0  0  0  0
  152.8575  141.9312  159.9012 N   0  0  0  0  0  0  0  0  0  0  0  0
  152.5359  143.3601  159.9540 C   0  0  0  0  0  0  0  0  0  0  0  0
  153.5928  141.3575  160.9079 C   0  0  0  0  0  0  0  0  0  0  0  0
  153.9809  142.0385  161.8617 O   0  0  0  0  0  0  0  0  0  0  0  0
  154.9336  138.3836  161.8186 H   0  0  0  0  0  0  0  0  0  0  0  0
  154.1356  139.5290  162.8733 H   0  0  0  0  0  0  0  0  0  0  0  0
  155.6254  139.9712  162.0377 H   0  0  0  0  0  0  0  0  0  0  0  0
  150.9803  140.3034  156.1075 H   0  0  0  0  0  0  0  0  0  0  0  0
  153.1527  137.5635  157.2127 H   0  0  0  0  0  0  0  0  0  0  0  0
  151.4985  137.3263  157.6880 H   0  0  0  0  0  0  0  0  0  0  0  0
  150.7250  138.2449  155.4829 H   0  0  0  0  0  0  0  0  0  0  0  0
  151.2437  136.4554  154.4056 H   0  0  0  0  0  0  0  0  0  0  0  0
  152.2379  138.8849  153.7340 H   0  0  0  0  0  0  0  0  0  0  0  0
  152.8219  139.7373  155.1531 H   0  0  0  0  0  0  0  0  0  0  0  0
  154.6125  138.7701  152.7633 H   0  0  0  0  0  0  0  0  0  0  0  0
  154.9409  139.8212  154.1297 H   0  0  0  0  0  0  0  0  0  0  0  0
  157.7682  139.2022  152.9345 H   0  0  0  0  0  0  0  0  0  0  0  0
  159.3684  137.1852  153.8933 H   0  0  0  0  0  0  0  0  0  0  0  0
  157.6375  135.5726  155.3031 H   0  0  0  0  0  0  0  0  0  0  0  0
  153.4491  143.9566  159.9752 H   0  0  0  0  0  0  0  0  0  0  0  0
  151.9575  143.5895  160.8502 H   0  0  0  0  0  0  0  0  0  0  0  0
  151.9521  143.6946  159.0964 H   0  0  0  0  0  0  0  0  0  0  0  0
  1  2  1  0  0  0  0
  1 25  1  0  0  0  0
  1 26  1  0  0  0  0
  1 27  1  0  0  0  0
  2 23  1  0  0  0  0
  2  3  1  0  0  0  0
  3  4  2  0  0  0  0
  3  5  1  0  0  0  0
  5  9  1  0  0  0  0
  5  6  2  0  0  0  0
  6  7  1  0  0  0  0
  6 21  1  0  0  0  0
  7  8  2  0  0  0  0
  8  9  1  0  0  0  0
  8 28  1  0  0  0  0
  9 10  1  0  0  0  0
 10 11  1  0  0  0  0
 10 29  1  0  0  0  0
 10 30  1  0  0  0  0
 11 12  1  0  0  0  0
 11 13  1  0  0  0  0
 11 31  1  0  0  0  0
 12 32  1  0  0  0  0
 13 14  1  0  0  0  0
 13 33  1  0  0  0  0
 13 34  1  0  0  0  0
 14 15  1  0  0  0  0
 15 16  1  0  0  0  0
 15 35  1  0  0  0  0
 15 36  1  0  0  0  0
 16 20  1  0  0  0  0
 16 17  2  0  0  0  0
 17 18  1  0  0  0  0
 17 37  1  0  0  0  0
 18 19  2  0  0  0  0
 18 38  1  0  0  0  0
 19 20  1  0  0  0  0
 19 39  1  0  0  0  0
 21 22  1  0  0  0  0
 21 23  1  0  0  0  0
 22 40  1  0  0  0  0
 22 41  1  0  0  0  0
 22 42  1  0  0  0  0
 23 24  2  0  0  0  0
M  END
> <s_m_source_file>
AV-unprocessed.smi

> <i_m_source_file_index>
856

> <i_lp_mmshare_version>
43012

> <i_f3d_flags>
0

> <s_epik_input>
Tz1jMW4oW0NIM10pYyg9TyluKFtDSDNdKWMoYzEyKW5bY0hdbjJbQ0gyXVtDQEhdKFtPSF0pW0NIMl1PW0NIMl1jM1tjSF1bY0hdW2NIXW8z

> <s_epik_cmdline>
J2VwaWtfcHl0aG9uJywgJy1waCcsICc3LjAnLCAnLXRuJywgJzgnLCAnLW1hJywgJzIwMCcsICctbWV0YWxfYmluZGluZycsICctaW1hZScsICc8aW5maWxlLm1hZT4nLCAnLW9tYWUnLCAnPG91dGZpbGUubWFlPic=

> <r_lp_tautomer_probability>
1

> <r_epik_Ionization_Penalty>
1.33189e-06

> <r_epik_Ionization_Penalty_Charging>
3.64616e-09

> <r_epik_Ionization_Penalty_Neutral>
1.32824e-06

> <r_epik_State_Penalty>
-0

> <r_epik_Charging_Adjusted_Penalty>
3.64616e-09

> <i_epik_Tot_Q>
0

> <i_epik_Tot_abs_Q>
0

> <r_epik_Metal_State_Penalty>
-0

> <b_epik_Metal_Only>
0

> <s_lp_Force_Field>
OPLS_2005

> <r_lp_Energy>
33.5677

> <b_lp_Chiralities_Consistent>
1

> <s_lp_Variant>
AV-unprocessed.smi:856-1

> <Gold.Version>
5.8.1

> <Gold.Id.Protein>
6NUR|6NUR_protein|mol2

> <Gold.PLP.Fitness>
48.6422

> <Gold.PLP.PLP>
-44.7696

> <Gold.PLP.part.hbond>
-4.0000

> <Gold.PLP.part.metal>
0.0000

> <Gold.PLP.part.buried>
-5.7605

> <Gold.PLP.part.nonpolar>
-36.0880

> <Gold.PLP.part.repulsive>
0.0381

> <Gold.PLP.ligand.clash>
0.0000

> <Gold.PLP.ligand.torsion>
0.3981

> <Gold.PLP.Chemscore.Hbond>
1.5356

> <Gold.PLP.Chemscore.CHOScore>
0.0000

> <Gold.PLP.Chemscore.Metal>
0.0000

> <Gold.Chemscore.Hbonds>
donor molecule, donor type, donor heavy atom, donor atom, acceptor molecule, acceptor atom, score
      P1  H 10752 10763       L1    12  0.90
      P1  H 10752 10764       L1    20  0.55

> <Gold.PLP.Chemscore.Internal.Correction>
0.0621

> <Gold.Rescore>
     Score         DG    S(hbond)    S(metal)    S(lipo)     H(rot)  DE(clash)    DE(int)     intcor
     12.46     -12.97       1.67        0.00      85.58       3.16       0.01       0.50       ----

> <Gold.Chemscore.Fitness>
12.4556

> <Gold.Chemscore.DG>
-12.9666

> <Gold.Chemscore.ZeroCoef>
-5.4800

> <Gold.Chemscore.Hbond>
1.6656

> <Gold.Chemscore.Metal>
0.0000

> <Gold.Chemscore.Lipo>
85.5781

> <Gold.Chemscore.Internal_Hbond>
0.0000

> <Gold.Chemscore.DEClash>
0.0149

> <Gold.Chemscore.DEInternal>
0.4962

> <Gold.Chemscore.Rot>
3.1599

> <Gold.Chemscore.Internal.Correction>
   9.000000E+99

> <Gold.Chemscore.Hbonds>
donor molecule, donor type, donor heavy atom, donor atom, acceptor molecule, acceptor atom, score
      P1  H 10752 10763       L1    12  0.60
      P1  H 10752 10764       L1    20  0.43

> <Gold.Chemscore.Hbond.Weighted>
-5.5633

> <Gold.Chemscore.Metal.Weighted>
-0.0000

> <Gold.Chemscore.Lipo.Weighted>
-10.0126

> <Gold.Chemscore.Internal_Hbond.Weighted>
0.0000

> <Gold.Chemscore.DEClash.Weighted>
0.0149

> <Gold.Chemscore.DEInternal.Weighted>
0.4962

> <Gold.Chemscore.Rot.Weighted>
8.0893

> <Gold.Chemscore.Internal.Correction.Weighted>
   9.000000E+99

> <Gold.Protein.RotatedTorsions>
[ 6907 6896 6895 6894 ] final -177.97 input  -60.11 | X-H torsion
[ 7974 7965 7964 7962 ] final -174.83 input  175.53 | X-H torsion
[ 8008 7997 7996 7995 ] final  -34.74 input   59.86 | X-H torsion
[ 10167 10162 10161 10158 ] final  -99.53 input  -65.29 | X-H torsion
[ 10718 10713 10712 10709 ] final  179.59 input   66.30 | X-H torsion
[ 10763 10752 10751 10750 ] final   85.72 input  -60.55 | X-H torsion
[ 11005 11000 10999 10996 ] final  150.13 input  -57.11 | X-H torsion

> <Gold.Protein.ActiveResidues>
 VAL166  LYS551  ARG553  GLY616  TRP617  ASP618  TYR619  PRO620  LYS621  CYS622 
 ASP623  PHE694  ASN695  SER759  ASP760  ASP761  ALA762  ILE779  LEU786  VAL792 
 PHE793  MET794  SER795  GLU796  ALA797  LYS798  CYS799  TRP800  GLU811  SER814 

> <Gold.Protein.RotatedAtoms>
  151.6296  133.3333  159.3105 H   0  0  0  0  0  0  0  0  0  0  0  0  # atno 6907 bound_to 6896
  150.8063  134.7194  159.6659 H   0  0  0  0  0  0  0  0  0  0  0  0  # atno 6908 bound_to 6896
  152.4159  134.6047  160.0061 H   0  0  0  0  0  0  0  0  0  0  0  0  # atno 6909 bound_to 6896
  144.7130  140.1412  143.6391 H   0  0  0  0  0  0  0  0  0  0  0  0  # atno 7974 bound_to 7965
  154.4113  140.1676  156.2099 H   0  0  0  0  0  0  0  0  0  0  0  0  # atno 8008 bound_to 7997
  155.9453  140.3405  155.6338 H   0  0  0  0  0  0  0  0  0  0  0  0  # atno 8009 bound_to 7997
  155.6938  140.0737  157.2428 H   0  0  0  0  0  0  0  0  0  0  0  0  # atno 8010 bound_to 7997
  140.2614  143.3405  152.0622 H   0  0  0  0  0  0  0  0  0  0  0  0  # atno 10167 bound_to 10162
  156.8735  130.9792  151.3070 H   0  0  0  0  0  0  0  0  0  0  0  0  # atno 10718 bound_to 10713
  153.1501  135.4607  154.9624 H   0  0  0  0  0  0  0  0  0  0  0  0  # atno 10763 bound_to 10752
  154.7818  135.3191  154.7976 H   0  0  0  0  0  0  0  0  0  0  0  0  # atno 10764 bound_to 10752
  153.8482  135.6924  153.4849 H   0  0  0  0  0  0  0  0  0  0  0  0  # atno 10765 bound_to 10752
  140.1105  134.8927  157.1929 H   0  0  0  0  0  0  0  0  0  0  0  0  # atno 11005 bound_to 11000
  145.9200  139.2540  143.1387 LP  0  0  0  0  0  0  0  0  0  0  0  0  # atno 17320 bound_to 7965
  145.9630  140.8821  143.0201 LP  0  0  0  0  0  0  0  0  0  0  0  0  # atno 17321 bound_to 7965
  139.5015  144.6716  151.6229 LP  0  0  0  0  0  0  0  0  0  0  0  0  # atno 17342 bound_to 10162
  140.5963  143.9691  150.6356 LP  0  0  0  0  0  0  0  0  0  0  0  0  # atno 17343 bound_to 10162
  157.6182  130.8634  149.9063 LP  0  0  0  0  0  0  0  0  0  0  0  0  # atno 17370 bound_to 10713
  156.0714  130.3684  150.0768 LP  0  0  0  0  0  0  0  0  0  0  0  0  # atno 17371 bound_to 10713
  140.3098  134.3037  155.7269 LP  0  0  0  0  0  0  0  0  0  0  0  0  # atno 17394 bound_to 11000
  141.2129  133.7643  156.9760 LP  0  0  0  0  0  0  0  0  0  0  0  0  # atno 17395 bound_to 11000

$$$$
