AV-unprocessed.smi:1959|AV-procd|sdf|7912|dock3
  -GOLD-   2272010 73D 1   1.00000     0.00000
 Structure written by MMmdl.
 44 45  0  0  0  0  0  0  0  0  1 V2000
  144.8986  135.5313  150.6136 C   0  0  0  0  0  0  0  0  0  0  0  0
  145.5510  134.2736  151.1056 C   0  0  0  0  0  0  0  0  0  0  0  0
  145.0839  132.9348  150.9909 C   0  0  0  0  0  0  0  0  0  0  0  0
  146.0440  132.1877  151.6131 C   0  0  0  0  0  0  0  0  0  0  0  0
  146.1183  130.7120  151.8308 C   0  0  0  0  0  0  0  0  0  0  0  0
  147.0140  133.0694  152.0594 N   0  0  0  0  0  0  0  0  0  0  0  0
  148.2356  132.7994  152.8063 C   0  0  0  0  0  0  0  0  0  0  0  0
  148.2611  133.5768  154.1243 C   0  0  0  0  0  0  0  0  0  0  0  0
  148.2785  132.9744  155.1971 O   0  0  0  0  0  0  0  0  0  0  0  0
  148.2856  134.9148  154.0250 N   0  0  0  0  0  0  0  0  0  0  0  0
  148.4985  135.8464  155.1277 C   0  0  2  0  0  0  0  0  0  0  0  0
  147.6037  135.4426  156.3101 C   0  0  0  0  0  0  0  0  0  0  0  0
  148.1957  137.2853  154.6546 C   0  0  0  0  0  0  0  0  0  0  0  0
  149.0499  138.3358  155.2161 N   0  0  0  0  0  0  0  0  0  0  0  0
  150.4757  138.0233  155.1245 C   0  0  0  0  0  0  0  0  0  0  0  0
  151.3597  139.1591  155.6668 C   0  0  0  0  0  0  0  0  0  0  0  0
  151.0565  140.3715  154.9862 O   0  0  0  0  0  0  0  0  0  0  0  0
  149.6870  140.7385  155.1115 C   0  0  0  0  0  0  0  0  0  0  0  0
  148.8024  139.6115  154.5517 C   0  0  0  0  0  0  0  0  0  0  0  0
  146.7078  134.3469  151.7421 N   0  0  0  0  0  0  0  0  0  0  0  0
  145.5661  136.0912  149.9581 H   0  0  0  0  0  0  0  0  0  0  0  0
  144.6241  136.1804  151.4453 H   0  0  0  0  0  0  0  0  0  0  0  0
  143.9907  135.3105  150.0521 H   0  0  0  0  0  0  0  0  0  0  0  0
  144.1764  132.5777  150.5270 H   0  0  0  0  0  0  0  0  0  0  0  0
  145.2540  130.2115  151.3939 H   0  0  0  0  0  0  0  0  0  0  0  0
  146.1384  130.4745  152.8941 H   0  0  0  0  0  0  0  0  0  0  0  0
  147.0137  130.2949  151.3702 H   0  0  0  0  0  0  0  0  0  0  0  0
  148.3158  131.7310  153.0058 H   0  0  0  0  0  0  0  0  0  0  0  0
  149.0954  133.0736  152.1929 H   0  0  0  0  0  0  0  0  0  0  0  0
  148.2540  135.3150  153.0987 H   0  0  0  0  0  0  0  0  0  0  0  0
  149.5371  135.8007  155.4614 H   0  0  0  0  0  0  0  0  0  0  0  0
  147.7539  136.1077  157.1609 H   0  0  0  0  0  0  0  0  0  0  0  0
  147.8271  134.4295  156.6465 H   0  0  0  0  0  0  0  0  0  0  0  0
  146.5475  135.4793  156.0407 H   0  0  0  0  0  0  0  0  0  0  0  0
  148.2047  137.3332  153.5643 H   0  0  0  0  0  0  0  0  0  0  0  0
  147.1682  137.5104  154.9432 H   0  0  0  0  0  0  0  0  0  0  0  0
  150.7018  137.1229  155.6932 H   0  0  0  0  0  0  0  0  0  0  0  0
  150.7445  137.8197  154.0868 H   0  0  0  0  0  0  0  0  0  0  0  0
  151.2071  139.2872  156.7395 H   0  0  0  0  0  0  0  0  0  0  0  0
  152.4131  138.9208  155.5192 H   0  0  0  0  0  0  0  0  0  0  0  0
  149.4485  140.9362  156.1578 H   0  0  0  0  0  0  0  0  0  0  0  0
  149.5145  141.6641  154.5623 H   0  0  0  0  0  0  0  0  0  0  0  0
  148.9848  139.5118  153.4805 H   0  0  0  0  0  0  0  0  0  0  0  0
  147.7541  139.8901  154.6644 H   0  0  0  0  0  0  0  0  0  0  0  0
  1  2  1  0  0  0  0
  1 21  1  0  0  0  0
  1 22  1  0  0  0  0
  1 23  1  0  0  0  0
  2 20  2  0  0  0  0
  2  3  1  0  0  0  0
  3  4  2  0  0  0  0
  3 24  1  0  0  0  0
  4  5  1  0  0  0  0
  4  6  1  0  0  0  0
  5 25  1  0  0  0  0
  5 26  1  0  0  0  0
  5 27  1  0  0  0  0
  6  7  1  0  0  0  0
  6 20  1  0  0  0  0
  7  8  1  0  0  0  0
  7 28  1  0  0  0  0
  7 29  1  0  0  0  0
  8  9  2  0  0  0  0
  8 10  1  0  0  0  0
 10 11  1  0  0  0  0
 10 30  1  0  0  0  0
 11 12  1  0  0  0  0
 11 13  1  0  0  0  0
 11 31  1  0  0  0  0
 12 32  1  0  0  0  0
 12 33  1  0  0  0  0
 12 34  1  0  0  0  0
 13 14  1  0  0  0  0
 13 35  1  0  0  0  0
 13 36  1  0  0  0  0
 14 19  1  0  0  0  0
 14 15  1  0  0  0  0
 15 16  1  0  0  0  0
 15 37  1  0  0  0  0
 15 38  1  0  0  0  0
 16 17  1  0  0  0  0
 16 39  1  0  0  0  0
 16 40  1  0  0  0  0
 17 18  1  0  0  0  0
 18 19  1  0  0  0  0
 18 41  1  0  0  0  0
 18 42  1  0  0  0  0
 19 43  1  0  0  0  0
 19 44  1  0  0  0  0
M  END
> <s_m_source_file>
AV-unprocessed.smi

> <i_m_source_file_index>
1959

> <i_lp_mmshare_version>
43012

> <i_f3d_flags>
0

> <s_epik_input>
W0NIM11jMVtjSF1jKFtDSDNdKW4objEpW0NIMl1DKD1PKVtOSF1bQ0BIXShbQ0gzXSlbQ0gyXU4yW0NIMl1bQ0gyXU9bQ0gyXVtDSDJdMg==

> <s_epik_cmdline>
J2VwaWtfcHl0aG9uJywgJy1waCcsICc3LjAnLCAnLXRuJywgJzgnLCAnLW1hJywgJzIwMCcsICctbWV0YWxfYmluZGluZycsICctaW1hZScsICc8aW5maWxlLm1hZT4nLCAnLW9tYWUnLCAnPG91dGZpbGUubWFlPic=

> <r_lp_tautomer_probability>
1

> <r_epik_Ionization_Penalty>
0.197284

> <r_epik_Ionization_Penalty_Charging>
0

> <r_epik_Ionization_Penalty_Neutral>
0.197284

> <r_epik_State_Penalty>
0.186684

> <r_epik_Charging_Adjusted_Penalty>
0.186684

> <i_epik_Tot_Q>
0

> <i_epik_Tot_abs_Q>
0

> <r_epik_Metal_State_Penalty>
0.186639

> <b_epik_Metal_Only>
0

> <s_lp_Force_Field>
OPLS_2005

> <r_lp_Energy>
23.1408

> <b_lp_Chiralities_Consistent>
1

> <s_lp_Variant>
AV-unprocessed.smi:1959-1

> <Gold.Version>
5.8.1

> <Gold.Id.Protein>
6NUR|6NUR_protein|mol2

> <Gold.PLP.Fitness>
34.7632

> <Gold.PLP.PLP>
-30.1556

> <Gold.PLP.part.hbond>
-1.9115

> <Gold.PLP.part.metal>
0.0000

> <Gold.PLP.part.buried>
-3.0657

> <Gold.PLP.part.nonpolar>
-26.4082

> <Gold.PLP.part.repulsive>
0.9821

> <Gold.PLP.ligand.clash>
0.0000

> <Gold.PLP.ligand.torsion>
0.6711

> <Gold.PLP.Chemscore.Hbond>
1.9600

> <Gold.PLP.Chemscore.CHOScore>
0.0000

> <Gold.PLP.Chemscore.Metal>
0.0000

> <Gold.Chemscore.Hbonds>
donor molecule, donor type, donor heavy atom, donor atom, acceptor molecule, acceptor atom, score
      L1  H    10    30       P1  7948  1.00
      P1  H  7989  7998       L1    17  1.00

> <Gold.PLP.Chemscore.Internal.Correction>
0.0697

> <Gold.Rescore>
     Score         DG    S(hbond)    S(metal)    S(lipo)     H(rot)  DE(clash)    DE(int)     intcor
     12.04     -15.30       1.83        0.00      68.61       1.70       0.02       3.24       ----

> <Gold.Chemscore.Fitness>
12.0400

> <Gold.Chemscore.DG>
-15.2961

> <Gold.Chemscore.ZeroCoef>
-5.4800

> <Gold.Chemscore.Hbond>
1.8349

> <Gold.Chemscore.Metal>
0.0000

> <Gold.Chemscore.Lipo>
68.6089

> <Gold.Chemscore.Internal_Hbond>
0.0000

> <Gold.Chemscore.DEClash>
0.0163

> <Gold.Chemscore.DEInternal>
3.2398

> <Gold.Chemscore.Rot>
1.6952

> <Gold.Chemscore.Internal.Correction>
   9.000000E+99

> <Gold.Chemscore.Hbonds>
donor molecule, donor type, donor heavy atom, donor atom, acceptor molecule, acceptor atom, score
      L1  H    10    30       P1  7948  0.94
      P1  H  7989  7998       L1    17  0.73

> <Gold.Chemscore.Hbond.Weighted>
-6.1287

> <Gold.Chemscore.Metal.Weighted>
-0.0000

> <Gold.Chemscore.Lipo.Weighted>
-8.0272

> <Gold.Chemscore.Internal_Hbond.Weighted>
0.0000

> <Gold.Chemscore.DEClash.Weighted>
0.0163

> <Gold.Chemscore.DEInternal.Weighted>
3.2398

> <Gold.Chemscore.Rot.Weighted>
4.3398

> <Gold.Chemscore.Internal.Correction.Weighted>
   9.000000E+99

> <Gold.Protein.RotatedTorsions>
[ 6907 6896 6895 6894 ] final -172.31 input  -60.11 | X-H torsion
[ 7974 7965 7964 7962 ] final    1.42 input  175.53 | X-H torsion
[ 8008 7997 7996 7995 ] final   59.23 input   59.86 | X-H torsion
[ 10167 10162 10161 10158 ] final   56.98 input  -65.29 | X-H torsion
[ 10718 10713 10712 10709 ] final  -17.04 input   66.30 | X-H torsion
[ 10763 10752 10751 10750 ] final   -2.44 input  -60.55 | X-H torsion
[ 11005 11000 10999 10996 ] final -111.89 input  -57.11 | X-H torsion

> <Gold.Protein.ActiveResidues>
 VAL166  LYS551  ARG553  GLY616  TRP617  ASP618  TYR619  PRO620  LYS621  CYS622 
 ASP623  PHE694  ASN695  SER759  ASP760  ASP761  ALA762  ILE779  LEU786  VAL792 
 PHE793  MET794  SER795  GLU796  ALA797  LYS798  CYS799  TRP800  GLU811  SER814 

> <Gold.Protein.RotatedAtoms>
  151.5380  133.3437  159.2929 H   0  0  0  0  0  0  0  0  0  0  0  0  # atno 6907 bound_to 6896
  150.8553  134.7893  159.7052 H   0  0  0  0  0  0  0  0  0  0  0  0  # atno 6908 bound_to 6896
  152.4588  134.5239  159.9842 H   0  0  0  0  0  0  0  0  0  0  0  0  # atno 6909 bound_to 6896
  146.2440  140.0989  142.8348 H   0  0  0  0  0  0  0  0  0  0  0  0  # atno 7974 bound_to 7965
  155.5629  140.3488  155.4496 H   0  0  0  0  0  0  0  0  0  0  0  0  # atno 8008 bound_to 7997
  156.0501  140.1316  157.0085 H   0  0  0  0  0  0  0  0  0  0  0  0  # atno 8009 bound_to 7997
  154.4430  140.1006  156.6349 H   0  0  0  0  0  0  0  0  0  0  0  0  # atno 8010 bound_to 7997
  140.2029  144.3969  150.6521 H   0  0  0  0  0  0  0  0  0  0  0  0  # atno 10167 bound_to 10162
  156.5792  130.4769  149.6328 H   0  0  0  0  0  0  0  0  0  0  0  0  # atno 10718 bound_to 10713
  153.3581  135.6989  153.6734 H   0  0  0  0  0  0  0  0  0  0  0  0  # atno 10763 bound_to 10752
  153.5434  135.3568  155.2728 H   0  0  0  0  0  0  0  0  0  0  0  0  # atno 10764 bound_to 10752
  154.8664  135.4209  154.2832 H   0  0  0  0  0  0  0  0  0  0  0  0  # atno 10765 bound_to 10752
  141.0707  133.9384  157.2490 H   0  0  0  0  0  0  0  0  0  0  0  0  # atno 11005 bound_to 11000
  145.0585  140.9070  143.4952 LP  0  0  0  0  0  0  0  0  0  0  0  0  # atno 17320 bound_to 7965
  145.1100  139.2763  143.5642 LP  0  0  0  0  0  0  0  0  0  0  0  0  # atno 17321 bound_to 7965
  140.6377  143.2198  151.6358 LP  0  0  0  0  0  0  0  0  0  0  0  0  # atno 17342 bound_to 10162
  139.5210  144.3206  152.0913 LP  0  0  0  0  0  0  0  0  0  0  0  0  # atno 17343 bound_to 10162
  156.2647  130.6982  151.1762 LP  0  0  0  0  0  0  0  0  0  0  0  0  # atno 17370 bound_to 10713
  157.7330  131.0594  150.5597 LP  0  0  0  0  0  0  0  0  0  0  0  0  # atno 17371 bound_to 10713
  139.9521  135.0173  156.9023 LP  0  0  0  0  0  0  0  0  0  0  0  0  # atno 17394 bound_to 11000
  140.5679  134.0472  155.7420 LP  0  0  0  0  0  0  0  0  0  0  0  0  # atno 17395 bound_to 11000

$$$$
