AV-unprocessed.smi:157|AV-procd|sdf|1305|dock2
  -GOLD-   2262018593D 1   1.00000     0.00000
 Structure written by MMmdl.
 35 37  0  0  0  0  0  0  0  0  1 V2000
  150.8803  137.1751  154.1308 O   0  0  0  0  0  0  0  0  0  0  0  0
  151.8532  138.1644  154.3918 C   0  0  0  0  0  0  0  0  0  0  0  0
  151.3416  139.1505  155.4563 C   0  0  1  0  0  0  0  0  0  0  0  0
  152.2870  140.1874  155.6916 O   0  0  0  0  0  0  0  0  0  0  0  0
  151.6462  141.3048  156.2359 C   0  0  2  0  0  0  0  0  0  0  0  0
  151.9977  141.4095  157.6910 N   0  0  0  0  0  0  0  0  0  0  0  0
  152.5467  140.4581  158.4592 C   0  0  0  0  0  0  0  0  0  0  0  0
  152.7465  140.8143  159.7163 N   0  0  0  0  0  0  0  0  0  0  0  0
  152.2941  142.1327  159.7690 C   0  0  0  0  0  0  0  0  0  0  0  0
  151.8065  142.5141  158.5266 C   0  0  0  0  0  0  0  0  0  0  0  0
  151.2210  143.6429  157.9817 N   0  0  0  0  0  0  0  0  0  0  0  0
  150.8468  144.6005  158.7720 C   0  0  0  0  0  0  0  0  0  0  0  0
  151.0110  144.7655  160.1407 N   0  0  0  0  0  0  0  0  0  0  0  0
  152.2255  144.4156  160.8518 C   0  0  0  0  0  0  0  0  0  0  0  0
  152.3546  142.9060  161.0561 C   0  0  2  0  0  0  0  0  0  0  0  0
  153.6102  142.6414  161.6492 O   0  0  0  0  0  0  0  0  0  0  0  0
  150.1320  141.0957  156.0772 C   0  0  0  0  0  0  0  0  0  0  0  0
  150.0485  139.9096  155.1346 C   0  0  1  0  0  0  0  0  0  0  0  0
  150.0017  140.3418  153.7878 O   0  0  0  0  0  0  0  0  0  0  0  0
  151.2068  138.6183  156.3999 H   0  0  0  0  0  0  0  0  0  0  0  0
  152.0242  142.2204  155.7797 H   0  0  0  0  0  0  0  0  0  0  0  0
  151.5735  142.5593  161.7336 H   0  0  0  0  0  0  0  0  0  0  0  0
  149.1654  139.3000  155.3294 H   0  0  0  0  0  0  0  0  0  0  0  0
  151.1729  136.6526  153.3996 H   0  0  0  0  0  0  0  0  0  0  0  0
  152.7568  137.6702  154.7490 H   0  0  0  0  0  0  0  0  0  0  0  0
  152.1172  138.6747  153.4653 H   0  0  0  0  0  0  0  0  0  0  0  0
  152.8048  139.4752  158.0934 H   0  0  0  0  0  0  0  0  0  0  0  0
  150.3204  145.4496  158.3336 H   0  0  0  0  0  0  0  0  0  0  0  0
  150.5002  145.5011  160.6077 H   0  0  0  0  0  0  0  0  0  0  0  0
  153.0807  144.7948  160.2898 H   0  0  0  0  0  0  0  0  0  0  0  0
  152.2296  144.9279  161.8142 H   0  0  0  0  0  0  0  0  0  0  0  0
  153.4977  141.9439  162.2773 H   0  0  0  0  0  0  0  0  0  0  0  0
  149.6897  140.8383  157.0414 H   0  0  0  0  0  0  0  0  0  0  0  0
  149.6460  141.9978  155.7030 H   0  0  0  0  0  0  0  0  0  0  0  0
  149.7824  139.6002  153.2445 H   0  0  0  0  0  0  0  0  0  0  0  0
  1  2  1  0  0  0  0
  1 24  1  0  0  0  0
  2  3  1  0  0  0  0
  2 25  1  0  0  0  0
  2 26  1  0  0  0  0
  3 20  1  0  0  0  0
  3 18  1  0  0  0  0
  3  4  1  0  0  0  0
  4  5  1  0  0  0  0
  5 21  1  0  0  0  0
  5  6  1  0  0  0  0
  5 17  1  0  0  0  0
  6 10  1  0  0  0  0
  6  7  1  0  0  0  0
  7  8  2  0  0  0  0
  7 27  1  0  0  0  0
  8  9  1  0  0  0  0
  9 15  1  0  0  0  0
  9 10  2  0  0  0  0
 10 11  1  0  0  0  0
 11 12  2  0  0  0  0
 12 13  1  0  0  0  0
 12 28  1  0  0  0  0
 13 14  1  0  0  0  0
 13 29  1  0  0  0  0
 14 15  1  0  0  0  0
 14 30  1  0  0  0  0
 14 31  1  0  0  0  0
 15 22  1  0  0  0  0
 15 16  1  0  0  0  0
 16 32  1  0  0  0  0
 17 18  1  0  0  0  0
 17 33  1  0  0  0  0
 17 34  1  0  0  0  0
 18 23  1  0  0  0  0
 18 19  1  0  0  0  0
 19 35  1  0  0  0  0
M  END
> <s_m_source_file>
AV-unprocessed.smi

> <i_m_source_file_index>
157

> <i_lp_mmshare_version>
43012

> <i_f3d_flags>
0

> <s_epik_input>
W09IXVtDSDJdW0NASF0xT1tDQEhdKFtDSDJdW0NAQEhdMVtPSF0pbihbY0hdbjIpYyhjMjMpTj1bQ0hdW05IXVtDSDJdW0NASF0zW09IXQ==

> <s_epik_cmdline>
J2VwaWtfcHl0aG9uJywgJy1waCcsICc3LjAnLCAnLXRuJywgJzgnLCAnLW1hJywgJzIwMCcsICctbWV0YWxfYmluZGluZycsICctaW1hZScsICc8aW5maWxlLm1hZT4nLCAnLW9tYWUnLCAnPG91dGZpbGUubWFlPic=

> <r_lp_tautomer_probability>
1

> <r_epik_Ionization_Penalty>
0.0357149

> <r_epik_Ionization_Penalty_Charging>
0.0355056

> <r_epik_Ionization_Penalty_Neutral>
0.000209255

> <r_epik_State_Penalty>
0.0296046

> <r_epik_Charging_Adjusted_Penalty>
0.0651102

> <i_epik_Tot_Q>
0

> <i_epik_Tot_abs_Q>
0

> <r_epik_Metal_State_Penalty>
3.03559e-05

> <b_epik_Metal_Only>
0

> <s_epik_Chemistry_Notes>
This compound has an imine and may undergo hydrolysis. This compound contains an acetal/aminal-like group ( X-CH(R)-Y where X, Y are N, S, or O) that may be acid/base labile, releasing an aldehyde.

> <s_lp_Force_Field>
OPLS_2005

> <r_lp_Energy>
41.6449

> <b_lp_Chiralities_Consistent>
1

> <s_lp_Variant>
AV-unprocessed.smi:157-15

> <Gold.Version>
5.8.1

> <Gold.Id.Protein>
6NUR|6NUR_protein|mol2

> <Gold.PLP.Fitness>
45.6408

> <Gold.PLP.PLP>
-35.5409

> <Gold.PLP.part.hbond>
-5.1656

> <Gold.PLP.part.metal>
0.0000

> <Gold.PLP.part.buried>
-5.9246

> <Gold.PLP.part.nonpolar>
-24.0343

> <Gold.PLP.part.repulsive>
0.2930

> <Gold.PLP.ligand.clash>
0.0000

> <Gold.PLP.ligand.torsion>
0.4214

> <Gold.PLP.Chemscore.Hbond>
2.7063

> <Gold.PLP.Chemscore.CHOScore>
0.9390

> <Gold.PLP.Chemscore.Metal>
0.0000

> <Gold.Chemscore.Hbonds>
donor molecule, donor type, donor heavy atom, donor atom, acceptor molecule, acceptor atom, score
      L1  H     1    24       P1  7949  1.00
      L1  H    19    35       P1  7957  0.23
      P1  H  7989  7998       L1    19  0.70
      P1  H  7997  8009       L1     4  0.80
      L1  C    12    28       P1  8029  0.65

> <Gold.PLP.Chemscore.Internal.Correction>
0.0067

> <Gold.Rescore>
     Score         DG    S(hbond)    S(metal)    S(lipo)     H(rot)  DE(clash)    DE(int)     intcor
      9.28     -11.75       2.49        0.00      62.18       3.64       1.84       0.63       ----

> <Gold.Chemscore.Fitness>
9.2784

> <Gold.Chemscore.DG>
-11.7524

> <Gold.Chemscore.ZeroCoef>
-5.4800

> <Gold.Chemscore.Hbond>
2.4867

> <Gold.Chemscore.Metal>
0.0000

> <Gold.Chemscore.Lipo>
62.1837

> <Gold.Chemscore.Internal_Hbond>
0.0000

> <Gold.Chemscore.DEClash>
1.8418

> <Gold.Chemscore.DEInternal>
0.6322

> <Gold.Chemscore.Rot>
3.6362

> <Gold.Chemscore.Internal.Correction>
   9.000000E+99

> <Gold.Chemscore.Hbonds>
donor molecule, donor type, donor heavy atom, donor atom, acceptor molecule, acceptor atom, score
      L1  H     1    24       P1  7949  0.47
      L1  H    19    35       P1  7957  0.22
      P1  H  7989  7998       L1    19  0.25
      P1  H  7997  8009       L1     4  0.64

> <Gold.Chemscore.Hbond.Weighted>
-8.3056

> <Gold.Chemscore.Metal.Weighted>
-0.0000

> <Gold.Chemscore.Lipo.Weighted>
-7.2755

> <Gold.Chemscore.Internal_Hbond.Weighted>
0.0000

> <Gold.Chemscore.DEClash.Weighted>
1.8418

> <Gold.Chemscore.DEInternal.Weighted>
0.6322

> <Gold.Chemscore.Rot.Weighted>
9.3087

> <Gold.Chemscore.Internal.Correction.Weighted>
   9.000000E+99

> <Gold.Protein.RotatedTorsions>
[ 6907 6896 6895 6894 ] final -146.85 input  -60.11 | X-H torsion
[ 7974 7965 7964 7962 ] final  -95.88 input  175.53 | X-H torsion
[ 8008 7997 7996 7995 ] final -149.96 input   59.86 | X-H torsion
[ 10167 10162 10161 10158 ] final  113.39 input  -65.29 | X-H torsion
[ 10718 10713 10712 10709 ] final -146.67 input   66.30 | X-H torsion
[ 10763 10752 10751 10750 ] final -169.68 input  -60.55 | X-H torsion
[ 11005 11000 10999 10996 ] final  -81.71 input  -57.11 | X-H torsion

> <Gold.Protein.ActiveResidues>
 VAL166  LYS551  ARG553  GLY616  TRP617  ASP618  TYR619  PRO620  LYS621  CYS622 
 ASP623  PHE694  ASN695  SER759  ASP760  ASP761  ALA762  ILE779  LEU786  VAL792 
 PHE793  MET794  SER795  GLU796  ALA797  LYS798  CYS799  TRP800  GLU811  SER814 

> <Gold.Protein.RotatedAtoms>
  151.1474  133.4930  159.2595 H   0  0  0  0  0  0  0  0  0  0  0  0  # atno 6907 bound_to 6896
  151.1590  135.0264  159.8712 H   0  0  0  0  0  0  0  0  0  0  0  0  # atno 6908 bound_to 6896
  152.5463  134.1350  159.8508 H   0  0  0  0  0  0  0  0  0  0  0  0  # atno 6909 bound_to 6896
  145.3542  140.9481  143.2537 H   0  0  0  0  0  0  0  0  0  0  0  0  # atno 7974 bound_to 7965
  155.6160  140.0676  157.2692 H   0  0  0  0  0  0  0  0  0  0  0  0  # atno 8008 bound_to 7997
  154.4241  140.1793  156.1370 H   0  0  0  0  0  0  0  0  0  0  0  0  # atno 8009 bound_to 7997
  156.0047  140.3332  155.6884 H   0  0  0  0  0  0  0  0  0  0  0  0  # atno 8010 bound_to 7997
  139.6465  144.7127  151.2133 H   0  0  0  0  0  0  0  0  0  0  0  0  # atno 10167 bound_to 10162
  156.3978  130.7918  151.2126 H   0  0  0  0  0  0  0  0  0  0  0  0  # atno 10718 bound_to 10713
  154.6496  135.2909  155.0003 H   0  0  0  0  0  0  0  0  0  0  0  0  # atno 10763 bound_to 10752
  154.1100  135.6564  153.4887 H   0  0  0  0  0  0  0  0  0  0  0  0  # atno 10764 bound_to 10752
  153.0369  135.5263  154.7399 H   0  0  0  0  0  0  0  0  0  0  0  0  # atno 10765 bound_to 10752
  141.1665  133.7209  156.8463 H   0  0  0  0  0  0  0  0  0  0  0  0  # atno 11005 bound_to 11000
  144.8695  139.5059  143.6774 LP  0  0  0  0  0  0  0  0  0  0  0  0  # atno 17320 bound_to 7965
  146.2955  139.7265  142.9130 LP  0  0  0  0  0  0  0  0  0  0  0  0  # atno 17321 bound_to 7965
  140.7517  143.6223  150.8501 LP  0  0  0  0  0  0  0  0  0  0  0  0  # atno 17342 bound_to 10162
  139.9866  143.5892  152.2924 LP  0  0  0  0  0  0  0  0  0  0  0  0  # atno 17343 bound_to 10162
  157.7502  131.0296  150.4099 LP  0  0  0  0  0  0  0  0  0  0  0  0  # atno 17370 bound_to 10713
  156.4373  130.3984  149.6720 LP  0  0  0  0  0  0  0  0  0  0  0  0  # atno 17371 bound_to 10713
  140.1947  134.8940  157.3101 LP  0  0  0  0  0  0  0  0  0  0  0  0  # atno 17394 bound_to 11000
  140.2252  134.3975  155.7547 LP  0  0  0  0  0  0  0  0  0  0  0  0  # atno 17395 bound_to 11000

$$$$
