AV-unprocessed.smi:278|AV-procd|sdf|2091|dock9
  -GOLD-   2262021373D 1   1.00000     0.00000
 Structure written by MMmdl.
 50 54  0  0  0  0  0  0  0  0  1 V2000
  152.9401  143.7836  162.0401 O   0  0  0  0  0  0  0  0  0  0  0  0
  152.0398  143.5866  160.8940 S   0  0  0  0  0  0  0  0  0  0  0  0
  150.9684  142.5796  160.9448 O   0  0  0  0  0  0  0  0  0  0  0  0
  151.3163  145.2047  160.4186 C   0  0  0  0  0  0  0  0  0  0  0  0
  152.0815  145.6695  159.1725 C   0  0  0  0  0  0  0  0  0  0  0  0
  152.5777  144.4369  158.3949 C   0  0  2  0  0  0  0  0  0  0  0  0
  151.4805  143.7136  157.6068 C   0  0  0  0  0  0  0  0  0  0  0  0
  151.9042  142.3213  157.5582 N   0  0  0  0  0  0  0  0  0  0  0  0
  151.0977  141.3562  157.0445 C   0  0  0  0  0  0  0  0  0  0  0  0
  149.7498  141.5190  157.1239 N   0  0  0  0  0  0  0  0  0  0  0  0
  148.9225  140.5939  156.6296 C   0  0  0  0  0  0  0  0  0  0  0  0
  149.2234  139.4489  156.0152 N   0  0  0  0  0  0  0  0  0  0  0  0
  150.5728  139.2828  155.9180 C   0  0  0  0  0  0  0  0  0  0  0  0
  151.5732  140.1758  156.3998 C   0  0  0  0  0  0  0  0  0  0  0  0
  152.8336  139.6659  156.1034 N   0  0  0  0  0  0  0  0  0  0  0  0
  152.5922  138.5381  155.4931 C   0  0  0  0  0  0  0  0  0  0  0  0
  151.2602  138.2326  155.3375 N   0  0  0  0  0  0  0  0  0  0  0  0
  150.7064  137.0534  154.6969 C   0  0  0  0  0  0  0  0  0  0  0  0
  150.8691  135.7867  155.5583 C   0  0  2  0  0  0  0  0  0  0  0  0
  152.2283  135.5880  155.8997 O   0  0  0  0  0  0  0  0  0  0  0  0
  150.2855  134.5282  154.8839 C   0  0  2  0  0  0  0  0  0  0  0  0
  148.7701  134.5095  154.6648 C   0  0  0  0  0  0  0  0  0  0  0  0
  148.5085  133.0237  154.5579 C   0  0  0  0  0  0  0  0  0  0  0  0
  149.4723  132.4623  155.6004 C   0  0  0  0  0  0  0  0  0  0  0  0
  150.5963  133.3389  155.6063 O   0  0  0  0  0  0  0  0  0  0  0  0
  152.8054  142.0267  158.6647 C   0  0  0  0  0  0  0  0  0  0  0  0
  153.0592  143.3648  159.3740 C   0  0  2  0  0  0  0  0  0  0  0  0
  153.3849  144.7064  157.7123 H   0  0  0  0  0  0  0  0  0  0  0  0
  154.1062  143.4980  159.6472 H   0  0  0  0  0  0  0  0  0  0  0  0
  150.2623  145.0464  160.1894 H   0  0  0  0  0  0  0  0  0  0  0  0
  151.3876  145.9080  161.2483 H   0  0  0  0  0  0  0  0  0  0  0  0
  151.4767  146.3294  158.5497 H   0  0  0  0  0  0  0  0  0  0  0  0
  152.9494  146.2469  159.4935 H   0  0  0  0  0  0  0  0  0  0  0  0
  150.5188  143.7804  158.1174 H   0  0  0  0  0  0  0  0  0  0  0  0
  151.3658  144.1319  156.6063 H   0  0  0  0  0  0  0  0  0  0  0  0
  147.8686  140.8020  156.7411 H   0  0  0  0  0  0  0  0  0  0  0  0
  153.3833  137.8935  155.1384 H   0  0  0  0  0  0  0  0  0  0  0  0
  149.6510  137.2387  154.4945 H   0  0  0  0  0  0  0  0  0  0  0  0
  151.1919  136.9251  153.7285 H   0  0  0  0  0  0  0  0  0  0  0  0
  150.3343  135.9380  156.4969 H   0  0  0  0  0  0  0  0  0  0  0  0
  152.3518  135.8474  156.7999 H   0  0  0  0  0  0  0  0  0  0  0  0
  150.7614  134.4137  153.9084 H   0  0  0  0  0  0  0  0  0  0  0  0
  148.2320  134.9127  155.5232 H   0  0  0  0  0  0  0  0  0  0  0  0
  148.4616  135.0637  153.7778 H   0  0  0  0  0  0  0  0  0  0  0  0
  147.4692  132.7542  154.7483 H   0  0  0  0  0  0  0  0  0  0  0  0
  148.7793  132.6654  153.5636 H   0  0  0  0  0  0  0  0  0  0  0  0
  149.0142  132.4834  156.5902 H   0  0  0  0  0  0  0  0  0  0  0  0
  149.7672  131.4346  155.3860 H   0  0  0  0  0  0  0  0  0  0  0  0
  152.4013  141.2739  159.3417 H   0  0  0  0  0  0  0  0  0  0  0  0
  153.7386  141.6387  158.2557 H   0  0  0  0  0  0  0  0  0  0  0  0
  1  2  2  0  0  0  0
  2 27  1  0  0  0  0
  2  3  2  0  0  0  0
  2  4  1  0  0  0  0
  4  5  1  0  0  0  0
  4 30  1  0  0  0  0
  4 31  1  0  0  0  0
  5  6  1  0  0  0  0
  5 32  1  0  0  0  0
  5 33  1  0  0  0  0
  6 28  1  0  0  0  0
  6 27  1  0  0  0  0
  6  7  1  0  0  0  0
  7  8  1  0  0  0  0
  7 34  1  0  0  0  0
  7 35  1  0  0  0  0
  8  9  1  0  0  0  0
  8 26  1  0  0  0  0
  9 14  1  0  0  0  0
  9 10  2  0  0  0  0
 10 11  1  0  0  0  0
 11 12  2  0  0  0  0
 11 36  1  0  0  0  0
 12 13  1  0  0  0  0
 13 17  1  0  0  0  0
 13 14  2  0  0  0  0
 14 15  1  0  0  0  0
 15 16  2  0  0  0  0
 16 17  1  0  0  0  0
 16 37  1  0  0  0  0
 17 18  1  0  0  0  0
 18 19  1  0  0  0  0
 18 38  1  0  0  0  0
 18 39  1  0  0  0  0
 19 20  1  0  0  0  0
 19 21  1  0  0  0  0
 19 40  1  0  0  0  0
 20 41  1  0  0  0  0
 21 25  1  0  0  0  0
 21 22  1  0  0  0  0
 21 42  1  0  0  0  0
 22 23  1  0  0  0  0
 22 43  1  0  0  0  0
 22 44  1  0  0  0  0
 23 24  1  0  0  0  0
 23 45  1  0  0  0  0
 23 46  1  0  0  0  0
 24 25  1  0  0  0  0
 24 47  1  0  0  0  0
 24 48  1  0  0  0  0
 26 27  1  0  0  0  0
 26 49  1  0  0  0  0
 26 50  1  0  0  0  0
 27 29  1  0  0  0  0
M  END
> <s_m_source_file>
AV-unprocessed.smi

> <i_m_source_file_index>
278

> <i_lp_mmshare_version>
43012

> <i_f3d_flags>
0

> <s_epik_input>
W0NIMl0xW0NIMl1TKD1PKSg9TylbQ0BASF0oW0NAQEhdMTIpW0NIMl1OKFtDSDJdMiljKG5bY0hdbjMpYyhjMzQpbltjSF1uNFtDSDJdW0NASF0oW09IXSlbQ0BASF01W0NIMl1bQ0gyXVtDSDJdTzU=

> <s_epik_cmdline>
J2VwaWtfcHl0aG9uJywgJy1waCcsICc3LjAnLCAnLXRuJywgJzgnLCAnLW1hJywgJzIwMCcsICctbWV0YWxfYmluZGluZycsICctaW1hZScsICc8aW5maWxlLm1hZT4nLCAnLW9tYWUnLCAnPG91dGZpbGUubWFlPic=

> <r_lp_tautomer_probability>
1

> <r_epik_Ionization_Penalty>
0.000636766

> <r_epik_Ionization_Penalty_Charging>
0

> <r_epik_Ionization_Penalty_Neutral>
0.000636766

> <r_epik_State_Penalty>
0.000329976

> <r_epik_Charging_Adjusted_Penalty>
0.000329976

> <i_epik_Tot_Q>
0

> <i_epik_Tot_abs_Q>
0

> <r_epik_Metal_State_Penalty>
-0

> <b_epik_Metal_Only>
0

> <s_lp_Force_Field>
OPLS_2005

> <r_lp_Energy>
50.4142

> <b_lp_Chiralities_Consistent>
1

> <s_lp_Variant>
AV-unprocessed.smi:278-5

> <Gold.Version>
5.8.1

> <Gold.Id.Protein>
6NUR|6NUR_protein|mol2

> <Gold.PLP.Fitness>
46.6087

> <Gold.PLP.PLP>
-42.3699

> <Gold.PLP.part.hbond>
-1.8407

> <Gold.PLP.part.metal>
0.0000

> <Gold.PLP.part.buried>
-2.7833

> <Gold.PLP.part.nonpolar>
-38.5504

> <Gold.PLP.part.repulsive>
0.3845

> <Gold.PLP.ligand.clash>
0.0000

> <Gold.PLP.ligand.torsion>
1.0215

> <Gold.PLP.Chemscore.Hbond>
2.0000

> <Gold.PLP.Chemscore.CHOScore>
0.0000

> <Gold.PLP.Chemscore.Metal>
0.0000

> <Gold.Chemscore.Hbonds>
donor molecule, donor type, donor heavy atom, donor atom, acceptor molecule, acceptor atom, score
      P1  H  6933  6945       L1     3  0.06
      P1  H  7997  8008       L1    15  1.00
      P1  H 10752 10764       L1    20  0.44

> <Gold.PLP.Chemscore.Internal.Correction>
0.2819

> <Gold.Rescore>
     Score         DG    S(hbond)    S(metal)    S(lipo)     H(rot)  DE(clash)    DE(int)     intcor
     16.92     -18.83       1.95        0.00     105.27       2.13       1.00       0.91       ----

> <Gold.Chemscore.Fitness>
16.9205

> <Gold.Chemscore.DG>
-18.8307

> <Gold.Chemscore.ZeroCoef>
-5.4800

> <Gold.Chemscore.Hbond>
1.9457

> <Gold.Chemscore.Metal>
0.0000

> <Gold.Chemscore.Lipo>
105.2716

> <Gold.Chemscore.Internal_Hbond>
0.0000

> <Gold.Chemscore.DEClash>
1.0046

> <Gold.Chemscore.DEInternal>
0.9056

> <Gold.Chemscore.Rot>
2.1346

> <Gold.Chemscore.Internal.Correction>
   9.000000E+99

> <Gold.Chemscore.Hbonds>
donor molecule, donor type, donor heavy atom, donor atom, acceptor molecule, acceptor atom, score
      P1  H  6933  6945       L1     3  0.09
      P1  H  7997  8008       L1    15  0.96
      P1  H 10752 10764       L1    20  0.37

> <Gold.Chemscore.Hbond.Weighted>
-6.4986

> <Gold.Chemscore.Metal.Weighted>
-0.0000

> <Gold.Chemscore.Lipo.Weighted>
-12.3168

> <Gold.Chemscore.Internal_Hbond.Weighted>
0.0000

> <Gold.Chemscore.DEClash.Weighted>
1.0046

> <Gold.Chemscore.DEInternal.Weighted>
0.9056

> <Gold.Chemscore.Rot.Weighted>
5.4646

> <Gold.Chemscore.Internal.Correction.Weighted>
   9.000000E+99

> <Gold.Protein.RotatedTorsions>
[ 6907 6896 6895 6894 ] final -172.64 input  -60.11 | X-H torsion
[ 7974 7965 7964 7962 ] final  110.92 input  175.53 | X-H torsion
[ 8008 7997 7996 7995 ] final  -43.01 input   59.86 | X-H torsion
[ 10167 10162 10161 10158 ] final  -62.75 input  -65.29 | X-H torsion
[ 10718 10713 10712 10709 ] final -161.33 input   66.30 | X-H torsion
[ 10763 10752 10751 10750 ] final  -44.45 input  -60.55 | X-H torsion
[ 11005 11000 10999 10996 ] final -125.05 input  -57.11 | X-H torsion

> <Gold.Protein.ActiveResidues>
 VAL166  LYS551  ARG553  GLY616  TRP617  ASP618  TYR619  PRO620  LYS621  CYS622 
 ASP623  PHE694  ASN695  SER759  ASP760  ASP761  ALA762  ILE779  LEU786  VAL792 
 PHE793  MET794  SER795  GLU796  ALA797  LYS798  CYS799  TRP800  GLU811  SER814 

> <Gold.Protein.RotatedAtoms>
  151.5433  133.3429  159.2939 H   0  0  0  0  0  0  0  0  0  0  0  0  # atno 6907 bound_to 6896
  150.8522  134.7853  159.7029 H   0  0  0  0  0  0  0  0  0  0  0  0  # atno 6908 bound_to 6896
  152.4565  134.5287  159.9856 H   0  0  0  0  0  0  0  0  0  0  0  0  # atno 6909 bound_to 6896
  145.2488  139.2748  143.4078 H   0  0  0  0  0  0  0  0  0  0  0  0  # atno 7974 bound_to 7965
  154.3997  140.1459  156.3448 H   0  0  0  0  0  0  0  0  0  0  0  0  # atno 8008 bound_to 7997
  155.8323  140.3465  155.5559 H   0  0  0  0  0  0  0  0  0  0  0  0  # atno 8009 bound_to 7997
  155.8175  140.0893  157.1859 H   0  0  0  0  0  0  0  0  0  0  0  0  # atno 8010 bound_to 7997
  140.5918  143.2343  151.6123 H   0  0  0  0  0  0  0  0  0  0  0  0  # atno 10167 bound_to 10162
  156.5948  130.8785  151.2899 H   0  0  0  0  0  0  0  0  0  0  0  0  # atno 10718 bound_to 10713
  154.0123  135.6680  153.4766 H   0  0  0  0  0  0  0  0  0  0  0  0  # atno 10763 bound_to 10752
  153.0616  135.5025  154.8101 H   0  0  0  0  0  0  0  0  0  0  0  0  # atno 10764 bound_to 10752
  154.6988  135.3075  154.9335 H   0  0  0  0  0  0  0  0  0  0  0  0  # atno 10765 bound_to 10752
  140.9792  134.0697  157.3784 H   0  0  0  0  0  0  0  0  0  0  0  0  # atno 11005 bound_to 11000
  146.3308  140.2873  142.8613 LP  0  0  0  0  0  0  0  0  0  0  0  0  # atno 17320 bound_to 7965
  144.9521  140.8189  143.5565 LP  0  0  0  0  0  0  0  0  0  0  0  0  # atno 17321 bound_to 7965
  139.5232  144.3140  152.0968 LP  0  0  0  0  0  0  0  0  0  0  0  0  # atno 17342 bound_to 10162
  140.2305  144.4373  150.6302 LP  0  0  0  0  0  0  0  0  0  0  0  0  # atno 17343 bound_to 10162
  157.7295  130.9671  150.1788 LP  0  0  0  0  0  0  0  0  0  0  0  0  # atno 17370 bound_to 10713
  156.2519  130.3701  149.8223 LP  0  0  0  0  0  0  0  0  0  0  0  0  # atno 17371 bound_to 10713
  139.8943  135.0135  156.6945 LP  0  0  0  0  0  0  0  0  0  0  0  0  # atno 17394 bound_to 11000
  140.7212  133.9139  155.8148 LP  0  0  0  0  0  0  0  0  0  0  0  0  # atno 17395 bound_to 11000

$$$$
