AV-unprocessed.smi:1559|AV-procd|sdf|6274|dock7
  -GOLD-   22720 6463D 1   1.00000     0.00000
 Structure written by MMmdl.
 51 52  0  0  0  0  0  0  0  0  2 V2000
  146.6984  133.7089  153.3811 C   0  0  0  0  0  0  0  0  0  0  0  0
  146.6065  134.3859  152.0615 N   0  3  0  0  0  0  0  0  0  0  0  0
  146.6783  133.3903  150.9607 C   0  0  0  0  0  0  0  0  0  0  0  0
  145.5087  135.4097  151.9283 C   0  0  0  0  0  0  0  0  0  0  0  0
  145.5421  136.1054  150.5473 C   0  0  0  0  0  0  0  0  0  0  0  0
  144.1197  134.7418  152.0830 C   0  0  0  0  0  0  0  0  0  0  0  0
  145.6413  136.5024  153.0304 C   0  0  0  0  0  0  0  0  0  0  0  0
  147.0194  136.9292  153.2772 N   0  0  0  0  0  0  0  0  0  0  0  0
  147.4019  137.8476  154.1759 C   0  0  0  0  0  0  0  0  0  0  0  0
  146.6186  138.4346  154.9213 O   0  0  0  0  0  0  0  0  0  0  0  0
  148.7310  138.0414  154.1365 N   0  0  0  0  0  0  0  0  0  0  0  0
  149.5199  138.9074  154.9408 C   0  0  0  0  0  0  0  0  0  0  0  0
  150.9005  139.1411  154.7438 C   0  0  0  0  0  0  0  0  0  0  0  0
  151.5695  140.0372  155.5992 C   0  0  0  0  0  0  0  0  0  0  0  0
  150.8451  140.6882  156.6255 C   0  0  0  0  0  0  0  0  0  0  0  0
  151.4976  141.5889  157.4952 N   0  0  0  0  0  0  0  0  0  0  0  0
  151.7355  141.1618  158.8729 C   0  0  0  0  0  0  0  0  0  0  0  0
  152.7018  142.1303  159.5752 C   0  0  0  0  0  0  0  0  0  0  0  0
  152.1947  143.4578  159.4919 O   0  0  0  0  0  0  0  0  0  0  0  0
  152.0754  143.8943  158.1421 C   0  0  0  0  0  0  0  0  0  0  0  0
  151.0894  142.9874  157.3853 C   0  0  0  0  0  0  0  0  0  0  0  0
  149.5194  140.4679  156.8045 N   0  0  0  0  0  0  0  0  0  0  0  0
  148.8818  139.6093  155.9823 C   0  0  0  0  0  0  0  0  0  0  0  0
  145.7827  133.1683  153.6213 H   0  0  0  0  0  0  0  0  0  0  0  0
  146.9116  134.4101  154.1869 H   0  0  0  0  0  0  0  0  0  0  0  0
  147.5165  132.9877  153.3837 H   0  0  0  0  0  0  0  0  0  0  0  0
  145.8331  132.7021  150.9874 H   0  0  0  0  0  0  0  0  0  0  0  0
  147.5869  132.7945  151.0524 H   0  0  0  0  0  0  0  0  0  0  0  0
  146.7125  133.8572  149.9779 H   0  0  0  0  0  0  0  0  0  0  0  0
  144.7182  136.8136  150.4495 H   0  0  0  0  0  0  0  0  0  0  0  0
  145.4483  135.3945  149.7268 H   0  0  0  0  0  0  0  0  0  0  0  0
  146.4601  136.6719  150.3917 H   0  0  0  0  0  0  0  0  0  0  0  0
  143.3269  135.4876  152.1537 H   0  0  0  0  0  0  0  0  0  0  0  0
  144.0636  134.1224  152.9785 H   0  0  0  0  0  0  0  0  0  0  0  0
  143.8692  134.1108  151.2299 H   0  0  0  0  0  0  0  0  0  0  0  0
  145.0798  137.3939  152.7511 H   0  0  0  0  0  0  0  0  0  0  0  0
  145.1747  136.1673  153.9588 H   0  0  0  0  0  0  0  0  0  0  0  0
  147.7335  136.5150  152.6962 H   0  0  0  0  0  0  0  0  0  0  0  0
  149.2322  137.5549  153.4076 H   0  0  0  0  0  0  0  0  0  0  0  0
  151.4569  138.6627  153.9527 H   0  0  0  0  0  0  0  0  0  0  0  0
  152.6279  140.2036  155.4655 H   0  0  0  0  0  0  0  0  0  0  0  0
  150.7863  141.1278  159.4092 H   0  0  0  0  0  0  0  0  0  0  0  0
  152.1569  140.1558  158.8901 H   0  0  0  0  0  0  0  0  0  0  0  0
  152.8108  141.8562  160.6245 H   0  0  0  0  0  0  0  0  0  0  0  0
  153.6961  142.0802  159.1283 H   0  0  0  0  0  0  0  0  0  0  0  0
  151.7197  144.9246  158.1333 H   0  0  0  0  0  0  0  0  0  0  0  0
  153.0543  143.8917  157.6597 H   0  0  0  0  0  0  0  0  0  0  0  0
  151.0340  143.3131  156.3478 H   0  0  0  0  0  0  0  0  0  0  0  0
  150.0884  143.0945  157.8047 H   0  0  0  0  0  0  0  0  0  0  0  0
  147.8260  139.4750  156.1681 H   0  0  0  0  0  0  0  0  0  0  0  0
  147.4607  134.9200  151.9882 H   0  0  0  0  0  0  0  0  0  0  0  0
  1  2  1  0  0  0  0
  1 24  1  0  0  0  0
  1 25  1  0  0  0  0
  1 26  1  0  0  0  0
  2  3  1  0  0  0  0
  2  4  1  0  0  0  0
  2 51  1  0  0  0  0
  3 27  1  0  0  0  0
  3 28  1  0  0  0  0
  3 29  1  0  0  0  0
  4  5  1  0  0  0  0
  4  6  1  0  0  0  0
  4  7  1  0  0  0  0
  5 30  1  0  0  0  0
  5 31  1  0  0  0  0
  5 32  1  0  0  0  0
  6 33  1  0  0  0  0
  6 34  1  0  0  0  0
  6 35  1  0  0  0  0
  7  8  1  0  0  0  0
  7 36  1  0  0  0  0
  7 37  1  0  0  0  0
  8  9  1  0  0  0  0
  8 38  1  0  0  0  0
  9 10  2  0  0  0  0
  9 11  1  0  0  0  0
 11 12  1  0  0  0  0
 11 39  1  0  0  0  0
 12 23  1  0  0  0  0
 12 13  2  0  0  0  0
 13 14  1  0  0  0  0
 13 40  1  0  0  0  0
 14 15  2  0  0  0  0
 14 41  1  0  0  0  0
 15 16  1  0  0  0  0
 15 22  1  0  0  0  0
 16 21  1  0  0  0  0
 16 17  1  0  0  0  0
 17 18  1  0  0  0  0
 17 42  1  0  0  0  0
 17 43  1  0  0  0  0
 18 19  1  0  0  0  0
 18 44  1  0  0  0  0
 18 45  1  0  0  0  0
 19 20  1  0  0  0  0
 20 21  1  0  0  0  0
 20 46  1  0  0  0  0
 20 47  1  0  0  0  0
 21 48  1  0  0  0  0
 21 49  1  0  0  0  0
 22 23  2  0  0  0  0
 23 50  1  0  0  0  0
M  CHG  1   2   1
M  END
> <s_m_source_file>
AV-unprocessed.smi

> <i_m_source_file_index>
1559

> <i_lp_mmshare_version>
43012

> <i_f3d_flags>
0

> <s_epik_input>
W0NIM11OKFtDSDNdKUMoW0NIM10pKFtDSDNdKVtDSDJdW05IXUMoPU8pW05IXWMxW2NIXVtjSF1jKG5bY0hdMSlOMltDSDJdW0NIMl1PW0NIMl1bQ0gyXTI=

> <s_epik_cmdline>
J2VwaWtfcHl0aG9uJywgJy1waCcsICc3LjAnLCAnLXRuJywgJzgnLCAnLW1hJywgJzIwMCcsICctbWV0YWxfYmluZGluZycsICctaW1hZScsICc8aW5maWxlLm1hZT4nLCAnLW9tYWUnLCAnPG91dGZpbGUubWFlPic=

> <r_lp_tautomer_probability>
1

> <r_epik_Ionization_Penalty>
0.00606683

> <r_epik_Ionization_Penalty_Charging>
0.00433655

> <r_epik_Ionization_Penalty_Neutral>
0.00173028

> <r_epik_State_Penalty>
-0

> <r_epik_Charging_Adjusted_Penalty>
0.00433655

> <i_epik_Tot_Q>
1

> <i_epik_Tot_abs_Q>
1

> <r_epik_Metal_State_Penalty>
-0

> <b_epik_Metal_Only>
0

> <s_lp_Force_Field>
OPLS_2005

> <r_lp_Energy>
39.7319

> <b_lp_Chiralities_Consistent>
1

> <s_lp_Variant>
AV-unprocessed.smi:1559-1

> <Gold.Version>
5.8.1

> <Gold.Id.Protein>
6NUR|6NUR_protein|mol2

> <Gold.PLP.Fitness>
47.5913

> <Gold.PLP.PLP>
-36.6110

> <Gold.PLP.part.hbond>
-2.9645

> <Gold.PLP.part.metal>
0.0000

> <Gold.PLP.part.buried>
-3.8452

> <Gold.PLP.part.nonpolar>
-31.1910

> <Gold.PLP.part.repulsive>
0.1340

> <Gold.PLP.ligand.clash>
0.0000

> <Gold.PLP.ligand.torsion>
0.5050

> <Gold.PLP.Chemscore.Hbond>
3.8437

> <Gold.PLP.Chemscore.CHOScore>
0.0000

> <Gold.PLP.Chemscore.Metal>
0.0000

> <Gold.Chemscore.Hbonds>
donor molecule, donor type, donor heavy atom, donor atom, acceptor molecule, acceptor atom, score
      L1  H     2    51       P1  7948  2.00
      L1  H     8    38       P1  7948  0.93
      L1  H    11    39       P1  7948  0.86

> <Gold.PLP.Chemscore.Internal.Correction>
0.4591

> <Gold.Rescore>
     Score         DG    S(hbond)    S(metal)    S(lipo)     H(rot)  DE(clash)    DE(int)     intcor
     18.80     -20.84       2.57        0.00      93.82       1.64       0.17       1.86       ----

> <Gold.Chemscore.Fitness>
18.8027

> <Gold.Chemscore.DG>
-20.8382

> <Gold.Chemscore.ZeroCoef>
-5.4800

> <Gold.Chemscore.Hbond>
2.5700

> <Gold.Chemscore.Metal>
0.0000

> <Gold.Chemscore.Lipo>
93.8166

> <Gold.Chemscore.Internal_Hbond>
0.0000

> <Gold.Chemscore.DEClash>
0.1733

> <Gold.Chemscore.DEInternal>
1.8621

> <Gold.Chemscore.Rot>
1.6414

> <Gold.Chemscore.Internal.Correction>
   9.000000E+99

> <Gold.Chemscore.Hbonds>
donor molecule, donor type, donor heavy atom, donor atom, acceptor molecule, acceptor atom, score
      L1  H     2    51       P1  7948  0.87
      L1  H     8    38       P1  7948  0.89
      L1  H    11    39       P1  7948  0.79

> <Gold.Chemscore.Hbond.Weighted>
-8.5837

> <Gold.Chemscore.Metal.Weighted>
-0.0000

> <Gold.Chemscore.Lipo.Weighted>
-10.9765

> <Gold.Chemscore.Internal_Hbond.Weighted>
0.0000

> <Gold.Chemscore.DEClash.Weighted>
0.1733

> <Gold.Chemscore.DEInternal.Weighted>
1.8621

> <Gold.Chemscore.Rot.Weighted>
4.2021

> <Gold.Chemscore.Internal.Correction.Weighted>
   9.000000E+99

> <Gold.Protein.RotatedTorsions>
[ 6907 6896 6895 6894 ] final  152.07 input  -60.11 | X-H torsion
[ 7974 7965 7964 7962 ] final  -83.21 input  175.53 | X-H torsion
[ 8008 7997 7996 7995 ] final   55.82 input   59.86 | X-H torsion
[ 10167 10162 10161 10158 ] final    3.38 input  -65.29 | X-H torsion
[ 10718 10713 10712 10709 ] final   77.32 input   66.30 | X-H torsion
[ 10763 10752 10751 10750 ] final  121.98 input  -60.55 | X-H torsion
[ 11005 11000 10999 10996 ] final  -43.96 input  -57.11 | X-H torsion

> <Gold.Protein.ActiveResidues>
 VAL166  LYS551  ARG553  GLY616  TRP617  ASP618  TYR619  PRO620  LYS621  CYS622 
 ASP623  PHE694  ASN695  SER759  ASP760  ASP761  ALA762  ILE779  LEU786  VAL792 
 PHE793  MET794  SER795  GLU796  ALA797  LYS798  CYS799  TRP800  GLU811  SER814 

> <Gold.Protein.RotatedAtoms>
  152.0919  133.4204  159.4547 H   0  0  0  0  0  0  0  0  0  0  0  0  # atno 6907 bound_to 6896
  150.6862  134.2862  159.4657 H   0  0  0  0  0  0  0  0  0  0  0  0  # atno 6908 bound_to 6896
  152.0714  134.9530  160.0625 H   0  0  0  0  0  0  0  0  0  0  0  0  # atno 6909 bound_to 6896
  145.5231  140.9529  143.1644 H   0  0  0  0  0  0  0  0  0  0  0  0  # atno 7974 bound_to 7965
  155.5073  140.3476  155.4382 H   0  0  0  0  0  0  0  0  0  0  0  0  # atno 8008 bound_to 7997
  156.0873  140.1402  156.9664 H   0  0  0  0  0  0  0  0  0  0  0  0  # atno 8009 bound_to 7997
  154.4614  140.0933  156.6880 H   0  0  0  0  0  0  0  0  0  0  0  0  # atno 8010 bound_to 7997
  140.6588  143.7357  150.7702 H   0  0  0  0  0  0  0  0  0  0  0  0  # atno 10167 bound_to 10162
  157.6706  130.9816  150.1624 H   0  0  0  0  0  0  0  0  0  0  0  0  # atno 10718 bound_to 10713
  153.6226  135.3410  155.3016 H   0  0  0  0  0  0  0  0  0  0  0  0  # atno 10763 bound_to 10752
  154.8597  135.4276  154.2191 H   0  0  0  0  0  0  0  0  0  0  0  0  # atno 10764 bound_to 10752
  153.3067  135.7028  153.7226 H   0  0  0  0  0  0  0  0  0  0  0  0  # atno 10765 bound_to 10752
  141.0418  133.6777  156.2805 H   0  0  0  0  0  0  0  0  0  0  0  0  # atno 11005 bound_to 11000
  144.7665  139.6832  143.7212 LP  0  0  0  0  0  0  0  0  0  0  0  0  # atno 17320 bound_to 7965
  146.2093  139.5439  142.9691 LP  0  0  0  0  0  0  0  0  0  0  0  0  # atno 17321 bound_to 7965
  140.1022  143.4777  152.2419 LP  0  0  0  0  0  0  0  0  0  0  0  0  # atno 17342 bound_to 10162
  139.5817  144.7513  151.3622 LP  0  0  0  0  0  0  0  0  0  0  0  0  # atno 17343 bound_to 10162
  156.2398  130.3690  149.8350 LP  0  0  0  0  0  0  0  0  0  0  0  0  # atno 17370 bound_to 10713
  156.6154  130.8604  151.3463 LP  0  0  0  0  0  0  0  0  0  0  0  0  # atno 17371 bound_to 10713
  140.6219  134.5352  157.5548 LP  0  0  0  0  0  0  0  0  0  0  0  0  # atno 17394 bound_to 11000
  139.9282  134.8015  156.1007 LP  0  0  0  0  0  0  0  0  0  0  0  0  # atno 17395 bound_to 11000

$$$$
