AV-unprocessed.smi:199|AV-procd|sdf|1565|dock3
  -GOLD-   2262019443D 1   1.00000     0.00000
 Structure written by MMmdl.
 51 55  0  0  0  0  0  0  0  0  1 V2000
  143.2289  133.4008  148.3297 C   0  0  0  0  0  0  0  0  0  0  0  0
  143.6872  132.8320  149.6824 C   0  0  1  0  0  0  0  0  0  0  0  0
  144.4613  131.6558  149.4949 O   0  0  0  0  0  0  0  0  0  0  0  0
  145.1598  131.4232  150.7044 C   0  0  0  0  0  0  0  0  0  0  0  0
  145.6655  132.8129  151.0713 C   0  0  0  0  0  0  0  0  0  0  0  0
  144.5607  133.7518  150.5766 C   0  0  1  0  0  0  0  0  0  0  0  0
  145.1699  134.7907  149.8273 O   0  0  0  0  0  0  0  0  0  0  0  0
  143.7734  134.3944  151.7456 C   0  0  0  0  0  0  0  0  0  0  0  0
  144.5382  135.3876  152.4857 N   0  0  0  0  0  0  0  0  0  0  0  0
  144.2626  136.7320  152.5886 C   0  0  0  0  0  0  0  0  0  0  0  0
  145.0974  137.4160  153.3207 N   0  0  0  0  0  0  0  0  0  0  0  0
  146.0327  136.4791  153.7442 C   0  0  0  0  0  0  0  0  0  0  0  0
  147.2013  136.5335  154.5585 C   0  0  0  0  0  0  0  0  0  0  0  0
  147.6687  137.6754  155.1336 N   0  0  0  0  0  0  0  0  0  0  0  0
  148.5464  137.6248  156.2959 C   0  0  2  0  0  0  0  0  0  0  0  0
  148.6306  139.1049  156.7031 C   0  0  0  0  0  0  0  0  0  0  0  0
  148.5931  139.7930  155.3303 C   0  0  0  0  0  0  0  0  0  0  0  0
  148.5251  138.5804  154.3809 C   0  0  1  0  0  0  0  0  0  0  0  0
  149.8753  137.8201  154.3216 C   0  0  1  0  0  0  0  0  0  0  0  0
  151.1287  138.6305  153.9423 C   0  0  0  0  0  0  0  0  0  0  0  0
  152.0284  137.8268  153.2097 O   0  0  0  0  0  0  0  0  0  0  0  0
  149.9152  137.1914  155.7263 C   0  0  0  0  0  0  0  0  0  0  0  0
  147.8581  135.3639  154.7813 N   0  0  0  0  0  0  0  0  0  0  0  0
  147.4277  134.2273  154.2275 C   0  0  0  0  0  0  0  0  0  0  0  0
  146.3713  134.0332  153.4374 N   0  0  0  0  0  0  0  0  0  0  0  0
  145.6917  135.1962  153.2268 C   0  0  0  0  0  0  0  0  0  0  0  0
  142.6465  134.3127  148.4636 H   0  0  0  0  0  0  0  0  0  0  0  0
  142.6010  132.6824  147.8026 H   0  0  0  0  0  0  0  0  0  0  0  0
  144.0762  133.6314  147.6835 H   0  0  0  0  0  0  0  0  0  0  0  0
  142.8044  132.5187  150.2409 H   0  0  0  0  0  0  0  0  0  0  0  0
  144.4725  131.0424  151.4618 H   0  0  0  0  0  0  0  0  0  0  0  0
  145.9660  130.7012  150.5736 H   0  0  0  0  0  0  0  0  0  0  0  0
  145.8740  132.9084  152.1375 H   0  0  0  0  0  0  0  0  0  0  0  0
  146.6015  132.9943  150.5401 H   0  0  0  0  0  0  0  0  0  0  0  0
  145.1471  134.5545  148.9127 H   0  0  0  0  0  0  0  0  0  0  0  0
  142.8684  134.8719  151.3678 H   0  0  0  0  0  0  0  0  0  0  0  0
  143.4403  133.6285  152.4473 H   0  0  0  0  0  0  0  0  0  0  0  0
  143.4116  137.1919  152.1079 H   0  0  0  0  0  0  0  0  0  0  0  0
  148.1947  136.9902  157.1104 H   0  0  0  0  0  0  0  0  0  0  0  0
  147.7662  139.3961  157.3012 H   0  0  0  0  0  0  0  0  0  0  0  0
  149.5317  139.3368  157.2719 H   0  0  0  0  0  0  0  0  0  0  0  0
  147.6887  140.3958  155.2383 H   0  0  0  0  0  0  0  0  0  0  0  0
  149.4416  140.4517  155.1520 H   0  0  0  0  0  0  0  0  0  0  0  0
  148.1538  138.8599  153.3966 H   0  0  0  0  0  0  0  0  0  0  0  0
  149.7762  137.0131  153.5930 H   0  0  0  0  0  0  0  0  0  0  0  0
  150.8839  139.5235  153.3687 H   0  0  0  0  0  0  0  0  0  0  0  0
  151.6333  138.9720  154.8461 H   0  0  0  0  0  0  0  0  0  0  0  0
  151.7276  137.7778  152.3152 H   0  0  0  0  0  0  0  0  0  0  0  0
  150.7475  137.5462  156.3356 H   0  0  0  0  0  0  0  0  0  0  0  0
  149.9930  136.1058  155.6578 H   0  0  0  0  0  0  0  0  0  0  0  0
  148.0135  133.3477  154.4495 H   0  0  0  0  0  0  0  0  0  0  0  0
  1  2  1  0  0  0  0
  1 27  1  0  0  0  0
  1 28  1  0  0  0  0
  1 29  1  0  0  0  0
  2  6  1  0  0  0  0
  2  3  1  0  0  0  0
  2 30  1  0  0  0  0
  3  4  1  0  0  0  0
  4  5  1  0  0  0  0
  4 31  1  0  0  0  0
  4 32  1  0  0  0  0
  5  6  1  0  0  0  0
  5 33  1  0  0  0  0
  5 34  1  0  0  0  0
  6  7  1  0  0  0  0
  6  8  1  0  0  0  0
  7 35  1  0  0  0  0
  8  9  1  0  0  0  0
  8 36  1  0  0  0  0
  8 37  1  0  0  0  0
  9 26  1  0  0  0  0
  9 10  1  0  0  0  0
 10 11  2  0  0  0  0
 10 38  1  0  0  0  0
 11 12  1  0  0  0  0
 12 26  2  0  0  0  0
 12 13  1  0  0  0  0
 13 14  1  0  0  0  0
 13 23  2  0  0  0  0
 14 18  1  0  0  0  0
 14 15  1  0  0  0  0
 15 22  1  0  0  0  0
 15 16  1  0  0  0  0
 15 39  1  0  0  0  0
 16 17  1  0  0  0  0
 16 40  1  0  0  0  0
 16 41  1  0  0  0  0
 17 18  1  0  0  0  0
 17 42  1  0  0  0  0
 17 43  1  0  0  0  0
 18 19  1  0  0  0  0
 18 44  1  0  0  0  0
 19 20  1  0  0  0  0
 19 22  1  0  0  0  0
 19 45  1  0  0  0  0
 20 21  1  0  0  0  0
 20 46  1  0  0  0  0
 20 47  1  0  0  0  0
 21 48  1  0  0  0  0
 22 49  1  0  0  0  0
 22 50  1  0  0  0  0
 23 24  1  0  0  0  0
 24 25  2  0  0  0  0
 24 51  1  0  0  0  0
 25 26  1  0  0  0  0
M  END
> <s_m_source_file>
AV-unprocessed.smi

> <i_m_source_file_index>
199

> <i_lp_mmshare_version>
43012

> <i_f3d_flags>
0

> <s_epik_input>
W0NIMl0xW0NIMl1PW0NAQEhdKFtDSDNdKVtDQEBdMShbT0hdKVtDSDJdbihbY0hdbjIpYyhjMjMpbltjSF1uYzNOKFtDQEBIXTQ1KVtDQEhdKFtDSDJdW0NIMl00KVtDQEhdKFtDSDJdNSlbQ0gyXVtPSF0=

> <s_epik_cmdline>
J2VwaWtfcHl0aG9uJywgJy1waCcsICc3LjAnLCAnLXRuJywgJzgnLCAnLW1hJywgJzIwMCcsICctbWV0YWxfYmluZGluZycsICctaW1hZScsICc8aW5maWxlLm1hZT4nLCAnLW9tYWUnLCAnPG91dGZpbGUubWFlPic=

> <r_lp_tautomer_probability>
1

> <r_epik_Ionization_Penalty>
0.00583903

> <r_epik_Ionization_Penalty_Charging>
0

> <r_epik_Ionization_Penalty_Neutral>
0.00583903

> <r_epik_State_Penalty>
-0

> <r_epik_Charging_Adjusted_Penalty>
0

> <i_epik_Tot_Q>
0

> <i_epik_Tot_abs_Q>
0

> <r_epik_Metal_State_Penalty>
-0

> <b_epik_Metal_Only>
0

> <s_lp_Force_Field>
OPLS_2005

> <r_lp_Energy>
84.4473

> <b_lp_Chiralities_Consistent>
1

> <s_lp_Variant>
AV-unprocessed.smi:199-6

> <Gold.Version>
5.8.1

> <Gold.Id.Protein>
6NUR|6NUR_protein|mol2

> <Gold.PLP.Fitness>
40.0549

> <Gold.PLP.PLP>
-30.3052

> <Gold.PLP.part.hbond>
-3.8875

> <Gold.PLP.part.metal>
0.0000

> <Gold.PLP.part.buried>
-2.3473

> <Gold.PLP.part.nonpolar>
-25.1443

> <Gold.PLP.part.repulsive>
0.5322

> <Gold.PLP.ligand.clash>
0.0000

> <Gold.PLP.ligand.torsion>
1.1913

> <Gold.PLP.Chemscore.Hbond>
3.0279

> <Gold.PLP.Chemscore.CHOScore>
1.0000

> <Gold.PLP.Chemscore.Metal>
0.0000

> <Gold.Chemscore.Hbonds>
donor molecule, donor type, donor heavy atom, donor atom, acceptor molecule, acceptor atom, score
      L1  H     7    35       P1  7921  0.70
      L1  H    21    48       P1  7949  0.43
      P1  H 10785 10796       L1     3  0.40
      L1  C    10    38       P1 10171  0.42

> <Gold.PLP.Chemscore.Internal.Correction>
0.0485

> <Gold.Rescore>
     Score         DG    S(hbond)    S(metal)    S(lipo)     H(rot)  DE(clash)    DE(int)     intcor
     11.29     -16.87       2.90        0.00      81.88       3.07       2.16       3.41       ----

> <Gold.Chemscore.Fitness>
11.2897

> <Gold.Chemscore.DG>
-16.8653

> <Gold.Chemscore.ZeroCoef>
-5.4800

> <Gold.Chemscore.Hbond>
2.8958

> <Gold.Chemscore.Metal>
0.0000

> <Gold.Chemscore.Lipo>
81.8807

> <Gold.Chemscore.Internal_Hbond>
0.0000

> <Gold.Chemscore.DEClash>
2.1646

> <Gold.Chemscore.DEInternal>
3.4109

> <Gold.Chemscore.Rot>
3.0729

> <Gold.Chemscore.Internal.Correction>
   9.000000E+99

> <Gold.Chemscore.Hbonds>
donor molecule, donor type, donor heavy atom, donor atom, acceptor molecule, acceptor atom, score
      L1  H     7    35       P1  7921  0.70
      L1  H    21    48       P1  7949  0.39
      P1  H 10785 10796       L1     3  0.26

> <Gold.Chemscore.Hbond.Weighted>
-9.6719

> <Gold.Chemscore.Metal.Weighted>
-0.0000

> <Gold.Chemscore.Lipo.Weighted>
-9.5800

> <Gold.Chemscore.Internal_Hbond.Weighted>
0.0000

> <Gold.Chemscore.DEClash.Weighted>
2.1646

> <Gold.Chemscore.DEInternal.Weighted>
3.4109

> <Gold.Chemscore.Rot.Weighted>
7.8667

> <Gold.Chemscore.Internal.Correction.Weighted>
   9.000000E+99

> <Gold.Protein.RotatedTorsions>
[ 6907 6896 6895 6894 ] final   61.98 input  -60.11 | X-H torsion
[ 7974 7965 7964 7962 ] final  106.23 input  175.53 | X-H torsion
[ 8008 7997 7996 7995 ] final   37.20 input   59.86 | X-H torsion
[ 10167 10162 10161 10158 ] final   48.70 input  -65.29 | X-H torsion
[ 10718 10713 10712 10709 ] final   99.78 input   66.30 | X-H torsion
[ 10763 10752 10751 10750 ] final  160.43 input  -60.55 | X-H torsion
[ 11005 11000 10999 10996 ] final   55.45 input  -57.11 | X-H torsion

> <Gold.Protein.ActiveResidues>
 VAL166  LYS551  ARG553  GLY616  TRP617  ASP618  TYR619  PRO620  LYS621  CYS622 
 ASP623  PHE694  ASN695  SER759  ASP760  ASP761  ALA762  ILE779  LEU786  VAL792 
 PHE793  MET794  SER795  GLU796  ALA797  LYS798  CYS799  TRP800  GLU811  SER814 

> <Gold.Protein.RotatedAtoms>
  152.4134  134.6084  160.0018 H   0  0  0  0  0  0  0  0  0  0  0  0  # atno 6907 bound_to 6896
  151.6254  133.3330  159.3105 H   0  0  0  0  0  0  0  0  0  0  0  0  # atno 6908 bound_to 6896
  150.8024  134.7166  159.6679 H   0  0  0  0  0  0  0  0  0  0  0  0  # atno 6909 bound_to 6896
  145.3093  139.2545  143.3771 H   0  0  0  0  0  0  0  0  0  0  0  0  # atno 7974 bound_to 7965
  155.1998  140.3315  155.4345 H   0  0  0  0  0  0  0  0  0  0  0  0  # atno 8008 bound_to 7997
  156.2411  140.1895  156.7035 H   0  0  0  0  0  0  0  0  0  0  0  0  # atno 8009 bound_to 7997
  154.6149  140.0603  156.9527 H   0  0  0  0  0  0  0  0  0  0  0  0  # atno 8010 bound_to 7997
  140.2905  144.3051  150.6242 H   0  0  0  0  0  0  0  0  0  0  0  0  # atno 10167 bound_to 10162
  157.6868  131.0679  150.5001 H   0  0  0  0  0  0  0  0  0  0  0  0  # atno 10718 bound_to 10713
  154.2473  135.2772  155.2830 H   0  0  0  0  0  0  0  0  0  0  0  0  # atno 10763 bound_to 10752
  154.5494  135.5679  153.6912 H   0  0  0  0  0  0  0  0  0  0  0  0  # atno 10764 bound_to 10752
  152.9987  135.6271  154.2619 H   0  0  0  0  0  0  0  0  0  0  0  0  # atno 10765 bound_to 10752
  140.0606  134.5608  155.9157 H   0  0  0  0  0  0  0  0  0  0  0  0  # atno 11005 bound_to 11000
  146.3124  140.3626  142.8666 LP  0  0  0  0  0  0  0  0  0  0  0  0  # atno 17320 bound_to 7965
  144.9029  140.7664  143.5856 LP  0  0  0  0  0  0  0  0  0  0  0  0  # atno 17321 bound_to 7965
  140.5736  143.2178  151.7555 LP  0  0  0  0  0  0  0  0  0  0  0  0  # atno 17342 bound_to 10162
  139.4939  144.4181  152.0007 LP  0  0  0  0  0  0  0  0  0  0  0  0  # atno 17343 bound_to 10162
  156.5323  130.4188  149.6195 LP  0  0  0  0  0  0  0  0  0  0  0  0  # atno 17370 bound_to 10713
  156.3058  130.7202  151.2084 LP  0  0  0  0  0  0  0  0  0  0  0  0  # atno 17371 bound_to 10713
  141.1971  133.6595  156.5726 LP  0  0  0  0  0  0  0  0  0  0  0  0  # atno 17394 bound_to 11000
  140.3776  134.7551  157.4640 LP  0  0  0  0  0  0  0  0  0  0  0  0  # atno 17395 bound_to 11000

$$$$
