AV-unprocessed.smi:1440|AV-procd|sdf|5874|dock2
  -GOLD-   22720 5553D 1   1.00000     0.00000
 Structure written by MMmdl.
 41 42  0  0  0  0  0  0  0  0  1 V2000
  152.1856  144.5612  161.5721 C   0  0  0  0  0  0  0  0  0  0  0  0
  152.4436  143.9710  160.1786 C   0  0  2  0  0  0  0  0  0  0  0  0
  151.5896  144.6702  159.1035 C   0  0  0  0  0  0  0  0  0  0  0  0
  151.8385  144.0783  157.7041 C   0  0  0  0  0  0  0  0  0  0  0  0
  151.6197  142.5534  157.6662 C   0  0  2  0  0  0  0  0  0  0  0  0
  150.1965  142.2441  157.7954 N   0  0  0  0  0  0  0  0  0  0  0  0
  149.4502  141.6071  156.8806 C   0  0  0  0  0  0  0  0  0  0  0  0
  149.8996  141.2013  155.8075 O   0  0  0  0  0  0  0  0  0  0  0  0
  147.9792  141.3905  157.2574 C   0  0  0  0  0  0  0  0  0  0  0  0
  147.2769  142.6268  157.5925 N   0  0  0  0  0  0  0  0  0  0  0  0
  146.4108  142.7780  158.6075 C   0  0  0  0  0  0  0  0  0  0  0  0
  146.1045  141.8700  159.3796 O   0  0  0  0  0  0  0  0  0  0  0  0
  145.7968  144.1679  158.7784 C   0  0  0  0  0  0  0  0  0  0  0  0
  146.5940  144.9842  159.6758 N   0  0  0  0  0  0  0  0  0  0  0  0
  146.5056  146.2809  159.9781 C   0  0  0  0  0  0  0  0  0  0  0  0
  147.4218  146.6923  160.8437 N   0  0  0  0  0  0  0  0  0  0  0  0
  148.0870  145.5164  161.0483 C   0  0  0  0  0  0  0  0  0  0  0  0
  147.6313  144.4616  160.3724 N   0  0  0  0  0  0  0  0  0  0  0  0
  152.4543  141.8552  158.7612 C   0  0  0  0  0  0  0  0  0  0  0  0
  152.1977  142.4503  160.1569 C   0  0  0  0  0  0  0  0  0  0  0  0
  151.1465  144.4262  161.8744 H   0  0  0  0  0  0  0  0  0  0  0  0
  152.4023  145.6296  161.5918 H   0  0  0  0  0  0  0  0  0  0  0  0
  152.8157  144.0839  162.3233 H   0  0  0  0  0  0  0  0  0  0  0  0
  153.4936  144.1440  159.9383 H   0  0  0  0  0  0  0  0  0  0  0  0
  150.5324  144.5819  159.3568 H   0  0  0  0  0  0  0  0  0  0  0  0
  151.8115  145.7378  159.0898 H   0  0  0  0  0  0  0  0  0  0  0  0
  151.1984  144.5703  156.9708 H   0  0  0  0  0  0  0  0  0  0  0  0
  152.8640  144.2985  157.4046 H   0  0  0  0  0  0  0  0  0  0  0  0
  151.9532  142.1926  156.6915 H   0  0  0  0  0  0  0  0  0  0  0  0
  149.7459  142.5379  158.6501 H   0  0  0  0  0  0  0  0  0  0  0  0
  147.4689  140.9289  156.4117 H   0  0  0  0  0  0  0  0  0  0  0  0
  147.9139  140.6831  158.0861 H   0  0  0  0  0  0  0  0  0  0  0  0
  147.4700  143.4311  157.0129 H   0  0  0  0  0  0  0  0  0  0  0  0
  145.7331  144.6705  157.8124 H   0  0  0  0  0  0  0  0  0  0  0  0
  144.7799  144.0831  159.1652 H   0  0  0  0  0  0  0  0  0  0  0  0
  145.7595  146.9365  159.5532 H   0  0  0  0  0  0  0  0  0  0  0  0
  148.9329  145.4355  161.7150 H   0  0  0  0  0  0  0  0  0  0  0  0
  152.2559  140.7829  158.7707 H   0  0  0  0  0  0  0  0  0  0  0  0
  153.5128  141.9604  158.5210 H   0  0  0  0  0  0  0  0  0  0  0  0
  152.8441  141.9587  160.8844 H   0  0  0  0  0  0  0  0  0  0  0  0
  151.1732  142.2363  160.4641 H   0  0  0  0  0  0  0  0  0  0  0  0
  1  2  1  0  0  0  0
  1 21  1  0  0  0  0
  1 22  1  0  0  0  0
  1 23  1  0  0  0  0
  2 20  1  0  0  0  0
  2  3  1  0  0  0  0
  2 24  1  0  0  0  0
  3  4  1  0  0  0  0
  3 25  1  0  0  0  0
  3 26  1  0  0  0  0
  4  5  1  0  0  0  0
  4 27  1  0  0  0  0
  4 28  1  0  0  0  0
  5  6  1  0  0  0  0
  5 19  1  0  0  0  0
  5 29  1  0  0  0  0
  6  7  1  0  0  0  0
  6 30  1  0  0  0  0
  7  8  2  0  0  0  0
  7  9  1  0  0  0  0
  9 10  1  0  0  0  0
  9 31  1  0  0  0  0
  9 32  1  0  0  0  0
 10 11  1  0  0  0  0
 10 33  1  0  0  0  0
 11 12  2  0  0  0  0
 11 13  1  0  0  0  0
 13 14  1  0  0  0  0
 13 34  1  0  0  0  0
 13 35  1  0  0  0  0
 14 18  1  0  0  0  0
 14 15  1  0  0  0  0
 15 16  2  0  0  0  0
 15 36  1  0  0  0  0
 16 17  1  0  0  0  0
 17 18  2  0  0  0  0
 17 37  1  0  0  0  0
 19 20  1  0  0  0  0
 19 38  1  0  0  0  0
 19 39  1  0  0  0  0
 20 40  1  0  0  0  0
 20 41  1  0  0  0  0
M  END
> <s_m_source_file>
AV-unprocessed.smi

> <i_m_source_file_index>
1440

> <i_lp_mmshare_version>
43012

> <i_f3d_flags>
0

> <s_epik_input>
W0NIM11bQ0BASF0xW0NIMl1bQ0gyXVtDQEhdKFtDSDJdW0NIMl0xKVtOSF1DKD1PKVtDSDJdW05IXUMoPU8pW0NIMl1uMltjSF1uW2NIXW4y

> <s_epik_cmdline>
J2VwaWtfcHl0aG9uJywgJy1waCcsICc3LjAnLCAnLXRuJywgJzgnLCAnLW1hJywgJzIwMCcsICctbWV0YWxfYmluZGluZycsICctaW1hZScsICc8aW5maWxlLm1hZT4nLCAnLW9tYWUnLCAnPG91dGZpbGUubWFlPic=

> <r_lp_tautomer_probability>
1

> <r_epik_Ionization_Penalty>
7.34071e-06

> <r_epik_Ionization_Penalty_Charging>
0

> <r_epik_Ionization_Penalty_Neutral>
7.34071e-06

> <r_epik_State_Penalty>
-0

> <r_epik_Charging_Adjusted_Penalty>
0

> <i_epik_Tot_Q>
0

> <i_epik_Tot_abs_Q>
0

> <r_epik_Metal_State_Penalty>
-0

> <b_epik_Metal_Only>
0

> <s_lp_Force_Field>
OPLS_2005

> <r_lp_Energy>
6.43363

> <b_lp_Chiralities_Consistent>
1

> <s_lp_Variant>
AV-unprocessed.smi:1440-2

> <Gold.Version>
5.8.1

> <Gold.Id.Protein>
6NUR|6NUR_protein|mol2

> <Gold.PLP.Fitness>
46.9093

> <Gold.PLP.PLP>
-42.0468

> <Gold.PLP.part.hbond>
-4.3610

> <Gold.PLP.part.metal>
0.0000

> <Gold.PLP.part.buried>
-7.4918

> <Gold.PLP.part.nonpolar>
-30.6418

> <Gold.PLP.part.repulsive>
0.6068

> <Gold.PLP.ligand.clash>
0.0000

> <Gold.PLP.ligand.torsion>
0.5871

> <Gold.PLP.Chemscore.Hbond>
2.0000

> <Gold.PLP.Chemscore.CHOScore>
0.0000

> <Gold.PLP.Chemscore.Metal>
0.0000

> <Gold.Chemscore.Hbonds>
donor molecule, donor type, donor heavy atom, donor atom, acceptor molecule, acceptor atom, score
      L1  H    10    33       P1  8028  0.02
      P1  H  6934  6946       L1    12  1.00

> <Gold.PLP.Chemscore.Internal.Correction>
0.0368

> <Gold.Rescore>
     Score         DG    S(hbond)    S(metal)    S(lipo)     H(rot)  DE(clash)    DE(int)     intcor
      9.92     -11.34       1.09        0.00      81.69       2.86       0.78       0.64       ----

> <Gold.Chemscore.Fitness>
9.9221

> <Gold.Chemscore.DG>
-11.3428

> <Gold.Chemscore.ZeroCoef>
-5.4800

> <Gold.Chemscore.Hbond>
1.0874

> <Gold.Chemscore.Metal>
0.0000

> <Gold.Chemscore.Lipo>
81.6923

> <Gold.Chemscore.Internal_Hbond>
0.0000

> <Gold.Chemscore.DEClash>
0.7818

> <Gold.Chemscore.DEInternal>
0.6389

> <Gold.Chemscore.Rot>
2.8621

> <Gold.Chemscore.Internal.Correction>
   9.000000E+99

> <Gold.Chemscore.Hbonds>
donor molecule, donor type, donor heavy atom, donor atom, acceptor molecule, acceptor atom, score
      P1  H  6933  6944       L1    18  0.01
      P1  H  6934  6946       L1    12  0.98

> <Gold.Chemscore.Hbond.Weighted>
-3.6318

> <Gold.Chemscore.Metal.Weighted>
-0.0000

> <Gold.Chemscore.Lipo.Weighted>
-9.5580

> <Gold.Chemscore.Internal_Hbond.Weighted>
0.0000

> <Gold.Chemscore.DEClash.Weighted>
0.7818

> <Gold.Chemscore.DEInternal.Weighted>
0.6389

> <Gold.Chemscore.Rot.Weighted>
7.3270

> <Gold.Chemscore.Internal.Correction.Weighted>
   9.000000E+99

> <Gold.Protein.RotatedTorsions>
[ 6907 6896 6895 6894 ] final   56.07 input  -60.11 | X-H torsion
[ 7974 7965 7964 7962 ] final   46.10 input  175.53 | X-H torsion
[ 8008 7997 7996 7995 ] final  -11.49 input   59.86 | X-H torsion
[ 10167 10162 10161 10158 ] final   -5.05 input  -65.29 | X-H torsion
[ 10718 10713 10712 10709 ] final  -92.96 input   66.30 | X-H torsion
[ 10763 10752 10751 10750 ] final  138.22 input  -60.55 | X-H torsion
[ 11005 11000 10999 10996 ] final -102.10 input  -57.11 | X-H torsion

> <Gold.Protein.ActiveResidues>
 VAL166  LYS551  ARG553  GLY616  TRP617  ASP618  TYR619  PRO620  LYS621  CYS622 
 ASP623  PHE694  ASN695  SER759  ASP760  ASP761  ALA762  ILE779  LEU786  VAL792 
 PHE793  MET794  SER795  GLU796  ALA797  LYS798  CYS799  TRP800  GLU811  SER814 

> <Gold.Protein.RotatedAtoms>
  152.3600  134.6886  160.0209 H   0  0  0  0  0  0  0  0  0  0  0  0  # atno 6907 bound_to 6896
  151.7212  133.3309  159.3324 H   0  0  0  0  0  0  0  0  0  0  0  0  # atno 6908 bound_to 6896
  150.7598  134.6380  159.6266 H   0  0  0  0  0  0  0  0  0  0  0  0  # atno 6909 bound_to 6896
  146.0420  139.4892  142.9772 H   0  0  0  0  0  0  0  0  0  0  0  0  # atno 7974 bound_to 7965
  154.5460  140.2301  155.8562 H   0  0  0  0  0  0  0  0  0  0  0  0  # atno 8008 bound_to 7997
  156.1903  140.3078  155.9281 H   0  0  0  0  0  0  0  0  0  0  0  0  # atno 8009 bound_to 7997
  155.3163  140.0438  157.3028 H   0  0  0  0  0  0  0  0  0  0  0  0  # atno 8010 bound_to 7997
  140.6949  143.6353  150.8485 H   0  0  0  0  0  0  0  0  0  0  0  0  # atno 10167 bound_to 10162
  156.0008  130.5008  150.5705 H   0  0  0  0  0  0  0  0  0  0  0  0  # atno 10718 bound_to 10713
  153.8860  135.3038  155.3446 H   0  0  0  0  0  0  0  0  0  0  0  0  # atno 10763 bound_to 10752
  154.7739  135.4871  153.9707 H   0  0  0  0  0  0  0  0  0  0  0  0  # atno 10764 bound_to 10752
  153.1324  135.6807  153.9254 H   0  0  0  0  0  0  0  0  0  0  0  0  # atno 10765 bound_to 10752
  141.1203  133.8531  157.1316 H   0  0  0  0  0  0  0  0  0  0  0  0  # atno 11005 bound_to 11000
  145.6868  141.0175  143.1577 LP  0  0  0  0  0  0  0  0  0  0  0  0  # atno 17320 bound_to 7965
  144.7079  139.8486  143.7424 LP  0  0  0  0  0  0  0  0  0  0  0  0  # atno 17321 bound_to 7965
  140.0070  143.5683  152.2854 LP  0  0  0  0  0  0  0  0  0  0  0  0  # atno 17342 bound_to 10162
  139.6393  144.7653  151.2372 LP  0  0  0  0  0  0  0  0  0  0  0  0  # atno 17343 bound_to 10162
  157.3600  131.0748  151.1644 LP  0  0  0  0  0  0  0  0  0  0  0  0  # atno 17370 bound_to 10713
  157.2432  130.6579  149.5898 LP  0  0  0  0  0  0  0  0  0  0  0  0  # atno 17371 bound_to 10713
  140.0156  134.9969  157.0486 LP  0  0  0  0  0  0  0  0  0  0  0  0  # atno 17394 bound_to 11000
  140.4525  134.1567  155.7183 LP  0  0  0  0  0  0  0  0  0  0  0  0  # atno 17395 bound_to 11000

$$$$
