AV-unprocessed.smi:1425|AV-procd|sdf|5803|dock3
  -GOLD-   22720 5453D 1   1.00000     0.00000
 Structure written by MMmdl.
 36 37  0  0  0  0  0  0  0  0  1 V2000
  147.9132  133.1966  152.3385 C   0  0  0  0  0  0  0  0  0  0  0  0
  146.4824  133.1136  151.8318 C   0  0  0  0  0  0  0  0  0  0  0  0
  145.8684  131.8497  151.7021 C   0  0  0  0  0  0  0  0  0  0  0  0
  144.5456  131.7743  151.2335 C   0  0  0  0  0  0  0  0  0  0  0  0
  143.8887  132.9744  150.9122 C   0  0  0  0  0  0  0  0  0  0  0  0
  144.4677  134.1863  151.0335 N   0  0  0  0  0  0  0  0  0  0  0  0
  145.7439  134.2767  151.4852 C   0  0  0  0  0  0  0  0  0  0  0  0
  146.4173  135.5218  151.6376 N   0  0  0  0  0  0  0  0  0  0  0  0
  145.8880  136.7349  151.8762 C   0  0  0  0  0  0  0  0  0  0  0  0
  144.6884  136.9766  152.0137 O   0  0  0  0  0  0  0  0  0  0  0  0
  146.8416  137.6747  151.9494 N   0  0  0  0  0  0  0  0  0  0  0  0
  146.6011  139.0915  152.2040 C   0  0  0  0  0  0  0  0  0  0  0  0
  147.3263  139.5961  153.4680 C   0  0  2  0  0  0  0  0  0  0  0  0
  147.7623  141.0737  153.3800 C   0  0  0  0  0  0  0  0  0  0  0  0
  148.7137  141.3714  154.5424 C   0  0  0  0  0  0  0  0  0  0  0  0
  149.6695  139.8316  154.8002 S   0  0  0  0  0  0  0  0  0  0  0  0
  150.9696  139.9437  154.1217 O   0  0  0  0  0  0  0  0  0  0  0  0
  149.5857  139.4456  156.2169 O   0  0  0  0  0  0  0  0  0  0  0  0
  148.5699  138.7560  153.8012 C   0  0  0  0  0  0  0  0  0  0  0  0
  148.3169  132.2064  152.5519 H   0  0  0  0  0  0  0  0  0  0  0  0
  147.9598  133.7826  153.2569 H   0  0  0  0  0  0  0  0  0  0  0  0
  148.5557  133.6663  151.5932 H   0  0  0  0  0  0  0  0  0  0  0  0
  146.4018  130.9461  151.9585 H   0  0  0  0  0  0  0  0  0  0  0  0
  144.0479  130.8222  151.1234 H   0  0  0  0  0  0  0  0  0  0  0  0
  142.8720  132.9623  150.5484 H   0  0  0  0  0  0  0  0  0  0  0  0
  147.4223  135.4804  151.5578 H   0  0  0  0  0  0  0  0  0  0  0  0
  147.8026  137.3907  151.8265 H   0  0  0  0  0  0  0  0  0  0  0  0
  146.9059  139.6770  151.3348 H   0  0  0  0  0  0  0  0  0  0  0  0
  145.5254  139.2359  152.3082 H   0  0  0  0  0  0  0  0  0  0  0  0
  146.6484  139.5112  154.3190 H   0  0  0  0  0  0  0  0  0  0  0  0
  148.2910  141.2368  152.4399 H   0  0  0  0  0  0  0  0  0  0  0  0
  146.9084  141.7518  153.3877 H   0  0  0  0  0  0  0  0  0  0  0  0
  149.3856  142.2069  154.3457 H   0  0  0  0  0  0  0  0  0  0  0  0
  148.1545  141.5780  155.4553 H   0  0  0  0  0  0  0  0  0  0  0  0
  148.3300  137.8475  154.3540 H   0  0  0  0  0  0  0  0  0  0  0  0
  149.1121  138.4768  152.8972 H   0  0  0  0  0  0  0  0  0  0  0  0
  1  2  1  0  0  0  0
  1 20  1  0  0  0  0
  1 21  1  0  0  0  0
  1 22  1  0  0  0  0
  2  7  1  0  0  0  0
  2  3  2  0  0  0  0
  3  4  1  0  0  0  0
  3 23  1  0  0  0  0
  4  5  2  0  0  0  0
  4 24  1  0  0  0  0
  5  6  1  0  0  0  0
  5 25  1  0  0  0  0
  6  7  2  0  0  0  0
  7  8  1  0  0  0  0
  8  9  1  0  0  0  0
  8 26  1  0  0  0  0
  9 10  2  0  0  0  0
  9 11  1  0  0  0  0
 11 12  1  0  0  0  0
 11 27  1  0  0  0  0
 12 13  1  0  0  0  0
 12 28  1  0  0  0  0
 12 29  1  0  0  0  0
 13 19  1  0  0  0  0
 13 14  1  0  0  0  0
 13 30  1  0  0  0  0
 14 15  1  0  0  0  0
 14 31  1  0  0  0  0
 14 32  1  0  0  0  0
 15 16  1  0  0  0  0
 15 33  1  0  0  0  0
 15 34  1  0  0  0  0
 16 17  2  0  0  0  0
 16 18  2  0  0  0  0
 16 19  1  0  0  0  0
 19 35  1  0  0  0  0
 19 36  1  0  0  0  0
M  END
> <s_m_source_file>
AV-unprocessed.smi

> <i_m_source_file_index>
1425

> <i_lp_mmshare_version>
43012

> <i_f3d_flags>
0

> <s_epik_input>
W0NIM11jMVtjSF1bY0hdW2NIXW5jMVtOSF1DKD1PKVtOSF1bQ0gyXVtDQEBIXShbQ0gyXTIpW0NIMl1bQ0gyXVMyKD1PKT1P

> <s_epik_cmdline>
J2VwaWtfcHl0aG9uJywgJy1waCcsICc3LjAnLCAnLXRuJywgJzgnLCAnLW1hJywgJzIwMCcsICctbWV0YWxfYmluZGluZycsICctaW1hZScsICc8aW5maWxlLm1hZT4nLCAnLW9tYWUnLCAnPG91dGZpbGUubWFlPic=

> <r_lp_tautomer_probability>
1

> <r_epik_Ionization_Penalty>
5.46275e-05

> <r_epik_Ionization_Penalty_Charging>
0

> <r_epik_Ionization_Penalty_Neutral>
5.46275e-05

> <r_epik_State_Penalty>
-0

> <r_epik_Charging_Adjusted_Penalty>
0

> <i_epik_Tot_Q>
0

> <i_epik_Tot_abs_Q>
0

> <r_epik_Metal_State_Penalty>
-0

> <b_epik_Metal_Only>
0

> <s_lp_Force_Field>
OPLS_2005

> <r_lp_Energy>
6.25093

> <b_lp_Chiralities_Consistent>
1

> <s_lp_Variant>
AV-unprocessed.smi:1425-1

> <Gold.Version>
5.8.1

> <Gold.Id.Protein>
6NUR|6NUR_protein|mol2

> <Gold.PLP.Fitness>
43.8990

> <Gold.PLP.PLP>
-33.0855

> <Gold.PLP.part.hbond>
-3.0000

> <Gold.PLP.part.metal>
0.0000

> <Gold.PLP.part.buried>
-4.5684

> <Gold.PLP.part.nonpolar>
-28.6137

> <Gold.PLP.part.repulsive>
2.4719

> <Gold.PLP.ligand.clash>
0.0000

> <Gold.PLP.ligand.torsion>
0.5948

> <Gold.PLP.Chemscore.Hbond>
3.0000

> <Gold.PLP.Chemscore.CHOScore>
0.9997

> <Gold.PLP.Chemscore.Metal>
0.0000

> <Gold.Chemscore.Hbonds>
donor molecule, donor type, donor heavy atom, donor atom, acceptor molecule, acceptor atom, score
      L1  H     8    26       P1  7948  0.99
      L1  H    11    27       P1  7948  1.00
      P1  H  7989  7998       L1    17  0.41
      L1  C     5    25       P1 10186  0.91

> <Gold.PLP.Chemscore.Internal.Correction>
0.0042

> <Gold.Rescore>
     Score         DG    S(hbond)    S(metal)    S(lipo)     H(rot)  DE(clash)    DE(int)     intcor
     17.80     -19.68       2.92        0.00      66.37       1.29       0.09       1.79       ----

> <Gold.Chemscore.Fitness>
17.7951

> <Gold.Chemscore.DG>
-19.6837

> <Gold.Chemscore.ZeroCoef>
-5.4800

> <Gold.Chemscore.Hbond>
2.9193

> <Gold.Chemscore.Metal>
0.0000

> <Gold.Chemscore.Lipo>
66.3723

> <Gold.Chemscore.Internal_Hbond>
0.0000

> <Gold.Chemscore.DEClash>
0.0936

> <Gold.Chemscore.DEInternal>
1.7949

> <Gold.Chemscore.Rot>
1.2939

> <Gold.Chemscore.Internal.Correction>
   9.000000E+99

> <Gold.Chemscore.Hbonds>
donor molecule, donor type, donor heavy atom, donor atom, acceptor molecule, acceptor atom, score
      L1  H     8    26       P1  7948  0.90
      L1  H    11    27       P1  7948  0.94
      P1  H  7989  7998       L1    17  0.41

> <Gold.Chemscore.Hbond.Weighted>
-9.7504

> <Gold.Chemscore.Metal.Weighted>
-0.0000

> <Gold.Chemscore.Lipo.Weighted>
-7.7656

> <Gold.Chemscore.Internal_Hbond.Weighted>
0.0000

> <Gold.Chemscore.DEClash.Weighted>
0.0936

> <Gold.Chemscore.DEInternal.Weighted>
1.7949

> <Gold.Chemscore.Rot.Weighted>
3.3123

> <Gold.Chemscore.Internal.Correction.Weighted>
   9.000000E+99

> <Gold.Protein.RotatedTorsions>
[ 6907 6896 6895 6894 ] final  -10.23 input  -60.11 | X-H torsion
[ 7974 7965 7964 7962 ] final  -63.86 input  175.53 | X-H torsion
[ 8008 7997 7996 7995 ] final -153.10 input   59.86 | X-H torsion
[ 10167 10162 10161 10158 ] final   85.67 input  -65.29 | X-H torsion
[ 10718 10713 10712 10709 ] final  151.14 input   66.30 | X-H torsion
[ 10763 10752 10751 10750 ] final  155.32 input  -60.55 | X-H torsion
[ 11005 11000 10999 10996 ] final  145.82 input  -57.11 | X-H torsion

> <Gold.Protein.ActiveResidues>
 VAL166  LYS551  ARG553  GLY616  TRP617  ASP618  TYR619  PRO620  LYS621  CYS622 
 ASP623  PHE694  ASN695  SER759  ASP760  ASP761  ALA762  ILE779  LEU786  VAL792 
 PHE793  MET794  SER795  GLU796  ALA797  LYS798  CYS799  TRP800  GLU811  SER814 

> <Gold.Protein.RotatedAtoms>
  151.4052  135.0977  159.9567 H   0  0  0  0  0  0  0  0  0  0  0  0  # atno 6907 bound_to 6896
  152.5038  133.8850  159.7376 H   0  0  0  0  0  0  0  0  0  0  0  0  # atno 6908 bound_to 6896
  150.9333  133.6685  159.2834 H   0  0  0  0  0  0  0  0  0  0  0  0  # atno 6909 bound_to 6896
  145.7738  140.8799  143.0366 H   0  0  0  0  0  0  0  0  0  0  0  0  # atno 7974 bound_to 7965
  155.6656  140.0727  157.2538 H   0  0  0  0  0  0  0  0  0  0  0  0  # atno 8008 bound_to 7997
  154.4133  140.1708  156.1874 H   0  0  0  0  0  0  0  0  0  0  0  0  # atno 8009 bound_to 7997
  155.9660  140.3366  155.6536 H   0  0  0  0  0  0  0  0  0  0  0  0  # atno 8010 bound_to 7997
  139.8954  144.6361  150.8694 H   0  0  0  0  0  0  0  0  0  0  0  0  # atno 10167 bound_to 10162
  157.2745  131.0823  151.1576 H   0  0  0  0  0  0  0  0  0  0  0  0  # atno 10718 bound_to 10713
  154.1664  135.2807  155.3094 H   0  0  0  0  0  0  0  0  0  0  0  0  # atno 10763 bound_to 10752
  154.6108  135.5499  153.7474 H   0  0  0  0  0  0  0  0  0  0  0  0  # atno 10764 bound_to 10752
  153.0177  135.6415  154.1805 H   0  0  0  0  0  0  0  0  0  0  0  0  # atno 10765 bound_to 10752
  140.0743  134.9134  157.1396 H   0  0  0  0  0  0  0  0  0  0  0  0  # atno 11005 bound_to 11000
  144.6808  139.9892  143.7484 LP  0  0  0  0  0  0  0  0  0  0  0  0  # atno 17320 bound_to 7965
  146.0143  139.3196  143.0851 LP  0  0  0  0  0  0  0  0  0  0  0  0  # atno 17321 bound_to 7965
  140.7718  143.3478  151.2076 LP  0  0  0  0  0  0  0  0  0  0  0  0  # atno 17342 bound_to 10162
  139.7072  143.9435  152.2932 LP  0  0  0  0  0  0  0  0  0  0  0  0  # atno 17343 bound_to 10162
  157.3034  130.6854  149.6176 LP  0  0  0  0  0  0  0  0  0  0  0  0  # atno 17370 bound_to 10713
  155.9663  130.4385  150.5220 LP  0  0  0  0  0  0  0  0  0  0  0  0  # atno 17371 bound_to 10713
  140.3581  134.2524  155.7190 LP  0  0  0  0  0  0  0  0  0  0  0  0  # atno 17394 bound_to 11000
  141.2023  133.7940  157.0395 LP  0  0  0  0  0  0  0  0  0  0  0  0  # atno 17395 bound_to 11000

$$$$
