AV-unprocessed.smi:1206|AV-procd|sdf|5047|dock9
  -GOLD-   22720 4 73D 1   1.00000     0.00000
 Structure written by MMmdl.
 41 42  0  0  0  0  0  0  0  0  2 V2000
  146.6600  135.8787  154.4863 C   0  0  0  0  0  0  0  0  0  0  0  0
  146.6994  136.9413  153.4492 N   0  3  0  0  0  0  0  0  0  0  0  0
  145.5791  136.7574  152.4891 C   0  0  0  0  0  0  0  0  0  0  0  0
  146.9102  138.3574  153.9358 C   0  0  0  0  0  0  0  0  0  0  0  0
  145.7966  138.6860  154.9833 C   0  0  0  0  0  0  0  0  0  0  0  0
  144.4590  138.7995  154.4007 N   0  0  0  0  0  0  0  0  0  0  0  0
  143.3808  138.0870  154.7569 C   0  0  0  0  0  0  0  0  0  0  0  0
  143.4020  137.2157  155.6251 O   0  0  0  0  0  0  0  0  0  0  0  0
  142.3042  138.4421  154.0381 N   0  0  0  0  0  0  0  0  0  0  0  0
  140.9924  137.9104  154.1134 C   0  0  0  0  0  0  0  0  0  0  0  0
  140.7711  136.9051  154.9683 N   0  0  0  0  0  0  0  0  0  0  0  0
  139.4483  136.4808  154.9413 N   0  0  0  0  0  0  0  0  0  0  0  0
  138.7232  137.1828  154.0651 C   0  0  0  0  0  0  0  0  0  0  0  0
  139.5834  138.4352  153.1869 S   0  0  0  0  0  0  0  0  0  0  0  0
  148.3171  138.5131  154.5903 C   0  0  0  0  0  0  0  0  0  0  0  0
  148.6754  139.9620  154.9771 C   0  0  0  0  0  0  0  0  0  0  0  0
  148.5393  140.9233  153.7891 C   0  0  0  0  0  0  0  0  0  0  0  0
  147.1444  140.8320  153.1571 C   0  0  0  0  0  0  0  0  0  0  0  0
  146.8228  139.3817  152.7549 C   0  0  0  0  0  0  0  0  0  0  0  0
  145.8893  136.0773  155.2317 H   0  0  0  0  0  0  0  0  0  0  0  0
  147.6210  135.7703  154.9886 H   0  0  0  0  0  0  0  0  0  0  0  0
  146.4451  134.9084  154.0371 H   0  0  0  0  0  0  0  0  0  0  0  0
  144.6122  136.8059  152.9910 H   0  0  0  0  0  0  0  0  0  0  0  0
  145.6521  135.7787  152.0138 H   0  0  0  0  0  0  0  0  0  0  0  0
  145.5844  137.4941  151.6880 H   0  0  0  0  0  0  0  0  0  0  0  0
  145.7899  137.9628  155.7985 H   0  0  0  0  0  0  0  0  0  0  0  0
  145.9906  139.6350  155.4787 H   0  0  0  0  0  0  0  0  0  0  0  0
  144.3433  139.4959  153.6785 H   0  0  0  0  0  0  0  0  0  0  0  0
  142.4347  139.1744  153.3554 H   0  0  0  0  0  0  0  0  0  0  0  0
  137.6739  136.9618  153.9356 H   0  0  0  0  0  0  0  0  0  0  0  0
  148.3966  137.8992  155.4877 H   0  0  0  0  0  0  0  0  0  0  0  0
  149.0812  138.1452  153.9046 H   0  0  0  0  0  0  0  0  0  0  0  0
  148.0450  140.3014  155.7987 H   0  0  0  0  0  0  0  0  0  0  0  0
  149.6975  139.9950  155.3556 H   0  0  0  0  0  0  0  0  0  0  0  0
  148.7377  141.9460  154.1112 H   0  0  0  0  0  0  0  0  0  0  0  0
  149.2953  140.6838  153.0402 H   0  0  0  0  0  0  0  0  0  0  0  0
  146.3917  141.2241  153.8406 H   0  0  0  0  0  0  0  0  0  0  0  0
  147.1047  141.4711  152.2745 H   0  0  0  0  0  0  0  0  0  0  0  0
  147.5456  139.1340  151.9779 H   0  0  0  0  0  0  0  0  0  0  0  0
  145.8440  139.3421  152.2758 H   0  0  0  0  0  0  0  0  0  0  0  0
  147.5316  136.7373  152.9141 H   0  0  0  0  0  0  0  0  0  0  0  0
  1  2  1  0  0  0  0
  1 20  1  0  0  0  0
  1 21  1  0  0  0  0
  1 22  1  0  0  0  0
  2  3  1  0  0  0  0
  2  4  1  0  0  0  0
  2 41  1  0  0  0  0
  3 23  1  0  0  0  0
  3 24  1  0  0  0  0
  3 25  1  0  0  0  0
  4 19  1  0  0  0  0
  4  5  1  0  0  0  0
  4 15  1  0  0  0  0
  5  6  1  0  0  0  0
  5 26  1  0  0  0  0
  5 27  1  0  0  0  0
  6  7  1  0  0  0  0
  6 28  1  0  0  0  0
  7  8  2  0  0  0  0
  7  9  1  0  0  0  0
  9 10  1  0  0  0  0
  9 29  1  0  0  0  0
 10 14  1  0  0  0  0
 10 11  2  0  0  0  0
 11 12  1  0  0  0  0
 12 13  2  0  0  0  0
 13 14  1  0  0  0  0
 13 30  1  0  0  0  0
 15 16  1  0  0  0  0
 15 31  1  0  0  0  0
 15 32  1  0  0  0  0
 16 17  1  0  0  0  0
 16 33  1  0  0  0  0
 16 34  1  0  0  0  0
 17 18  1  0  0  0  0
 17 35  1  0  0  0  0
 17 36  1  0  0  0  0
 18 19  1  0  0  0  0
 18 37  1  0  0  0  0
 18 38  1  0  0  0  0
 19 39  1  0  0  0  0
 19 40  1  0  0  0  0
M  CHG  1   2   1
M  END
> <s_m_source_file>
AV-unprocessed.smi

> <i_m_source_file_index>
1206

> <i_lp_mmshare_version>
43012

> <i_f3d_flags>
0

> <s_epik_input>
W0NIMl0xW0NIMl1bQ0gyXVtDSDJdW0NIMl1DMShOKFtDSDNdKVtDSDNdKVtDSDJdW05IXUMoPU8pW05IXWMybm5bY0hdczI=

> <s_epik_cmdline>
J2VwaWtfcHl0aG9uJywgJy1waCcsICc3LjAnLCAnLXRuJywgJzgnLCAnLW1hJywgJzIwMCcsICctbWV0YWxfYmluZGluZycsICctaW1hZScsICc8aW5maWxlLm1hZT4nLCAnLW9tYWUnLCAnPG91dGZpbGUubWFlPic=

> <r_lp_tautomer_probability>
1

> <r_epik_Ionization_Penalty>
0.00322257

> <r_epik_Ionization_Penalty_Charging>
0.00246239

> <r_epik_Ionization_Penalty_Neutral>
0.000760187

> <r_epik_State_Penalty>
-0

> <r_epik_Charging_Adjusted_Penalty>
0.00246239

> <i_epik_Tot_Q>
1

> <i_epik_Tot_abs_Q>
1

> <r_epik_Metal_State_Penalty>
0.262153

> <b_epik_Metal_Only>
0

> <s_lp_Force_Field>
OPLS_2005

> <r_lp_Energy>
30.8997

> <b_lp_Chiralities_Consistent>
1

> <s_lp_Variant>
AV-unprocessed.smi:1206-1

> <Gold.Version>
5.8.1

> <Gold.Id.Protein>
6NUR|6NUR_protein|mol2

> <Gold.PLP.Fitness>
39.8497

> <Gold.PLP.PLP>
-26.6311

> <Gold.PLP.part.hbond>
-4.5465

> <Gold.PLP.part.metal>
0.0000

> <Gold.PLP.part.buried>
-1.8520

> <Gold.PLP.part.nonpolar>
-20.7616

> <Gold.PLP.part.repulsive>
0.1635

> <Gold.PLP.ligand.clash>
0.0000

> <Gold.PLP.ligand.torsion>
0.2693

> <Gold.PLP.Chemscore.Hbond>
4.5500

> <Gold.PLP.Chemscore.CHOScore>
0.0000

> <Gold.PLP.Chemscore.Metal>
0.0000

> <Gold.Chemscore.Hbonds>
donor molecule, donor type, donor heavy atom, donor atom, acceptor molecule, acceptor atom, score
      L1  H     2    41       P1  7948  2.00
      L1  H     6    28       P1 10175  1.00
      L1  H     9    29       P1 10175  0.99
      P1  H 11000 11005       L1    12  0.40

> <Gold.PLP.Chemscore.Internal.Correction>
0.1071

> <Gold.Rescore>
     Score         DG    S(hbond)    S(metal)    S(lipo)     H(rot)  DE(clash)    DE(int)     intcor
     16.24     -18.31       2.93        0.00      62.22       1.66       0.09       1.97       ----

> <Gold.Chemscore.Fitness>
16.2402

> <Gold.Chemscore.DG>
-18.3070

> <Gold.Chemscore.ZeroCoef>
-5.4800

> <Gold.Chemscore.Hbond>
2.9349

> <Gold.Chemscore.Metal>
0.0000

> <Gold.Chemscore.Lipo>
62.2164

> <Gold.Chemscore.Internal_Hbond>
0.0000

> <Gold.Chemscore.DEClash>
0.0921

> <Gold.Chemscore.DEInternal>
1.9747

> <Gold.Chemscore.Rot>
1.6621

> <Gold.Chemscore.Internal.Correction>
   9.000000E+99

> <Gold.Chemscore.Hbonds>
donor molecule, donor type, donor heavy atom, donor atom, acceptor molecule, acceptor atom, score
      L1  H     2    41       P1  7948  1.00
      L1  H     6    28       P1 10175  1.00
      L1  H     9    29       P1 10175  0.94
      P1  H 11000 11005       L1    12  0.02

> <Gold.Chemscore.Hbond.Weighted>
-9.8026

> <Gold.Chemscore.Metal.Weighted>
-0.0000

> <Gold.Chemscore.Lipo.Weighted>
-7.2793

> <Gold.Chemscore.Internal_Hbond.Weighted>
0.0000

> <Gold.Chemscore.DEClash.Weighted>
0.0921

> <Gold.Chemscore.DEInternal.Weighted>
1.9747

> <Gold.Chemscore.Rot.Weighted>
4.2549

> <Gold.Chemscore.Internal.Correction.Weighted>
   9.000000E+99

> <Gold.Protein.RotatedTorsions>
[ 6907 6896 6895 6894 ] final  -46.94 input  -60.11 | X-H torsion
[ 7974 7965 7964 7962 ] final -158.52 input  175.53 | X-H torsion
[ 8008 7997 7996 7995 ] final  -19.42 input   59.86 | X-H torsion
[ 10167 10162 10161 10158 ] final  171.16 input  -65.29 | X-H torsion
[ 10718 10713 10712 10709 ] final  117.22 input   66.30 | X-H torsion
[ 10763 10752 10751 10750 ] final   21.78 input  -60.55 | X-H torsion
[ 11005 11000 10999 10996 ] final   64.47 input  -57.11 | X-H torsion

> <Gold.Protein.ActiveResidues>
 VAL166  LYS551  ARG553  GLY616  TRP617  ASP618  TYR619  PRO620  LYS621  CYS622 
 ASP623  PHE694  ASN695  SER759  ASP760  ASP761  ALA762  ILE779  LEU786  VAL792 
 PHE793  MET794  SER795  GLU796  ALA797  LYS798  CYS799  TRP800  GLU811  SER814 

> <Gold.Protein.RotatedAtoms>
  150.9059  134.8474  159.7391 H   0  0  0  0  0  0  0  0  0  0  0  0  # atno 6907 bound_to 6896
  152.4918  134.4432  159.9560 H   0  0  0  0  0  0  0  0  0  0  0  0  # atno 6908 bound_to 6896
  151.4479  133.3586  159.2826 H   0  0  0  0  0  0  0  0  0  0  0  0  # atno 6909 bound_to 6896
  144.7502  140.3816  143.6054 H   0  0  0  0  0  0  0  0  0  0  0  0  # atno 7974 bound_to 7965
  154.4838  140.2089  155.9703 H   0  0  0  0  0  0  0  0  0  0  0  0  # atno 8008 bound_to 7997
  156.1205  140.3214  155.8170 H   0  0  0  0  0  0  0  0  0  0  0  0  # atno 8009 bound_to 7997
  155.4476  140.0514  157.2995 H   0  0  0  0  0  0  0  0  0  0  0  0  # atno 8010 bound_to 7997
  139.5039  144.3516  151.9916 H   0  0  0  0  0  0  0  0  0  0  0  0  # atno 10167 bound_to 10162
  157.6110  131.1034  150.7584 H   0  0  0  0  0  0  0  0  0  0  0  0  # atno 10718 bound_to 10713
  153.0968  135.6662  153.9748 H   0  0  0  0  0  0  0  0  0  0  0  0  # atno 10763 bound_to 10752
  153.9330  135.3002  155.3446 H   0  0  0  0  0  0  0  0  0  0  0  0  # atno 10764 bound_to 10752
  154.7387  135.5089  153.9160 H   0  0  0  0  0  0  0  0  0  0  0  0  # atno 10765 bound_to 10752
  139.9956  134.6522  156.0015 H   0  0  0  0  0  0  0  0  0  0  0  0  # atno 11005 bound_to 11000
  145.6972  139.1652  143.2613 LP  0  0  0  0  0  0  0  0  0  0  0  0  # atno 17320 bound_to 7965
  146.1441  140.7016  142.9353 LP  0  0  0  0  0  0  0  0  0  0  0  0  # atno 17321 bound_to 7965
  140.2953  144.3708  150.6076 LP  0  0  0  0  0  0  0  0  0  0  0  0  # atno 17342 bound_to 10162
  140.5915  143.2168  151.7244 LP  0  0  0  0  0  0  0  0  0  0  0  0  # atno 17343 bound_to 10162
  156.7961  130.4906  149.5377 LP  0  0  0  0  0  0  0  0  0  0  0  0  # atno 17370 bound_to 10713
  156.1214  130.6112  151.0198 LP  0  0  0  0  0  0  0  0  0  0  0  0  # atno 17371 bound_to 10713
  141.1602  133.6539  156.4293 LP  0  0  0  0  0  0  0  0  0  0  0  0  # atno 17394 bound_to 11000
  140.4824  134.6652  157.5176 LP  0  0  0  0  0  0  0  0  0  0  0  0  # atno 17395 bound_to 11000

$$$$
