AV-unprocessed.smi:1454|AV-procd|sdf|5913|dock3
  -GOLD-   22720 5593D 1   1.00000     0.00000
 Structure written by MMmdl.
 44 45  0  0  0  0  0  0  0  0  1 V2000
  150.7269  133.2345  156.5179 O   0  0  0  0  0  0  0  0  0  0  0  0
  149.7653  133.8891  156.1134 C   0  0  0  0  0  0  0  0  0  0  0  0
  149.5333  134.0977  154.6130 C   0  0  0  0  0  0  0  0  0  0  0  0
  148.7738  132.9335  153.9462 C   0  0  0  0  0  0  0  0  0  0  0  0
  147.7746  133.4151  152.9992 N   0  0  0  0  0  0  0  0  0  0  0  0
  146.7093  132.7167  152.5772 C   0  0  0  0  0  0  0  0  0  0  0  0
  146.4680  131.5671  152.9475 O   0  0  0  0  0  0  0  0  0  0  0  0
  145.7763  133.4279  151.5831 C   0  0  0  0  0  0  0  0  0  0  0  0
  144.3538  133.6208  152.1597 C   0  0  0  0  0  0  0  0  0  0  0  0
  143.3883  132.8751  151.2297 C   0  0  0  0  0  0  0  0  0  0  0  0
  144.2538  131.8751  150.4686 C   0  0  0  0  0  0  0  0  0  0  0  0
  145.5844  132.6054  150.2942 C   0  0  0  0  0  0  0  0  0  0  0  0
  148.8642  134.4475  156.9342 N   0  0  0  0  0  0  0  0  0  0  0  0
  148.9022  134.3454  158.3866 C   0  0  0  0  0  0  0  0  0  0  0  0
  147.4931  134.4864  158.9775 C   0  0  0  0  0  0  0  0  0  0  0  0
  147.5162  135.0901  160.3680 C   0  0  0  0  0  0  0  0  0  0  0  0
  147.2219  134.3070  161.5031 C   0  0  0  0  0  0  0  0  0  0  0  0
  147.2502  134.9157  162.7726 C   0  0  0  0  0  0  0  0  0  0  0  0
  147.5716  136.2855  162.8526 C   0  0  0  0  0  0  0  0  0  0  0  0
  147.8551  137.0451  161.7725 N   0  0  0  0  0  0  0  0  0  0  0  0
  147.8260  136.4535  160.5590 C   0  0  0  0  0  0  0  0  0  0  0  0
  148.9789  135.0273  154.4805 H   0  0  0  0  0  0  0  0  0  0  0  0
  150.4984  134.2367  154.1236 H   0  0  0  0  0  0  0  0  0  0  0  0
  149.4672  132.2567  153.4438 H   0  0  0  0  0  0  0  0  0  0  0  0
  148.2524  132.3418  154.6994 H   0  0  0  0  0  0  0  0  0  0  0  0
  147.8970  134.3528  152.6448 H   0  0  0  0  0  0  0  0  0  0  0  0
  146.2067  134.3973  151.3262 H   0  0  0  0  0  0  0  0  0  0  0  0
  144.2684  133.2226  153.1725 H   0  0  0  0  0  0  0  0  0  0  0  0
  144.0910  134.6774  152.2195 H   0  0  0  0  0  0  0  0  0  0  0  0
  142.5730  132.3939  151.7712 H   0  0  0  0  0  0  0  0  0  0  0  0
  142.9448  133.5801  150.5252 H   0  0  0  0  0  0  0  0  0  0  0  0
  144.3982  130.9764  151.0696 H   0  0  0  0  0  0  0  0  0  0  0  0
  143.8114  131.5744  149.5187 H   0  0  0  0  0  0  0  0  0  0  0  0
  145.5206  133.2807  149.4400 H   0  0  0  0  0  0  0  0  0  0  0  0
  146.4034  131.9133  150.0922 H   0  0  0  0  0  0  0  0  0  0  0  0
  148.1027  134.9711  156.5268 H   0  0  0  0  0  0  0  0  0  0  0  0
  149.3304  133.3826  158.6702 H   0  0  0  0  0  0  0  0  0  0  0  0
  149.5573  135.1213  158.7861 H   0  0  0  0  0  0  0  0  0  0  0  0
  146.8750  135.1093  158.3296 H   0  0  0  0  0  0  0  0  0  0  0  0
  147.0067  133.5110  159.0239 H   0  0  0  0  0  0  0  0  0  0  0  0
  146.9761  133.2598  161.4043 H   0  0  0  0  0  0  0  0  0  0  0  0
  147.0295  134.3472  163.6639 H   0  0  0  0  0  0  0  0  0  0  0  0
  147.6006  136.7847  163.8098 H   0  0  0  0  0  0  0  0  0  0  0  0
  148.0542  137.0884  159.7154 H   0  0  0  0  0  0  0  0  0  0  0  0
  1  2  2  0  0  0  0
  2  3  1  0  0  0  0
  2 13  1  0  0  0  0
  3  4  1  0  0  0  0
  3 22  1  0  0  0  0
  3 23  1  0  0  0  0
  4  5  1  0  0  0  0
  4 24  1  0  0  0  0
  4 25  1  0  0  0  0
  5  6  1  0  0  0  0
  5 26  1  0  0  0  0
  6  7  2  0  0  0  0
  6  8  1  0  0  0  0
  8 12  1  0  0  0  0
  8  9  1  0  0  0  0
  8 27  1  0  0  0  0
  9 10  1  0  0  0  0
  9 28  1  0  0  0  0
  9 29  1  0  0  0  0
 10 11  1  0  0  0  0
 10 30  1  0  0  0  0
 10 31  1  0  0  0  0
 11 12  1  0  0  0  0
 11 32  1  0  0  0  0
 11 33  1  0  0  0  0
 12 34  1  0  0  0  0
 12 35  1  0  0  0  0
 13 14  1  0  0  0  0
 13 36  1  0  0  0  0
 14 15  1  0  0  0  0
 14 37  1  0  0  0  0
 14 38  1  0  0  0  0
 15 16  1  0  0  0  0
 15 39  1  0  0  0  0
 15 40  1  0  0  0  0
 16 21  1  0  0  0  0
 16 17  2  0  0  0  0
 17 18  1  0  0  0  0
 17 41  1  0  0  0  0
 18 19  2  0  0  0  0
 18 42  1  0  0  0  0
 19 20  1  0  0  0  0
 19 43  1  0  0  0  0
 20 21  2  0  0  0  0
 21 44  1  0  0  0  0
M  END
> <s_m_source_file>
AV-unprocessed.smi

> <i_m_source_file_index>
1454

> <i_lp_mmshare_version>
43012

> <i_f3d_flags>
0

> <s_epik_input>
W2NIXTFuW2NIXVtjSF1bY0hdYzFbQ0gyXVtDSDJdW05IXUMoPU8pW0NIMl1bQ0gyXVtOSF1DKD1PKVtDSF0yW0NIMl1bQ0gyXVtDSDJdW0NIMl0y

> <s_epik_cmdline>
J2VwaWtfcHl0aG9uJywgJy1waCcsICc3LjAnLCAnLXRuJywgJzgnLCAnLW1hJywgJzIwMCcsICctbWV0YWxfYmluZGluZycsICctaW1hZScsICc8aW5maWxlLm1hZT4nLCAnLW9tYWUnLCAnPG91dGZpbGUubWFlPic=

> <r_epik_Ionization_Penalty>
0.013238

> <r_epik_Ionization_Penalty_Charging>
0

> <r_epik_Ionization_Penalty_Neutral>
0.013238

> <r_epik_State_Penalty>
0.0102918

> <r_epik_Charging_Adjusted_Penalty>
0.0102918

> <i_epik_Tot_Q>
0

> <i_epik_Tot_abs_Q>
0

> <r_epik_Metal_State_Penalty>
0.0100665

> <b_epik_Metal_Only>
0

> <s_lp_Force_Field>
OPLS_2005

> <r_lp_Energy>
20.9977

> <b_lp_Chiralities_Consistent>
1

> <s_lp_Variant>
AV-unprocessed.smi:1454-1

> <Gold.Version>
5.8.1

> <Gold.Id.Protein>
6NUR|6NUR_protein|mol2

> <Gold.PLP.Fitness>
46.6611

> <Gold.PLP.PLP>
-41.1254

> <Gold.PLP.part.hbond>
-3.0000

> <Gold.PLP.part.metal>
0.0000

> <Gold.PLP.part.buried>
-3.6313

> <Gold.PLP.part.nonpolar>
-34.0760

> <Gold.PLP.part.repulsive>
0.1719

> <Gold.PLP.ligand.clash>
0.0000

> <Gold.PLP.ligand.torsion>
1.3015

> <Gold.PLP.Chemscore.Hbond>
2.6392

> <Gold.PLP.Chemscore.CHOScore>
0.0000

> <Gold.PLP.Chemscore.Metal>
0.0000

> <Gold.Chemscore.Hbonds>
donor molecule, donor type, donor heavy atom, donor atom, acceptor molecule, acceptor atom, score
      L1  H     5    26       P1  7948  0.46
      P1  H  6931  6943       L1    20  1.00
      P1  H  6934  6947       L1    20  0.21

> <Gold.PLP.Chemscore.Internal.Correction>
0.2211

> <Gold.Rescore>
     Score         DG    S(hbond)    S(metal)    S(lipo)     H(rot)  DE(clash)    DE(int)     intcor
     14.05     -15.49       1.52        0.00      88.10       2.10       0.08       1.36       ----

> <Gold.Chemscore.Fitness>
14.0522

> <Gold.Chemscore.DG>
-15.4901

> <Gold.Chemscore.ZeroCoef>
-5.4800

> <Gold.Chemscore.Hbond>
1.5174

> <Gold.Chemscore.Metal>
0.0000

> <Gold.Chemscore.Lipo>
88.1035

> <Gold.Chemscore.Internal_Hbond>
0.0000

> <Gold.Chemscore.DEClash>
0.0799

> <Gold.Chemscore.DEInternal>
1.3580

> <Gold.Chemscore.Rot>
2.0961

> <Gold.Chemscore.Internal.Correction>
   9.000000E+99

> <Gold.Chemscore.Hbonds>
donor molecule, donor type, donor heavy atom, donor atom, acceptor molecule, acceptor atom, score
      L1  H     5    26       P1  7948  0.23
      P1  H  6931  6943       L1    20  0.84
      P1  H  6934  6947       L1    20  0.02

> <Gold.Chemscore.Hbond.Weighted>
-5.0680

> <Gold.Chemscore.Metal.Weighted>
-0.0000

> <Gold.Chemscore.Lipo.Weighted>
-10.3081

> <Gold.Chemscore.Internal_Hbond.Weighted>
0.0000

> <Gold.Chemscore.DEClash.Weighted>
0.0799

> <Gold.Chemscore.DEInternal.Weighted>
1.3580

> <Gold.Chemscore.Rot.Weighted>
5.3660

> <Gold.Chemscore.Internal.Correction.Weighted>
   9.000000E+99

> <Gold.Protein.RotatedTorsions>
[ 6907 6896 6895 6894 ] final   95.95 input  -60.11 | X-H torsion
[ 7974 7965 7964 7962 ] final  -68.74 input  175.53 | X-H torsion
[ 8008 7997 7996 7995 ] final  -42.51 input   59.86 | X-H torsion
[ 10167 10162 10161 10158 ] final -105.66 input  -65.29 | X-H torsion
[ 10718 10713 10712 10709 ] final -176.60 input   66.30 | X-H torsion
[ 10763 10752 10751 10750 ] final  113.99 input  -60.55 | X-H torsion
[ 11005 11000 10999 10996 ] final  -61.19 input  -57.11 | X-H torsion

> <Gold.Protein.ActiveResidues>
 VAL166  LYS551  ARG553  GLY616  TRP617  ASP618  TYR619  PRO620  LYS621  CYS622 
 ASP623  PHE694  ASN695  SER759  ASP760  ASP761  ALA762  ILE779  LEU786  VAL792 
 PHE793  MET794  SER795  GLU796  ALA797  LYS798  CYS799  TRP800  GLU811  SER814 

> <Gold.Protein.RotatedAtoms>
  152.5439  134.0961  159.8297 H   0  0  0  0  0  0  0  0  0  0  0  0  # atno 6907 bound_to 6896
  151.1045  133.5211  159.2616 H   0  0  0  0  0  0  0  0  0  0  0  0  # atno 6908 bound_to 6896
  151.1954  135.0429  159.8904 H   0  0  0  0  0  0  0  0  0  0  0  0  # atno 6909 bound_to 6896
  145.7126  140.9072  143.0672 H   0  0  0  0  0  0  0  0  0  0  0  0  # atno 7974 bound_to 7965
  154.3999  140.1471  156.3367 H   0  0  0  0  0  0  0  0  0  0  0  0  # atno 8008 bound_to 7997
  155.8394  140.3462  155.5601 H   0  0  0  0  0  0  0  0  0  0  0  0  # atno 8009 bound_to 7997
  155.8103  140.0883  157.1898 H   0  0  0  0  0  0  0  0  0  0  0  0  # atno 8010 bound_to 7997
  140.1961  143.3854  152.1167 H   0  0  0  0  0  0  0  0  0  0  0  0  # atno 10167 bound_to 10162
  156.8170  130.9606  151.3113 H   0  0  0  0  0  0  0  0  0  0  0  0  # atno 10718 bound_to 10713
  153.5006  135.3639  155.2538 H   0  0  0  0  0  0  0  0  0  0  0  0  # atno 10763 bound_to 10752
  154.8748  135.3999  154.3483 H   0  0  0  0  0  0  0  0  0  0  0  0  # atno 10764 bound_to 10752
  153.4118  135.7078  153.6420 H   0  0  0  0  0  0  0  0  0  0  0  0  # atno 10765 bound_to 10752
  141.1315  133.6628  156.5337 H   0  0  0  0  0  0  0  0  0  0  0  0  # atno 11005 bound_to 11000
  144.6938  139.9095  143.7462 LP  0  0  0  0  0  0  0  0  0  0  0  0  # atno 17320 bound_to 7965
  146.0699  139.3688  143.0530 LP  0  0  0  0  0  0  0  0  0  0  0  0  # atno 17321 bound_to 7965
  139.5236  144.7073  151.5314 LP  0  0  0  0  0  0  0  0  0  0  0  0  # atno 17342 bound_to 10162
  140.6422  143.8865  150.6703 LP  0  0  0  0  0  0  0  0  0  0  0  0  # atno 17343 bound_to 10162
  157.6476  130.8857  149.9569 LP  0  0  0  0  0  0  0  0  0  0  0  0  # atno 17370 bound_to 10713
  156.1011  130.3656  150.0217 LP  0  0  0  0  0  0  0  0  0  0  0  0  # atno 17371 bound_to 10713
  140.4195  134.7200  157.4882 LP  0  0  0  0  0  0  0  0  0  0  0  0  # atno 17394 bound_to 11000
  140.0370  134.6323  155.9031 LP  0  0  0  0  0  0  0  0  0  0  0  0  # atno 17395 bound_to 11000

$$$$
