AV-unprocessed.smi:3253|AV-procd|sdf|12452|dock3
  -GOLD-   2272018343D 1   1.00000     0.00000
 Structure written by MMmdl.
 36 37  0  0  0  0  0  0  0  0  1 V2000
  149.2089  141.2244  154.6451 C   0  0  0  0  0  0  0  0  0  0  0  0
  150.3423  141.0647  155.6672 C   0  0  1  0  0  0  0  0  0  0  0  0
  149.9557  141.6674  157.0351 C   0  0  0  0  0  0  0  0  0  0  0  0
  151.0772  142.2961  157.7097 N   0  0  0  0  0  0  0  0  0  0  0  0
  151.3323  143.6570  157.8208 C   0  0  0  0  0  0  0  0  0  0  0  0
  152.4909  143.7814  158.5534 C   0  0  0  0  0  0  0  0  0  0  0  0
  152.9675  142.5180  158.8944 N   0  0  0  0  0  0  0  0  0  0  0  0
  152.0805  141.6893  158.3586 C   0  0  0  0  0  0  0  0  0  0  0  0
  150.6677  139.6451  155.8005 N   0  0  0  0  0  0  0  0  0  0  0  0
  151.8478  139.0820  155.4959 C   0  0  0  0  0  0  0  0  0  0  0  0
  152.7918  139.7068  155.0107 O   0  0  0  0  0  0  0  0  0  0  0  0
  151.9955  137.5870  155.8162 C   0  0  1  0  0  0  0  0  0  0  0  0
  151.8341  137.3051  157.3242 C   0  0  0  0  0  0  0  0  0  0  0  0
  150.5174  136.5511  157.4165 C   0  0  0  0  0  0  0  0  0  0  0  0
  149.9945  136.2481  158.4880 O   0  0  0  0  0  0  0  0  0  0  0  0
  150.0307  136.2892  156.2003 N   0  0  0  0  0  0  0  0  0  0  0  0
  148.7774  135.6057  155.9122 C   0  0  0  0  0  0  0  0  0  0  0  0
  150.9014  136.7413  155.1292 C   0  0  0  0  0  0  0  0  0  0  0  0
  148.9536  142.2751  154.5048 H   0  0  0  0  0  0  0  0  0  0  0  0
  148.3065  140.7032  154.9662 H   0  0  0  0  0  0  0  0  0  0  0  0
  149.4978  140.8241  153.6728 H   0  0  0  0  0  0  0  0  0  0  0  0
  151.2042  141.6093  155.2773 H   0  0  0  0  0  0  0  0  0  0  0  0
  149.1780  142.4213  156.9063 H   0  0  0  0  0  0  0  0  0  0  0  0
  149.5401  140.8992  157.6886 H   0  0  0  0  0  0  0  0  0  0  0  0
  150.6817  144.4034  157.3897 H   0  0  0  0  0  0  0  0  0  0  0  0
  153.0139  144.6755  158.8588 H   0  0  0  0  0  0  0  0  0  0  0  0
  152.1571  140.6156  158.4482 H   0  0  0  0  0  0  0  0  0  0  0  0
  149.9514  139.0520  156.1939 H   0  0  0  0  0  0  0  0  0  0  0  0
  152.9789  137.2489  155.4845 H   0  0  0  0  0  0  0  0  0  0  0  0
  152.6404  136.6708  157.6933 H   0  0  0  0  0  0  0  0  0  0  0  0
  151.8055  138.2051  157.9406 H   0  0  0  0  0  0  0  0  0  0  0  0
  148.7375  134.6424  156.4216 H   0  0  0  0  0  0  0  0  0  0  0  0
  148.6644  135.4267  154.8425 H   0  0  0  0  0  0  0  0  0  0  0  0
  147.9317  136.2077  156.2465 H   0  0  0  0  0  0  0  0  0  0  0  0
  150.3324  137.3005  154.3839 H   0  0  0  0  0  0  0  0  0  0  0  0
  151.3378  135.8759  154.6287 H   0  0  0  0  0  0  0  0  0  0  0  0
  1  2  1  0  0  0  0
  1 19  1  0  0  0  0
  1 20  1  0  0  0  0
  1 21  1  0  0  0  0
  2  3  1  0  0  0  0
  2  9  1  0  0  0  0
  2 22  1  0  0  0  0
  3  4  1  0  0  0  0
  3 23  1  0  0  0  0
  3 24  1  0  0  0  0
  4  8  1  0  0  0  0
  4  5  1  0  0  0  0
  5  6  2  0  0  0  0
  5 25  1  0  0  0  0
  6  7  1  0  0  0  0
  6 26  1  0  0  0  0
  7  8  2  0  0  0  0
  8 27  1  0  0  0  0
  9 10  1  0  0  0  0
  9 28  1  0  0  0  0
 10 11  2  0  0  0  0
 10 12  1  0  0  0  0
 12 18  1  0  0  0  0
 12 13  1  0  0  0  0
 12 29  1  0  0  0  0
 13 14  1  0  0  0  0
 13 30  1  0  0  0  0
 13 31  1  0  0  0  0
 14 15  2  0  0  0  0
 14 16  1  0  0  0  0
 16 17  1  0  0  0  0
 16 18  1  0  0  0  0
 17 32  1  0  0  0  0
 17 33  1  0  0  0  0
 17 34  1  0  0  0  0
 18 35  1  0  0  0  0
 18 36  1  0  0  0  0
M  END
> <s_m_source_file>
AV-unprocessed.smi

> <i_m_source_file_index>
3253

> <i_lp_mmshare_version>
43012

> <i_f3d_flags>
0

> <s_epik_input>
W2NIXTFuW2NIXVtjSF1uMVtDSDJdW0NAQEhdKFtDSDNdKVtOSF1DKD1PKVtDQEBIXTJbQ0gyXUMoPU8pTihbQ0gzXSlbQ0gyXTI=

> <s_epik_cmdline>
J2VwaWtfcHl0aG9uJywgJy1waCcsICc3LjAnLCAnLXRuJywgJzgnLCAnLW1hJywgJzIwMCcsICctbWV0YWxfYmluZGluZycsICctaW1hZScsICc8aW5maWxlLm1hZT4nLCAnLW9tYWUnLCAnPG91dGZpbGUubWFlPic=

> <r_lp_tautomer_probability>
1

> <r_epik_Ionization_Penalty>
0.628884

> <r_epik_Ionization_Penalty_Charging>
0.628884

> <r_epik_Ionization_Penalty_Neutral>
2.35084e-08

> <r_epik_State_Penalty>
0.64556

> <r_epik_Charging_Adjusted_Penalty>
1.27444

> <i_epik_Tot_Q>
0

> <i_epik_Tot_abs_Q>
0

> <r_epik_Metal_State_Penalty>
0.308736

> <b_epik_Metal_Only>
0

> <s_lp_Force_Field>
OPLS_2005

> <r_lp_Energy>
12.6198

> <b_lp_Chiralities_Consistent>
1

> <s_lp_Variant>
AV-unprocessed.smi:3253-8

> <Gold.Version>
5.8.1

> <Gold.Id.Protein>
6NUR|6NUR_protein|mol2

> <Gold.PLP.Fitness>
39.3230

> <Gold.PLP.PLP>
-30.8883

> <Gold.PLP.part.hbond>
-3.0000

> <Gold.PLP.part.metal>
0.0000

> <Gold.PLP.part.buried>
-4.8741

> <Gold.PLP.part.nonpolar>
-25.0037

> <Gold.PLP.part.repulsive>
0.0953

> <Gold.PLP.ligand.clash>
0.0000

> <Gold.PLP.ligand.torsion>
0.7204

> <Gold.PLP.Chemscore.Hbond>
2.2814

> <Gold.PLP.Chemscore.CHOScore>
1.0000

> <Gold.PLP.Chemscore.Metal>
0.0000

> <Gold.Chemscore.Hbonds>
donor molecule, donor type, donor heavy atom, donor atom, acceptor molecule, acceptor atom, score
      P1  H  6896  6908       L1    15  1.00
      P1  H  7989  7998       L1    11  0.28
      P1  H  7997  8010       L1    11  1.00
      L1  C     5    25       P1  8028  1.00

> <Gold.PLP.Chemscore.Internal.Correction>
0.0312

> <Gold.Rescore>
     Score         DG    S(hbond)    S(metal)    S(lipo)     H(rot)  DE(clash)    DE(int)     intcor
     14.15     -14.62       2.09        0.00      61.35       1.97       0.01       0.46       ----

> <Gold.Chemscore.Fitness>
14.1547

> <Gold.Chemscore.DG>
-14.6164

> <Gold.Chemscore.ZeroCoef>
-5.4800

> <Gold.Chemscore.Hbond>
2.0939

> <Gold.Chemscore.Metal>
0.0000

> <Gold.Chemscore.Lipo>
61.3491

> <Gold.Chemscore.Internal_Hbond>
0.0000

> <Gold.Chemscore.DEClash>
0.0060

> <Gold.Chemscore.DEInternal>
0.4557

> <Gold.Chemscore.Rot>
1.9669

> <Gold.Chemscore.Internal.Correction>
   9.000000E+99

> <Gold.Chemscore.Hbonds>
donor molecule, donor type, donor heavy atom, donor atom, acceptor molecule, acceptor atom, score
      P1  H  6896  6908       L1    15  0.91
      P1  H  7989  7998       L1    11  0.06
      P1  H  7997  8010       L1    11  0.99

> <Gold.Chemscore.Hbond.Weighted>
-6.9937

> <Gold.Chemscore.Metal.Weighted>
-0.0000

> <Gold.Chemscore.Lipo.Weighted>
-7.1778

> <Gold.Chemscore.Internal_Hbond.Weighted>
0.0000

> <Gold.Chemscore.DEClash.Weighted>
0.0060

> <Gold.Chemscore.DEInternal.Weighted>
0.4557

> <Gold.Chemscore.Rot.Weighted>
5.0352

> <Gold.Chemscore.Internal.Correction.Weighted>
   9.000000E+99

> <Gold.Protein.RotatedTorsions>
[ 6907 6896 6895 6894 ] final -175.64 input  -60.11 | X-H torsion
[ 7974 7965 7964 7962 ] final  108.65 input  175.53 | X-H torsion
[ 8008 7997 7996 7995 ] final  102.95 input   59.86 | X-H torsion
[ 10167 10162 10161 10158 ] final   -5.57 input  -65.29 | X-H torsion
[ 10718 10713 10712 10709 ] final  148.29 input   66.30 | X-H torsion
[ 10763 10752 10751 10750 ] final   64.09 input  -60.55 | X-H torsion
[ 11005 11000 10999 10996 ] final -167.68 input  -57.11 | X-H torsion

> <Gold.Protein.ActiveResidues>
 VAL166  LYS551  ARG553  GLY616  TRP617  ASP618  TYR619  PRO620  LYS621  CYS622 
 ASP623  PHE694  ASN695  SER759  ASP760  ASP761  ALA762  ILE779  LEU786  VAL792 
 PHE793  MET794  SER795  GLU796  ALA797  LYS798  CYS799  TRP800  GLU811  SER814 

> <Gold.Protein.RotatedAtoms>
  151.5918  133.3366  159.3028 H   0  0  0  0  0  0  0  0  0  0  0  0  # atno 6907 bound_to 6896
  150.8256  134.7488  159.6821 H   0  0  0  0  0  0  0  0  0  0  0  0  # atno 6908 bound_to 6896
  152.4345  134.5718  159.9975 H   0  0  0  0  0  0  0  0  0  0  0  0  # atno 6909 bound_to 6896
  145.2779  139.2643  143.3931 H   0  0  0  0  0  0  0  0  0  0  0  0  # atno 7974 bound_to 7965
  156.1440  140.3173  155.8540 H   0  0  0  0  0  0  0  0  0  0  0  0  # atno 8008 bound_to 7997
  155.4100  140.0505  157.3049 H   0  0  0  0  0  0  0  0  0  0  0  0  # atno 8009 bound_to 7997
  154.5000  140.2125  155.9378 H   0  0  0  0  0  0  0  0  0  0  0  0  # atno 8010 bound_to 7997
  140.6967  143.6293  150.8538 H   0  0  0  0  0  0  0  0  0  0  0  0  # atno 10167 bound_to 10162
  157.3104  131.0887  151.1321 H   0  0  0  0  0  0  0  0  0  0  0  0  # atno 10718 bound_to 10713
  153.0042  135.5405  154.6455 H   0  0  0  0  0  0  0  0  0  0  0  0  # atno 10763 bound_to 10752
  154.5699  135.2841  155.0839 H   0  0  0  0  0  0  0  0  0  0  0  0  # atno 10764 bound_to 10752
  154.2009  135.6484  153.5139 H   0  0  0  0  0  0  0  0  0  0  0  0  # atno 10765 bound_to 10752
  140.5505  134.5433  157.5121 H   0  0  0  0  0  0  0  0  0  0  0  0  # atno 11005 bound_to 11000
  146.3226  140.3238  142.8635 LP  0  0  0  0  0  0  0  0  0  0  0  0  # atno 17320 bound_to 7965
  144.9279  140.7941  143.5708 LP  0  0  0  0  0  0  0  0  0  0  0  0  # atno 17321 bound_to 7965
  140.0012  143.5742  152.2875 LP  0  0  0  0  0  0  0  0  0  0  0  0  # atno 17342 bound_to 10162
  139.6432  144.7656  151.2296 LP  0  0  0  0  0  0  0  0  0  0  0  0  # atno 17343 bound_to 10162
  157.2645  130.6675  149.5990 LP  0  0  0  0  0  0  0  0  0  0  0  0  # atno 17370 bound_to 10713
  155.9677  130.4498  150.5673 LP  0  0  0  0  0  0  0  0  0  0  0  0  # atno 17371 bound_to 10713
  139.9457  134.7706  156.0567 LP  0  0  0  0  0  0  0  0  0  0  0  0  # atno 17394 bound_to 11000
  141.1174  133.6623  156.3128 LP  0  0  0  0  0  0  0  0  0  0  0  0  # atno 17395 bound_to 11000

$$$$
