AV-unprocessed.smi:2706|AV-procd|sdf|10453|dock3
  -GOLD-   2272014493D 1   1.00000     0.00000
 Structure written by MMmdl.
 43 46  0  0  0  0  0  0  0  0  1 V2000
  151.0182  144.7597  158.1662 C   0  0  0  0  0  0  0  0  0  0  0  0
  151.7337  144.3107  159.3554 N   0  0  0  0  0  0  0  0  0  0  0  0
  151.8444  145.3107  160.4128 C   0  0  0  0  0  0  0  0  0  0  0  0
  152.2892  143.0323  159.4335 C   0  0  0  0  0  0  0  0  0  0  0  0
  152.9522  142.6267  160.5397 C   0  0  0  0  0  0  0  0  0  0  0  0
  153.5269  141.2985  160.5972 C   0  0  0  0  0  0  0  0  0  0  0  0
  153.4088  140.4413  159.5646 C   0  0  0  0  0  0  0  0  0  0  0  0
  152.6921  140.8215  158.3619 C   0  0  0  0  0  0  0  0  0  0  0  0
  152.5945  139.9868  157.3653 N   0  0  0  0  0  0  0  0  0  0  0  0
  151.8276  140.2388  156.2275 C   0  0  0  0  0  0  0  0  0  0  0  0
  152.0651  139.7154  155.1394 O   0  0  0  0  0  0  0  0  0  0  0  0
  150.7325  141.0053  156.4094 N   0  0  0  0  0  0  0  0  0  0  0  0
  149.7854  141.3670  155.4053 C   0  0  2  0  0  0  0  0  0  0  0  0
  148.3164  141.2969  155.7927 C   0  0  1  0  0  0  0  0  0  0  0  0
  147.1553  141.8890  154.9995 C   0  0  2  0  0  0  0  0  0  0  0  0
  146.0320  140.8330  154.9489 C   0  0  0  0  0  0  0  0  0  0  0  0
  146.6195  139.7651  153.9935 C   0  0  0  0  0  0  0  0  0  0  0  0
  147.9955  140.3619  153.6318 C   0  0  1  0  0  0  0  0  0  0  0  0
  147.6286  141.8443  153.5456 C   0  0  0  0  0  0  0  0  0  0  0  0
  148.8858  140.2650  154.8671 C   0  0  1  0  0  0  0  0  0  0  0  0
  152.1788  142.1328  158.3691 N   0  0  0  0  0  0  0  0  0  0  0  0
  151.7248  145.0211  157.3781 H   0  0  0  0  0  0  0  0  0  0  0  0
  150.3941  145.6306  158.3678 H   0  0  0  0  0  0  0  0  0  0  0  0
  150.3627  143.9738  157.7914 H   0  0  0  0  0  0  0  0  0  0  0  0
  151.2453  145.0164  161.2750 H   0  0  0  0  0  0  0  0  0  0  0  0
  151.5052  146.2946  160.0874 H   0  0  0  0  0  0  0  0  0  0  0  0
  152.8816  145.4157  160.7326 H   0  0  0  0  0  0  0  0  0  0  0  0
  153.0690  143.2707  161.3983 H   0  0  0  0  0  0  0  0  0  0  0  0
  154.0633  140.9918  161.4830 H   0  0  0  0  0  0  0  0  0  0  0  0
  153.8603  139.4648  159.6656 H   0  0  0  0  0  0  0  0  0  0  0  0
  150.5616  141.3608  157.3391 H   0  0  0  0  0  0  0  0  0  0  0  0
  150.0820  142.1595  154.7218 H   0  0  0  0  0  0  0  0  0  0  0  0
  148.0807  140.9833  156.8078 H   0  0  0  0  0  0  0  0  0  0  0  0
  146.8488  142.8691  155.3650 H   0  0  0  0  0  0  0  0  0  0  0  0
  145.8015  140.4277  155.9349 H   0  0  0  0  0  0  0  0  0  0  0  0
  145.1146  141.2561  154.5374 H   0  0  0  0  0  0  0  0  0  0  0  0
  146.7052  138.7859  154.4664 H   0  0  0  0  0  0  0  0  0  0  0  0
  145.9946  139.6557  153.1063 H   0  0  0  0  0  0  0  0  0  0  0  0
  148.4603  139.9396  152.7406 H   0  0  0  0  0  0  0  0  0  0  0  0
  146.8369  142.0552  152.8235 H   0  0  0  0  0  0  0  0  0  0  0  0
  148.4683  142.5028  153.3255 H   0  0  0  0  0  0  0  0  0  0  0  0
  149.0397  139.2612  155.2599 H   0  0  0  0  0  0  0  0  0  0  0  0
  151.6887  142.4852  157.5597 H   0  0  0  0  0  0  0  0  0  0  0  0
  1  2  1  0  0  0  0
  1 22  1  0  0  0  0
  1 23  1  0  0  0  0
  1 24  1  0  0  0  0
  2  3  1  0  0  0  0
  2  4  1  0  0  0  0
  3 25  1  0  0  0  0
  3 26  1  0  0  0  0
  3 27  1  0  0  0  0
  4 21  1  0  0  0  0
  4  5  2  0  0  0  0
  5  6  1  0  0  0  0
  5 28  1  0  0  0  0
  6  7  2  0  0  0  0
  6 29  1  0  0  0  0
  7  8  1  0  0  0  0
  7 30  1  0  0  0  0
  8  9  2  0  0  0  0
  8 21  1  0  0  0  0
  9 10  1  0  0  0  0
 10 11  2  0  0  0  0
 10 12  1  0  0  0  0
 12 13  1  0  0  0  0
 12 31  1  0  0  0  0
 13 20  1  0  0  0  0
 13 14  1  0  0  0  0
 13 32  1  0  0  0  0
 14 20  1  0  0  0  0
 14 15  1  0  0  0  0
 14 33  1  0  0  0  0
 15 19  1  0  0  0  0
 15 16  1  0  0  0  0
 15 34  1  0  0  0  0
 16 17  1  0  0  0  0
 16 35  1  0  0  0  0
 16 36  1  0  0  0  0
 17 18  1  0  0  0  0
 17 37  1  0  0  0  0
 17 38  1  0  0  0  0
 18 19  1  0  0  0  0
 18 20  1  0  0  0  0
 18 39  1  0  0  0  0
 19 40  1  0  0  0  0
 19 41  1  0  0  0  0
 20 42  1  0  0  0  0
 21 43  1  0  0  0  0
M  END
> <s_m_source_file>
AV-unprocessed.smi

> <i_m_source_file_index>
2706

> <i_lp_mmshare_version>
43012

> <i_f3d_flags>
0

> <s_epik_input>
W0NIM11OKFtDSDNdKWMxW2NIXVtjSF1bY0hdYyhuMSlbTkhdQyg9TylbTkhdW0NASF0yW0NAQEhdM1tDQEBIXShbQ0gyXTQpW0NIMl1bQ0gyXVtDQEBIXTRbQ0BIXTIz

> <s_epik_cmdline>
J2VwaWtfcHl0aG9uJywgJy1waCcsICc3LjAnLCAnLXRuJywgJzgnLCAnLW1hJywgJzIwMCcsICctbWV0YWxfYmluZGluZycsICctaW1hZScsICc8aW5maWxlLm1hZT4nLCAnLW9tYWUnLCAnPG91dGZpbGUubWFlPic=

> <r_lp_tautomer_probability>
0.999994

> <r_epik_Ionization_Penalty>
2.07242

> <r_epik_Ionization_Penalty_Charging>
2.07242

> <r_epik_Ionization_Penalty_Neutral>
9.73808e-07

> <r_epik_State_Penalty>
3.96009

> <r_epik_Charging_Adjusted_Penalty>
6.03251

> <i_epik_Tot_Q>
0

> <i_epik_Tot_abs_Q>
0

> <r_epik_Metal_State_Penalty>
3.98849

> <b_epik_Metal_Only>
1

> <s_lp_Force_Field>
OPLS_2005

> <r_lp_Energy>
89.4683

> <b_lp_Chiralities_Consistent>
1

> <s_lp_Variant>
AV-unprocessed.smi:2706-10

> <Gold.Version>
5.8.1

> <Gold.Id.Protein>
6NUR|6NUR_protein|mol2

> <Gold.PLP.Fitness>
49.5854

> <Gold.PLP.PLP>
-44.4581

> <Gold.PLP.part.hbond>
-2.0000

> <Gold.PLP.part.metal>
0.0000

> <Gold.PLP.part.buried>
-5.1238

> <Gold.PLP.part.nonpolar>
-38.2654

> <Gold.PLP.part.repulsive>
0.1670

> <Gold.PLP.ligand.clash>
0.0000

> <Gold.PLP.ligand.torsion>
0.3198

> <Gold.PLP.Chemscore.Hbond>
1.9120

> <Gold.PLP.Chemscore.CHOScore>
0.0000

> <Gold.PLP.Chemscore.Metal>
0.0000

> <Gold.Chemscore.Hbonds>
donor molecule, donor type, donor heavy atom, donor atom, acceptor molecule, acceptor atom, score
      P1  H  7989  7998       L1    11  0.86
      P1  H  7997  8009       L1     9  1.00

> <Gold.PLP.Chemscore.Internal.Correction>
0.0308

> <Gold.Rescore>
     Score         DG    S(hbond)    S(metal)    S(lipo)     H(rot)  DE(clash)    DE(int)     intcor
     15.71     -17.83       1.10        0.00      96.19       1.00       0.37       1.76       ----

> <Gold.Chemscore.Fitness>
15.7065

> <Gold.Chemscore.DG>
-17.8348

> <Gold.Chemscore.ZeroCoef>
-5.4800

> <Gold.Chemscore.Hbond>
1.0959

> <Gold.Chemscore.Metal>
0.0000

> <Gold.Chemscore.Lipo>
96.1912

> <Gold.Chemscore.Internal_Hbond>
0.0000

> <Gold.Chemscore.DEClash>
0.3699

> <Gold.Chemscore.DEInternal>
1.7584

> <Gold.Chemscore.Rot>
1.0000

> <Gold.Chemscore.Internal.Correction>
   9.000000E+99

> <Gold.Chemscore.Hbonds>
donor molecule, donor type, donor heavy atom, donor atom, acceptor molecule, acceptor atom, score
      P1  H  7989  7998       L1    11  0.73
      P1  H  7997  8009       L1     9  0.08

> <Gold.Chemscore.Hbond.Weighted>
-3.6604

> <Gold.Chemscore.Metal.Weighted>
-0.0000

> <Gold.Chemscore.Lipo.Weighted>
-11.2544

> <Gold.Chemscore.Internal_Hbond.Weighted>
0.0000

> <Gold.Chemscore.DEClash.Weighted>
0.3699

> <Gold.Chemscore.DEInternal.Weighted>
1.7584

> <Gold.Chemscore.Rot.Weighted>
2.5600

> <Gold.Chemscore.Internal.Correction.Weighted>
   9.000000E+99

> <Gold.Protein.RotatedTorsions>
[ 6907 6896 6895 6894 ] final  -58.61 input  -60.11 | X-H torsion
[ 7974 7965 7964 7962 ] final   65.64 input  175.53 | X-H torsion
[ 8008 7997 7996 7995 ] final -179.54 input   59.86 | X-H torsion
[ 10167 10162 10161 10158 ] final  -85.99 input  -65.29 | X-H torsion
[ 10718 10713 10712 10709 ] final  147.92 input   66.30 | X-H torsion
[ 10763 10752 10751 10750 ] final  132.46 input  -60.55 | X-H torsion
[ 11005 11000 10999 10996 ] final    5.91 input  -57.11 | X-H torsion

> <Gold.Protein.ActiveResidues>
 VAL166  LYS551  ARG553  GLY616  TRP617  ASP618  TYR619  PRO620  LYS621  CYS622 
 ASP623  PHE694  ASN695  SER759  ASP760  ASP761  ALA762  ILE779  LEU786  VAL792 
 PHE793  MET794  SER795  GLU796  ALA797  LYS798  CYS799  TRP800  GLU811  SER814 

> <Gold.Protein.RotatedAtoms>
  150.7993  134.7075  159.6584 H   0  0  0  0  0  0  0  0  0  0  0  0  # atno 6907 bound_to 6896
  152.4109  134.6123  160.0039 H   0  0  0  0  0  0  0  0  0  0  0  0  # atno 6908 bound_to 6896
  151.6367  133.3291  159.3157 H   0  0  0  0  0  0  0  0  0  0  0  0  # atno 6909 bound_to 6896
  145.8361  139.3167  143.0959 H   0  0  0  0  0  0  0  0  0  0  0  0  # atno 7974 bound_to 7965
  156.0317  140.1283  157.0251 H   0  0  0  0  0  0  0  0  0  0  0  0  # atno 8008 bound_to 7997
  154.4353  140.1048  156.6179 H   0  0  0  0  0  0  0  0  0  0  0  0  # atno 8009 bound_to 7997
  155.5797  140.3468  155.4539 H   0  0  0  0  0  0  0  0  0  0  0  0  # atno 8010 bound_to 7997
  140.3984  143.2673  151.9174 H   0  0  0  0  0  0  0  0  0  0  0  0  # atno 10167 bound_to 10162
  157.3151  131.0894  151.1286 H   0  0  0  0  0  0  0  0  0  0  0  0  # atno 10718 bound_to 10713
  153.7911  135.3155  155.3378 H   0  0  0  0  0  0  0  0  0  0  0  0  # atno 10763 bound_to 10752
  154.8125  135.4658  154.0558 H   0  0  0  0  0  0  0  0  0  0  0  0  # atno 10764 bound_to 10752
  153.1876  135.6903  153.8481 H   0  0  0  0  0  0  0  0  0  0  0  0  # atno 10765 bound_to 10752
  140.5654  134.0153  155.7988 H   0  0  0  0  0  0  0  0  0  0  0  0  # atno 11005 bound_to 11000
  145.9517  140.8903  143.0256 LP  0  0  0  0  0  0  0  0  0  0  0  0  # atno 17320 bound_to 7965
  144.6736  140.1689  143.7416 LP  0  0  0  0  0  0  0  0  0  0  0  0  # atno 17321 bound_to 7965
  139.4785  144.5658  151.8167 LP  0  0  0  0  0  0  0  0  0  0  0  0  # atno 17342 bound_to 10162
  140.4766  144.1510  150.5926 LP  0  0  0  0  0  0  0  0  0  0  0  0  # atno 17343 bound_to 10162
  157.2592  130.6651  149.5967 LP  0  0  0  0  0  0  0  0  0  0  0  0  # atno 17370 bound_to 10713
  155.9681  130.4514  150.5733 LP  0  0  0  0  0  0  0  0  0  0  0  0  # atno 17371 bound_to 10713
  141.1089  133.9649  157.2947 LP  0  0  0  0  0  0  0  0  0  0  0  0  # atno 17394 bound_to 11000
  139.9387  135.0193  156.8640 LP  0  0  0  0  0  0  0  0  0  0  0  0  # atno 17395 bound_to 11000

$$$$
