AV-unprocessed.smi:1306|AV-procd|sdf|5435|dock9
  -GOLD-   22720 5 03D 1   1.00000     0.00000
 Structure written by MMmdl.
 38 39  0  0  0  0  0  0  0  0  2 V2000
  152.8700  139.2493  155.4810 O   0  0  0  0  0  0  0  0  0  0  0  0
  151.6480  139.0940  155.4619 C   0  0  0  0  0  0  0  0  0  0  0  0
  151.0157  137.9375  154.6756 C   0  0  0  0  0  0  0  0  0  0  0  0
  150.7030  136.7738  155.5205 N   0  0  0  0  0  0  0  0  0  0  0  0
  149.4287  136.1942  155.3908 C   0  0  0  0  0  0  0  0  0  0  0  0
  149.0576  135.1238  156.1189 C   0  0  0  0  0  0  0  0  0  0  0  0
  150.0173  134.5647  157.0628 C   0  0  0  0  0  0  0  0  0  0  0  0
  149.6946  133.5894  157.7383 O   0  0  0  0  0  0  0  0  0  0  0  0
  151.2424  135.1607  157.1502 N   0  5  0  0  0  0  0  0  0  0  0  0
  151.6069  136.2477  156.4016 C   0  0  0  0  0  0  0  0  0  0  0  0
  152.7188  136.7691  156.4951 O   0  0  0  0  0  0  0  0  0  0  0  0
  150.7953  139.9177  156.0864 N   0  0  0  0  0  0  0  0  0  0  0  0
  151.1956  141.0635  156.8922 C   0  0  0  0  0  0  0  0  0  0  0  0
  152.3354  140.6909  157.8494 C   0  0  0  0  0  0  0  0  0  0  0  0
  152.0028  141.2363  159.5498 S   0  0  0  0  0  0  0  0  0  0  0  0
  152.5185  142.9740  159.4447 C   0  0  0  0  0  0  0  0  0  0  0  0
  152.1245  143.7749  160.6847 C   0  0  0  0  0  0  0  0  0  0  0  0
  152.1694  145.2333  160.2239 C   0  0  0  0  0  0  0  0  0  0  0  0
  151.8532  145.2107  158.7208 C   0  0  0  0  0  0  0  0  0  0  0  0
  151.8472  143.7350  158.2974 C   0  0  0  0  0  0  0  0  0  0  0  0
  150.1132  138.2831  154.1676 H   0  0  0  0  0  0  0  0  0  0  0  0
  151.7032  137.6553  153.8773 H   0  0  0  0  0  0  0  0  0  0  0  0
  148.7806  136.6647  154.6661 H   0  0  0  0  0  0  0  0  0  0  0  0
  148.0757  134.6885  156.0053 H   0  0  0  0  0  0  0  0  0  0  0  0
  149.8070  139.7208  156.0240 H   0  0  0  0  0  0  0  0  0  0  0  0
  151.5024  141.8849  156.2428 H   0  0  0  0  0  0  0  0  0  0  0  0
  150.3351  141.4125  157.4649 H   0  0  0  0  0  0  0  0  0  0  0  0
  152.4698  139.6092  157.8561 H   0  0  0  0  0  0  0  0  0  0  0  0
  153.2733  141.1261  157.5039 H   0  0  0  0  0  0  0  0  0  0  0  0
  153.6023  143.0168  159.3267 H   0  0  0  0  0  0  0  0  0  0  0  0
  151.1073  143.5202  160.9859 H   0  0  0  0  0  0  0  0  0  0  0  0
  152.7808  143.5837  161.5343 H   0  0  0  0  0  0  0  0  0  0  0  0
  151.4748  145.8598  160.7840 H   0  0  0  0  0  0  0  0  0  0  0  0
  153.1710  145.6360  160.3793 H   0  0  0  0  0  0  0  0  0  0  0  0
  150.8884  145.6736  158.5109 H   0  0  0  0  0  0  0  0  0  0  0  0
  152.6092  145.7703  158.1691 H   0  0  0  0  0  0  0  0  0  0  0  0
  152.3515  143.5779  157.3436 H   0  0  0  0  0  0  0  0  0  0  0  0
  150.8156  143.3994  158.1818 H   0  0  0  0  0  0  0  0  0  0  0  0
  1  2  2  0  0  0  0
  2  3  1  0  0  0  0
  2 12  1  0  0  0  0
  3  4  1  0  0  0  0
  3 21  1  0  0  0  0
  3 22  1  0  0  0  0
  4 10  1  0  0  0  0
  4  5  1  0  0  0  0
  5  6  2  0  0  0  0
  5 23  1  0  0  0  0
  6  7  1  0  0  0  0
  6 24  1  0  0  0  0
  7  8  2  0  0  0  0
  7  9  1  0  0  0  0
  9 10  1  0  0  0  0
 10 11  2  0  0  0  0
 12 13  1  0  0  0  0
 12 25  1  0  0  0  0
 13 14  1  0  0  0  0
 13 26  1  0  0  0  0
 13 27  1  0  0  0  0
 14 15  1  0  0  0  0
 14 28  1  0  0  0  0
 14 29  1  0  0  0  0
 15 16  1  0  0  0  0
 16 20  1  0  0  0  0
 16 17  1  0  0  0  0
 16 30  1  0  0  0  0
 17 18  1  0  0  0  0
 17 31  1  0  0  0  0
 17 32  1  0  0  0  0
 18 19  1  0  0  0  0
 18 33  1  0  0  0  0
 18 34  1  0  0  0  0
 19 20  1  0  0  0  0
 19 35  1  0  0  0  0
 19 36  1  0  0  0  0
 20 37  1  0  0  0  0
 20 38  1  0  0  0  0
M  CHG  1   9  -1
M  END
> <s_m_source_file>
AV-unprocessed.smi

> <i_m_source_file_index>
1306

> <i_lp_mmshare_version>
43012

> <i_f3d_flags>
0

> <s_epik_input>
Tz1jMVtuSF1jKD1PKVtjSF1bY0hdbjFbQ0gyXUMoPU8pW05IXVtDSDJdW0NIMl1TW0NIXTJbQ0gyXVtDSDJdW0NIMl1bQ0gyXTI=

> <s_epik_cmdline>
J2VwaWtfcHl0aG9uJywgJy1waCcsICc3LjAnLCAnLXRuJywgJzgnLCAnLW1hJywgJzIwMCcsICctbWV0YWxfYmluZGluZycsICctaW1hZScsICc8aW5maWxlLm1hZT4nLCAnLW9tYWUnLCAnPG91dGZpbGUubWFlPic=

> <r_lp_tautomer_probability>
0.999537

> <r_epik_Ionization_Penalty>
3.06336

> <r_epik_Ionization_Penalty_Charging>
2.63481e-08

> <r_epik_Ionization_Penalty_Neutral>
3.06336

> <r_epik_State_Penalty>
3.06238

> <r_epik_Charging_Adjusted_Penalty>
3.06238

> <i_epik_Tot_Q>
-1

> <i_epik_Tot_abs_Q>
1

> <r_epik_Metal_State_Penalty>
0.458539

> <b_epik_Metal_Only>
1

> <s_lp_Force_Field>
OPLS_2005

> <r_lp_Energy>
29.7989

> <b_lp_Chiralities_Consistent>
1

> <s_lp_Variant>
AV-unprocessed.smi:1306-2

> <Gold.Version>
5.8.1

> <Gold.Id.Protein>
6NUR|6NUR_protein|mol2

> <Gold.PLP.Fitness>
47.6017

> <Gold.PLP.PLP>
-39.8563

> <Gold.PLP.part.hbond>
-3.8912

> <Gold.PLP.part.metal>
0.0000

> <Gold.PLP.part.buried>
-4.2179

> <Gold.PLP.part.nonpolar>
-32.1018

> <Gold.PLP.part.repulsive>
0.1024

> <Gold.PLP.ligand.clash>
0.0000

> <Gold.PLP.ligand.torsion>
1.0387

> <Gold.PLP.Chemscore.Hbond>
2.2457

> <Gold.PLP.Chemscore.CHOScore>
1.0000

> <Gold.PLP.Chemscore.Metal>
0.0000

> <Gold.Chemscore.Hbonds>
donor molecule, donor type, donor heavy atom, donor atom, acceptor molecule, acceptor atom, score
      P1  H  6896  6909       L1     8  1.00
      P1  H  7997  8008       L1     1  0.88
      P1  H 10752 10764       L1    11  0.44
      L1  C     5    23       P1  7948  0.22

> <Gold.PLP.Chemscore.Internal.Correction>
0.0858

> <Gold.Rescore>
     Score         DG    S(hbond)    S(metal)    S(lipo)     H(rot)  DE(clash)    DE(int)     intcor
     10.73     -16.37       1.60        0.00      99.47       2.38       0.24       5.40       ----

> <Gold.Chemscore.Fitness>
10.7311

> <Gold.Chemscore.DG>
-16.3708

> <Gold.Chemscore.ZeroCoef>
-5.4800

> <Gold.Chemscore.Hbond>
1.5981

> <Gold.Chemscore.Metal>
0.0000

> <Gold.Chemscore.Lipo>
99.4664

> <Gold.Chemscore.Internal_Hbond>
0.0000

> <Gold.Chemscore.DEClash>
0.2420

> <Gold.Chemscore.DEInternal>
5.3977

> <Gold.Chemscore.Rot>
2.3767

> <Gold.Chemscore.Internal.Correction>
   9.000000E+99

> <Gold.Chemscore.Hbonds>
donor molecule, donor type, donor heavy atom, donor atom, acceptor molecule, acceptor atom, score
      P1  H  6896  6909       L1     8  0.35
      P1  H  7997  8008       L1     1  0.85
      P1  H 10752 10764       L1    11  0.09

> <Gold.Chemscore.Hbond.Weighted>
-5.3376

> <Gold.Chemscore.Metal.Weighted>
-0.0000

> <Gold.Chemscore.Lipo.Weighted>
-11.6376

> <Gold.Chemscore.Internal_Hbond.Weighted>
0.0000

> <Gold.Chemscore.DEClash.Weighted>
0.2420

> <Gold.Chemscore.DEInternal.Weighted>
5.3977

> <Gold.Chemscore.Rot.Weighted>
6.0844

> <Gold.Chemscore.Internal.Correction.Weighted>
   9.000000E+99

> <Gold.Protein.RotatedTorsions>
[ 6907 6896 6895 6894 ] final   -2.56 input  -60.11 | X-H torsion
[ 7974 7965 7964 7962 ] final   12.32 input  175.53 | X-H torsion
[ 8008 7997 7996 7995 ] final   -2.24 input   59.86 | X-H torsion
[ 10167 10162 10161 10158 ] final  166.55 input  -65.29 | X-H torsion
[ 10718 10713 10712 10709 ] final  -78.68 input   66.30 | X-H torsion
[ 10763 10752 10751 10750 ] final   16.51 input  -60.55 | X-H torsion
[ 11005 11000 10999 10996 ] final   41.63 input  -57.11 | X-H torsion

> <Gold.Protein.ActiveResidues>
 VAL166  LYS551  ARG553  GLY616  TRP617  ASP618  TYR619  PRO620  LYS621  CYS622 
 ASP623  PHE694  ASN695  SER759  ASP760  ASP761  ALA762  ILE779  LEU786  VAL792 
 PHE793  MET794  SER795  GLU796  ALA797  LYS798  CYS799  TRP800  GLU811  SER814 

> <Gold.Protein.RotatedAtoms>
  151.5279  135.1068  159.9894 H   0  0  0  0  0  0  0  0  0  0  0  0  # atno 6907 bound_to 6896
  152.4591  133.7781  159.6846 H   0  0  0  0  0  0  0  0  0  0  0  0  # atno 6908 bound_to 6896
  150.8547  133.7669  159.3038 H   0  0  0  0  0  0  0  0  0  0  0  0  # atno 6909 bound_to 6896
  146.2353  139.9354  142.8490 H   0  0  0  0  0  0  0  0  0  0  0  0  # atno 7974 bound_to 7965
  154.6379  140.2539  155.7356 H   0  0  0  0  0  0  0  0  0  0  0  0  # atno 8008 bound_to 7997
  156.2514  140.2893  156.0681 H   0  0  0  0  0  0  0  0  0  0  0  0  # atno 8009 bound_to 7997
  155.1642  140.0385  157.2839 H   0  0  0  0  0  0  0  0  0  0  0  0  # atno 8010 bound_to 7997
  139.4927  144.4015  151.9404 H   0  0  0  0  0  0  0  0  0  0  0  0  # atno 10167 bound_to 10162
  156.0111  130.4525  150.3533 H   0  0  0  0  0  0  0  0  0  0  0  0  # atno 10718 bound_to 10713
  153.1425  135.6762  153.9006 H   0  0  0  0  0  0  0  0  0  0  0  0  # atno 10763 bound_to 10752
  153.8458  135.3099  155.3430 H   0  0  0  0  0  0  0  0  0  0  0  0  # atno 10764 bound_to 10752
  154.7798  135.4894  153.9905 H   0  0  0  0  0  0  0  0  0  0  0  0  # atno 10765 bound_to 10752
  140.1815  134.4097  155.8197 H   0  0  0  0  0  0  0  0  0  0  0  0  # atno 11005 bound_to 11000
  145.2004  140.9852  143.4159 LP  0  0  0  0  0  0  0  0  0  0  0  0  # atno 17320 bound_to 7965
  144.9779  139.3813  143.6276 LP  0  0  0  0  0  0  0  0  0  0  0  0  # atno 17321 bound_to 7965
  140.3455  144.3152  150.5959 LP  0  0  0  0  0  0  0  0  0  0  0  0  # atno 17342 bound_to 10162
  140.5530  143.2203  151.7895 LP  0  0  0  0  0  0  0  0  0  0  0  0  # atno 17343 bound_to 10162
  157.1625  131.0348  151.2834 LP  0  0  0  0  0  0  0  0  0  0  0  0  # atno 17370 bound_to 10713
  157.4299  130.7485  149.6981 LP  0  0  0  0  0  0  0  0  0  0  0  0  # atno 17371 bound_to 10713
  141.2223  133.7003  156.7939 LP  0  0  0  0  0  0  0  0  0  0  0  0  # atno 17394 bound_to 11000
  140.2261  134.8720  157.3428 LP  0  0  0  0  0  0  0  0  0  0  0  0  # atno 17395 bound_to 11000

$$$$
