AV-unprocessed.smi:1120|AV-procd|sdf|4824|dock5
  -GOLD-   22720 3383D 1   1.00000     0.00000
 Structure written by MMmdl.
 48 49  0  0  0  0  0  0  0  0  3 V2000
  152.2106  145.2241  159.3094 C   0  0  0  0  0  0  0  0  0  0  0  0
  151.6997  143.8485  158.8596 C   0  0  2  0  0  0  0  0  0  0  0  0
  152.6860  142.7167  159.2314 C   0  0  0  0  0  0  0  0  0  0  0  0
  152.2134  141.3238  158.7442 C   0  0  0  0  0  0  0  0  0  0  0  0
  151.9442  141.2680  157.2216 C   0  0  1  0  0  0  0  0  0  0  0  0
  151.3875  139.9711  156.8647 N   0  5  0  0  0  0  0  0  0  0  0  0
  151.8809  139.2284  155.5114 S   0  0  0  0  0  0  0  0  0  0  0  0
  150.9197  139.3674  154.4041 O   0  0  0  0  0  0  0  0  0  0  0  0
  153.2938  139.4992  155.1993 O   0  0  0  0  0  0  0  0  0  0  0  0
  151.8024  137.4626  156.0430 C   0  0  0  0  0  0  0  0  0  0  0  0
  150.4400  136.8683  155.6918 C   0  0  0  0  0  0  0  0  0  0  0  0
  149.4092  137.4096  156.0916 O   0  0  0  0  0  0  0  0  0  0  0  0
  150.4493  135.7497  154.9492 N   0  0  0  0  0  0  0  0  0  0  0  0
  149.2693  135.0009  154.5260 C   0  0  0  0  0  0  0  0  0  0  0  0
  149.6248  133.6585  153.8576 C   0  0  0  0  0  0  0  0  0  0  0  0
  148.4509  132.9748  153.1776 C   0  0  0  0  0  0  0  0  0  0  0  0
  148.0877  131.6430  153.4733 C   0  0  0  0  0  0  0  0  0  0  0  0
  147.0028  131.0563  152.7886 C   0  0  0  0  0  0  0  0  0  0  0  0
  146.3029  131.8127  151.8258 C   0  0  0  0  0  0  0  0  0  0  0  0
  146.7079  133.1382  151.5704 C   0  0  0  0  0  0  0  0  0  0  0  0
  147.7536  133.6634  152.2448 N   0  3  0  0  0  0  0  0  0  0  0  0
  150.9643  142.4079  156.8478 C   0  0  0  0  0  0  0  0  0  0  0  0
  151.4329  143.8016  157.3367 C   0  0  0  0  0  0  0  0  0  0  0  0
  153.1556  145.4735  158.8258 H   0  0  0  0  0  0  0  0  0  0  0  0
  152.3711  145.2493  160.3876 H   0  0  0  0  0  0  0  0  0  0  0  0
  151.4935  146.0076  159.0638 H   0  0  0  0  0  0  0  0  0  0  0  0
  150.7568  143.6580  159.3744 H   0  0  0  0  0  0  0  0  0  0  0  0
  153.6734  142.9398  158.8216 H   0  0  0  0  0  0  0  0  0  0  0  0
  152.8151  142.6895  160.3138 H   0  0  0  0  0  0  0  0  0  0  0  0
  152.9598  140.5756  159.0136 H   0  0  0  0  0  0  0  0  0  0  0  0
  151.3052  141.0550  159.2863 H   0  0  0  0  0  0  0  0  0  0  0  0
  152.8914  141.4497  156.7119 H   0  0  0  0  0  0  0  0  0  0  0  0
  152.5990  136.9137  155.5405 H   0  0  0  0  0  0  0  0  0  0  0  0
  151.9818  137.4113  157.1170 H   0  0  0  0  0  0  0  0  0  0  0  0
  151.3467  135.3779  154.6715 H   0  0  0  0  0  0  0  0  0  0  0  0
  148.5950  134.8330  155.3674 H   0  0  0  0  0  0  0  0  0  0  0  0
  148.7184  135.6207  153.8186 H   0  0  0  0  0  0  0  0  0  0  0  0
  150.4099  133.8185  153.1178 H   0  0  0  0  0  0  0  0  0  0  0  0
  150.0461  132.9803  154.6009 H   0  0  0  0  0  0  0  0  0  0  0  0
  148.6390  131.0741  154.2078 H   0  0  0  0  0  0  0  0  0  0  0  0
  146.7138  130.0365  152.9967 H   0  0  0  0  0  0  0  0  0  0  0  0
  145.4734  131.3813  151.2850 H   0  0  0  0  0  0  0  0  0  0  0  0
  146.2419  133.7863  150.8421 H   0  0  0  0  0  0  0  0  0  0  0  0
  150.8233  142.4400  155.7671 H   0  0  0  0  0  0  0  0  0  0  0  0
  149.9821  142.1997  157.2751 H   0  0  0  0  0  0  0  0  0  0  0  0
  150.6740  144.5412  157.0793 H   0  0  0  0  0  0  0  0  0  0  0  0
  152.3332  144.1018  156.7965 H   0  0  0  0  0  0  0  0  0  0  0  0
  148.0395  134.6189  152.0263 H   0  0  0  0  0  0  0  0  0  0  0  0
  1  2  1  0  0  0  0
  1 24  1  0  0  0  0
  1 25  1  0  0  0  0
  1 26  1  0  0  0  0
  2 23  1  0  0  0  0
  2  3  1  0  0  0  0
  2 27  1  0  0  0  0
  3  4  1  0  0  0  0
  3 28  1  0  0  0  0
  3 29  1  0  0  0  0
  4  5  1  0  0  0  0
  4 30  1  0  0  0  0
  4 31  1  0  0  0  0
  5  6  1  0  0  0  0
  5 22  1  0  0  0  0
  5 32  1  0  0  0  0
  6  7  1  0  0  0  0
  7  8  2  0  0  0  0
  7  9  2  0  0  0  0
  7 10  1  0  0  0  0
 10 11  1  0  0  0  0
 10 33  1  0  0  0  0
 10 34  1  0  0  0  0
 11 12  2  0  0  0  0
 11 13  1  0  0  0  0
 13 14  1  0  0  0  0
 13 35  1  0  0  0  0
 14 15  1  0  0  0  0
 14 36  1  0  0  0  0
 14 37  1  0  0  0  0
 15 16  1  0  0  0  0
 15 38  1  0  0  0  0
 15 39  1  0  0  0  0
 16 21  1  0  0  0  0
 16 17  2  0  0  0  0
 17 18  1  0  0  0  0
 17 40  1  0  0  0  0
 18 19  2  0  0  0  0
 18 41  1  0  0  0  0
 19 20  1  0  0  0  0
 19 42  1  0  0  0  0
 20 21  2  0  0  0  0
 20 43  1  0  0  0  0
 21 48  1  0  0  0  0
 22 23  1  0  0  0  0
 22 44  1  0  0  0  0
 22 45  1  0  0  0  0
 23 46  1  0  0  0  0
 23 47  1  0  0  0  0
M  CHG  1   6  -1
M  CHG  1  21   1
M  END
> <s_m_source_file>
AV-unprocessed.smi

> <i_m_source_file_index>
1120

> <i_lp_mmshare_version>
43012

> <i_f3d_flags>
0

> <s_epik_input>
W0NIM11bQ0BASF0xW0NIMl1bQ0gyXVtDQEhdKFtDSDJdW0NIMl0xKVtOSF1TKD1PKSg9TylbQ0gyXUMoPU8pW05IXVtDSDJdW0NIMl1jMltjSF1bY0hdW2NIXVtjSF1uMg==

> <s_epik_cmdline>
J2VwaWtfcHl0aG9uJywgJy1waCcsICc3LjAnLCAnLXRuJywgJzgnLCAnLW1hJywgJzIwMCcsICctbWV0YWxfYmluZGluZycsICctaW1hZScsICc8aW5maWxlLm1hZT4nLCAnLW9tYWUnLCAnPG91dGZpbGUubWFlPic=

> <r_epik_Ionization_Penalty>
7.48373

> <r_epik_Ionization_Penalty_Charging>
7.48373

> <r_epik_Ionization_Penalty_Neutral>
1.58512e-08

> <r_epik_State_Penalty>
7.71683

> <r_epik_Charging_Adjusted_Penalty>
15.2006

> <i_epik_Tot_Q>
0

> <i_epik_Tot_abs_Q>
2

> <r_epik_Metal_State_Penalty>
3.7254

> <b_epik_Metal_Only>
1

> <s_lp_Force_Field>
OPLS_2005

> <r_lp_Energy>
6.08915

> <b_lp_Chiralities_Consistent>
1

> <s_lp_Variant>
AV-unprocessed.smi:1120-7

> <Gold.Version>
5.8.1

> <Gold.Id.Protein>
6NUR|6NUR_protein|mol2

> <Gold.PLP.Fitness>
54.1956

> <Gold.PLP.PLP>
-44.1000

> <Gold.PLP.part.hbond>
-3.0000

> <Gold.PLP.part.metal>
0.0000

> <Gold.PLP.part.buried>
-4.7890

> <Gold.PLP.part.nonpolar>
-36.6454

> <Gold.PLP.part.repulsive>
0.2557

> <Gold.PLP.ligand.clash>
0.0000

> <Gold.PLP.ligand.torsion>
1.5203

> <Gold.PLP.Chemscore.Hbond>
4.0000

> <Gold.PLP.Chemscore.CHOScore>
0.0000

> <Gold.PLP.Chemscore.Metal>
0.0000

> <Gold.Chemscore.Hbonds>
donor molecule, donor type, donor heavy atom, donor atom, acceptor molecule, acceptor atom, score
      L1  H    21    48       P1  7948  1.80
      P1  H  7989  7998       L1     8  1.00
      P1  H  7997  8010       L1     9  1.00

> <Gold.PLP.Chemscore.Internal.Correction>
1.1362

> <Gold.Rescore>
     Score         DG    S(hbond)    S(metal)    S(lipo)     H(rot)  DE(clash)    DE(int)     intcor
     19.11     -22.10       2.42        0.00     116.31       1.98       0.24       2.75       ----

> <Gold.Chemscore.Fitness>
19.1061

> <Gold.Chemscore.DG>
-22.0979

> <Gold.Chemscore.ZeroCoef>
-5.4800

> <Gold.Chemscore.Hbond>
2.4212

> <Gold.Chemscore.Metal>
0.0000

> <Gold.Chemscore.Lipo>
116.3089

> <Gold.Chemscore.Internal_Hbond>
0.0000

> <Gold.Chemscore.DEClash>
0.2423

> <Gold.Chemscore.DEInternal>
2.7494

> <Gold.Chemscore.Rot>
1.9832

> <Gold.Chemscore.Internal.Correction>
   9.000000E+99

> <Gold.Chemscore.Hbonds>
donor molecule, donor type, donor heavy atom, donor atom, acceptor molecule, acceptor atom, score
      L1  H    21    48       P1  7948  0.18
      P1  H  7989  7998       L1     8  0.30
      P1  H  7997  8010       L1     9  0.95

> <Gold.Chemscore.Hbond.Weighted>
-8.0867

> <Gold.Chemscore.Metal.Weighted>
-0.0000

> <Gold.Chemscore.Lipo.Weighted>
-13.6081

> <Gold.Chemscore.Internal_Hbond.Weighted>
0.0000

> <Gold.Chemscore.DEClash.Weighted>
0.2423

> <Gold.Chemscore.DEInternal.Weighted>
2.7494

> <Gold.Chemscore.Rot.Weighted>
5.0769

> <Gold.Chemscore.Internal.Correction.Weighted>
   9.000000E+99

> <Gold.Protein.RotatedTorsions>
[ 6907 6896 6895 6894 ] final  -12.80 input  -60.11 | X-H torsion
[ 7974 7965 7964 7962 ] final  -71.70 input  175.53 | X-H torsion
[ 8008 7997 7996 7995 ] final  118.01 input   59.86 | X-H torsion
[ 10167 10162 10161 10158 ] final  -25.98 input  -65.29 | X-H torsion
[ 10718 10713 10712 10709 ] final  -25.98 input   66.30 | X-H torsion
[ 10763 10752 10751 10750 ] final  -75.01 input  -60.55 | X-H torsion
[ 11005 11000 10999 10996 ] final   -1.57 input  -57.11 | X-H torsion

> <Gold.Protein.ActiveResidues>
 VAL166  LYS551  ARG553  GLY616  TRP617  ASP618  TYR619  PRO620  LYS621  CYS622 
 ASP623  PHE694  ASN695  SER759  ASP760  ASP761  ALA762  ILE779  LEU786  VAL792 
 PHE793  MET794  SER795  GLU796  ALA797  LYS798  CYS799  TRP800  GLU811  SER814 

> <Gold.Protein.RotatedAtoms>
  151.3649  135.0911  159.9446 H   0  0  0  0  0  0  0  0  0  0  0  0  # atno 6907 bound_to 6896
  152.5152  133.9222  159.7550 H   0  0  0  0  0  0  0  0  0  0  0  0  # atno 6908 bound_to 6896
  150.9624  133.6377  159.2781 H   0  0  0  0  0  0  0  0  0  0  0  0  # atno 6909 bound_to 6896
  145.6747  140.9209  143.0864 H   0  0  0  0  0  0  0  0  0  0  0  0  # atno 7974 bound_to 7965
  156.2524  140.2884  156.0768 H   0  0  0  0  0  0  0  0  0  0  0  0  # atno 8008 bound_to 7997
  155.1610  140.0399  157.2860 H   0  0  0  0  0  0  0  0  0  0  0  0  # atno 8009 bound_to 7997
  154.6392  140.2518  155.7348 H   0  0  0  0  0  0  0  0  0  0  0  0  # atno 8010 bound_to 7997
  140.7284  143.4218  151.0940 H   0  0  0  0  0  0  0  0  0  0  0  0  # atno 10167 bound_to 10162
  156.4572  130.4496  149.6952 H   0  0  0  0  0  0  0  0  0  0  0  0  # atno 10718 bound_to 10713
  154.4808  135.5845  153.6388 H   0  0  0  0  0  0  0  0  0  0  0  0  # atno 10763 bound_to 10752
  152.9847  135.6089  154.3249 H   0  0  0  0  0  0  0  0  0  0  0  0  # atno 10764 bound_to 10752
  154.3140  135.2844  155.2531 H   0  0  0  0  0  0  0  0  0  0  0  0  # atno 10765 bound_to 10752
  140.6488  133.9423  155.8368 H   0  0  0  0  0  0  0  0  0  0  0  0  # atno 11005 bound_to 11000
  144.7045  139.8618  143.7434 LP  0  0  0  0  0  0  0  0  0  0  0  0  # atno 17320 bound_to 7965
  146.1015  139.4011  143.0344 LP  0  0  0  0  0  0  0  0  0  0  0  0  # atno 17321 bound_to 7965
  139.7864  143.8281  152.3145 LP  0  0  0  0  0  0  0  0  0  0  0  0  # atno 17342 bound_to 10162
  139.8250  144.7279  150.9524 LP  0  0  0  0  0  0  0  0  0  0  0  0  # atno 17343 bound_to 10162
  156.3754  130.7552  151.2540 LP  0  0  0  0  0  0  0  0  0  0  0  0  # atno 17370 bound_to 10713
  157.7500  131.0311  150.4166 LP  0  0  0  0  0  0  0  0  0  0  0  0  # atno 17371 bound_to 10713
  141.0552  134.0427  157.3731 LP  0  0  0  0  0  0  0  0  0  0  0  0  # atno 17394 bound_to 11000
  139.9053  135.0177  156.7458 LP  0  0  0  0  0  0  0  0  0  0  0  0  # atno 17395 bound_to 11000

$$$$
