AV-unprocessed.smi:545|AV-procd|sdf|2882|dock5
  -GOLD-   2262023373D 1   1.00000     0.00000
 Structure written by MMmdl.
 35 36  0  0  0  0  0  0  0  0  2 V2000
  157.8780  140.1940  160.6356 C   0  0  0  0  0  0  0  0  0  0  0  0
  156.5628  140.2085  161.1598 O   0  0  0  0  0  0  0  0  0  0  0  0
  155.5731  140.2907  160.1468 C   0  0  0  0  0  0  0  0  0  0  0  0
  154.1788  140.3327  160.7875 C   0  0  0  0  0  0  0  0  0  0  0  0
  153.1827  140.9186  159.8892 N   0  0  0  0  0  0  0  0  0  0  0  0
  152.4463  142.0599  160.0369 C   0  0  0  0  0  0  0  0  0  0  0  0
  152.5129  142.8919  161.1624 N   0  0  0  0  0  0  0  0  0  0  0  0
  151.7170  144.1047  161.2968 C   0  0  0  0  0  0  0  0  0  0  0  0
  153.1713  142.6220  162.4340 C   0  0  0  0  0  0  0  0  0  0  0  0
  151.6719  142.3509  158.9884 N   0  0  0  0  0  0  0  0  0  0  0  0
  151.9173  141.3109  158.1088 C   0  0  0  0  0  0  0  0  0  0  0  0
  152.8300  140.4428  158.6192 C   0  0  0  0  0  0  0  0  0  0  0  0
  153.3277  139.2548  157.8863 C   0  0  0  0  0  0  0  0  0  0  0  0
  154.1837  138.5180  158.3715 O   0  0  0  0  0  0  0  0  0  0  0  0
  152.7324  139.1150  156.6597 N   0  5  0  0  0  0  0  0  0  0  0  0
  151.7958  139.9642  156.1119 C   0  0  0  0  0  0  0  0  0  0  0  0
  151.3083  139.7637  154.9987 O   0  0  0  0  0  0  0  0  0  0  0  0
  151.3856  141.0670  156.8131 N   0  0  0  0  0  0  0  0  0  0  0  0
  150.3982  141.9936  156.2519 C   0  0  0  0  0  0  0  0  0  0  0  0
  158.5959  140.1248  161.4529 H   0  0  0  0  0  0  0  0  0  0  0  0
  158.0896  141.1074  160.0781 H   0  0  0  0  0  0  0  0  0  0  0  0
  158.0315  139.3376  159.9779 H   0  0  0  0  0  0  0  0  0  0  0  0
  155.7316  141.1838  159.5402 H   0  0  0  0  0  0  0  0  0  0  0  0
  155.6488  139.4286  159.4827 H   0  0  0  0  0  0  0  0  0  0  0  0
  153.8622  139.3315  161.0730 H   0  0  0  0  0  0  0  0  0  0  0  0
  154.2185  140.8696  161.7278 H   0  0  0  0  0  0  0  0  0  0  0  0
  151.4444  144.4979  160.3169 H   0  0  0  0  0  0  0  0  0  0  0  0
  152.2705  144.8850  161.8212 H   0  0  0  0  0  0  0  0  0  0  0  0
  150.7986  143.8990  161.8476 H   0  0  0  0  0  0  0  0  0  0  0  0
  153.2688  141.5481  162.5942 H   0  0  0  0  0  0  0  0  0  0  0  0
  152.6034  143.0182  163.2774 H   0  0  0  0  0  0  0  0  0  0  0  0
  154.1630  143.0747  162.4534 H   0  0  0  0  0  0  0  0  0  0  0  0
  150.7455  142.3941  155.2982 H   0  0  0  0  0  0  0  0  0  0  0  0
  150.1982  142.8421  156.9057 H   0  0  0  0  0  0  0  0  0  0  0  0
  149.4500  141.4815  156.0820 H   0  0  0  0  0  0  0  0  0  0  0  0
  1  2  1  0  0  0  0
  1 20  1  0  0  0  0
  1 21  1  0  0  0  0
  1 22  1  0  0  0  0
  2  3  1  0  0  0  0
  3  4  1  0  0  0  0
  3 23  1  0  0  0  0
  3 24  1  0  0  0  0
  4  5  1  0  0  0  0
  4 25  1  0  0  0  0
  4 26  1  0  0  0  0
  5 12  1  0  0  0  0
  5  6  1  0  0  0  0
  6  7  1  0  0  0  0
  6 10  2  0  0  0  0
  7  8  1  0  0  0  0
  7  9  1  0  0  0  0
  8 27  1  0  0  0  0
  8 28  1  0  0  0  0
  8 29  1  0  0  0  0
  9 30  1  0  0  0  0
  9 31  1  0  0  0  0
  9 32  1  0  0  0  0
 10 11  1  0  0  0  0
 11 18  1  0  0  0  0
 11 12  2  0  0  0  0
 12 13  1  0  0  0  0
 13 14  2  0  0  0  0
 13 15  1  0  0  0  0
 15 16  1  0  0  0  0
 16 17  2  0  0  0  0
 16 18  1  0  0  0  0
 18 19  1  0  0  0  0
 19 33  1  0  0  0  0
 19 34  1  0  0  0  0
 19 35  1  0  0  0  0
M  CHG  1  15  -1
M  END
> <s_m_source_file>
AV-unprocessed.smi

> <i_m_source_file_index>
545

> <i_lp_mmshare_version>
43012

> <i_f3d_flags>
0

> <s_epik_input>
W0NIM11PW0NIMl1bQ0gyXW4oYyhuMSlOKFtDSDNdKVtDSDNdKWMoYzEyKWMoPU8pW25IXWMoPU8pbjJbQ0gzXQ==

> <s_epik_cmdline>
J2VwaWtfcHl0aG9uJywgJy1waCcsICc3LjAnLCAnLXRuJywgJzgnLCAnLW1hJywgJzIwMCcsICctbWV0YWxfYmluZGluZycsICctaW1hZScsICc8aW5maWxlLm1hZT4nLCAnLW9tYWUnLCAnPG91dGZpbGUubWFlPic=

> <r_lp_tautomer_probability>
1

> <r_epik_Ionization_Penalty>
6.28808

> <r_epik_Ionization_Penalty_Charging>
0.078064

> <r_epik_Ionization_Penalty_Neutral>
6.21001

> <r_epik_State_Penalty>
6.20933

> <r_epik_Charging_Adjusted_Penalty>
6.2874

> <i_epik_Tot_Q>
-1

> <i_epik_Tot_abs_Q>
1

> <r_epik_Metal_State_Penalty>
2.14897

> <b_epik_Metal_Only>
1

> <s_lp_Force_Field>
OPLS_2005

> <r_lp_Energy>
31.5619

> <b_lp_Chiralities_Consistent>
1

> <s_lp_Variant>
AV-unprocessed.smi:545-2

> <Gold.Version>
5.8.1

> <Gold.Id.Protein>
6NUR|6NUR_protein|mol2

> <Gold.PLP.Fitness>
40.6299

> <Gold.PLP.PLP>
-37.8536

> <Gold.PLP.part.hbond>
-4.0000

> <Gold.PLP.part.metal>
0.0000

> <Gold.PLP.part.buried>
-1.1211

> <Gold.PLP.part.nonpolar>
-32.6356

> <Gold.PLP.part.repulsive>
0.0413

> <Gold.PLP.ligand.clash>
0.1827

> <Gold.PLP.ligand.torsion>
0.1375

> <Gold.PLP.Chemscore.Hbond>
1.0000

> <Gold.PLP.Chemscore.CHOScore>
0.0000

> <Gold.PLP.Chemscore.Metal>
0.0000

> <Gold.Chemscore.Hbonds>
donor molecule, donor type, donor heavy atom, donor atom, acceptor molecule, acceptor atom, score
      P1  H  7989  7998       L1    17  1.00

> <Gold.PLP.Chemscore.Internal.Correction>
0.2340

> <Gold.Rescore>
     Score         DG    S(hbond)    S(metal)    S(lipo)     H(rot)  DE(clash)    DE(int)     intcor
      8.80     -11.66       0.97        0.00      59.06       1.55       0.45       2.41       ----

> <Gold.Chemscore.Fitness>
8.8003

> <Gold.Chemscore.DG>
-11.6612

> <Gold.Chemscore.ZeroCoef>
-5.4800

> <Gold.Chemscore.Hbond>
0.9692

> <Gold.Chemscore.Metal>
0.0000

> <Gold.Chemscore.Lipo>
59.0642

> <Gold.Chemscore.Internal_Hbond>
0.0000

> <Gold.Chemscore.DEClash>
0.4500

> <Gold.Chemscore.DEInternal>
2.4109

> <Gold.Chemscore.Rot>
1.5494

> <Gold.Chemscore.Internal.Correction>
   9.000000E+99

> <Gold.Chemscore.Hbonds>
donor molecule, donor type, donor heavy atom, donor atom, acceptor molecule, acceptor atom, score
      P1  H  7989  7998       L1    17  0.99

> <Gold.Chemscore.Hbond.Weighted>
-3.2373

> <Gold.Chemscore.Metal.Weighted>
-0.0000

> <Gold.Chemscore.Lipo.Weighted>
-6.9105

> <Gold.Chemscore.Internal_Hbond.Weighted>
0.0000

> <Gold.Chemscore.DEClash.Weighted>
0.4500

> <Gold.Chemscore.DEInternal.Weighted>
2.4109

> <Gold.Chemscore.Rot.Weighted>
3.9666

> <Gold.Chemscore.Internal.Correction.Weighted>
   9.000000E+99

> <Gold.Protein.RotatedTorsions>
[ 6907 6896 6895 6894 ] final  116.58 input  -60.11 | X-H torsion
[ 7974 7965 7964 7962 ] final  152.27 input  175.53 | X-H torsion
[ 8008 7997 7996 7995 ] final   20.21 input   59.86 | X-H torsion
[ 10167 10162 10161 10158 ] final  -65.33 input  -65.29 | X-H torsion
[ 10718 10713 10712 10709 ] final -173.11 input   66.30 | X-H torsion
[ 10763 10752 10751 10750 ] final   -4.33 input  -60.55 | X-H torsion
[ 11005 11000 10999 10996 ] final  174.48 input  -57.11 | X-H torsion

> <Gold.Protein.ActiveResidues>
 VAL166  LYS551  ARG553  GLY616  TRP617  ASP618  TYR619  PRO620  LYS621  CYS622 
 ASP623  PHE694  ASN695  SER759  ASP760  ASP761  ALA762  ILE779  LEU786  VAL792 
 PHE793  MET794  SER795  GLU796  ALA797  LYS798  CYS799  TRP800  GLU811  SER814 

> <Gold.Protein.RotatedAtoms>
  152.4669  133.7942  159.6917 H   0  0  0  0  0  0  0  0  0  0  0  0  # atno 6907 bound_to 6896
  150.8638  133.7595  159.2990 H   0  0  0  0  0  0  0  0  0  0  0  0  # atno 6908 bound_to 6896
  151.5152  135.1069  159.9916 H   0  0  0  0  0  0  0  0  0  0  0  0  # atno 6909 bound_to 6896
  144.8234  139.6646  143.6090 H   0  0  0  0  0  0  0  0  0  0  0  0  # atno 7974 bound_to 7965
  154.9323  140.3042  155.5162 H   0  0  0  0  0  0  0  0  0  0  0  0  # atno 8008 bound_to 7997
  156.3002  140.2351  156.4321 H   0  0  0  0  0  0  0  0  0  0  0  0  # atno 8009 bound_to 7997
  154.8226  140.0422  157.1410 H   0  0  0  0  0  0  0  0  0  0  0  0  # atno 8010 bound_to 7997
  140.5737  143.2320  151.6486 H   0  0  0  0  0  0  0  0  0  0  0  0  # atno 10167 bound_to 10162
  156.7655  130.9429  151.3119 H   0  0  0  0  0  0  0  0  0  0  0  0  # atno 10718 bound_to 10713
  153.3834  135.6999  153.6548 H   0  0  0  0  0  0  0  0  0  0  0  0  # atno 10763 bound_to 10752
  153.5150  135.3624  155.2605 H   0  0  0  0  0  0  0  0  0  0  0  0  # atno 10764 bound_to 10752
  154.8695  135.4144  154.3137 H   0  0  0  0  0  0  0  0  0  0  0  0  # atno 10765 bound_to 10752
  140.3518  134.7188  157.4273 H   0  0  0  0  0  0  0  0  0  0  0  0  # atno 11005 bound_to 11000
  146.2539  139.6260  142.9408 LP  0  0  0  0  0  0  0  0  0  0  0  0  # atno 17320 bound_to 7965
  145.5054  141.0437  143.2517 LP  0  0  0  0  0  0  0  0  0  0  0  0  # atno 17321 bound_to 7965
  139.5131  144.3454  152.0702 LP  0  0  0  0  0  0  0  0  0  0  0  0  # atno 17342 bound_to 10162
  140.2595  144.4083  150.6191 LP  0  0  0  0  0  0  0  0  0  0  0  0  # atno 17343 bound_to 10162
  157.6715  130.9055  150.0051 LP  0  0  0  0  0  0  0  0  0  0  0  0  # atno 17370 bound_to 10713
  156.1311  130.3643  149.9730 LP  0  0  0  0  0  0  0  0  0  0  0  0  # atno 17371 bound_to 10713
  140.0697  134.5880  155.8656 LP  0  0  0  0  0  0  0  0  0  0  0  0  # atno 17394 bound_to 11000
  141.2010  133.6616  156.5925 LP  0  0  0  0  0  0  0  0  0  0  0  0  # atno 17395 bound_to 11000

$$$$
