AV-unprocessed.smi:2272|AV-procd|sdf|9162|dock3
  -GOLD-   2272012373D 1   1.00000     0.00000
 Structure written by MMmdl.
 41 42  0  0  0  0  0  0  0  0  1 V2000
  153.4378  134.1364  163.8953 C   0  0  0  0  0  0  0  0  0  0  0  0
  153.9899  135.5309  164.1327 C   0  0  0  0  0  0  0  0  0  0  0  0
  153.1639  136.3916  164.8605 N   0  0  0  0  0  0  0  0  0  0  0  0
  153.5591  137.5938  165.1238 C   0  0  0  0  0  0  0  0  0  0  0  0
  154.8111  138.0711  164.7005 N   0  0  0  0  0  0  0  0  0  0  0  0
  155.1409  139.4536  165.0921 C   0  0  0  0  0  0  0  0  0  0  0  0
  155.4098  140.3670  163.8744 C   0  0  2  0  0  0  0  0  0  0  0  0
  155.2064  141.7197  164.2237 O   0  0  0  0  0  0  0  0  0  0  0  0
  154.5925  140.0446  162.6116 C   0  0  0  0  0  0  0  0  0  0  0  0
  154.5989  141.1542  161.7237 O   0  0  0  0  0  0  0  0  0  0  0  0
  153.7160  141.0154  160.6185 C   0  0  0  0  0  0  0  0  0  0  0  0
  153.1654  142.3423  160.1216 C   0  0  0  0  0  0  0  0  0  0  0  0
  153.0315  142.5781  158.7368 C   0  0  0  0  0  0  0  0  0  0  0  0
  152.5183  143.8043  158.2716 C   0  0  0  0  0  0  0  0  0  0  0  0
  152.1431  144.8039  159.1892 C   0  0  0  0  0  0  0  0  0  0  0  0
  152.2805  144.5758  160.5719 C   0  0  0  0  0  0  0  0  0  0  0  0
  152.7904  143.3487  161.0389 C   0  0  0  0  0  0  0  0  0  0  0  0
  152.9141  143.1415  162.3720 F   0  0  0  0  0  0  0  0  0  0  0  0
  155.6669  137.3046  163.9637 C   0  0  0  0  0  0  0  0  0  0  0  0
  156.7507  137.7372  163.5707 O   0  0  0  0  0  0  0  0  0  0  0  0
  155.2065  135.9361  163.6770 C   0  0  0  0  0  0  0  0  0  0  0  0
  156.1491  135.0393  162.8846 C   0  0  0  0  0  0  0  0  0  0  0  0
  154.1147  133.3824  164.2983 H   0  0  0  0  0  0  0  0  0  0  0  0
  153.3078  133.9543  162.8281 H   0  0  0  0  0  0  0  0  0  0  0  0
  152.4679  134.0056  164.3771 H   0  0  0  0  0  0  0  0  0  0  0  0
  152.9542  138.3054  165.6891 H   0  0  0  0  0  0  0  0  0  0  0  0
  154.3650  139.8917  165.7220 H   0  0  0  0  0  0  0  0  0  0  0  0
  156.0265  139.4364  165.7308 H   0  0  0  0  0  0  0  0  0  0  0  0
  156.4656  140.2968  163.6109 H   0  0  0  0  0  0  0  0  0  0  0  0
  155.5266  142.2603  163.5174 H   0  0  0  0  0  0  0  0  0  0  0  0
  154.9930  139.1561  162.1205 H   0  0  0  0  0  0  0  0  0  0  0  0
  153.5670  139.8134  162.9002 H   0  0  0  0  0  0  0  0  0  0  0  0
  154.2715  140.5452  159.8070 H   0  0  0  0  0  0  0  0  0  0  0  0
  152.9010  140.3294  160.8558 H   0  0  0  0  0  0  0  0  0  0  0  0
  153.3174  141.8153  158.0273 H   0  0  0  0  0  0  0  0  0  0  0  0
  152.4126  143.9779  157.2108 H   0  0  0  0  0  0  0  0  0  0  0  0
  151.7486  145.7443  158.8337 H   0  0  0  0  0  0  0  0  0  0  0  0
  151.9906  145.3415  161.2762 H   0  0  0  0  0  0  0  0  0  0  0  0
  157.0486  134.8399  163.4660 H   0  0  0  0  0  0  0  0  0  0  0  0
  156.4462  135.5258  161.9548 H   0  0  0  0  0  0  0  0  0  0  0  0
  155.7080  134.0796  162.6206 H   0  0  0  0  0  0  0  0  0  0  0  0
  1  2  1  0  0  0  0
  1 23  1  0  0  0  0
  1 24  1  0  0  0  0
  1 25  1  0  0  0  0
  2 21  2  0  0  0  0
  2  3  1  0  0  0  0
  3  4  2  0  0  0  0
  4  5  1  0  0  0  0
  4 26  1  0  0  0  0
  5  6  1  0  0  0  0
  5 19  1  0  0  0  0
  6  7  1  0  0  0  0
  6 27  1  0  0  0  0
  6 28  1  0  0  0  0
  7  8  1  0  0  0  0
  7  9  1  0  0  0  0
  7 29  1  0  0  0  0
  8 30  1  0  0  0  0
  9 10  1  0  0  0  0
  9 31  1  0  0  0  0
  9 32  1  0  0  0  0
 10 11  1  0  0  0  0
 11 12  1  0  0  0  0
 11 33  1  0  0  0  0
 11 34  1  0  0  0  0
 12 17  1  0  0  0  0
 12 13  2  0  0  0  0
 13 14  1  0  0  0  0
 13 35  1  0  0  0  0
 14 15  2  0  0  0  0
 14 36  1  0  0  0  0
 15 16  1  0  0  0  0
 15 37  1  0  0  0  0
 16 17  2  0  0  0  0
 16 38  1  0  0  0  0
 17 18  1  0  0  0  0
 19 20  2  0  0  0  0
 19 21  1  0  0  0  0
 21 22  1  0  0  0  0
 22 39  1  0  0  0  0
 22 40  1  0  0  0  0
 22 41  1  0  0  0  0
M  END
> <s_m_source_file>
AV-unprocessed.smi

> <i_m_source_file_index>
2272

> <i_lp_mmshare_version>
43012

> <i_f3d_flags>
0

> <s_epik_input>
W0NIM11jMW5bY0hdbihjKD1PKWMxW0NIM10pW0NIMl1bQ0BIXShbT0hdKVtDSDJdT1tDSDJdYzJbY0hdW2NIXVtjSF1bY0hdYzJG

> <s_epik_cmdline>
J2VwaWtfcHl0aG9uJywgJy1waCcsICc3LjAnLCAnLXRuJywgJzgnLCAnLW1hJywgJzIwMCcsICctbWV0YWxfYmluZGluZycsICctaW1hZScsICc8aW5maWxlLm1hZT4nLCAnLW9tYWUnLCAnPG91dGZpbGUubWFlPic=

> <r_lp_tautomer_probability>
1

> <r_epik_Ionization_Penalty>
5.35985e-05

> <r_epik_Ionization_Penalty_Charging>
1.17753e-07

> <r_epik_Ionization_Penalty_Neutral>
5.34808e-05

> <r_epik_State_Penalty>
-0

> <r_epik_Charging_Adjusted_Penalty>
1.17753e-07

> <i_epik_Tot_Q>
0

> <i_epik_Tot_abs_Q>
0

> <r_epik_Metal_State_Penalty>
-0

> <b_epik_Metal_Only>
0

> <s_lp_Force_Field>
OPLS_2005

> <r_lp_Energy>
20.6286

> <b_lp_Chiralities_Consistent>
1

> <s_lp_Variant>
AV-unprocessed.smi:2272-1

> <Gold.Version>
5.8.1

> <Gold.Id.Protein>
6NUR|6NUR_protein|mol2

> <Gold.PLP.Fitness>
48.9602

> <Gold.PLP.PLP>
-50.6667

> <Gold.PLP.part.hbond>
-2.0000

> <Gold.PLP.part.metal>
0.0000

> <Gold.PLP.part.buried>
-6.4446

> <Gold.PLP.part.nonpolar>
-42.8460

> <Gold.PLP.part.repulsive>
0.0789

> <Gold.PLP.ligand.clash>
0.0000

> <Gold.PLP.ligand.torsion>
0.9633

> <Gold.PLP.Chemscore.Hbond>
0.0000

> <Gold.PLP.Chemscore.CHOScore>
0.0000

> <Gold.PLP.Chemscore.Metal>
0.0000

> <Gold.PLP.Chemscore.Internal.Correction>
0.2202

> <Gold.Rescore>
     Score         DG    S(hbond)    S(metal)    S(lipo)     H(rot)  DE(clash)    DE(int)     intcor
      9.50     -12.21       0.00        0.00     116.31       2.69       0.13       2.58       ----

> <Gold.Chemscore.Fitness>
9.5016

> <Gold.Chemscore.DG>
-12.2128

> <Gold.Chemscore.ZeroCoef>
-5.4800

> <Gold.Chemscore.Hbond>
0.0000

> <Gold.Chemscore.Metal>
0.0000

> <Gold.Chemscore.Lipo>
116.3100

> <Gold.Chemscore.Internal_Hbond>
0.0000

> <Gold.Chemscore.DEClash>
0.1337

> <Gold.Chemscore.DEInternal>
2.5775

> <Gold.Chemscore.Rot>
2.6857

> <Gold.Chemscore.Internal.Correction>
   9.000000E+99

> <Gold.Chemscore.Hbond.Weighted>
-0.0000

> <Gold.Chemscore.Metal.Weighted>
-0.0000

> <Gold.Chemscore.Lipo.Weighted>
-13.6083

> <Gold.Chemscore.Internal_Hbond.Weighted>
0.0000

> <Gold.Chemscore.DEClash.Weighted>
0.1337

> <Gold.Chemscore.DEInternal.Weighted>
2.5775

> <Gold.Chemscore.Rot.Weighted>
6.8755

> <Gold.Chemscore.Internal.Correction.Weighted>
   9.000000E+99

> <Gold.Protein.RotatedTorsions>
[ 6907 6896 6895 6894 ] final  -82.04 input  -60.11 | X-H torsion
[ 7974 7965 7964 7962 ] final   38.27 input  175.53 | X-H torsion
[ 8008 7997 7996 7995 ] final   -8.25 input   59.86 | X-H torsion
[ 10167 10162 10161 10158 ] final   85.21 input  -65.29 | X-H torsion
[ 10718 10713 10712 10709 ] final  -28.92 input   66.30 | X-H torsion
[ 10763 10752 10751 10750 ] final   71.19 input  -60.55 | X-H torsion
[ 11005 11000 10999 10996 ] final   42.30 input  -57.11 | X-H torsion

> <Gold.Protein.ActiveResidues>
 VAL166  LYS551  ARG553  GLY616  TRP617  ASP618  TYR619  PRO620  LYS621  CYS622 
 ASP623  PHE694  ASN695  SER759  ASP760  ASP761  ALA762  ILE779  LEU786  VAL792 
 PHE793  MET794  SER795  GLU796  ALA797  LYS798  CYS799  TRP800  GLU811  SER814 

> <Gold.Protein.RotatedAtoms>
  150.6903  134.3726  159.4998 H   0  0  0  0  0  0  0  0  0  0  0  0  # atno 6907 bound_to 6896
  152.1539  134.8963  160.0555 H   0  0  0  0  0  0  0  0  0  0  0  0  # atno 6908 bound_to 6896
  152.0050  133.3805  159.4234 H   0  0  0  0  0  0  0  0  0  0  0  0  # atno 6909 bound_to 6896
  146.1075  139.5793  142.9374 H   0  0  0  0  0  0  0  0  0  0  0  0  # atno 7974 bound_to 7965
  154.5759  140.2386  155.8123 H   0  0  0  0  0  0  0  0  0  0  0  0  # atno 8008 bound_to 7997
  156.2143  140.3017  155.9760 H   0  0  0  0  0  0  0  0  0  0  0  0  # atno 8009 bound_to 7997
  155.2628  140.0415  157.2989 H   0  0  0  0  0  0  0  0  0  0  0  0  # atno 8010 bound_to 7997
  139.9001  144.6334  150.8646 H   0  0  0  0  0  0  0  0  0  0  0  0  # atno 10167 bound_to 10162
  156.4191  130.4423  149.7197 H   0  0  0  0  0  0  0  0  0  0  0  0  # atno 10718 bound_to 10713
  153.0385  135.5146  154.7556 H   0  0  0  0  0  0  0  0  0  0  0  0  # atno 10763 bound_to 10752
  154.6513  135.2925  154.9986 H   0  0  0  0  0  0  0  0  0  0  0  0  # atno 10764 bound_to 10752
  154.0869  135.6656  153.4899 H   0  0  0  0  0  0  0  0  0  0  0  0  # atno 10765 bound_to 10752
  140.1752  134.4172  155.8233 H   0  0  0  0  0  0  0  0  0  0  0  0  # atno 11005 bound_to 11000
  145.5731  141.0392  143.2163 LP  0  0  0  0  0  0  0  0  0  0  0  0  # atno 17320 bound_to 7965
  144.7483  139.7261  143.7283 LP  0  0  0  0  0  0  0  0  0  0  0  0  # atno 17321 bound_to 7965
  140.7708  143.3443  151.2143 LP  0  0  0  0  0  0  0  0  0  0  0  0  # atno 17342 bound_to 10162
  139.7033  143.9497  152.2915 LP  0  0  0  0  0  0  0  0  0  0  0  0  # atno 17343 bound_to 10162
  156.4145  130.7738  151.2753 LP  0  0  0  0  0  0  0  0  0  0  0  0  # atno 17370 bound_to 10713
  157.7508  131.0201  150.3696 LP  0  0  0  0  0  0  0  0  0  0  0  0  # atno 17371 bound_to 10713
  141.2220  133.6974  156.7833 LP  0  0  0  0  0  0  0  0  0  0  0  0  # atno 17394 bound_to 11000
  140.2331  134.8670  157.3497 LP  0  0  0  0  0  0  0  0  0  0  0  0  # atno 17395 bound_to 11000

$$$$
