AV-unprocessed.smi:1945|AV-procd|sdf|7857|dock2
  -GOLD-   2272010 03D 1   1.00000     0.00000
 Structure written by MMmdl.
 47 48  0  0  0  0  0  0  0  0  1 V2000
  152.1202  141.5312  158.0942 C   0  0  0  0  0  0  0  0  0  0  0  0
  151.6325  140.8053  156.8755 C   0  0  0  0  0  0  0  0  0  0  0  0
  150.4227  141.0188  156.1530 C   0  0  0  0  0  0  0  0  0  0  0  0
  150.5025  140.0904  155.1512 C   0  0  0  0  0  0  0  0  0  0  0  0
  149.6244  139.8455  154.1425 N   0  0  0  0  0  0  0  0  0  0  0  0
  148.3474  139.4346  154.2250 C   0  0  0  0  0  0  0  0  0  0  0  0
  147.7688  139.1114  155.2625 O   0  0  0  0  0  0  0  0  0  0  0  0
  147.7669  139.4157  153.0163 N   0  0  0  0  0  0  0  0  0  0  0  0
  146.3698  139.0810  152.7596 C   0  0  0  0  0  0  0  0  0  0  0  0
  146.2423  137.7628  151.9816 C   0  0  0  0  0  0  0  0  0  0  0  0
  144.9944  137.1618  152.2920 O   0  0  0  0  0  0  0  0  0  0  0  0
  144.9826  135.7427  152.2355 C   0  0  2  0  0  0  0  0  0  0  0  0
  145.6730  135.2838  150.9332 C   0  0  0  0  0  0  0  0  0  0  0  0
  145.5574  133.7653  150.7357 C   0  0  0  0  0  0  0  0  0  0  0  0
  144.0895  133.3173  150.7616 C   0  0  0  0  0  0  0  0  0  0  0  0
  143.4015  133.7612  152.0610 C   0  0  0  0  0  0  0  0  0  0  0  0
  143.5068  135.2850  152.2716 C   0  0  1  0  0  0  0  0  0  0  0  0
  142.8143  135.7012  153.5792 C   0  0  0  0  0  0  0  0  0  0  0  0
  151.6829  139.3935  155.2832 N   0  0  0  0  0  0  0  0  0  0  0  0
  152.2172  138.3200  154.4681 C   0  0  0  0  0  0  0  0  0  0  0  0
  152.3757  139.8349  156.3552 N   0  0  0  0  0  0  0  0  0  0  0  0
  151.4607  142.3611  158.3487 H   0  0  0  0  0  0  0  0  0  0  0  0
  153.1188  141.9392  157.9357 H   0  0  0  0  0  0  0  0  0  0  0  0
  152.1634  140.8651  158.9561 H   0  0  0  0  0  0  0  0  0  0  0  0
  149.6441  141.7401  156.3508 H   0  0  0  0  0  0  0  0  0  0  0  0
  149.9754  140.0250  153.2134 H   0  0  0  0  0  0  0  0  0  0  0  0
  148.3219  139.6867  152.2180 H   0  0  0  0  0  0  0  0  0  0  0  0
  145.8752  138.9794  153.7257 H   0  0  0  0  0  0  0  0  0  0  0  0
  145.8615  139.8920  152.2353 H   0  0  0  0  0  0  0  0  0  0  0  0
  146.3453  137.9496  150.9123 H   0  0  0  0  0  0  0  0  0  0  0  0
  147.0445  137.0823  152.2698 H   0  0  0  0  0  0  0  0  0  0  0  0
  145.5015  135.3239  153.1002 H   0  0  0  0  0  0  0  0  0  0  0  0
  145.2200  135.7946  150.0822 H   0  0  0  0  0  0  0  0  0  0  0  0
  146.7254  135.5662  150.9345 H   0  0  0  0  0  0  0  0  0  0  0  0
  146.0177  133.4777  149.7900 H   0  0  0  0  0  0  0  0  0  0  0  0
  146.1125  133.2503  151.5207 H   0  0  0  0  0  0  0  0  0  0  0  0
  143.5622  133.7393  149.9050 H   0  0  0  0  0  0  0  0  0  0  0  0
  144.0287  132.2334  150.6595 H   0  0  0  0  0  0  0  0  0  0  0  0
  142.3537  133.4599  152.0378 H   0  0  0  0  0  0  0  0  0  0  0  0
  143.8529  133.2400  152.9064 H   0  0  0  0  0  0  0  0  0  0  0  0
  142.9811  135.7725  151.4489 H   0  0  0  0  0  0  0  0  0  0  0  0
  143.3033  135.2553  154.4460 H   0  0  0  0  0  0  0  0  0  0  0  0
  141.7703  135.3869  153.5872 H   0  0  0  0  0  0  0  0  0  0  0  0
  142.8292  136.7837  153.7095 H   0  0  0  0  0  0  0  0  0  0  0  0
  152.0767  138.5517  153.4120 H   0  0  0  0  0  0  0  0  0  0  0  0
  151.6966  137.3915  154.7027 H   0  0  0  0  0  0  0  0  0  0  0  0
  153.2834  138.1895  154.6588 H   0  0  0  0  0  0  0  0  0  0  0  0
  1  2  1  0  0  0  0
  1 22  1  0  0  0  0
  1 23  1  0  0  0  0
  1 24  1  0  0  0  0
  2 21  2  0  0  0  0
  2  3  1  0  0  0  0
  3  4  2  0  0  0  0
  3 25  1  0  0  0  0
  4  5  1  0  0  0  0
  4 19  1  0  0  0  0
  5  6  1  0  0  0  0
  5 26  1  0  0  0  0
  6  7  2  0  0  0  0
  6  8  1  0  0  0  0
  8  9  1  0  0  0  0
  8 27  1  0  0  0  0
  9 10  1  0  0  0  0
  9 28  1  0  0  0  0
  9 29  1  0  0  0  0
 10 11  1  0  0  0  0
 10 30  1  0  0  0  0
 10 31  1  0  0  0  0
 11 12  1  0  0  0  0
 12 17  1  0  0  0  0
 12 13  1  0  0  0  0
 12 32  1  0  0  0  0
 13 14  1  0  0  0  0
 13 33  1  0  0  0  0
 13 34  1  0  0  0  0
 14 15  1  0  0  0  0
 14 35  1  0  0  0  0
 14 36  1  0  0  0  0
 15 16  1  0  0  0  0
 15 37  1  0  0  0  0
 15 38  1  0  0  0  0
 16 17  1  0  0  0  0
 16 39  1  0  0  0  0
 16 40  1  0  0  0  0
 17 18  1  0  0  0  0
 17 41  1  0  0  0  0
 18 42  1  0  0  0  0
 18 43  1  0  0  0  0
 18 44  1  0  0  0  0
 19 20  1  0  0  0  0
 19 21  1  0  0  0  0
 20 45  1  0  0  0  0
 20 46  1  0  0  0  0
 20 47  1  0  0  0  0
M  END
> <s_m_source_file>
AV-unprocessed.smi

> <i_m_source_file_index>
1945

> <i_lp_mmshare_version>
43012

> <i_f3d_flags>
0

> <s_epik_input>
W0NIM11jMVtjSF1jKG4objEpW0NIM10pW05IXUMoPU8pW05IXVtDSDJdW0NIMl1PW0NAQEhdMltDSDJdW0NIMl1bQ0gyXVtDSDJdW0NASF0yW0NIM10=

> <s_epik_cmdline>
J2VwaWtfcHl0aG9uJywgJy1waCcsICc3LjAnLCAnLXRuJywgJzgnLCAnLW1hJywgJzIwMCcsICctbWV0YWxfYmluZGluZycsICctaW1hZScsICc8aW5maWxlLm1hZT4nLCAnLW9tYWUnLCAnPG91dGZpbGUubWFlPic=

> <r_lp_tautomer_probability>
1

> <r_epik_Ionization_Penalty>
9.47735e-05

> <r_epik_Ionization_Penalty_Charging>
0

> <r_epik_Ionization_Penalty_Neutral>
9.47735e-05

> <r_epik_State_Penalty>
-0

> <r_epik_Charging_Adjusted_Penalty>
0

> <i_epik_Tot_Q>
0

> <i_epik_Tot_abs_Q>
0

> <r_epik_Metal_State_Penalty>
-0

> <b_epik_Metal_Only>
0

> <s_lp_Force_Field>
OPLS_2005

> <r_lp_Energy>
11.707

> <b_lp_Chiralities_Consistent>
1

> <s_lp_Variant>
AV-unprocessed.smi:1945-1

> <Gold.Version>
5.8.1

> <Gold.Id.Protein>
6NUR|6NUR_protein|mol2

> <Gold.PLP.Fitness>
44.7049

> <Gold.PLP.PLP>
-37.7635

> <Gold.PLP.part.hbond>
-3.0000

> <Gold.PLP.part.metal>
0.0000

> <Gold.PLP.part.buried>
-2.5995

> <Gold.PLP.part.nonpolar>
-32.4389

> <Gold.PLP.part.repulsive>
1.2019

> <Gold.PLP.ligand.clash>
0.0000

> <Gold.PLP.ligand.torsion>
1.0417

> <Gold.PLP.Chemscore.Hbond>
2.9760

> <Gold.PLP.Chemscore.CHOScore>
0.0000

> <Gold.PLP.Chemscore.Metal>
0.0000

> <Gold.Chemscore.Hbonds>
donor molecule, donor type, donor heavy atom, donor atom, acceptor molecule, acceptor atom, score
      L1  H     5    26       P1  7957  0.86
      L1  H     8    27       P1  7957  1.00
      P1  H  7997  8010       L1    21  1.00

> <Gold.PLP.Chemscore.Internal.Correction>
0.0967

> <Gold.Rescore>
     Score         DG    S(hbond)    S(metal)    S(lipo)     H(rot)  DE(clash)    DE(int)     intcor
     18.88     -20.25       2.80        0.00      82.09       1.63       0.34       1.03       ----

> <Gold.Chemscore.Fitness>
18.8789

> <Gold.Chemscore.DG>
-20.2508

> <Gold.Chemscore.ZeroCoef>
-5.4800

> <Gold.Chemscore.Hbond>
2.7972

> <Gold.Chemscore.Metal>
0.0000

> <Gold.Chemscore.Lipo>
82.0926

> <Gold.Chemscore.Internal_Hbond>
0.0000

> <Gold.Chemscore.DEClash>
0.3398

> <Gold.Chemscore.DEInternal>
1.0321

> <Gold.Chemscore.Rot>
1.6316

> <Gold.Chemscore.Internal.Correction>
   9.000000E+99

> <Gold.Chemscore.Hbonds>
donor molecule, donor type, donor heavy atom, donor atom, acceptor molecule, acceptor atom, score
      L1  H     5    26       P1  7957  0.79
      L1  H     8    27       P1  7957  1.00
      P1  H  7997  8010       L1    21  0.92

> <Gold.Chemscore.Hbond.Weighted>
-9.3428

> <Gold.Chemscore.Metal.Weighted>
-0.0000

> <Gold.Chemscore.Lipo.Weighted>
-9.6048

> <Gold.Chemscore.Internal_Hbond.Weighted>
0.0000

> <Gold.Chemscore.DEClash.Weighted>
0.3398

> <Gold.Chemscore.DEInternal.Weighted>
1.0321

> <Gold.Chemscore.Rot.Weighted>
4.1768

> <Gold.Chemscore.Internal.Correction.Weighted>
   9.000000E+99

> <Gold.Protein.RotatedTorsions>
[ 6907 6896 6895 6894 ] final -164.99 input  -60.11 | X-H torsion
[ 7974 7965 7964 7962 ] final   66.11 input  175.53 | X-H torsion
[ 8008 7997 7996 7995 ] final   78.34 input   59.86 | X-H torsion
[ 10167 10162 10161 10158 ] final   39.88 input  -65.29 | X-H torsion
[ 10718 10713 10712 10709 ] final  -34.99 input   66.30 | X-H torsion
[ 10763 10752 10751 10750 ] final  -10.95 input  -60.55 | X-H torsion
[ 11005 11000 10999 10996 ] final  167.71 input  -57.11 | X-H torsion

> <Gold.Protein.ActiveResidues>
 VAL166  LYS551  ARG553  GLY616  TRP617  ASP618  TYR619  PRO620  LYS621  CYS622 
 ASP623  PHE694  ASN695  SER759  ASP760  ASP761  ALA762  ILE779  LEU786  VAL792 
 PHE793  MET794  SER795  GLU796  ALA797  LYS798  CYS799  TRP800  GLU811  SER814 

> <Gold.Protein.RotatedAtoms>
  151.4205  133.3699  159.2755 H   0  0  0  0  0  0  0  0  0  0  0  0  # atno 6907 bound_to 6896
  150.9297  134.8714  159.7554 H   0  0  0  0  0  0  0  0  0  0  0  0  # atno 6908 bound_to 6896
  152.5022  134.4149  159.9513 H   0  0  0  0  0  0  0  0  0  0  0  0  # atno 6909 bound_to 6896
  145.8305  139.3136  143.0990 H   0  0  0  0  0  0  0  0  0  0  0  0  # atno 7974 bound_to 7965
  155.8544  140.3456  155.5714 H   0  0  0  0  0  0  0  0  0  0  0  0  # atno 8008 bound_to 7997
  155.8002  140.0884  157.1980 H   0  0  0  0  0  0  0  0  0  0  0  0  # atno 8009 bound_to 7997
  154.4009  140.1467  156.3253 H   0  0  0  0  0  0  0  0  0  0  0  0  # atno 8010 bound_to 7997
  140.3796  144.1997  150.6131 H   0  0  0  0  0  0  0  0  0  0  0  0  # atno 10167 bound_to 10162
  156.3440  130.4298  149.7762 H   0  0  0  0  0  0  0  0  0  0  0  0  # atno 10718 bound_to 10713
  153.4766  135.7017  153.5962 H   0  0  0  0  0  0  0  0  0  0  0  0  # atno 10763 bound_to 10752
  153.4193  135.3829  155.2101 H   0  0  0  0  0  0  0  0  0  0  0  0  # atno 10764 bound_to 10752
  154.8723  135.3924  154.4211 H   0  0  0  0  0  0  0  0  0  0  0  0  # atno 10765 bound_to 10752
  140.2797  134.7760  157.3747 H   0  0  0  0  0  0  0  0  0  0  0  0  # atno 11005 bound_to 11000
  145.9576  140.8861  143.0227 LP  0  0  0  0  0  0  0  0  0  0  0  0  # atno 17320 bound_to 7965
  144.6740  140.1767  143.7409 LP  0  0  0  0  0  0  0  0  0  0  0  0  # atno 17321 bound_to 7965
  140.4950  143.2335  151.8762 LP  0  0  0  0  0  0  0  0  0  0  0  0  # atno 17342 bound_to 10162
  139.4796  144.5123  151.8915 LP  0  0  0  0  0  0  0  0  0  0  0  0  # atno 17343 bound_to 10162
  156.4988  130.8119  151.3124 LP  0  0  0  0  0  0  0  0  0  0  0  0  # atno 17370 bound_to 10713
  157.7451  130.9951  150.2733 LP  0  0  0  0  0  0  0  0  0  0  0  0  # atno 17371 bound_to 10713
  140.1295  134.5113  155.8117 LP  0  0  0  0  0  0  0  0  0  0  0  0  # atno 17394 bound_to 11000
  141.2165  133.6785  156.7014 LP  0  0  0  0  0  0  0  0  0  0  0  0  # atno 17395 bound_to 11000

$$$$
