AV-unprocessed.smi:255|AV-procd|sdf|1956|dock2
  -GOLD-   2262021 93D 1   1.00000     0.00000
 Structure written by MMmdl.
 44 47  0  0  0  0  0  0  0  0  1 V2000
  145.3022  136.8246  149.1959 O   0  0  0  0  0  0  0  0  0  0  0  0
  145.4018  136.3222  150.5111 C   0  0  0  0  0  0  0  0  0  0  0  0
  144.4978  135.0805  150.6705 C   0  0  1  0  0  0  0  0  0  0  0  0
  145.0486  133.7947  150.0522 C   0  0  0  0  0  0  0  0  0  0  0  0
  144.1495  132.7280  150.6779 C   0  0  1  0  0  0  0  0  0  0  0  0
  144.8133  131.5921  150.8919 F   0  0  0  0  0  0  0  0  0  0  0  0
  143.6307  133.3529  151.9846 C   0  0  0  0  0  0  0  0  0  0  0  0
  144.1514  134.7189  152.0465 N   0  0  0  0  0  0  0  0  0  0  0  0
  145.0993  134.9337  152.9928 C   0  0  0  0  0  0  0  0  0  0  0  0
  144.8439  135.7311  154.0648 N   0  0  0  0  0  0  0  0  0  0  0  0
  145.7832  135.9204  154.9964 C   0  0  0  0  0  0  0  0  0  0  0  0
  147.0178  135.4156  155.0522 N   0  0  0  0  0  0  0  0  0  0  0  0
  147.2728  134.6090  153.9820 C   0  0  0  0  0  0  0  0  0  0  0  0
  146.3770  134.3198  152.9153 C   0  0  0  0  0  0  0  0  0  0  0  0
  146.9810  133.4662  152.0014 N   0  0  0  0  0  0  0  0  0  0  0  0
  148.1709  133.2640  152.4985 C   0  0  0  0  0  0  0  0  0  0  0  0
  148.4276  133.9031  153.6912 N   0  0  0  0  0  0  0  0  0  0  0  0
  149.6635  133.8540  154.4567 C   0  0  0  0  0  0  0  0  0  0  0  0
  149.9054  132.5035  155.1785 C   0  0  2  0  0  0  0  0  0  0  0  0
  149.9553  131.4550  154.2298 O   0  0  0  0  0  0  0  0  0  0  0  0
  148.8266  132.2043  156.2065 C   0  0  0  0  0  0  0  0  0  0  0  0
  149.3240  132.9442  157.4465 C   0  0  0  0  0  0  0  0  0  0  0  0
  150.7435  132.9889  157.3339 O   0  0  0  0  0  0  0  0  0  0  0  0
  151.1537  132.4764  156.0700 C   0  0  0  0  0  0  0  0  0  0  0  0
  143.5474  135.3088  150.1848 H   0  0  0  0  0  0  0  0  0  0  0  0
  143.3136  132.4951  150.0176 H   0  0  0  0  0  0  0  0  0  0  0  0
  145.6466  136.1767  148.6005 H   0  0  0  0  0  0  0  0  0  0  0  0
  146.4461  136.0896  150.7228 H   0  0  0  0  0  0  0  0  0  0  0  0
  145.0949  137.1103  151.1993 H   0  0  0  0  0  0  0  0  0  0  0  0
  145.0087  133.7931  148.9628 H   0  0  0  0  0  0  0  0  0  0  0  0
  146.0865  133.6436  150.3524 H   0  0  0  0  0  0  0  0  0  0  0  0
  142.5411  133.3923  151.9786 H   0  0  0  0  0  0  0  0  0  0  0  0
  143.9182  132.7580  152.8530 H   0  0  0  0  0  0  0  0  0  0  0  0
  145.5051  136.5675  155.8151 H   0  0  0  0  0  0  0  0  0  0  0  0
  148.8982  132.6338  152.0075 H   0  0  0  0  0  0  0  0  0  0  0  0
  150.4867  134.0748  153.7763 H   0  0  0  0  0  0  0  0  0  0  0  0
  149.6451  134.6682  155.1823 H   0  0  0  0  0  0  0  0  0  0  0  0
  149.0871  131.3238  153.8807 H   0  0  0  0  0  0  0  0  0  0  0  0
  147.8279  132.5130  155.8956 H   0  0  0  0  0  0  0  0  0  0  0  0
  148.7913  131.1349  156.4221 H   0  0  0  0  0  0  0  0  0  0  0  0
  148.9437  133.9660  157.4637 H   0  0  0  0  0  0  0  0  0  0  0  0
  149.0150  132.4549  158.3704 H   0  0  0  0  0  0  0  0  0  0  0  0
  151.4827  131.4483  156.2312 H   0  0  0  0  0  0  0  0  0  0  0  0
  152.0036  133.0251  155.6667 H   0  0  0  0  0  0  0  0  0  0  0  0
  1  2  1  0  0  0  0
  1 27  1  0  0  0  0
  2  3  1  0  0  0  0
  2 28  1  0  0  0  0
  2 29  1  0  0  0  0
  3 25  1  0  0  0  0
  3  8  1  0  0  0  0
  3  4  1  0  0  0  0
  4  5  1  0  0  0  0
  4 30  1  0  0  0  0
  4 31  1  0  0  0  0
  5 26  1  0  0  0  0
  5  6  1  0  0  0  0
  5  7  1  0  0  0  0
  7  8  1  0  0  0  0
  7 32  1  0  0  0  0
  7 33  1  0  0  0  0
  8  9  1  0  0  0  0
  9 14  1  0  0  0  0
  9 10  2  0  0  0  0
 10 11  1  0  0  0  0
 11 12  2  0  0  0  0
 11 34  1  0  0  0  0
 12 13  1  0  0  0  0
 13 17  1  0  0  0  0
 13 14  2  0  0  0  0
 14 15  1  0  0  0  0
 15 16  2  0  0  0  0
 16 17  1  0  0  0  0
 16 35  1  0  0  0  0
 17 18  1  0  0  0  0
 18 19  1  0  0  0  0
 18 36  1  0  0  0  0
 18 37  1  0  0  0  0
 19 24  1  0  0  0  0
 19 20  1  0  0  0  0
 19 21  1  0  0  0  0
 20 38  1  0  0  0  0
 21 22  1  0  0  0  0
 21 39  1  0  0  0  0
 21 40  1  0  0  0  0
 22 23  1  0  0  0  0
 22 41  1  0  0  0  0
 22 42  1  0  0  0  0
 23 24  1  0  0  0  0
 24 43  1  0  0  0  0
 24 44  1  0  0  0  0
M  END
> <s_m_source_file>
AV-unprocessed.smi

> <i_m_source_file_index>
255

> <i_lp_mmshare_version>
43012

> <i_f3d_flags>
0

> <s_epik_input>
W09IXVtDSDJdW0NAQEhdMVtDSDJdW0NASF0oRilbQ0gyXU4xYyhuW2NIXW4yKWMoYzIzKW5bY0hdbjNbQ0gyXVtDQEBdNChbT0hdKVtDSDJdW0NIMl1PW0NIMl00

> <s_epik_cmdline>
J2VwaWtfcHl0aG9uJywgJy1waCcsICc3LjAnLCAnLXRuJywgJzgnLCAnLW1hJywgJzIwMCcsICctbWV0YWxfYmluZGluZycsICctaW1hZScsICc8aW5maWxlLm1hZT4nLCAnLW9tYWUnLCAnPG91dGZpbGUubWFlPic=

> <r_lp_tautomer_probability>
1

> <r_epik_Ionization_Penalty>
0.0058098

> <r_epik_Ionization_Penalty_Charging>
0

> <r_epik_Ionization_Penalty_Neutral>
0.0058098

> <r_epik_State_Penalty>
0.00411166

> <r_epik_Charging_Adjusted_Penalty>
0.00411166

> <i_epik_Tot_Q>
0

> <i_epik_Tot_abs_Q>
0

> <r_epik_Metal_State_Penalty>
-0

> <b_epik_Metal_Only>
0

> <s_lp_Force_Field>
OPLS_2005

> <r_lp_Energy>
54.0655

> <b_lp_Chiralities_Consistent>
1

> <s_lp_Variant>
AV-unprocessed.smi:255-8

> <Gold.Version>
5.8.1

> <Gold.Id.Protein>
6NUR|6NUR_protein|mol2

> <Gold.PLP.Fitness>
41.1351

> <Gold.PLP.PLP>
-32.7499

> <Gold.PLP.part.hbond>
-2.9909

> <Gold.PLP.part.metal>
0.0000

> <Gold.PLP.part.buried>
-1.6005

> <Gold.PLP.part.nonpolar>
-28.7432

> <Gold.PLP.part.repulsive>
0.3645

> <Gold.PLP.ligand.clash>
0.0000

> <Gold.PLP.ligand.torsion>
0.3515

> <Gold.PLP.Chemscore.Hbond>
2.0000

> <Gold.PLP.Chemscore.CHOScore>
1.0000

> <Gold.PLP.Chemscore.Metal>
0.0000

> <Gold.Chemscore.Hbonds>
donor molecule, donor type, donor heavy atom, donor atom, acceptor molecule, acceptor atom, score
      L1  H     1    27       P1  7921  1.00
      P1  H  6896  6909       L1    23  0.98
      L1  C    16    35       P1 10747  1.00

> <Gold.PLP.Chemscore.Internal.Correction>
0.0881

> <Gold.Rescore>
     Score         DG    S(hbond)    S(metal)    S(lipo)     H(rot)  DE(clash)    DE(int)     intcor
      8.19     -10.46       1.94        0.00      60.10       3.33       0.37       1.90       ----

> <Gold.Chemscore.Fitness>
8.1915

> <Gold.Chemscore.DG>
-10.4573

> <Gold.Chemscore.ZeroCoef>
-5.4800

> <Gold.Chemscore.Hbond>
1.9351

> <Gold.Chemscore.Metal>
0.0000

> <Gold.Chemscore.Lipo>
60.1040

> <Gold.Chemscore.Internal_Hbond>
0.0000

> <Gold.Chemscore.DEClash>
0.3652

> <Gold.Chemscore.DEInternal>
1.9006

> <Gold.Chemscore.Rot>
3.3273

> <Gold.Chemscore.Internal.Correction>
   9.000000E+99

> <Gold.Chemscore.Hbonds>
donor molecule, donor type, donor heavy atom, donor atom, acceptor molecule, acceptor atom, score
      L1  H     1    27       P1  7921  1.00
      P1  H  6896  6909       L1    23  0.32

> <Gold.Chemscore.Hbond.Weighted>
-6.4631

> <Gold.Chemscore.Metal.Weighted>
-0.0000

> <Gold.Chemscore.Lipo.Weighted>
-7.0322

> <Gold.Chemscore.Internal_Hbond.Weighted>
0.0000

> <Gold.Chemscore.DEClash.Weighted>
0.3652

> <Gold.Chemscore.DEInternal.Weighted>
1.9006

> <Gold.Chemscore.Rot.Weighted>
8.5179

> <Gold.Chemscore.Internal.Correction.Weighted>
   9.000000E+99

> <Gold.Protein.RotatedTorsions>
[ 6907 6896 6895 6894 ] final  -37.47 input  -60.11 | X-H torsion
[ 7974 7965 7964 7962 ] final -116.09 input  175.53 | X-H torsion
[ 8008 7997 7996 7995 ] final   81.62 input   59.86 | X-H torsion
[ 10167 10162 10161 10158 ] final  109.45 input  -65.29 | X-H torsion
[ 10718 10713 10712 10709 ] final -151.22 input   66.30 | X-H torsion
[ 10763 10752 10751 10750 ] final    1.28 input  -60.55 | X-H torsion
[ 11005 11000 10999 10996 ] final -173.55 input  -57.11 | X-H torsion

> <Gold.Protein.ActiveResidues>
 VAL166  LYS551  ARG553  GLY616  TRP617  ASP618  TYR619  PRO620  LYS621  CYS622 
 ASP623  PHE694  ASN695  SER759  ASP760  ASP761  ALA762  ILE779  LEU786  VAL792 
 PHE793  MET794  SER795  GLU796  ALA797  LYS798  CYS799  TRP800  GLU811  SER814 

> <Gold.Protein.RotatedAtoms>
  151.0143  134.9421  159.8024 H   0  0  0  0  0  0  0  0  0  0  0  0  # atno 6907 bound_to 6896
  152.5310  134.2987  159.9080 H   0  0  0  0  0  0  0  0  0  0  0  0  # atno 6908 bound_to 6896
  151.2993  133.4087  159.2673 H   0  0  0  0  0  0  0  0  0  0  0  0  # atno 6909 bound_to 6896
  145.1008  140.8551  143.3927 H   0  0  0  0  0  0  0  0  0  0  0  0  # atno 7974 bound_to 7965
  155.8996  140.3434  155.6016 H   0  0  0  0  0  0  0  0  0  0  0  0  # atno 8008 bound_to 7997
  155.7516  140.0820  157.2217 H   0  0  0  0  0  0  0  0  0  0  0  0  # atno 8009 bound_to 7997
  154.4042  140.1552  156.2717 H   0  0  0  0  0  0  0  0  0  0  0  0  # atno 8010 bound_to 7997
  139.6765  144.7122  151.1592 H   0  0  0  0  0  0  0  0  0  0  0  0  # atno 10167 bound_to 10162
  156.4563  130.8192  151.2423 H   0  0  0  0  0  0  0  0  0  0  0  0  # atno 10718 bound_to 10713
  153.3100  135.6962  153.7124 H   0  0  0  0  0  0  0  0  0  0  0  0  # atno 10763 bound_to 10752
  153.6005  135.3463  155.2944 H   0  0  0  0  0  0  0  0  0  0  0  0  # atno 10764 bound_to 10752
  154.8573  135.4339  154.2236 H   0  0  0  0  0  0  0  0  0  0  0  0  # atno 10765 bound_to 10752
  140.4845  134.6044  157.4932 H   0  0  0  0  0  0  0  0  0  0  0  0  # atno 11005 bound_to 11000
  145.0957  139.2858  143.5712 LP  0  0  0  0  0  0  0  0  0  0  0  0  # atno 17320 bound_to 7965
  146.3529  140.0508  142.8636 LP  0  0  0  0  0  0  0  0  0  0  0  0  # atno 17321 bound_to 7965
  140.7637  143.5763  150.8942 LP  0  0  0  0  0  0  0  0  0  0  0  0  # atno 17342 bound_to 10162
  139.9432  143.6357  152.3048 LP  0  0  0  0  0  0  0  0  0  0  0  0  # atno 17343 bound_to 10162
  157.7500  131.0121  150.3373 LP  0  0  0  0  0  0  0  0  0  0  0  0  # atno 17370 bound_to 10713
  156.3763  130.3872  149.7136 LP  0  0  0  0  0  0  0  0  0  0  0  0  # atno 17371 bound_to 10713
  139.9806  134.7143  155.9866 LP  0  0  0  0  0  0  0  0  0  0  0  0  # atno 17394 bound_to 11000
  141.1515  133.6548  156.4028 LP  0  0  0  0  0  0  0  0  0  0  0  0  # atno 17395 bound_to 11000

$$$$
