AV-unprocessed.smi:3136|AV-procd|sdf|11950|dock2
  -GOLD-   2272017343D 1   1.00000     0.00000
 Structure written by MMmdl.
 40 40  0  0  0  0  0  0  0  0  2 V2000
  144.1704  134.4154  151.1943 C   0  0  0  0  0  0  0  0  0  0  0  0
  143.6242  135.7717  151.6598 C   0  0  0  0  0  0  0  0  0  0  0  0
  144.5583  136.8537  151.3706 N   0  0  0  0  0  0  0  0  0  0  0  0
  145.7817  136.9805  151.9070 C   0  0  0  0  0  0  0  0  0  0  0  0
  146.2478  136.1836  152.7217 O   0  0  0  0  0  0  0  0  0  0  0  0
  146.5995  138.1926  151.4512 C   0  0  0  0  0  0  0  0  0  0  0  0
  147.1010  139.0475  152.6268 C   0  0  0  0  0  0  0  0  0  0  0  0
  148.5038  138.7221  152.9584 N   0  3  0  0  0  0  0  0  0  0  0  0
  148.9197  139.0633  154.3396 C   0  0  2  0  0  0  0  0  0  0  0  0
  147.7906  138.6523  155.2992 C   0  0  0  0  0  0  0  0  0  0  0  0
  149.2788  140.5711  154.4498 C   0  0  1  0  0  0  0  0  0  0  0  0
  148.0841  141.5067  154.1823 C   0  0  0  0  0  0  0  0  0  0  0  0
  149.8709  140.8818  155.7467 N   0  0  0  0  0  0  0  0  0  0  0  0
  150.2530  142.1079  156.2563 C   0  0  0  0  0  0  0  0  0  0  0  0
  150.7069  141.8996  157.5269 C   0  0  0  0  0  0  0  0  0  0  0  0
  150.5546  140.4981  157.7148 C   0  0  0  0  0  0  0  0  0  0  0  0
  150.0467  139.8942  156.6528 N   0  0  0  0  0  0  0  0  0  0  0  0
  143.4491  133.6214  151.3878 H   0  0  0  0  0  0  0  0  0  0  0  0
  145.0928  134.1573  151.7152 H   0  0  0  0  0  0  0  0  0  0  0  0
  144.3789  134.4205  150.1239 H   0  0  0  0  0  0  0  0  0  0  0  0
  142.6865  135.9856  151.1466 H   0  0  0  0  0  0  0  0  0  0  0  0
  143.3945  135.7432  152.7262 H   0  0  0  0  0  0  0  0  0  0  0  0
  144.2516  137.5546  150.7116 H   0  0  0  0  0  0  0  0  0  0  0  0
  147.4529  137.8397  150.8694 H   0  0  0  0  0  0  0  0  0  0  0  0
  145.9880  138.7965  150.7797 H   0  0  0  0  0  0  0  0  0  0  0  0
  147.0324  140.1088  152.3830 H   0  0  0  0  0  0  0  0  0  0  0  0
  146.4722  138.8781  153.5010 H   0  0  0  0  0  0  0  0  0  0  0  0
  148.6515  137.7321  152.8205 H   0  0  0  0  0  0  0  0  0  0  0  0
  149.7980  138.4703  154.6020 H   0  0  0  0  0  0  0  0  0  0  0  0
  148.0893  138.7551  156.3423 H   0  0  0  0  0  0  0  0  0  0  0  0
  147.5143  137.6075  155.1523 H   0  0  0  0  0  0  0  0  0  0  0  0
  146.8961  139.2568  155.1445 H   0  0  0  0  0  0  0  0  0  0  0  0
  150.0296  140.7953  153.6894 H   0  0  0  0  0  0  0  0  0  0  0  0
  147.7427  141.4371  153.1500 H   0  0  0  0  0  0  0  0  0  0  0  0
  148.3574  142.5485  154.3539 H   0  0  0  0  0  0  0  0  0  0  0  0
  147.2379  141.2738  154.8291 H   0  0  0  0  0  0  0  0  0  0  0  0
  150.1682  143.0188  155.6821 H   0  0  0  0  0  0  0  0  0  0  0  0
  151.0865  142.6370  158.2189 H   0  0  0  0  0  0  0  0  0  0  0  0
  150.7911  139.9068  158.5872 H   0  0  0  0  0  0  0  0  0  0  0  0
  149.0969  139.2271  152.3158 H   0  0  0  0  0  0  0  0  0  0  0  0
  1  2  1  0  0  0  0
  1 18  1  0  0  0  0
  1 19  1  0  0  0  0
  1 20  1  0  0  0  0
  2  3  1  0  0  0  0
  2 21  1  0  0  0  0
  2 22  1  0  0  0  0
  3  4  1  0  0  0  0
  3 23  1  0  0  0  0
  4  5  2  0  0  0  0
  4  6  1  0  0  0  0
  6  7  1  0  0  0  0
  6 24  1  0  0  0  0
  6 25  1  0  0  0  0
  7  8  1  0  0  0  0
  7 26  1  0  0  0  0
  7 27  1  0  0  0  0
  8  9  1  0  0  0  0
  8 28  1  0  0  0  0
  8 40  1  0  0  0  0
  9 10  1  0  0  0  0
  9 11  1  0  0  0  0
  9 29  1  0  0  0  0
 10 30  1  0  0  0  0
 10 31  1  0  0  0  0
 10 32  1  0  0  0  0
 11 12  1  0  0  0  0
 11 13  1  0  0  0  0
 11 33  1  0  0  0  0
 12 34  1  0  0  0  0
 12 35  1  0  0  0  0
 12 36  1  0  0  0  0
 13 17  1  0  0  0  0
 13 14  1  0  0  0  0
 14 15  2  0  0  0  0
 14 37  1  0  0  0  0
 15 16  1  0  0  0  0
 15 38  1  0  0  0  0
 16 17  2  0  0  0  0
 16 39  1  0  0  0  0
M  CHG  1   8   1
M  END
> <s_m_source_file>
AV-unprocessed.smi

> <i_m_source_file_index>
3136

> <i_lp_mmshare_version>
43012

> <i_f3d_flags>
0

> <s_epik_input>
W0NIM11bQ0gyXVtOSF1DKD1PKVtDSDJdW0NIMl1bTkhdW0NASF0oW0NIM10pW0NASF0oW0NIM10pbjFbY0hdW2NIXVtjSF1uMQ==

> <s_epik_cmdline>
J2VwaWtfcHl0aG9uJywgJy1waCcsICc3LjAnLCAnLXRuJywgJzgnLCAnLW1hJywgJzIwMCcsICctbWV0YWxfYmluZGluZycsICctaW1hZScsICc8aW5maWxlLm1hZT4nLCAnLW9tYWUnLCAnPG91dGZpbGUubWFlPic=

> <r_lp_tautomer_probability>
1

> <r_epik_Ionization_Penalty>
0.00463447

> <r_epik_Ionization_Penalty_Charging>
0.00462393

> <r_epik_Ionization_Penalty_Neutral>
1.05394e-05

> <r_epik_State_Penalty>
-0

> <r_epik_Charging_Adjusted_Penalty>
0.00462393

> <i_epik_Tot_Q>
1

> <i_epik_Tot_abs_Q>
1

> <r_epik_Metal_State_Penalty>
-0

> <b_epik_Metal_Only>
0

> <s_lp_Force_Field>
OPLS_2005

> <r_lp_Energy>
10.6492

> <b_lp_Chiralities_Consistent>
1

> <s_lp_Variant>
AV-unprocessed.smi:3136-3

> <Gold.Version>
5.8.1

> <Gold.Id.Protein>
6NUR|6NUR_protein|mol2

> <Gold.PLP.Fitness>
46.6616

> <Gold.PLP.PLP>
-32.8992

> <Gold.PLP.part.hbond>
-2.9932

> <Gold.PLP.part.metal>
0.0000

> <Gold.PLP.part.buried>
-3.6316

> <Gold.PLP.part.nonpolar>
-27.5659

> <Gold.PLP.part.repulsive>
1.1280

> <Gold.PLP.ligand.clash>
0.0000

> <Gold.PLP.ligand.torsion>
0.7220

> <Gold.PLP.Chemscore.Hbond>
4.0000

> <Gold.PLP.Chemscore.CHOScore>
1.0000

> <Gold.PLP.Chemscore.Metal>
0.0000

> <Gold.Chemscore.Hbonds>
donor molecule, donor type, donor heavy atom, donor atom, acceptor molecule, acceptor atom, score
      L1  H     3    23       P1 10171  0.71
      L1  H     8    28       P1  7948  2.00
      L1  H     8    40       P1  7957  0.91
      L1  C    14    37       P1  8028  1.00

> <Gold.PLP.Chemscore.Internal.Correction>
0.2064

> <Gold.Rescore>
     Score         DG    S(hbond)    S(metal)    S(lipo)     H(rot)  DE(clash)    DE(int)     intcor
     14.55     -17.38       2.96        0.00      67.99       2.32       0.01       2.82       ----

> <Gold.Chemscore.Fitness>
14.5513

> <Gold.Chemscore.DG>
-17.3803

> <Gold.Chemscore.ZeroCoef>
-5.4800

> <Gold.Chemscore.Hbond>
2.9562

> <Gold.Chemscore.Metal>
0.0000

> <Gold.Chemscore.Lipo>
67.9920

> <Gold.Chemscore.Internal_Hbond>
0.0000

> <Gold.Chemscore.DEClash>
0.0067

> <Gold.Chemscore.DEInternal>
2.8223

> <Gold.Chemscore.Rot>
2.3159

> <Gold.Chemscore.Internal.Correction>
   9.000000E+99

> <Gold.Chemscore.Hbonds>
donor molecule, donor type, donor heavy atom, donor atom, acceptor molecule, acceptor atom, score
      L1  H     3    23       P1 10171  0.71
      L1  H     8    28       P1  7948  0.98
      L1  H     8    40       P1  7957  0.87

> <Gold.Chemscore.Hbond.Weighted>
-9.8738

> <Gold.Chemscore.Metal.Weighted>
-0.0000

> <Gold.Chemscore.Lipo.Weighted>
-7.9551

> <Gold.Chemscore.Internal_Hbond.Weighted>
0.0000

> <Gold.Chemscore.DEClash.Weighted>
0.0067

> <Gold.Chemscore.DEInternal.Weighted>
2.8223

> <Gold.Chemscore.Rot.Weighted>
5.9286

> <Gold.Chemscore.Internal.Correction.Weighted>
   9.000000E+99

> <Gold.Protein.RotatedTorsions>
[ 6907 6896 6895 6894 ] final   16.53 input  -60.11 | X-H torsion
[ 7974 7965 7964 7962 ] final  -87.15 input  175.53 | X-H torsion
[ 8008 7997 7996 7995 ] final  -54.05 input   59.86 | X-H torsion
[ 10167 10162 10161 10158 ] final  125.54 input  -65.29 | X-H torsion
[ 10718 10713 10712 10709 ] final -176.72 input   66.30 | X-H torsion
[ 10763 10752 10751 10750 ] final  -67.42 input  -60.55 | X-H torsion
[ 11005 11000 10999 10996 ] final   -8.18 input  -57.11 | X-H torsion

> <Gold.Protein.ActiveResidues>
 VAL166  LYS551  ARG553  GLY616  TRP617  ASP618  TYR619  PRO620  LYS621  CYS622 
 ASP623  PHE694  ASN695  SER759  ASP760  ASP761  ALA762  ILE779  LEU786  VAL792 
 PHE793  MET794  SER795  GLU796  ALA797  LYS798  CYS799  TRP800  GLU811  SER814 

> <Gold.Protein.RotatedAtoms>
  151.8354  135.0608  160.0441 H   0  0  0  0  0  0  0  0  0  0  0  0  # atno 6907 bound_to 6896
  152.2849  133.5501  159.5529 H   0  0  0  0  0  0  0  0  0  0  0  0  # atno 6908 bound_to 6896
  150.7205  134.0428  159.3813 H   0  0  0  0  0  0  0  0  0  0  0  0  # atno 6909 bound_to 6896
  145.4704  140.9560  143.1920 H   0  0  0  0  0  0  0  0  0  0  0  0  # atno 7974 bound_to 7965
  154.4151  140.1185  156.5253 H   0  0  0  0  0  0  0  0  0  0  0  0  # atno 8008 bound_to 7997
  155.6661  140.3496  155.4781 H   0  0  0  0  0  0  0  0  0  0  0  0  # atno 8009 bound_to 7997
  155.9672  140.1134  157.0834 H   0  0  0  0  0  0  0  0  0  0  0  0  # atno 8010 bound_to 7997
  139.5680  144.6922  151.3857 H   0  0  0  0  0  0  0  0  0  0  0  0  # atno 10167 bound_to 10162
  156.8188  130.9612  151.3112 H   0  0  0  0  0  0  0  0  0  0  0  0  # atno 10718 bound_to 10713
  154.3742  135.6088  153.5756 H   0  0  0  0  0  0  0  0  0  0  0  0  # atno 10763 bound_to 10752
  152.9789  135.5845  154.4487 H   0  0  0  0  0  0  0  0  0  0  0  0  # atno 10764 bound_to 10752
  154.4245  135.2846  155.1931 H   0  0  0  0  0  0  0  0  0  0  0  0  # atno 10765 bound_to 10752
  140.7208  133.8830  155.8819 H   0  0  0  0  0  0  0  0  0  0  0  0  # atno 11005 bound_to 11000
  144.7948  139.6255  143.7097 LP  0  0  0  0  0  0  0  0  0  0  0  0  # atno 17320 bound_to 7965
  146.2400  139.5981  142.9498 LP  0  0  0  0  0  0  0  0  0  0  0  0  # atno 17321 bound_to 7965
  140.6964  143.7739  150.7333 LP  0  0  0  0  0  0  0  0  0  0  0  0  # atno 17342 bound_to 10162
  140.1236  143.4589  152.2298 LP  0  0  0  0  0  0  0  0  0  0  0  0  # atno 17343 bound_to 10162
  157.6467  130.8850  149.9553 LP  0  0  0  0  0  0  0  0  0  0  0  0  # atno 17370 bound_to 10713
  156.1001  130.3656  150.0234 LP  0  0  0  0  0  0  0  0  0  0  0  0  # atno 17371 bound_to 10713
  141.0005  134.1156  157.4321 LP  0  0  0  0  0  0  0  0  0  0  0  0  # atno 17394 bound_to 11000
  139.8849  135.0067  156.6397 LP  0  0  0  0  0  0  0  0  0  0  0  0  # atno 17395 bound_to 11000

$$$$
