AV-unprocessed.smi:209|AV-procd|sdf|1608|dock1
  -GOLD-   2262019523D 1   1.00000     0.00000
 Structure written by MMmdl.
 48 52  0  0  0  0  0  0  0  0  1 V2000
  151.1543  144.7705  158.5474 O   0  0  0  0  0  0  0  0  0  0  0  0
  151.0625  143.5750  158.2778 C   0  0  0  0  0  0  0  0  0  0  0  0
  150.3690  143.0323  157.2698 N   0  0  0  0  0  0  0  0  0  0  0  0
  150.5480  141.5862  157.1824 C   0  0  0  0  0  0  0  0  0  0  0  0
  151.8281  141.3798  158.0069 C   0  0  1  0  0  0  0  0  0  0  0  0
  151.7133  142.4587  159.0737 C   0  0  1  0  0  0  0  0  0  0  0  0
  153.0743  142.6570  159.7428 C   0  0  0  0  0  0  0  0  0  0  0  0
  153.4553  141.2971  160.3750 C   0  0  0  0  0  0  0  0  0  0  0  0
  153.3542  140.1151  159.3723 C   0  0  0  0  0  0  0  0  0  0  0  0
  152.0730  140.0934  158.6497 N   0  0  0  0  0  0  0  0  0  0  0  0
  151.9332  139.0353  157.8208 C   0  0  0  0  0  0  0  0  0  0  0  0
  152.7011  138.9320  156.7040 N   0  0  0  0  0  0  0  0  0  0  0  0
  152.5457  137.8888  155.8828 C   0  0  0  0  0  0  0  0  0  0  0  0
  151.6971  136.8629  155.9869 N   0  0  0  0  0  0  0  0  0  0  0  0
  150.9233  136.9701  157.1056 C   0  0  0  0  0  0  0  0  0  0  0  0
  150.9764  138.0171  158.0668 C   0  0  0  0  0  0  0  0  0  0  0  0
  150.0399  137.7963  159.0674 N   0  0  0  0  0  0  0  0  0  0  0  0
  149.4667  136.6760  158.7203 C   0  0  0  0  0  0  0  0  0  0  0  0
  149.9296  136.1148  157.5506 N   0  0  0  0  0  0  0  0  0  0  0  0
  149.4738  134.8770  156.9361 C   0  0  0  0  0  0  0  0  0  0  0  0
  148.8063  135.0718  155.5620 C   0  0  0  0  0  0  0  0  0  0  0  0
  148.0343  136.4070  155.5747 C   0  0  0  0  0  0  0  0  0  0  0  0
  147.3090  136.6244  154.3808 O   0  0  0  0  0  0  0  0  0  0  0  0
  149.7269  134.8298  154.3569 C   0  0  0  0  0  0  0  0  0  0  0  0
  148.8103  133.8796  153.7707 O   0  0  0  0  0  0  0  0  0  0  0  0
  148.0489  133.8606  154.9984 C   0  0  0  0  0  0  0  0  0  0  0  0
  152.6826  141.6046  157.3638 H   0  0  0  0  0  0  0  0  0  0  0  0
  150.9843  142.1614  159.8307 H   0  0  0  0  0  0  0  0  0  0  0  0
  149.8405  143.5619  156.5917 H   0  0  0  0  0  0  0  0  0  0  0  0
  149.6884  141.0863  157.6317 H   0  0  0  0  0  0  0  0  0  0  0  0
  150.6564  141.2471  156.1518 H   0  0  0  0  0  0  0  0  0  0  0  0
  153.8240  142.9661  159.0133 H   0  0  0  0  0  0  0  0  0  0  0  0
  153.0244  143.4342  160.5061 H   0  0  0  0  0  0  0  0  0  0  0  0
  154.4616  141.3469  160.7912 H   0  0  0  0  0  0  0  0  0  0  0  0
  152.7886  141.1004  161.2157 H   0  0  0  0  0  0  0  0  0  0  0  0
  154.1737  140.1901  158.6561 H   0  0  0  0  0  0  0  0  0  0  0  0
  153.4882  139.1716  159.9031 H   0  0  0  0  0  0  0  0  0  0  0  0
  153.1933  137.8746  155.0186 H   0  0  0  0  0  0  0  0  0  0  0  0
  148.6851  136.2266  159.3148 H   0  0  0  0  0  0  0  0  0  0  0  0
  150.3233  134.1976  156.8548 H   0  0  0  0  0  0  0  0  0  0  0  0
  148.7829  134.4002  157.6327 H   0  0  0  0  0  0  0  0  0  0  0  0
  147.3182  136.4401  156.3960 H   0  0  0  0  0  0  0  0  0  0  0  0
  148.7150  137.2474  155.7142 H   0  0  0  0  0  0  0  0  0  0  0  0
  147.8693  136.4224  153.6471 H   0  0  0  0  0  0  0  0  0  0  0  0
  149.8852  135.7050  153.7260 H   0  0  0  0  0  0  0  0  0  0  0  0
  150.6797  134.3641  154.6130 H   0  0  0  0  0  0  0  0  0  0  0  0
  148.2101  132.9350  155.5523 H   0  0  0  0  0  0  0  0  0  0  0  0
  146.9846  134.0338  154.8353 H   0  0  0  0  0  0  0  0  0  0  0  0
  1  2  2  0  0  0  0
  2  6  1  0  0  0  0
  2  3  1  0  0  0  0
  3  4  1  0  0  0  0
  3 29  1  0  0  0  0
  4  5  1  0  0  0  0
  4 30  1  0  0  0  0
  4 31  1  0  0  0  0
  5 27  1  0  0  0  0
  5 10  1  0  0  0  0
  5  6  1  0  0  0  0
  6 28  1  0  0  0  0
  6  7  1  0  0  0  0
  7  8  1  0  0  0  0
  7 32  1  0  0  0  0
  7 33  1  0  0  0  0
  8  9  1  0  0  0  0
  8 34  1  0  0  0  0
  8 35  1  0  0  0  0
  9 10  1  0  0  0  0
  9 36  1  0  0  0  0
  9 37  1  0  0  0  0
 10 11  1  0  0  0  0
 11 16  1  0  0  0  0
 11 12  2  0  0  0  0
 12 13  1  0  0  0  0
 13 14  2  0  0  0  0
 13 38  1  0  0  0  0
 14 15  1  0  0  0  0
 15 19  1  0  0  0  0
 15 16  2  0  0  0  0
 16 17  1  0  0  0  0
 17 18  2  0  0  0  0
 18 19  1  0  0  0  0
 18 39  1  0  0  0  0
 19 20  1  0  0  0  0
 20 21  1  0  0  0  0
 20 40  1  0  0  0  0
 20 41  1  0  0  0  0
 21 26  1  0  0  0  0
 21 22  1  0  0  0  0
 21 24  1  0  0  0  0
 22 23  1  0  0  0  0
 22 42  1  0  0  0  0
 22 43  1  0  0  0  0
 23 44  1  0  0  0  0
 24 25  1  0  0  0  0
 24 45  1  0  0  0  0
 24 46  1  0  0  0  0
 25 26  1  0  0  0  0
 26 47  1  0  0  0  0
 26 48  1  0  0  0  0
M  END
> <s_m_source_file>
AV-unprocessed.smi

> <i_m_source_file_index>
209

> <i_lp_mmshare_version>
43012

> <i_f3d_flags>
0

> <s_epik_input>
W0NIMl0xW05IXUMoPU8pW0NAQEhdKFtDQEBIXTEyKVtDSDJdW0NIMl1bQ0gyXU4yYyhuW2NIXW4zKWMoYzM0KW5bY0hdbjRbQ0gyXUM1KFtDSDJdW09IXSlbQ0gyXU9bQ0gyXTU=

> <s_epik_cmdline>
J2VwaWtfcHl0aG9uJywgJy1waCcsICc3LjAnLCAnLXRuJywgJzgnLCAnLW1hJywgJzIwMCcsICctbWV0YWxfYmluZGluZycsICctaW1hZScsICc8aW5maWxlLm1hZT4nLCAnLW9tYWUnLCAnPG91dGZpbGUubWFlPic=

> <r_lp_tautomer_probability>
1

> <r_epik_Ionization_Penalty>
0.00113306

> <r_epik_Ionization_Penalty_Charging>
0

> <r_epik_Ionization_Penalty_Neutral>
0.00113306

> <r_epik_State_Penalty>
0.000624042

> <r_epik_Charging_Adjusted_Penalty>
0.000624042

> <i_epik_Tot_Q>
0

> <i_epik_Tot_abs_Q>
0

> <r_epik_Metal_State_Penalty>
-0

> <b_epik_Metal_Only>
0

> <s_lp_Force_Field>
OPLS_2005

> <r_lp_Energy>
56.9818

> <b_lp_Chiralities_Consistent>
1

> <s_lp_Variant>
AV-unprocessed.smi:209-2

> <Gold.Version>
5.8.1

> <Gold.Id.Protein>
6NUR|6NUR_protein|mol2

> <Gold.PLP.Fitness>
47.3765

> <Gold.PLP.PLP>
-37.0258

> <Gold.PLP.part.hbond>
-4.4653

> <Gold.PLP.part.metal>
0.0000

> <Gold.PLP.part.buried>
-6.4680

> <Gold.PLP.part.nonpolar>
-26.2384

> <Gold.PLP.part.repulsive>
0.4541

> <Gold.PLP.ligand.clash>
0.0000

> <Gold.PLP.ligand.torsion>
0.6079

> <Gold.PLP.Chemscore.Hbond>
3.7233

> <Gold.PLP.Chemscore.CHOScore>
0.0000

> <Gold.PLP.Chemscore.Metal>
0.0000

> <Gold.Chemscore.Hbonds>
donor molecule, donor type, donor heavy atom, donor atom, acceptor molecule, acceptor atom, score
      L1  H     3    29       P1  8028  1.00
      L1  H    23    44       P1  7948  0.83
      P1  H  7997  8009       L1    12  0.83
      P1  H 10752 10765       L1    14  0.35

> <Gold.PLP.Chemscore.Internal.Correction>
0.3967

> <Gold.Rescore>
     Score         DG    S(hbond)    S(metal)    S(lipo)     H(rot)  DE(clash)    DE(int)     intcor
     17.78     -18.59       3.22        0.00      78.31       2.66       0.07       0.74       ----

> <Gold.Chemscore.Fitness>
17.7820

> <Gold.Chemscore.DG>
-18.5874

> <Gold.Chemscore.ZeroCoef>
-5.4800

> <Gold.Chemscore.Hbond>
3.2215

> <Gold.Chemscore.Metal>
0.0000

> <Gold.Chemscore.Lipo>
78.3120

> <Gold.Chemscore.Internal_Hbond>
0.0000

> <Gold.Chemscore.DEClash>
0.0665

> <Gold.Chemscore.DEInternal>
0.7389

> <Gold.Chemscore.Rot>
2.6620

> <Gold.Chemscore.Internal.Correction>
   9.000000E+99

> <Gold.Chemscore.Hbonds>
donor molecule, donor type, donor heavy atom, donor atom, acceptor molecule, acceptor atom, score
      L1  H     3    29       P1  8028  1.00
      L1  H    23    44       P1  7948  0.82
      P1  H  7997  8009       L1    12  0.66
      P1  H 10752 10765       L1    14  0.02

> <Gold.Chemscore.Hbond.Weighted>
-10.7598

> <Gold.Chemscore.Metal.Weighted>
-0.0000

> <Gold.Chemscore.Lipo.Weighted>
-9.1625

> <Gold.Chemscore.Internal_Hbond.Weighted>
0.0000

> <Gold.Chemscore.DEClash.Weighted>
0.0665

> <Gold.Chemscore.DEInternal.Weighted>
0.7389

> <Gold.Chemscore.Rot.Weighted>
6.8148

> <Gold.Chemscore.Internal.Correction.Weighted>
   9.000000E+99

> <Gold.Protein.RotatedTorsions>
[ 6907 6896 6895 6894 ] final   72.88 input  -60.11 | X-H torsion
[ 7974 7965 7964 7962 ] final -125.72 input  175.53 | X-H torsion
[ 8008 7997 7996 7995 ] final  165.12 input   59.86 | X-H torsion
[ 10167 10162 10161 10158 ] final  -49.32 input  -65.29 | X-H torsion
[ 10718 10713 10712 10709 ] final -138.18 input   66.30 | X-H torsion
[ 10763 10752 10751 10750 ] final -152.62 input  -60.55 | X-H torsion
[ 11005 11000 10999 10996 ] final -163.08 input  -57.11 | X-H torsion

> <Gold.Protein.ActiveResidues>
 VAL166  LYS551  ARG553  GLY616  TRP617  ASP618  TYR619  PRO620  LYS621  CYS622 
 ASP623  PHE694  ASN695  SER759  ASP760  ASP761  ALA762  ILE779  LEU786  VAL792 
 PHE793  MET794  SER795  GLU796  ALA797  LYS798  CYS799  TRP800  GLU811  SER814 

> <Gold.Protein.RotatedAtoms>
  152.4893  134.4505  159.9572 H   0  0  0  0  0  0  0  0  0  0  0  0  # atno 6907 bound_to 6896
  151.4495  133.3615  159.2801 H   0  0  0  0  0  0  0  0  0  0  0  0  # atno 6908 bound_to 6896
  150.9031  134.8469  159.7434 H   0  0  0  0  0  0  0  0  0  0  0  0  # atno 6909 bound_to 6896
  144.9946  140.7764  143.4533 H   0  0  0  0  0  0  0  0  0  0  0  0  # atno 7974 bound_to 7965
  156.1826  140.1678  156.8246 H   0  0  0  0  0  0  0  0  0  0  0  0  # atno 8008 bound_to 7997
  154.5377  140.0743  156.8489 H   0  0  0  0  0  0  0  0  0  0  0  0  # atno 8009 bound_to 7997
  155.3278  140.3377  155.4242 H   0  0  0  0  0  0  0  0  0  0  0  0  # atno 8010 bound_to 7997
  140.6690  143.2703  151.4198 H   0  0  0  0  0  0  0  0  0  0  0  0  # atno 10167 bound_to 10162
  156.2965  130.7404  151.1444 H   0  0  0  0  0  0  0  0  0  0  0  0  # atno 10718 bound_to 10713
  154.7982  135.3232  154.7615 H   0  0  0  0  0  0  0  0  0  0  0  0  # atno 10763 bound_to 10752
  153.8289  135.6881  153.4821 H   0  0  0  0  0  0  0  0  0  0  0  0  # atno 10764 bound_to 10752
  153.1684  135.4633  154.9811 H   0  0  0  0  0  0  0  0  0  0  0  0  # atno 10765 bound_to 10752
  140.6021  134.4936  157.5206 H   0  0  0  0  0  0  0  0  0  0  0  0  # atno 11005 bound_to 11000
  145.2237  139.2147  143.5079 LP  0  0  0  0  0  0  0  0  0  0  0  0  # atno 17320 bound_to 7965
  146.3439  140.2100  142.8590 LP  0  0  0  0  0  0  0  0  0  0  0  0  # atno 17321 bound_to 7965
  139.5951  144.1415  152.2134 LP  0  0  0  0  0  0  0  0  0  0  0  0  # atno 17342 bound_to 10162
  140.0782  144.5723  150.7142 LP  0  0  0  0  0  0  0  0  0  0  0  0  # atno 17343 bound_to 10162
  157.7356  131.0570  150.5457 LP  0  0  0  0  0  0  0  0  0  0  0  0  # atno 17370 bound_to 10713
  156.5580  130.4248  149.6076 LP  0  0  0  0  0  0  0  0  0  0  0  0  # atno 17371 bound_to 10713
  139.9228  134.8115  156.1160 LP  0  0  0  0  0  0  0  0  0  0  0  0  # atno 17394 bound_to 11000
  141.0865  133.6732  156.2447 LP  0  0  0  0  0  0  0  0  0  0  0  0  # atno 17395 bound_to 11000

$$$$
