AV-unprocessed.smi:160|AV-procd|sdf|1359|dock1
  -GOLD-   2262019 63D 1   1.00000     0.00000
 Structure written by MMmdl.
 28 29  0  0  0  0  0  0  0  0  2 V2000
  150.5801  135.1981  158.3213 N   0  5  0  0  0  0  0  0  0  0  0  0
  150.6785  136.5455  158.3379 C   0  0  0  0  0  0  0  0  0  0  0  0
  150.5863  137.2699  159.3283 O   0  0  0  0  0  0  0  0  0  0  0  0
  150.9271  137.1716  156.9863 C   0  0  0  0  0  0  0  0  0  0  0  0
  151.4462  136.4329  155.9586 N   0  0  0  0  0  0  0  0  0  0  0  0
  151.4847  137.3706  155.0210 C   0  0  0  0  0  0  0  0  0  0  0  0
  151.0267  138.5611  155.4184 N   0  0  0  0  0  0  0  0  0  0  0  0
  150.9392  139.8549  154.6749 C   0  0  2  0  0  0  0  0  0  0  0  0
  151.6917  140.7927  155.3864 O   0  0  0  0  0  0  0  0  0  0  0  0
  150.8880  141.8994  155.7927 C   0  0  2  0  0  0  0  0  0  0  0  0
  151.3428  142.3816  157.1791 C   0  0  0  0  0  0  0  0  0  0  0  0
  150.7034  143.5964  157.5078 O   0  0  0  0  0  0  0  0  0  0  0  0
  149.4601  141.3492  155.7802 C   0  0  1  0  0  0  0  0  0  0  0  0
  148.4740  142.3528  155.6203 O   0  0  0  0  0  0  0  0  0  0  0  0
  149.4899  140.3576  154.6241 C   0  0  1  0  0  0  0  0  0  0  0  0
  149.2114  140.9621  153.3742 O   0  0  0  0  0  0  0  0  0  0  0  0
  150.6639  138.4545  156.7202 N   0  0  0  0  0  0  0  0  0  0  0  0
  151.3729  139.6388  153.6975 H   0  0  0  0  0  0  0  0  0  0  0  0
  150.9775  142.6902  155.0452 H   0  0  0  0  0  0  0  0  0  0  0  0
  149.2631  140.8142  156.7101 H   0  0  0  0  0  0  0  0  0  0  0  0
  148.7836  139.5383  154.7680 H   0  0  0  0  0  0  0  0  0  0  0  0
  150.7417  134.7074  157.4338 H   0  0  0  0  0  0  0  0  0  0  0  0
  151.8553  137.1857  154.0235 H   0  0  0  0  0  0  0  0  0  0  0  0
  151.0658  141.6524  157.9406 H   0  0  0  0  0  0  0  0  0  0  0  0
  152.4265  142.4968  157.2212 H   0  0  0  0  0  0  0  0  0  0  0  0
  150.0779  143.7987  156.8289 H   0  0  0  0  0  0  0  0  0  0  0  0
  148.9046  143.1589  155.3804 H   0  0  0  0  0  0  0  0  0  0  0  0
  149.1165  140.2761  152.7310 H   0  0  0  0  0  0  0  0  0  0  0  0
  1  2  1  0  0  0  0
  1 22  1  0  0  0  0
  2  3  2  0  0  0  0
  2  4  1  0  0  0  0
  4 17  2  0  0  0  0
  4  5  1  0  0  0  0
  5  6  2  0  0  0  0
  6  7  1  0  0  0  0
  6 23  1  0  0  0  0
  7  8  1  0  0  0  0
  7 17  1  0  0  0  0
  8 18  1  0  0  0  0
  8 15  1  0  0  0  0
  8  9  1  0  0  0  0
  9 10  1  0  0  0  0
 10 19  1  0  0  0  0
 10 11  1  0  0  0  0
 10 13  1  0  0  0  0
 11 12  1  0  0  0  0
 11 24  1  0  0  0  0
 11 25  1  0  0  0  0
 12 26  1  0  0  0  0
 13 20  1  0  0  0  0
 13 14  1  0  0  0  0
 13 15  1  0  0  0  0
 14 27  1  0  0  0  0
 15 21  1  0  0  0  0
 15 16  1  0  0  0  0
 16 28  1  0  0  0  0
M  CHG  1   1  -1
M  END
> <s_m_source_file>
AV-unprocessed.smi

> <i_m_source_file_index>
160

> <i_lp_mmshare_version>
43012

> <i_f3d_flags>
0

> <s_epik_input>
W05IMl1DKD1PKWMxbltjSF1uKG4xKVtDQEBIXTJPW0NASF0oW0NIMl1bT0hdKVtDQEBIXShbT0hdKVtDQEhdMltPSF0=

> <s_epik_cmdline>
J2VwaWtfcHl0aG9uJywgJy1waCcsICc3LjAnLCAnLXRuJywgJzgnLCAnLW1hJywgJzIwMCcsICctbWV0YWxfYmluZGluZycsICctaW1hZScsICc8aW5maWxlLm1hZT4nLCAnLW9tYWUnLCAnPG91dGZpbGUubWFlPic=

> <r_lp_tautomer_probability>
1

> <r_epik_Ionization_Penalty>
6.6993

> <r_epik_Ionization_Penalty_Charging>
6.6993

> <r_epik_Ionization_Penalty_Neutral>
6.01698e-06

> <r_epik_State_Penalty>
6.69929

> <r_epik_Charging_Adjusted_Penalty>
13.3986

> <i_epik_Tot_Q>
-1

> <i_epik_Tot_abs_Q>
1

> <r_epik_Metal_State_Penalty>
2.62798

> <b_epik_Metal_Only>
1

> <s_epik_Chemistry_Notes>
This compound contains an acetal/aminal-like group ( X-CH(R)-Y where X, Y are N, S, or O) that may be acid/base labile, releasing an aldehyde.

> <s_lp_Force_Field>
OPLS_2005

> <r_lp_Energy>
41.4703

> <b_lp_Chiralities_Consistent>
1

> <s_lp_Variant>
AV-unprocessed.smi:160-17

> <Gold.Version>
5.8.1

> <Gold.Id.Protein>
6NUR|6NUR_protein|mol2

> <Gold.PLP.Fitness>
45.1105

> <Gold.PLP.PLP>
-24.4376

> <Gold.PLP.part.hbond>
-8.2239

> <Gold.PLP.part.metal>
0.0000

> <Gold.PLP.part.buried>
2.3506

> <Gold.PLP.part.nonpolar>
-16.8756

> <Gold.PLP.part.repulsive>
0.1422

> <Gold.PLP.ligand.clash>
0.0000

> <Gold.PLP.ligand.torsion>
0.2602

> <Gold.PLP.Chemscore.Hbond>
6.0560

> <Gold.PLP.Chemscore.CHOScore>
1.0000

> <Gold.PLP.Chemscore.Metal>
0.0000

> <Gold.Chemscore.Hbonds>
donor molecule, donor type, donor heavy atom, donor atom, acceptor molecule, acceptor atom, score
      L1  H    12    26       P1  8028  1.00
      L1  H    14    27       P1  8028  0.85
      L1  H    16    28       P1  7957  0.70
      P1  H  6896  6908       L1     1  0.62
      P1  H  8011  8017       L1    16  1.00
      P1  H 10752 10764       L1     5  0.27
      L1  C     6    23       P1  7949  0.12

> <Gold.PLP.Chemscore.Internal.Correction>
0.0252

> <Gold.Rescore>
     Score         DG    S(hbond)    S(metal)    S(lipo)     H(rot)  DE(clash)    DE(int)     intcor
      8.68     -10.58       3.60        0.00      29.18       4.04       1.66       0.24       ----

> <Gold.Chemscore.Fitness>
8.6825

> <Gold.Chemscore.DG>
-10.5804

> <Gold.Chemscore.ZeroCoef>
-5.4800

> <Gold.Chemscore.Hbond>
3.6016

> <Gold.Chemscore.Metal>
0.0000

> <Gold.Chemscore.Lipo>
29.1802

> <Gold.Chemscore.Internal_Hbond>
0.0000

> <Gold.Chemscore.DEClash>
1.6597

> <Gold.Chemscore.DEInternal>
0.2383

> <Gold.Chemscore.Rot>
4.0403

> <Gold.Chemscore.Internal.Correction>
   9.000000E+99

> <Gold.Chemscore.Hbonds>
donor molecule, donor type, donor heavy atom, donor atom, acceptor molecule, acceptor atom, score
      L1  H    12    26       P1  8028  0.99
      L1  H    14    27       P1  8028  0.81
      L1  H    16    28       P1  7957  0.72
      P1  H  6896  6908       L1     1  0.19
      P1  H  8011  8017       L1    16  0.34
      P1  H 10752 10764       L1     5  0.01

> <Gold.Chemscore.Hbond.Weighted>
-12.0294

> <Gold.Chemscore.Metal.Weighted>
-0.0000

> <Gold.Chemscore.Lipo.Weighted>
-3.4141

> <Gold.Chemscore.Internal_Hbond.Weighted>
0.0000

> <Gold.Chemscore.DEClash.Weighted>
1.6597

> <Gold.Chemscore.DEInternal.Weighted>
0.2383

> <Gold.Chemscore.Rot.Weighted>
10.3431

> <Gold.Chemscore.Internal.Correction.Weighted>
   9.000000E+99

> <Gold.Protein.RotatedTorsions>
[ 6907 6896 6895 6894 ] final  144.01 input  -60.11 | X-H torsion
[ 7974 7965 7964 7962 ] final -116.04 input  175.53 | X-H torsion
[ 8008 7997 7996 7995 ] final  -29.56 input   59.86 | X-H torsion
[ 10167 10162 10161 10158 ] final -171.97 input  -65.29 | X-H torsion
[ 10718 10713 10712 10709 ] final -107.21 input   66.30 | X-H torsion
[ 10763 10752 10751 10750 ] final  -36.73 input  -60.55 | X-H torsion
[ 11005 11000 10999 10996 ] final -103.55 input  -57.11 | X-H torsion

> <Gold.Protein.ActiveResidues>
 VAL166  LYS551  ARG553  GLY616  TRP617  ASP618  TYR619  PRO620  LYS621  CYS622 
 ASP623  PHE694  ASN695  SER759  ASP760  ASP761  ALA762  ILE779  LEU786  VAL792 
 PHE793  MET794  SER795  GLU796  ALA797  LYS798  CYS799  TRP800  GLU811  SER814 

> <Gold.Protein.RotatedAtoms>
  152.1991  133.4828  159.5048 H   0  0  0  0  0  0  0  0  0  0  0  0  # atno 6907 bound_to 6896
  150.6966  134.1614  159.4186 H   0  0  0  0  0  0  0  0  0  0  0  0  # atno 6908 bound_to 6896
  151.9531  135.0159  160.0594 H   0  0  0  0  0  0  0  0  0  0  0  0  # atno 6909 bound_to 6896
  145.1013  140.8554  143.3924 H   0  0  0  0  0  0  0  0  0  0  0  0  # atno 7974 bound_to 7965
  154.4285  140.1815  156.1268 H   0  0  0  0  0  0  0  0  0  0  0  0  # atno 8008 bound_to 7997
  156.0100  140.3351  155.6905 H   0  0  0  0  0  0  0  0  0  0  0  0  # atno 8009 bound_to 7997
  155.6124  140.0651  157.2693 H   0  0  0  0  0  0  0  0  0  0  0  0  # atno 8010 bound_to 7997
  139.5771  144.1507  152.1465 H   0  0  0  0  0  0  0  0  0  0  0  0  # atno 10167 bound_to 10162
  156.0426  130.5651  150.7789 H   0  0  0  0  0  0  0  0  0  0  0  0  # atno 10718 bound_to 10713
  153.8846  135.6818  153.4764 H   0  0  0  0  0  0  0  0  0  0  0  0  # atno 10763 bound_to 10752
  153.1215  135.4738  154.9200 H   0  0  0  0  0  0  0  0  0  0  0  0  # atno 10764 bound_to 10752
  154.7652  135.3222  154.8252 H   0  0  0  0  0  0  0  0  0  0  0  0  # atno 10765 bound_to 10752
  141.1141  133.8649  157.1500 H   0  0  0  0  0  0  0  0  0  0  0  0  # atno 11005 bound_to 11000
  145.0952  139.2861  143.5714 LP  0  0  0  0  0  0  0  0  0  0  0  0  # atno 17320 bound_to 7965
  146.3529  140.0502  142.8636 LP  0  0  0  0  0  0  0  0  0  0  0  0  # atno 17321 bound_to 7965
  140.1052  144.5505  150.6962 LP  0  0  0  0  0  0  0  0  0  0  0  0  # atno 17342 bound_to 10162
  140.7053  143.2463  151.4745 LP  0  0  0  0  0  0  0  0  0  0  0  0  # atno 17343 bound_to 10162
  157.5262  131.0934  151.0014 LP  0  0  0  0  0  0  0  0  0  0  0  0  # atno 17370 bound_to 10713
  157.0332  130.5719  149.5346 LP  0  0  0  0  0  0  0  0  0  0  0  0  # atno 17371 bound_to 10713
  140.0052  135.0011  157.0276 LP  0  0  0  0  0  0  0  0  0  0  0  0  # atno 17394 bound_to 11000
  140.4695  134.1401  155.7201 LP  0  0  0  0  0  0  0  0  0  0  0  0  # atno 17395 bound_to 11000

$$$$
