AV-unprocessed.smi:554|AV-procd|sdf|2906|dock2
  -GOLD-   2262023393D 1   1.00000     0.00000
 Structure written by MMmdl.
 27 28  0  0  0  0  0  0  0  0  1 V2000
  152.5460  143.3759  161.5622 C   0  0  0  0  0  0  0  0  0  0  0  0
  152.7982  143.6300  160.0918 C   0  0  2  0  0  0  0  0  0  0  0  0
  152.2349  144.8590  159.4158 C   0  0  0  0  0  0  0  0  0  0  0  0
  151.6824  143.4932  159.0803 C   0  0  1  0  0  0  0  0  0  0  0  0
  151.9470  142.8557  157.7299 C   0  0  0  0  0  0  0  0  0  0  0  0
  150.7980  142.8126  156.8347 N   0  0  0  0  0  0  0  0  0  0  0  0
  150.3088  141.7020  156.2651 C   0  0  0  0  0  0  0  0  0  0  0  0
  150.7829  140.5802  156.4472 O   0  0  0  0  0  0  0  0  0  0  0  0
  149.2498  141.9819  155.4855 N   0  0  0  0  0  0  0  0  0  0  0  0
  148.4907  141.0911  154.6823 C   0  0  0  0  0  0  0  0  0  0  0  0
  148.8159  139.8126  154.4577 N   0  0  0  0  0  0  0  0  0  0  0  0
  147.8941  139.1762  153.6225 C   0  0  0  0  0  0  0  0  0  0  0  0
  146.8664  139.9912  153.2173 C   0  0  0  0  0  0  0  0  0  0  0  0
  147.0145  141.5990  153.8751 S   0  0  0  0  0  0  0  0  0  0  0  0
  151.5514  143.7181  161.8503 H   0  0  0  0  0  0  0  0  0  0  0  0
  153.2839  143.9049  162.1653 H   0  0  0  0  0  0  0  0  0  0  0  0
  152.6217  142.3096  161.7747 H   0  0  0  0  0  0  0  0  0  0  0  0
  153.7865  143.3167  159.7603 H   0  0  0  0  0  0  0  0  0  0  0  0
  151.6053  145.5215  160.0064 H   0  0  0  0  0  0  0  0  0  0  0  0
  152.8589  145.3516  158.6726 H   0  0  0  0  0  0  0  0  0  0  0  0
  150.7023  143.2572  159.4918 H   0  0  0  0  0  0  0  0  0  0  0  0
  152.7457  143.4013  157.2266 H   0  0  0  0  0  0  0  0  0  0  0  0
  152.3244  141.8445  157.8901 H   0  0  0  0  0  0  0  0  0  0  0  0
  150.3467  143.6922  156.6311 H   0  0  0  0  0  0  0  0  0  0  0  0
  148.9639  142.9492  155.4479 H   0  0  0  0  0  0  0  0  0  0  0  0
  148.0478  138.1386  153.3650 H   0  0  0  0  0  0  0  0  0  0  0  0
  146.0346  139.7434  152.5748 H   0  0  0  0  0  0  0  0  0  0  0  0
  1  2  1  0  0  0  0
  1 15  1  0  0  0  0
  1 16  1  0  0  0  0
  1 17  1  0  0  0  0
  2  4  1  0  0  0  0
  2  3  1  0  0  0  0
  2 18  1  0  0  0  0
  3  4  1  0  0  0  0
  3 19  1  0  0  0  0
  3 20  1  0  0  0  0
  4  5  1  0  0  0  0
  4 21  1  0  0  0  0
  5  6  1  0  0  0  0
  5 22  1  0  0  0  0
  5 23  1  0  0  0  0
  6  7  1  0  0  0  0
  6 24  1  0  0  0  0
  7  8  2  0  0  0  0
  7  9  1  0  0  0  0
  9 10  1  0  0  0  0
  9 25  1  0  0  0  0
 10 14  1  0  0  0  0
 10 11  2  0  0  0  0
 11 12  1  0  0  0  0
 12 13  2  0  0  0  0
 12 26  1  0  0  0  0
 13 14  1  0  0  0  0
 13 27  1  0  0  0  0
M  END
> <s_m_source_file>
AV-unprocessed.smi

> <i_m_source_file_index>
554

> <i_lp_mmshare_version>
43012

> <i_f3d_flags>
0

> <s_epik_input>
W0NIM11bQ0BASF0xW0NIMl1bQ0BIXTFbQ0gyXVtOSF1DKD1PKVtOSF1jMm5bY0hdW2NIXXMy

> <s_epik_cmdline>
J2VwaWtfcHl0aG9uJywgJy1waCcsICc3LjAnLCAnLXRuJywgJzgnLCAnLW1hJywgJzIwMCcsICctbWV0YWxfYmluZGluZycsICctaW1hZScsICc8aW5maWxlLm1hZT4nLCAnLW9tYWUnLCAnPG91dGZpbGUubWFlPic=

> <r_lp_tautomer_probability>
0.999

> <r_epik_Ionization_Penalty>
0.00042678

> <r_epik_Ionization_Penalty_Charging>
0

> <r_epik_Ionization_Penalty_Neutral>
0.00042678

> <r_epik_State_Penalty>
0.000177984

> <r_epik_Charging_Adjusted_Penalty>
0.000177984

> <i_epik_Tot_Q>
0

> <i_epik_Tot_abs_Q>
0

> <r_epik_Metal_State_Penalty>
-0

> <b_epik_Metal_Only>
0

> <s_lp_Force_Field>
OPLS_2005

> <r_lp_Energy>
13.37

> <b_lp_Chiralities_Consistent>
1

> <s_lp_Variant>
AV-unprocessed.smi:554-1

> <Gold.Version>
5.8.1

> <Gold.Id.Protein>
6NUR|6NUR_protein|mol2

> <Gold.PLP.Fitness>
43.2158

> <Gold.PLP.PLP>
-31.3992

> <Gold.PLP.part.hbond>
-2.0000

> <Gold.PLP.part.metal>
0.0000

> <Gold.PLP.part.buried>
-4.5740

> <Gold.PLP.part.nonpolar>
-25.9144

> <Gold.PLP.part.repulsive>
0.3396

> <Gold.PLP.ligand.clash>
0.0000

> <Gold.PLP.ligand.torsion>
0.3604

> <Gold.PLP.Chemscore.Hbond>
2.0000

> <Gold.PLP.Chemscore.CHOScore>
2.0000

> <Gold.PLP.Chemscore.Metal>
0.0000

> <Gold.Chemscore.Hbonds>
donor molecule, donor type, donor heavy atom, donor atom, acceptor molecule, acceptor atom, score
      L1  H     6    24       P1  8028  1.00
      L1  H     9    25       P1  8028  1.00
      L1  C    12    26       P1  7948  0.88
      L1  C    13    27       P1 10175  1.00

> <Gold.PLP.Chemscore.Internal.Correction>
0.5375

> <Gold.Rescore>
     Score         DG    S(hbond)    S(metal)    S(lipo)     H(rot)  DE(clash)    DE(int)     intcor
     16.34     -18.06       1.96        0.00      79.39       1.28       0.16       1.56       ----

> <Gold.Chemscore.Fitness>
16.3360

> <Gold.Chemscore.DG>
-18.0557

> <Gold.Chemscore.ZeroCoef>
-5.4800

> <Gold.Chemscore.Hbond>
1.9643

> <Gold.Chemscore.Metal>
0.0000

> <Gold.Chemscore.Lipo>
79.3921

> <Gold.Chemscore.Internal_Hbond>
0.0000

> <Gold.Chemscore.DEClash>
0.1646

> <Gold.Chemscore.DEInternal>
1.5550

> <Gold.Chemscore.Rot>
1.2788

> <Gold.Chemscore.Internal.Correction>
   9.000000E+99

> <Gold.Chemscore.Hbonds>
donor molecule, donor type, donor heavy atom, donor atom, acceptor molecule, acceptor atom, score
      L1  H     6    24       P1  8028  0.89
      L1  H     9    25       P1  8028  1.00

> <Gold.Chemscore.Hbond.Weighted>
-6.5606

> <Gold.Chemscore.Metal.Weighted>
-0.0000

> <Gold.Chemscore.Lipo.Weighted>
-9.2889

> <Gold.Chemscore.Internal_Hbond.Weighted>
0.0000

> <Gold.Chemscore.DEClash.Weighted>
0.1646

> <Gold.Chemscore.DEInternal.Weighted>
1.5550

> <Gold.Chemscore.Rot.Weighted>
3.2738

> <Gold.Chemscore.Internal.Correction.Weighted>
   9.000000E+99

> <Gold.Protein.RotatedTorsions>
[ 6907 6896 6895 6894 ] final -105.26 input  -60.11 | X-H torsion
[ 7974 7965 7964 7962 ] final  -15.39 input  175.53 | X-H torsion
[ 8008 7997 7996 7995 ] final  -77.37 input   59.86 | X-H torsion
[ 10167 10162 10161 10158 ] final -138.70 input  -65.29 | X-H torsion
[ 10718 10713 10712 10709 ] final   27.10 input   66.30 | X-H torsion
[ 10763 10752 10751 10750 ] final -157.70 input  -60.55 | X-H torsion
[ 11005 11000 10999 10996 ] final  -85.36 input  -57.11 | X-H torsion

> <Gold.Protein.ActiveResidues>
 VAL166  LYS551  ARG553  GLY616  TRP617  ASP618  TYR619  PRO620  LYS621  CYS622 
 ASP623  PHE694  ASN695  SER759  ASP760  ASP761  ALA762  ILE779  LEU786  VAL792 
 PHE793  MET794  SER795  GLU796  ALA797  LYS798  CYS799  TRP800  GLU811  SER814 

> <Gold.Protein.RotatedAtoms>
  150.7328  134.0153  159.3682 H   0  0  0  0  0  0  0  0  0  0  0  0  # atno 6907 bound_to 6896
  151.8115  135.0677  160.0423 H   0  0  0  0  0  0  0  0  0  0  0  0  # atno 6908 bound_to 6896
  152.3069  133.5676  159.5691 H   0  0  0  0  0  0  0  0  0  0  0  0  # atno 6909 bound_to 6896
  146.2034  140.3485  142.8415 H   0  0  0  0  0  0  0  0  0  0  0  0  # atno 7974 bound_to 7965
  154.5590  140.0711  156.8789 H   0  0  0  0  0  0  0  0  0  0  0  0  # atno 8008 bound_to 7997
  155.2847  140.3374  155.4238 H   0  0  0  0  0  0  0  0  0  0  0  0  # atno 8009 bound_to 7997
  156.2026  140.1728  156.7852 H   0  0  0  0  0  0  0  0  0  0  0  0  # atno 8010 bound_to 7997
  139.8452  143.7270  152.2661 H   0  0  0  0  0  0  0  0  0  0  0  0  # atno 10167 bound_to 10162
  157.2157  130.6955  149.6248 H   0  0  0  0  0  0  0  0  0  0  0  0  # atno 10718 bound_to 10713
  154.7615  135.3119  154.8369 H   0  0  0  0  0  0  0  0  0  0  0  0  # atno 10763 bound_to 10752
  153.9128  135.6804  153.4754 H   0  0  0  0  0  0  0  0  0  0  0  0  # atno 10764 bound_to 10752
  153.1216  135.4820  154.9136 H   0  0  0  0  0  0  0  0  0  0  0  0  # atno 10765 bound_to 10752
  141.1642  133.7395  156.9004 H   0  0  0  0  0  0  0  0  0  0  0  0  # atno 11005 bound_to 11000
  144.8735  140.7305  143.6031 LP  0  0  0  0  0  0  0  0  0  0  0  0  # atno 17320 bound_to 7965
  145.3405  139.1733  143.4488 LP  0  0  0  0  0  0  0  0  0  0  0  0  # atno 17321 bound_to 7965
  139.7520  144.7531  151.0493 LP  0  0  0  0  0  0  0  0  0  0  0  0  # atno 17342 bound_to 10162
  140.7794  143.4849  150.9968 LP  0  0  0  0  0  0  0  0  0  0  0  0  # atno 17343 bound_to 10162
  155.9686  130.4536  150.5819 LP  0  0  0  0  0  0  0  0  0  0  0  0  # atno 17370 bound_to 10713
  157.3627  131.0752  151.1623 LP  0  0  0  0  0  0  0  0  0  0  0  0  # atno 17371 bound_to 10713
  140.1586  134.9181  157.2686 LP  0  0  0  0  0  0  0  0  0  0  0  0  # atno 17394 bound_to 11000
  140.2637  134.3541  155.7397 LP  0  0  0  0  0  0  0  0  0  0  0  0  # atno 17395 bound_to 11000

$$$$
