AV-unprocessed.smi:1814|AV-procd|sdf|7349|dock1
  -GOLD-   22720 9 13D 1   1.00000     0.00000
 Structure written by MMmdl.
 31 32  0  0  0  0  0  0  0  0  1 V2000
  150.7765  140.7832  156.4353 O   0  0  0  0  0  0  0  0  0  0  0  0
  150.1925  141.8489  156.2364 C   0  0  0  0  0  0  0  0  0  0  0  0
  149.1604  142.0237  155.3924 N   0  0  0  0  0  0  0  0  0  0  0  0
  148.5250  141.0560  154.5706 C   0  0  0  0  0  0  0  0  0  0  0  0
  147.4440  141.2957  153.8190 N   0  0  0  0  0  0  0  0  0  0  0  0
  147.0339  140.1622  153.1130 C   0  0  0  0  0  0  0  0  0  0  0  0
  147.8201  139.0599  153.3398 C   0  0  0  0  0  0  0  0  0  0  0  0
  149.1125  139.4033  154.4585 S   0  0  0  0  0  0  0  0  0  0  0  0
  150.5157  142.9957  156.8521 N   0  0  0  0  0  0  0  0  0  0  0  0
  151.5847  143.1526  157.8340 C   0  0  2  0  0  0  0  0  0  0  0  0
  151.5870  141.9744  158.8290 C   0  0  0  0  0  0  0  0  0  0  0  0
  152.6666  142.1505  159.9116 C   0  0  0  0  0  0  0  0  0  0  0  0
  152.5482  143.5009  160.6434 C   0  0  2  0  0  0  0  0  0  0  0  0
  151.3977  143.5093  161.4658 O   0  0  0  0  0  0  0  0  0  0  0  0
  152.4968  144.6797  159.6532 C   0  0  0  0  0  0  0  0  0  0  0  0
  151.4136  144.4901  158.5768 C   0  0  0  0  0  0  0  0  0  0  0  0
  148.7795  142.9565  155.3363 H   0  0  0  0  0  0  0  0  0  0  0  0
  146.1698  140.2296  152.4686 H   0  0  0  0  0  0  0  0  0  0  0  0
  147.7172  138.0711  152.9183 H   0  0  0  0  0  0  0  0  0  0  0  0
  149.9821  143.8227  156.6279 H   0  0  0  0  0  0  0  0  0  0  0  0
  152.5438  143.1764  157.3129 H   0  0  0  0  0  0  0  0  0  0  0  0
  150.6078  141.8884  159.3022 H   0  0  0  0  0  0  0  0  0  0  0  0
  151.7550  141.0352  158.3005 H   0  0  0  0  0  0  0  0  0  0  0  0
  152.6197  141.3271  160.6253 H   0  0  0  0  0  0  0  0  0  0  0  0
  153.6489  142.0876  159.4414 H   0  0  0  0  0  0  0  0  0  0  0  0
  153.4087  143.6261  161.3013 H   0  0  0  0  0  0  0  0  0  0  0  0
  150.6332  143.5639  160.9128 H   0  0  0  0  0  0  0  0  0  0  0  0
  152.3346  145.6164  160.1879 H   0  0  0  0  0  0  0  0  0  0  0  0
  153.4668  144.7743  159.1634 H   0  0  0  0  0  0  0  0  0  0  0  0
  151.4546  145.3184  157.8684 H   0  0  0  0  0  0  0  0  0  0  0  0
  150.4276  144.5326  159.0418 H   0  0  0  0  0  0  0  0  0  0  0  0
  1  2  2  0  0  0  0
  2  3  1  0  0  0  0
  2  9  1  0  0  0  0
  3  4  1  0  0  0  0
  3 17  1  0  0  0  0
  4  8  1  0  0  0  0
  4  5  2  0  0  0  0
  5  6  1  0  0  0  0
  6  7  2  0  0  0  0
  6 18  1  0  0  0  0
  7  8  1  0  0  0  0
  7 19  1  0  0  0  0
  9 10  1  0  0  0  0
  9 20  1  0  0  0  0
 10 16  1  0  0  0  0
 10 11  1  0  0  0  0
 10 21  1  0  0  0  0
 11 12  1  0  0  0  0
 11 22  1  0  0  0  0
 11 23  1  0  0  0  0
 12 13  1  0  0  0  0
 12 24  1  0  0  0  0
 12 25  1  0  0  0  0
 13 14  1  0  0  0  0
 13 15  1  0  0  0  0
 13 26  1  0  0  0  0
 14 27  1  0  0  0  0
 15 16  1  0  0  0  0
 15 28  1  0  0  0  0
 15 29  1  0  0  0  0
 16 30  1  0  0  0  0
 16 31  1  0  0  0  0
M  END
> <s_m_source_file>
AV-unprocessed.smi

> <i_m_source_file_index>
1814

> <i_lp_mmshare_version>
43012

> <i_f3d_flags>
0

> <s_epik_input>
czFbY0hdW2NIXW5jMVtOSF1DKD1PKVtOSF1bQ0BASF0yW0NIMl1bQ0gyXVtDQEBIXShbT0hdKVtDSDJdW0NIMl0y

> <s_epik_cmdline>
J2VwaWtfcHl0aG9uJywgJy1waCcsICc3LjAnLCAnLXRuJywgJzgnLCAnLW1hJywgJzIwMCcsICctbWV0YWxfYmluZGluZycsICctaW1hZScsICc8aW5maWxlLm1hZT4nLCAnLW9tYWUnLCAnPG91dGZpbGUubWFlPic=

> <r_lp_tautomer_probability>
0.999

> <r_epik_Ionization_Penalty>
0.000428518

> <r_epik_Ionization_Penalty_Charging>
0

> <r_epik_Ionization_Penalty_Neutral>
0.000428518

> <r_epik_State_Penalty>
0.000177984

> <r_epik_Charging_Adjusted_Penalty>
0.000177984

> <i_epik_Tot_Q>
0

> <i_epik_Tot_abs_Q>
0

> <r_epik_Metal_State_Penalty>
-0

> <b_epik_Metal_Only>
0

> <s_lp_Force_Field>
OPLS_2005

> <r_lp_Energy>
9.0844

> <b_lp_Chiralities_Consistent>
1

> <s_lp_Variant>
AV-unprocessed.smi:1814-2

> <Gold.Version>
5.8.1

> <Gold.Id.Protein>
6NUR|6NUR_protein|mol2

> <Gold.PLP.Fitness>
47.0194

> <Gold.PLP.PLP>
-35.4409

> <Gold.PLP.part.hbond>
-3.5066

> <Gold.PLP.part.metal>
0.0000

> <Gold.PLP.part.buried>
-3.5989

> <Gold.PLP.part.nonpolar>
-28.2943

> <Gold.PLP.part.repulsive>
0.3977

> <Gold.PLP.ligand.clash>
0.0000

> <Gold.PLP.ligand.torsion>
0.2125

> <Gold.PLP.Chemscore.Hbond>
2.0000

> <Gold.PLP.Chemscore.CHOScore>
2.0000

> <Gold.PLP.Chemscore.Metal>
0.0000

> <Gold.Chemscore.Hbonds>
donor molecule, donor type, donor heavy atom, donor atom, acceptor molecule, acceptor atom, score
      L1  H     3    17       P1  8028  1.00
      L1  H     9    20       P1  8028  1.00
      L1  C     6    18       P1 10175  1.00
      L1  C     7    19       P1  7948  1.00

> <Gold.PLP.Chemscore.Internal.Correction>
0.0034

> <Gold.Rescore>
     Score         DG    S(hbond)    S(metal)    S(lipo)     H(rot)  DE(clash)    DE(int)     intcor
     15.58     -18.55       1.92        0.00      89.79       1.50       0.17       2.80       ----

> <Gold.Chemscore.Fitness>
15.5847

> <Gold.Chemscore.DG>
-18.5536

> <Gold.Chemscore.ZeroCoef>
-5.4800

> <Gold.Chemscore.Hbond>
1.9191

> <Gold.Chemscore.Metal>
0.0000

> <Gold.Chemscore.Lipo>
89.7884

> <Gold.Chemscore.Internal_Hbond>
0.0000

> <Gold.Chemscore.DEClash>
0.1720

> <Gold.Chemscore.DEInternal>
2.7970

> <Gold.Chemscore.Rot>
1.5006

> <Gold.Chemscore.Internal.Correction>
   9.000000E+99

> <Gold.Chemscore.Hbonds>
donor molecule, donor type, donor heavy atom, donor atom, acceptor molecule, acceptor atom, score
      L1  H     3    17       P1  8028  0.96
      L1  H     9    20       P1  8028  0.98

> <Gold.Chemscore.Hbond.Weighted>
-6.4099

> <Gold.Chemscore.Metal.Weighted>
-0.0000

> <Gold.Chemscore.Lipo.Weighted>
-10.5052

> <Gold.Chemscore.Internal_Hbond.Weighted>
0.0000

> <Gold.Chemscore.DEClash.Weighted>
0.1720

> <Gold.Chemscore.DEInternal.Weighted>
2.7970

> <Gold.Chemscore.Rot.Weighted>
3.8415

> <Gold.Chemscore.Internal.Correction.Weighted>
   9.000000E+99

> <Gold.Protein.RotatedTorsions>
[ 6907 6896 6895 6894 ] final   44.11 input  -60.11 | X-H torsion
[ 7974 7965 7964 7962 ] final  -95.62 input  175.53 | X-H torsion
[ 8008 7997 7996 7995 ] final  -31.04 input   59.86 | X-H torsion
[ 10167 10162 10161 10158 ] final   -5.31 input  -65.29 | X-H torsion
[ 10718 10713 10712 10709 ] final -110.52 input   66.30 | X-H torsion
[ 10763 10752 10751 10750 ] final  103.79 input  -60.55 | X-H torsion
[ 11005 11000 10999 10996 ] final  -45.01 input  -57.11 | X-H torsion

> <Gold.Protein.ActiveResidues>
 VAL166  LYS551  ARG553  GLY616  TRP617  ASP618  TYR619  PRO620  LYS621  CYS622 
 ASP623  PHE694  ASN695  SER759  ASP760  ASP761  ALA762  ILE779  LEU786  VAL792 
 PHE793  MET794  SER795  GLU796  ALA797  LYS798  CYS799  TRP800  GLU811  SER814 

> <Gold.Protein.RotatedAtoms>
  152.2286  134.8344  160.0476 H   0  0  0  0  0  0  0  0  0  0  0  0  # atno 6907 bound_to 6896
  151.9101  133.3554  159.3869 H   0  0  0  0  0  0  0  0  0  0  0  0  # atno 6908 bound_to 6896
  150.7019  134.4666  159.5449 H   0  0  0  0  0  0  0  0  0  0  0  0  # atno 6909 bound_to 6896
  145.3576  140.9486  143.2519 H   0  0  0  0  0  0  0  0  0  0  0  0  # atno 7974 bound_to 7965
  154.4228  140.1775  156.1503 H   0  0  0  0  0  0  0  0  0  0  0  0  # atno 8008 bound_to 7997
  155.9920  140.3368  155.6738 H   0  0  0  0  0  0  0  0  0  0  0  0  # atno 8009 bound_to 7997
  155.6359  140.0675  157.2625 H   0  0  0  0  0  0  0  0  0  0  0  0  # atno 8010 bound_to 7997
  140.6959  143.6323  150.8512 H   0  0  0  0  0  0  0  0  0  0  0  0  # atno 10167 bound_to 10162
  156.0595  130.5819  150.8248 H   0  0  0  0  0  0  0  0  0  0  0  0  # atno 10718 bound_to 10713
  153.3574  135.3965  155.1692 H   0  0  0  0  0  0  0  0  0  0  0  0  # atno 10763 bound_to 10752
  154.8673  135.3671  154.5144 H   0  0  0  0  0  0  0  0  0  0  0  0  # atno 10764 bound_to 10752
  153.5600  135.7081  153.5612 H   0  0  0  0  0  0  0  0  0  0  0  0  # atno 10765 bound_to 10752
  141.0487  133.6751  156.2952 H   0  0  0  0  0  0  0  0  0  0  0  0  # atno 11005 bound_to 11000
  144.8670  139.5093  143.6785 LP  0  0  0  0  0  0  0  0  0  0  0  0  # atno 17320 bound_to 7965
  146.2941  139.7226  142.9139 LP  0  0  0  0  0  0  0  0  0  0  0  0  # atno 17321 bound_to 7965
  140.0040  143.5713  152.2864 LP  0  0  0  0  0  0  0  0  0  0  0  0  # atno 17342 bound_to 10162
  139.6413  144.7655  151.2333 LP  0  0  0  0  0  0  0  0  0  0  0  0  # atno 17343 bound_to 10162
  157.5593  131.0945  150.9583 LP  0  0  0  0  0  0  0  0  0  0  0  0  # atno 17370 bound_to 10713
  156.9824  130.5532  149.5297 LP  0  0  0  0  0  0  0  0  0  0  0  0  # atno 17371 bound_to 10713
  140.6096  134.5472  157.5531 LP  0  0  0  0  0  0  0  0  0  0  0  0  # atno 17394 bound_to 11000
  139.9333  134.7923  156.0871 LP  0  0  0  0  0  0  0  0  0  0  0  0  # atno 17395 bound_to 11000

$$$$
