AV-unprocessed.smi:444|AV-procd|sdf|2588|dock5
  -GOLD-   2262022583D 1   1.00000     0.00000
 Structure written by MMmdl.
 45 46  0  0  0  0  0  0  0  0  1 V2000
  152.7883  138.7702  159.3010 C   0  0  0  0  0  0  0  0  0  0  0  0
  152.4826  140.2017  158.9105 C   0  0  0  0  0  0  0  0  0  0  0  0
  153.0945  141.2709  159.5924 C   0  0  0  0  0  0  0  0  0  0  0  0
  152.8038  142.5968  159.2246 C   0  0  0  0  0  0  0  0  0  0  0  0
  151.9007  142.8622  158.1743 C   0  0  0  0  0  0  0  0  0  0  0  0
  151.5989  144.2987  157.7903 C   0  0  0  0  0  0  0  0  0  0  0  0
  151.2795  141.7980  157.4803 C   0  0  0  0  0  0  0  0  0  0  0  0
  150.4087  142.1272  156.4617 O   0  0  0  0  0  0  0  0  0  0  0  0
  149.4460  141.1655  156.0511 C   0  0  0  0  0  0  0  0  0  0  0  0
  149.1799  141.3442  154.5467 C   0  0  1  0  0  0  0  0  0  0  0  0
  150.0961  140.5126  153.8613 O   0  0  0  0  0  0  0  0  0  0  0  0
  147.7479  140.9111  154.1610 C   0  0  0  0  0  0  0  0  0  0  0  0
  146.7386  141.8616  154.6449 N   0  0  0  0  0  0  0  0  0  0  0  0
  146.3423  142.7889  153.7005 N   0  0  0  0  0  0  0  0  0  0  0  0
  145.4440  143.6792  153.9664 C   0  0  0  0  0  0  0  0  0  0  0  0
  145.0921  144.6366  152.8598 C   0  0  0  0  0  0  0  0  0  0  0  0
  144.8300  143.7139  155.2897 C   0  0  0  0  0  0  0  0  0  0  0  0
  143.7764  144.7833  155.5450 C   0  0  0  0  0  0  0  0  0  0  0  0
  145.2317  142.8019  156.2102 C   0  0  0  0  0  0  0  0  0  0  0  0
  144.6909  142.7624  157.5307 C   0  0  0  0  0  0  0  0  0  0  0  0
  144.2724  142.7317  158.6096 N   0  0  0  0  0  0  0  0  0  0  0  0
  146.2497  141.7907  155.9160 C   0  0  0  0  0  0  0  0  0  0  0  0
  146.6344  140.9500  156.7302 O   0  0  0  0  0  0  0  0  0  0  0  0
  151.5788  140.4648  157.8613 C   0  0  0  0  0  0  0  0  0  0  0  0
  153.6598  138.7147  159.9540 H   0  0  0  0  0  0  0  0  0  0  0  0
  152.9911  138.1683  158.4148 H   0  0  0  0  0  0  0  0  0  0  0  0
  151.9383  138.3339  159.8259 H   0  0  0  0  0  0  0  0  0  0  0  0
  153.7875  141.0794  160.3987 H   0  0  0  0  0  0  0  0  0  0  0  0
  153.2784  143.4105  159.7532 H   0  0  0  0  0  0  0  0  0  0  0  0
  151.8943  144.4833  156.7570 H   0  0  0  0  0  0  0  0  0  0  0  0
  152.1337  145.0045  158.4266 H   0  0  0  0  0  0  0  0  0  0  0  0
  150.5314  144.4992  157.8839 H   0  0  0  0  0  0  0  0  0  0  0  0
  149.7712  140.1462  156.2690 H   0  0  0  0  0  0  0  0  0  0  0  0
  148.5266  141.3493  156.6090 H   0  0  0  0  0  0  0  0  0  0  0  0
  149.3440  142.3865  154.2698 H   0  0  0  0  0  0  0  0  0  0  0  0
  149.7289  140.2871  153.0202 H   0  0  0  0  0  0  0  0  0  0  0  0
  147.6680  140.7329  153.0869 H   0  0  0  0  0  0  0  0  0  0  0  0
  147.5290  139.9439  154.6173 H   0  0  0  0  0  0  0  0  0  0  0  0
  145.2660  145.6672  153.1695 H   0  0  0  0  0  0  0  0  0  0  0  0
  144.0421  144.5384  152.5833 H   0  0  0  0  0  0  0  0  0  0  0  0
  145.6869  144.4585  151.9626 H   0  0  0  0  0  0  0  0  0  0  0  0
  143.3416  144.7053  156.5412 H   0  0  0  0  0  0  0  0  0  0  0  0
  142.9601  144.6981  154.8269 H   0  0  0  0  0  0  0  0  0  0  0  0
  144.2128  145.7785  155.4539 H   0  0  0  0  0  0  0  0  0  0  0  0
  151.1252  139.6230  157.3609 H   0  0  0  0  0  0  0  0  0  0  0  0
  1  2  1  0  0  0  0
  1 25  1  0  0  0  0
  1 26  1  0  0  0  0
  1 27  1  0  0  0  0
  2 24  1  0  0  0  0
  2  3  2  0  0  0  0
  3  4  1  0  0  0  0
  3 28  1  0  0  0  0
  4  5  2  0  0  0  0
  4 29  1  0  0  0  0
  5  6  1  0  0  0  0
  5  7  1  0  0  0  0
  6 30  1  0  0  0  0
  6 31  1  0  0  0  0
  6 32  1  0  0  0  0
  7  8  1  0  0  0  0
  7 24  2  0  0  0  0
  8  9  1  0  0  0  0
  9 10  1  0  0  0  0
  9 33  1  0  0  0  0
  9 34  1  0  0  0  0
 10 11  1  0  0  0  0
 10 12  1  0  0  0  0
 10 35  1  0  0  0  0
 11 36  1  0  0  0  0
 12 13  1  0  0  0  0
 12 37  1  0  0  0  0
 12 38  1  0  0  0  0
 13 22  1  0  0  0  0
 13 14  1  0  0  0  0
 14 15  2  0  0  0  0
 15 16  1  0  0  0  0
 15 17  1  0  0  0  0
 16 39  1  0  0  0  0
 16 40  1  0  0  0  0
 16 41  1  0  0  0  0
 17 18  1  0  0  0  0
 17 19  2  0  0  0  0
 18 42  1  0  0  0  0
 18 43  1  0  0  0  0
 18 44  1  0  0  0  0
 19 20  1  0  0  0  0
 19 22  1  0  0  0  0
 20 21  3  0  0  0  0
 22 23  2  0  0  0  0
 24 45  1  0  0  0  0
M  END
> <s_m_source_file>
AV-unprocessed.smi

> <i_m_source_file_index>
444

> <i_lp_mmshare_version>
43012

> <i_f3d_flags>
0

> <s_epik_input>
W0NIM11jMVtjSF1bY0hdYyhbQ0gzXSljKFtjSF0xKU9bQ0gyXVtDQEhdKFtPSF0pW0NIMl1uMm5jKFtDSDNdKWMoW0NIM10pYyhDI04pYzI9Tw==

> <s_epik_cmdline>
J2VwaWtfcHl0aG9uJywgJy1waCcsICc3LjAnLCAnLXRuJywgJzgnLCAnLW1hJywgJzIwMCcsICctbWV0YWxfYmluZGluZycsICctaW1hZScsICc8aW5maWxlLm1hZT4nLCAnLW9tYWUnLCAnPG91dGZpbGUubWFlPic=

> <r_lp_tautomer_probability>
1

> <r_epik_Ionization_Penalty>
1.17331e-07

> <r_epik_Ionization_Penalty_Charging>
1.57223e-10

> <r_epik_Ionization_Penalty_Neutral>
1.17174e-07

> <r_epik_State_Penalty>
-0

> <r_epik_Charging_Adjusted_Penalty>
1.57223e-10

> <i_epik_Tot_Q>
0

> <i_epik_Tot_abs_Q>
0

> <r_epik_Metal_State_Penalty>
-0

> <b_epik_Metal_Only>
0

> <s_lp_Force_Field>
OPLS_2005

> <r_lp_Energy>
32.4142

> <b_lp_Chiralities_Consistent>
1

> <s_lp_Variant>
AV-unprocessed.smi:444-2

> <Gold.Version>
5.8.1

> <Gold.Id.Protein>
6NUR|6NUR_protein|mol2

> <Gold.PLP.Fitness>
51.1505

> <Gold.PLP.PLP>
-48.4283

> <Gold.PLP.part.hbond>
-1.7470

> <Gold.PLP.part.metal>
0.0000

> <Gold.PLP.part.buried>
-5.8173

> <Gold.PLP.part.nonpolar>
-40.5454

> <Gold.PLP.part.repulsive>
0.7967

> <Gold.PLP.ligand.clash>
0.0000

> <Gold.PLP.ligand.torsion>
1.2683

> <Gold.PLP.Chemscore.Hbond>
1.7360

> <Gold.PLP.Chemscore.CHOScore>
0.0000

> <Gold.PLP.Chemscore.Metal>
0.0000

> <Gold.Chemscore.Hbonds>
donor molecule, donor type, donor heavy atom, donor atom, acceptor molecule, acceptor atom, score
      L1  H    11    36       P1  7957  1.00
      P1  H  7989  7998       L1    11  0.69

> <Gold.PLP.Chemscore.Internal.Correction>
0.0507

> <Gold.Rescore>
     Score         DG    S(hbond)    S(metal)    S(lipo)     H(rot)  DE(clash)    DE(int)     intcor
     15.23     -18.10       1.45        0.00     116.70       2.29       0.23       2.64       ----

> <Gold.Chemscore.Fitness>
15.2349

> <Gold.Chemscore.DG>
-18.1010

> <Gold.Chemscore.ZeroCoef>
-5.4800

> <Gold.Chemscore.Hbond>
1.4462

> <Gold.Chemscore.Metal>
0.0000

> <Gold.Chemscore.Lipo>
116.7047

> <Gold.Chemscore.Internal_Hbond>
0.0000

> <Gold.Chemscore.DEClash>
0.2282

> <Gold.Chemscore.DEInternal>
2.6379

> <Gold.Chemscore.Rot>
2.2905

> <Gold.Chemscore.Internal.Correction>
   9.000000E+99

> <Gold.Chemscore.Hbonds>
donor molecule, donor type, donor heavy atom, donor atom, acceptor molecule, acceptor atom, score
      L1  H    11    36       P1  7957  0.99
      P1  H  7989  7998       L1    11  0.23

> <Gold.Chemscore.Hbond.Weighted>
-4.8302

> <Gold.Chemscore.Metal.Weighted>
-0.0000

> <Gold.Chemscore.Lipo.Weighted>
-13.6544

> <Gold.Chemscore.Internal_Hbond.Weighted>
0.0000

> <Gold.Chemscore.DEClash.Weighted>
0.2282

> <Gold.Chemscore.DEInternal.Weighted>
2.6379

> <Gold.Chemscore.Rot.Weighted>
5.8636

> <Gold.Chemscore.Internal.Correction.Weighted>
   9.000000E+99

> <Gold.Protein.RotatedTorsions>
[ 6907 6896 6895 6894 ] final -127.02 input  -60.11 | X-H torsion
[ 7974 7965 7964 7962 ] final   17.84 input  175.53 | X-H torsion
[ 8008 7997 7996 7995 ] final   33.41 input   59.86 | X-H torsion
[ 10167 10162 10161 10158 ] final   51.87 input  -65.29 | X-H torsion
[ 10718 10713 10712 10709 ] final  169.02 input   66.30 | X-H torsion
[ 10763 10752 10751 10750 ] final -173.83 input  -60.55 | X-H torsion
[ 11005 11000 10999 10996 ] final  -69.84 input  -57.11 | X-H torsion

> <Gold.Protein.ActiveResidues>
 VAL166  LYS551  ARG553  GLY616  TRP617  ASP618  TYR619  PRO620  LYS621  CYS622 
 ASP623  PHE694  ASN695  SER759  ASP760  ASP761  ALA762  ILE779  LEU786  VAL792 
 PHE793  MET794  SER795  GLU796  ALA797  LYS798  CYS799  TRP800  GLU811  SER814 

> <Gold.Protein.RotatedAtoms>
  150.9029  133.7095  159.2874 H   0  0  0  0  0  0  0  0  0  0  0  0  # atno 6907 bound_to 6896
  151.4607  135.1037  159.9734 H   0  0  0  0  0  0  0  0  0  0  0  0  # atno 6908 bound_to 6896
  152.4887  133.8393  159.7199 H   0  0  0  0  0  0  0  0  0  0  0  0  # atno 6909 bound_to 6896
  146.2205  139.8544  142.8616 H   0  0  0  0  0  0  0  0  0  0  0  0  # atno 7974 bound_to 7965
  155.1381  140.3263  155.4458 H   0  0  0  0  0  0  0  0  0  0  0  0  # atno 8008 bound_to 7997
  156.2613  140.1998  156.6447 H   0  0  0  0  0  0  0  0  0  0  0  0  # atno 8009 bound_to 7997
  154.6562  140.0552  156.9998 H   0  0  0  0  0  0  0  0  0  0  0  0  # atno 8010 bound_to 7997
  140.2573  144.3412  150.6329 H   0  0  0  0  0  0  0  0  0  0  0  0  # atno 10167 bound_to 10162
  157.0287  131.0253  151.2751 H   0  0  0  0  0  0  0  0  0  0  0  0  # atno 10718 bound_to 10713
  154.6033  135.2857  155.0512 H   0  0  0  0  0  0  0  0  0  0  0  0  # atno 10763 bound_to 10752
  154.1768  135.6463  153.5027 H   0  0  0  0  0  0  0  0  0  0  0  0  # atno 10764 bound_to 10752
  153.0165  135.5414  154.6760 H   0  0  0  0  0  0  0  0  0  0  0  0  # atno 10765 bound_to 10752
  141.1562  133.6774  156.6661 H   0  0  0  0  0  0  0  0  0  0  0  0  # atno 11005 bound_to 11000
  145.2768  141.0126  143.3740 LP  0  0  0  0  0  0  0  0  0  0  0  0  # atno 17320 bound_to 7965
  144.9180  139.4446  143.6555 LP  0  0  0  0  0  0  0  0  0  0  0  0  # atno 17321 bound_to 7965
  140.5993  143.2167  151.7102 LP  0  0  0  0  0  0  0  0  0  0  0  0  # atno 17342 bound_to 10162
  139.5027  144.3817  152.0369 LP  0  0  0  0  0  0  0  0  0  0  0  0  # atno 17343 bound_to 10162
  157.5194  130.7988  149.7792 LP  0  0  0  0  0  0  0  0  0  0  0  0  # atno 17370 bound_to 10713
  156.0077  130.3848  150.2373 LP  0  0  0  0  0  0  0  0  0  0  0  0  # atno 17371 bound_to 10713
  140.3210  134.8007  157.4252 LP  0  0  0  0  0  0  0  0  0  0  0  0  # atno 17394 bound_to 11000
  140.1097  134.5363  155.8278 LP  0  0  0  0  0  0  0  0  0  0  0  0  # atno 17395 bound_to 11000

$$$$
