AV-unprocessed.smi:2525|AV-procd|sdf|9933|dock6
  -GOLD-   2272013573D 1   1.00000     0.00000
 Structure written by MMmdl.
 44 45  0  0  0  0  0  0  0  0  1 V2000
  146.8532  139.3736  151.9543 C   0  0  0  0  0  0  0  0  0  0  0  0
  147.5232  138.8177  153.2224 C   0  0  0  0  0  0  0  0  0  0  0  0
  147.6357  139.8148  154.4016 C   0  0  0  0  0  0  0  0  0  0  0  0
  148.2535  139.0738  155.6166 C   0  0  0  0  0  0  0  0  0  0  0  0
  147.4871  137.8219  156.0741 C   0  0  0  0  0  0  0  0  0  0  0  0
  148.2450  141.1897  153.9973 C   0  0  2  0  0  0  0  0  0  0  0  0
  148.9257  141.8836  155.0889 N   0  0  0  0  0  0  0  0  0  0  0  0
  150.0990  141.5194  155.6266 C   0  0  0  0  0  0  0  0  0  0  0  0
  150.7290  140.5251  155.2678 O   0  0  0  0  0  0  0  0  0  0  0  0
  150.6397  142.4045  156.7524 C   0  0  0  0  0  0  0  0  0  0  0  0
  151.2608  141.6157  157.8040 N   0  0  0  0  0  0  0  0  0  0  0  0
  151.9150  142.0556  158.9367 C   0  0  0  0  0  0  0  0  0  0  0  0
  152.2712  140.8982  159.5676 C   0  0  0  0  0  0  0  0  0  0  0  0
  151.8265  139.8188  158.8060 N   0  0  0  0  0  0  0  0  0  0  0  0
  151.2238  140.2619  157.7477 N   0  0  0  0  0  0  0  0  0  0  0  0
  146.8248  141.7384  153.7796 C   0  0  2  0  0  0  0  0  0  0  0  0
  146.4864  143.1977  154.0827 C   0  0  0  0  0  0  0  0  0  0  0  0
  146.3220  140.5957  154.6812 C   0  0  2  0  0  0  0  0  0  0  0  0
  146.2142  140.9860  156.0460 O   0  0  0  0  0  0  0  0  0  0  0  0
  145.0279  141.7087  156.3277 C   0  0  0  0  0  0  0  0  0  0  0  0
  146.6963  138.5780  151.2260 H   0  0  0  0  0  0  0  0  0  0  0  0
  147.4667  140.1322  151.4694 H   0  0  0  0  0  0  0  0  0  0  0  0
  145.8806  139.8146  152.1716 H   0  0  0  0  0  0  0  0  0  0  0  0
  146.9456  137.9466  153.5320 H   0  0  0  0  0  0  0  0  0  0  0  0
  148.4998  138.4098  152.9636 H   0  0  0  0  0  0  0  0  0  0  0  0
  149.2941  138.8142  155.4257 H   0  0  0  0  0  0  0  0  0  0  0  0
  148.2991  139.7366  156.4803 H   0  0  0  0  0  0  0  0  0  0  0  0
  147.9033  137.4401  157.0065 H   0  0  0  0  0  0  0  0  0  0  0  0
  147.5490  137.0159  155.3436 H   0  0  0  0  0  0  0  0  0  0  0  0
  146.4339  138.0416  156.2502 H   0  0  0  0  0  0  0  0  0  0  0  0
  148.8172  141.1682  153.0688 H   0  0  0  0  0  0  0  0  0  0  0  0
  148.4714  142.7085  155.4542 H   0  0  0  0  0  0  0  0  0  0  0  0
  151.3660  143.1102  156.3456 H   0  0  0  0  0  0  0  0  0  0  0  0
  149.8298  142.9910  157.1889 H   0  0  0  0  0  0  0  0  0  0  0  0
  152.0565  143.0979  159.1822 H   0  0  0  0  0  0  0  0  0  0  0  0
  152.8029  140.7537  160.4967 H   0  0  0  0  0  0  0  0  0  0  0  0
  146.5333  141.5136  152.7524 H   0  0  0  0  0  0  0  0  0  0  0  0
  146.6748  143.4558  155.1253 H   0  0  0  0  0  0  0  0  0  0  0  0
  145.4370  143.4078  153.8779 H   0  0  0  0  0  0  0  0  0  0  0  0
  147.0811  143.8734  153.4681 H   0  0  0  0  0  0  0  0  0  0  0  0
  145.4348  140.0821  154.3056 H   0  0  0  0  0  0  0  0  0  0  0  0
  145.0227  142.0068  157.3760 H   0  0  0  0  0  0  0  0  0  0  0  0
  144.1449  141.0934  156.1496 H   0  0  0  0  0  0  0  0  0  0  0  0
  144.9513  142.6106  155.7205 H   0  0  0  0  0  0  0  0  0  0  0  0
  1  2  1  0  0  0  0
  1 21  1  0  0  0  0
  1 22  1  0  0  0  0
  1 23  1  0  0  0  0
  2  3  1  0  0  0  0
  2 24  1  0  0  0  0
  2 25  1  0  0  0  0
  3 18  1  0  0  0  0
  3  4  1  0  0  0  0
  3  6  1  0  0  0  0
  4  5  1  0  0  0  0
  4 26  1  0  0  0  0
  4 27  1  0  0  0  0
  5 28  1  0  0  0  0
  5 29  1  0  0  0  0
  5 30  1  0  0  0  0
  6  7  1  0  0  0  0
  6 16  1  0  0  0  0
  6 31  1  0  0  0  0
  7  8  1  0  0  0  0
  7 32  1  0  0  0  0
  8  9  2  0  0  0  0
  8 10  1  0  0  0  0
 10 11  1  0  0  0  0
 10 33  1  0  0  0  0
 10 34  1  0  0  0  0
 11 15  1  0  0  0  0
 11 12  1  0  0  0  0
 12 13  2  0  0  0  0
 12 35  1  0  0  0  0
 13 14  1  0  0  0  0
 13 36  1  0  0  0  0
 14 15  2  0  0  0  0
 16 17  1  0  0  0  0
 16 18  1  0  0  0  0
 16 37  1  0  0  0  0
 17 38  1  0  0  0  0
 17 39  1  0  0  0  0
 17 40  1  0  0  0  0
 18 19  1  0  0  0  0
 18 41  1  0  0  0  0
 19 20  1  0  0  0  0
 20 42  1  0  0  0  0
 20 43  1  0  0  0  0
 20 44  1  0  0  0  0
M  END
> <s_m_source_file>
AV-unprocessed.smi

> <i_m_source_file_index>
2525

> <i_lp_mmshare_version>
43012

> <i_f3d_flags>
0

> <s_epik_input>
W0NIM11PW0NAQEhdMVtDQEhdKFtDSDNdKVtDQEBIXShDMShbQ0gyXVtDSDNdKVtDSDJdW0NIM10pW05IXUMoPU8pW0NIMl1uMltjSF1bY0hdbm4y

> <s_epik_cmdline>
J2VwaWtfcHl0aG9uJywgJy1waCcsICc3LjAnLCAnLXRuJywgJzgnLCAnLW1hJywgJzIwMCcsICctbWV0YWxfYmluZGluZycsICctaW1hZScsICc8aW5maWxlLm1hZT4nLCAnLW9tYWUnLCAnPG91dGZpbGUubWFlPic=

> <r_lp_tautomer_probability>
1

> <r_epik_Ionization_Penalty>
1.18045e-06

> <r_epik_Ionization_Penalty_Charging>
0

> <r_epik_Ionization_Penalty_Neutral>
1.18045e-06

> <r_epik_State_Penalty>
-0

> <r_epik_Charging_Adjusted_Penalty>
0

> <i_epik_Tot_Q>
0

> <i_epik_Tot_abs_Q>
0

> <r_epik_Metal_State_Penalty>
-0

> <b_epik_Metal_Only>
0

> <s_lp_Force_Field>
OPLS_2005

> <r_lp_Energy>
29.0326

> <b_lp_Chiralities_Consistent>
1

> <s_lp_Variant>
AV-unprocessed.smi:2525-8

> <Gold.Version>
5.8.1

> <Gold.Id.Protein>
6NUR|6NUR_protein|mol2

> <Gold.PLP.Fitness>
34.6101

> <Gold.PLP.PLP>
-30.3185

> <Gold.PLP.part.hbond>
-2.0000

> <Gold.PLP.part.metal>
0.0000

> <Gold.PLP.part.buried>
-1.2017

> <Gold.PLP.part.nonpolar>
-26.9388

> <Gold.PLP.part.repulsive>
0.2844

> <Gold.PLP.ligand.clash>
0.4187

> <Gold.PLP.ligand.torsion>
0.6447

> <Gold.PLP.Chemscore.Hbond>
1.7876

> <Gold.PLP.Chemscore.CHOScore>
0.0000

> <Gold.PLP.Chemscore.Metal>
0.0000

> <Gold.Chemscore.Hbonds>
donor molecule, donor type, donor heavy atom, donor atom, acceptor molecule, acceptor atom, score
      L1  H     7    32       P1  8028  0.72
      P1  H  7989  7998       L1     9  0.98

> <Gold.PLP.Chemscore.Internal.Correction>
0.6369

> <Gold.Rescore>
     Score         DG    S(hbond)    S(metal)    S(lipo)     H(rot)  DE(clash)    DE(int)     intcor
      9.59     -13.33       1.33        0.00      72.55       1.98       0.27       3.47       ----

> <Gold.Chemscore.Fitness>
9.5875

> <Gold.Chemscore.DG>
-13.3297

> <Gold.Chemscore.ZeroCoef>
-5.4800

> <Gold.Chemscore.Hbond>
1.3276

> <Gold.Chemscore.Metal>
0.0000

> <Gold.Chemscore.Lipo>
72.5532

> <Gold.Chemscore.Internal_Hbond>
0.0000

> <Gold.Chemscore.DEClash>
0.2737

> <Gold.Chemscore.DEInternal>
3.4685

> <Gold.Chemscore.Rot>
1.9817

> <Gold.Chemscore.Internal.Correction>
   9.000000E+99

> <Gold.Chemscore.Hbonds>
donor molecule, donor type, donor heavy atom, donor atom, acceptor molecule, acceptor atom, score
      L1  H     7    32       P1  8028  0.68
      P1  H  7989  7998       L1     9  0.66

> <Gold.Chemscore.Hbond.Weighted>
-4.4341

> <Gold.Chemscore.Metal.Weighted>
-0.0000

> <Gold.Chemscore.Lipo.Weighted>
-8.4887

> <Gold.Chemscore.Internal_Hbond.Weighted>
0.0000

> <Gold.Chemscore.DEClash.Weighted>
0.2737

> <Gold.Chemscore.DEInternal.Weighted>
3.4685

> <Gold.Chemscore.Rot.Weighted>
5.0731

> <Gold.Chemscore.Internal.Correction.Weighted>
   9.000000E+99

> <Gold.Protein.RotatedTorsions>
[ 6907 6896 6895 6894 ] final -163.84 input  -60.11 | X-H torsion
[ 7974 7965 7964 7962 ] final  103.27 input  175.53 | X-H torsion
[ 8008 7997 7996 7995 ] final -131.52 input   59.86 | X-H torsion
[ 10167 10162 10161 10158 ] final  117.50 input  -65.29 | X-H torsion
[ 10718 10713 10712 10709 ] final   19.60 input   66.30 | X-H torsion
[ 10763 10752 10751 10750 ] final -138.29 input  -60.55 | X-H torsion
[ 11005 11000 10999 10996 ] final  -55.40 input  -57.11 | X-H torsion

> <Gold.Protein.ActiveResidues>
 VAL166  LYS551  ARG553  GLY616  TRP617  ASP618  TYR619  PRO620  LYS621  CYS622 
 ASP623  PHE694  ASN695  SER759  ASP760  ASP761  ALA762  ILE779  LEU786  VAL792 
 PHE793  MET794  SER795  GLU796  ALA797  LYS798  CYS799  TRP800  GLU811  SER814 

> <Gold.Protein.RotatedAtoms>
  151.4023  133.3753  159.2733 H   0  0  0  0  0  0  0  0  0  0  0  0  # atno 6907 bound_to 6896
  150.9424  134.8833  159.7631 H   0  0  0  0  0  0  0  0  0  0  0  0  # atno 6908 bound_to 6896
  152.5077  134.3975  159.9457 H   0  0  0  0  0  0  0  0  0  0  0  0  # atno 6909 bound_to 6896
  145.3482  139.2445  143.3572 H   0  0  0  0  0  0  0  0  0  0  0  0  # atno 7974 bound_to 7965
  155.3137  140.0458  157.3036 H   0  0  0  0  0  0  0  0  0  0  0  0  # atno 8008 bound_to 7997
  154.5419  140.2290  155.8594 H   0  0  0  0  0  0  0  0  0  0  0  0  # atno 8009 bound_to 7997
  156.1888  140.3056  155.9298 H   0  0  0  0  0  0  0  0  0  0  0  0  # atno 8010 bound_to 7997
  139.6174  144.7094  151.2708 H   0  0  0  0  0  0  0  0  0  0  0  0  # atno 10167 bound_to 10162
  157.1127  130.6516  149.5902 H   0  0  0  0  0  0  0  0  0  0  0  0  # atno 10718 bound_to 10713
  154.8640  135.3616  154.5361 H   0  0  0  0  0  0  0  0  0  0  0  0  # atno 10763 bound_to 10752
  153.5985  135.7013  153.5399 H   0  0  0  0  0  0  0  0  0  0  0  0  # atno 10764 bound_to 10752
  153.3312  135.4124  155.1458 H   0  0  0  0  0  0  0  0  0  0  0  0  # atno 10765 bound_to 10752
  141.1072  133.6612  156.4463 H   0  0  0  0  0  0  0  0  0  0  0  0  # atno 11005 bound_to 11000
  146.2979  140.4093  142.8715 LP  0  0  0  0  0  0  0  0  0  0  0  0  # atno 17320 bound_to 7965
  144.8738  140.7308  143.6030 LP  0  0  0  0  0  0  0  0  0  0  0  0  # atno 17321 bound_to 7965
  140.7360  143.6720  150.8073 LP  0  0  0  0  0  0  0  0  0  0  0  0  # atno 17342 bound_to 10162
  140.0325  143.5429  152.2754 LP  0  0  0  0  0  0  0  0  0  0  0  0  # atno 17343 bound_to 10162
  155.9846  130.4872  150.6993 LP  0  0  0  0  0  0  0  0  0  0  0  0  # atno 17370 bound_to 10713
  157.4545  131.0876  151.0811 LP  0  0  0  0  0  0  0  0  0  0  0  0  # atno 17371 bound_to 10713
  140.4872  134.6610  157.5195 LP  0  0  0  0  0  0  0  0  0  0  0  0  # atno 17394 bound_to 11000
  139.9947  134.6929  155.9629 LP  0  0  0  0  0  0  0  0  0  0  0  0  # atno 17395 bound_to 11000

$$$$
