AV-unprocessed.smi:2648|AV-procd|sdf|10286|dock3
  -GOLD-   2272014303D 1   1.00000     0.00000
 Structure written by MMmdl.
 33 34  0  0  0  0  0  0  0  0  2 V2000
  154.1252  140.1063  159.7875 O   0  0  0  0  0  0  0  0  0  0  0  0
  154.2391  141.0802  160.5314 C   0  0  0  0  0  0  0  0  0  0  0  0
  155.0537  141.1049  161.5962 N   0  0  0  0  0  0  0  0  0  0  0  0
  155.9083  140.0001  162.0146 C   0  0  0  0  0  0  0  0  0  0  0  0
  155.7848  139.7347  163.5261 C   0  0  0  0  0  0  0  0  0  0  0  0
  155.6510  138.3029  163.8046 N   0  0  0  0  0  0  0  0  0  0  0  0
  155.0080  137.4385  163.0087 C   0  0  0  0  0  0  0  0  0  0  0  0
  154.4289  137.6820  161.9507 O   0  0  0  0  0  0  0  0  0  0  0  0
  155.1083  136.0584  163.6211 C   0  0  0  0  0  0  0  0  0  0  0  0
  155.8866  136.3799  164.7981 N   0  0  0  0  0  0  0  0  0  0  0  0
  156.1863  137.6832  164.8720 C   0  0  0  0  0  0  0  0  0  0  0  0
  156.8453  138.2095  165.7675 O   0  0  0  0  0  0  0  0  0  0  0  0
  153.5615  142.2348  160.4058 N   0  0  0  0  0  0  0  0  0  0  0  0
  152.6306  142.6076  159.3978 C   0  0  0  0  0  0  0  0  0  0  0  0
  152.5122  143.9814  159.0905 C   0  0  0  0  0  0  0  0  0  0  0  0
  151.6150  144.3948  158.0846 C   0  0  0  0  0  0  0  0  0  0  0  0
  150.8841  143.4768  157.4166 N   0  3  0  0  0  0  0  0  0  0  0  0
  150.9721  142.1526  157.6650 C   0  0  0  0  0  0  0  0  0  0  0  0
  151.8520  141.6795  158.6598 C   0  0  0  0  0  0  0  0  0  0  0  0
  155.0848  141.9425  162.1592 H   0  0  0  0  0  0  0  0  0  0  0  0
  155.6605  139.1023  161.4453 H   0  0  0  0  0  0  0  0  0  0  0  0
  156.9391  140.2504  161.7619 H   0  0  0  0  0  0  0  0  0  0  0  0
  156.6545  140.1372  164.0485 H   0  0  0  0  0  0  0  0  0  0  0  0
  154.9243  140.2683  163.9339 H   0  0  0  0  0  0  0  0  0  0  0  0
  154.1270  135.6612  163.8829 H   0  0  0  0  0  0  0  0  0  0  0  0
  155.6358  135.3642  162.9662 H   0  0  0  0  0  0  0  0  0  0  0  0
  156.1716  135.6876  165.4758 H   0  0  0  0  0  0  0  0  0  0  0  0
  153.6909  142.9069  161.1478 H   0  0  0  0  0  0  0  0  0  0  0  0
  153.0983  144.7165  159.6231 H   0  0  0  0  0  0  0  0  0  0  0  0
  151.4629  145.4243  157.7951 H   0  0  0  0  0  0  0  0  0  0  0  0
  150.3447  141.5138  157.0604 H   0  0  0  0  0  0  0  0  0  0  0  0
  151.9208  140.6156  158.8271 H   0  0  0  0  0  0  0  0  0  0  0  0
  150.2422  143.7963  156.6906 H   0  0  0  0  0  0  0  0  0  0  0  0
  1  2  2  0  0  0  0
  2  3  1  0  0  0  0
  2 13  1  0  0  0  0
  3  4  1  0  0  0  0
  3 20  1  0  0  0  0
  4  5  1  0  0  0  0
  4 21  1  0  0  0  0
  4 22  1  0  0  0  0
  5  6  1  0  0  0  0
  5 23  1  0  0  0  0
  5 24  1  0  0  0  0
  6 11  1  0  0  0  0
  6  7  1  0  0  0  0
  7  8  2  0  0  0  0
  7  9  1  0  0  0  0
  9 10  1  0  0  0  0
  9 25  1  0  0  0  0
  9 26  1  0  0  0  0
 10 11  1  0  0  0  0
 10 27  1  0  0  0  0
 11 12  2  0  0  0  0
 13 14  1  0  0  0  0
 13 28  1  0  0  0  0
 14 19  1  0  0  0  0
 14 15  2  0  0  0  0
 15 16  1  0  0  0  0
 15 29  1  0  0  0  0
 16 17  2  0  0  0  0
 16 30  1  0  0  0  0
 17 18  1  0  0  0  0
 17 33  1  0  0  0  0
 18 19  2  0  0  0  0
 18 31  1  0  0  0  0
 19 32  1  0  0  0  0
M  CHG  1  17   1
M  END
> <s_m_source_file>
AV-unprocessed.smi

> <i_m_source_file_index>
2648

> <i_lp_mmshare_version>
43012

> <i_f3d_flags>
0

> <s_epik_input>
W2NIXTFbY0hdbltjSF1bY0hdYzFbTkhdQyg9TylbTkhdW0NIMl1bQ0gyXU4yQyg9TylbQ0gyXVtOSF1DMj1P

> <s_epik_cmdline>
J2VwaWtfcHl0aG9uJywgJy1waCcsICc3LjAnLCAnLXRuJywgJzgnLCAnLW1hJywgJzIwMCcsICctbWV0YWxfYmluZGluZycsICctaW1hZScsICc8aW5maWxlLm1hZT4nLCAnLW9tYWUnLCAnPG91dGZpbGUubWFlPic=

> <r_lp_tautomer_probability>
1

> <r_epik_Ionization_Penalty>
1.05701

> <r_epik_Ionization_Penalty_Charging>
1.05694

> <r_epik_Ionization_Penalty_Neutral>
7.31213e-05

> <r_epik_State_Penalty>
1.11031

> <r_epik_Charging_Adjusted_Penalty>
2.16725

> <i_epik_Tot_Q>
1

> <i_epik_Tot_abs_Q>
1

> <r_epik_Metal_State_Penalty>
1.22924

> <b_epik_Metal_Only>
0

> <s_lp_Force_Field>
OPLS_2005

> <r_lp_Energy>
27.1091

> <b_lp_Chiralities_Consistent>
1

> <s_lp_Variant>
AV-unprocessed.smi:2648-2

> <Gold.Version>
5.8.1

> <Gold.Id.Protein>
6NUR|6NUR_protein|mol2

> <Gold.PLP.Fitness>
44.7803

> <Gold.PLP.PLP>
-40.5751

> <Gold.PLP.part.hbond>
-3.0141

> <Gold.PLP.part.metal>
0.0000

> <Gold.PLP.part.buried>
-6.7997

> <Gold.PLP.part.nonpolar>
-30.6424

> <Gold.PLP.part.repulsive>
0.2258

> <Gold.PLP.ligand.clash>
0.0000

> <Gold.PLP.ligand.torsion>
0.9028

> <Gold.PLP.Chemscore.Hbond>
2.0000

> <Gold.PLP.Chemscore.CHOScore>
0.0000

> <Gold.PLP.Chemscore.Metal>
0.0000

> <Gold.Chemscore.Hbonds>
donor molecule, donor type, donor heavy atom, donor atom, acceptor molecule, acceptor atom, score
      L1  H    17    33       P1  8028  2.00

> <Gold.PLP.Chemscore.Internal.Correction>
0.0109

> <Gold.Rescore>
     Score         DG    S(hbond)    S(metal)    S(lipo)     H(rot)  DE(clash)    DE(int)     intcor
      9.11     -12.62       0.98        0.00      76.14       1.96       0.22       3.29       ----

> <Gold.Chemscore.Fitness>
9.1119

> <Gold.Chemscore.DG>
-12.6172

> <Gold.Chemscore.ZeroCoef>
-5.4800

> <Gold.Chemscore.Hbond>
0.9755

> <Gold.Chemscore.Metal>
0.0000

> <Gold.Chemscore.Lipo>
76.1447

> <Gold.Chemscore.Internal_Hbond>
0.0000

> <Gold.Chemscore.DEClash>
0.2199

> <Gold.Chemscore.DEInternal>
3.2853

> <Gold.Chemscore.Rot>
1.9648

> <Gold.Chemscore.Internal.Correction>
   9.000000E+99

> <Gold.Chemscore.Hbonds>
donor molecule, donor type, donor heavy atom, donor atom, acceptor molecule, acceptor atom, score
      L1  H    17    33       P1  8028  0.99

> <Gold.Chemscore.Hbond.Weighted>
-3.2581

> <Gold.Chemscore.Metal.Weighted>
-0.0000

> <Gold.Chemscore.Lipo.Weighted>
-8.9089

> <Gold.Chemscore.Internal_Hbond.Weighted>
0.0000

> <Gold.Chemscore.DEClash.Weighted>
0.2199

> <Gold.Chemscore.DEInternal.Weighted>
3.2853

> <Gold.Chemscore.Rot.Weighted>
5.0299

> <Gold.Chemscore.Internal.Correction.Weighted>
   9.000000E+99

> <Gold.Protein.RotatedTorsions>
[ 6907 6896 6895 6894 ] final  -78.17 input  -60.11 | X-H torsion
[ 7974 7965 7964 7962 ] final  177.29 input  175.53 | X-H torsion
[ 8008 7997 7996 7995 ] final  -69.97 input   59.86 | X-H torsion
[ 10167 10162 10161 10158 ] final  167.39 input  -65.29 | X-H torsion
[ 10718 10713 10712 10709 ] final   56.71 input   66.30 | X-H torsion
[ 10763 10752 10751 10750 ] final -139.65 input  -60.55 | X-H torsion
[ 11005 11000 10999 10996 ] final   -4.31 input  -57.11 | X-H torsion

> <Gold.Protein.ActiveResidues>
 VAL166  LYS551  ARG553  GLY616  TRP617  ASP618  TYR619  PRO620  LYS621  CYS622 
 ASP623  PHE694  ASN695  SER759  ASP760  ASP761  ALA762  ILE779  LEU786  VAL792 
 PHE793  MET794  SER795  GLU796  ALA797  LYS798  CYS799  TRP800  GLU811  SER814 

> <Gold.Protein.RotatedAtoms>
  150.6979  134.4312  159.5249 H   0  0  0  0  0  0  0  0  0  0  0  0  # atno 6907 bound_to 6896
  152.2038  134.8561  160.0514 H   0  0  0  0  0  0  0  0  0  0  0  0  # atno 6908 bound_to 6896
  151.9471  133.3620  159.4023 H   0  0  0  0  0  0  0  0  0  0  0  0  # atno 6909 bound_to 6896
  144.7171  140.0225  143.6440 H   0  0  0  0  0  0  0  0  0  0  0  0  # atno 7974 bound_to 7965
  154.4978  140.0843  156.7733 H   0  0  0  0  0  0  0  0  0  0  0  0  # atno 8008 bound_to 7997
  155.4076  140.3440  155.4243 H   0  0  0  0  0  0  0  0  0  0  0  0  # atno 8009 bound_to 7997
  156.1416  140.1531  156.8899 H   0  0  0  0  0  0  0  0  0  0  0  0  # atno 8010 bound_to 7997
  139.4944  144.3926  151.9500 H   0  0  0  0  0  0  0  0  0  0  0  0  # atno 10167 bound_to 10162
  157.5453  130.8727  149.8882 H   0  0  0  0  0  0  0  0  0  0  0  0  # atno 10718 bound_to 10713
  154.8603  135.3576  154.5580 H   0  0  0  0  0  0  0  0  0  0  0  0  # atno 10763 bound_to 10752
  153.6196  135.7006  153.5320 H   0  0  0  0  0  0  0  0  0  0  0  0  # atno 10764 bound_to 10752
  153.3140  135.4170  155.1320 H   0  0  0  0  0  0  0  0  0  0  0  0  # atno 10765 bound_to 10752
  140.6789  133.9171  155.8542 H   0  0  0  0  0  0  0  0  0  0  0  0  # atno 11005 bound_to 11000
  146.0169  139.3217  143.0836 LP  0  0  0  0  0  0  0  0  0  0  0  0  # atno 17320 bound_to 7965
  145.8615  140.9472  143.0698 LP  0  0  0  0  0  0  0  0  0  0  0  0  # atno 17321 bound_to 7965
  140.3364  144.3256  150.5976 LP  0  0  0  0  0  0  0  0  0  0  0  0  # atno 17342 bound_to 10162
  140.5602  143.2193  151.7777 LP  0  0  0  0  0  0  0  0  0  0  0  0  # atno 17343 bound_to 10162
  156.0531  130.3714  150.1155 LP  0  0  0  0  0  0  0  0  0  0  0  0  # atno 17370 bound_to 10713
  156.9332  130.9720  151.3529 LP  0  0  0  0  0  0  0  0  0  0  0  0  # atno 17371 bound_to 10713
  141.0334  134.0724  157.3988 LP  0  0  0  0  0  0  0  0  0  0  0  0  # atno 17394 bound_to 11000
  139.8958  135.0143  156.7020 LP  0  0  0  0  0  0  0  0  0  0  0  0  # atno 17395 bound_to 11000

$$$$
