AV-unprocessed.smi:244|AV-procd|sdf|1869|dock2
  -GOLD-   2262020503D 1   1.00000     0.00000
 Structure written by MMmdl.
 57 61  0  0  0  0  0  0  0  0  2 V2000
  143.5769  134.2913  152.1526 C   0  0  0  0  0  0  0  0  0  0  0  0
  144.1951  133.9638  150.8470 N   0  3  2  0  0  0  0  0  0  0  0  0
  143.6650  132.7239  150.2269 C   0  0  0  0  0  0  0  0  0  0  0  0
  144.2506  131.4618  150.8797 C   0  0  0  0  0  0  0  0  0  0  0  0
  145.7911  131.4842  150.8261 C   0  0  2  0  0  0  0  0  0  0  0  0
  146.3747  130.3190  151.4100 O   0  0  0  0  0  0  0  0  0  0  0  0
  146.2724  130.2523  152.8293 C   0  0  0  0  0  0  0  0  0  0  0  0
  146.9211  131.4930  153.4556 C   0  0  0  0  0  0  0  0  0  0  0  0
  146.3307  132.7113  152.9142 N   0  0  0  0  0  0  0  0  0  0  0  0
  146.7709  133.7903  153.6037 C   0  0  0  0  0  0  0  0  0  0  0  0
  145.9279  134.8184  153.8870 N   0  0  0  0  0  0  0  0  0  0  0  0
  146.3749  135.8822  154.5618 C   0  0  0  0  0  0  0  0  0  0  0  0
  147.6006  136.1147  155.0368 N   0  0  0  0  0  0  0  0  0  0  0  0
  148.4488  135.0869  154.7455 C   0  0  0  0  0  0  0  0  0  0  0  0
  148.1197  133.9019  154.0314 C   0  0  0  0  0  0  0  0  0  0  0  0
  149.2368  133.0847  153.9183 N   0  0  0  0  0  0  0  0  0  0  0  0
  150.1762  133.7494  154.5346 C   0  0  0  0  0  0  0  0  0  0  0  0
  149.7862  134.9550  155.0743 N   0  0  0  0  0  0  0  0  0  0  0  0
  150.6186  135.8848  155.8214 C   0  0  0  0  0  0  0  0  0  0  0  0
  150.9391  137.1937  155.0569 C   0  0  0  0  0  0  0  0  0  0  0  0
  151.6536  136.8482  153.8827 O   0  0  0  0  0  0  0  0  0  0  0  0
  149.6678  137.9650  154.6386 C   0  0  0  0  0  0  0  0  0  0  0  0
  149.9951  139.3590  154.0739 C   0  0  0  0  0  0  0  0  0  0  0  0
  150.7682  140.0980  155.0113 O   0  0  0  0  0  0  0  0  0  0  0  0
  152.0301  139.4970  155.2752 C   0  0  0  0  0  0  0  0  0  0  0  0
  151.8284  138.1131  155.9180 C   0  0  0  0  0  0  0  0  0  0  0  0
  146.3765  132.7751  151.4477 C   0  0  2  0  0  0  0  0  0  0  0  0
  145.6816  134.0264  150.8365 C   0  0  0  0  0  0  0  0  0  0  0  0
  143.7455  133.5105  152.8928 H   0  0  0  0  0  0  0  0  0  0  0  0
  142.4996  134.4153  152.0401 H   0  0  0  0  0  0  0  0  0  0  0  0
  143.9772  135.2261  152.5465 H   0  0  0  0  0  0  0  0  0  0  0  0
  142.5759  132.7139  150.2840 H   0  0  0  0  0  0  0  0  0  0  0  0
  143.9158  132.7348  149.1654 H   0  0  0  0  0  0  0  0  0  0  0  0
  143.8918  131.3922  151.9054 H   0  0  0  0  0  0  0  0  0  0  0  0
  143.8778  130.5753  150.3658 H   0  0  0  0  0  0  0  0  0  0  0  0
  146.0761  131.4639  149.7734 H   0  0  0  0  0  0  0  0  0  0  0  0
  145.2342  130.1520  153.1447 H   0  0  0  0  0  0  0  0  0  0  0  0
  146.7850  129.3536  153.1726 H   0  0  0  0  0  0  0  0  0  0  0  0
  146.8001  131.4604  154.5396 H   0  0  0  0  0  0  0  0  0  0  0  0
  147.9934  131.4915  153.2529 H   0  0  0  0  0  0  0  0  0  0  0  0
  145.6463  136.6570  154.7496 H   0  0  0  0  0  0  0  0  0  0  0  0
  151.1842  133.3711  154.6243 H   0  0  0  0  0  0  0  0  0  0  0  0
  150.1054  136.1154  156.7561 H   0  0  0  0  0  0  0  0  0  0  0  0
  151.5399  135.3718  156.1014 H   0  0  0  0  0  0  0  0  0  0  0  0
  151.0317  136.6480  153.1997 H   0  0  0  0  0  0  0  0  0  0  0  0
  149.0945  137.4010  153.9020 H   0  0  0  0  0  0  0  0  0  0  0  0
  149.0191  138.0861  155.5073 H   0  0  0  0  0  0  0  0  0  0  0  0
  150.5280  139.2830  153.1249 H   0  0  0  0  0  0  0  0  0  0  0  0
  149.0730  139.9047  153.8733 H   0  0  0  0  0  0  0  0  0  0  0  0
  152.6121  139.4242  154.3553 H   0  0  0  0  0  0  0  0  0  0  0  0
  152.5900  140.1428  155.9519 H   0  0  0  0  0  0  0  0  0  0  0  0
  151.3614  138.2540  156.8937 H   0  0  0  0  0  0  0  0  0  0  0  0
  152.7948  137.6445  156.1082 H   0  0  0  0  0  0  0  0  0  0  0  0
  147.4319  132.8156  151.1727 H   0  0  0  0  0  0  0  0  0  0  0  0
  145.9836  134.0997  149.7911 H   0  0  0  0  0  0  0  0  0  0  0  0
  146.0188  134.9565  151.2935 H   0  0  0  0  0  0  0  0  0  0  0  0
  143.8985  134.7140  150.2389 H   0  0  0  0  0  0  0  0  0  0  0  0
  1  2  1  0  0  0  0
  1 29  1  0  0  0  0
  1 30  1  0  0  0  0
  1 31  1  0  0  0  0
  2 28  1  0  0  0  0
  2  3  1  0  0  0  0
  2 57  1  0  0  0  0
  3  4  1  0  0  0  0
  3 32  1  0  0  0  0
  3 33  1  0  0  0  0
  4  5  1  0  0  0  0
  4 34  1  0  0  0  0
  4 35  1  0  0  0  0
  5 27  1  0  0  0  0
  5  6  1  0  0  0  0
  5 36  1  0  0  0  0
  6  7  1  0  0  0  0
  7  8  1  0  0  0  0
  7 37  1  0  0  0  0
  7 38  1  0  0  0  0
  8  9  1  0  0  0  0
  8 39  1  0  0  0  0
  8 40  1  0  0  0  0
  9 10  1  0  0  0  0
  9 27  1  0  0  0  0
 10 15  1  0  0  0  0
 10 11  2  0  0  0  0
 11 12  1  0  0  0  0
 12 13  2  0  0  0  0
 12 41  1  0  0  0  0
 13 14  1  0  0  0  0
 14 18  1  0  0  0  0
 14 15  2  0  0  0  0
 15 16  1  0  0  0  0
 16 17  2  0  0  0  0
 17 18  1  0  0  0  0
 17 42  1  0  0  0  0
 18 19  1  0  0  0  0
 19 20  1  0  0  0  0
 19 43  1  0  0  0  0
 19 44  1  0  0  0  0
 20 26  1  0  0  0  0
 20 21  1  0  0  0  0
 20 22  1  0  0  0  0
 21 45  1  0  0  0  0
 22 23  1  0  0  0  0
 22 46  1  0  0  0  0
 22 47  1  0  0  0  0
 23 24  1  0  0  0  0
 23 48  1  0  0  0  0
 23 49  1  0  0  0  0
 24 25  1  0  0  0  0
 25 26  1  0  0  0  0
 25 50  1  0  0  0  0
 25 51  1  0  0  0  0
 26 52  1  0  0  0  0
 26 53  1  0  0  0  0
 27 28  1  0  0  0  0
 27 54  1  0  0  0  0
 28 55  1  0  0  0  0
 28 56  1  0  0  0  0
M  CHG  1   2   1
M  END
> <s_m_source_file>
AV-unprocessed.smi

> <i_m_source_file_index>
244

> <i_lp_mmshare_version>
43012

> <i_f3d_flags>
0

> <s_epik_input>
W0NIMl0xW0NIMl1OKFtDSDNdKVtDSDJdW0NAQEhdKFtDQEhdMTIpTihbQ0gyXVtDSDJdTzIpYyhuW2NIXW4zKWMoYzM0KW5bY0hdbjRbQ0gyXUM1KFtPSF0pW0NIMl1bQ0gyXU9bQ0gyXVtDSDJdNQ==

> <s_epik_cmdline>
J2VwaWtfcHl0aG9uJywgJy1waCcsICc3LjAnLCAnLXRuJywgJzgnLCAnLW1hJywgJzIwMCcsICctbWV0YWxfYmluZGluZycsICctaW1hZScsICc8aW5maWxlLm1hZT4nLCAnLW9tYWUnLCAnPG91dGZpbGUubWFlPic=

> <r_lp_tautomer_probability>
1

> <r_epik_Ionization_Penalty>
0.0136215

> <r_epik_Ionization_Penalty_Charging>
0.0131385

> <r_epik_Ionization_Penalty_Neutral>
0.000483022

> <r_epik_State_Penalty>
0.0104001

> <r_epik_Charging_Adjusted_Penalty>
0.0235387

> <i_epik_Tot_Q>
1

> <i_epik_Tot_abs_Q>
1

> <r_epik_Metal_State_Penalty>
0.0104469

> <b_epik_Metal_Only>
0

> <s_lp_Force_Field>
OPLS_2005

> <r_lp_Energy>
50.9375

> <b_lp_Chiralities_Consistent>
1

> <s_lp_Variant>
AV-unprocessed.smi:244-6

> <Gold.Version>
5.8.1

> <Gold.Id.Protein>
6NUR|6NUR_protein|mol2

> <Gold.PLP.Fitness>
46.2850

> <Gold.PLP.PLP>
-41.8695

> <Gold.PLP.part.hbond>
-3.0000

> <Gold.PLP.part.metal>
0.0000

> <Gold.PLP.part.buried>
-6.3359

> <Gold.PLP.part.nonpolar>
-33.6696

> <Gold.PLP.part.repulsive>
1.9457

> <Gold.PLP.ligand.clash>
0.0000

> <Gold.PLP.ligand.torsion>
0.7602

> <Gold.PLP.Chemscore.Hbond>
1.9300

> <Gold.PLP.Chemscore.CHOScore>
0.0000

> <Gold.PLP.Chemscore.Metal>
0.0000

> <Gold.Chemscore.Hbonds>
donor molecule, donor type, donor heavy atom, donor atom, acceptor molecule, acceptor atom, score
      L1  H    21    45       P1  7949  0.69
      P1  H  7989  7998       L1    24  0.08
      P1  H 10752 10763       L1    21  1.00

> <Gold.PLP.Chemscore.Internal.Correction>
0.1458

> <Gold.Rescore>
     Score         DG    S(hbond)    S(metal)    S(lipo)     H(rot)  DE(clash)    DE(int)     intcor
     15.82     -18.38       1.94        0.00     100.73       2.09       0.92       1.64       ----

> <Gold.Chemscore.Fitness>
15.8250

> <Gold.Chemscore.DG>
-18.3822

> <Gold.Chemscore.ZeroCoef>
-5.4800

> <Gold.Chemscore.Hbond>
1.9371

> <Gold.Chemscore.Metal>
0.0000

> <Gold.Chemscore.Lipo>
100.7311

> <Gold.Chemscore.Internal_Hbond>
0.0000

> <Gold.Chemscore.DEClash>
0.9156

> <Gold.Chemscore.DEInternal>
1.6416

> <Gold.Chemscore.Rot>
2.0911

> <Gold.Chemscore.Internal.Correction>
   9.000000E+99

> <Gold.Chemscore.Hbonds>
donor molecule, donor type, donor heavy atom, donor atom, acceptor molecule, acceptor atom, score
      L1  H    21    45       P1  7949  0.20
      P1  H 10752 10763       L1    21  0.87

> <Gold.Chemscore.Hbond.Weighted>
-6.4698

> <Gold.Chemscore.Metal.Weighted>
-0.0000

> <Gold.Chemscore.Lipo.Weighted>
-11.7855

> <Gold.Chemscore.Internal_Hbond.Weighted>
0.0000

> <Gold.Chemscore.DEClash.Weighted>
0.9156

> <Gold.Chemscore.DEInternal.Weighted>
1.6416

> <Gold.Chemscore.Rot.Weighted>
5.3531

> <Gold.Chemscore.Internal.Correction.Weighted>
   9.000000E+99

> <Gold.Protein.RotatedTorsions>
[ 6907 6896 6895 6894 ] final   46.13 input  -60.11 | X-H torsion
[ 7974 7965 7964 7962 ] final  -96.24 input  175.53 | X-H torsion
[ 8008 7997 7996 7995 ] final   16.26 input   59.86 | X-H torsion
[ 10167 10162 10161 10158 ] final   45.18 input  -65.29 | X-H torsion
[ 10718 10713 10712 10709 ] final  -46.45 input   66.30 | X-H torsion
[ 10763 10752 10751 10750 ] final   25.76 input  -60.55 | X-H torsion
[ 11005 11000 10999 10996 ] final  166.63 input  -57.11 | X-H torsion

> <Gold.Protein.ActiveResidues>
 VAL166  LYS551  ARG553  GLY616  TRP617  ASP618  TYR619  PRO620  LYS621  CYS622 
 ASP623  PHE694  ASN695  SER759  ASP760  ASP761  ALA762  ILE779  LEU786  VAL792 
 PHE793  MET794  SER795  GLU796  ALA797  LYS798  CYS799  TRP800  GLU811  SER814 

> <Gold.Protein.RotatedAtoms>
  152.2528  134.8115  160.0443 H   0  0  0  0  0  0  0  0  0  0  0  0  # atno 6907 bound_to 6896
  151.8789  133.3486  159.3768 H   0  0  0  0  0  0  0  0  0  0  0  0  # atno 6908 bound_to 6896
  150.7090  134.4965  159.5585 H   0  0  0  0  0  0  0  0  0  0  0  0  # atno 6909 bound_to 6896
  145.3495  140.9474  143.2562 H   0  0  0  0  0  0  0  0  0  0  0  0  # atno 7974 bound_to 7965
  154.8744  140.2963  155.5462 H   0  0  0  0  0  0  0  0  0  0  0  0  # atno 8008 bound_to 7997
  156.3022  140.2454  156.3671 H   0  0  0  0  0  0  0  0  0  0  0  0  # atno 8009 bound_to 7997
  154.8783  140.0399  157.1756 H   0  0  0  0  0  0  0  0  0  0  0  0  # atno 8010 bound_to 7997
  140.3267  144.2638  150.6174 H   0  0  0  0  0  0  0  0  0  0  0  0  # atno 10167 bound_to 10162
  156.2181  130.4164  149.9027 H   0  0  0  0  0  0  0  0  0  0  0  0  # atno 10718 bound_to 10713
  153.0669  135.6575  154.0334 H   0  0  0  0  0  0  0  0  0  0  0  0  # atno 10763 bound_to 10752
  153.9989  135.2939  155.3406 H   0  0  0  0  0  0  0  0  0  0  0  0  # atno 10764 bound_to 10752
  154.7030  135.5237  153.8623 H   0  0  0  0  0  0  0  0  0  0  0  0  # atno 10765 bound_to 10752
  140.2684  134.7846  157.3653 H   0  0  0  0  0  0  0  0  0  0  0  0  # atno 11005 bound_to 11000
  144.8728  139.5013  143.6759 LP  0  0  0  0  0  0  0  0  0  0  0  0  # atno 17320 bound_to 7965
  146.2974  139.7319  142.9117 LP  0  0  0  0  0  0  0  0  0  0  0  0  # atno 17321 bound_to 7965
  140.5434  143.2219  151.8047 LP  0  0  0  0  0  0  0  0  0  0  0  0  # atno 17342 bound_to 10162
  139.4864  144.4571  151.9585 LP  0  0  0  0  0  0  0  0  0  0  0  0  # atno 17343 bound_to 10162
  156.6683  130.8810  151.3558 LP  0  0  0  0  0  0  0  0  0  0  0  0  # atno 17370 bound_to 10713
  157.7074  130.9400  150.0974 LP  0  0  0  0  0  0  0  0  0  0  0  0  # atno 17371 bound_to 10713
  140.1397  134.4988  155.8041 LP  0  0  0  0  0  0  0  0  0  0  0  0  # atno 17394 bound_to 11000
  141.2181  133.6820  156.7188 LP  0  0  0  0  0  0  0  0  0  0  0  0  # atno 17395 bound_to 11000

$$$$
