AV-unprocessed.smi:521|AV-procd|sdf|2799|dock6
  -GOLD-   2262023273D 1   1.00000     0.00000
 Structure written by MMmdl.
 40 42  0  0  0  0  0  0  0  0  1 V2000
  151.6529  145.0666  159.6004 C   0  0  0  0  0  0  0  0  0  0  0  0
  151.1999  143.7473  159.3384 O   0  0  0  0  0  0  0  0  0  0  0  0
  152.0575  142.6960  159.5905 C   0  0  0  0  0  0  0  0  0  0  0  0
  153.3015  142.8366  160.2561 C   0  0  0  0  0  0  0  0  0  0  0  0
  154.1225  141.7158  160.4778 C   0  0  0  0  0  0  0  0  0  0  0  0
  153.7111  140.4454  160.0400 C   0  0  0  0  0  0  0  0  0  0  0  0
  152.4789  140.2944  159.3786 C   0  0  0  0  0  0  0  0  0  0  0  0
  151.6456  141.4177  159.1490 C   0  0  0  0  0  0  0  0  0  0  0  0
  150.4286  141.3491  158.5068 O   0  0  0  0  0  0  0  0  0  0  0  0
  150.0580  140.1394  157.8613 C   0  0  0  0  0  0  0  0  0  0  0  0
  150.8727  140.0006  156.5674 C   0  0  0  0  0  0  0  0  0  0  0  0
  150.0380  139.6296  155.4328 N   0  0  0  0  0  0  0  0  0  0  0  0
  150.1280  138.5241  154.6516 C   0  0  0  0  0  0  0  0  0  0  0  0
  151.1746  137.4751  154.8703 C   0  0  0  0  0  0  0  0  0  0  0  0
  152.0309  137.3206  153.7591 O   0  0  0  0  0  0  0  0  0  0  0  0
  149.2253  138.4280  153.6747 N   0  0  0  0  0  0  0  0  0  0  0  0
  148.4752  139.5759  153.8405 C   0  0  0  0  0  0  0  0  0  0  0  0
  147.3584  140.0553  153.1189 C   0  0  0  0  0  0  0  0  0  0  0  0
  146.7418  141.2706  153.4820 C   0  0  0  0  0  0  0  0  0  0  0  0
  147.2329  142.0236  154.5681 C   0  0  0  0  0  0  0  0  0  0  0  0
  148.3478  141.5669  155.2965 C   0  0  0  0  0  0  0  0  0  0  0  0
  148.9582  140.3514  154.9323 C   0  0  0  0  0  0  0  0  0  0  0  0
  150.8562  145.7716  159.3633 H   0  0  0  0  0  0  0  0  0  0  0  0
  152.5150  145.3222  158.9831 H   0  0  0  0  0  0  0  0  0  0  0  0
  151.9082  145.1993  160.6525 H   0  0  0  0  0  0  0  0  0  0  0  0
  153.6497  143.7961  160.6064 H   0  0  0  0  0  0  0  0  0  0  0  0
  155.0693  141.8316  160.9846 H   0  0  0  0  0  0  0  0  0  0  0  0
  154.3413  139.5849  160.2103 H   0  0  0  0  0  0  0  0  0  0  0  0
  152.1952  139.3048  159.0549 H   0  0  0  0  0  0  0  0  0  0  0  0
  150.2595  139.2877  158.5124 H   0  0  0  0  0  0  0  0  0  0  0  0
  148.9922  140.1442  157.6281 H   0  0  0  0  0  0  0  0  0  0  0  0
  151.3685  140.9441  156.3370 H   0  0  0  0  0  0  0  0  0  0  0  0
  151.6657  139.2641  156.6945 H   0  0  0  0  0  0  0  0  0  0  0  0
  151.7650  137.7196  155.7532 H   0  0  0  0  0  0  0  0  0  0  0  0
  150.6900  136.5192  155.0720 H   0  0  0  0  0  0  0  0  0  0  0  0
  151.5091  137.0787  153.0096 H   0  0  0  0  0  0  0  0  0  0  0  0
  146.9740  139.4853  152.2860 H   0  0  0  0  0  0  0  0  0  0  0  0
  145.8871  141.6262  152.9254 H   0  0  0  0  0  0  0  0  0  0  0  0
  146.7531  142.9517  154.8424 H   0  0  0  0  0  0  0  0  0  0  0  0
  148.7237  142.1395  156.1314 H   0  0  0  0  0  0  0  0  0  0  0  0
  1  2  1  0  0  0  0
  1 23  1  0  0  0  0
  1 24  1  0  0  0  0
  1 25  1  0  0  0  0
  2  3  1  0  0  0  0
  3  8  1  0  0  0  0
  3  4  2  0  0  0  0
  4  5  1  0  0  0  0
  4 26  1  0  0  0  0
  5  6  2  0  0  0  0
  5 27  1  0  0  0  0
  6  7  1  0  0  0  0
  6 28  1  0  0  0  0
  7  8  2  0  0  0  0
  7 29  1  0  0  0  0
  8  9  1  0  0  0  0
  9 10  1  0  0  0  0
 10 11  1  0  0  0  0
 10 30  1  0  0  0  0
 10 31  1  0  0  0  0
 11 12  1  0  0  0  0
 11 32  1  0  0  0  0
 11 33  1  0  0  0  0
 12 22  1  0  0  0  0
 12 13  1  0  0  0  0
 13 14  1  0  0  0  0
 13 16  2  0  0  0  0
 14 15  1  0  0  0  0
 14 34  1  0  0  0  0
 14 35  1  0  0  0  0
 15 36  1  0  0  0  0
 16 17  1  0  0  0  0
 17 22  2  0  0  0  0
 17 18  1  0  0  0  0
 18 19  2  0  0  0  0
 18 37  1  0  0  0  0
 19 20  1  0  0  0  0
 19 38  1  0  0  0  0
 20 21  2  0  0  0  0
 20 39  1  0  0  0  0
 21 22  1  0  0  0  0
 21 40  1  0  0  0  0
M  END
> <s_m_source_file>
AV-unprocessed.smi

> <i_m_source_file_index>
521

> <i_lp_mmshare_version>
43012

> <i_f3d_flags>
0

> <s_epik_input>
W0NIM11PYzFbY0hdW2NIXVtjSF1bY0hdYzFPW0NIMl1bQ0gyXW4oYyhuMilbQ0gyXVtPSF0pYyhjMjMpW2NIXVtjSF1bY0hdW2NIXTM=

> <s_epik_cmdline>
J2VwaWtfcHl0aG9uJywgJy1waCcsICc3LjAnLCAnLXRuJywgJzgnLCAnLW1hJywgJzIwMCcsICctbWV0YWxfYmluZGluZycsICctaW1hZScsICc8aW5maWxlLm1hZT4nLCAnLW9tYWUnLCAnPG91dGZpbGUubWFlPic=

> <r_lp_tautomer_probability>
1

> <r_epik_Ionization_Penalty>
0.048627

> <r_epik_Ionization_Penalty_Charging>
0

> <r_epik_Ionization_Penalty_Neutral>
0.048627

> <r_epik_State_Penalty>
0.0414172

> <r_epik_Charging_Adjusted_Penalty>
0.0414172

> <i_epik_Tot_Q>
0

> <i_epik_Tot_abs_Q>
0

> <r_epik_Metal_State_Penalty>
4.28976e-05

> <b_epik_Metal_Only>
0

> <s_lp_Force_Field>
OPLS_2005

> <r_lp_Energy>
18.4761

> <b_lp_Chiralities_Consistent>
1

> <s_lp_Variant>
AV-unprocessed.smi:521-1

> <Gold.Version>
5.8.1

> <Gold.Id.Protein>
6NUR|6NUR_protein|mol2

> <Gold.PLP.Fitness>
47.4619

> <Gold.PLP.PLP>
-42.4480

> <Gold.PLP.part.hbond>
-2.0000

> <Gold.PLP.part.metal>
0.0000

> <Gold.PLP.part.buried>
-3.3683

> <Gold.PLP.part.nonpolar>
-39.8749

> <Gold.PLP.part.repulsive>
2.2235

> <Gold.PLP.ligand.clash>
0.0000

> <Gold.PLP.ligand.torsion>
0.5384

> <Gold.PLP.Chemscore.Hbond>
2.0000

> <Gold.PLP.Chemscore.CHOScore>
0.0000

> <Gold.PLP.Chemscore.Metal>
0.0000

> <Gold.Chemscore.Hbonds>
donor molecule, donor type, donor heavy atom, donor atom, acceptor molecule, acceptor atom, score
      L1  H    15    36       P1  7949  1.00
      P1  H 10752 10765       L1    15  1.00

> <Gold.PLP.Chemscore.Internal.Correction>
0.0907

> <Gold.Rescore>
     Score         DG    S(hbond)    S(metal)    S(lipo)     H(rot)  DE(clash)    DE(int)     intcor
     15.67     -17.62       1.42        0.00     117.06       2.46       1.46       0.49       ----

> <Gold.Chemscore.Fitness>
15.6670

> <Gold.Chemscore.DG>
-17.6192

> <Gold.Chemscore.ZeroCoef>
-5.4800

> <Gold.Chemscore.Hbond>
1.4166

> <Gold.Chemscore.Metal>
0.0000

> <Gold.Chemscore.Lipo>
117.0573

> <Gold.Chemscore.Internal_Hbond>
0.0000

> <Gold.Chemscore.DEClash>
1.4650

> <Gold.Chemscore.DEInternal>
0.4872

> <Gold.Chemscore.Rot>
2.4562

> <Gold.Chemscore.Internal.Correction>
   9.000000E+99

> <Gold.Chemscore.Hbonds>
donor molecule, donor type, donor heavy atom, donor atom, acceptor molecule, acceptor atom, score
      L1  H    15    36       P1  7949  0.86
      P1  H 10752 10765       L1    15  0.18

> <Gold.Chemscore.Hbond.Weighted>
-4.7315

> <Gold.Chemscore.Metal.Weighted>
-0.0000

> <Gold.Chemscore.Lipo.Weighted>
-13.6957

> <Gold.Chemscore.Internal_Hbond.Weighted>
0.0000

> <Gold.Chemscore.DEClash.Weighted>
1.4650

> <Gold.Chemscore.DEInternal.Weighted>
0.4872

> <Gold.Chemscore.Rot.Weighted>
6.2880

> <Gold.Chemscore.Internal.Correction.Weighted>
   9.000000E+99

> <Gold.Protein.RotatedTorsions>
[ 6907 6896 6895 6894 ] final   71.13 input  -60.11 | X-H torsion
[ 7974 7965 7964 7962 ] final -155.30 input  175.53 | X-H torsion
[ 8008 7997 7996 7995 ] final   61.90 input   59.86 | X-H torsion
[ 10167 10162 10161 10158 ] final  -97.82 input  -65.29 | X-H torsion
[ 10718 10713 10712 10709 ] final   69.97 input   66.30 | X-H torsion
[ 10763 10752 10751 10750 ] final  140.94 input  -60.55 | X-H torsion
[ 11005 11000 10999 10996 ] final   70.16 input  -57.11 | X-H torsion

> <Gold.Protein.ActiveResidues>
 VAL166  LYS551  ARG553  GLY616  TRP617  ASP618  TYR619  PRO620  LYS621  CYS622 
 ASP623  PHE694  ASN695  SER759  ASP760  ASP761  ALA762  ILE779  LEU786  VAL792 
 PHE793  MET794  SER795  GLU796  ALA797  LYS798  CYS799  TRP800  GLU811  SER814 

> <Gold.Protein.RotatedAtoms>
  152.4791  134.4766  159.9652 H   0  0  0  0  0  0  0  0  0  0  0  0  # atno 6907 bound_to 6896
  151.4776  133.3548  159.2841 H   0  0  0  0  0  0  0  0  0  0  0  0  # atno 6908 bound_to 6896
  150.8851  134.8273  159.7314 H   0  0  0  0  0  0  0  0  0  0  0  0  # atno 6909 bound_to 6896
  144.7647  140.4269  143.5951 H   0  0  0  0  0  0  0  0  0  0  0  0  # atno 7974 bound_to 7965
  155.6057  140.3494  155.4607 H   0  0  0  0  0  0  0  0  0  0  0  0  # atno 8008 bound_to 7997
  156.0193  140.1250  157.0398 H   0  0  0  0  0  0  0  0  0  0  0  0  # atno 8009 bound_to 7997
  154.4309  140.1065  156.5927 H   0  0  0  0  0  0  0  0  0  0  0  0  # atno 8010 bound_to 7997
  140.2794  143.3291  152.0456 H   0  0  0  0  0  0  0  0  0  0  0  0  # atno 10167 bound_to 10162
  157.6375  130.9453  150.0586 H   0  0  0  0  0  0  0  0  0  0  0  0  # atno 10718 bound_to 10713
  153.9310  135.2990  155.3445 H   0  0  0  0  0  0  0  0  0  0  0  0  # atno 10763 bound_to 10752
  154.7527  135.4972  153.9321 H   0  0  0  0  0  0  0  0  0  0  0  0  # atno 10764 bound_to 10752
  153.1092  135.6754  153.9636 H   0  0  0  0  0  0  0  0  0  0  0  0  # atno 10765 bound_to 10752
  139.9613  134.7056  156.0640 H   0  0  0  0  0  0  0  0  0  0  0  0  # atno 11005 bound_to 11000
  145.6508  139.1564  143.2863 LP  0  0  0  0  0  0  0  0  0  0  0  0  # atno 17320 bound_to 7965
  146.1743  140.6597  142.9218 LP  0  0  0  0  0  0  0  0  0  0  0  0  # atno 17321 bound_to 7965
  139.4966  144.6602  151.6482 LP  0  0  0  0  0  0  0  0  0  0  0  0  # atno 17342 bound_to 10162
  140.5824  143.9923  150.6276 LP  0  0  0  0  0  0  0  0  0  0  0  0  # atno 17343 bound_to 10162
  156.1626  130.3644  149.9278 LP  0  0  0  0  0  0  0  0  0  0  0  0  # atno 17370 bound_to 10713
  156.7272  130.9029  151.3623 LP  0  0  0  0  0  0  0  0  0  0  0  0  # atno 17371 bound_to 10713
  141.1290  133.6591  156.3414 LP  0  0  0  0  0  0  0  0  0  0  0  0  # atno 17394 bound_to 11000
  140.5494  134.6042  157.5403 LP  0  0  0  0  0  0  0  0  0  0  0  0  # atno 17395 bound_to 11000

$$$$
