AV-unprocessed.smi:3348|AV-procd|sdf|12916|dock6
  -GOLD-   2272019333D 1   1.00000     0.00000
 Structure written by MMmdl.
 47 48  0  0  0  0  0  0  0  0  2 V2000
  143.6428  136.4910  152.4414 C   0  0  0  0  0  0  0  0  0  0  0  0
  145.1497  136.7066  152.2268 C   0  0  1  0  0  0  0  0  0  0  0  0
  145.5910  136.1551  150.8555 C   0  0  0  0  0  0  0  0  0  0  0  0
  145.4652  134.7102  150.7578 N   0  0  0  0  0  0  0  0  0  0  0  0
  144.3142  133.9557  150.6656 C   0  0  0  0  0  0  0  0  0  0  0  0
  144.6904  132.6444  150.6101 C   0  0  0  0  0  0  0  0  0  0  0  0
  146.1100  132.6959  150.6888 C   0  0  0  0  0  0  0  0  0  0  0  0
  146.5700  133.9332  150.7815 N   0  0  0  0  0  0  0  0  0  0  0  0
  145.5016  138.1407  152.3369 N   0  3  0  0  0  0  0  0  0  0  0  0
  146.2071  138.5247  153.5770 C   0  0  0  0  0  0  0  0  0  0  0  0
  147.7010  138.7323  153.3104 C   0  0  0  0  0  0  0  0  0  0  0  0
  148.2924  139.2955  154.4721 O   0  0  0  0  0  0  0  0  0  0  0  0
  149.7071  139.4372  154.4099 C   0  0  2  0  0  0  0  0  0  0  0  0
  150.3755  138.0465  154.3487 C   0  0  0  0  0  0  0  0  0  0  0  0
  151.9061  138.1520  154.4162 C   0  0  0  0  0  0  0  0  0  0  0  0
  152.3515  138.9165  155.6700 C   0  0  0  0  0  0  0  0  0  0  0  0
  151.6965  140.3045  155.7297 C   0  0  0  0  0  0  0  0  0  0  0  0
  150.1583  140.2143  155.6679 C   0  0  1  0  0  0  0  0  0  0  0  0
  149.5306  141.6166  155.7294 C   0  0  0  0  0  0  0  0  0  0  0  0
  143.3809  135.4384  152.3319 H   0  0  0  0  0  0  0  0  0  0  0  0
  143.0539  137.0553  151.7176 H   0  0  0  0  0  0  0  0  0  0  0  0
  143.3285  136.7973  153.4390 H   0  0  0  0  0  0  0  0  0  0  0  0
  145.6865  136.1585  153.0026 H   0  0  0  0  0  0  0  0  0  0  0  0
  144.9899  136.5982  150.0602 H   0  0  0  0  0  0  0  0  0  0  0  0
  146.6274  136.4281  150.6512 H   0  0  0  0  0  0  0  0  0  0  0  0
  143.3338  134.4089  150.6450 H   0  0  0  0  0  0  0  0  0  0  0  0
  144.0491  131.7791  150.5309 H   0  0  0  0  0  0  0  0  0  0  0  0
  146.8146  131.8772  150.6827 H   0  0  0  0  0  0  0  0  0  0  0  0
  146.1156  138.3608  151.5656 H   0  0  0  0  0  0  0  0  0  0  0  0
  145.7738  139.4306  154.0010 H   0  0  0  0  0  0  0  0  0  0  0  0
  146.0802  137.7304  154.3136 H   0  0  0  0  0  0  0  0  0  0  0  0
  148.1639  137.7731  153.0789 H   0  0  0  0  0  0  0  0  0  0  0  0
  147.8428  139.3823  152.4455 H   0  0  0  0  0  0  0  0  0  0  0  0
  149.9872  140.0174  153.5284 H   0  0  0  0  0  0  0  0  0  0  0  0
  150.0179  137.4319  155.1758 H   0  0  0  0  0  0  0  0  0  0  0  0
  150.0978  137.5240  153.4339 H   0  0  0  0  0  0  0  0  0  0  0  0
  152.3489  137.1555  154.4109 H   0  0  0  0  0  0  0  0  0  0  0  0
  152.2774  138.6610  153.5258 H   0  0  0  0  0  0  0  0  0  0  0  0
  152.0853  138.3467  156.5613 H   0  0  0  0  0  0  0  0  0  0  0  0
  153.4374  139.0160  155.6790 H   0  0  0  0  0  0  0  0  0  0  0  0
  152.0047  140.8115  156.6448 H   0  0  0  0  0  0  0  0  0  0  0  0
  152.0638  140.9134  154.9024 H   0  0  0  0  0  0  0  0  0  0  0  0
  149.8216  139.6618  156.5466 H   0  0  0  0  0  0  0  0  0  0  0  0
  149.8153  142.2169  154.8649 H   0  0  0  0  0  0  0  0  0  0  0  0
  149.8521  142.1499  156.6245 H   0  0  0  0  0  0  0  0  0  0  0  0
  148.4420  141.5652  155.7560 H   0  0  0  0  0  0  0  0  0  0  0  0
  144.6621  138.6951  152.2460 H   0  0  0  0  0  0  0  0  0  0  0  0
  1  2  1  0  0  0  0
  1 20  1  0  0  0  0
  1 21  1  0  0  0  0
  1 22  1  0  0  0  0
  2  3  1  0  0  0  0
  2  9  1  0  0  0  0
  2 23  1  0  0  0  0
  3  4  1  0  0  0  0
  3 24  1  0  0  0  0
  3 25  1  0  0  0  0
  4  8  1  0  0  0  0
  4  5  1  0  0  0  0
  5  6  2  0  0  0  0
  5 26  1  0  0  0  0
  6  7  1  0  0  0  0
  6 27  1  0  0  0  0
  7  8  2  0  0  0  0
  7 28  1  0  0  0  0
  9 10  1  0  0  0  0
  9 29  1  0  0  0  0
  9 47  1  0  0  0  0
 10 11  1  0  0  0  0
 10 30  1  0  0  0  0
 10 31  1  0  0  0  0
 11 12  1  0  0  0  0
 11 32  1  0  0  0  0
 11 33  1  0  0  0  0
 12 13  1  0  0  0  0
 13 18  1  0  0  0  0
 13 14  1  0  0  0  0
 13 34  1  0  0  0  0
 14 15  1  0  0  0  0
 14 35  1  0  0  0  0
 14 36  1  0  0  0  0
 15 16  1  0  0  0  0
 15 37  1  0  0  0  0
 15 38  1  0  0  0  0
 16 17  1  0  0  0  0
 16 39  1  0  0  0  0
 16 40  1  0  0  0  0
 17 18  1  0  0  0  0
 17 41  1  0  0  0  0
 17 42  1  0  0  0  0
 18 19  1  0  0  0  0
 18 43  1  0  0  0  0
 19 44  1  0  0  0  0
 19 45  1  0  0  0  0
 19 46  1  0  0  0  0
M  CHG  1   9   1
M  END
> <s_m_source_file>
AV-unprocessed.smi

> <i_m_source_file_index>
3348

> <i_lp_mmshare_version>
43012

> <i_f3d_flags>
0

> <s_epik_input>
bjFbY0hdW2NIXVtjSF1uMVtDSDJdW0NAQEhdKFtDSDNdKVtOSF1bQ0gyXVtDSDJdT1tDQEBIXTJbQ0gyXVtDSDJdW0NIMl1bQ0gyXVtDQEhdMltDSDNd

> <s_epik_cmdline>
J2VwaWtfcHl0aG9uJywgJy1waCcsICc3LjAnLCAnLXRuJywgJzgnLCAnLW1hJywgJzIwMCcsICctbWV0YWxfYmluZGluZycsICctaW1hZScsICc8aW5maWxlLm1hZT4nLCAnLW9tYWUnLCAnPG91dGZpbGUubWFlPic=

> <r_lp_tautomer_probability>
1

> <r_epik_Ionization_Penalty>
0.00925088

> <r_epik_Ionization_Penalty_Charging>
0.00924645

> <r_epik_Ionization_Penalty_Neutral>
4.42413e-06

> <r_epik_State_Penalty>
0.0070118

> <r_epik_Charging_Adjusted_Penalty>
0.0162583

> <i_epik_Tot_Q>
1

> <i_epik_Tot_abs_Q>
1

> <r_epik_Metal_State_Penalty>
0.00701222

> <b_epik_Metal_Only>
0

> <s_lp_Force_Field>
OPLS_2005

> <r_lp_Energy>
16.0091

> <b_lp_Chiralities_Consistent>
1

> <s_lp_Variant>
AV-unprocessed.smi:3348-2

> <Gold.Version>
5.8.1

> <Gold.Id.Protein>
6NUR|6NUR_protein|mol2

> <Gold.PLP.Fitness>
47.1103

> <Gold.PLP.PLP>
-37.4301

> <Gold.PLP.part.hbond>
-2.0000

> <Gold.PLP.part.metal>
0.0000

> <Gold.PLP.part.buried>
-1.0147

> <Gold.PLP.part.nonpolar>
-35.0946

> <Gold.PLP.part.repulsive>
0.3603

> <Gold.PLP.ligand.clash>
0.0000

> <Gold.PLP.ligand.torsion>
1.1984

> <Gold.PLP.Chemscore.Hbond>
2.0000

> <Gold.PLP.Chemscore.CHOScore>
1.9986

> <Gold.PLP.Chemscore.Metal>
0.0000

> <Gold.Chemscore.Hbonds>
donor molecule, donor type, donor heavy atom, donor atom, acceptor molecule, acceptor atom, score
      L1  H     9    47       P1 10175  2.00
      L1  C     5    26       P1 10186  0.92
      L1  C     7    28       P1 10747  1.00

> <Gold.PLP.Chemscore.Internal.Correction>
0.0811

> <Gold.Rescore>
     Score         DG    S(hbond)    S(metal)    S(lipo)     H(rot)  DE(clash)    DE(int)     intcor
     14.55     -15.83       0.97        0.00     100.68       1.82       0.05       1.24       ----

> <Gold.Chemscore.Fitness>
14.5495

> <Gold.Chemscore.DG>
-15.8331

> <Gold.Chemscore.ZeroCoef>
-5.4800

> <Gold.Chemscore.Hbond>
0.9651

> <Gold.Chemscore.Metal>
0.0000

> <Gold.Chemscore.Lipo>
100.6798

> <Gold.Chemscore.Internal_Hbond>
0.0000

> <Gold.Chemscore.DEClash>
0.0464

> <Gold.Chemscore.DEInternal>
1.2373

> <Gold.Chemscore.Rot>
1.8163

> <Gold.Chemscore.Internal.Correction>
   9.000000E+99

> <Gold.Chemscore.Hbonds>
donor molecule, donor type, donor heavy atom, donor atom, acceptor molecule, acceptor atom, score
      L1  H     9    47       P1 10175  0.90

> <Gold.Chemscore.Hbond.Weighted>
-3.2233

> <Gold.Chemscore.Metal.Weighted>
-0.0000

> <Gold.Chemscore.Lipo.Weighted>
-11.7795

> <Gold.Chemscore.Internal_Hbond.Weighted>
0.0000

> <Gold.Chemscore.DEClash.Weighted>
0.0464

> <Gold.Chemscore.DEInternal.Weighted>
1.2373

> <Gold.Chemscore.Rot.Weighted>
4.6497

> <Gold.Chemscore.Internal.Correction.Weighted>
   9.000000E+99

> <Gold.Protein.RotatedTorsions>
[ 6907 6896 6895 6894 ] final   46.72 input  -60.11 | X-H torsion
[ 7974 7965 7964 7962 ] final -113.22 input  175.53 | X-H torsion
[ 8008 7997 7996 7995 ] final   16.04 input   59.86 | X-H torsion
[ 10167 10162 10161 10158 ] final -119.07 input  -65.29 | X-H torsion
[ 10718 10713 10712 10709 ] final  137.32 input   66.30 | X-H torsion
[ 10763 10752 10751 10750 ] final -159.84 input  -60.55 | X-H torsion
[ 11005 11000 10999 10996 ] final -161.12 input  -57.11 | X-H torsion

> <Gold.Protein.ActiveResidues>
 VAL166  LYS551  ARG553  GLY616  TRP617  ASP618  TYR619  PRO620  LYS621  CYS622 
 ASP623  PHE694  ASN695  SER759  ASP760  ASP761  ALA762  ILE779  LEU786  VAL792 
 PHE793  MET794  SER795  GLU796  ALA797  LYS798  CYS799  TRP800  GLU811  SER814 

> <Gold.Protein.RotatedAtoms>
  152.2597  134.8047  160.0432 H   0  0  0  0  0  0  0  0  0  0  0  0  # atno 6907 bound_to 6896
  151.8698  133.3468  159.3739 H   0  0  0  0  0  0  0  0  0  0  0  0  # atno 6908 bound_to 6896
  150.7112  134.5051  159.5624 H   0  0  0  0  0  0  0  0  0  0  0  0  # atno 6909 bound_to 6896
  145.1346  140.8744  143.3738 H   0  0  0  0  0  0  0  0  0  0  0  0  # atno 7974 bound_to 7965
  154.8713  140.2959  155.5479 H   0  0  0  0  0  0  0  0  0  0  0  0  # atno 8008 bound_to 7997
  156.3021  140.2459  156.3636 H   0  0  0  0  0  0  0  0  0  0  0  0  # atno 8009 bound_to 7997
  154.8814  140.0398  157.1773 H   0  0  0  0  0  0  0  0  0  0  0  0  # atno 8010 bound_to 7997
  140.0506  143.5063  152.2083 H   0  0  0  0  0  0  0  0  0  0  0  0  # atno 10167 bound_to 10162
  157.4373  131.1054  151.0183 H   0  0  0  0  0  0  0  0  0  0  0  0  # atno 10718 bound_to 10713
  154.7441  135.3076  154.8676 H   0  0  0  0  0  0  0  0  0  0  0  0  # atno 10763 bound_to 10752
  153.9483  135.6767  153.4748 H   0  0  0  0  0  0  0  0  0  0  0  0  # atno 10764 bound_to 10752
  153.1038  135.4899  154.8840 H   0  0  0  0  0  0  0  0  0  0  0  0  # atno 10765 bound_to 10752
  140.6240  134.4721  157.5225 H   0  0  0  0  0  0  0  0  0  0  0  0  # atno 11005 bound_to 11000
  145.0598  139.3114  143.5886 LP  0  0  0  0  0  0  0  0  0  0  0  0  # atno 17320 bound_to 7965
  146.3511  140.0036  142.8674 LP  0  0  0  0  0  0  0  0  0  0  0  0  # atno 17321 bound_to 7965
  139.5955  144.7565  151.3296 LP  0  0  0  0  0  0  0  0  0  0  0  0  # atno 17342 bound_to 10162
  140.7218  143.7114  150.7766 LP  0  0  0  0  0  0  0  0  0  0  0  0  # atno 17343 bound_to 10162
  157.1059  130.6001  149.5470 LP  0  0  0  0  0  0  0  0  0  0  0  0  # atno 17370 bound_to 10713
  155.9935  130.4996  150.7383 LP  0  0  0  0  0  0  0  0  0  0  0  0  # atno 17371 bound_to 10713
  139.9142  134.8281  156.1423 LP  0  0  0  0  0  0  0  0  0  0  0  0  # atno 17394 bound_to 11000
  141.0722  133.6791  156.2164 LP  0  0  0  0  0  0  0  0  0  0  0  0  # atno 17395 bound_to 11000

$$$$
