AV-unprocessed.smi:2194|AV-procd|sdf|8903|dock10
  -GOLD-   2272012113D 1   1.00000     0.00000
 Structure written by MMmdl.
 45 47  0  0  0  0  0  0  0  0  1 V2000
  151.1642  144.5670  159.3942 C   0  0  0  0  0  0  0  0  0  0  0  0
  152.0437  143.5690  160.1187 C   0  0  0  0  0  0  0  0  0  0  0  0
  152.7406  142.5802  159.3965 C   0  0  0  0  0  0  0  0  0  0  0  0
  153.5582  141.6554  160.0740 C   0  0  0  0  0  0  0  0  0  0  0  0
  153.6946  141.7028  161.4767 C   0  0  0  0  0  0  0  0  0  0  0  0
  154.5148  140.7595  162.0577 O   0  0  0  0  0  0  0  0  0  0  0  0
  155.6104  140.2626  161.3006 C   0  0  0  0  0  0  0  0  0  0  0  0
  156.0823  138.9361  161.9142 C   0  0  1  0  0  0  0  0  0  0  0  0
  156.8352  139.2266  163.0753 O   0  0  0  0  0  0  0  0  0  0  0  0
  154.9080  137.9962  162.2552 C   0  0  0  0  0  0  0  0  0  0  0  0
  155.1257  137.2533  163.4877 N   0  0  0  0  0  0  0  0  0  0  0  0
  154.8599  137.6931  164.7342 C   0  0  0  0  0  0  0  0  0  0  0  0
  155.1325  136.8351  165.7176 N   0  0  0  0  0  0  0  0  0  0  0  0
  155.6233  135.7372  165.0191 C   0  0  0  0  0  0  0  0  0  0  0  0
  155.6292  135.9671  163.6830 C   0  0  0  0  0  0  0  0  0  0  0  0
  156.0885  134.9746  162.7051 C   0  0  0  0  0  0  0  0  0  0  0  0
  156.0747  135.2080  161.4957 O   0  0  0  0  0  0  0  0  0  0  0  0
  156.5132  133.7980  163.2629 N   0  0  0  0  0  0  0  0  0  0  0  0
  156.9817  132.7586  162.3263 C   0  0  0  0  0  0  0  0  0  0  0  0
  156.5011  133.5078  164.6170 C   0  0  0  0  0  0  0  0  0  0  0  0
  156.8525  132.4038  165.0420 O   0  0  0  0  0  0  0  0  0  0  0  0
  156.0808  134.4797  165.4908 N   0  0  0  0  0  0  0  0  0  0  0  0
  156.0741  134.2152  166.9325 C   0  0  0  0  0  0  0  0  0  0  0  0
  152.9930  142.7027  162.1970 C   0  0  0  0  0  0  0  0  0  0  0  0
  152.1744  143.6277  161.5202 C   0  0  0  0  0  0  0  0  0  0  0  0
  150.7996  144.1552  158.4526 H   0  0  0  0  0  0  0  0  0  0  0  0
  151.7260  145.4759  159.1777 H   0  0  0  0  0  0  0  0  0  0  0  0
  150.2993  144.8342  160.0025 H   0  0  0  0  0  0  0  0  0  0  0  0
  152.6510  142.5271  158.3212 H   0  0  0  0  0  0  0  0  0  0  0  0
  154.0873  140.9009  159.5102 H   0  0  0  0  0  0  0  0  0  0  0  0
  155.2895  140.0961  160.2708 H   0  0  0  0  0  0  0  0  0  0  0  0
  156.4314  140.9818  161.2873 H   0  0  0  0  0  0  0  0  0  0  0  0
  156.7521  138.4384  161.2116 H   0  0  0  0  0  0  0  0  0  0  0  0
  156.3745  138.8833  163.8256 H   0  0  0  0  0  0  0  0  0  0  0  0
  153.9706  138.5467  162.3208 H   0  0  0  0  0  0  0  0  0  0  0  0
  154.7704  137.2736  161.4499 H   0  0  0  0  0  0  0  0  0  0  0  0
  154.4488  138.6733  164.9262 H   0  0  0  0  0  0  0  0  0  0  0  0
  157.6343  132.0133  162.7822 H   0  0  0  0  0  0  0  0  0  0  0  0
  157.5608  133.1790  161.5021 H   0  0  0  0  0  0  0  0  0  0  0  0
  156.1273  132.2317  161.8995 H   0  0  0  0  0  0  0  0  0  0  0  0
  157.0559  133.8794  167.2696 H   0  0  0  0  0  0  0  0  0  0  0  0
  155.3465  133.4389  167.1727 H   0  0  0  0  0  0  0  0  0  0  0  0
  155.8197  135.0964  167.5213 H   0  0  0  0  0  0  0  0  0  0  0  0
  153.0665  142.7827  163.2708 H   0  0  0  0  0  0  0  0  0  0  0  0
  151.6466  144.3844  162.0822 H   0  0  0  0  0  0  0  0  0  0  0  0
  1  2  1  0  0  0  0
  1 26  1  0  0  0  0
  1 27  1  0  0  0  0
  1 28  1  0  0  0  0
  2 25  1  0  0  0  0
  2  3  2  0  0  0  0
  3  4  1  0  0  0  0
  3 29  1  0  0  0  0
  4  5  2  0  0  0  0
  4 30  1  0  0  0  0
  5  6  1  0  0  0  0
  5 24  1  0  0  0  0
  6  7  1  0  0  0  0
  7  8  1  0  0  0  0
  7 31  1  0  0  0  0
  7 32  1  0  0  0  0
  8  9  1  0  0  0  0
  8 10  1  0  0  0  0
  8 33  1  0  0  0  0
  9 34  1  0  0  0  0
 10 11  1  0  0  0  0
 10 35  1  0  0  0  0
 10 36  1  0  0  0  0
 11 15  1  0  0  0  0
 11 12  1  0  0  0  0
 12 13  2  0  0  0  0
 12 37  1  0  0  0  0
 13 14  1  0  0  0  0
 14 22  1  0  0  0  0
 14 15  2  0  0  0  0
 15 16  1  0  0  0  0
 16 17  2  0  0  0  0
 16 18  1  0  0  0  0
 18 19  1  0  0  0  0
 18 20  1  0  0  0  0
 19 38  1  0  0  0  0
 19 39  1  0  0  0  0
 19 40  1  0  0  0  0
 20 21  2  0  0  0  0
 20 22  1  0  0  0  0
 22 23  1  0  0  0  0
 23 41  1  0  0  0  0
 23 42  1  0  0  0  0
 23 43  1  0  0  0  0
 24 25  2  0  0  0  0
 24 44  1  0  0  0  0
 25 45  1  0  0  0  0
M  END
> <s_m_source_file>
AV-unprocessed.smi

> <i_m_source_file_index>
2194

> <i_lp_mmshare_version>
43012

> <i_f3d_flags>
0

> <s_epik_input>
W0NIM11jMVtjSF1bY0hdYyhbY0hdW2NIXTEpT1tDSDJdW0NASF0oW09IXSlbQ0gyXW4oW2NIXW4yKWMoYzIzKWMoPU8pbihbQ0gzXSljKD1PKW4zW0NIM10=

> <s_epik_cmdline>
J2VwaWtfcHl0aG9uJywgJy1waCcsICc3LjAnLCAnLXRuJywgJzgnLCAnLW1hJywgJzIwMCcsICctbWV0YWxfYmluZGluZycsICctaW1hZScsICc8aW5maWxlLm1hZT4nLCAnLW9tYWUnLCAnPG91dGZpbGUubWFlPic=

> <r_lp_tautomer_probability>
1

> <r_epik_Ionization_Penalty>
1.06124e-06

> <r_epik_Ionization_Penalty_Charging>
3.25921e-09

> <r_epik_Ionization_Penalty_Neutral>
1.05798e-06

> <r_epik_State_Penalty>
-0

> <r_epik_Charging_Adjusted_Penalty>
3.25921e-09

> <i_epik_Tot_Q>
0

> <i_epik_Tot_abs_Q>
0

> <r_epik_Metal_State_Penalty>
-0

> <b_epik_Metal_Only>
0

> <s_lp_Force_Field>
OPLS_2005

> <r_lp_Energy>
38.6758

> <b_lp_Chiralities_Consistent>
1

> <s_lp_Variant>
AV-unprocessed.smi:2194-2

> <Gold.Version>
5.8.1

> <Gold.Id.Protein>
6NUR|6NUR_protein|mol2

> <Gold.PLP.Fitness>
50.3486

> <Gold.PLP.PLP>
-53.2339

> <Gold.PLP.part.hbond>
0.0000

> <Gold.PLP.part.metal>
0.0000

> <Gold.PLP.part.buried>
-5.7222

> <Gold.PLP.part.nonpolar>
-47.1475

> <Gold.PLP.part.repulsive>
0.0975

> <Gold.PLP.ligand.clash>
0.0000

> <Gold.PLP.ligand.torsion>
1.4516

> <Gold.PLP.Chemscore.Hbond>
0.0000

> <Gold.PLP.Chemscore.CHOScore>
0.0000

> <Gold.PLP.Chemscore.Metal>
0.0000

> <Gold.PLP.Chemscore.Internal.Correction>
0.0179

> <Gold.Rescore>
     Score         DG    S(hbond)    S(metal)    S(lipo)     H(rot)  DE(clash)    DE(int)     intcor
     10.57     -11.84       0.00        0.00     113.21       2.69       0.04       1.24       ----

> <Gold.Chemscore.Fitness>
10.5680

> <Gold.Chemscore.DG>
-11.8426

> <Gold.Chemscore.ZeroCoef>
-5.4800

> <Gold.Chemscore.Hbond>
0.0000

> <Gold.Chemscore.Metal>
0.0000

> <Gold.Chemscore.Lipo>
113.2056

> <Gold.Chemscore.Internal_Hbond>
0.0000

> <Gold.Chemscore.DEClash>
0.0354

> <Gold.Chemscore.DEInternal>
1.2392

> <Gold.Chemscore.Rot>
2.6885

> <Gold.Chemscore.Internal.Correction>
   9.000000E+99

> <Gold.Chemscore.Hbond.Weighted>
-0.0000

> <Gold.Chemscore.Metal.Weighted>
-0.0000

> <Gold.Chemscore.Lipo.Weighted>
-13.2451

> <Gold.Chemscore.Internal_Hbond.Weighted>
0.0000

> <Gold.Chemscore.DEClash.Weighted>
0.0354

> <Gold.Chemscore.DEInternal.Weighted>
1.2392

> <Gold.Chemscore.Rot.Weighted>
6.8825

> <Gold.Chemscore.Internal.Correction.Weighted>
   9.000000E+99

> <Gold.Protein.RotatedTorsions>
[ 6907 6896 6895 6894 ] final  -54.49 input  -60.11 | X-H torsion
[ 7974 7965 7964 7962 ] final -130.92 input  175.53 | X-H torsion
[ 8008 7997 7996 7995 ] final   46.90 input   59.86 | X-H torsion
[ 10167 10162 10161 10158 ] final    0.15 input  -65.29 | X-H torsion
[ 10718 10713 10712 10709 ] final -171.13 input   66.30 | X-H torsion
[ 10763 10752 10751 10750 ] final  -35.25 input  -60.55 | X-H torsion
[ 11005 11000 10999 10996 ] final  -98.10 input  -57.11 | X-H torsion

> <Gold.Protein.ActiveResidues>
 VAL166  LYS551  ARG553  GLY616  TRP617  ASP618  TYR619  PRO620  LYS621  CYS622 
 ASP623  PHE694  ASN695  SER759  ASP760  ASP761  ALA762  ILE779  LEU786  VAL792 
 PHE793  MET794  SER795  GLU796  ALA797  LYS798  CYS799  TRP800  GLU811  SER814 

> <Gold.Protein.RotatedAtoms>
  150.8333  134.7595  159.6871 H   0  0  0  0  0  0  0  0  0  0  0  0  # atno 6907 bound_to 6896
  152.4434  134.5541  159.9885 H   0  0  0  0  0  0  0  0  0  0  0  0  # atno 6908 bound_to 6896
  151.5697  133.3354  159.3023 H   0  0  0  0  0  0  0  0  0  0  0  0  # atno 6909 bound_to 6896
  144.9428  140.7258  143.4836 H   0  0  0  0  0  0  0  0  0  0  0  0  # atno 7974 bound_to 7965
  155.3602  140.3418  155.4240 H   0  0  0  0  0  0  0  0  0  0  0  0  # atno 8008 bound_to 7997
  156.1718  140.1634  156.8469 H   0  0  0  0  0  0  0  0  0  0  0  0  # atno 8009 bound_to 7997
  154.5241  140.0760  156.8208 H   0  0  0  0  0  0  0  0  0  0  0  0  # atno 8010 bound_to 7997
  140.6742  143.6964  150.7986 H   0  0  0  0  0  0  0  0  0  0  0  0  # atno 10167 bound_to 10162
  156.7363  130.9325  151.3107 H   0  0  0  0  0  0  0  0  0  0  0  0  # atno 10718 bound_to 10713
  153.8600  135.6841  153.4784 H   0  0  0  0  0  0  0  0  0  0  0  0  # atno 10763 bound_to 10752
  153.1347  135.4683  154.9402 H   0  0  0  0  0  0  0  0  0  0  0  0  # atno 10764 bound_to 10752
  154.7763  135.3254  154.8035 H   0  0  0  0  0  0  0  0  0  0  0  0  # atno 10765 bound_to 10752
  141.1356  133.8220  157.0794 H   0  0  0  0  0  0  0  0  0  0  0  0  # atno 11005 bound_to 11000
  145.2964  139.1865  143.4713 LP  0  0  0  0  0  0  0  0  0  0  0  0  # atno 17320 bound_to 7965
  146.3292  140.2948  142.8617 LP  0  0  0  0  0  0  0  0  0  0  0  0  # atno 17321 bound_to 7965
  140.0654  143.5113  152.2606 LP  0  0  0  0  0  0  0  0  0  0  0  0  # atno 17342 bound_to 10162
  139.6025  144.7587  151.3139 LP  0  0  0  0  0  0  0  0  0  0  0  0  # atno 17343 bound_to 10162
  157.6837  130.9165  150.0333 LP  0  0  0  0  0  0  0  0  0  0  0  0  # atno 17370 bound_to 10713
  156.1495  130.3642  149.9460 LP  0  0  0  0  0  0  0  0  0  0  0  0  # atno 17371 bound_to 10713
  140.0461  134.9830  157.1051 LP  0  0  0  0  0  0  0  0  0  0  0  0  # atno 17394 bound_to 11000
  140.4061  134.2031  155.7163 LP  0  0  0  0  0  0  0  0  0  0  0  0  # atno 17395 bound_to 11000

$$$$
