AV-unprocessed.smi:813|AV-procd|sdf|3820|dock10
  -GOLD-   22720 1263D 1   1.00000     0.00000
 Structure written by MMmdl.
 35 36  0  0  0  0  0  0  0  0  2 V2000
  152.6586  138.5182  156.5153 C   0  0  0  0  0  0  0  0  0  0  0  0
  151.8351  139.2120  157.6131 C   0  0  1  0  0  0  0  0  0  0  0  0
  151.3658  138.1870  158.5448 N   0  0  0  0  0  0  0  0  0  0  0  0
  150.1117  137.7179  158.6335 C   0  0  0  0  0  0  0  0  0  0  0  0
  149.2373  138.1537  157.8805 O   0  0  0  0  0  0  0  0  0  0  0  0
  149.9483  136.7751  159.5893 N   0  5  0  0  0  0  0  0  0  0  0  0
  148.7181  136.4882  160.0457 C   0  0  0  0  0  0  0  0  0  0  0  0
  147.8668  137.4396  160.4620 N   0  0  0  0  0  0  0  0  0  0  0  0
  146.6474  136.9319  160.8902 N   0  0  0  0  0  0  0  0  0  0  0  0
  146.6072  135.6046  160.7757 C   0  0  0  0  0  0  0  0  0  0  0  0
  148.0535  134.8544  160.1344 S   0  0  0  0  0  0  0  0  0  0  0  0
  152.7427  140.2191  158.3369 C   0  0  0  0  0  0  0  0  0  0  0  0
  153.7577  139.8415  158.9249 O   0  0  0  0  0  0  0  0  0  0  0  0
  152.3643  141.5046  158.2758 N   0  0  0  0  0  0  0  0  0  0  0  0
  153.0651  142.6188  158.9074 C   0  0  0  0  0  0  0  0  0  0  0  0
  152.8153  142.6502  160.4285 C   0  0  0  0  0  0  0  0  0  0  0  0
  151.8728  143.8281  160.6738 C   0  0  0  0  0  0  0  0  0  0  0  0
  152.2418  144.8309  159.5853 C   0  0  0  0  0  0  0  0  0  0  0  0
  152.5541  143.9667  158.3621 C   0  0  0  0  0  0  0  0  0  0  0  0
  153.0351  139.2385  155.7881 H   0  0  0  0  0  0  0  0  0  0  0  0
  152.0483  137.7967  155.9709 H   0  0  0  0  0  0  0  0  0  0  0  0
  153.5144  137.9802  156.9260 H   0  0  0  0  0  0  0  0  0  0  0  0
  150.9827  139.7222  157.1599 H   0  0  0  0  0  0  0  0  0  0  0  0
  152.0476  137.8085  159.1856 H   0  0  0  0  0  0  0  0  0  0  0  0
  145.7194  135.0641  161.0682 H   0  0  0  0  0  0  0  0  0  0  0  0
  151.5156  141.7230  157.7744 H   0  0  0  0  0  0  0  0  0  0  0  0
  154.1364  142.5315  158.7158 H   0  0  0  0  0  0  0  0  0  0  0  0
  152.4139  141.7164  160.8254 H   0  0  0  0  0  0  0  0  0  0  0  0
  153.7601  142.8341  160.9416 H   0  0  0  0  0  0  0  0  0  0  0  0
  150.8390  143.5055  160.5425 H   0  0  0  0  0  0  0  0  0  0  0  0
  151.9698  144.2413  161.6781 H   0  0  0  0  0  0  0  0  0  0  0  0
  151.4502  145.5564  159.3961 H   0  0  0  0  0  0  0  0  0  0  0  0
  153.1346  145.3819  159.8839 H   0  0  0  0  0  0  0  0  0  0  0  0
  153.2798  144.4447  157.7035 H   0  0  0  0  0  0  0  0  0  0  0  0
  151.6395  143.8270  157.7832 H   0  0  0  0  0  0  0  0  0  0  0  0
  1  2  1  0  0  0  0
  1 20  1  0  0  0  0
  1 21  1  0  0  0  0
  1 22  1  0  0  0  0
  2  3  1  0  0  0  0
  2 12  1  0  0  0  0
  2 23  1  0  0  0  0
  3  4  1  0  0  0  0
  3 24  1  0  0  0  0
  4  5  2  0  0  0  0
  4  6  1  0  0  0  0
  6  7  1  0  0  0  0
  7 11  1  0  0  0  0
  7  8  2  0  0  0  0
  8  9  1  0  0  0  0
  9 10  2  0  0  0  0
 10 11  1  0  0  0  0
 10 25  1  0  0  0  0
 12 13  2  0  0  0  0
 12 14  1  0  0  0  0
 14 15  1  0  0  0  0
 14 26  1  0  0  0  0
 15 19  1  0  0  0  0
 15 16  1  0  0  0  0
 15 27  1  0  0  0  0
 16 17  1  0  0  0  0
 16 28  1  0  0  0  0
 16 29  1  0  0  0  0
 17 18  1  0  0  0  0
 17 30  1  0  0  0  0
 17 31  1  0  0  0  0
 18 19  1  0  0  0  0
 18 32  1  0  0  0  0
 18 33  1  0  0  0  0
 19 34  1  0  0  0  0
 19 35  1  0  0  0  0
M  CHG  1   6  -1
M  END
> <s_m_source_file>
AV-unprocessed.smi

> <i_m_source_file_index>
813

> <i_lp_mmshare_version>
43012

> <i_f3d_flags>
0

> <s_epik_input>
W0NIMl0xW0NIMl1bQ0gyXVtDSDJdW0NIXTFbTkhdQyg9TylbQ0BIXShbQ0gzXSlbTkhdQyg9TylbTkhdYzJubltjSF1zMg==

> <s_epik_cmdline>
J2VwaWtfcHl0aG9uJywgJy1waCcsICc3LjAnLCAnLXRuJywgJzgnLCAnLW1hJywgJzIwMCcsICctbWV0YWxfYmluZGluZycsICctaW1hZScsICc8aW5maWxlLm1hZT4nLCAnLW9tYWUnLCAnPG91dGZpbGUubWFlPic=

> <r_lp_tautomer_probability>
1

> <r_epik_Ionization_Penalty>
3.13682

> <r_epik_Ionization_Penalty_Charging>
3.09647

> <r_epik_Ionization_Penalty_Neutral>
0.0403479

> <r_epik_State_Penalty>
3.09328

> <r_epik_Charging_Adjusted_Penalty>
6.18976

> <i_epik_Tot_Q>
-1

> <i_epik_Tot_abs_Q>
1

> <r_epik_Metal_State_Penalty>
0.461392

> <b_epik_Metal_Only>
1

> <s_lp_Force_Field>
OPLS_2005

> <r_lp_Energy>
15.2454

> <b_lp_Chiralities_Consistent>
1

> <s_lp_Variant>
AV-unprocessed.smi:813-4

> <Gold.Version>
5.8.1

> <Gold.Id.Protein>
6NUR|6NUR_protein|mol2

> <Gold.PLP.Fitness>
47.2032

> <Gold.PLP.PLP>
-35.7233

> <Gold.PLP.part.hbond>
-3.9596

> <Gold.PLP.part.metal>
0.0000

> <Gold.PLP.part.buried>
-4.9943

> <Gold.PLP.part.nonpolar>
-27.6658

> <Gold.PLP.part.repulsive>
0.1829

> <Gold.PLP.ligand.clash>
0.0000

> <Gold.PLP.ligand.torsion>
0.9074

> <Gold.PLP.Chemscore.Hbond>
4.4177

> <Gold.PLP.Chemscore.CHOScore>
0.0000

> <Gold.PLP.Chemscore.Metal>
0.0000

> <Gold.Chemscore.Hbonds>
donor molecule, donor type, donor heavy atom, donor atom, acceptor molecule, acceptor atom, score
      P1  H  6896  6909       L1     6  1.79
      P1  H  6931  6943       L1     8  0.58
      P1  H  6934  6947       L1     8  0.23
      P1  H  7997  8010       L1    13  0.50

> <Gold.PLP.Chemscore.Internal.Correction>
0.0416

> <Gold.Rescore>
     Score         DG    S(hbond)    S(metal)    S(lipo)     H(rot)  DE(clash)    DE(int)     intcor
     17.85     -19.06       2.56        0.00      80.69       1.72       0.00       1.21       ----

> <Gold.Chemscore.Fitness>
17.8527

> <Gold.Chemscore.DG>
-19.0645

> <Gold.Chemscore.ZeroCoef>
-5.4800

> <Gold.Chemscore.Hbond>
2.5586

> <Gold.Chemscore.Metal>
0.0000

> <Gold.Chemscore.Lipo>
80.6884

> <Gold.Chemscore.Internal_Hbond>
0.0000

> <Gold.Chemscore.DEClash>
0.0018

> <Gold.Chemscore.DEInternal>
1.2099

> <Gold.Chemscore.Rot>
1.7194

> <Gold.Chemscore.Internal.Correction>
   9.000000E+99

> <Gold.Chemscore.Hbonds>
donor molecule, donor type, donor heavy atom, donor atom, acceptor molecule, acceptor atom, score
      P1  H  6896  6909       L1     6  0.30
      P1  H  6931  6943       L1     8  0.10
      P1  H  7997  8010       L1    13  0.02

> <Gold.Chemscore.Hbond.Weighted>
-8.5456

> <Gold.Chemscore.Metal.Weighted>
-0.0000

> <Gold.Chemscore.Lipo.Weighted>
-9.4405

> <Gold.Chemscore.Internal_Hbond.Weighted>
0.0000

> <Gold.Chemscore.DEClash.Weighted>
0.0018

> <Gold.Chemscore.DEInternal.Weighted>
1.2099

> <Gold.Chemscore.Rot.Weighted>
4.4016

> <Gold.Chemscore.Internal.Correction.Weighted>
   9.000000E+99

> <Gold.Protein.RotatedTorsions>
[ 6907 6896 6895 6894 ] final   76.34 input  -60.11 | X-H torsion
[ 7974 7965 7964 7962 ] final  -30.22 input  175.53 | X-H torsion
[ 8008 7997 7996 7995 ] final   18.30 input   59.86 | X-H torsion
[ 10167 10162 10161 10158 ] final   58.00 input  -65.29 | X-H torsion
[ 10718 10713 10712 10709 ] final   59.41 input   66.30 | X-H torsion
[ 10763 10752 10751 10750 ] final  -58.01 input  -60.55 | X-H torsion
[ 11005 11000 10999 10996 ] final   -0.80 input  -57.11 | X-H torsion

> <Gold.Protein.ActiveResidues>
 VAL166  LYS551  ARG553  GLY616  TRP617  ASP618  TYR619  PRO620  LYS621  CYS622 
 ASP623  PHE694  ASN695  SER759  ASP760  ASP761  ALA762  ILE779  LEU786  VAL792 
 PHE793  MET794  SER795  GLU796  ALA797  LYS798  CYS799  TRP800  GLU811  SER814 

> <Gold.Protein.RotatedAtoms>
  152.5068  134.3983  159.9407 H   0  0  0  0  0  0  0  0  0  0  0  0  # atno 6907 bound_to 6896
  151.3946  133.3771  159.2733 H   0  0  0  0  0  0  0  0  0  0  0  0  # atno 6908 bound_to 6896
  150.9407  134.8837  159.7669 H   0  0  0  0  0  0  0  0  0  0  0  0  # atno 6909 bound_to 6896
  146.1159  140.5512  142.8757 H   0  0  0  0  0  0  0  0  0  0  0  0  # atno 7974 bound_to 7965
  154.9040  140.3004  155.5302 H   0  0  0  0  0  0  0  0  0  0  0  0  # atno 8008 bound_to 7997
  156.3017  140.2401  156.4007 H   0  0  0  0  0  0  0  0  0  0  0  0  # atno 8009 bound_to 7997
  154.8492  140.0410  157.1582 H   0  0  0  0  0  0  0  0  0  0  0  0  # atno 8010 bound_to 7997
  140.1919  144.4077  150.6567 H   0  0  0  0  0  0  0  0  0  0  0  0  # atno 10167 bound_to 10162
  157.5673  130.8881  149.9208 H   0  0  0  0  0  0  0  0  0  0  0  0  # atno 10718 bound_to 10713
  154.2315  135.6360  153.5177 H   0  0  0  0  0  0  0  0  0  0  0  0  # atno 10763 bound_to 10752
  152.9948  135.5520  154.6008 H   0  0  0  0  0  0  0  0  0  0  0  0  # atno 10764 bound_to 10752
  154.5492  135.2900  155.0999 H   0  0  0  0  0  0  0  0  0  0  0  0  # atno 10765 bound_to 10752
  140.6402  133.9496  155.8322 H   0  0  0  0  0  0  0  0  0  0  0  0  # atno 11005 bound_to 11000
  144.7553  140.5291  143.6773 LP  0  0  0  0  0  0  0  0  0  0  0  0  # atno 17320 bound_to 7965
  145.5567  139.1478  143.3364 LP  0  0  0  0  0  0  0  0  0  0  0  0  # atno 17321 bound_to 7965
  140.6450  143.2211  151.6207 LP  0  0  0  0  0  0  0  0  0  0  0  0  # atno 17342 bound_to 10162
  139.5252  144.3081  152.1017 LP  0  0  0  0  0  0  0  0  0  0  0  0  # atno 17343 bound_to 10162
  156.0720  130.3684  150.0755 LP  0  0  0  0  0  0  0  0  0  0  0  0  # atno 17370 bound_to 10713
  156.8912  130.9589  151.3588 LP  0  0  0  0  0  0  0  0  0  0  0  0  # atno 17371 bound_to 10713
  141.0612  134.0343  157.3656 LP  0  0  0  0  0  0  0  0  0  0  0  0  # atno 17394 bound_to 11000
  139.9083  135.0185  156.7582 LP  0  0  0  0  0  0  0  0  0  0  0  0  # atno 17395 bound_to 11000

$$$$
