AV-unprocessed.smi:109|AV-procd|sdf|1057|dock6
  -GOLD-   2262018123D 1   1.00000     0.00000
 Structure written by MMmdl.
 58 61  0  0  0  0  0  0  0  0  1 V2000
  148.7448  134.5910  159.3526 O   0  0  0  0  0  0  0  0  0  0  0  0
  148.4939  135.8358  158.7364 C   0  0  0  0  0  0  0  0  0  0  0  0
  149.7182  136.2656  157.9106 C   0  0  0  0  0  0  0  0  0  0  0  0
  149.6353  135.9089  156.4049 C   0  0  2  0  0  0  0  0  0  0  0  0
  150.2298  134.5886  156.1798 N   0  0  0  0  0  0  0  0  0  0  0  0
  149.6785  133.6794  155.3437 C   0  0  0  0  0  0  0  0  0  0  0  0
  150.2107  132.4390  155.1916 N   0  0  0  0  0  0  0  0  0  0  0  0
  149.6511  131.5684  154.3464 C   0  0  0  0  0  0  0  0  0  0  0  0
  148.5761  131.7311  153.5722 N   0  0  0  0  0  0  0  0  0  0  0  0
  148.0329  132.9735  153.7244 C   0  0  0  0  0  0  0  0  0  0  0  0
  148.5217  133.9959  154.5852 C   0  0  0  0  0  0  0  0  0  0  0  0
  147.7197  135.1244  154.4773 N   0  0  0  0  0  0  0  0  0  0  0  0
  146.8129  134.7851  153.6005 C   0  0  0  0  0  0  0  0  0  0  0  0
  146.9260  133.5079  153.0974 N   0  0  0  0  0  0  0  0  0  0  0  0
  146.0568  132.8499  152.0758 C   0  0  1  0  0  0  0  0  0  0  0  0
  144.7299  132.9923  152.4875 O   0  0  0  0  0  0  0  0  0  0  0  0
  143.8964  133.2489  151.3631 C   0  0  2  0  0  0  0  0  0  0  0  0
  143.4174  131.9000  150.7840 C   0  0  0  0  0  0  0  0  0  0  0  0
  142.8790  132.0743  149.4901 O   0  0  0  0  0  0  0  0  0  0  0  0
  144.8097  134.0936  150.4641 C   0  0  2  0  0  0  0  0  0  0  0  0
  144.4220  134.1542  149.1030 O   0  0  0  0  0  0  0  0  0  0  0  0
  146.2055  133.5163  150.6961 C   0  0  2  0  0  0  0  0  0  0  0  0
  146.5578  132.5661  149.7076 O   0  0  0  0  0  0  0  0  0  0  0  0
  150.3319  136.9537  155.4851 C   0  0  0  0  0  0  0  0  0  0  0  0
  151.8199  137.1923  155.8487 C   0  0  0  0  0  0  0  0  0  0  0  0
  152.4823  138.2534  154.9543 C   0  0  0  0  0  0  0  0  0  0  0  0
  151.7149  139.5800  154.9939 C   0  0  0  0  0  0  0  0  0  0  0  0
  150.2471  139.3644  154.6073 C   0  0  0  0  0  0  0  0  0  0  0  0
  149.5848  138.3123  155.5106 C   0  0  0  0  0  0  0  0  0  0  0  0
  146.3526  131.7996  152.0884 H   0  0  0  0  0  0  0  0  0  0  0  0
  143.0334  133.8269  151.6961 H   0  0  0  0  0  0  0  0  0  0  0  0
  144.7966  135.1151  150.8445 H   0  0  0  0  0  0  0  0  0  0  0  0
  146.9630  134.3013  150.7126 H   0  0  0  0  0  0  0  0  0  0  0  0
  148.5745  134.6739  160.2784 H   0  0  0  0  0  0  0  0  0  0  0  0
  147.6072  135.7382  158.1101 H   0  0  0  0  0  0  0  0  0  0  0  0
  148.2728  136.5737  159.5079 H   0  0  0  0  0  0  0  0  0  0  0  0
  149.8077  137.3439  158.0299 H   0  0  0  0  0  0  0  0  0  0  0  0
  150.6222  135.8329  158.3413 H   0  0  0  0  0  0  0  0  0  0  0  0
  148.5824  135.9056  156.1233 H   0  0  0  0  0  0  0  0  0  0  0  0
  151.0744  134.4010  156.7011 H   0  0  0  0  0  0  0  0  0  0  0  0
  150.1351  130.6052  154.2791 H   0  0  0  0  0  0  0  0  0  0  0  0
  146.0309  135.4644  153.2931 H   0  0  0  0  0  0  0  0  0  0  0  0
  144.2147  131.1581  150.7568 H   0  0  0  0  0  0  0  0  0  0  0  0
  142.6265  131.4907  151.4128 H   0  0  0  0  0  0  0  0  0  0  0  0
  142.2348  132.7652  149.5239 H   0  0  0  0  0  0  0  0  0  0  0  0
  145.2024  134.1567  148.5695 H   0  0  0  0  0  0  0  0  0  0  0  0
  147.3469  132.1278  149.9889 H   0  0  0  0  0  0  0  0  0  0  0  0
  150.3000  136.5741  154.4623 H   0  0  0  0  0  0  0  0  0  0  0  0
  151.8994  137.4949  156.8936 H   0  0  0  0  0  0  0  0  0  0  0  0
  152.3986  136.2762  155.7447 H   0  0  0  0  0  0  0  0  0  0  0  0
  153.5137  138.4127  155.2700 H   0  0  0  0  0  0  0  0  0  0  0  0
  152.5272  137.8876  153.9277 H   0  0  0  0  0  0  0  0  0  0  0  0
  151.7730  140.0089  155.9951 H   0  0  0  0  0  0  0  0  0  0  0  0
  152.1781  140.3001  154.3191 H   0  0  0  0  0  0  0  0  0  0  0  0
  149.7041  140.3074  154.6754 H   0  0  0  0  0  0  0  0  0  0  0  0
  150.1840  139.0454  153.5661 H   0  0  0  0  0  0  0  0  0  0  0  0
  148.5499  138.1918  155.1905 H   0  0  0  0  0  0  0  0  0  0  0  0
  149.5440  138.6884  156.5339 H   0  0  0  0  0  0  0  0  0  0  0  0
  1  2  1  0  0  0  0
  1 34  1  0  0  0  0
  2  3  1  0  0  0  0
  2 35  1  0  0  0  0
  2 36  1  0  0  0  0
  3  4  1  0  0  0  0
  3 37  1  0  0  0  0
  3 38  1  0  0  0  0
  4  5  1  0  0  0  0
  4 24  1  0  0  0  0
  4 39  1  0  0  0  0
  5  6  1  0  0  0  0
  5 40  1  0  0  0  0
  6 11  1  0  0  0  0
  6  7  2  0  0  0  0
  7  8  1  0  0  0  0
  8  9  2  0  0  0  0
  8 41  1  0  0  0  0
  9 10  1  0  0  0  0
 10 14  1  0  0  0  0
 10 11  2  0  0  0  0
 11 12  1  0  0  0  0
 12 13  2  0  0  0  0
 13 14  1  0  0  0  0
 13 42  1  0  0  0  0
 14 15  1  0  0  0  0
 15 30  1  0  0  0  0
 15 22  1  0  0  0  0
 15 16  1  0  0  0  0
 16 17  1  0  0  0  0
 17 31  1  0  0  0  0
 17 18  1  0  0  0  0
 17 20  1  0  0  0  0
 18 19  1  0  0  0  0
 18 43  1  0  0  0  0
 18 44  1  0  0  0  0
 19 45  1  0  0  0  0
 20 32  1  0  0  0  0
 20 21  1  0  0  0  0
 20 22  1  0  0  0  0
 21 46  1  0  0  0  0
 22 33  1  0  0  0  0
 22 23  1  0  0  0  0
 23 47  1  0  0  0  0
 24 29  1  0  0  0  0
 24 25  1  0  0  0  0
 24 48  1  0  0  0  0
 25 26  1  0  0  0  0
 25 49  1  0  0  0  0
 25 50  1  0  0  0  0
 26 27  1  0  0  0  0
 26 51  1  0  0  0  0
 26 52  1  0  0  0  0
 27 28  1  0  0  0  0
 27 53  1  0  0  0  0
 27 54  1  0  0  0  0
 28 29  1  0  0  0  0
 28 55  1  0  0  0  0
 28 56  1  0  0  0  0
 29 57  1  0  0  0  0
 29 58  1  0  0  0  0
M  END
> <s_m_source_file>
AV-unprocessed.smi

> <i_m_source_file_index>
109

> <i_lp_mmshare_version>
43012

> <i_f3d_flags>
0

> <s_epik_input>
W0NIMl0xW0NIMl1bQ0gyXVtDSDJdW0NIMl1bQ0hdMVtDQEhdKFtDSDJdW0NIMl1bT0hdKVtOSF1jKG5bY0hdbjIpYyhjMjMpbltjSF1uM1tDQEBIXTRPW0NASF0oW0NIMl1bT0hdKVtDQEBIXShbT0hdKVtDQEhdNFtPSF0=

> <s_epik_cmdline>
J2VwaWtfcHl0aG9uJywgJy1waCcsICc3LjAnLCAnLXRuJywgJzgnLCAnLW1hJywgJzIwMCcsICctbWV0YWxfYmluZGluZycsICctaW1hZScsICc8aW5maWxlLm1hZT4nLCAnLW9tYWUnLCAnPG91dGZpbGUubWFlPic=

> <r_lp_tautomer_probability>
1

> <r_epik_Ionization_Penalty>
0.000793976

> <r_epik_Ionization_Penalty_Charging>
0

> <r_epik_Ionization_Penalty_Neutral>
0.000793976

> <r_epik_State_Penalty>
-0

> <r_epik_Charging_Adjusted_Penalty>
0

> <i_epik_Tot_Q>
0

> <i_epik_Tot_abs_Q>
0

> <r_epik_Metal_State_Penalty>
-0

> <b_epik_Metal_Only>
0

> <s_epik_Chemistry_Notes>
This compound contains an acetal/aminal-like group ( X-CH(R)-Y where X, Y are N, S, or O) that may be acid/base labile, releasing an aldehyde.

> <s_lp_Force_Field>
OPLS_2005

> <r_lp_Energy>
58.5181

> <b_lp_Chiralities_Consistent>
1

> <s_lp_Variant>
AV-unprocessed.smi:109-27

> <Gold.Version>
5.8.1

> <Gold.Id.Protein>
6NUR|6NUR_protein|mol2

> <Gold.PLP.Fitness>
51.7510

> <Gold.PLP.PLP>
-40.3277

> <Gold.PLP.part.hbond>
-6.3910

> <Gold.PLP.part.metal>
0.0000

> <Gold.PLP.part.buried>
-3.7222

> <Gold.PLP.part.nonpolar>
-33.1238

> <Gold.PLP.part.repulsive>
0.5365

> <Gold.PLP.ligand.clash>
0.0000

> <Gold.PLP.ligand.torsion>
1.2188

> <Gold.PLP.Chemscore.Hbond>
4.5425

> <Gold.PLP.Chemscore.CHOScore>
0.0000

> <Gold.PLP.Chemscore.Metal>
0.0000

> <Gold.Chemscore.Hbonds>
donor molecule, donor type, donor heavy atom, donor atom, acceptor molecule, acceptor atom, score
      L1  H    19    45       P1 10186  0.94
      L1  H    21    46       P1  7921  0.84
      L1  H    23    47       P1 10747  0.89
      P1  H  6896  6909       L1     1  0.90
      P1  H 10785 10796       L1    19  0.79

> <Gold.PLP.Chemscore.Internal.Correction>
0.2335

> <Gold.Rescore>
     Score         DG    S(hbond)    S(metal)    S(lipo)     H(rot)  DE(clash)    DE(int)     intcor
      7.46     -10.46       3.02        0.00      75.95       5.47       0.37       2.62       ----

> <Gold.Chemscore.Fitness>
7.4616

> <Gold.Chemscore.DG>
-10.4577

> <Gold.Chemscore.ZeroCoef>
-5.4800

> <Gold.Chemscore.Hbond>
3.0195

> <Gold.Chemscore.Metal>
0.0000

> <Gold.Chemscore.Lipo>
75.9500

> <Gold.Chemscore.Internal_Hbond>
0.0000

> <Gold.Chemscore.DEClash>
0.3716

> <Gold.Chemscore.DEInternal>
2.6246

> <Gold.Chemscore.Rot>
5.4662

> <Gold.Chemscore.Internal.Correction>
   9.000000E+99

> <Gold.Chemscore.Hbonds>
donor molecule, donor type, donor heavy atom, donor atom, acceptor molecule, acceptor atom, score
      L1  H    19    45       P1 10186  0.90
      L1  H    21    46       P1  7921  0.78
      L1  H    23    47       P1 10747  0.87
      P1  H  6896  6909       L1     1  0.13
      P1  H 10785 10796       L1    19  0.18

> <Gold.Chemscore.Hbond.Weighted>
-10.0851

> <Gold.Chemscore.Metal.Weighted>
-0.0000

> <Gold.Chemscore.Lipo.Weighted>
-8.8861

> <Gold.Chemscore.Internal_Hbond.Weighted>
0.0000

> <Gold.Chemscore.DEClash.Weighted>
0.3716

> <Gold.Chemscore.DEInternal.Weighted>
2.6246

> <Gold.Chemscore.Rot.Weighted>
13.9935

> <Gold.Chemscore.Internal.Correction.Weighted>
   9.000000E+99

> <Gold.Protein.RotatedTorsions>
[ 6907 6896 6895 6894 ] final   30.91 input  -60.11 | X-H torsion
[ 7974 7965 7964 7962 ] final   81.30 input  175.53 | X-H torsion
[ 8008 7997 7996 7995 ] final   88.69 input   59.86 | X-H torsion
[ 10167 10162 10161 10158 ] final -119.39 input  -65.29 | X-H torsion
[ 10718 10713 10712 10709 ] final -163.22 input   66.30 | X-H torsion
[ 10763 10752 10751 10750 ] final  -73.96 input  -60.55 | X-H torsion
[ 11005 11000 10999 10996 ] final  175.49 input  -57.11 | X-H torsion

> <Gold.Protein.ActiveResidues>
 VAL166  LYS551  ARG553  GLY616  TRP617  ASP618  TYR619  PRO620  LYS621  CYS622 
 ASP623  PHE694  ASN695  SER759  ASP760  ASP761  ALA762  ILE779  LEU786  VAL792 
 PHE793  MET794  SER795  GLU796  ALA797  LYS798  CYS799  TRP800  GLU811  SER814 

> <Gold.Protein.RotatedAtoms>
  152.0527  134.9643  160.0574 H   0  0  0  0  0  0  0  0  0  0  0  0  # atno 6907 bound_to 6896
  152.1038  133.4259  159.4607 H   0  0  0  0  0  0  0  0  0  0  0  0  # atno 6908 bound_to 6896
  150.6840  134.2648  159.4607 H   0  0  0  0  0  0  0  0  0  0  0  0  # atno 6909 bound_to 6896
  145.6400  139.2423  143.2036 H   0  0  0  0  0  0  0  0  0  0  0  0  # atno 7974 bound_to 7965
  155.9908  140.3369  155.6751 H   0  0  0  0  0  0  0  0  0  0  0  0  # atno 8008 bound_to 7997
  155.6423  140.0696  157.2632 H   0  0  0  0  0  0  0  0  0  0  0  0  # atno 8009 bound_to 7997
  154.4219  140.1740  156.1573 H   0  0  0  0  0  0  0  0  0  0  0  0  # atno 8010 bound_to 7997
  140.0471  143.5096  152.2101 H   0  0  0  0  0  0  0  0  0  0  0  0  # atno 10167 bound_to 10162
  156.6215  130.8892  151.2958 H   0  0  0  0  0  0  0  0  0  0  0  0  # atno 10718 bound_to 10713
  154.4666  135.5880  153.6292 H   0  0  0  0  0  0  0  0  0  0  0  0  # atno 10763 bound_to 10752
  152.9829  135.6056  154.3420 H   0  0  0  0  0  0  0  0  0  0  0  0  # atno 10764 bound_to 10752
  154.3297  135.2842  155.2457 H   0  0  0  0  0  0  0  0  0  0  0  0  # atno 10765 bound_to 10752
  140.3628  134.7098  157.4342 H   0  0  0  0  0  0  0  0  0  0  0  0  # atno 11005 bound_to 11000
  146.1288  140.7212  142.9422 LP  0  0  0  0  0  0  0  0  0  0  0  0  # atno 17320 bound_to 7965
  144.7161  140.4214  143.7043 LP  0  0  0  0  0  0  0  0  0  0  0  0  # atno 17321 bound_to 7965
  139.5976  144.7572  151.3248 LP  0  0  0  0  0  0  0  0  0  0  0  0  # atno 17342 bound_to 10162
  140.7234  143.7073  150.7797 LP  0  0  0  0  0  0  0  0  0  0  0  0  # atno 17343 bound_to 10162
  157.7226  130.9579  150.1501 LP  0  0  0  0  0  0  0  0  0  0  0  0  # atno 17370 bound_to 10713
  156.2307  130.3682  149.8448 LP  0  0  0  0  0  0  0  0  0  0  0  0  # atno 17371 bound_to 10713
  140.0613  134.5992  155.8746 LP  0  0  0  0  0  0  0  0  0  0  0  0  # atno 17394 bound_to 11000
  141.1979  133.6598  156.5764 LP  0  0  0  0  0  0  0  0  0  0  0  0  # atno 17395 bound_to 11000

$$$$
