AV-unprocessed.smi:33|AV-procd|sdf|207|dock3
  -GOLD-   2262015493D 1   1.00000     0.00000
 Structure written by MMmdl.
 67 72  0  0  0  0  0  0  0  0  1 V2000
  151.2609  141.4898  157.0434 O   0  0  0  0  0  0  0  0  0  0  0  0
  151.9570  140.8824  157.8599 C   0  0  0  0  0  0  0  0  0  0  0  0
  152.3946  139.6213  157.6747 O   0  0  0  0  0  0  0  0  0  0  0  0
  152.1194  138.9453  156.4586 C   0  0  0  0  0  0  0  0  0  0  0  0
  150.5981  138.8586  156.2519 C   0  0  2  0  0  0  0  0  0  0  0  0
  150.0300  138.0649  157.2892 O   0  0  0  0  0  0  0  0  0  0  0  0
  150.0374  136.7207  156.9117 C   0  0  1  0  0  0  0  0  0  0  0  0
  148.7535  136.0914  157.3589 N   0  0  0  0  0  0  0  0  0  0  0  0
  147.5060  136.6749  157.3948 C   0  0  0  0  0  0  0  0  0  0  0  0
  146.5404  135.9099  157.8270 N   0  0  0  0  0  0  0  0  0  0  0  0
  147.1703  134.7063  158.1150 C   0  0  0  0  0  0  0  0  0  0  0  0
  146.7249  133.4533  158.6175 C   0  0  0  0  0  0  0  0  0  0  0  0
  145.4339  133.2040  158.9439 N   0  0  0  0  0  0  0  0  0  0  0  0
  144.8362  134.0311  160.0029 C   0  0  0  0  0  0  0  0  0  0  0  0
  143.6133  134.1802  160.0415 O   0  0  0  0  0  0  0  0  0  0  0  0
  145.7087  134.7311  161.0067 C   0  0  0  0  0  0  0  0  0  0  0  0
  145.5634  136.1189  161.2235 C   0  0  0  0  0  0  0  0  0  0  0  0
  146.3683  136.7774  162.1732 C   0  0  0  0  0  0  0  0  0  0  0  0
  147.3112  136.0499  162.9241 C   0  0  0  0  0  0  0  0  0  0  0  0
  147.4421  134.6613  162.7328 C   0  0  0  0  0  0  0  0  0  0  0  0
  146.6368  134.0018  161.7842 C   0  0  0  0  0  0  0  0  0  0  0  0
  144.7517  132.1193  158.2220 C   0  0  0  0  0  0  0  0  0  0  0  0
  145.1226  131.8192  157.0856 O   0  0  0  0  0  0  0  0  0  0  0  0
  143.5718  131.4190  158.8355 C   0  0  0  0  0  0  0  0  0  0  0  0
  142.6634  130.7141  158.0156 C   0  0  0  0  0  0  0  0  0  0  0  0
  141.5646  130.0430  158.5864 C   0  0  0  0  0  0  0  0  0  0  0  0
  141.3777  130.0561  159.9818 C   0  0  0  0  0  0  0  0  0  0  0  0
  142.2950  130.7336  160.8074 C   0  0  0  0  0  0  0  0  0  0  0  0
  143.3932  131.4059  160.2373 C   0  0  0  0  0  0  0  0  0  0  0  0
  147.6458  132.4670  158.7753 N   0  0  0  0  0  0  0  0  0  0  0  0
  148.9234  132.6944  158.4584 C   0  0  0  0  0  0  0  0  0  0  0  0
  149.4787  133.8101  157.9807 N   0  0  0  0  0  0  0  0  0  0  0  0
  148.5587  134.8053  157.8220 C   0  0  0  0  0  0  0  0  0  0  0  0
  150.2444  136.6624  155.3836 C   0  0  1  0  0  0  0  0  0  0  0  0
  149.3260  135.8590  154.6644 O   0  0  0  0  0  0  0  0  0  0  0  0
  150.1857  138.1272  154.9722 C   0  0  1  0  0  0  0  0  0  0  0  0
  148.9404  138.4961  154.6666 F   0  0  0  0  0  0  0  0  0  0  0  0
  152.4058  141.4676  159.1560 C   0  0  0  0  0  0  0  0  0  0  0  0
  153.2612  140.7172  159.9964 C   0  0  0  0  0  0  0  0  0  0  0  0
  153.6994  141.2431  161.2273 C   0  0  0  0  0  0  0  0  0  0  0  0
  153.2896  142.5268  161.6317 C   0  0  0  0  0  0  0  0  0  0  0  0
  152.4412  143.2845  160.8034 C   0  0  0  0  0  0  0  0  0  0  0  0
  152.0001  142.7595  159.5731 C   0  0  0  0  0  0  0  0  0  0  0  0
  152.5988  139.4596  155.6248 H   0  0  0  0  0  0  0  0  0  0  0  0
  152.5397  137.9397  156.5066 H   0  0  0  0  0  0  0  0  0  0  0  0
  150.1725  139.8620  156.2920 H   0  0  0  0  0  0  0  0  0  0  0  0
  150.8102  136.1792  157.4588 H   0  0  0  0  0  0  0  0  0  0  0  0
  147.3332  137.6966  157.0895 H   0  0  0  0  0  0  0  0  0  0  0  0
  144.8431  136.6872  160.6529 H   0  0  0  0  0  0  0  0  0  0  0  0
  146.2617  137.8414  162.3260 H   0  0  0  0  0  0  0  0  0  0  0  0
  147.9289  136.5553  163.6518 H   0  0  0  0  0  0  0  0  0  0  0  0
  148.1589  134.1010  163.3147 H   0  0  0  0  0  0  0  0  0  0  0  0
  146.7419  132.9346  161.6500 H   0  0  0  0  0  0  0  0  0  0  0  0
  142.7974  130.6965  156.9436 H   0  0  0  0  0  0  0  0  0  0  0  0
  140.8654  129.5167  157.9535 H   0  0  0  0  0  0  0  0  0  0  0  0
  140.5350  129.5411  160.4189 H   0  0  0  0  0  0  0  0  0  0  0  0
  142.1574  130.7362  161.8786 H   0  0  0  0  0  0  0  0  0  0  0  0
  144.0936  131.9178  160.8816 H   0  0  0  0  0  0  0  0  0  0  0  0
  149.5972  131.8640  158.6084 H   0  0  0  0  0  0  0  0  0  0  0  0
  151.2501  136.2793  155.2074 H   0  0  0  0  0  0  0  0  0  0  0  0
  149.5249  135.9355  153.7431 H   0  0  0  0  0  0  0  0  0  0  0  0
  150.8115  138.3608  154.1102 H   0  0  0  0  0  0  0  0  0  0  0  0
  153.5887  139.7288  159.7073 H   0  0  0  0  0  0  0  0  0  0  0  0
  154.3507  140.6603  161.8620 H   0  0  0  0  0  0  0  0  0  0  0  0
  153.6256  142.9301  162.5755 H   0  0  0  0  0  0  0  0  0  0  0  0
  152.1274  144.2711  161.1117 H   0  0  0  0  0  0  0  0  0  0  0  0
  151.3501  143.3681  158.9616 H   0  0  0  0  0  0  0  0  0  0  0  0
  1  2  2  0  0  0  0
  2  3  1  0  0  0  0
  2 38  1  0  0  0  0
  3  4  1  0  0  0  0
  4  5  1  0  0  0  0
  4 44  1  0  0  0  0
  4 45  1  0  0  0  0
  5 36  1  0  0  0  0
  5  6  1  0  0  0  0
  5 46  1  0  0  0  0
  6  7  1  0  0  0  0
  7  8  1  0  0  0  0
  7 34  1  0  0  0  0
  7 47  1  0  0  0  0
  8 33  1  0  0  0  0
  8  9  1  0  0  0  0
  9 10  2  0  0  0  0
  9 48  1  0  0  0  0
 10 11  1  0  0  0  0
 11 33  2  0  0  0  0
 11 12  1  0  0  0  0
 12 13  1  0  0  0  0
 12 30  2  0  0  0  0
 13 14  1  0  0  0  0
 13 22  1  0  0  0  0
 14 15  2  0  0  0  0
 14 16  1  0  0  0  0
 16 21  1  0  0  0  0
 16 17  2  0  0  0  0
 17 18  1  0  0  0  0
 17 49  1  0  0  0  0
 18 19  2  0  0  0  0
 18 50  1  0  0  0  0
 19 20  1  0  0  0  0
 19 51  1  0  0  0  0
 20 21  2  0  0  0  0
 20 52  1  0  0  0  0
 21 53  1  0  0  0  0
 22 23  2  0  0  0  0
 22 24  1  0  0  0  0
 24 29  1  0  0  0  0
 24 25  2  0  0  0  0
 25 26  1  0  0  0  0
 25 54  1  0  0  0  0
 26 27  2  0  0  0  0
 26 55  1  0  0  0  0
 27 28  1  0  0  0  0
 27 56  1  0  0  0  0
 28 29  2  0  0  0  0
 28 57  1  0  0  0  0
 29 58  1  0  0  0  0
 30 31  1  0  0  0  0
 31 32  2  0  0  0  0
 31 59  1  0  0  0  0
 32 33  1  0  0  0  0
 34 35  1  0  0  0  0
 34 36  1  0  0  0  0
 34 60  1  0  0  0  0
 35 61  1  0  0  0  0
 36 37  1  0  0  0  0
 36 62  1  0  0  0  0
 38 43  1  0  0  0  0
 38 39  2  0  0  0  0
 39 40  1  0  0  0  0
 39 63  1  0  0  0  0
 40 41  2  0  0  0  0
 40 64  1  0  0  0  0
 41 42  1  0  0  0  0
 41 65  1  0  0  0  0
 42 43  2  0  0  0  0
 42 66  1  0  0  0  0
 43 67  1  0  0  0  0
M  END
> <s_m_source_file>
AV-unprocessed.smi

> <i_m_source_file_index>
33

> <i_lp_mmshare_version>
43012

> <i_f3d_flags>
0

> <s_epik_input>
W2NIXTFbY0hdW2NIXVtjSF1bY0hdYzFDKD1PKU9bQ0gyXVtDQEBIXTJPW0NASF0oW0NAQEhdKFtPSF0pW0NAQEhdMkYpbihbY0hdbjMpYyhjMzQpbltjSF1uYzROKEMoPU8pYzVbY0hdW2NIXVtjSF1bY0hdW2NIXTUpQyg9TyljNltjSF1bY0hdW2NIXVtjSF1bY0hdNg==

> <s_epik_cmdline>
J2VwaWtfcHl0aG9uJywgJy1waCcsICc3LjAnLCAnLXRuJywgJzgnLCAnLW1hJywgJzIwMCcsICctbWV0YWxfYmluZGluZycsICctaW1hZScsICc8aW5maWxlLm1hZT4nLCAnLW9tYWUnLCAnPG91dGZpbGUubWFlPic=

> <r_lp_tautomer_probability>
1

> <r_epik_Ionization_Penalty>
0.00067664

> <r_epik_Ionization_Penalty_Charging>
0

> <r_epik_Ionization_Penalty_Neutral>
0.00067664

> <r_epik_State_Penalty>
0.000428095

> <r_epik_Charging_Adjusted_Penalty>
0.000428095

> <i_epik_Tot_Q>
0

> <i_epik_Tot_abs_Q>
0

> <r_epik_Metal_State_Penalty>
-0

> <b_epik_Metal_Only>
0

> <s_epik_Chemistry_Notes>
This compound has an ester and may undergo hydrolysis at high or low pH. This compound contains an acetal/aminal-like group ( X-CH(R)-Y where X, Y are N, S, or O) that may be acid/base labile, releasing an aldehyde.

> <s_lp_Force_Field>
OPLS_2005

> <r_lp_Energy>
79.5237

> <b_lp_Chiralities_Consistent>
1

> <s_lp_Variant>
AV-unprocessed.smi:33-9

> <Gold.Version>
5.8.1

> <Gold.Id.Protein>
6NUR|6NUR_protein|mol2

> <Gold.PLP.Fitness>
62.4097

> <Gold.PLP.PLP>
-58.9631

> <Gold.PLP.part.hbond>
-2.3050

> <Gold.PLP.part.metal>
0.0000

> <Gold.PLP.part.buried>
-8.5292

> <Gold.PLP.part.nonpolar>
-49.3474

> <Gold.PLP.part.repulsive>
0.1990

> <Gold.PLP.ligand.clash>
0.0000

> <Gold.PLP.ligand.torsion>
3.5053

> <Gold.PLP.Chemscore.Hbond>
1.9920

> <Gold.PLP.Chemscore.CHOScore>
0.0000

> <Gold.PLP.Chemscore.Metal>
0.0000

> <Gold.Chemscore.Hbonds>
donor molecule, donor type, donor heavy atom, donor atom, acceptor molecule, acceptor atom, score
      L1  H    35    61       P1  7948  1.00
      P1  H  6896  6907       L1    32  0.99

> <Gold.PLP.Chemscore.Internal.Correction>
4.4811

> <Gold.Rescore>
     Score         DG    S(hbond)    S(metal)    S(lipo)     H(rot)  DE(clash)    DE(int)     intcor
     16.14     -22.00       1.23        0.00     161.34       2.52       0.05       5.81       ----

> <Gold.Chemscore.Fitness>
16.1401

> <Gold.Chemscore.DG>
-21.9966

> <Gold.Chemscore.ZeroCoef>
-5.4800

> <Gold.Chemscore.Hbond>
1.2285

> <Gold.Chemscore.Metal>
0.0000

> <Gold.Chemscore.Lipo>
161.3380

> <Gold.Chemscore.Internal_Hbond>
0.0000

> <Gold.Chemscore.DEClash>
0.0514

> <Gold.Chemscore.DEInternal>
5.8052

> <Gold.Chemscore.Rot>
2.5247

> <Gold.Chemscore.Internal.Correction>
   9.000000E+99

> <Gold.Chemscore.Hbonds>
donor molecule, donor type, donor heavy atom, donor atom, acceptor molecule, acceptor atom, score
      L1  H    35    61       P1  7948  0.42
      P1  H  6896  6907       L1    32  0.20

> <Gold.Chemscore.Hbond.Weighted>
-4.1033

> <Gold.Chemscore.Metal.Weighted>
-0.0000

> <Gold.Chemscore.Lipo.Weighted>
-18.8765

> <Gold.Chemscore.Internal_Hbond.Weighted>
0.0000

> <Gold.Chemscore.DEClash.Weighted>
0.0514

> <Gold.Chemscore.DEInternal.Weighted>
5.8052

> <Gold.Chemscore.Rot.Weighted>
6.4633

> <Gold.Chemscore.Internal.Correction.Weighted>
   9.000000E+99

> <Gold.Protein.RotatedTorsions>
[ 6907 6896 6895 6894 ] final  -88.69 input  -60.11 | X-H torsion
[ 7974 7965 7964 7962 ] final  -13.22 input  175.53 | X-H torsion
[ 8008 7997 7996 7995 ] final  -66.46 input   59.86 | X-H torsion
[ 10167 10162 10161 10158 ] final   67.84 input  -65.29 | X-H torsion
[ 10718 10713 10712 10709 ] final -147.68 input   66.30 | X-H torsion
[ 10763 10752 10751 10750 ] final -109.65 input  -60.55 | X-H torsion
[ 11005 11000 10999 10996 ] final  -85.02 input  -57.11 | X-H torsion

> <Gold.Protein.ActiveResidues>
 VAL166  LYS551  ARG553  GLY616  TRP617  ASP618  TYR619  PRO620  LYS621  CYS622 
 ASP623  PHE694  ASN695  SER759  ASP760  ASP761  ALA762  ILE779  LEU786  VAL792 
 PHE793  MET794  SER795  GLU796  ALA797  LYS798  CYS799  TRP800  GLU811  SER814 

> <Gold.Protein.RotatedAtoms>
  150.6870  134.2703  159.4584 H   0  0  0  0  0  0  0  0  0  0  0  0  # atno 6907 bound_to 6896
  152.0625  134.9582  160.0584 H   0  0  0  0  0  0  0  0  0  0  0  0  # atno 6908 bound_to 6896
  152.1004  133.4212  159.4621 H   0  0  0  0  0  0  0  0  0  0  0  0  # atno 6909 bound_to 6896
  146.2122  140.3172  142.8387 H   0  0  0  0  0  0  0  0  0  0  0  0  # atno 7974 bound_to 7965
  154.4736  140.0912  156.7207 H   0  0  0  0  0  0  0  0  0  0  0  0  # atno 8008 bound_to 7997
  155.4656  140.3462  155.4300 H   0  0  0  0  0  0  0  0  0  0  0  0  # atno 8009 bound_to 7997
  156.1080  140.1440  156.9366 H   0  0  0  0  0  0  0  0  0  0  0  0  # atno 8010 bound_to 7997
  140.0851  144.5037  150.7136 H   0  0  0  0  0  0  0  0  0  0  0  0  # atno 10167 bound_to 10162
  156.4106  130.7980  151.2197 H   0  0  0  0  0  0  0  0  0  0  0  0  # atno 10718 bound_to 10713
  154.8205  135.4593  154.0764 H   0  0  0  0  0  0  0  0  0  0  0  0  # atno 10763 bound_to 10752
  153.2122  135.6883  153.8106 H   0  0  0  0  0  0  0  0  0  0  0  0  # atno 10764 bound_to 10752
  153.7553  135.3292  155.3305 H   0  0  0  0  0  0  0  0  0  0  0  0  # atno 10765 bound_to 10752
  141.1645  133.7377  156.8953 H   0  0  0  0  0  0  0  0  0  0  0  0  # atno 11005 bound_to 11000
  144.8946  140.7567  143.5905 LP  0  0  0  0  0  0  0  0  0  0  0  0  # atno 17320 bound_to 7965
  145.3095  139.1823  143.4646 LP  0  0  0  0  0  0  0  0  0  0  0  0  # atno 17321 bound_to 7965
  140.7057  143.2467  151.4732 LP  0  0  0  0  0  0  0  0  0  0  0  0  # atno 17342 bound_to 10162
  139.5757  144.1825  152.1899 LP  0  0  0  0  0  0  0  0  0  0  0  0  # atno 17343 bound_to 10162
  157.7507  131.0259  150.3937 LP  0  0  0  0  0  0  0  0  0  0  0  0  # atno 17370 bound_to 10713
  156.4235  130.3957  149.6809 LP  0  0  0  0  0  0  0  0  0  0  0  0  # atno 17371 bound_to 10713
  140.1620  134.9159  157.2726 LP  0  0  0  0  0  0  0  0  0  0  0  0  # atno 17394 bound_to 11000
  140.2600  134.3582  155.7410 LP  0  0  0  0  0  0  0  0  0  0  0  0  # atno 17395 bound_to 11000

$$$$
