AV-unprocessed.smi:1432|AV-procd|sdf|5832|dock8
  -GOLD-   22720 5493D 1   1.00000     0.00000
 Structure written by MMmdl.
 47 48  0  0  0  0  0  0  0  0  2 V2000
  145.9644  132.1989  153.3726 C   0  0  0  0  0  0  0  0  0  0  0  0
  146.8402  133.0479  152.4253 C   0  0  1  0  0  0  0  0  0  0  0  0
  146.3139  133.0419  150.9744 C   0  0  0  0  0  0  0  0  0  0  0  0
  145.0428  133.8893  150.8173 C   0  0  0  0  0  0  0  0  0  0  0  0
  145.2893  135.3086  151.3428 C   0  0  0  0  0  0  0  0  0  0  0  0
  145.8124  135.2836  152.7884 C   0  0  0  0  0  0  0  0  0  0  0  0
  147.0406  134.4502  152.9000 N   0  3  1  0  0  0  0  0  0  0  0  0
  147.7039  134.5429  154.2257 C   0  0  0  0  0  0  0  0  0  0  0  0
  146.6977  134.8124  155.3611 C   0  0  0  0  0  0  0  0  0  0  0  0
  147.3556  135.3608  156.5415 N   0  0  0  0  0  0  0  0  0  0  0  0
  146.7280  135.7260  157.6699 C   0  0  0  0  0  0  0  0  0  0  0  0
  145.5087  135.6309  157.8182 O   0  0  0  0  0  0  0  0  0  0  0  0
  147.6237  136.2892  158.7829 C   0  0  0  0  0  0  0  0  0  0  0  0
  147.5447  135.5289  160.0416 N   0  0  0  0  0  0  0  0  0  0  0  0
  147.7037  134.1320  159.9537 C   0  0  0  0  0  0  0  0  0  0  0  0
  147.6769  133.3217  161.0288 C   0  0  0  0  0  0  0  0  0  0  0  0
  147.8121  131.8136  160.8886 C   0  0  0  0  0  0  0  0  0  0  0  0
  148.9771  131.5147  160.3156 F   0  0  0  0  0  0  0  0  0  0  0  0
  147.7634  131.2095  162.0759 F   0  0  0  0  0  0  0  0  0  0  0  0
  146.8372  131.3182  160.1257 F   0  0  0  0  0  0  0  0  0  0  0  0
  147.4396  133.9571  162.3101 C   0  0  0  0  0  0  0  0  0  0  0  0
  147.2808  135.2915  162.4114 C   0  0  0  0  0  0  0  0  0  0  0  0
  147.3391  136.1626  161.2350 C   0  0  0  0  0  0  0  0  0  0  0  0
  147.2133  137.3845  161.3170 O   0  0  0  0  0  0  0  0  0  0  0  0
  145.8673  131.1808  152.9950 H   0  0  0  0  0  0  0  0  0  0  0  0
  144.9575  132.6007  153.4799 H   0  0  0  0  0  0  0  0  0  0  0  0
  146.3990  132.1258  154.3694 H   0  0  0  0  0  0  0  0  0  0  0  0
  147.8247  132.5781  152.3995 H   0  0  0  0  0  0  0  0  0  0  0  0
  147.0860  133.4366  150.3125 H   0  0  0  0  0  0  0  0  0  0  0  0
  146.1269  132.0201  150.6426 H   0  0  0  0  0  0  0  0  0  0  0  0
  144.7435  133.9242  149.7693 H   0  0  0  0  0  0  0  0  0  0  0  0
  144.2152  133.4306  151.3591 H   0  0  0  0  0  0  0  0  0  0  0  0
  146.0127  135.8147  150.7021 H   0  0  0  0  0  0  0  0  0  0  0  0
  144.3689  135.8909  151.2890 H   0  0  0  0  0  0  0  0  0  0  0  0
  146.0236  136.3059  153.0998 H   0  0  0  0  0  0  0  0  0  0  0  0
  145.0423  134.9102  153.4639 H   0  0  0  0  0  0  0  0  0  0  0  0
  148.2750  133.6343  154.4226 H   0  0  0  0  0  0  0  0  0  0  0  0
  148.4248  135.3612  154.2035 H   0  0  0  0  0  0  0  0  0  0  0  0
  145.9142  135.4936  155.0241 H   0  0  0  0  0  0  0  0  0  0  0  0
  146.1993  133.8924  155.6644 H   0  0  0  0  0  0  0  0  0  0  0  0
  148.3593  135.4670  156.5002 H   0  0  0  0  0  0  0  0  0  0  0  0
  148.6526  136.3284  158.4206 H   0  0  0  0  0  0  0  0  0  0  0  0
  147.3453  137.3298  158.9573 H   0  0  0  0  0  0  0  0  0  0  0  0
  147.8567  133.7586  158.9514 H   0  0  0  0  0  0  0  0  0  0  0  0
  147.3928  133.3557  163.2059 H   0  0  0  0  0  0  0  0  0  0  0  0
  147.1085  135.7314  163.3827 H   0  0  0  0  0  0  0  0  0  0  0  0
  147.7009  134.8479  152.2472 H   0  0  0  0  0  0  0  0  0  0  0  0
  1  2  1  0  0  0  0
  1 25  1  0  0  0  0
  1 26  1  0  0  0  0
  1 27  1  0  0  0  0
  2  7  1  0  0  0  0
  2  3  1  0  0  0  0
  2 28  1  0  0  0  0
  3  4  1  0  0  0  0
  3 29  1  0  0  0  0
  3 30  1  0  0  0  0
  4  5  1  0  0  0  0
  4 31  1  0  0  0  0
  4 32  1  0  0  0  0
  5  6  1  0  0  0  0
  5 33  1  0  0  0  0
  5 34  1  0  0  0  0
  6  7  1  0  0  0  0
  6 35  1  0  0  0  0
  6 36  1  0  0  0  0
  7  8  1  0  0  0  0
  7 47  1  0  0  0  0
  8  9  1  0  0  0  0
  8 37  1  0  0  0  0
  8 38  1  0  0  0  0
  9 10  1  0  0  0  0
  9 39  1  0  0  0  0
  9 40  1  0  0  0  0
 10 11  1  0  0  0  0
 10 41  1  0  0  0  0
 11 12  2  0  0  0  0
 11 13  1  0  0  0  0
 13 14  1  0  0  0  0
 13 42  1  0  0  0  0
 13 43  1  0  0  0  0
 14 23  1  0  0  0  0
 14 15  1  0  0  0  0
 15 16  2  0  0  0  0
 15 44  1  0  0  0  0
 16 17  1  0  0  0  0
 16 21  1  0  0  0  0
 17 18  1  0  0  0  0
 17 19  1  0  0  0  0
 17 20  1  0  0  0  0
 21 22  2  0  0  0  0
 21 45  1  0  0  0  0
 22 23  1  0  0  0  0
 22 46  1  0  0  0  0
 23 24  2  0  0  0  0
M  CHG  1   7   1
M  END
> <s_m_source_file>
AV-unprocessed.smi

> <i_m_source_file_index>
1432

> <i_lp_mmshare_version>
43012

> <i_f3d_flags>
0

> <s_epik_input>
W0NIM11bQ0BASF0xW0NIMl1bQ0gyXVtDSDJdW0NIMl1OMVtDSDJdW0NIMl1bTkhdQyg9TylbQ0gyXW4yW2NIXWMoQyhGKShGKUYpW2NIXVtjSF1jMj1P

> <s_epik_cmdline>
J2VwaWtfcHl0aG9uJywgJy1waCcsICc3LjAnLCAnLXRuJywgJzgnLCAnLW1hJywgJzIwMCcsICctbWV0YWxfYmluZGluZycsICctaW1hZScsICc8aW5maWxlLm1hZT4nLCAnLW9tYWUnLCAnPG91dGZpbGUubWFlPic=

> <r_lp_tautomer_probability>
1

> <r_epik_Ionization_Penalty>
0.00237222

> <r_epik_Ionization_Penalty_Charging>
0.00237213

> <r_epik_Ionization_Penalty_Neutral>
8.2065e-08

> <r_epik_State_Penalty>
0.00163922

> <r_epik_Charging_Adjusted_Penalty>
0.00401135

> <i_epik_Tot_Q>
1

> <i_epik_Tot_abs_Q>
1

> <r_epik_Metal_State_Penalty>
-0

> <b_epik_Metal_Only>
0

> <s_lp_Force_Field>
OPLS_2005

> <r_lp_Energy>
30.8691

> <b_lp_Chiralities_Consistent>
1

> <s_lp_Variant>
AV-unprocessed.smi:1432-2

> <Gold.Version>
5.8.1

> <Gold.Id.Protein>
6NUR|6NUR_protein|mol2

> <Gold.PLP.Fitness>
44.8254

> <Gold.PLP.PLP>
-34.4967

> <Gold.PLP.part.hbond>
-3.0000

> <Gold.PLP.part.metal>
0.0000

> <Gold.PLP.part.buried>
-3.3514

> <Gold.PLP.part.nonpolar>
-28.2721

> <Gold.PLP.part.repulsive>
0.0000

> <Gold.PLP.ligand.clash>
0.0000

> <Gold.PLP.ligand.torsion>
0.6861

> <Gold.PLP.Chemscore.Hbond>
3.8720

> <Gold.PLP.Chemscore.CHOScore>
0.0000

> <Gold.PLP.Chemscore.Metal>
0.0000

> <Gold.Chemscore.Hbonds>
donor molecule, donor type, donor heavy atom, donor atom, acceptor molecule, acceptor atom, score
      L1  H     7    47       P1  7948  1.98
      P1  H  6931  6943       L1    24  0.64
      P1  H  6934  6947       L1    24  1.00

> <Gold.PLP.Chemscore.Internal.Correction>
0.0849

> <Gold.Rescore>
     Score         DG    S(hbond)    S(metal)    S(lipo)     H(rot)  DE(clash)    DE(int)     intcor
     16.59     -17.66       2.71        0.00      72.10       2.08       0.18       0.88       ----

> <Gold.Chemscore.Fitness>
16.5917

> <Gold.Chemscore.DG>
-17.6607

> <Gold.Chemscore.ZeroCoef>
-5.4800

> <Gold.Chemscore.Hbond>
2.7124

> <Gold.Chemscore.Metal>
0.0000

> <Gold.Chemscore.Lipo>
72.1050

> <Gold.Chemscore.Internal_Hbond>
0.0000

> <Gold.Chemscore.DEClash>
0.1843

> <Gold.Chemscore.DEInternal>
0.8848

> <Gold.Chemscore.Rot>
2.0762

> <Gold.Chemscore.Internal.Correction>
   9.000000E+99

> <Gold.Chemscore.Hbonds>
donor molecule, donor type, donor heavy atom, donor atom, acceptor molecule, acceptor atom, score
      L1  H     7    47       P1  7948  0.78
      P1  H  6931  6943       L1    24  0.49
      P1  H  6934  6947       L1    24  0.95

> <Gold.Chemscore.Hbond.Weighted>
-9.0594

> <Gold.Chemscore.Metal.Weighted>
-0.0000

> <Gold.Chemscore.Lipo.Weighted>
-8.4363

> <Gold.Chemscore.Internal_Hbond.Weighted>
0.0000

> <Gold.Chemscore.DEClash.Weighted>
0.1843

> <Gold.Chemscore.DEInternal.Weighted>
0.8848

> <Gold.Chemscore.Rot.Weighted>
5.3150

> <Gold.Chemscore.Internal.Correction.Weighted>
   9.000000E+99

> <Gold.Protein.RotatedTorsions>
[ 6907 6896 6895 6894 ] final   99.67 input  -60.11 | X-H torsion
[ 7974 7965 7964 7962 ] final   75.03 input  175.53 | X-H torsion
[ 8008 7997 7996 7995 ] final  152.47 input   59.86 | X-H torsion
[ 10167 10162 10161 10158 ] final  -39.18 input  -65.29 | X-H torsion
[ 10718 10713 10712 10709 ] final   -8.91 input   66.30 | X-H torsion
[ 10763 10752 10751 10750 ] final  -57.15 input  -60.55 | X-H torsion
[ 11005 11000 10999 10996 ] final  147.54 input  -57.11 | X-H torsion

> <Gold.Protein.ActiveResidues>
 VAL166  LYS551  ARG553  GLY616  TRP617  ASP618  TYR619  PRO620  LYS621  CYS622 
 ASP623  PHE694  ASN695  SER759  ASP760  ASP761  ALA762  ILE779  LEU786  VAL792 
 PHE793  MET794  SER795  GLU796  ALA797  LYS798  CYS799  TRP800  GLU811  SER814 

> <Gold.Protein.RotatedAtoms>
  152.5387  134.0393  159.8059 H   0  0  0  0  0  0  0  0  0  0  0  0  # atno 6907 bound_to 6896
  151.0551  133.5583  159.2646 H   0  0  0  0  0  0  0  0  0  0  0  0  # atno 6908 bound_to 6896
  151.2503  135.0627  159.9113 H   0  0  0  0  0  0  0  0  0  0  0  0  # atno 6909 bound_to 6896
  145.7207  139.2647  143.1597 H   0  0  0  0  0  0  0  0  0  0  0  0  # atno 7974 bound_to 7965
  156.2628  140.2020  156.6338 H   0  0  0  0  0  0  0  0  0  0  0  0  # atno 8008 bound_to 7997
  154.6662  140.0555  157.0141 H   0  0  0  0  0  0  0  0  0  0  0  0  # atno 8009 bound_to 7997
  155.1203  140.3224  155.4502 H   0  0  0  0  0  0  0  0  0  0  0  0  # atno 8010 bound_to 7997
  140.7071  143.3230  151.2745 H   0  0  0  0  0  0  0  0  0  0  0  0  # atno 10167 bound_to 10162
  156.6957  130.5078  149.5931 H   0  0  0  0  0  0  0  0  0  0  0  0  # atno 10718 bound_to 10713
  154.2179  135.6383  153.5135 H   0  0  0  0  0  0  0  0  0  0  0  0  # atno 10763 bound_to 10752
  152.9975  135.5489  154.6146 H   0  0  0  0  0  0  0  0  0  0  0  0  # atno 10764 bound_to 10752
  154.5599  135.2908  155.0903 H   0  0  0  0  0  0  0  0  0  0  0  0  # atno 10765 bound_to 10752
  140.0884  134.9055  157.1613 H   0  0  0  0  0  0  0  0  0  0  0  0  # atno 11005 bound_to 11000
  146.0628  140.7952  142.9726 LP  0  0  0  0  0  0  0  0  0  0  0  0  # atno 17320 bound_to 7965
  144.6917  140.3223  143.7230 LP  0  0  0  0  0  0  0  0  0  0  0  0  # atno 17321 bound_to 7965
  139.6690  144.0053  152.2741 LP  0  0  0  0  0  0  0  0  0  0  0  0  # atno 17342 bound_to 10162
  139.9645  144.6535  150.8047 LP  0  0  0  0  0  0  0  0  0  0  0  0  # atno 17343 bound_to 10162
  156.1765  130.6471  151.0900 LP  0  0  0  0  0  0  0  0  0  0  0  0  # atno 17370 bound_to 10713
  157.6992  131.0782  150.6874 LP  0  0  0  0  0  0  0  0  0  0  0  0  # atno 17371 bound_to 10713
  140.3387  134.2729  155.7215 LP  0  0  0  0  0  0  0  0  0  0  0  0  # atno 17394 bound_to 11000
  141.2070  133.7817  157.0144 LP  0  0  0  0  0  0  0  0  0  0  0  0  # atno 17395 bound_to 11000

$$$$
