AV-unprocessed.smi:2730|AV-procd|sdf|10529|dock8
  -GOLD-   2272014573D 1   1.00000     0.00000
 Structure written by MMmdl.
 43 44  0  0  0  0  0  0  0  0  1 V2000
  147.9390  133.2059  153.0655 C   0  0  0  0  0  0  0  0  0  0  0  0
  149.3365  133.2949  153.6959 C   0  0  0  0  0  0  0  0  0  0  0  0
  149.4200  134.2659  154.8881 C   0  0  1  0  0  0  0  0  0  0  0  0
  150.6298  133.9427  155.7814 C   0  0  0  0  0  0  0  0  0  0  0  0
  150.2893  133.1628  156.9824 C   0  0  0  0  0  0  0  0  0  0  0  0
  150.0212  132.5492  157.9258 N   0  0  0  0  0  0  0  0  0  0  0  0
  149.5030  135.6441  154.4039 N   0  0  0  0  0  0  0  0  0  0  0  0
  149.7216  136.7281  155.1635 C   0  0  0  0  0  0  0  0  0  0  0  0
  149.8970  136.6807  156.3813 O   0  0  0  0  0  0  0  0  0  0  0  0
  149.7210  137.8495  154.4218 N   0  0  0  0  0  0  0  0  0  0  0  0
  149.9029  139.1884  154.8566 C   0  0  0  0  0  0  0  0  0  0  0  0
  149.2107  140.2602  154.3615 N   0  0  0  0  0  0  0  0  0  0  0  0
  149.7606  141.2213  155.0911 C   0  0  0  0  0  0  0  0  0  0  0  0
  150.6893  140.7887  155.9507 N   0  0  0  0  0  0  0  0  0  0  0  0
  151.5194  141.5144  156.8998 C   0  0  0  0  0  0  0  0  0  0  0  0
  151.4539  140.8770  158.3026 C   0  0  0  0  0  0  0  0  0  0  0  0
  152.3198  141.6513  159.3098 C   0  0  0  0  0  0  0  0  0  0  0  0
  151.9279  143.1369  159.3573 C   0  0  0  0  0  0  0  0  0  0  0  0
  151.9960  143.7753  157.9605 C   0  0  0  0  0  0  0  0  0  0  0  0
  151.1279  143.0045  156.9521 C   0  0  0  0  0  0  0  0  0  0  0  0
  150.8015  139.4460  155.8050 N   0  0  0  0  0  0  0  0  0  0  0  0
  147.9236  132.4685  152.2628 H   0  0  0  0  0  0  0  0  0  0  0  0
  147.6278  134.1603  152.6406 H   0  0  0  0  0  0  0  0  0  0  0  0
  147.1935  132.9079  153.8033 H   0  0  0  0  0  0  0  0  0  0  0  0
  149.6308  132.2987  154.0278 H   0  0  0  0  0  0  0  0  0  0  0  0
  150.0597  133.5844  152.9324 H   0  0  0  0  0  0  0  0  0  0  0  0
  148.5144  134.1320  155.4825 H   0  0  0  0  0  0  0  0  0  0  0  0
  151.3625  133.3597  155.2229 H   0  0  0  0  0  0  0  0  0  0  0  0
  151.1284  134.8581  156.1014 H   0  0  0  0  0  0  0  0  0  0  0  0
  149.3698  135.7822  153.4127 H   0  0  0  0  0  0  0  0  0  0  0  0
  149.5657  137.7347  153.4313 H   0  0  0  0  0  0  0  0  0  0  0  0
  149.4823  142.2606  154.9964 H   0  0  0  0  0  0  0  0  0  0  0  0
  152.5525  141.4505  156.5522 H   0  0  0  0  0  0  0  0  0  0  0  0
  150.4226  140.8580  158.6575 H   0  0  0  0  0  0  0  0  0  0  0  0
  151.7843  139.8386  158.2562 H   0  0  0  0  0  0  0  0  0  0  0  0
  152.2210  141.2096  160.3017 H   0  0  0  0  0  0  0  0  0  0  0  0
  153.3711  141.5598  159.0339 H   0  0  0  0  0  0  0  0  0  0  0  0
  150.9173  143.2362  159.7558 H   0  0  0  0  0  0  0  0  0  0  0  0
  152.5843  143.6728  160.0436 H   0  0  0  0  0  0  0  0  0  0  0  0
  151.6727  144.8153  158.0112 H   0  0  0  0  0  0  0  0  0  0  0  0
  153.0307  143.7903  157.6156 H   0  0  0  0  0  0  0  0  0  0  0  0
  151.2287  143.4526  155.9628 H   0  0  0  0  0  0  0  0  0  0  0  0
  150.0781  143.1042  157.2311 H   0  0  0  0  0  0  0  0  0  0  0  0
  1  2  1  0  0  0  0
  1 22  1  0  0  0  0
  1 23  1  0  0  0  0
  1 24  1  0  0  0  0
  2  3  1  0  0  0  0
  2 25  1  0  0  0  0
  2 26  1  0  0  0  0
  3  4  1  0  0  0  0
  3  7  1  0  0  0  0
  3 27  1  0  0  0  0
  4  5  1  0  0  0  0
  4 28  1  0  0  0  0
  4 29  1  0  0  0  0
  5  6  3  0  0  0  0
  7  8  1  0  0  0  0
  7 30  1  0  0  0  0
  8  9  2  0  0  0  0
  8 10  1  0  0  0  0
 10 11  1  0  0  0  0
 10 31  1  0  0  0  0
 11 21  2  0  0  0  0
 11 12  1  0  0  0  0
 12 13  2  0  0  0  0
 13 14  1  0  0  0  0
 13 32  1  0  0  0  0
 14 15  1  0  0  0  0
 14 21  1  0  0  0  0
 15 20  1  0  0  0  0
 15 16  1  0  0  0  0
 15 33  1  0  0  0  0
 16 17  1  0  0  0  0
 16 34  1  0  0  0  0
 16 35  1  0  0  0  0
 17 18  1  0  0  0  0
 17 36  1  0  0  0  0
 17 37  1  0  0  0  0
 18 19  1  0  0  0  0
 18 38  1  0  0  0  0
 18 39  1  0  0  0  0
 19 20  1  0  0  0  0
 19 40  1  0  0  0  0
 19 41  1  0  0  0  0
 20 42  1  0  0  0  0
 20 43  1  0  0  0  0
M  END
> <s_m_source_file>
AV-unprocessed.smi

> <i_m_source_file_index>
2730

> <i_lp_mmshare_version>
43012

> <i_f3d_flags>
0

> <s_epik_input>
TiNDW0NIMl1bQ0BASF0oW0NIMl1bQ0gzXSlbTkhdQyg9TylbTkhdYzFuW2NIXW4objEpW0NIXTJbQ0gyXVtDSDJdW0NIMl1bQ0gyXVtDSDJdMg==

> <s_epik_cmdline>
J2VwaWtfcHl0aG9uJywgJy1waCcsICc3LjAnLCAnLXRuJywgJzgnLCAnLW1hJywgJzIwMCcsICctbWV0YWxfYmluZGluZycsICctaW1hZScsICc8aW5maWxlLm1hZT4nLCAnLW9tYWUnLCAnPG91dGZpbGUubWFlPic=

> <r_lp_tautomer_probability>
1

> <r_epik_Ionization_Penalty>
7.18854e-05

> <r_epik_Ionization_Penalty_Charging>
0

> <r_epik_Ionization_Penalty_Neutral>
7.18854e-05

> <r_epik_State_Penalty>
-0

> <r_epik_Charging_Adjusted_Penalty>
0

> <i_epik_Tot_Q>
0

> <i_epik_Tot_abs_Q>
0

> <r_epik_Metal_State_Penalty>
-0

> <b_epik_Metal_Only>
0

> <s_lp_Force_Field>
OPLS_2005

> <r_lp_Energy>
17.9717

> <b_lp_Chiralities_Consistent>
1

> <s_lp_Variant>
AV-unprocessed.smi:2730-2

> <Gold.Version>
5.8.1

> <Gold.Id.Protein>
6NUR|6NUR_protein|mol2

> <Gold.PLP.Fitness>
45.0128

> <Gold.PLP.PLP>
-37.2561

> <Gold.PLP.part.hbond>
-2.9403

> <Gold.PLP.part.metal>
0.0000

> <Gold.PLP.part.buried>
-4.0251

> <Gold.PLP.part.nonpolar>
-30.9245

> <Gold.PLP.part.repulsive>
0.1908

> <Gold.PLP.ligand.clash>
0.0000

> <Gold.PLP.ligand.torsion>
1.2306

> <Gold.PLP.Chemscore.Hbond>
2.4685

> <Gold.PLP.Chemscore.CHOScore>
0.9096

> <Gold.PLP.Chemscore.Metal>
0.0000

> <Gold.Chemscore.Hbonds>
donor molecule, donor type, donor heavy atom, donor atom, acceptor molecule, acceptor atom, score
      L1  H     7    30       P1  7948  1.00
      L1  H    10    31       P1  7948  0.46
      P1  H  6896  6909       L1     6  0.95
      L1  C    13    32       P1  8028  0.81

> <Gold.PLP.Chemscore.Internal.Correction>
0.0838

> <Gold.Rescore>
     Score         DG    S(hbond)    S(metal)    S(lipo)     H(rot)  DE(clash)    DE(int)     intcor
     14.61     -18.32       2.64        0.00      74.35       1.82       0.27       3.45       ----

> <Gold.Chemscore.Fitness>
14.6095

> <Gold.Chemscore.DG>
-18.3215

> <Gold.Chemscore.ZeroCoef>
-5.4800

> <Gold.Chemscore.Hbond>
2.6389

> <Gold.Chemscore.Metal>
0.0000

> <Gold.Chemscore.Lipo>
74.3542

> <Gold.Chemscore.Internal_Hbond>
0.0000

> <Gold.Chemscore.DEClash>
0.2669

> <Gold.Chemscore.DEInternal>
3.4451

> <Gold.Chemscore.Rot>
1.8249

> <Gold.Chemscore.Internal.Correction>
   9.000000E+99

> <Gold.Chemscore.Hbonds>
donor molecule, donor type, donor heavy atom, donor atom, acceptor molecule, acceptor atom, score
      L1  H     7    30       P1  7948  0.39
      L1  H    10    31       P1  7948  0.41
      P1  H  6896  6909       L1     6  0.22

> <Gold.Chemscore.Hbond.Weighted>
-8.8139

> <Gold.Chemscore.Metal.Weighted>
-0.0000

> <Gold.Chemscore.Lipo.Weighted>
-8.6994

> <Gold.Chemscore.Internal_Hbond.Weighted>
0.0000

> <Gold.Chemscore.DEClash.Weighted>
0.2669

> <Gold.Chemscore.DEInternal.Weighted>
3.4451

> <Gold.Chemscore.Rot.Weighted>
4.6718

> <Gold.Chemscore.Internal.Correction.Weighted>
   9.000000E+99

> <Gold.Protein.RotatedTorsions>
[ 6907 6896 6895 6894 ] final  -21.97 input  -60.11 | X-H torsion
[ 7974 7965 7964 7962 ] final  -22.78 input  175.53 | X-H torsion
[ 8008 7997 7996 7995 ] final  103.24 input   59.86 | X-H torsion
[ 10167 10162 10161 10158 ] final  164.17 input  -65.29 | X-H torsion
[ 10718 10713 10712 10709 ] final  178.66 input   66.30 | X-H torsion
[ 10763 10752 10751 10750 ] final   65.71 input  -60.55 | X-H torsion
[ 11005 11000 10999 10996 ] final   60.55 input  -57.11 | X-H torsion

> <Gold.Protein.ActiveResidues>
 VAL166  LYS551  ARG553  GLY616  TRP617  ASP618  TYR619  PRO620  LYS621  CYS622 
 ASP623  PHE694  ASN695  SER759  ASP760  ASP761  ALA762  ILE779  LEU786  VAL792 
 PHE793  MET794  SER795  GLU796  ALA797  LYS798  CYS799  TRP800  GLU811  SER814 

> <Gold.Protein.RotatedAtoms>
  151.2255  135.0535  159.8966 H   0  0  0  0  0  0  0  0  0  0  0  0  # atno 6907 bound_to 6896
  152.5411  134.0593  159.8155 H   0  0  0  0  0  0  0  0  0  0  0  0  # atno 6908 bound_to 6896
  151.0766  133.5375  159.2655 H   0  0  0  0  0  0  0  0  0  0  0  0  # atno 6909 bound_to 6896
  146.1655  140.4527  142.8554 H   0  0  0  0  0  0  0  0  0  0  0  0  # atno 7974 bound_to 7965
  156.1466  140.3168  155.8580 H   0  0  0  0  0  0  0  0  0  0  0  0  # atno 8008 bound_to 7997
  155.4052  140.0502  157.3052 H   0  0  0  0  0  0  0  0  0  0  0  0  # atno 8009 bound_to 7997
  154.5022  140.2133  155.9336 H   0  0  0  0  0  0  0  0  0  0  0  0  # atno 8010 bound_to 7997
  139.4885  144.4263  151.9126 H   0  0  0  0  0  0  0  0  0  0  0  0  # atno 10167 bound_to 10162
  156.8872  130.9835  151.3054 H   0  0  0  0  0  0  0  0  0  0  0  0  # atno 10718 bound_to 10713
  153.0108  135.5347  154.6709 H   0  0  0  0  0  0  0  0  0  0  0  0  # atno 10763 bound_to 10752
  154.5894  135.2857  155.0653 H   0  0  0  0  0  0  0  0  0  0  0  0  # atno 10764 bound_to 10752
  154.1752  135.6525  153.5072 H   0  0  0  0  0  0  0  0  0  0  0  0  # atno 10765 bound_to 10752
  140.0223  134.6134  155.9621 H   0  0  0  0  0  0  0  0  0  0  0  0  # atno 11005 bound_to 11000
  144.8086  140.6345  143.6430 LP  0  0  0  0  0  0  0  0  0  0  0  0  # atno 17320 bound_to 7965
  145.4478  139.1527  143.3935 LP  0  0  0  0  0  0  0  0  0  0  0  0  # atno 17321 bound_to 7965
  140.3709  144.2857  150.5920 LP  0  0  0  0  0  0  0  0  0  0  0  0  # atno 17342 bound_to 10162
  140.5320  143.2241  151.8223 LP  0  0  0  0  0  0  0  0  0  0  0  0  # atno 17343 bound_to 10162
  157.6105  130.8579  149.8944 LP  0  0  0  0  0  0  0  0  0  0  0  0  # atno 17370 bound_to 10713
  156.0647  130.3694  150.0904 LP  0  0  0  0  0  0  0  0  0  0  0  0  # atno 17371 bound_to 10713
  141.1782  133.6543  156.4911 LP  0  0  0  0  0  0  0  0  0  0  0  0  # atno 17394 bound_to 11000
  140.4365  134.7054  157.4969 LP  0  0  0  0  0  0  0  0  0  0  0  0  # atno 17395 bound_to 11000

$$$$
