AV-unprocessed.smi:2135|AV-procd|sdf|8700|dock9
  -GOLD-   2272011463D 1   1.00000     0.00000
 Structure written by MMmdl.
 43 44  0  0  0  0  0  0  0  0  2 V2000
  151.7105  137.6477  158.2805 C   0  0  0  0  0  0  0  0  0  0  0  0
  152.9902  137.6633  156.9606 S   0  0  0  0  0  0  0  0  0  0  0  0
  153.9725  138.7108  157.2787 O   0  0  0  0  0  0  0  0  0  0  0  0
  153.4390  136.2776  156.7549 O   0  0  0  0  0  0  0  0  0  0  0  0
  152.1241  138.1434  155.5298 N   0  0  0  0  0  0  0  0  0  0  0  0
  151.0198  137.3174  155.0084 C   0  0  0  0  0  0  0  0  0  0  0  0
  149.6656  138.0271  155.1707 C   0  0  0  0  0  0  0  0  0  0  0  0
  149.6926  139.4459  154.5727 C   0  0  0  0  0  0  0  0  0  0  0  0
  150.8520  140.2929  155.1468 C   0  0  1  0  0  0  0  0  0  0  0  0
  150.6015  140.7930  156.5825 C   0  0  0  0  0  0  0  0  0  0  0  0
  149.9373  140.1369  157.3857 O   0  0  0  0  0  0  0  0  0  0  0  0
  151.1167  141.9957  156.8839 N   0  0  0  0  0  0  0  0  0  0  0  0
  150.9978  142.6582  158.1770 C   0  0  0  0  0  0  0  0  0  0  0  0
  152.3077  143.3557  158.5793 C   0  0  0  0  0  0  0  0  0  0  0  0
  152.6405  143.1458  160.0433 C   0  0  0  0  0  0  0  0  0  0  0  0
  153.4864  142.0891  160.4467 C   0  0  0  0  0  0  0  0  0  0  0  0
  153.7743  141.9188  161.8171 C   0  0  0  0  0  0  0  0  0  0  0  0
  153.2090  142.8089  162.7532 C   0  0  0  0  0  0  0  0  0  0  0  0
  152.4032  143.8077  162.3299 N   0  3  0  0  0  0  0  0  0  0  0  0
  152.1039  144.0048  161.0271 C   0  0  0  0  0  0  0  0  0  0  0  0
  152.1862  139.5203  154.9948 C   0  0  0  0  0  0  0  0  0  0  0  0
  152.1318  137.1983  159.1792 H   0  0  0  0  0  0  0  0  0  0  0  0
  150.8505  137.0625  157.9569 H   0  0  0  0  0  0  0  0  0  0  0  0
  151.4036  138.6647  158.5124 H   0  0  0  0  0  0  0  0  0  0  0  0
  151.2069  137.1167  153.9530 H   0  0  0  0  0  0  0  0  0  0  0  0
  151.0004  136.3503  155.5107 H   0  0  0  0  0  0  0  0  0  0  0  0
  148.8865  137.4405  154.6832 H   0  0  0  0  0  0  0  0  0  0  0  0
  149.3949  138.0587  156.2251 H   0  0  0  0  0  0  0  0  0  0  0  0
  149.8083  139.3737  153.4905 H   0  0  0  0  0  0  0  0  0  0  0  0
  148.7336  139.9393  154.7367 H   0  0  0  0  0  0  0  0  0  0  0  0
  150.9233  141.1951  154.5372 H   0  0  0  0  0  0  0  0  0  0  0  0
  151.6406  142.4796  156.1688 H   0  0  0  0  0  0  0  0  0  0  0  0
  150.1730  143.3727  158.1532 H   0  0  0  0  0  0  0  0  0  0  0  0
  150.7341  141.9045  158.9196 H   0  0  0  0  0  0  0  0  0  0  0  0
  153.1315  142.9868  157.9667 H   0  0  0  0  0  0  0  0  0  0  0  0
  152.2409  144.4279  158.3892 H   0  0  0  0  0  0  0  0  0  0  0  0
  153.9102  141.4149  159.7166 H   0  0  0  0  0  0  0  0  0  0  0  0
  154.4195  141.1168  162.1448 H   0  0  0  0  0  0  0  0  0  0  0  0
  153.3753  142.7525  163.8192 H   0  0  0  0  0  0  0  0  0  0  0  0
  151.4473  144.8359  160.8131 H   0  0  0  0  0  0  0  0  0  0  0  0
  153.0083  140.0663  155.4568 H   0  0  0  0  0  0  0  0  0  0  0  0
  152.4399  139.4570  153.9361 H   0  0  0  0  0  0  0  0  0  0  0  0
  152.0039  144.4405  163.0237 H   0  0  0  0  0  0  0  0  0  0  0  0
  1  2  1  0  0  0  0
  1 22  1  0  0  0  0
  1 23  1  0  0  0  0
  1 24  1  0  0  0  0
  2  3  2  0  0  0  0
  2  4  2  0  0  0  0
  2  5  1  0  0  0  0
  5 21  1  0  0  0  0
  5  6  1  0  0  0  0
  6  7  1  0  0  0  0
  6 25  1  0  0  0  0
  6 26  1  0  0  0  0
  7  8  1  0  0  0  0
  7 27  1  0  0  0  0
  7 28  1  0  0  0  0
  8  9  1  0  0  0  0
  8 29  1  0  0  0  0
  8 30  1  0  0  0  0
  9 10  1  0  0  0  0
  9 21  1  0  0  0  0
  9 31  1  0  0  0  0
 10 11  2  0  0  0  0
 10 12  1  0  0  0  0
 12 13  1  0  0  0  0
 12 32  1  0  0  0  0
 13 14  1  0  0  0  0
 13 33  1  0  0  0  0
 13 34  1  0  0  0  0
 14 15  1  0  0  0  0
 14 35  1  0  0  0  0
 14 36  1  0  0  0  0
 15 20  1  0  0  0  0
 15 16  2  0  0  0  0
 16 17  1  0  0  0  0
 16 37  1  0  0  0  0
 17 18  2  0  0  0  0
 17 38  1  0  0  0  0
 18 19  1  0  0  0  0
 18 39  1  0  0  0  0
 19 20  2  0  0  0  0
 19 43  1  0  0  0  0
 20 40  1  0  0  0  0
 21 41  1  0  0  0  0
 21 42  1  0  0  0  0
M  CHG  1  19   1
M  END
> <s_m_source_file>
AV-unprocessed.smi

> <i_m_source_file_index>
2135

> <i_lp_mmshare_version>
43012

> <i_f3d_flags>
0

> <s_epik_input>
W0NIM11TKD1PKSg9TylOMVtDSDJdW0NIMl1bQ0gyXVtDQEhdKFtDSDJdMSlDKD1PKVtOSF1bQ0gyXVtDSDJdYzJbY0hdW2NIXVtjSF1uW2NIXTI=

> <s_epik_cmdline>
J2VwaWtfcHl0aG9uJywgJy1waCcsICc3LjAnLCAnLXRuJywgJzgnLCAnLW1hJywgJzIwMCcsICctbWV0YWxfYmluZGluZycsICctaW1hZScsICc8aW5maWxlLm1hZT4nLCAnLW9tYWUnLCAnPG91dGZpbGUubWFlPic=

> <r_epik_Ionization_Penalty>
2.24912

> <r_epik_Ionization_Penalty_Charging>
2.24912

> <r_epik_Ionization_Penalty_Neutral>
2.62834e-08

> <r_epik_State_Penalty>
2.39611

> <r_epik_Charging_Adjusted_Penalty>
4.64523

> <i_epik_Tot_Q>
1

> <i_epik_Tot_abs_Q>
1

> <r_epik_Metal_State_Penalty>
2.40934

> <b_epik_Metal_Only>
0

> <s_lp_Force_Field>
OPLS_2005

> <r_lp_Energy>
5.07519

> <b_lp_Chiralities_Consistent>
1

> <s_lp_Variant>
AV-unprocessed.smi:2135-3

> <Gold.Version>
5.8.1

> <Gold.Id.Protein>
6NUR|6NUR_protein|mol2

> <Gold.PLP.Fitness>
49.4447

> <Gold.PLP.PLP>
-46.5004

> <Gold.PLP.part.hbond>
-3.1039

> <Gold.PLP.part.metal>
0.0000

> <Gold.PLP.part.buried>
-3.1779

> <Gold.PLP.part.nonpolar>
-39.7778

> <Gold.PLP.part.repulsive>
0.1544

> <Gold.PLP.ligand.clash>
0.0000

> <Gold.PLP.ligand.torsion>
2.5631

> <Gold.PLP.Chemscore.Hbond>
1.9920

> <Gold.PLP.Chemscore.CHOScore>
0.0000

> <Gold.PLP.Chemscore.Metal>
0.0000

> <Gold.Chemscore.Hbonds>
donor molecule, donor type, donor heavy atom, donor atom, acceptor molecule, acceptor atom, score
      P1  H  7997  8010       L1     3  0.74
      P1  H 10752 10764       L1     4  0.91

> <Gold.PLP.Chemscore.Internal.Correction>
2.0945

> <Gold.Rescore>
     Score         DG    S(hbond)    S(metal)    S(lipo)     H(rot)  DE(clash)    DE(int)     intcor
     17.26     -20.54       1.95        0.00     109.11       1.65       0.07       3.21       ----

> <Gold.Chemscore.Fitness>
17.2604

> <Gold.Chemscore.DG>
-20.5357

> <Gold.Chemscore.ZeroCoef>
-5.4800

> <Gold.Chemscore.Hbond>
1.9531

> <Gold.Chemscore.Metal>
0.0000

> <Gold.Chemscore.Lipo>
109.1115

> <Gold.Chemscore.Internal_Hbond>
0.0000

> <Gold.Chemscore.DEClash>
0.0660

> <Gold.Chemscore.DEInternal>
3.2093

> <Gold.Chemscore.Rot>
1.6538

> <Gold.Chemscore.Internal.Correction>
   9.000000E+99

> <Gold.Chemscore.Hbonds>
donor molecule, donor type, donor heavy atom, donor atom, acceptor molecule, acceptor atom, score
      P1  H  7997  8010       L1     3  0.71
      P1  H 10752 10764       L1     4  0.88

> <Gold.Chemscore.Hbond.Weighted>
-6.5233

> <Gold.Chemscore.Metal.Weighted>
-0.0000

> <Gold.Chemscore.Lipo.Weighted>
-12.7661

> <Gold.Chemscore.Internal_Hbond.Weighted>
0.0000

> <Gold.Chemscore.DEClash.Weighted>
0.0660

> <Gold.Chemscore.DEInternal.Weighted>
3.2093

> <Gold.Chemscore.Rot.Weighted>
4.2337

> <Gold.Chemscore.Internal.Correction.Weighted>
   9.000000E+99

> <Gold.Protein.RotatedTorsions>
[ 6907 6896 6895 6894 ] final  -78.24 input  -60.11 | X-H torsion
[ 7974 7965 7964 7962 ] final  -86.07 input  175.53 | X-H torsion
[ 8008 7997 7996 7995 ] final   36.62 input   59.86 | X-H torsion
[ 10167 10162 10161 10158 ] final   99.12 input  -65.29 | X-H torsion
[ 10718 10713 10712 10709 ] final   18.23 input   66.30 | X-H torsion
[ 10763 10752 10751 10750 ] final  -13.27 input  -60.55 | X-H torsion
[ 11005 11000 10999 10996 ] final  -64.11 input  -57.11 | X-H torsion

> <Gold.Protein.ActiveResidues>
 VAL166  LYS551  ARG553  GLY616  TRP617  ASP618  TYR619  PRO620  LYS621  CYS622 
 ASP623  PHE694  ASN695  SER759  ASP760  ASP761  ALA762  ILE779  LEU786  VAL792 
 PHE793  MET794  SER795  GLU796  ALA797  LYS798  CYS799  TRP800  GLU811  SER814 

> <Gold.Protein.RotatedAtoms>
  150.6978  134.4301  159.5244 H   0  0  0  0  0  0  0  0  0  0  0  0  # atno 6907 bound_to 6896
  152.2029  134.8568  160.0515 H   0  0  0  0  0  0  0  0  0  0  0  0  # atno 6908 bound_to 6896
  151.9482  133.3623  159.4027 H   0  0  0  0  0  0  0  0  0  0  0  0  # atno 6909 bound_to 6896
  145.4848  140.9555  143.1845 H   0  0  0  0  0  0  0  0  0  0  0  0  # atno 7974 bound_to 7965
  155.1904  140.3307  155.4359 H   0  0  0  0  0  0  0  0  0  0  0  0  # atno 8008 bound_to 7997
  156.2444  140.1911  156.6947 H   0  0  0  0  0  0  0  0  0  0  0  0  # atno 8009 bound_to 7997
  154.6210  140.0595  156.9600 H   0  0  0  0  0  0  0  0  0  0  0  0  # atno 8010 bound_to 7997
  139.7646  144.6943  151.0243 H   0  0  0  0  0  0  0  0  0  0  0  0  # atno 10167 bound_to 10162
  157.0934  130.6437  149.5854 H   0  0  0  0  0  0  0  0  0  0  0  0  # atno 10718 bound_to 10713
  153.5108  135.7016  153.5782 H   0  0  0  0  0  0  0  0  0  0  0  0  # atno 10763 bound_to 10752
  153.3873  135.3905  155.1898 H   0  0  0  0  0  0  0  0  0  0  0  0  # atno 10764 bound_to 10752
  154.8703  135.3849  154.4588 H   0  0  0  0  0  0  0  0  0  0  0  0  # atno 10765 bound_to 10752
  141.1414  133.6661  156.5783 H   0  0  0  0  0  0  0  0  0  0  0  0  # atno 11005 bound_to 11000
  144.7868  139.6410  143.7130 LP  0  0  0  0  0  0  0  0  0  0  0  0  # atno 17320 bound_to 7965
  146.2320  139.5831  142.9549 LP  0  0  0  0  0  0  0  0  0  0  0  0  # atno 17321 bound_to 7965
  140.7810  143.4658  151.0214 LP  0  0  0  0  0  0  0  0  0  0  0  0  # atno 17342 bound_to 10162
  139.8343  143.7649  152.3180 LP  0  0  0  0  0  0  0  0  0  0  0  0  # atno 17343 bound_to 10162
  155.9892  130.4938  150.7204 LP  0  0  0  0  0  0  0  0  0  0  0  0  # atno 17370 bound_to 10713
  157.4702  131.0892  151.0651 LP  0  0  0  0  0  0  0  0  0  0  0  0  # atno 17371 bound_to 10713
  140.3858  134.7483  157.4690 LP  0  0  0  0  0  0  0  0  0  0  0  0  # atno 17394 bound_to 11000
  140.0603  134.6005  155.8757 LP  0  0  0  0  0  0  0  0  0  0  0  0  # atno 17395 bound_to 11000

$$$$
