AV-unprocessed.smi:3255|AV-procd|sdf|12462|dock3
  -GOLD-   2272018363D 1   1.00000     0.00000
 Structure written by MMmdl.
 38 39  0  0  0  0  0  0  0  0  1 V2000
  148.2878  140.4486  154.0626 C   0  0  0  0  0  0  0  0  0  0  0  0
  148.8981  139.0882  154.4295 C   0  0  1  0  0  0  0  0  0  0  0  0
  148.2080  138.0350  153.6861 N   0  0  0  0  0  0  0  0  0  0  0  0
  146.8899  137.7940  153.7203 C   0  0  0  0  0  0  0  0  0  0  0  0
  146.0797  138.4631  154.3618 O   0  0  0  0  0  0  0  0  0  0  0  0
  146.5610  136.7237  152.9844 N   0  0  0  0  0  0  0  0  0  0  0  0
  145.2124  136.1831  152.8636 C   0  0  0  0  0  0  0  0  0  0  0  0
  144.8471  135.9086  151.3957 C   0  0  0  0  0  0  0  0  0  0  0  0
  145.2108  134.5628  151.0029 N   0  0  0  0  0  0  0  0  0  0  0  0
  144.3675  133.5828  150.4967 C   0  0  0  0  0  0  0  0  0  0  0  0
  145.1497  132.4742  150.2632 C   0  0  0  0  0  0  0  0  0  0  0  0
  146.4694  132.7487  150.6151 N   0  0  0  0  0  0  0  0  0  0  0  0
  146.4276  134.0037  151.0441 C   0  0  0  0  0  0  0  0  0  0  0  0
  150.4255  139.0589  154.1857 C   0  0  2  0  0  0  0  0  0  0  0  0
  151.1767  137.8307  154.7199 C   0  0  0  0  0  0  0  0  0  0  0  0
  152.5481  138.4007  155.0019 C   0  0  0  0  0  0  0  0  0  0  0  0
  152.1933  139.7834  155.5344 C   0  0  0  0  0  0  0  0  0  0  0  0
  151.0609  140.1927  154.7758 O   0  0  0  0  0  0  0  0  0  0  0  0
  148.7590  141.2542  154.6262 H   0  0  0  0  0  0  0  0  0  0  0  0
  147.2209  140.4729  154.2865 H   0  0  0  0  0  0  0  0  0  0  0  0
  148.4099  140.6695  153.0017 H   0  0  0  0  0  0  0  0  0  0  0  0
  148.7229  138.9399  155.4968 H   0  0  0  0  0  0  0  0  0  0  0  0
  148.7857  137.4251  153.1267 H   0  0  0  0  0  0  0  0  0  0  0  0
  147.2955  136.2377  152.4909 H   0  0  0  0  0  0  0  0  0  0  0  0
  145.1209  135.2727  153.4586 H   0  0  0  0  0  0  0  0  0  0  0  0
  144.5165  136.9048  153.2920 H   0  0  0  0  0  0  0  0  0  0  0  0
  143.7761  136.0423  151.2361 H   0  0  0  0  0  0  0  0  0  0  0  0
  145.3564  136.6086  150.7316 H   0  0  0  0  0  0  0  0  0  0  0  0
  143.3111  133.7519  150.3476 H   0  0  0  0  0  0  0  0  0  0  0  0
  144.8667  131.5085  149.8707 H   0  0  0  0  0  0  0  0  0  0  0  0
  147.3039  134.5294  151.3944 H   0  0  0  0  0  0  0  0  0  0  0  0
  150.6151  139.1380  153.1142 H   0  0  0  0  0  0  0  0  0  0  0  0
  150.7419  137.4621  155.6492 H   0  0  0  0  0  0  0  0  0  0  0  0
  151.1970  137.0053  154.0079 H   0  0  0  0  0  0  0  0  0  0  0  0
  153.1255  137.8048  155.7090 H   0  0  0  0  0  0  0  0  0  0  0  0
  153.1191  138.4874  154.0765 H   0  0  0  0  0  0  0  0  0  0  0  0
  151.9052  139.7242  156.5851 H   0  0  0  0  0  0  0  0  0  0  0  0
  153.0150  140.4942  155.4459 H   0  0  0  0  0  0  0  0  0  0  0  0
  1  2  1  0  0  0  0
  1 19  1  0  0  0  0
  1 20  1  0  0  0  0
  1 21  1  0  0  0  0
  2  3  1  0  0  0  0
  2 14  1  0  0  0  0
  2 22  1  0  0  0  0
  3  4  1  0  0  0  0
  3 23  1  0  0  0  0
  4  5  2  0  0  0  0
  4  6  1  0  0  0  0
  6  7  1  0  0  0  0
  6 24  1  0  0  0  0
  7  8  1  0  0  0  0
  7 25  1  0  0  0  0
  7 26  1  0  0  0  0
  8  9  1  0  0  0  0
  8 27  1  0  0  0  0
  8 28  1  0  0  0  0
  9 13  1  0  0  0  0
  9 10  1  0  0  0  0
 10 11  2  0  0  0  0
 10 29  1  0  0  0  0
 11 12  1  0  0  0  0
 11 30  1  0  0  0  0
 12 13  2  0  0  0  0
 13 31  1  0  0  0  0
 14 18  1  0  0  0  0
 14 15  1  0  0  0  0
 14 32  1  0  0  0  0
 15 16  1  0  0  0  0
 15 33  1  0  0  0  0
 15 34  1  0  0  0  0
 16 17  1  0  0  0  0
 16 35  1  0  0  0  0
 16 36  1  0  0  0  0
 17 18  1  0  0  0  0
 17 37  1  0  0  0  0
 17 38  1  0  0  0  0
M  END
> <s_m_source_file>
AV-unprocessed.smi

> <i_m_source_file_index>
3255

> <i_lp_mmshare_version>
43012

> <i_f3d_flags>
0

> <s_epik_input>
TzFbQ0gyXVtDSDJdW0NIMl1bQ0BIXTFbQ0BIXShbQ0gzXSlbTkhdQyg9TylbTkhdW0NIMl1bQ0gyXW4yW2NIXVtjSF1uW2NIXTI=

> <s_epik_cmdline>
J2VwaWtfcHl0aG9uJywgJy1waCcsICc3LjAnLCAnLXRuJywgJzgnLCAnLW1hJywgJzIwMCcsICctbWV0YWxfYmluZGluZycsICctaW1hZScsICc8aW5maWxlLm1hZT4nLCAnLW9tYWUnLCAnPG91dGZpbGUubWFlPic=

> <r_lp_tautomer_probability>
1

> <r_epik_Ionization_Penalty>
0.620274

> <r_epik_Ionization_Penalty_Charging>
0.620225

> <r_epik_Ionization_Penalty_Neutral>
4.91362e-05

> <r_epik_State_Penalty>
0.636186

> <r_epik_Charging_Adjusted_Penalty>
1.25641

> <i_epik_Tot_Q>
0

> <i_epik_Tot_abs_Q>
0

> <r_epik_Metal_State_Penalty>
0.306491

> <b_epik_Metal_Only>
0

> <s_lp_Force_Field>
OPLS_2005

> <r_lp_Energy>
18.9252

> <b_lp_Chiralities_Consistent>
1

> <s_lp_Variant>
AV-unprocessed.smi:3255-6

> <Gold.Version>
5.8.1

> <Gold.Id.Protein>
6NUR|6NUR_protein|mol2

> <Gold.PLP.Fitness>
48.0272

> <Gold.PLP.PLP>
-33.6984

> <Gold.PLP.part.hbond>
-3.0000

> <Gold.PLP.part.metal>
0.0000

> <Gold.PLP.part.buried>
-4.1458

> <Gold.PLP.part.nonpolar>
-25.9736

> <Gold.PLP.part.repulsive>
0.4034

> <Gold.PLP.ligand.clash>
0.0000

> <Gold.PLP.ligand.torsion>
0.3409

> <Gold.PLP.Chemscore.Hbond>
2.9920

> <Gold.PLP.Chemscore.CHOScore>
2.0000

> <Gold.PLP.Chemscore.Metal>
0.0000

> <Gold.Chemscore.Hbonds>
donor molecule, donor type, donor heavy atom, donor atom, acceptor molecule, acceptor atom, score
      L1  H     3    23       P1  7948  1.00
      L1  H     6    24       P1  7948  0.99
      P1  H  7989  7998       L1    18  1.00
      L1  C    10    29       P1 10186  1.00
      L1  C    13    31       P1  7948  1.00

> <Gold.PLP.Chemscore.Internal.Correction>
0.0346

> <Gold.Rescore>
     Score         DG    S(hbond)    S(metal)    S(lipo)     H(rot)  DE(clash)    DE(int)     intcor
     15.24     -16.60       2.63        0.00      67.74       2.18       0.12       1.23       ----

> <Gold.Chemscore.Fitness>
15.2447

> <Gold.Chemscore.DG>
-16.5972

> <Gold.Chemscore.ZeroCoef>
-5.4800

> <Gold.Chemscore.Hbond>
2.6286

> <Gold.Chemscore.Metal>
0.0000

> <Gold.Chemscore.Lipo>
67.7417

> <Gold.Chemscore.Internal_Hbond>
0.0000

> <Gold.Chemscore.DEClash>
0.1218

> <Gold.Chemscore.DEInternal>
1.2307

> <Gold.Chemscore.Rot>
2.1828

> <Gold.Chemscore.Internal.Correction>
   9.000000E+99

> <Gold.Chemscore.Hbonds>
donor molecule, donor type, donor heavy atom, donor atom, acceptor molecule, acceptor atom, score
      L1  H     3    23       P1  7948  0.95
      L1  H     6    24       P1  7948  0.94
      P1  H  7989  7998       L1    18  0.12

> <Gold.Chemscore.Hbond.Weighted>
-8.7795

> <Gold.Chemscore.Metal.Weighted>
-0.0000

> <Gold.Chemscore.Lipo.Weighted>
-7.9258

> <Gold.Chemscore.Internal_Hbond.Weighted>
0.0000

> <Gold.Chemscore.DEClash.Weighted>
0.1218

> <Gold.Chemscore.DEInternal.Weighted>
1.2307

> <Gold.Chemscore.Rot.Weighted>
5.5881

> <Gold.Chemscore.Internal.Correction.Weighted>
   9.000000E+99

> <Gold.Protein.RotatedTorsions>
[ 6907 6896 6895 6894 ] final  147.13 input  -60.11 | X-H torsion
[ 7974 7965 7964 7962 ] final -145.28 input  175.53 | X-H torsion
[ 8008 7997 7996 7995 ] final   16.31 input   59.86 | X-H torsion
[ 10167 10162 10161 10158 ] final -164.37 input  -65.29 | X-H torsion
[ 10718 10713 10712 10709 ] final  -69.87 input   66.30 | X-H torsion
[ 10763 10752 10751 10750 ] final  -87.71 input  -60.55 | X-H torsion
[ 11005 11000 10999 10996 ] final   -8.74 input  -57.11 | X-H torsion

> <Gold.Protein.ActiveResidues>
 VAL166  LYS551  ARG553  GLY616  TRP617  ASP618  TYR619  PRO620  LYS621  CYS622 
 ASP623  PHE694  ASN695  SER759  ASP760  ASP761  ALA762  ILE779  LEU786  VAL792 
 PHE793  MET794  SER795  GLU796  ALA797  LYS798  CYS799  TRP800  GLU811  SER814 

> <Gold.Protein.RotatedAtoms>
  152.1588  133.4568  159.4850 H   0  0  0  0  0  0  0  0  0  0  0  0  # atno 6907 bound_to 6896
  150.6904  134.2097  159.4363 H   0  0  0  0  0  0  0  0  0  0  0  0  # atno 6908 bound_to 6896
  151.9998  134.9934  160.0615 H   0  0  0  0  0  0  0  0  0  0  0  0  # atno 6909 bound_to 6896
  144.8238  140.5603  143.5560 H   0  0  0  0  0  0  0  0  0  0  0  0  # atno 7974 bound_to 7965
  154.8751  140.2964  155.5458 H   0  0  0  0  0  0  0  0  0  0  0  0  # atno 8008 bound_to 7997
  156.3022  140.2453  156.3679 H   0  0  0  0  0  0  0  0  0  0  0  0  # atno 8009 bound_to 7997
  154.8776  140.0399  157.1751 H   0  0  0  0  0  0  0  0  0  0  0  0  # atno 8010 bound_to 7997
  139.6255  144.0540  152.1971 H   0  0  0  0  0  0  0  0  0  0  0  0  # atno 10167 bound_to 10162
  156.0435  130.4320  150.2211 H   0  0  0  0  0  0  0  0  0  0  0  0  # atno 10718 bound_to 10713
  154.6366  135.5403  153.7741 H   0  0  0  0  0  0  0  0  0  0  0  0  # atno 10763 bound_to 10752
  153.0311  135.6449  154.1222 H   0  0  0  0  0  0  0  0  0  0  0  0  # atno 10764 bound_to 10752
  154.1149  135.2924  155.3202 H   0  0  0  0  0  0  0  0  0  0  0  0  # atno 10765 bound_to 10752
  140.7267  133.8783  155.8861 H   0  0  0  0  0  0  0  0  0  0  0  0  # atno 11005 bound_to 11000
  145.5045  139.1482  143.3639 LP  0  0  0  0  0  0  0  0  0  0  0  0  # atno 17320 bound_to 7965
  146.2544  140.5185  142.8880 LP  0  0  0  0  0  0  0  0  0  0  0  0  # atno 17321 bound_to 7965
  140.0193  144.6165  150.7580 LP  0  0  0  0  0  0  0  0  0  0  0  0  # atno 17342 bound_to 10162
  140.7408  143.2810  151.3600 LP  0  0  0  0  0  0  0  0  0  0  0  0  # atno 17343 bound_to 10162
  157.0303  131.0005  151.3314 LP  0  0  0  0  0  0  0  0  0  0  0  0  # atno 17370 bound_to 10713
  157.5282  130.8041  149.7886 LP  0  0  0  0  0  0  0  0  0  0  0  0  # atno 17371 bound_to 10713
  140.9957  134.1219  157.4366 LP  0  0  0  0  0  0  0  0  0  0  0  0  # atno 17394 bound_to 11000
  139.8835  135.0053  156.6308 LP  0  0  0  0  0  0  0  0  0  0  0  0  # atno 17395 bound_to 11000

$$$$
