AV-unprocessed.smi:1535|AV-procd|sdf|6173|dock1
  -GOLD-   22720 6323D 1   1.00000     0.00000
 Structure written by MMmdl.
 46 47  0  0  0  0  0  0  0  0  1 V2000
  152.1161  144.2610  159.6296 C   0  0  0  0  0  0  0  0  0  0  0  0
  151.9393  143.0421  158.7414 C   0  0  0  0  0  0  0  0  0  0  0  0
  151.0610  143.1185  157.6372 C   0  0  0  0  0  0  0  0  0  0  0  0
  150.8701  142.0084  156.7855 C   0  0  0  0  0  0  0  0  0  0  0  0
  150.0713  141.8637  155.6643 N   0  0  0  0  0  0  0  0  0  0  0  0
  150.3286  140.6073  155.3130 C   0  0  0  0  0  0  0  0  0  0  0  0
  151.1995  139.9190  156.0755 N   0  0  0  0  0  0  0  0  0  0  0  0
  151.6293  138.5453  155.8815 C   0  0  0  0  0  0  0  0  0  0  0  0
  150.9749  137.8923  154.6491 C   0  0  1  0  0  0  0  0  0  0  0  0
  151.8389  136.8958  154.1378 O   0  0  0  0  0  0  0  0  0  0  0  0
  149.6230  137.2389  155.0072 C   0  0  0  0  0  0  0  0  0  0  0  0
  149.6975  135.9205  155.6440 N   0  0  0  0  0  0  0  0  0  0  0  0
  148.5856  135.7588  156.5751 C   0  0  0  0  0  0  0  0  0  0  0  0
  149.7219  134.8301  154.6621 C   0  0  0  0  0  0  0  0  0  0  0  0
  149.4861  133.4189  155.2342 C   0  0  1  0  0  0  0  0  0  0  0  0
  149.6023  132.3519  154.1385 C   0  0  0  0  0  0  0  0  0  0  0  0
  150.4068  133.1227  156.3445 C   0  0  0  0  0  0  0  0  0  0  0  0
  151.1308  132.8897  157.2165 N   0  0  0  0  0  0  0  0  0  0  0  0
  151.5874  140.8097  157.0709 C   0  0  0  0  0  0  0  0  0  0  0  0
  152.4631  140.7213  158.1674 C   0  0  0  0  0  0  0  0  0  0  0  0
  152.6414  141.8394  159.0088 C   0  0  0  0  0  0  0  0  0  0  0  0
  153.5891  141.7333  160.1906 C   0  0  0  0  0  0  0  0  0  0  0  0
  151.5436  145.1111  159.2576 H   0  0  0  0  0  0  0  0  0  0  0  0
  153.1646  144.5571  159.6695 H   0  0  0  0  0  0  0  0  0  0  0  0
  151.7772  144.0466  160.6434 H   0  0  0  0  0  0  0  0  0  0  0  0
  150.5252  144.0338  157.4336 H   0  0  0  0  0  0  0  0  0  0  0  0
  149.8580  140.1597  154.4498 H   0  0  0  0  0  0  0  0  0  0  0  0
  152.7168  138.5247  155.7978 H   0  0  0  0  0  0  0  0  0  0  0  0
  151.3768  137.9828  156.7813 H   0  0  0  0  0  0  0  0  0  0  0  0
  150.8526  138.6596  153.8865 H   0  0  0  0  0  0  0  0  0  0  0  0
  151.6561  136.7819  153.2179 H   0  0  0  0  0  0  0  0  0  0  0  0
  149.0882  137.9283  155.6625 H   0  0  0  0  0  0  0  0  0  0  0  0
  149.0123  137.1607  154.1062 H   0  0  0  0  0  0  0  0  0  0  0  0
  148.6771  134.8370  157.1479 H   0  0  0  0  0  0  0  0  0  0  0  0
  147.6293  135.7446  156.0506 H   0  0  0  0  0  0  0  0  0  0  0  0
  148.5630  136.5761  157.2969 H   0  0  0  0  0  0  0  0  0  0  0  0
  148.9870  135.0304  153.8808 H   0  0  0  0  0  0  0  0  0  0  0  0
  150.6867  134.8050  154.1595 H   0  0  0  0  0  0  0  0  0  0  0  0
  148.4797  133.3513  155.6453 H   0  0  0  0  0  0  0  0  0  0  0  0
  149.4069  131.3575  154.5405 H   0  0  0  0  0  0  0  0  0  0  0  0
  150.6009  132.3430  153.7003 H   0  0  0  0  0  0  0  0  0  0  0  0
  148.8858  132.5314  153.3366 H   0  0  0  0  0  0  0  0  0  0  0  0
  152.9947  139.8009  158.3576 H   0  0  0  0  0  0  0  0  0  0  0  0
  154.0021  140.7283  160.2807 H   0  0  0  0  0  0  0  0  0  0  0  0
  153.0696  141.9646  161.1206 H   0  0  0  0  0  0  0  0  0  0  0  0
  154.4204  142.4289  160.0751 H   0  0  0  0  0  0  0  0  0  0  0  0
  1  2  1  0  0  0  0
  1 23  1  0  0  0  0
  1 24  1  0  0  0  0
  1 25  1  0  0  0  0
  2 21  1  0  0  0  0
  2  3  2  0  0  0  0
  3  4  1  0  0  0  0
  3 26  1  0  0  0  0
  4 19  2  0  0  0  0
  4  5  1  0  0  0  0
  5  6  2  0  0  0  0
  6  7  1  0  0  0  0
  6 27  1  0  0  0  0
  7  8  1  0  0  0  0
  7 19  1  0  0  0  0
  8  9  1  0  0  0  0
  8 28  1  0  0  0  0
  8 29  1  0  0  0  0
  9 10  1  0  0  0  0
  9 11  1  0  0  0  0
  9 30  1  0  0  0  0
 10 31  1  0  0  0  0
 11 12  1  0  0  0  0
 11 32  1  0  0  0  0
 11 33  1  0  0  0  0
 12 13  1  0  0  0  0
 12 14  1  0  0  0  0
 13 34  1  0  0  0  0
 13 35  1  0  0  0  0
 13 36  1  0  0  0  0
 14 15  1  0  0  0  0
 14 37  1  0  0  0  0
 14 38  1  0  0  0  0
 15 16  1  0  0  0  0
 15 17  1  0  0  0  0
 15 39  1  0  0  0  0
 16 40  1  0  0  0  0
 16 41  1  0  0  0  0
 16 42  1  0  0  0  0
 17 18  3  0  0  0  0
 19 20  1  0  0  0  0
 20 21  2  0  0  0  0
 20 43  1  0  0  0  0
 21 22  1  0  0  0  0
 22 44  1  0  0  0  0
 22 45  1  0  0  0  0
 22 46  1  0  0  0  0
M  END
> <s_m_source_file>
AV-unprocessed.smi

> <i_m_source_file_index>
1535

> <i_lp_mmshare_version>
43012

> <i_f3d_flags>
0

> <s_epik_input>
W0NIM11jKFtjSF0xKWMoW0NIM10pW2NIXWMoYzEyKW4oW2NIXW4yKVtDSDJdW0NASF0oW09IXSlbQ0gyXU4oW0NIM10pW0NIMl1bQ0BIXShbQ0gzXSlDI04=

> <s_epik_cmdline>
J2VwaWtfcHl0aG9uJywgJy1waCcsICc3LjAnLCAnLXRuJywgJzgnLCAnLW1hJywgJzIwMCcsICctbWV0YWxfYmluZGluZycsICctaW1hZScsICc8aW5maWxlLm1hZT4nLCAnLW9tYWUnLCAnPG91dGZpbGUubWFlPic=

> <r_epik_Ionization_Penalty>
0.098511

> <r_epik_Ionization_Penalty_Charging>
0

> <r_epik_Ionization_Penalty_Neutral>
0.098511

> <r_epik_State_Penalty>
0.0881608

> <r_epik_Charging_Adjusted_Penalty>
0.0881608

> <i_epik_Tot_Q>
0

> <i_epik_Tot_abs_Q>
0

> <r_epik_Metal_State_Penalty>
0.0128087

> <b_epik_Metal_Only>
0

> <s_lp_Force_Field>
OPLS_2005

> <r_lp_Energy>
24.0286

> <b_lp_Chiralities_Consistent>
1

> <s_lp_Variant>
AV-unprocessed.smi:1535-4

> <Gold.Version>
5.8.1

> <Gold.Id.Protein>
6NUR|6NUR_protein|mol2

> <Gold.PLP.Fitness>
51.4811

> <Gold.PLP.PLP>
-44.0395

> <Gold.PLP.part.hbond>
-3.0000

> <Gold.PLP.part.metal>
0.0000

> <Gold.PLP.part.buried>
-3.8040

> <Gold.PLP.part.nonpolar>
-37.5232

> <Gold.PLP.part.repulsive>
0.4451

> <Gold.PLP.ligand.clash>
0.0000

> <Gold.PLP.ligand.torsion>
1.0221

> <Gold.PLP.Chemscore.Hbond>
2.9760

> <Gold.PLP.Chemscore.CHOScore>
0.0000

> <Gold.PLP.Chemscore.Metal>
0.0000

> <Gold.Chemscore.Hbonds>
donor molecule, donor type, donor heavy atom, donor atom, acceptor molecule, acceptor atom, score
      L1  H    10    31       P1  7949  1.00
      P1  H  6896  6909       L1    18  0.90
      P1  H 10752 10764       L1    10  1.00

> <Gold.PLP.Chemscore.Internal.Correction>
0.5577

> <Gold.Rescore>
     Score         DG    S(hbond)    S(metal)    S(lipo)     H(rot)  DE(clash)    DE(int)     intcor
     19.45     -20.60       2.67        0.00     107.94       2.51       0.01       1.14       ----

> <Gold.Chemscore.Fitness>
19.4485

> <Gold.Chemscore.DG>
-20.6008

> <Gold.Chemscore.ZeroCoef>
-5.4800

> <Gold.Chemscore.Hbond>
2.6707

> <Gold.Chemscore.Metal>
0.0000

> <Gold.Chemscore.Lipo>
107.9449

> <Gold.Chemscore.Internal_Hbond>
0.0000

> <Gold.Chemscore.DEClash>
0.0095

> <Gold.Chemscore.DEInternal>
1.1428

> <Gold.Chemscore.Rot>
2.5113

> <Gold.Chemscore.Internal.Correction>
   9.000000E+99

> <Gold.Chemscore.Hbonds>
donor molecule, donor type, donor heavy atom, donor atom, acceptor molecule, acceptor atom, score
      L1  H    10    31       P1  7949  0.95
      P1  H  6896  6909       L1    18  0.83
      P1  H 10752 10764       L1    10  0.29

> <Gold.Chemscore.Hbond.Weighted>
-8.9201

> <Gold.Chemscore.Metal.Weighted>
-0.0000

> <Gold.Chemscore.Lipo.Weighted>
-12.6296

> <Gold.Chemscore.Internal_Hbond.Weighted>
0.0000

> <Gold.Chemscore.DEClash.Weighted>
0.0095

> <Gold.Chemscore.DEInternal.Weighted>
1.1428

> <Gold.Chemscore.Rot.Weighted>
6.4289

> <Gold.Chemscore.Internal.Correction.Weighted>
   9.000000E+99

> <Gold.Protein.RotatedTorsions>
[ 6907 6896 6895 6894 ] final  -39.58 input  -60.11 | X-H torsion
[ 7974 7965 7964 7962 ] final  -66.20 input  175.53 | X-H torsion
[ 8008 7997 7996 7995 ] final  -53.81 input   59.86 | X-H torsion
[ 10167 10162 10161 10158 ] final  106.74 input  -65.29 | X-H torsion
[ 10718 10713 10712 10709 ] final -134.70 input   66.30 | X-H torsion
[ 10763 10752 10751 10750 ] final  -69.01 input  -60.55 | X-H torsion
[ 11005 11000 10999 10996 ] final  -46.73 input  -57.11 | X-H torsion

> <Gold.Protein.ActiveResidues>
 VAL166  LYS551  ARG553  GLY616  TRP617  ASP618  TYR619  PRO620  LYS621  CYS622 
 ASP623  PHE694  ASN695  SER759  ASP760  ASP761  ALA762  ILE779  LEU786  VAL792 
 PHE793  MET794  SER795  GLU796  ALA797  LYS798  CYS799  TRP800  GLU811  SER814 

> <Gold.Protein.RotatedAtoms>
  150.9886  134.9226  159.7886 H   0  0  0  0  0  0  0  0  0  0  0  0  # atno 6907 bound_to 6896
  152.5244  134.3312  159.9193 H   0  0  0  0  0  0  0  0  0  0  0  0  # atno 6908 bound_to 6896
  151.3318  133.3956  159.2698 H   0  0  0  0  0  0  0  0  0  0  0  0  # atno 6909 bound_to 6896
  145.7447  140.8937  143.0511 H   0  0  0  0  0  0  0  0  0  0  0  0  # atno 7974 bound_to 7965
  154.4144  140.1191  156.5214 H   0  0  0  0  0  0  0  0  0  0  0  0  # atno 8008 bound_to 7997
  155.6699  140.3496  155.4795 H   0  0  0  0  0  0  0  0  0  0  0  0  # atno 8009 bound_to 7997
  155.9642  140.1129  157.0859 H   0  0  0  0  0  0  0  0  0  0  0  0  # atno 8010 bound_to 7997
  139.6984  144.7098  151.1227 H   0  0  0  0  0  0  0  0  0  0  0  0  # atno 10167 bound_to 10162
  156.2582  130.7194  151.1118 H   0  0  0  0  0  0  0  0  0  0  0  0  # atno 10718 bound_to 10713
  154.3973  135.6039  153.5877 H   0  0  0  0  0  0  0  0  0  0  0  0  # atno 10763 bound_to 10752
  152.9788  135.5898  154.4227 H   0  0  0  0  0  0  0  0  0  0  0  0  # atno 10764 bound_to 10752
  154.4020  135.2843  155.2069 H   0  0  0  0  0  0  0  0  0  0  0  0  # atno 10765 bound_to 10752
  141.0597  133.6713  156.3197 H   0  0  0  0  0  0  0  0  0  0  0  0  # atno 11005 bound_to 11000
  144.6863  139.9509  143.7478 LP  0  0  0  0  0  0  0  0  0  0  0  0  # atno 17320 bound_to 7965
  146.0414  139.3425  143.0695 LP  0  0  0  0  0  0  0  0  0  0  0  0  # atno 17321 bound_to 7965
  140.7703  143.5458  150.9260 LP  0  0  0  0  0  0  0  0  0  0  0  0  # atno 17342 bound_to 10162
  139.9139  143.6687  152.3110 LP  0  0  0  0  0  0  0  0  0  0  0  0  # atno 17343 bound_to 10162
  157.7241  131.0662  150.6011 LP  0  0  0  0  0  0  0  0  0  0  0  0  # atno 17370 bound_to 10713
  156.6096  130.4376  149.5864 LP  0  0  0  0  0  0  0  0  0  0  0  0  # atno 17371 bound_to 10713
  140.5893  134.5667  157.5496 LP  0  0  0  0  0  0  0  0  0  0  0  0  # atno 17394 bound_to 11000
  139.9422  134.7767  156.0651 LP  0  0  0  0  0  0  0  0  0  0  0  0  # atno 17395 bound_to 11000

$$$$
