AV-unprocessed.smi:37|AV-procd|sdf|327|dock4
  -GOLD-   2262016153D 1   1.00000     0.00000
 Structure written by MMmdl.
 43 44  0  0  0  0  0  0  0  0  2 V2000
  149.1264  133.4527  154.2261 C   0  0  0  0  0  0  0  0  0  0  0  0
  149.7390  132.3189  155.0594 C   0  0  0  0  0  0  0  0  0  0  0  0
  149.5397  132.5299  156.5589 C   0  0  0  0  0  0  0  0  0  0  0  0
  150.4983  132.6451  157.3232 O   0  0  0  0  0  0  0  0  0  0  0  0
  148.2447  132.5601  156.9105 O   0  0  0  0  0  0  0  0  0  0  0  0
  147.8402  133.3270  158.0321 C   0  0  0  0  0  0  0  0  0  0  0  0
  148.1496  134.8069  157.7708 C   0  0  2  0  0  0  0  0  0  0  0  0
  149.4775  135.1355  158.1633 O   0  0  0  0  0  0  0  0  0  0  0  0
  149.5539  136.4911  158.5023 C   0  0  1  0  0  0  0  0  0  0  0  0
  150.4944  137.2053  157.5579 N   0  0  0  0  0  0  0  0  0  0  0  0
  150.5133  138.5876  157.4676 C   0  0  0  0  0  0  0  0  0  0  0  0
  151.3530  139.2197  156.6223 C   0  0  0  0  0  0  0  0  0  0  0  0
  151.3524  140.5623  156.5589 F   0  0  0  0  0  0  0  0  0  0  0  0
  152.2594  138.4377  155.7830 C   0  0  0  0  0  0  0  0  0  0  0  0
  153.0198  139.0199  155.0108 O   0  0  0  0  0  0  0  0  0  0  0  0
  152.2203  137.0782  155.8958 N   0  5  0  0  0  0  0  0  0  0  0  0
  151.3753  136.4339  156.7527 C   0  0  0  0  0  0  0  0  0  0  0  0
  151.3390  135.2088  156.8717 O   0  0  0  0  0  0  0  0  0  0  0  0
  148.1189  137.0606  158.4746 C   0  0  1  0  0  0  0  0  0  0  0  0
  147.6588  137.9895  156.7645 Br  0  0  0  0  0  0  0  0  0  0  0  0
  147.2856  135.7938  158.5600 C   0  0  2  0  0  0  0  0  0  0  0  0
  147.1621  135.3618  159.9115 O   0  0  0  0  0  0  0  0  0  0  0  0
  146.7664  136.2197  160.8690 C   0  0  0  0  0  0  0  0  0  0  0  0
  146.4473  137.3963  160.6978 O   0  0  0  0  0  0  0  0  0  0  0  0
  146.7632  135.5887  162.2597 C   0  0  0  0  0  0  0  0  0  0  0  0
  147.0080  134.0741  162.2129 C   0  0  0  0  0  0  0  0  0  0  0  0
  149.3284  133.3003  153.1659 H   0  0  0  0  0  0  0  0  0  0  0  0
  149.5432  134.4209  154.5059 H   0  0  0  0  0  0  0  0  0  0  0  0
  148.0440  133.5024  154.3511 H   0  0  0  0  0  0  0  0  0  0  0  0
  149.2962  131.3642  154.7751 H   0  0  0  0  0  0  0  0  0  0  0  0
  150.8072  132.2453  154.8540 H   0  0  0  0  0  0  0  0  0  0  0  0
  146.7676  133.1943  158.1799 H   0  0  0  0  0  0  0  0  0  0  0  0
  148.3432  132.9828  158.9371 H   0  0  0  0  0  0  0  0  0  0  0  0
  148.0404  135.0223  156.7065 H   0  0  0  0  0  0  0  0  0  0  0  0
  150.0188  136.5475  159.4881 H   0  0  0  0  0  0  0  0  0  0  0  0
  149.8558  139.1824  158.0834 H   0  0  0  0  0  0  0  0  0  0  0  0
  147.9571  137.7619  159.2940 H   0  0  0  0  0  0  0  0  0  0  0  0
  146.3006  135.9107  158.1055 H   0  0  0  0  0  0  0  0  0  0  0  0
  147.5280  136.0728  162.8675 H   0  0  0  0  0  0  0  0  0  0  0  0
  145.8041  135.7929  162.7363 H   0  0  0  0  0  0  0  0  0  0  0  0
  146.9569  133.6466  163.2144 H   0  0  0  0  0  0  0  0  0  0  0  0
  147.9924  133.8392  161.8057 H   0  0  0  0  0  0  0  0  0  0  0  0
  146.2602  133.5698  161.5998 H   0  0  0  0  0  0  0  0  0  0  0  0
  1  2  1  0  0  0  0
  1 27  1  0  0  0  0
  1 28  1  0  0  0  0
  1 29  1  0  0  0  0
  2  3  1  0  0  0  0
  2 30  1  0  0  0  0
  2 31  1  0  0  0  0
  3  4  2  0  0  0  0
  3  5  1  0  0  0  0
  5  6  1  0  0  0  0
  6  7  1  0  0  0  0
  6 32  1  0  0  0  0
  6 33  1  0  0  0  0
  7 21  1  0  0  0  0
  7  8  1  0  0  0  0
  7 34  1  0  0  0  0
  8  9  1  0  0  0  0
  9 10  1  0  0  0  0
  9 19  1  0  0  0  0
  9 35  1  0  0  0  0
 10 17  1  0  0  0  0
 10 11  1  0  0  0  0
 11 12  2  0  0  0  0
 11 36  1  0  0  0  0
 12 13  1  0  0  0  0
 12 14  1  0  0  0  0
 14 15  2  0  0  0  0
 14 16  1  0  0  0  0
 16 17  1  0  0  0  0
 17 18  2  0  0  0  0
 19 20  1  0  0  0  0
 19 21  1  0  0  0  0
 19 37  1  0  0  0  0
 21 22  1  0  0  0  0
 21 38  1  0  0  0  0
 22 23  1  0  0  0  0
 23 24  2  0  0  0  0
 23 25  1  0  0  0  0
 25 26  1  0  0  0  0
 25 39  1  0  0  0  0
 25 40  1  0  0  0  0
 26 41  1  0  0  0  0
 26 42  1  0  0  0  0
 26 43  1  0  0  0  0
M  CHG  1  16  -1
M  END
> <s_m_source_file>
AV-unprocessed.smi

> <i_m_source_file_index>
37

> <i_lp_mmshare_version>
43012

> <i_f3d_flags>
0

> <s_epik_input>
W0NIM11bQ0gyXUMoPU8pT1tDSDJdW0NAQEhdMU9bQ0BASF0objJbY0hdYyhGKWMoPU8pW25IXWMyPU8pW0NAQEhdKEJyKVtDQEhdMU9DKD1PKVtDSDJdW0NIM10=

> <s_epik_cmdline>
J2VwaWtfcHl0aG9uJywgJy1waCcsICc3LjAnLCAnLXRuJywgJzgnLCAnLW1hJywgJzIwMCcsICctbWV0YWxfYmluZGluZycsICctaW1hZScsICc8aW5maWxlLm1hZT4nLCAnLW9tYWUnLCAnPG91dGZpbGUubWFlPic=

> <r_epik_Ionization_Penalty>
1.08158

> <r_epik_Ionization_Penalty_Charging>
9.05154e-09

> <r_epik_Ionization_Penalty_Neutral>
1.08158

> <r_epik_State_Penalty>
1.13706

> <r_epik_Charging_Adjusted_Penalty>
1.13706

> <i_epik_Tot_Q>
-1

> <i_epik_Tot_abs_Q>
1

> <r_epik_Metal_State_Penalty>
0.00343535

> <b_epik_Metal_Only>
0

> <s_epik_Chemistry_Notes>
This compound has an ester and may undergo hydrolysis at high or low pH. This compound contains an acetal/aminal-like group ( X-CH(R)-Y where X, Y are N, S, or O) that may be acid/base labile, releasing an aldehyde.

> <s_lp_Force_Field>
OPLS_2005

> <r_lp_Energy>
34.9368

> <b_lp_Chiralities_Consistent>
1

> <s_lp_Variant>
AV-unprocessed.smi:37-25

> <Gold.Version>
5.8.1

> <Gold.Id.Protein>
6NUR|6NUR_protein|mol2

> <Gold.PLP.Fitness>
40.0853

> <Gold.PLP.PLP>
-34.9402

> <Gold.PLP.part.hbond>
-5.9495

> <Gold.PLP.part.metal>
0.0000

> <Gold.PLP.part.buried>
-5.6144

> <Gold.PLP.part.nonpolar>
-24.7857

> <Gold.PLP.part.repulsive>
0.0078

> <Gold.PLP.ligand.clash>
8.8926

> <Gold.PLP.ligand.torsion>
1.2402

> <Gold.PLP.Chemscore.Hbond>
5.4160

> <Gold.PLP.Chemscore.CHOScore>
0.0000

> <Gold.PLP.Chemscore.Metal>
0.0000

> <Gold.Chemscore.Hbonds>
donor molecule, donor type, donor heavy atom, donor atom, acceptor molecule, acceptor atom, score
      P1  H  6896  6908       L1     4  0.10
      P1  H  6896  6909       L1     8  0.55
      P1  H  6934  6947       L1    24  1.00
      P1  H  7997  8010       L1    15  0.81
      P1  H 10752 10764       L1    16  1.82

> <Gold.PLP.Chemscore.Internal.Correction>
0.2702

> <Gold.Rescore>
     Score         DG    S(hbond)    S(metal)    S(lipo)     H(rot)  DE(clash)    DE(int)     intcor
      8.88     -14.32       3.47        0.00      47.91       3.27       0.00       5.44       ----

> <Gold.Chemscore.Fitness>
8.8822

> <Gold.Chemscore.DG>
-14.3176

> <Gold.Chemscore.ZeroCoef>
-5.4800

> <Gold.Chemscore.Hbond>
3.4718

> <Gold.Chemscore.Metal>
0.0000

> <Gold.Chemscore.Lipo>
47.9072

> <Gold.Chemscore.Internal_Hbond>
0.0000

> <Gold.Chemscore.DEClash>
0.0000

> <Gold.Chemscore.DEInternal>
5.4354

> <Gold.Chemscore.Rot>
3.2669

> <Gold.Chemscore.Internal.Correction>
   9.000000E+99

> <Gold.Chemscore.Hbonds>
donor molecule, donor type, donor heavy atom, donor atom, acceptor molecule, acceptor atom, score
      P1  H  6896  6908       L1     4  0.11
      P1  H  6896  6909       L1     8  0.03
      P1  H  6934  6947       L1    24  1.00
      P1  H  7997  8010       L1    15  0.74
      P1  H 10752 10764       L1    16  0.25

> <Gold.Chemscore.Hbond.Weighted>
-11.5958

> <Gold.Chemscore.Metal.Weighted>
-0.0000

> <Gold.Chemscore.Lipo.Weighted>
-5.6051

> <Gold.Chemscore.Internal_Hbond.Weighted>
0.0000

> <Gold.Chemscore.DEClash.Weighted>
0.0000

> <Gold.Chemscore.DEInternal.Weighted>
5.4354

> <Gold.Chemscore.Rot.Weighted>
8.3634

> <Gold.Chemscore.Internal.Correction.Weighted>
   9.000000E+99

> <Gold.Protein.RotatedTorsions>
[ 6907 6896 6895 6894 ] final   57.16 input  -60.11 | X-H torsion
[ 7974 7965 7964 7962 ] final    8.68 input  175.53 | X-H torsion
[ 8008 7997 7996 7995 ] final  121.00 input   59.86 | X-H torsion
[ 10167 10162 10161 10158 ] final  176.62 input  -65.29 | X-H torsion
[ 10718 10713 10712 10709 ] final  117.52 input   66.30 | X-H torsion
[ 10763 10752 10751 10750 ] final  -30.69 input  -60.55 | X-H torsion
[ 11005 11000 10999 10996 ] final   78.42 input  -57.11 | X-H torsion

> <Gold.Protein.ActiveResidues>
 VAL166  LYS551  ARG553  GLY616  TRP617  ASP618  TYR619  PRO620  LYS621  CYS622 
 ASP623  PHE694  ASN695  SER759  ASP760  ASP761  ALA762  ILE779  LEU786  VAL792 
 PHE793  MET794  SER795  GLU796  ALA797  LYS798  CYS799  TRP800  GLU811  SER814 

> <Gold.Protein.RotatedAtoms>
  152.3704  134.6741  160.0177 H   0  0  0  0  0  0  0  0  0  0  0  0  # atno 6907 bound_to 6896
  151.7036  133.3306  159.3281 H   0  0  0  0  0  0  0  0  0  0  0  0  # atno 6908 bound_to 6896
  150.7670  134.6529  159.6342 H   0  0  0  0  0  0  0  0  0  0  0  0  # atno 6909 bound_to 6896
  146.2413  139.9897  142.8427 H   0  0  0  0  0  0  0  0  0  0  0  0  # atno 7974 bound_to 7965
  156.2667  140.2818  156.1239 H   0  0  0  0  0  0  0  0  0  0  0  0  # atno 8008 bound_to 7997
  155.1126  140.0391  157.2746 H   0  0  0  0  0  0  0  0  0  0  0  0  # atno 8009 bound_to 7997
  154.6731  140.2592  155.6992 H   0  0  0  0  0  0  0  0  0  0  0  0  # atno 8010 bound_to 7997
  139.5221  144.2893  152.0477 H   0  0  0  0  0  0  0  0  0  0  0  0  # atno 10167 bound_to 10162
  157.6091  131.1038  150.7627 H   0  0  0  0  0  0  0  0  0  0  0  0  # atno 10718 bound_to 10713
  153.7852  135.6902  153.4881 H   0  0  0  0  0  0  0  0  0  0  0  0  # atno 10763 bound_to 10752
  153.1785  135.4515  154.9996 H   0  0  0  0  0  0  0  0  0  0  0  0  # atno 10764 bound_to 10752
  154.8066  135.3359  154.7352 H   0  0  0  0  0  0  0  0  0  0  0  0  # atno 10765 bound_to 10752
  139.9213  134.7762  156.1647 H   0  0  0  0  0  0  0  0  0  0  0  0  # atno 11005 bound_to 11000
  145.1515  140.9625  143.4430 LP  0  0  0  0  0  0  0  0  0  0  0  0  # atno 17320 bound_to 7965
  145.0201  139.3432  143.6076 LP  0  0  0  0  0  0  0  0  0  0  0  0  # atno 17321 bound_to 7965
  140.2345  144.4334  150.6286 LP  0  0  0  0  0  0  0  0  0  0  0  0  # atno 17342 bound_to 10162
  140.6333  143.2191  151.6450 LP  0  0  0  0  0  0  0  0  0  0  0  0  # atno 17343 bound_to 10162
  156.8008  130.4920  149.5370 LP  0  0  0  0  0  0  0  0  0  0  0  0  # atno 17370 bound_to 10713
  156.1187  130.6094  151.0160 LP  0  0  0  0  0  0  0  0  0  0  0  0  # atno 17371 bound_to 10713
  141.0736  133.6785  156.2191 LP  0  0  0  0  0  0  0  0  0  0  0  0  # atno 17394 bound_to 11000
  140.6465  134.5111  157.5574 LP  0  0  0  0  0  0  0  0  0  0  0  0  # atno 17395 bound_to 11000

$$$$
