AV-unprocessed.smi:1826|AV-procd|sdf|7417|dock8
  -GOLD-   22720 9 93D 1   1.00000     0.00000
 Structure written by MMmdl.
 40 42  0  0  0  0  0  0  0  0  2 V2000
  147.0510  138.4407  151.2648 O   0  0  0  0  0  0  0  0  0  0  0  0
  147.0920  138.8873  152.6020 C   0  0  0  0  0  0  0  0  0  0  0  0
  148.4692  139.2748  153.0289 C   0  0  0  0  0  0  0  0  0  0  0  0
  149.6082  138.5648  152.7912 N   0  3  0  0  0  0  0  0  0  0  0  0
  150.7052  139.2361  153.3333 C   0  0  0  0  0  0  0  0  0  0  0  0
  152.0581  138.9106  153.3470 C   0  0  0  0  0  0  0  0  0  0  0  0
  152.9215  139.8216  153.9907 C   0  0  0  0  0  0  0  0  0  0  0  0
  152.4315  141.0018  154.5874 C   0  0  0  0  0  0  0  0  0  0  0  0
  151.0579  141.3214  154.5666 C   0  0  0  0  0  0  0  0  0  0  0  0
  150.2118  140.4147  153.9290 C   0  0  0  0  0  0  0  0  0  0  0  0
  148.8294  140.3963  153.7176 N   0  0  0  0  0  0  0  0  0  0  0  0
  148.0109  141.5078  154.2262 C   0  0  0  0  0  0  0  0  0  0  0  0
  147.3745  142.3515  153.1035 C   0  0  2  0  0  0  0  0  0  0  0  0
  148.3513  143.1952  152.5239 O   0  0  0  0  0  0  0  0  0  0  0  0
  146.1715  143.1284  153.6142 C   0  0  0  0  0  0  0  0  0  0  0  0
  145.8537  143.1137  154.9883 C   0  0  0  0  0  0  0  0  0  0  0  0
  144.7462  143.8386  155.4696 C   0  0  0  0  0  0  0  0  0  0  0  0
  143.9458  144.5919  154.5839 C   0  0  0  0  0  0  0  0  0  0  0  0
  142.7431  145.3659  155.1037 C   0  0  0  0  0  0  0  0  0  0  0  0
  141.8693  144.5496  155.6940 F   0  0  0  0  0  0  0  0  0  0  0  0
  143.1546  146.2690  155.9928 F   0  0  0  0  0  0  0  0  0  0  0  0
  142.1174  145.9966  154.1093 F   0  0  0  0  0  0  0  0  0  0  0  0
  144.2632  144.6035  153.2085 C   0  0  0  0  0  0  0  0  0  0  0  0
  145.3709  143.8796  152.7268 C   0  0  0  0  0  0  0  0  0  0  0  0
  147.7854  137.8641  151.1173 H   0  0  0  0  0  0  0  0  0  0  0  0
  146.4214  139.7390  152.7164 H   0  0  0  0  0  0  0  0  0  0  0  0
  146.7186  138.0964  153.2530 H   0  0  0  0  0  0  0  0  0  0  0  0
  152.4358  138.0074  152.8903 H   0  0  0  0  0  0  0  0  0  0  0  0
  153.9806  139.6111  154.0274 H   0  0  0  0  0  0  0  0  0  0  0  0
  153.1235  141.6758  155.0711 H   0  0  0  0  0  0  0  0  0  0  0  0
  150.6918  142.2275  155.0264 H   0  0  0  0  0  0  0  0  0  0  0  0
  147.2454  141.0965  154.8856 H   0  0  0  0  0  0  0  0  0  0  0  0
  148.6500  142.1300  154.8538 H   0  0  0  0  0  0  0  0  0  0  0  0
  147.0352  141.6856  152.3093 H   0  0  0  0  0  0  0  0  0  0  0  0
  148.7776  142.7226  151.8251 H   0  0  0  0  0  0  0  0  0  0  0  0
  146.4578  142.5460  155.6809 H   0  0  0  0  0  0  0  0  0  0  0  0
  144.5129  143.8120  156.5239 H   0  0  0  0  0  0  0  0  0  0  0  0
  143.6575  145.1679  152.5148 H   0  0  0  0  0  0  0  0  0  0  0  0
  145.6045  143.9042  151.6723 H   0  0  0  0  0  0  0  0  0  0  0  0
  149.6297  137.6855  152.2913 H   0  0  0  0  0  0  0  0  0  0  0  0
  1  2  1  0  0  0  0
  1 25  1  0  0  0  0
  2  3  1  0  0  0  0
  2 26  1  0  0  0  0
  2 27  1  0  0  0  0
  3 11  1  0  0  0  0
  3  4  2  0  0  0  0
  4  5  1  0  0  0  0
  4 40  1  0  0  0  0
  5 10  2  0  0  0  0
  5  6  1  0  0  0  0
  6  7  2  0  0  0  0
  6 28  1  0  0  0  0
  7  8  1  0  0  0  0
  7 29  1  0  0  0  0
  8  9  2  0  0  0  0
  8 30  1  0  0  0  0
  9 10  1  0  0  0  0
  9 31  1  0  0  0  0
 10 11  1  0  0  0  0
 11 12  1  0  0  0  0
 12 13  1  0  0  0  0
 12 32  1  0  0  0  0
 12 33  1  0  0  0  0
 13 14  1  0  0  0  0
 13 15  1  0  0  0  0
 13 34  1  0  0  0  0
 14 35  1  0  0  0  0
 15 24  1  0  0  0  0
 15 16  2  0  0  0  0
 16 17  1  0  0  0  0
 16 36  1  0  0  0  0
 17 18  2  0  0  0  0
 17 37  1  0  0  0  0
 18 19  1  0  0  0  0
 18 23  1  0  0  0  0
 19 20  1  0  0  0  0
 19 21  1  0  0  0  0
 19 22  1  0  0  0  0
 23 24  2  0  0  0  0
 23 38  1  0  0  0  0
 24 39  1  0  0  0  0
M  CHG  1   4   1
M  END
> <s_m_source_file>
AV-unprocessed.smi

> <i_m_source_file_index>
1826

> <i_lp_mmshare_version>
43012

> <i_f3d_flags>
0

> <s_epik_input>
W2NIXTFbY0hdW2NIXVtjSF1jKGMxMiluKGMobjIpW0NIMl1bT0hdKVtDSDJdW0NASF0oW09IXSljM1tjSF1bY0hdYyhDKEYpKEYpRilbY0hdW2NIXTM=

> <s_epik_cmdline>
J2VwaWtfcHl0aG9uJywgJy1waCcsICc3LjAnLCAnLXRuJywgJzgnLCAnLW1hJywgJzIwMCcsICctbWV0YWxfYmluZGluZycsICctaW1hZScsICc8aW5maWxlLm1hZT4nLCAnLW9tYWUnLCAnPG91dGZpbGUubWFlPic=

> <r_epik_Ionization_Penalty>
1.35643

> <r_epik_Ionization_Penalty_Charging>
1.35557

> <r_epik_Ionization_Penalty_Neutral>
0.000856405

> <r_epik_State_Penalty>
1.43401

> <r_epik_Charging_Adjusted_Penalty>
2.78958

> <i_epik_Tot_Q>
1

> <i_epik_Tot_abs_Q>
1

> <r_epik_Metal_State_Penalty>
5.47166

> <b_epik_Metal_Only>
0

> <s_lp_Force_Field>
OPLS_2005

> <r_lp_Energy>
15.9337

> <b_lp_Chiralities_Consistent>
1

> <s_lp_Variant>
AV-unprocessed.smi:1826-3

> <Gold.Version>
5.8.1

> <Gold.Id.Protein>
6NUR|6NUR_protein|mol2

> <Gold.PLP.Fitness>
58.4323

> <Gold.PLP.PLP>
-47.3791

> <Gold.PLP.part.hbond>
-7.3706

> <Gold.PLP.part.metal>
0.0000

> <Gold.PLP.part.buried>
-3.0426

> <Gold.PLP.part.nonpolar>
-38.1999

> <Gold.PLP.part.repulsive>
0.0646

> <Gold.PLP.ligand.clash>
1.3593

> <Gold.PLP.ligand.torsion>
0.4256

> <Gold.PLP.Chemscore.Hbond>
3.9588

> <Gold.PLP.Chemscore.CHOScore>
0.0000

> <Gold.PLP.Chemscore.Metal>
0.0000

> <Gold.Chemscore.Hbonds>
donor molecule, donor type, donor heavy atom, donor atom, acceptor molecule, acceptor atom, score
      L1  H     1    25       P1  7948  0.81
      L1  H     4    40       P1  7948  2.00
      P1  H  8022  8030       L1    14  0.16

> <Gold.PLP.Chemscore.Internal.Correction>
1.3875

> <Gold.Rescore>
     Score         DG    S(hbond)    S(metal)    S(lipo)     H(rot)  DE(clash)    DE(int)     intcor
     16.07     -16.92       2.57        0.00      89.53       2.98       0.33       0.52       ----

> <Gold.Chemscore.Fitness>
16.0698

> <Gold.Chemscore.DG>
-16.9192

> <Gold.Chemscore.ZeroCoef>
-5.4800

> <Gold.Chemscore.Hbond>
2.5745

> <Gold.Chemscore.Metal>
0.0000

> <Gold.Chemscore.Lipo>
89.5274

> <Gold.Chemscore.Internal_Hbond>
0.0000

> <Gold.Chemscore.DEClash>
0.3304

> <Gold.Chemscore.DEInternal>
0.5190

> <Gold.Chemscore.Rot>
2.9822

> <Gold.Chemscore.Internal.Correction>
   9.000000E+99

> <Gold.Chemscore.Hbonds>
donor molecule, donor type, donor heavy atom, donor atom, acceptor molecule, acceptor atom, score
      L1  H     1    25       P1  7948  0.77
      L1  H     4    40       P1  7948  0.25
      P1  H  8022  8030       L1    14  0.13

> <Gold.Chemscore.Hbond.Weighted>
-8.5988

> <Gold.Chemscore.Metal.Weighted>
-0.0000

> <Gold.Chemscore.Lipo.Weighted>
-10.4747

> <Gold.Chemscore.Internal_Hbond.Weighted>
0.0000

> <Gold.Chemscore.DEClash.Weighted>
0.3304

> <Gold.Chemscore.DEInternal.Weighted>
0.5190

> <Gold.Chemscore.Rot.Weighted>
7.6343

> <Gold.Chemscore.Internal.Correction.Weighted>
   9.000000E+99

> <Gold.Protein.RotatedTorsions>
[ 6907 6896 6895 6894 ] final -163.42 input  -60.11 | X-H torsion
[ 7974 7965 7964 7962 ] final   -0.49 input  175.53 | X-H torsion
[ 8008 7997 7996 7995 ] final  -80.81 input   59.86 | X-H torsion
[ 10167 10162 10161 10158 ] final  -55.27 input  -65.29 | X-H torsion
[ 10718 10713 10712 10709 ] final  179.01 input   66.30 | X-H torsion
[ 10763 10752 10751 10750 ] final    2.95 input  -60.55 | X-H torsion
[ 11005 11000 10999 10996 ] final  163.34 input  -57.11 | X-H torsion

> <Gold.Protein.ActiveResidues>
 VAL166  LYS551  ARG553  GLY616  TRP617  ASP618  TYR619  PRO620  LYS621  CYS622 
 ASP623  PHE694  ASN695  SER759  ASP760  ASP761  ALA762  ILE779  LEU786  VAL792 
 PHE793  MET794  SER795  GLU796  ALA797  LYS798  CYS799  TRP800  GLU811  SER814 

> <Gold.Protein.RotatedAtoms>
  151.3957  133.3774  159.2725 H   0  0  0  0  0  0  0  0  0  0  0  0  # atno 6907 bound_to 6896
  150.9471  134.8876  159.7659 H   0  0  0  0  0  0  0  0  0  0  0  0  # atno 6908 bound_to 6896
  152.5096  134.3910  159.9436 H   0  0  0  0  0  0  0  0  0  0  0  0  # atno 6909 bound_to 6896
  146.2427  140.1277  142.8338 H   0  0  0  0  0  0  0  0  0  0  0  0  # atno 7974 bound_to 7965
  154.5920  140.0657  156.9252 H   0  0  0  0  0  0  0  0  0  0  0  0  # atno 8008 bound_to 7997
  155.2278  140.3335  155.4289 H   0  0  0  0  0  0  0  0  0  0  0  0  # atno 8009 bound_to 7997
  156.2262  140.1820  156.7341 H   0  0  0  0  0  0  0  0  0  0  0  0  # atno 8010 bound_to 7997
  140.6384  143.2494  151.5055 H   0  0  0  0  0  0  0  0  0  0  0  0  # atno 10167 bound_to 10162
  156.8820  130.9819  151.3060 H   0  0  0  0  0  0  0  0  0  0  0  0  # atno 10718 bound_to 10713
  153.2893  135.6947  153.7308 H   0  0  0  0  0  0  0  0  0  0  0  0  # atno 10763 bound_to 10752
  153.6265  135.3418  155.3029 H   0  0  0  0  0  0  0  0  0  0  0  0  # atno 10764 bound_to 10752
  154.8519  135.4399  154.1971 H   0  0  0  0  0  0  0  0  0  0  0  0  # atno 10765 bound_to 10752
  140.2348  134.8096  157.3353 H   0  0  0  0  0  0  0  0  0  0  0  0  # atno 11005 bound_to 11000
  145.0352  140.8902  143.5085 LP  0  0  0  0  0  0  0  0  0  0  0  0  # atno 17320 bound_to 7965
  145.1348  139.2609  143.5520 LP  0  0  0  0  0  0  0  0  0  0  0  0  # atno 17321 bound_to 7965
  139.5594  144.2195  152.1666 LP  0  0  0  0  0  0  0  0  0  0  0  0  # atno 17342 bound_to 10162
  140.1458  144.5160  150.6717 LP  0  0  0  0  0  0  0  0  0  0  0  0  # atno 17343 bound_to 10162
  157.6134  130.8600  149.8989 LP  0  0  0  0  0  0  0  0  0  0  0  0  # atno 17370 bound_to 10713
  156.0672  130.3690  150.0853 LP  0  0  0  0  0  0  0  0  0  0  0  0  # atno 17371 bound_to 10713
  140.1713  134.4605  155.7830 LP  0  0  0  0  0  0  0  0  0  0  0  0  # atno 17394 bound_to 11000
  141.2215  133.6943  156.7712 LP  0  0  0  0  0  0  0  0  0  0  0  0  # atno 17395 bound_to 11000

$$$$
