AV-unprocessed.smi:2994|AV-procd|sdf|11404|dock8
  -GOLD-   2272016323D 1   1.00000     0.00000
 Structure written by MMmdl.
 47 49  0  0  0  0  0  0  0  0  1 V2000
  145.4623  136.3501  151.4561 C   0  0  0  0  0  0  0  0  0  0  0  0
  145.6383  137.3318  152.6265 C   0  0  2  0  0  0  0  0  0  0  0  0
  147.0488  137.4217  152.9937 N   0  0  0  0  0  0  0  0  0  0  0  0
  147.5451  138.1346  154.0155 C   0  0  0  0  0  0  0  0  0  0  0  0
  146.8482  138.8125  154.7700 O   0  0  0  0  0  0  0  0  0  0  0  0
  148.8826  138.0151  154.0829 N   0  0  0  0  0  0  0  0  0  0  0  0
  149.7931  138.6290  154.9866 C   0  0  0  0  0  0  0  0  0  0  0  0
  151.0541  139.1602  154.6236 C   0  0  0  0  0  0  0  0  0  0  0  0
  151.8574  139.7476  155.6194 C   0  0  0  0  0  0  0  0  0  0  0  0
  151.3778  139.7874  156.9477 C   0  0  0  0  0  0  0  0  0  0  0  0
  152.1969  140.4239  158.0324 C   0  0  0  0  0  0  0  0  0  0  0  0
  153.3138  139.9640  158.2746 O   0  0  0  0  0  0  0  0  0  0  0  0
  151.6631  141.4708  158.7114 N   0  0  0  0  0  0  0  0  0  0  0  0
  150.4975  142.2645  158.2895 C   0  0  0  0  0  0  0  0  0  0  0  0
  150.9789  143.6484  157.8147 C   0  0  0  0  0  0  0  0  0  0  0  0
  151.7968  144.3581  158.9093 C   0  0  0  0  0  0  0  0  0  0  0  0
  152.9073  143.4474  159.4635 C   0  0  0  0  0  0  0  0  0  0  0  0
  152.3391  142.0750  159.8674 C   0  0  0  0  0  0  0  0  0  0  0  0
  150.1639  139.3055  157.2959 N   0  0  0  0  0  0  0  0  0  0  0  0
  149.4001  138.7420  156.3365 C   0  0  0  0  0  0  0  0  0  0  0  0
  144.7594  136.9343  153.7974 C   0  0  0  0  0  0  0  0  0  0  0  0
  144.3222  135.5020  153.9906 C   0  0  0  0  0  0  0  0  0  0  0  0
  143.3116  136.5557  153.5966 C   0  0  0  0  0  0  0  0  0  0  0  0
  144.4180  136.2927  151.1475 H   0  0  0  0  0  0  0  0  0  0  0  0
  145.7836  135.3446  151.7293 H   0  0  0  0  0  0  0  0  0  0  0  0
  146.0404  136.6594  150.5848 H   0  0  0  0  0  0  0  0  0  0  0  0
  145.3066  138.3171  152.2927 H   0  0  0  0  0  0  0  0  0  0  0  0
  147.6968  136.8969  152.4247 H   0  0  0  0  0  0  0  0  0  0  0  0
  149.3100  137.4570  153.3585 H   0  0  0  0  0  0  0  0  0  0  0  0
  151.4201  139.1431  153.6095 H   0  0  0  0  0  0  0  0  0  0  0  0
  152.8227  140.1607  155.3650 H   0  0  0  0  0  0  0  0  0  0  0  0
  149.9140  141.8056  157.4934 H   0  0  0  0  0  0  0  0  0  0  0  0
  149.8136  142.3734  159.1323 H   0  0  0  0  0  0  0  0  0  0  0  0
  151.5910  143.5314  156.9192 H   0  0  0  0  0  0  0  0  0  0  0  0
  150.1265  144.2646  157.5278 H   0  0  0  0  0  0  0  0  0  0  0  0
  152.2246  145.2834  158.5222 H   0  0  0  0  0  0  0  0  0  0  0  0
  151.1300  144.6441  159.7237 H   0  0  0  0  0  0  0  0  0  0  0  0
  153.6826  143.3126  158.7079 H   0  0  0  0  0  0  0  0  0  0  0  0
  153.3874  143.9222  160.3198 H   0  0  0  0  0  0  0  0  0  0  0  0
  151.6215  142.1919  160.6808 H   0  0  0  0  0  0  0  0  0  0  0  0
  153.1348  141.4439  160.2660 H   0  0  0  0  0  0  0  0  0  0  0  0
  148.4411  138.3648  156.6611 H   0  0  0  0  0  0  0  0  0  0  0  0
  144.9830  137.4802  154.7124 H   0  0  0  0  0  0  0  0  0  0  0  0
  144.6106  134.7759  153.2329 H   0  0  0  0  0  0  0  0  0  0  0  0
  144.2842  135.1226  155.0098 H   0  0  0  0  0  0  0  0  0  0  0  0
  142.5988  136.8764  154.3535 H   0  0  0  0  0  0  0  0  0  0  0  0
  142.9304  136.5292  152.5778 H   0  0  0  0  0  0  0  0  0  0  0  0
  1  2  1  0  0  0  0
  1 24  1  0  0  0  0
  1 25  1  0  0  0  0
  1 26  1  0  0  0  0
  2  3  1  0  0  0  0
  2 21  1  0  0  0  0
  2 27  1  0  0  0  0
  3  4  1  0  0  0  0
  3 28  1  0  0  0  0
  4  5  2  0  0  0  0
  4  6  1  0  0  0  0
  6  7  1  0  0  0  0
  6 29  1  0  0  0  0
  7 20  1  0  0  0  0
  7  8  2  0  0  0  0
  8  9  1  0  0  0  0
  8 30  1  0  0  0  0
  9 10  2  0  0  0  0
  9 31  1  0  0  0  0
 10 11  1  0  0  0  0
 10 19  1  0  0  0  0
 11 12  2  0  0  0  0
 11 13  1  0  0  0  0
 13 18  1  0  0  0  0
 13 14  1  0  0  0  0
 14 15  1  0  0  0  0
 14 32  1  0  0  0  0
 14 33  1  0  0  0  0
 15 16  1  0  0  0  0
 15 34  1  0  0  0  0
 15 35  1  0  0  0  0
 16 17  1  0  0  0  0
 16 36  1  0  0  0  0
 16 37  1  0  0  0  0
 17 18  1  0  0  0  0
 17 38  1  0  0  0  0
 17 39  1  0  0  0  0
 18 40  1  0  0  0  0
 18 41  1  0  0  0  0
 19 20  2  0  0  0  0
 20 42  1  0  0  0  0
 21 23  1  0  0  0  0
 21 22  1  0  0  0  0
 21 43  1  0  0  0  0
 22 23  1  0  0  0  0
 22 44  1  0  0  0  0
 22 45  1  0  0  0  0
 23 46  1  0  0  0  0
 23 47  1  0  0  0  0
M  END
> <s_m_source_file>
AV-unprocessed.smi

> <i_m_source_file_index>
2994

> <i_lp_mmshare_version>
43012

> <i_f3d_flags>
0

> <s_epik_input>
W0NIMl0xW0NIMl1bQ0hdMVtDQEhdKFtDSDNdKVtOSF1DKD1PKVtOSF1jMltjSF1bY0hdYyhuW2NIXTIpQyg9TylOM1tDSDJdW0NIMl1bQ0gyXVtDSDJdW0NIMl0z

> <s_epik_cmdline>
J2VwaWtfcHl0aG9uJywgJy1waCcsICc3LjAnLCAnLXRuJywgJzgnLCAnLW1hJywgJzIwMCcsICctbWV0YWxfYmluZGluZycsICctaW1hZScsICc8aW5maWxlLm1hZT4nLCAnLW9tYWUnLCAnPG91dGZpbGUubWFlPic=

> <r_lp_tautomer_probability>
1

> <r_epik_Ionization_Penalty>
4.52104e-05

> <r_epik_Ionization_Penalty_Charging>
0

> <r_epik_Ionization_Penalty_Neutral>
4.52104e-05

> <r_epik_State_Penalty>
-0

> <r_epik_Charging_Adjusted_Penalty>
0

> <i_epik_Tot_Q>
0

> <i_epik_Tot_abs_Q>
0

> <r_epik_Metal_State_Penalty>
-0

> <b_epik_Metal_Only>
0

> <s_lp_Force_Field>
OPLS_2005

> <r_lp_Energy>
45.7479

> <b_lp_Chiralities_Consistent>
1

> <s_lp_Variant>
AV-unprocessed.smi:2994-1

> <Gold.Version>
5.8.1

> <Gold.Id.Protein>
6NUR|6NUR_protein|mol2

> <Gold.PLP.Fitness>
47.1196

> <Gold.PLP.PLP>
-40.6784

> <Gold.PLP.part.hbond>
-2.9211

> <Gold.PLP.part.metal>
0.0000

> <Gold.PLP.part.buried>
-3.3705

> <Gold.PLP.part.nonpolar>
-36.1967

> <Gold.PLP.part.repulsive>
0.1502

> <Gold.PLP.ligand.clash>
0.0000

> <Gold.PLP.ligand.torsion>
2.0766

> <Gold.PLP.Chemscore.Hbond>
2.8720

> <Gold.PLP.Chemscore.CHOScore>
0.0000

> <Gold.PLP.Chemscore.Metal>
0.0000

> <Gold.Chemscore.Hbonds>
donor molecule, donor type, donor heavy atom, donor atom, acceptor molecule, acceptor atom, score
      L1  H     3    28       P1  7948  0.98
      L1  H     6    29       P1  7948  0.91
      P1  H  7997  8008       L1    12  0.90

> <Gold.PLP.Chemscore.Internal.Correction>
1.9785

> <Gold.Rescore>
     Score         DG    S(hbond)    S(metal)    S(lipo)     H(rot)  DE(clash)    DE(int)     intcor
     18.67     -24.16       2.90        0.00     101.92       1.14       0.10       5.40       ----

> <Gold.Chemscore.Fitness>
18.6659

> <Gold.Chemscore.DG>
-24.1640

> <Gold.Chemscore.ZeroCoef>
-5.4800

> <Gold.Chemscore.Hbond>
2.8973

> <Gold.Chemscore.Metal>
0.0000

> <Gold.Chemscore.Lipo>
101.9249

> <Gold.Chemscore.Internal_Hbond>
0.0000

> <Gold.Chemscore.DEClash>
0.0990

> <Gold.Chemscore.DEInternal>
5.3992

> <Gold.Chemscore.Rot>
1.1399

> <Gold.Chemscore.Internal.Correction>
   9.000000E+99

> <Gold.Chemscore.Hbonds>
donor molecule, donor type, donor heavy atom, donor atom, acceptor molecule, acceptor atom, score
      L1  H     3    28       P1  7948  0.92
      L1  H     6    29       P1  7948  0.87
      P1  H  7997  8008       L1    12  0.88

> <Gold.Chemscore.Hbond.Weighted>
-9.6769

> <Gold.Chemscore.Metal.Weighted>
-0.0000

> <Gold.Chemscore.Lipo.Weighted>
-11.9252

> <Gold.Chemscore.Internal_Hbond.Weighted>
0.0000

> <Gold.Chemscore.DEClash.Weighted>
0.0990

> <Gold.Chemscore.DEInternal.Weighted>
5.3992

> <Gold.Chemscore.Rot.Weighted>
2.9180

> <Gold.Chemscore.Internal.Correction.Weighted>
   9.000000E+99

> <Gold.Protein.RotatedTorsions>
[ 6907 6896 6895 6894 ] final -156.21 input  -60.11 | X-H torsion
[ 7974 7965 7964 7962 ] final  142.08 input  175.53 | X-H torsion
[ 8008 7997 7996 7995 ] final -104.24 input   59.86 | X-H torsion
[ 10167 10162 10161 10158 ] final  156.52 input  -65.29 | X-H torsion
[ 10718 10713 10712 10709 ] final  171.92 input   66.30 | X-H torsion
[ 10763 10752 10751 10750 ] final   -3.32 input  -60.55 | X-H torsion
[ 11005 11000 10999 10996 ] final  -96.36 input  -57.11 | X-H torsion

> <Gold.Protein.ActiveResidues>
 VAL166  LYS551  ARG553  GLY616  TRP617  ASP618  TYR619  PRO620  LYS621  CYS622 
 ASP623  PHE694  ASN695  SER759  ASP760  ASP761  ALA762  ILE779  LEU786  VAL792 
 PHE793  MET794  SER795  GLU796  ALA797  LYS798  CYS799  TRP800  GLU811  SER814 

> <Gold.Protein.RotatedAtoms>
  151.2842  133.4195  159.2628 H   0  0  0  0  0  0  0  0  0  0  0  0  # atno 6907 bound_to 6896
  151.0334  134.9556  159.8133 H   0  0  0  0  0  0  0  0  0  0  0  0  # atno 6908 bound_to 6896
  152.5350  134.2802  159.9057 H   0  0  0  0  0  0  0  0  0  0  0  0  # atno 6909 bound_to 6896
  144.9039  139.5385  143.5740 H   0  0  0  0  0  0  0  0  0  0  0  0  # atno 7974 bound_to 7965
  154.8824  140.0419  157.1790 H   0  0  0  0  0  0  0  0  0  0  0  0  # atno 8008 bound_to 7997
  154.8625  140.2946  155.5509 H   0  0  0  0  0  0  0  0  0  0  0  0  # atno 8009 bound_to 7997
  156.2998  140.2444  156.3601 H   0  0  0  0  0  0  0  0  0  0  0  0  # atno 8010 bound_to 7997
  139.4821  144.5002  151.8180 H   0  0  0  0  0  0  0  0  0  0  0  0  # atno 10167 bound_to 10162
  156.9865  131.0135  151.2868 H   0  0  0  0  0  0  0  0  0  0  0  0  # atno 10718 bound_to 10713
  153.3698  135.6994  153.6647 H   0  0  0  0  0  0  0  0  0  0  0  0  # atno 10763 bound_to 10752
  153.5301  135.3594  155.2672 H   0  0  0  0  0  0  0  0  0  0  0  0  # atno 10764 bound_to 10752
  154.8679  135.4178  154.2974 H   0  0  0  0  0  0  0  0  0  0  0  0  # atno 10765 bound_to 10752
  141.1414  133.8092  157.0560 H   0  0  0  0  0  0  0  0  0  0  0  0  # atno 11005 bound_to 11000
  146.3123  139.7791  142.9010 LP  0  0  0  0  0  0  0  0  0  0  0  0  # atno 17320 bound_to 7965
  145.3569  141.0318  143.3307 LP  0  0  0  0  0  0  0  0  0  0  0  0  # atno 17321 bound_to 7965
  140.4494  144.1876  150.5896 LP  0  0  0  0  0  0  0  0  0  0  0  0  # atno 17342 bound_to 10162
  140.4601  143.2452  151.9232 LP  0  0  0  0  0  0  0  0  0  0  0  0  # atno 17343 bound_to 10162
  157.5489  130.8169  149.8120 LP  0  0  0  0  0  0  0  0  0  0  0  0  # atno 17370 bound_to 10713
  156.0224  130.3791  150.1923 LP  0  0  0  0  0  0  0  0  0  0  0  0  # atno 17371 bound_to 10713
  140.0601  134.9759  157.1290 LP  0  0  0  0  0  0  0  0  0  0  0  0  # atno 17394 bound_to 11000
  140.3860  134.2235  155.7168 LP  0  0  0  0  0  0  0  0  0  0  0  0  # atno 17395 bound_to 11000

$$$$
