AV-unprocessed.smi:3348|AV-procd|sdf|12919|dock2
  -GOLD-   2272019333D 1   1.00000     0.00000
 Structure written by MMmdl.
 47 48  0  0  0  0  0  0  0  0  2 V2000
  146.1881  135.5277  153.9631 C   0  0  0  0  0  0  0  0  0  0  0  0
  145.8084  135.4245  152.4758 C   0  0  2  0  0  0  0  0  0  0  0  0
  146.4674  134.2157  151.7715 C   0  0  0  0  0  0  0  0  0  0  0  0
  145.4984  133.2988  151.1972 N   0  0  0  0  0  0  0  0  0  0  0  0
  145.7329  132.1418  150.4843 C   0  0  0  0  0  0  0  0  0  0  0  0
  144.5176  131.6179  150.1484 C   0  0  0  0  0  0  0  0  0  0  0  0
  143.5867  132.5351  150.7114 C   0  0  0  0  0  0  0  0  0  0  0  0
  144.1770  133.5396  151.3393 N   0  0  0  0  0  0  0  0  0  0  0  0
  146.1565  136.6938  151.7989 N   0  3  0  0  0  0  0  0  0  0  0  0
  145.8470  137.9275  152.5531 C   0  0  0  0  0  0  0  0  0  0  0  0
  146.9965  138.9338  152.4427 C   0  0  0  0  0  0  0  0  0  0  0  0
  146.8445  139.9014  153.4696 O   0  0  0  0  0  0  0  0  0  0  0  0
  147.7634  140.9870  153.4046 C   0  0  2  0  0  0  0  0  0  0  0  0
  149.1459  140.5570  153.9396 C   0  0  0  0  0  0  0  0  0  0  0  0
  149.0954  140.2120  155.4370 C   0  0  0  0  0  0  0  0  0  0  0  0
  148.5251  141.3787  156.2576 C   0  0  0  0  0  0  0  0  0  0  0  0
  147.1446  141.8069  155.7351 C   0  0  0  0  0  0  0  0  0  0  0  0
  147.1917  142.1581  154.2345 C   0  0  2  0  0  0  0  0  0  0  0  0
  145.8216  142.6191  153.7121 C   0  0  0  0  0  0  0  0  0  0  0  0
  145.8468  134.6597  154.5277 H   0  0  0  0  0  0  0  0  0  0  0  0
  145.7356  136.4064  154.4242 H   0  0  0  0  0  0  0  0  0  0  0  0
  147.2687  135.6040  154.0918 H   0  0  0  0  0  0  0  0  0  0  0  0
  144.7245  135.3088  152.4278 H   0  0  0  0  0  0  0  0  0  0  0  0
  147.1214  134.5466  150.9647 H   0  0  0  0  0  0  0  0  0  0  0  0
  147.0967  133.6668  152.4746 H   0  0  0  0  0  0  0  0  0  0  0  0
  146.7336  131.7926  150.2757 H   0  0  0  0  0  0  0  0  0  0  0  0
  144.3221  130.7160  149.5877 H   0  0  0  0  0  0  0  0  0  0  0  0
  142.5075  132.5005  150.6825 H   0  0  0  0  0  0  0  0  0  0  0  0
  147.1527  136.6858  151.6328 H   0  0  0  0  0  0  0  0  0  0  0  0
  144.9255  138.3795  152.1864 H   0  0  0  0  0  0  0  0  0  0  0  0
  145.6885  137.6736  153.6019 H   0  0  0  0  0  0  0  0  0  0  0  0
  147.9490  138.4151  152.5500 H   0  0  0  0  0  0  0  0  0  0  0  0
  146.9893  139.4081  151.4600 H   0  0  0  0  0  0  0  0  0  0  0  0
  147.8656  141.3229  152.3708 H   0  0  0  0  0  0  0  0  0  0  0  0
  149.5358  139.7100  153.3760 H   0  0  0  0  0  0  0  0  0  0  0  0
  149.8566  141.3699  153.7860 H   0  0  0  0  0  0  0  0  0  0  0  0
  148.4824  139.3228  155.5891 H   0  0  0  0  0  0  0  0  0  0  0  0
  150.0949  139.9616  155.7934 H   0  0  0  0  0  0  0  0  0  0  0  0
  148.4530  141.0947  157.3080 H   0  0  0  0  0  0  0  0  0  0  0  0
  149.2112  142.2255  156.2138 H   0  0  0  0  0  0  0  0  0  0  0  0
  146.4250  141.0053  155.9071 H   0  0  0  0  0  0  0  0  0  0  0  0
  146.7896  142.6650  156.3070 H   0  0  0  0  0  0  0  0  0  0  0  0
  147.8740  143.0018  154.1193 H   0  0  0  0  0  0  0  0  0  0  0  0
  145.0689  141.8374  153.8178 H   0  0  0  0  0  0  0  0  0  0  0  0
  145.8742  142.8907  152.6574 H   0  0  0  0  0  0  0  0  0  0  0  0
  145.4685  143.4933  154.2596 H   0  0  0  0  0  0  0  0  0  0  0  0
  145.6863  136.7287  150.9053 H   0  0  0  0  0  0  0  0  0  0  0  0
  1  2  1  0  0  0  0
  1 20  1  0  0  0  0
  1 21  1  0  0  0  0
  1 22  1  0  0  0  0
  2  3  1  0  0  0  0
  2  9  1  0  0  0  0
  2 23  1  0  0  0  0
  3  4  1  0  0  0  0
  3 24  1  0  0  0  0
  3 25  1  0  0  0  0
  4  8  1  0  0  0  0
  4  5  1  0  0  0  0
  5  6  2  0  0  0  0
  5 26  1  0  0  0  0
  6  7  1  0  0  0  0
  6 27  1  0  0  0  0
  7  8  2  0  0  0  0
  7 28  1  0  0  0  0
  9 10  1  0  0  0  0
  9 29  1  0  0  0  0
  9 47  1  0  0  0  0
 10 11  1  0  0  0  0
 10 30  1  0  0  0  0
 10 31  1  0  0  0  0
 11 12  1  0  0  0  0
 11 32  1  0  0  0  0
 11 33  1  0  0  0  0
 12 13  1  0  0  0  0
 13 18  1  0  0  0  0
 13 14  1  0  0  0  0
 13 34  1  0  0  0  0
 14 15  1  0  0  0  0
 14 35  1  0  0  0  0
 14 36  1  0  0  0  0
 15 16  1  0  0  0  0
 15 37  1  0  0  0  0
 15 38  1  0  0  0  0
 16 17  1  0  0  0  0
 16 39  1  0  0  0  0
 16 40  1  0  0  0  0
 17 18  1  0  0  0  0
 17 41  1  0  0  0  0
 17 42  1  0  0  0  0
 18 19  1  0  0  0  0
 18 43  1  0  0  0  0
 19 44  1  0  0  0  0
 19 45  1  0  0  0  0
 19 46  1  0  0  0  0
M  CHG  1   9   1
M  END
> <s_m_source_file>
AV-unprocessed.smi

> <i_m_source_file_index>
3348

> <i_lp_mmshare_version>
43012

> <i_f3d_flags>
0

> <s_epik_input>
bjFbY0hdW2NIXVtjSF1uMVtDSDJdW0NAQEhdKFtDSDNdKVtOSF1bQ0gyXVtDSDJdT1tDQEBIXTJbQ0gyXVtDSDJdW0NIMl1bQ0gyXVtDQEhdMltDSDNd

> <s_epik_cmdline>
J2VwaWtfcHl0aG9uJywgJy1waCcsICc3LjAnLCAnLXRuJywgJzgnLCAnLW1hJywgJzIwMCcsICctbWV0YWxfYmluZGluZycsICctaW1hZScsICc8aW5maWxlLm1hZT4nLCAnLW9tYWUnLCAnPG91dGZpbGUubWFlPic=

> <r_lp_tautomer_probability>
1

> <r_epik_Ionization_Penalty>
0.00925088

> <r_epik_Ionization_Penalty_Charging>
0.00924645

> <r_epik_Ionization_Penalty_Neutral>
4.42413e-06

> <r_epik_State_Penalty>
0.0070118

> <r_epik_Charging_Adjusted_Penalty>
0.0162583

> <i_epik_Tot_Q>
1

> <i_epik_Tot_abs_Q>
1

> <r_epik_Metal_State_Penalty>
0.00701222

> <b_epik_Metal_Only>
0

> <s_lp_Force_Field>
OPLS_2005

> <r_lp_Energy>
17.0128

> <b_lp_Chiralities_Consistent>
1

> <s_lp_Variant>
AV-unprocessed.smi:3348-5

> <Gold.Version>
5.8.1

> <Gold.Id.Protein>
6NUR|6NUR_protein|mol2

> <Gold.PLP.Fitness>
43.5049

> <Gold.PLP.PLP>
-34.1549

> <Gold.PLP.part.hbond>
-1.0000

> <Gold.PLP.part.metal>
0.0000

> <Gold.PLP.part.buried>
-2.2044

> <Gold.PLP.part.nonpolar>
-31.6045

> <Gold.PLP.part.repulsive>
0.3546

> <Gold.PLP.ligand.clash>
0.0000

> <Gold.PLP.ligand.torsion>
1.4217

> <Gold.PLP.Chemscore.Hbond>
2.0000

> <Gold.PLP.Chemscore.CHOScore>
2.0000

> <Gold.PLP.Chemscore.Metal>
0.0000

> <Gold.Chemscore.Hbonds>
donor molecule, donor type, donor heavy atom, donor atom, acceptor molecule, acceptor atom, score
      L1  H     9    29       P1  7948  2.00
      L1  C     5    26       P1 10747  1.00
      L1  C     7    28       P1 10186  0.55

> <Gold.PLP.Chemscore.Internal.Correction>
0.1934

> <Gold.Rescore>
     Score         DG    S(hbond)    S(metal)    S(lipo)     H(rot)  DE(clash)    DE(int)     intcor
     13.33     -14.84       1.00        0.00      91.24       1.82       0.10       1.41       ----

> <Gold.Chemscore.Fitness>
13.3348

> <Gold.Chemscore.DG>
-14.8419

> <Gold.Chemscore.ZeroCoef>
-5.4800

> <Gold.Chemscore.Hbond>
0.9989

> <Gold.Chemscore.Metal>
0.0000

> <Gold.Chemscore.Lipo>
91.2418

> <Gold.Chemscore.Internal_Hbond>
0.0000

> <Gold.Chemscore.DEClash>
0.0959

> <Gold.Chemscore.DEInternal>
1.4113

> <Gold.Chemscore.Rot>
1.8163

> <Gold.Chemscore.Internal.Correction>
   9.000000E+99

> <Gold.Chemscore.Hbonds>
donor molecule, donor type, donor heavy atom, donor atom, acceptor molecule, acceptor atom, score
      L1  H     9    29       P1  7948  1.00

> <Gold.Chemscore.Hbond.Weighted>
-3.3364

> <Gold.Chemscore.Metal.Weighted>
-0.0000

> <Gold.Chemscore.Lipo.Weighted>
-10.6753

> <Gold.Chemscore.Internal_Hbond.Weighted>
0.0000

> <Gold.Chemscore.DEClash.Weighted>
0.0959

> <Gold.Chemscore.DEInternal.Weighted>
1.4113

> <Gold.Chemscore.Rot.Weighted>
4.6497

> <Gold.Chemscore.Internal.Correction.Weighted>
   9.000000E+99

> <Gold.Protein.RotatedTorsions>
[ 6907 6896 6895 6894 ] final  140.56 input  -60.11 | X-H torsion
[ 7974 7965 7964 7962 ] final   52.18 input  175.53 | X-H torsion
[ 8008 7997 7996 7995 ] final   70.11 input   59.86 | X-H torsion
[ 10167 10162 10161 10158 ] final  -75.20 input  -65.29 | X-H torsion
[ 10718 10713 10712 10709 ] final -127.44 input   66.30 | X-H torsion
[ 10763 10752 10751 10750 ] final  140.54 input  -60.55 | X-H torsion
[ 11005 11000 10999 10996 ] final   52.70 input  -57.11 | X-H torsion

> <Gold.Protein.ActiveResidues>
 VAL166  LYS551  ARG553  GLY616  TRP617  ASP618  TYR619  PRO620  LYS621  CYS622 
 ASP623  PHE694  ASN695  SER759  ASP760  ASP761  ALA762  ILE779  LEU786  VAL792 
 PHE793  MET794  SER795  GLU796  ALA797  LYS798  CYS799  TRP800  GLU811  SER814 

> <Gold.Protein.RotatedAtoms>
  152.2415  133.5139  159.5272 H   0  0  0  0  0  0  0  0  0  0  0  0  # atno 6907 bound_to 6896
  150.7066  134.1082  159.3999 H   0  0  0  0  0  0  0  0  0  0  0  0  # atno 6908 bound_to 6896
  151.9003  135.0381  160.0556 H   0  0  0  0  0  0  0  0  0  0  0  0  # atno 6909 bound_to 6896
  145.9839  139.4270  143.0115 H   0  0  0  0  0  0  0  0  0  0  0  0  # atno 7974 bound_to 7965
  155.7339  140.3491  155.5072 H   0  0  0  0  0  0  0  0  0  0  0  0  # atno 8008 bound_to 7997
  155.9157  140.1058  157.1267 H   0  0  0  0  0  0  0  0  0  0  0  0  # atno 8009 bound_to 7997
  154.4062  140.1259  156.4602 H   0  0  0  0  0  0  0  0  0  0  0  0  # atno 8010 bound_to 7997
  140.4963  143.2370  151.7826 H   0  0  0  0  0  0  0  0  0  0  0  0  # atno 10167 bound_to 10162
  156.1858  130.6762  151.0362 H   0  0  0  0  0  0  0  0  0  0  0  0  # atno 10718 bound_to 10713
  153.9243  135.2997  155.3447 H   0  0  0  0  0  0  0  0  0  0  0  0  # atno 10763 bound_to 10752
  154.7559  135.4957  153.9377 H   0  0  0  0  0  0  0  0  0  0  0  0  # atno 10764 bound_to 10752
  153.1125  135.6762  153.9579 H   0  0  0  0  0  0  0  0  0  0  0  0  # atno 10765 bound_to 10752
  140.0828  134.5316  155.8930 H   0  0  0  0  0  0  0  0  0  0  0  0  # atno 11005 bound_to 11000
  145.7729  140.9889  143.1140 LP  0  0  0  0  0  0  0  0  0  0  0  0  # atno 17320 bound_to 7965
  144.6869  139.9469  143.7477 LP  0  0  0  0  0  0  0  0  0  0  0  0  # atno 17321 bound_to 7965
  139.4862  144.4583  151.9572 LP  0  0  0  0  0  0  0  0  0  0  0  0  # atno 17342 bound_to 10162
  140.3670  144.2902  150.5925 LP  0  0  0  0  0  0  0  0  0  0  0  0  # atno 17343 bound_to 10162
  157.6897  131.0814  150.7141 LP  0  0  0  0  0  0  0  0  0  0  0  0  # atno 17370 bound_to 10713
  156.7198  130.4677  149.5526 LP  0  0  0  0  0  0  0  0  0  0  0  0  # atno 17371 bound_to 10713
  141.2052  133.6645  156.6168 LP  0  0  0  0  0  0  0  0  0  0  0  0  # atno 17394 bound_to 11000
  140.3464  134.7806  157.4435 LP  0  0  0  0  0  0  0  0  0  0  0  0  # atno 17395 bound_to 11000

$$$$
