AV-unprocessed.smi:218|AV-procd|sdf|1664|dock8
  -GOLD-   2262020 63D 1   1.00000     0.00000
 Structure written by MMmdl.
 54 57  0  0  0  0  0  0  0  0  1 V2000
  151.6301  145.6484  160.2709 C   0  0  0  0  0  0  0  0  0  0  0  0
  152.1441  144.4069  159.5321 C   0  0  0  0  0  0  0  0  0  0  0  0
  151.6628  144.3904  158.0709 C   0  0  0  0  0  0  0  0  0  0  0  0
  151.6404  143.2689  160.2342 O   0  0  0  0  0  0  0  0  0  0  0  0
  152.0166  141.9951  159.8533 C   0  0  0  0  0  0  0  0  0  0  0  0
  151.4497  141.4551  158.6812 C   0  0  0  0  0  0  0  0  0  0  0  0
  151.8120  140.1499  158.2848 C   0  0  0  0  0  0  0  0  0  0  0  0
  151.2230  139.5129  157.0354 C   0  0  0  0  0  0  0  0  0  0  0  0
  150.0109  138.7281  157.2501 N   0  0  0  0  0  0  0  0  0  0  0  0
  148.9549  138.8710  156.4191 C   0  0  0  0  0  0  0  0  0  0  0  0
  148.4388  140.0980  156.1475 N   0  0  0  0  0  0  0  0  0  0  0  0
  147.3994  140.2157  155.3159 C   0  0  0  0  0  0  0  0  0  0  0  0
  146.7378  139.2555  154.6663 N   0  0  0  0  0  0  0  0  0  0  0  0
  147.2483  138.0201  154.9414 C   0  0  0  0  0  0  0  0  0  0  0  0
  148.3465  137.7469  155.8037 C   0  0  0  0  0  0  0  0  0  0  0  0
  148.5872  136.3797  155.8417 N   0  0  0  0  0  0  0  0  0  0  0  0
  147.6830  135.8782  155.0437 C   0  0  0  0  0  0  0  0  0  0  0  0
  146.8349  136.7941  154.4613 N   0  0  0  0  0  0  0  0  0  0  0  0
  145.7191  136.5247  153.5056 C   0  0  2  0  0  0  0  0  0  0  0  0
  145.8648  135.2182  153.0336 O   0  0  0  0  0  0  0  0  0  0  0  0
  145.5719  135.1633  151.6426 C   0  0  1  0  0  0  0  0  0  0  0  0
  144.0661  134.8686  151.4709 C   0  0  0  0  0  0  0  0  0  0  0  0
  143.7264  134.7763  150.1032 O   0  0  0  0  0  0  0  0  0  0  0  0
  146.0647  136.5289  151.1423 C   0  0  1  0  0  0  0  0  0  0  0  0
  145.5241  136.9383  149.8990 O   0  0  0  0  0  0  0  0  0  0  0  0
  145.7755  137.4823  152.3013 C   0  0  1  0  0  0  0  0  0  0  0  0
  144.5484  138.1707  152.1389 O   0  0  0  0  0  0  0  0  0  0  0  0
  152.7404  139.4418  159.0734 C   0  0  0  0  0  0  0  0  0  0  0  0
  153.2535  140.0646  160.2275 C   0  0  0  0  0  0  0  0  0  0  0  0
  152.9039  141.3090  160.6159 N   0  0  0  0  0  0  0  0  0  0  0  0
  144.8097  136.6207  154.1009 H   0  0  0  0  0  0  0  0  0  0  0  0
  146.1516  134.3527  151.1985 H   0  0  0  0  0  0  0  0  0  0  0  0
  147.1457  136.4668  151.0154 H   0  0  0  0  0  0  0  0  0  0  0  0
  146.5725  138.2180  152.4201 H   0  0  0  0  0  0  0  0  0  0  0  0
  151.9868  146.5639  159.7983 H   0  0  0  0  0  0  0  0  0  0  0  0
  151.9724  145.6550  161.3060 H   0  0  0  0  0  0  0  0  0  0  0  0
  150.5402  145.6795  160.2808 H   0  0  0  0  0  0  0  0  0  0  0  0
  153.2341  144.4396  159.5662 H   0  0  0  0  0  0  0  0  0  0  0  0
  152.0059  145.2772  157.5374 H   0  0  0  0  0  0  0  0  0  0  0  0
  150.5741  144.3699  158.0161 H   0  0  0  0  0  0  0  0  0  0  0  0
  152.0363  143.5210  157.5307 H   0  0  0  0  0  0  0  0  0  0  0  0
  150.7446  142.0345  158.1035 H   0  0  0  0  0  0  0  0  0  0  0  0
  150.9878  140.3092  156.3292 H   0  0  0  0  0  0  0  0  0  0  0  0
  151.9741  138.8876  156.5511 H   0  0  0  0  0  0  0  0  0  0  0  0
  150.1111  137.9351  157.8673 H   0  0  0  0  0  0  0  0  0  0  0  0
  147.0493  141.2231  155.1454 H   0  0  0  0  0  0  0  0  0  0  0  0
  147.6096  134.8167  154.8569 H   0  0  0  0  0  0  0  0  0  0  0  0
  143.8251  133.9097  151.9307 H   0  0  0  0  0  0  0  0  0  0  0  0
  143.4436  135.6185  151.9583 H   0  0  0  0  0  0  0  0  0  0  0  0
  142.7934  134.6407  150.0335 H   0  0  0  0  0  0  0  0  0  0  0  0
  144.7155  137.4002  150.0611 H   0  0  0  0  0  0  0  0  0  0  0  0
  144.4549  138.4051  151.2284 H   0  0  0  0  0  0  0  0  0  0  0  0
  153.0495  138.4419  158.8059 H   0  0  0  0  0  0  0  0  0  0  0  0
  153.9650  139.5493  160.8555 H   0  0  0  0  0  0  0  0  0  0  0  0
  1  2  1  0  0  0  0
  1 35  1  0  0  0  0
  1 36  1  0  0  0  0
  1 37  1  0  0  0  0
  2  3  1  0  0  0  0
  2  4  1  0  0  0  0
  2 38  1  0  0  0  0
  3 39  1  0  0  0  0
  3 40  1  0  0  0  0
  3 41  1  0  0  0  0
  4  5  1  0  0  0  0
  5 30  1  0  0  0  0
  5  6  2  0  0  0  0
  6  7  1  0  0  0  0
  6 42  1  0  0  0  0
  7  8  1  0  0  0  0
  7 28  2  0  0  0  0
  8  9  1  0  0  0  0
  8 43  1  0  0  0  0
  8 44  1  0  0  0  0
  9 10  1  0  0  0  0
  9 45  1  0  0  0  0
 10 15  1  0  0  0  0
 10 11  2  0  0  0  0
 11 12  1  0  0  0  0
 12 13  2  0  0  0  0
 12 46  1  0  0  0  0
 13 14  1  0  0  0  0
 14 18  1  0  0  0  0
 14 15  2  0  0  0  0
 15 16  1  0  0  0  0
 16 17  2  0  0  0  0
 17 18  1  0  0  0  0
 17 47  1  0  0  0  0
 18 19  1  0  0  0  0
 19 31  1  0  0  0  0
 19 26  1  0  0  0  0
 19 20  1  0  0  0  0
 20 21  1  0  0  0  0
 21 32  1  0  0  0  0
 21 22  1  0  0  0  0
 21 24  1  0  0  0  0
 22 23  1  0  0  0  0
 22 48  1  0  0  0  0
 22 49  1  0  0  0  0
 23 50  1  0  0  0  0
 24 33  1  0  0  0  0
 24 25  1  0  0  0  0
 24 26  1  0  0  0  0
 25 51  1  0  0  0  0
 26 34  1  0  0  0  0
 26 27  1  0  0  0  0
 27 52  1  0  0  0  0
 28 29  1  0  0  0  0
 28 53  1  0  0  0  0
 29 30  2  0  0  0  0
 29 54  1  0  0  0  0
M  END
> <s_m_source_file>
AV-unprocessed.smi

> <i_m_source_file_index>
218

> <i_lp_mmshare_version>
43012

> <i_f3d_flags>
0

> <s_epik_input>
W0NIM11bQ0hdKFtDSDNdKU9jMVtjSF1jKFtjSF1bY0hdbjEpW0NIMl1bTkhdYyhuW2NIXW4yKWMoYzIzKW5bY0hdbjNbQ0BASF00T1tDQEhdKFtDSDJdW09IXSlbQ0BASF0oW09IXSlbQ0BIXTRbT0hd

> <s_epik_cmdline>
J2VwaWtfcHl0aG9uJywgJy1waCcsICc3LjAnLCAnLXRuJywgJzgnLCAnLW1hJywgJzIwMCcsICctbWV0YWxfYmluZGluZycsICctaW1hZScsICc8aW5maWxlLm1hZT4nLCAnLW9tYWUnLCAnPG91dGZpbGUubWFlPic=

> <r_lp_tautomer_probability>
1

> <r_epik_Ionization_Penalty>
0.00457014

> <r_epik_Ionization_Penalty_Charging>
0

> <r_epik_Ionization_Penalty_Neutral>
0.00457014

> <r_epik_State_Penalty>
-0

> <r_epik_Charging_Adjusted_Penalty>
0

> <i_epik_Tot_Q>
0

> <i_epik_Tot_abs_Q>
0

> <r_epik_Metal_State_Penalty>
-0

> <b_epik_Metal_Only>
0

> <s_epik_Chemistry_Notes>
This compound contains an acetal/aminal-like group ( X-CH(R)-Y where X, Y are N, S, or O) that may be acid/base labile, releasing an aldehyde.

> <s_lp_Force_Field>
OPLS_2005

> <r_lp_Energy>
44.1408

> <b_lp_Chiralities_Consistent>
1

> <s_lp_Variant>
AV-unprocessed.smi:218-3

> <Gold.Version>
5.8.1

> <Gold.Id.Protein>
6NUR|6NUR_protein|mol2

> <Gold.PLP.Fitness>
48.7162

> <Gold.PLP.PLP>
-42.5190

> <Gold.PLP.part.hbond>
-4.4085

> <Gold.PLP.part.metal>
0.0000

> <Gold.PLP.part.buried>
-6.5078

> <Gold.PLP.part.nonpolar>
-32.6948

> <Gold.PLP.part.repulsive>
0.2879

> <Gold.PLP.ligand.clash>
0.0000

> <Gold.PLP.ligand.torsion>
1.4549

> <Gold.PLP.Chemscore.Hbond>
3.0000

> <Gold.PLP.Chemscore.CHOScore>
0.0000

> <Gold.PLP.Chemscore.Metal>
0.0000

> <Gold.Chemscore.Hbonds>
donor molecule, donor type, donor heavy atom, donor atom, acceptor molecule, acceptor atom, score
      L1  H    23    50       P1 10186  1.00
      L1  H    25    51       P1 10171  0.80
      L1  H    27    52       P1 10171  1.00

> <Gold.PLP.Chemscore.Internal.Correction>
0.1071

> <Gold.Rescore>
     Score         DG    S(hbond)    S(metal)    S(lipo)     H(rot)  DE(clash)    DE(int)     intcor
     10.60     -13.40       2.80        0.00      94.90       4.90       1.32       1.48       ----

> <Gold.Chemscore.Fitness>
10.6003

> <Gold.Chemscore.DG>
-13.3966

> <Gold.Chemscore.ZeroCoef>
-5.4800

> <Gold.Chemscore.Hbond>
2.8038

> <Gold.Chemscore.Metal>
0.0000

> <Gold.Chemscore.Lipo>
94.9013

> <Gold.Chemscore.Internal_Hbond>
0.0000

> <Gold.Chemscore.DEClash>
1.3196

> <Gold.Chemscore.DEInternal>
1.4767

> <Gold.Chemscore.Rot>
4.9029

> <Gold.Chemscore.Internal.Correction>
   9.000000E+99

> <Gold.Chemscore.Hbonds>
donor molecule, donor type, donor heavy atom, donor atom, acceptor molecule, acceptor atom, score
      L1  H    23    50       P1 10186  0.70
      L1  H    25    51       P1 10171  0.76
      L1  H    27    52       P1 10171  0.93

> <Gold.Chemscore.Hbond.Weighted>
-9.3647

> <Gold.Chemscore.Metal.Weighted>
-0.0000

> <Gold.Chemscore.Lipo.Weighted>
-11.1035

> <Gold.Chemscore.Internal_Hbond.Weighted>
0.0000

> <Gold.Chemscore.DEClash.Weighted>
1.3196

> <Gold.Chemscore.DEInternal.Weighted>
1.4767

> <Gold.Chemscore.Rot.Weighted>
12.5515

> <Gold.Chemscore.Internal.Correction.Weighted>
   9.000000E+99

> <Gold.Protein.RotatedTorsions>
[ 6907 6896 6895 6894 ] final  -57.51 input  -60.11 | X-H torsion
[ 7974 7965 7964 7962 ] final -119.86 input  175.53 | X-H torsion
[ 8008 7997 7996 7995 ] final   -0.75 input   59.86 | X-H torsion
[ 10167 10162 10161 10158 ] final  146.79 input  -65.29 | X-H torsion
[ 10718 10713 10712 10709 ] final  -27.91 input   66.30 | X-H torsion
[ 10763 10752 10751 10750 ] final  141.98 input  -60.55 | X-H torsion
[ 11005 11000 10999 10996 ] final    5.76 input  -57.11 | X-H torsion

> <Gold.Protein.ActiveResidues>
 VAL166  LYS551  ARG553  GLY616  TRP617  ASP618  TYR619  PRO620  LYS621  CYS622 
 ASP623  PHE694  ASN695  SER759  ASP760  ASP761  ALA762  ILE779  LEU786  VAL792 
 PHE793  MET794  SER795  GLU796  ALA797  LYS798  CYS799  TRP800  GLU811  SER814 

> <Gold.Protein.RotatedAtoms>
  150.8080  134.7217  159.6661 H   0  0  0  0  0  0  0  0  0  0  0  0  # atno 6907 bound_to 6896
  152.4200  134.5970  159.9999 H   0  0  0  0  0  0  0  0  0  0  0  0  # atno 6908 bound_to 6896
  151.6188  133.3304  159.3119 H   0  0  0  0  0  0  0  0  0  0  0  0  # atno 6909 bound_to 6896
  145.0578  140.8267  143.4170 H   0  0  0  0  0  0  0  0  0  0  0  0  # atno 7974 bound_to 7965
  154.6545  140.2576  155.7177 H   0  0  0  0  0  0  0  0  0  0  0  0  # atno 8008 bound_to 7997
  156.2590  140.2861  156.0913 H   0  0  0  0  0  0  0  0  0  0  0  0  # atno 8009 bound_to 7997
  155.1401  140.0380  157.2786 H   0  0  0  0  0  0  0  0  0  0  0  0  # atno 8010 bound_to 7997
  139.4901  144.5803  151.6885 H   0  0  0  0  0  0  0  0  0  0  0  0  # atno 10167 bound_to 10162
  156.4320  130.4447  149.7111 H   0  0  0  0  0  0  0  0  0  0  0  0  # atno 10718 bound_to 10713
  153.9481  135.2973  155.3440 H   0  0  0  0  0  0  0  0  0  0  0  0  # atno 10763 bound_to 10752
  154.7441  135.5011  153.9176 H   0  0  0  0  0  0  0  0  0  0  0  0  # atno 10764 bound_to 10752
  153.1008  135.6733  153.9785 H   0  0  0  0  0  0  0  0  0  0  0  0  # atno 10765 bound_to 10752
  140.5671  134.0137  155.7994 H   0  0  0  0  0  0  0  0  0  0  0  0  # atno 11005 bound_to 11000
  145.1446  139.2551  143.5472 LP  0  0  0  0  0  0  0  0  0  0  0  0  # atno 17320 bound_to 7965
  146.3522  140.1133  142.8603 LP  0  0  0  0  0  0  0  0  0  0  0  0  # atno 17321 bound_to 7965
  140.5408  144.0582  150.6087 LP  0  0  0  0  0  0  0  0  0  0  0  0  # atno 17342 bound_to 10162
  140.3604  143.2911  152.0390 LP  0  0  0  0  0  0  0  0  0  0  0  0  # atno 17343 bound_to 10162
  156.4009  130.7674  151.2682 LP  0  0  0  0  0  0  0  0  0  0  0  0  # atno 17370 bound_to 10713
  157.7508  131.0240  150.3857 LP  0  0  0  0  0  0  0  0  0  0  0  0  # atno 17371 bound_to 10713
  141.1079  133.9664  157.2964 LP  0  0  0  0  0  0  0  0  0  0  0  0  # atno 17394 bound_to 11000
  139.9379  135.0194  156.8616 LP  0  0  0  0  0  0  0  0  0  0  0  0  # atno 17395 bound_to 11000

$$$$
