AV-unprocessed.smi:1527|AV-procd|sdf|6148|dock7
  -GOLD-   22720 6293D 1   1.00000     0.00000
 Structure written by MMmdl.
 30 30  0  0  0  0  0  0  0  0  2 V2000
  151.9818  145.0496  159.1826 C   0  0  0  0  0  0  0  0  0  0  0  0
  152.3454  143.9905  160.2336 C   0  0  0  0  0  0  0  0  0  0  0  0
  152.9218  142.6940  159.6332 C   0  0  1  0  0  0  0  0  0  0  0  0
  153.3074  141.6846  160.7237 C   0  0  0  0  0  0  0  0  0  0  0  0
  151.9546  142.0789  158.7259 N   0  0  0  0  0  0  0  0  0  0  0  0
  152.0937  140.8977  158.1035 C   0  0  0  0  0  0  0  0  0  0  0  0
  153.0852  140.1775  158.2325 O   0  0  0  0  0  0  0  0  0  0  0  0
  150.9204  140.4894  157.1983 C   0  0  0  0  0  0  0  0  0  0  0  0
  150.9238  139.0727  156.8051 N   0  0  0  0  0  0  0  0  0  0  0  0
  150.6795  138.1538  157.9135 N   0  5  0  0  0  0  0  0  0  0  0  0
  150.6364  136.8173  157.6688 C   0  0  0  0  0  0  0  0  0  0  0  0
  150.4196  135.9859  158.5473 O   0  0  0  0  0  0  0  0  0  0  0  0
  150.8619  136.3633  156.3065 C   0  0  0  0  0  0  0  0  0  0  0  0
  151.1094  137.2328  155.3071 C   0  0  0  0  0  0  0  0  0  0  0  0
  151.1613  138.6738  155.5226 C   0  0  0  0  0  0  0  0  0  0  0  0
  151.3970  139.4735  154.6165 O   0  0  0  0  0  0  0  0  0  0  0  0
  151.6282  145.9633  159.6603 H   0  0  0  0  0  0  0  0  0  0  0  0
  151.1922  144.7002  158.5168 H   0  0  0  0  0  0  0  0  0  0  0  0
  152.8460  145.3077  158.5700 H   0  0  0  0  0  0  0  0  0  0  0  0
  153.0755  144.4206  160.9200 H   0  0  0  0  0  0  0  0  0  0  0  0
  151.4639  143.7608  160.8336 H   0  0  0  0  0  0  0  0  0  0  0  0
  153.8328  142.9561  159.0927 H   0  0  0  0  0  0  0  0  0  0  0  0
  154.0475  142.1063  161.4042 H   0  0  0  0  0  0  0  0  0  0  0  0
  153.7381  140.7823  160.2882 H   0  0  0  0  0  0  0  0  0  0  0  0
  152.4410  141.3883  161.3162 H   0  0  0  0  0  0  0  0  0  0  0  0
  151.1072  142.5989  158.5507 H   0  0  0  0  0  0  0  0  0  0  0  0
  149.9850  140.7276  157.7076 H   0  0  0  0  0  0  0  0  0  0  0  0
  150.9382  141.1250  156.3109 H   0  0  0  0  0  0  0  0  0  0  0  0
  150.8325  135.3051  156.0919 H   0  0  0  0  0  0  0  0  0  0  0  0
  151.2722  136.8507  154.3104 H   0  0  0  0  0  0  0  0  0  0  0  0
  1  2  1  0  0  0  0
  1 17  1  0  0  0  0
  1 18  1  0  0  0  0
  1 19  1  0  0  0  0
  2  3  1  0  0  0  0
  2 20  1  0  0  0  0
  2 21  1  0  0  0  0
  3  4  1  0  0  0  0
  3  5  1  0  0  0  0
  3 22  1  0  0  0  0
  4 23  1  0  0  0  0
  4 24  1  0  0  0  0
  4 25  1  0  0  0  0
  5  6  1  0  0  0  0
  5 26  1  0  0  0  0
  6  7  2  0  0  0  0
  6  8  1  0  0  0  0
  8 27  1  0  0  0  0
  8 28  1  0  0  0  0
  8  9  1  0  0  0  0
  9 10  1  0  0  0  0
  9 15  1  0  0  0  0
 10 11  1  0  0  0  0
 11 12  2  0  0  0  0
 11 13  1  0  0  0  0
 13 29  1  0  0  0  0
 13 14  2  0  0  0  0
 14 30  1  0  0  0  0
 14 15  1  0  0  0  0
 15 16  2  0  0  0  0
M  CHG  1  10  -1
M  END
> <s_m_source_file>
AV-unprocessed.smi

> <i_m_source_file_index>
1527

> <i_lp_mmshare_version>
43012

> <i_f3d_flags>
0

> <s_epik_input>
W0NIM11bQ0gyXVtDQEhdKFtDSDNdKVtOSF1DKD1PKVtDSDJdbjFbbkhdYyg9TylbY0hdW2NIXWMxPU8=

> <s_epik_cmdline>
J2VwaWtfcHl0aG9uJywgJy1waCcsICc3LjAnLCAnLXRuJywgJzgnLCAnLW1hJywgJzIwMCcsICctbWV0YWxfYmluZGluZycsICctaW1hZScsICc8aW5maWxlLm1hZT4nLCAnLW9tYWUnLCAnPG91dGZpbGUubWFlPic=

> <r_lp_tautomer_probability>
1

> <r_epik_Ionization_Penalty>
0.0984334

> <r_epik_Ionization_Penalty_Charging>
0.0984334

> <r_epik_Ionization_Penalty_Neutral>
1.93017e-08

> <r_epik_State_Penalty>
0.0346952

> <r_epik_Charging_Adjusted_Penalty>
0.133129

> <i_epik_Tot_Q>
-1

> <i_epik_Tot_abs_Q>
1

> <r_epik_Metal_State_Penalty>
0.0346952

> <b_epik_Metal_Only>
0

> <s_lp_Force_Field>
OPLS_2005

> <r_lp_Energy>
18.954

> <b_lp_Chiralities_Consistent>
1

> <s_lp_Variant>
AV-unprocessed.smi:1527-2

> <Gold.Version>
5.8.1

> <Gold.Id.Protein>
6NUR|6NUR_protein|mol2

> <Gold.PLP.Fitness>
38.5799

> <Gold.PLP.PLP>
-30.2299

> <Gold.PLP.part.hbond>
-3.0000

> <Gold.PLP.part.metal>
0.0000

> <Gold.PLP.part.buried>
-3.3020

> <Gold.PLP.part.nonpolar>
-23.3029

> <Gold.PLP.part.repulsive>
0.1611

> <Gold.PLP.ligand.clash>
0.0000

> <Gold.PLP.ligand.torsion>
0.2958

> <Gold.PLP.Chemscore.Hbond>
2.9760

> <Gold.PLP.Chemscore.CHOScore>
0.0000

> <Gold.PLP.Chemscore.Metal>
0.0000

> <Gold.Chemscore.Hbonds>
donor molecule, donor type, donor heavy atom, donor atom, acceptor molecule, acceptor atom, score
      P1  H  6896  6907       L1    12  0.91
      P1  H  7989  7998       L1    16  1.00
      P1  H  7997  8008       L1     7  0.98

> <Gold.PLP.Chemscore.Internal.Correction>
0.0136

> <Gold.Rescore>
     Score         DG    S(hbond)    S(metal)    S(lipo)     H(rot)  DE(clash)    DE(int)     intcor
     15.94     -17.54       2.94        0.00      61.80       1.94       0.00       1.60       ----

> <Gold.Chemscore.Fitness>
15.9399

> <Gold.Chemscore.DG>
-17.5441

> <Gold.Chemscore.ZeroCoef>
-5.4800

> <Gold.Chemscore.Hbond>
2.9378

> <Gold.Chemscore.Metal>
0.0000

> <Gold.Chemscore.Lipo>
61.8023

> <Gold.Chemscore.Internal_Hbond>
0.0000

> <Gold.Chemscore.DEClash>
0.0009

> <Gold.Chemscore.DEInternal>
1.6032

> <Gold.Chemscore.Rot>
1.9449

> <Gold.Chemscore.Internal.Correction>
   9.000000E+99

> <Gold.Chemscore.Hbonds>
donor molecule, donor type, donor heavy atom, donor atom, acceptor molecule, acceptor atom, score
      P1  H  6896  6907       L1    12  0.88
      P1  H  7989  7998       L1    16  1.00
      P1  H  7997  8008       L1     7  0.93

> <Gold.Chemscore.Hbond.Weighted>
-9.8123

> <Gold.Chemscore.Metal.Weighted>
-0.0000

> <Gold.Chemscore.Lipo.Weighted>
-7.2309

> <Gold.Chemscore.Internal_Hbond.Weighted>
0.0000

> <Gold.Chemscore.DEClash.Weighted>
0.0009

> <Gold.Chemscore.DEInternal.Weighted>
1.6032

> <Gold.Chemscore.Rot.Weighted>
4.9791

> <Gold.Chemscore.Internal.Correction.Weighted>
   9.000000E+99

> <Gold.Protein.RotatedTorsions>
[ 6907 6896 6895 6894 ] final  -52.05 input  -60.11 | X-H torsion
[ 7974 7965 7964 7962 ] final   90.09 input  175.53 | X-H torsion
[ 8008 7997 7996 7995 ] final  -87.70 input   59.86 | X-H torsion
[ 10167 10162 10161 10158 ] final   -3.83 input  -65.29 | X-H torsion
[ 10718 10713 10712 10709 ] final  -20.90 input   66.30 | X-H torsion
[ 10763 10752 10751 10750 ] final  153.68 input  -60.55 | X-H torsion
[ 11005 11000 10999 10996 ] final -123.93 input  -57.11 | X-H torsion

> <Gold.Protein.ActiveResidues>
 VAL166  LYS551  ARG553  GLY616  TRP617  ASP618  TYR619  PRO620  LYS621  CYS622 
 ASP623  PHE694  ASN695  SER759  ASP760  ASP761  ALA762  ILE779  LEU786  VAL792 
 PHE793  MET794  SER795  GLU796  ALA797  LYS798  CYS799  TRP800  GLU811  SER814 

> <Gold.Protein.RotatedAtoms>
  150.8554  134.7891  159.7041 H   0  0  0  0  0  0  0  0  0  0  0  0  # atno 6907 bound_to 6896
  152.4607  134.5187  159.9786 H   0  0  0  0  0  0  0  0  0  0  0  0  # atno 6908 bound_to 6896
  151.5301  133.3412  159.2952 H   0  0  0  0  0  0  0  0  0  0  0  0  # atno 6909 bound_to 6896
  145.5237  139.2280  143.2657 H   0  0  0  0  0  0  0  0  0  0  0  0  # atno 7974 bound_to 7965
  154.6663  140.0562  157.0117 H   0  0  0  0  0  0  0  0  0  0  0  0  # atno 8008 bound_to 7997
  155.1154  140.3242  155.4492 H   0  0  0  0  0  0  0  0  0  0  0  0  # atno 8009 bound_to 7997
  156.2639  140.2007  156.6278 H   0  0  0  0  0  0  0  0  0  0  0  0  # atno 8010 bound_to 7997
  140.6905  143.6494  150.8364 H   0  0  0  0  0  0  0  0  0  0  0  0  # atno 10167 bound_to 10162
  156.5255  130.4642  149.6574 H   0  0  0  0  0  0  0  0  0  0  0  0  # atno 10718 bound_to 10713
  154.1401  135.2821  155.3163 H   0  0  0  0  0  0  0  0  0  0  0  0  # atno 10763 bound_to 10752
  154.6293  135.5440  153.7666 H   0  0  0  0  0  0  0  0  0  0  0  0  # atno 10764 bound_to 10752
  153.0253  135.6458  154.1548 H   0  0  0  0  0  0  0  0  0  0  0  0  # atno 10765 bound_to 10752
  140.9880  134.0579  157.3688 H   0  0  0  0  0  0  0  0  0  0  0  0  # atno 11005 bound_to 11000
  146.2089  140.6050  142.9068 LP  0  0  0  0  0  0  0  0  0  0  0  0  # atno 17320 bound_to 7965
  144.7662  140.5536  143.6701 LP  0  0  0  0  0  0  0  0  0  0  0  0  # atno 17321 bound_to 7965
  140.0206  143.5546  152.2802 LP  0  0  0  0  0  0  0  0  0  0  0  0  # atno 17342 bound_to 10162
  139.6303  144.7643  151.2550 LP  0  0  0  0  0  0  0  0  0  0  0  0  # atno 17343 bound_to 10162
  156.3109  130.7228  151.2120 LP  0  0  0  0  0  0  0  0  0  0  0  0  # atno 17370 bound_to 10713
  157.7430  131.0481  150.4980 LP  0  0  0  0  0  0  0  0  0  0  0  0  # atno 17371 bound_to 10713
  139.8979  135.0152  156.7124 LP  0  0  0  0  0  0  0  0  0  0  0  0  # atno 17394 bound_to 11000
  140.7084  133.9245  155.8068 LP  0  0  0  0  0  0  0  0  0  0  0  0  # atno 17395 bound_to 11000

$$$$
