AV-unprocessed.smi:2346|AV-procd|sdf|9365|dock4
  -GOLD-   2272012583D 1   1.00000     0.00000
 Structure written by MMmdl.
 44 46  0  0  0  0  0  0  0  0  1 V2000
  146.3970  137.6811  162.8020 C   0  0  0  0  0  0  0  0  0  0  0  0
  147.1004  137.6448  161.5688 O   0  0  0  0  0  0  0  0  0  0  0  0
  147.2987  136.4212  160.9622 C   0  0  0  0  0  0  0  0  0  0  0  0
  146.8349  135.1941  161.5012 C   0  0  0  0  0  0  0  0  0  0  0  0
  147.0719  133.9805  160.8268 C   0  0  0  0  0  0  0  0  0  0  0  0
  146.5918  132.7286  161.3877 C   0  0  0  0  0  0  0  0  0  0  0  0
  146.2095  131.7321  161.8341 N   0  0  0  0  0  0  0  0  0  0  0  0
  147.7749  133.9827  159.6085 C   0  0  0  0  0  0  0  0  0  0  0  0
  148.2396  135.1943  159.0663 C   0  0  0  0  0  0  0  0  0  0  0  0
  148.0056  136.4215  159.7373 C   0  0  0  0  0  0  0  0  0  0  0  0
  148.4321  137.6453  159.2632 O   0  0  0  0  0  0  0  0  0  0  0  0
  148.9589  137.7153  157.9461 C   0  0  0  0  0  0  0  0  0  0  0  0
  148.3891  138.9621  157.2593 C   0  0  0  0  0  0  0  0  0  0  0  0
  149.4337  139.7728  156.6500 N   0  0  0  0  0  0  0  0  0  0  0  0
  150.2149  139.4892  155.5735 C   0  0  0  0  0  0  0  0  0  0  0  0
  150.1211  138.1962  154.8081 C   0  0  2  0  0  0  0  0  0  0  0  0
  151.4214  137.3840  154.8904 C   0  0  0  0  0  0  0  0  0  0  0  0
  149.8179  138.4089  153.4446 O   0  0  0  0  0  0  0  0  0  0  0  0
  151.0886  140.4391  155.2317 N   0  0  0  0  0  0  0  0  0  0  0  0
  150.8630  141.4208  156.1750 C   0  0  0  0  0  0  0  0  0  0  0  0
  151.4781  142.6806  156.3531 C   0  0  0  0  0  0  0  0  0  0  0  0
  151.0774  143.5280  157.4066 C   0  0  0  0  0  0  0  0  0  0  0  0
  150.0590  143.1279  158.2956 C   0  0  0  0  0  0  0  0  0  0  0  0
  149.4328  141.8768  158.1349 C   0  0  0  0  0  0  0  0  0  0  0  0
  149.8352  141.0347  157.0803 C   0  0  0  0  0  0  0  0  0  0  0  0
  146.3289  138.7128  163.1463 H   0  0  0  0  0  0  0  0  0  0  0  0
  146.9157  137.1104  163.5735 H   0  0  0  0  0  0  0  0  0  0  0  0
  145.3795  137.3030  162.6935 H   0  0  0  0  0  0  0  0  0  0  0  0
  146.2926  135.1637  162.4346 H   0  0  0  0  0  0  0  0  0  0  0  0
  147.9620  133.0573  159.0826 H   0  0  0  0  0  0  0  0  0  0  0  0
  148.7751  135.1538  158.1302 H   0  0  0  0  0  0  0  0  0  0  0  0
  150.0479  137.7779  157.9785 H   0  0  0  0  0  0  0  0  0  0  0  0
  148.6827  136.8221  157.3858 H   0  0  0  0  0  0  0  0  0  0  0  0
  147.6498  138.6933  156.5055 H   0  0  0  0  0  0  0  0  0  0  0  0
  147.8565  139.5714  157.9900 H   0  0  0  0  0  0  0  0  0  0  0  0
  149.3149  137.5835  155.2059 H   0  0  0  0  0  0  0  0  0  0  0  0
  151.6822  137.1585  155.9242 H   0  0  0  0  0  0  0  0  0  0  0  0
  152.2579  137.9283  154.4507 H   0  0  0  0  0  0  0  0  0  0  0  0
  151.3269  136.4360  154.3599 H   0  0  0  0  0  0  0  0  0  0  0  0
  149.4295  137.6200  153.0985 H   0  0  0  0  0  0  0  0  0  0  0  0
  152.2602  142.9950  155.6781 H   0  0  0  0  0  0  0  0  0  0  0  0
  151.5539  144.4891  157.5336 H   0  0  0  0  0  0  0  0  0  0  0  0
  149.7587  143.7822  159.1008 H   0  0  0  0  0  0  0  0  0  0  0  0
  148.6531  141.5702  158.8159 H   0  0  0  0  0  0  0  0  0  0  0  0
  1  2  1  0  0  0  0
  1 26  1  0  0  0  0
  1 27  1  0  0  0  0
  1 28  1  0  0  0  0
  2  3  1  0  0  0  0
  3 10  1  0  0  0  0
  3  4  2  0  0  0  0
  4  5  1  0  0  0  0
  4 29  1  0  0  0  0
  5  6  1  0  0  0  0
  5  8  2  0  0  0  0
  6  7  3  0  0  0  0
  8  9  1  0  0  0  0
  8 30  1  0  0  0  0
  9 10  2  0  0  0  0
  9 31  1  0  0  0  0
 10 11  1  0  0  0  0
 11 12  1  0  0  0  0
 12 13  1  0  0  0  0
 12 32  1  0  0  0  0
 12 33  1  0  0  0  0
 13 14  1  0  0  0  0
 13 34  1  0  0  0  0
 13 35  1  0  0  0  0
 14 25  1  0  0  0  0
 14 15  1  0  0  0  0
 15 16  1  0  0  0  0
 15 19  2  0  0  0  0
 16 17  1  0  0  0  0
 16 18  1  0  0  0  0
 16 36  1  0  0  0  0
 17 37  1  0  0  0  0
 17 38  1  0  0  0  0
 17 39  1  0  0  0  0
 18 40  1  0  0  0  0
 19 20  1  0  0  0  0
 20 25  2  0  0  0  0
 20 21  1  0  0  0  0
 21 22  2  0  0  0  0
 21 41  1  0  0  0  0
 22 23  1  0  0  0  0
 22 42  1  0  0  0  0
 23 24  2  0  0  0  0
 23 43  1  0  0  0  0
 24 25  1  0  0  0  0
 24 44  1  0  0  0  0
M  END
> <s_m_source_file>
AV-unprocessed.smi

> <i_m_source_file_index>
2346

> <i_lp_mmshare_version>
43012

> <i_f3d_flags>
0

> <s_epik_input>
W0NIM11PYzFbY0hdYyhDI04pW2NIXVtjSF1jMU9bQ0gyXVtDSDJdbihjKG4yKVtDQEhdKFtDSDNdKVtPSF0pYyhjMjMpW2NIXVtjSF1bY0hdW2NIXTM=

> <s_epik_cmdline>
J2VwaWtfcHl0aG9uJywgJy1waCcsICc3LjAnLCAnLXRuJywgJzgnLCAnLW1hJywgJzIwMCcsICctbWV0YWxfYmluZGluZycsICctaW1hZScsICc8aW5maWxlLm1hZT4nLCAnLW9tYWUnLCAnPG91dGZpbGUubWFlPic=

> <r_epik_Ionization_Penalty>
0.0419826

> <r_epik_Ionization_Penalty_Charging>
0

> <r_epik_Ionization_Penalty_Neutral>
0.0419826

> <r_epik_State_Penalty>
0.0354317

> <r_epik_Charging_Adjusted_Penalty>
0.0354317

> <i_epik_Tot_Q>
0

> <i_epik_Tot_abs_Q>
0

> <r_epik_Metal_State_Penalty>
3.65115e-05

> <b_epik_Metal_Only>
0

> <s_lp_Force_Field>
OPLS_2005

> <r_lp_Energy>
19.3722

> <b_lp_Chiralities_Consistent>
1

> <s_lp_Variant>
AV-unprocessed.smi:2346-1

> <Gold.Version>
5.8.1

> <Gold.Id.Protein>
6NUR|6NUR_protein|mol2

> <Gold.PLP.Fitness>
48.2452

> <Gold.PLP.PLP>
-38.5703

> <Gold.PLP.part.hbond>
-5.0000

> <Gold.PLP.part.metal>
0.0000

> <Gold.PLP.part.buried>
-5.7315

> <Gold.PLP.part.nonpolar>
-26.8417

> <Gold.PLP.part.repulsive>
0.0754

> <Gold.PLP.ligand.clash>
0.0000

> <Gold.PLP.ligand.torsion>
0.8282

> <Gold.PLP.Chemscore.Hbond>
3.7440

> <Gold.PLP.Chemscore.CHOScore>
0.0000

> <Gold.PLP.Chemscore.Metal>
0.0000

> <Gold.Chemscore.Hbonds>
donor molecule, donor type, donor heavy atom, donor atom, acceptor molecule, acceptor atom, score
      L1  H    18    40       P1  7948  1.00
      P1  H  6931  6943       L1     2  0.61
      P1  H  6934  6947       L1     2  0.86
      P1  H  7989  7998       L1    19  0.99

> <Gold.PLP.Chemscore.Internal.Correction>
0.0994

> <Gold.Rescore>
     Score         DG    S(hbond)    S(metal)    S(lipo)     H(rot)  DE(clash)    DE(int)     intcor
     16.91     -19.28       2.64        0.00      98.72       2.57       1.49       0.89       ----

> <Gold.Chemscore.Fitness>
16.9064

> <Gold.Chemscore.DG>
-19.2844

> <Gold.Chemscore.ZeroCoef>
-5.4800

> <Gold.Chemscore.Hbond>
2.6431

> <Gold.Chemscore.Metal>
0.0000

> <Gold.Chemscore.Lipo>
98.7240

> <Gold.Chemscore.Internal_Hbond>
0.0000

> <Gold.Chemscore.DEClash>
1.4863

> <Gold.Chemscore.DEInternal>
0.8917

> <Gold.Chemscore.Rot>
2.5681

> <Gold.Chemscore.Internal.Correction>
   9.000000E+99

> <Gold.Chemscore.Hbonds>
donor molecule, donor type, donor heavy atom, donor atom, acceptor molecule, acceptor atom, score
      L1  H    18    40       P1  7948  0.92
      P1  H  6931  6943       L1     2  0.13
      P1  H  6934  6947       L1     2  0.62
      P1  H  7989  7998       L1    19  0.93

> <Gold.Chemscore.Hbond.Weighted>
-8.8280

> <Gold.Chemscore.Metal.Weighted>
-0.0000

> <Gold.Chemscore.Lipo.Weighted>
-11.5507

> <Gold.Chemscore.Internal_Hbond.Weighted>
0.0000

> <Gold.Chemscore.DEClash.Weighted>
1.4863

> <Gold.Chemscore.DEInternal.Weighted>
0.8917

> <Gold.Chemscore.Rot.Weighted>
6.5743

> <Gold.Chemscore.Internal.Correction.Weighted>
   9.000000E+99

> <Gold.Protein.RotatedTorsions>
[ 6907 6896 6895 6894 ] final   12.75 input  -60.11 | X-H torsion
[ 7974 7965 7964 7962 ] final -119.87 input  175.53 | X-H torsion
[ 8008 7997 7996 7995 ] final -133.40 input   59.86 | X-H torsion
[ 10167 10162 10161 10158 ] final   19.82 input  -65.29 | X-H torsion
[ 10718 10713 10712 10709 ] final  -20.14 input   66.30 | X-H torsion
[ 10763 10752 10751 10750 ] final  172.84 input  -60.55 | X-H torsion
[ 11005 11000 10999 10996 ] final -137.99 input  -57.11 | X-H torsion

> <Gold.Protein.ActiveResidues>
 VAL166  LYS551  ARG553  GLY616  TRP617  ASP618  TYR619  PRO620  LYS621  CYS622 
 ASP623  PHE694  ASN695  SER759  ASP760  ASP761  ALA762  ILE779  LEU786  VAL792 
 PHE793  MET794  SER795  GLU796  ALA797  LYS798  CYS799  TRP800  GLU811  SER814 

> <Gold.Protein.RotatedAtoms>
  151.7753  135.0776  160.0365 H   0  0  0  0  0  0  0  0  0  0  0  0  # atno 6907 bound_to 6896
  152.3260  133.5901  159.5785 H   0  0  0  0  0  0  0  0  0  0  0  0  # atno 6908 bound_to 6896
  150.7396  133.9855  159.3632 H   0  0  0  0  0  0  0  0  0  0  0  0  # atno 6909 bound_to 6896
  145.0577  140.8266  143.4171 H   0  0  0  0  0  0  0  0  0  0  0  0  # atno 7974 bound_to 7965
  155.3448  140.0474  157.3045 H   0  0  0  0  0  0  0  0  0  0  0  0  # atno 8008 bound_to 7997
  154.5258  140.2240  155.8858 H   0  0  0  0  0  0  0  0  0  0  0  0  # atno 8009 bound_to 7997
  156.1737  140.3090  155.9027 H   0  0  0  0  0  0  0  0  0  0  0  0  # atno 8010 bound_to 7997
  140.5550  143.9440  150.6603 H   0  0  0  0  0  0  0  0  0  0  0  0  # atno 10167 bound_to 10162
  156.5359  130.4666  149.6523 H   0  0  0  0  0  0  0  0  0  0  0  0  # atno 10718 bound_to 10713
  154.4317  135.2760  155.1908 H   0  0  0  0  0  0  0  0  0  0  0  0  # atno 10763 bound_to 10752
  154.3811  135.6087  153.5795 H   0  0  0  0  0  0  0  0  0  0  0  0  # atno 10764 bound_to 10752
  152.9836  135.5880  154.4629 H   0  0  0  0  0  0  0  0  0  0  0  0  # atno 10765 bound_to 10752
  140.8658  134.2112  157.4680 H   0  0  0  0  0  0  0  0  0  0  0  0  # atno 11005 bound_to 11000
  145.1448  139.2550  143.5471 LP  0  0  0  0  0  0  0  0  0  0  0  0  # atno 17320 bound_to 7965
  146.3522  140.1135  142.8603 LP  0  0  0  0  0  0  0  0  0  0  0  0  # atno 17321 bound_to 7965
  140.2876  143.3346  152.1093 LP  0  0  0  0  0  0  0  0  0  0  0  0  # atno 17342 bound_to 10162
  139.5044  144.6775  151.6093 LP  0  0  0  0  0  0  0  0  0  0  0  0  # atno 17343 bound_to 10162
  156.3016  130.7180  151.2053 LP  0  0  0  0  0  0  0  0  0  0  0  0  # atno 17370 bound_to 10713
  157.7414  131.0505  150.5102 LP  0  0  0  0  0  0  0  0  0  0  0  0  # atno 17371 bound_to 10713
  139.8709  134.9751  156.4871 LP  0  0  0  0  0  0  0  0  0  0  0  0  # atno 17394 bound_to 11000
  140.8630  133.8045  155.9285 LP  0  0  0  0  0  0  0  0  0  0  0  0  # atno 17395 bound_to 11000

$$$$
