AV-unprocessed.smi:887|AV-procd|sdf|4052|dock4
  -GOLD-   22720 1543D 1   1.00000     0.00000
 Structure written by MMmdl.
 31 32  0  0  0  0  0  0  0  0  1 V2000
  159.4017  142.0336  158.4781 C   0  0  0  0  0  0  0  0  0  0  0  0
  158.4299  140.9978  158.7935 N   0  0  0  0  0  0  0  0  0  0  0  0
  158.1608  140.5678  160.0351 C   0  0  0  0  0  0  0  0  0  0  0  0
  158.7174  141.0127  161.0392 O   0  0  0  0  0  0  0  0  0  0  0  0
  157.1017  139.4708  160.1672 C   0  0  0  0  0  0  0  0  0  0  0  0
  155.7441  139.9996  159.8305 C   0  0  0  0  0  0  0  0  0  0  0  0
  155.0343  139.4932  158.8285 N   0  0  0  0  0  0  0  0  0  0  0  0
  153.8633  140.2641  158.8395 O   0  0  0  0  0  0  0  0  0  0  0  0
  153.9962  141.1295  159.8740 C   0  0  0  0  0  0  0  0  0  0  0  0
  152.9319  142.1598  160.0905 C   0  0  2  0  0  0  0  0  0  0  0  0
  152.9099  143.2085  158.9573 C   0  0  0  0  0  0  0  0  0  0  0  0
  152.0554  144.4182  159.2944 C   0  0  0  0  0  0  0  0  0  0  0  0
  151.5883  144.6794  160.5271 C   0  0  0  0  0  0  0  0  0  0  0  0
  151.8701  143.8001  161.7313 C   0  0  0  0  0  0  0  0  0  0  0  0
  153.0329  142.8233  161.4778 C   0  0  0  0  0  0  0  0  0  0  0  0
  155.1690  141.0373  160.4986 N   0  0  0  0  0  0  0  0  0  0  0  0
  159.4512  142.1804  157.3992 H   0  0  0  0  0  0  0  0  0  0  0  0
  160.3959  141.7553  158.8303 H   0  0  0  0  0  0  0  0  0  0  0  0
  159.1214  142.9815  158.9390 H   0  0  0  0  0  0  0  0  0  0  0  0
  157.9307  140.5815  158.0205 H   0  0  0  0  0  0  0  0  0  0  0  0
  157.3520  138.6484  159.4960 H   0  0  0  0  0  0  0  0  0  0  0  0
  157.0956  139.0619  161.1788 H   0  0  0  0  0  0  0  0  0  0  0  0
  151.9765  141.6334  160.0642 H   0  0  0  0  0  0  0  0  0  0  0  0
  153.9186  143.5735  158.7610 H   0  0  0  0  0  0  0  0  0  0  0  0
  152.5518  142.7542  158.0330 H   0  0  0  0  0  0  0  0  0  0  0  0
  151.8290  145.0934  158.4821 H   0  0  0  0  0  0  0  0  0  0  0  0
  150.9687  145.5484  160.6932 H   0  0  0  0  0  0  0  0  0  0  0  0
  152.0963  144.4297  162.5923 H   0  0  0  0  0  0  0  0  0  0  0  0
  150.9591  143.2503  161.9697 H   0  0  0  0  0  0  0  0  0  0  0  0
  153.0489  142.0655  162.2620 H   0  0  0  0  0  0  0  0  0  0  0  0
  153.9784  143.3629  161.5520 H   0  0  0  0  0  0  0  0  0  0  0  0
  1  2  1  0  0  0  0
  1 17  1  0  0  0  0
  1 18  1  0  0  0  0
  1 19  1  0  0  0  0
  2  3  1  0  0  0  0
  2 20  1  0  0  0  0
  3  4  2  0  0  0  0
  3  5  1  0  0  0  0
  5  6  1  0  0  0  0
  5 21  1  0  0  0  0
  5 22  1  0  0  0  0
  6 16  1  0  0  0  0
  6  7  2  0  0  0  0
  7  8  1  0  0  0  0
  8  9  1  0  0  0  0
  9 10  1  0  0  0  0
  9 16  2  0  0  0  0
 10 15  1  0  0  0  0
 10 11  1  0  0  0  0
 10 23  1  0  0  0  0
 11 12  1  0  0  0  0
 11 24  1  0  0  0  0
 11 25  1  0  0  0  0
 12 13  2  0  0  0  0
 12 26  1  0  0  0  0
 13 14  1  0  0  0  0
 13 27  1  0  0  0  0
 14 15  1  0  0  0  0
 14 28  1  0  0  0  0
 14 29  1  0  0  0  0
 15 30  1  0  0  0  0
 15 31  1  0  0  0  0
M  END
> <s_m_source_file>
AV-unprocessed.smi

> <i_m_source_file_index>
887

> <i_lp_mmshare_version>
43012

> <i_f3d_flags>
0

> <s_epik_input>
W0NIM11bTkhdQyg9TylbQ0gyXWMxbm9jKG4xKVtDQEBIXTJbQ0gyXVtDSF09W0NIXVtDSDJdW0NIMl0y

> <s_epik_cmdline>
J2VwaWtfcHl0aG9uJywgJy1waCcsICc3LjAnLCAnLXRuJywgJzgnLCAnLW1hJywgJzIwMCcsICctbWV0YWxfYmluZGluZycsICctaW1hZScsICc8aW5maWxlLm1hZT4nLCAnLW9tYWUnLCAnPG91dGZpbGUubWFlPic=

> <r_lp_tautomer_probability>
1

> <r_epik_Ionization_Penalty>
1.02915e-07

> <r_epik_Ionization_Penalty_Charging>
0

> <r_epik_Ionization_Penalty_Neutral>
1.02915e-07

> <r_epik_State_Penalty>
-0

> <r_epik_Charging_Adjusted_Penalty>
0

> <i_epik_Tot_Q>
0

> <i_epik_Tot_abs_Q>
0

> <r_epik_Metal_State_Penalty>
-0

> <b_epik_Metal_Only>
0

> <s_lp_Force_Field>
OPLS_2005

> <r_lp_Energy>
6.3781

> <b_lp_Chiralities_Consistent>
1

> <s_lp_Variant>
AV-unprocessed.smi:887-1

> <Gold.Version>
5.8.1

> <Gold.Id.Protein>
6NUR|6NUR_protein|mol2

> <Gold.PLP.Fitness>
42.3076

> <Gold.PLP.PLP>
-40.7802

> <Gold.PLP.part.hbond>
-5.0000

> <Gold.PLP.part.metal>
0.0000

> <Gold.PLP.part.buried>
-3.7520

> <Gold.PLP.part.nonpolar>
-32.5902

> <Gold.PLP.part.repulsive>
0.1059

> <Gold.PLP.ligand.clash>
0.0000

> <Gold.PLP.ligand.torsion>
0.4607

> <Gold.PLP.Chemscore.Hbond>
0.7808

> <Gold.PLP.Chemscore.CHOScore>
0.0000

> <Gold.PLP.Chemscore.Metal>
0.0000

> <Gold.Chemscore.Hbonds>
donor molecule, donor type, donor heavy atom, donor atom, acceptor molecule, acceptor atom, score
      P1  H  7997  8009       L1     7  0.68

> <Gold.PLP.Chemscore.Internal.Correction>
0.1064

> <Gold.Rescore>
     Score         DG    S(hbond)    S(metal)    S(lipo)     H(rot)  DE(clash)    DE(int)     intcor
     11.43     -12.36       0.13        0.00      90.76       1.63       0.42       0.51       ----

> <Gold.Chemscore.Fitness>
11.4337

> <Gold.Chemscore.DG>
-12.3630

> <Gold.Chemscore.ZeroCoef>
-5.4800

> <Gold.Chemscore.Hbond>
0.1319

> <Gold.Chemscore.Metal>
0.0000

> <Gold.Chemscore.Lipo>
90.7550

> <Gold.Chemscore.Internal_Hbond>
0.0000

> <Gold.Chemscore.DEClash>
0.4232

> <Gold.Chemscore.DEInternal>
0.5061

> <Gold.Chemscore.Rot>
1.6312

> <Gold.Chemscore.Internal.Correction>
   9.000000E+99

> <Gold.Chemscore.Hbonds>
donor molecule, donor type, donor heavy atom, donor atom, acceptor molecule, acceptor atom, score
      P1  H  7997  8009       L1     7  0.06

> <Gold.Chemscore.Hbond.Weighted>
-0.4405

> <Gold.Chemscore.Metal.Weighted>
-0.0000

> <Gold.Chemscore.Lipo.Weighted>
-10.6183

> <Gold.Chemscore.Internal_Hbond.Weighted>
0.0000

> <Gold.Chemscore.DEClash.Weighted>
0.4232

> <Gold.Chemscore.DEInternal.Weighted>
0.5061

> <Gold.Chemscore.Rot.Weighted>
4.1758

> <Gold.Chemscore.Internal.Correction.Weighted>
   9.000000E+99

> <Gold.Protein.RotatedTorsions>
[ 6907 6896 6895 6894 ] final -174.88 input  -60.11 | X-H torsion
[ 7974 7965 7964 7962 ] final  -15.01 input  175.53 | X-H torsion
[ 8008 7997 7996 7995 ] final   94.40 input   59.86 | X-H torsion
[ 10167 10162 10161 10158 ] final  -44.06 input  -65.29 | X-H torsion
[ 10718 10713 10712 10709 ] final  141.79 input   66.30 | X-H torsion
[ 10763 10752 10751 10750 ] final   43.61 input  -60.55 | X-H torsion
[ 11005 11000 10999 10996 ] final  -50.21 input  -57.11 | X-H torsion

> <Gold.Protein.ActiveResidues>
 VAL166  LYS551  ARG553  GLY616  TRP617  ASP618  TYR619  PRO620  LYS621  CYS622 
 ASP623  PHE694  ASN695  SER759  ASP760  ASP761  ALA762  ILE779  LEU786  VAL792 
 PHE793  MET794  SER795  GLU796  ALA797  LYS798  CYS799  TRP800  GLU811  SER814 

> <Gold.Protein.RotatedAtoms>
  151.5796  133.3379  159.3005 H   0  0  0  0  0  0  0  0  0  0  0  0  # atno 6907 bound_to 6896
  150.8321  134.7582  159.6873 H   0  0  0  0  0  0  0  0  0  0  0  0  # atno 6908 bound_to 6896
  152.4403  134.5611  159.9946 H   0  0  0  0  0  0  0  0  0  0  0  0  # atno 6909 bound_to 6896
  146.2050  140.3431  142.8410 H   0  0  0  0  0  0  0  0  0  0  0  0  # atno 7974 bound_to 7965
  156.0575  140.3300  155.7422 H   0  0  0  0  0  0  0  0  0  0  0  0  # atno 8008 bound_to 7997
  155.5506  140.0610  157.2868 H   0  0  0  0  0  0  0  0  0  0  0  0  # atno 8009 bound_to 7997
  154.4465  140.1895  156.0671 H   0  0  0  0  0  0  0  0  0  0  0  0  # atno 8010 bound_to 7997
  140.6911  143.2950  151.3440 H   0  0  0  0  0  0  0  0  0  0  0  0  # atno 10167 bound_to 10162
  157.3879  131.1001  151.0675 H   0  0  0  0  0  0  0  0  0  0  0  0  # atno 10718 bound_to 10713
  152.9857  135.6096  154.3139 H   0  0  0  0  0  0  0  0  0  0  0  0  # atno 10763 bound_to 10752
  154.2853  135.2776  155.2681 H   0  0  0  0  0  0  0  0  0  0  0  0  # atno 10764 bound_to 10752
  154.5001  135.5869  153.6581 H   0  0  0  0  0  0  0  0  0  0  0  0  # atno 10765 bound_to 10752
  141.0803  133.6655  156.3697 H   0  0  0  0  0  0  0  0  0  0  0  0  # atno 11005 bound_to 11000
  144.8771  140.7351  143.6010 LP  0  0  0  0  0  0  0  0  0  0  0  0  # atno 17320 bound_to 7965
  145.3351  139.1748  143.4516 LP  0  0  0  0  0  0  0  0  0  0  0  0  # atno 17321 bound_to 7965
  139.6315  144.0712  152.2480 LP  0  0  0  0  0  0  0  0  0  0  0  0  # atno 17342 bound_to 10162
  140.0188  144.6169  150.7584 LP  0  0  0  0  0  0  0  0  0  0  0  0  # atno 17343 bound_to 10162
  157.1719  130.6271  149.5643 LP  0  0  0  0  0  0  0  0  0  0  0  0  # atno 17370 bound_to 10713
  155.9791  130.4782  150.6696 LP  0  0  0  0  0  0  0  0  0  0  0  0  # atno 17371 bound_to 10713
  140.5483  134.6052  157.5400 LP  0  0  0  0  0  0  0  0  0  0  0  0  # atno 17394 bound_to 11000
  139.9616  134.7442  156.0224 LP  0  0  0  0  0  0  0  0  0  0  0  0  # atno 17395 bound_to 11000

$$$$
