AV-unprocessed.smi:1352|AV-procd|sdf|5528|dock10
  -GOLD-   22720 5113D 1   1.00000     0.00000
 Structure written by MMmdl.
 47 48  0  0  0  0  0  0  0  0  2 V2000
  150.3833  141.8558  156.5575 C   0  0  0  0  0  0  0  0  0  0  0  0
  150.9428  142.6076  157.7736 C   0  0  2  0  0  0  0  0  0  0  0  0
  151.5936  143.9391  157.3576 C   0  0  0  0  0  0  0  0  0  0  0  0
  152.2139  144.6703  158.5622 C   0  0  1  0  0  0  0  0  0  0  0  0
  151.1599  145.3128  159.4814 C   0  0  0  0  0  0  0  0  0  0  0  0
  153.1659  143.7330  159.3317 C   0  0  0  0  0  0  0  0  0  0  0  0
  152.4918  142.4705  159.7335 N   0  3  2  0  0  0  0  0  0  0  0  0
  153.3532  141.6259  160.5991 C   0  0  0  0  0  0  0  0  0  0  0  0
  154.6871  141.2587  159.9205 C   0  0  0  0  0  0  0  0  0  0  0  0
  155.4620  140.3257  160.7298 N   0  0  0  0  0  0  0  0  0  0  0  0
  155.0342  139.1200  161.1339 C   0  0  0  0  0  0  0  0  0  0  0  0
  153.9111  138.6849  160.8756 O   0  0  0  0  0  0  0  0  0  0  0  0
  156.0244  138.3002  161.9736 C   0  0  0  0  0  0  0  0  0  0  0  0
  155.3812  137.2325  162.7577 N   0  0  0  0  0  0  0  0  0  0  0  0
  154.5366  137.6304  163.8133 C   0  0  0  0  0  0  0  0  0  0  0  0
  153.9012  136.7378  164.5890 C   0  0  0  0  0  0  0  0  0  0  0  0
  154.1018  135.3340  164.3192 C   0  0  0  0  0  0  0  0  0  0  0  0
  154.9048  134.9424  163.3097 C   0  0  0  0  0  0  0  0  0  0  0  0
  155.5985  135.9147  162.4572 C   0  0  0  0  0  0  0  0  0  0  0  0
  156.3295  135.5668  161.5292 O   0  0  0  0  0  0  0  0  0  0  0  0
  151.9495  141.7422  158.5557 C   0  0  0  0  0  0  0  0  0  0  0  0
  151.1731  141.5996  155.8505 H   0  0  0  0  0  0  0  0  0  0  0  0
  149.6462  142.4597  156.0274 H   0  0  0  0  0  0  0  0  0  0  0  0
  149.8931  140.9296  156.8588 H   0  0  0  0  0  0  0  0  0  0  0  0
  150.1010  142.8255  158.4317 H   0  0  0  0  0  0  0  0  0  0  0  0
  152.3749  143.7423  156.6217 H   0  0  0  0  0  0  0  0  0  0  0  0
  150.8645  144.5810  156.8614 H   0  0  0  0  0  0  0  0  0  0  0  0
  152.8140  145.4910  158.1671 H   0  0  0  0  0  0  0  0  0  0  0  0
  150.5257  144.5675  159.9609 H   0  0  0  0  0  0  0  0  0  0  0  0
  150.5125  145.9889  158.9225 H   0  0  0  0  0  0  0  0  0  0  0  0
  151.6351  145.8952  160.2711 H   0  0  0  0  0  0  0  0  0  0  0  0
  154.0310  143.4915  158.7119 H   0  0  0  0  0  0  0  0  0  0  0  0
  153.5489  144.2504  160.2126 H   0  0  0  0  0  0  0  0  0  0  0  0
  153.5265  142.1273  161.5525 H   0  0  0  0  0  0  0  0  0  0  0  0
  152.8226  140.7015  160.8311 H   0  0  0  0  0  0  0  0  0  0  0  0
  154.5087  140.8334  158.9311 H   0  0  0  0  0  0  0  0  0  0  0  0
  155.3049  142.1431  159.7701 H   0  0  0  0  0  0  0  0  0  0  0  0
  156.3969  140.6085  160.9873 H   0  0  0  0  0  0  0  0  0  0  0  0
  156.7879  137.8734  161.3204 H   0  0  0  0  0  0  0  0  0  0  0  0
  156.5616  138.9864  162.6295 H   0  0  0  0  0  0  0  0  0  0  0  0
  154.4346  138.6978  163.9455 H   0  0  0  0  0  0  0  0  0  0  0  0
  153.2546  137.0611  165.3914 H   0  0  0  0  0  0  0  0  0  0  0  0
  153.6050  134.5937  164.9289 H   0  0  0  0  0  0  0  0  0  0  0  0
  155.0419  133.8875  163.1222 H   0  0  0  0  0  0  0  0  0  0  0  0
  151.4512  140.8285  158.8772 H   0  0  0  0  0  0  0  0  0  0  0  0
  152.7725  141.4387  157.9061 H   0  0  0  0  0  0  0  0  0  0  0  0
  151.7024  142.7454  160.3006 H   0  0  0  0  0  0  0  0  0  0  0  0
  1  2  1  0  0  0  0
  1 22  1  0  0  0  0
  1 23  1  0  0  0  0
  1 24  1  0  0  0  0
  2 21  1  0  0  0  0
  2  3  1  0  0  0  0
  2 25  1  0  0  0  0
  3  4  1  0  0  0  0
  3 26  1  0  0  0  0
  3 27  1  0  0  0  0
  4  5  1  0  0  0  0
  4  6  1  0  0  0  0
  4 28  1  0  0  0  0
  5 29  1  0  0  0  0
  5 30  1  0  0  0  0
  5 31  1  0  0  0  0
  6  7  1  0  0  0  0
  6 32  1  0  0  0  0
  6 33  1  0  0  0  0
  7  8  1  0  0  0  0
  7 21  1  0  0  0  0
  7 47  1  0  0  0  0
  8  9  1  0  0  0  0
  8 34  1  0  0  0  0
  8 35  1  0  0  0  0
  9 10  1  0  0  0  0
  9 36  1  0  0  0  0
  9 37  1  0  0  0  0
 10 11  1  0  0  0  0
 10 38  1  0  0  0  0
 11 12  2  0  0  0  0
 11 13  1  0  0  0  0
 13 14  1  0  0  0  0
 13 39  1  0  0  0  0
 13 40  1  0  0  0  0
 14 19  1  0  0  0  0
 14 15  1  0  0  0  0
 15 16  2  0  0  0  0
 15 41  1  0  0  0  0
 16 17  1  0  0  0  0
 16 42  1  0  0  0  0
 17 18  2  0  0  0  0
 17 43  1  0  0  0  0
 18 19  1  0  0  0  0
 18 44  1  0  0  0  0
 19 20  2  0  0  0  0
 21 45  1  0  0  0  0
 21 46  1  0  0  0  0
M  CHG  1   7   1
M  END
> <s_m_source_file>
AV-unprocessed.smi

> <i_m_source_file_index>
1352

> <i_lp_mmshare_version>
43012

> <i_f3d_flags>
0

> <s_epik_input>
W0NIM11bQ0BASF0xW0NIMl1bQ0BASF0oW0NIM10pW0NIMl1OKFtDSDJdMSlbQ0gyXVtDSDJdW05IXUMoPU8pW0NIMl1uMltjSF1bY0hdW2NIXVtjSF1jMj1P

> <s_epik_cmdline>
J2VwaWtfcHl0aG9uJywgJy1waCcsICc3LjAnLCAnLXRuJywgJzgnLCAnLW1hJywgJzIwMCcsICctbWV0YWxfYmluZGluZycsICctaW1hZScsICc8aW5maWxlLm1hZT4nLCAnLW9tYWUnLCAnPG91dGZpbGUubWFlPic=

> <r_lp_tautomer_probability>
1

> <r_epik_Ionization_Penalty>
0.00156146

> <r_epik_Ionization_Penalty_Charging>
0.00156138

> <r_epik_Ionization_Penalty_Neutral>
8.12891e-08

> <r_epik_State_Penalty>
0.00104868

> <r_epik_Charging_Adjusted_Penalty>
0.00261006

> <i_epik_Tot_Q>
1

> <i_epik_Tot_abs_Q>
1

> <r_epik_Metal_State_Penalty>
-0

> <b_epik_Metal_Only>
0

> <s_lp_Force_Field>
OPLS_2005

> <r_lp_Energy>
27.9536

> <b_lp_Chiralities_Consistent>
1

> <s_lp_Variant>
AV-unprocessed.smi:1352-1

> <Gold.Version>
5.8.1

> <Gold.Id.Protein>
6NUR|6NUR_protein|mol2

> <Gold.PLP.Fitness>
45.5647

> <Gold.PLP.PLP>
-46.2648

> <Gold.PLP.part.hbond>
-0.5617

> <Gold.PLP.part.metal>
0.0000

> <Gold.PLP.part.buried>
-5.8698

> <Gold.PLP.part.nonpolar>
-39.5174

> <Gold.PLP.part.repulsive>
0.0987

> <Gold.PLP.ligand.clash>
0.0000

> <Gold.PLP.ligand.torsion>
0.3621

> <Gold.PLP.Chemscore.Hbond>
0.0000

> <Gold.PLP.Chemscore.CHOScore>
0.0000

> <Gold.PLP.Chemscore.Metal>
0.0000

> <Gold.PLP.Chemscore.Internal.Correction>
0.0241

> <Gold.Rescore>
     Score         DG    S(hbond)    S(metal)    S(lipo)     H(rot)  DE(clash)    DE(int)     intcor
     15.40     -16.88       0.00        0.00     137.55       1.83       0.04       1.44       ----

> <Gold.Chemscore.Fitness>
15.3979

> <Gold.Chemscore.DG>
-16.8815

> <Gold.Chemscore.ZeroCoef>
-5.4800

> <Gold.Chemscore.Hbond>
0.0000

> <Gold.Chemscore.Metal>
0.0000

> <Gold.Chemscore.Lipo>
137.5533

> <Gold.Chemscore.Internal_Hbond>
0.0000

> <Gold.Chemscore.DEClash>
0.0436

> <Gold.Chemscore.DEInternal>
1.4401

> <Gold.Chemscore.Rot>
1.8329

> <Gold.Chemscore.Internal.Correction>
   9.000000E+99

> <Gold.Chemscore.Hbond.Weighted>
-0.0000

> <Gold.Chemscore.Metal.Weighted>
-0.0000

> <Gold.Chemscore.Lipo.Weighted>
-16.0937

> <Gold.Chemscore.Internal_Hbond.Weighted>
0.0000

> <Gold.Chemscore.DEClash.Weighted>
0.0436

> <Gold.Chemscore.DEInternal.Weighted>
1.4401

> <Gold.Chemscore.Rot.Weighted>
4.6922

> <Gold.Chemscore.Internal.Correction.Weighted>
   9.000000E+99

> <Gold.Protein.RotatedTorsions>
[ 6907 6896 6895 6894 ] final  148.49 input  -60.11 | X-H torsion
[ 7974 7965 7964 7962 ] final  -41.14 input  175.53 | X-H torsion
[ 8008 7997 7996 7995 ] final -140.81 input   59.86 | X-H torsion
[ 10167 10162 10161 10158 ] final  167.51 input  -65.29 | X-H torsion
[ 10718 10713 10712 10709 ] final -168.32 input   66.30 | X-H torsion
[ 10763 10752 10751 10750 ] final   33.12 input  -60.55 | X-H torsion
[ 11005 11000 10999 10996 ] final -122.53 input  -57.11 | X-H torsion

> <Gold.Protein.ActiveResidues>
 VAL166  LYS551  ARG553  GLY616  TRP617  ASP618  TYR619  PRO620  LYS621  CYS622 
 ASP623  PHE694  ASN695  SER759  ASP760  ASP761  ALA762  ILE779  LEU786  VAL792 
 PHE793  MET794  SER795  GLU796  ALA797  LYS798  CYS799  TRP800  GLU811  SER814 

> <Gold.Protein.RotatedAtoms>
  152.1407  133.4462  159.4765 H   0  0  0  0  0  0  0  0  0  0  0  0  # atno 6907 bound_to 6896
  150.6886  134.2309  159.4443 H   0  0  0  0  0  0  0  0  0  0  0  0  # atno 6908 bound_to 6896
  152.0199  134.9828  160.0621 H   0  0  0  0  0  0  0  0  0  0  0  0  # atno 6909 bound_to 6896
  146.0238  140.6816  142.9165 H   0  0  0  0  0  0  0  0  0  0  0  0  # atno 7974 bound_to 7965
  155.4675  140.0550  157.2983 H   0  0  0  0  0  0  0  0  0  0  0  0  # atno 8008 bound_to 7997
  154.4712  140.2041  155.9945 H   0  0  0  0  0  0  0  0  0  0  0  0  # atno 8009 bound_to 7997
  156.1058  140.3212  155.8009 H   0  0  0  0  0  0  0  0  0  0  0  0  # atno 8010 bound_to 7997
  139.4947  144.3914  151.9513 H   0  0  0  0  0  0  0  0  0  0  0  0  # atno 10167 bound_to 10162
  156.6952  130.9175  151.3073 H   0  0  0  0  0  0  0  0  0  0  0  0  # atno 10718 bound_to 10713
  153.0227  135.6395  154.1462 H   0  0  0  0  0  0  0  0  0  0  0  0  # atno 10763 bound_to 10752
  154.1195  135.2847  155.3213 H   0  0  0  0  0  0  0  0  0  0  0  0  # atno 10764 bound_to 10752
  154.6274  135.5504  153.7704 H   0  0  0  0  0  0  0  0  0  0  0  0  # atno 10765 bound_to 10752
  140.9988  134.0432  157.3563 H   0  0  0  0  0  0  0  0  0  0  0  0  # atno 11005 bound_to 11000
  144.7001  140.3614  143.7163 LP  0  0  0  0  0  0  0  0  0  0  0  0  # atno 17320 bound_to 7965
  145.7150  139.1694  143.2517 LP  0  0  0  0  0  0  0  0  0  0  0  0  # atno 17321 bound_to 7965
  140.3351  144.3270  150.5979 LP  0  0  0  0  0  0  0  0  0  0  0  0  # atno 17342 bound_to 10162
  140.5612  143.2192  151.7761 LP  0  0  0  0  0  0  0  0  0  0  0  0  # atno 17343 bound_to 10162
  157.6994  130.9316  150.0739 LP  0  0  0  0  0  0  0  0  0  0  0  0  # atno 17370 bound_to 10713
  156.1768  130.3648  149.9089 LP  0  0  0  0  0  0  0  0  0  0  0  0  # atno 17371 bound_to 10713
  139.9028  135.0170  156.7349 LP  0  0  0  0  0  0  0  0  0  0  0  0  # atno 17394 bound_to 11000
  140.6922  133.9380  155.7973 LP  0  0  0  0  0  0  0  0  0  0  0  0  # atno 17395 bound_to 11000

$$$$
