AV-unprocessed.smi:2845|AV-procd|sdf|10945|dock3
  -GOLD-   2272015393D 1   1.00000     0.00000
 Structure written by MMmdl.
 42 44  0  0  0  0  0  0  0  0  1 V2000
  153.0636  142.9053  161.2056 C   0  0  0  0  0  0  0  0  0  0  0  0
  152.4026  142.5187  159.8943 C   0  0  0  0  0  0  0  0  0  0  0  0
  152.8195  141.3401  159.2356 C   0  0  0  0  0  0  0  0  0  0  0  0
  152.2315  140.9467  158.0134 C   0  0  0  0  0  0  0  0  0  0  0  0
  152.4825  139.8491  157.2077 N   0  0  0  0  0  0  0  0  0  0  0  0
  151.6175  140.0416  156.2163 C   0  0  0  0  0  0  0  0  0  0  0  0
  150.8343  141.1351  156.2841 N   0  0  0  0  0  0  0  0  0  0  0  0
  149.8263  141.5472  155.3233 C   0  0  0  0  0  0  0  0  0  0  0  0
  149.2017  140.3540  154.5759 C   0  0  2  0  0  0  0  0  0  0  0  0
  150.1199  139.8550  153.6208 O   0  0  0  0  0  0  0  0  0  0  0  0
  147.8822  140.7385  153.8800 C   0  0  0  0  0  0  0  0  0  0  0  0
  147.0237  141.5457  154.7280 N   0  0  0  0  0  0  0  0  0  0  0  0
  146.4059  142.7048  154.4819 C   0  0  0  0  0  0  0  0  0  0  0  0
  145.7020  143.1690  155.5061 N   0  0  0  0  0  0  0  0  0  0  0  0
  145.9498  142.1715  156.4035 C   0  0  0  0  0  0  0  0  0  0  0  0
  145.2527  142.2144  158.0846 S   0  0  2  0  0  0  0  0  0  0  0  0
  145.0495  144.0570  158.1522 C   0  0  0  0  0  0  0  0  0  0  0  0
  146.4030  141.8555  159.0278 O   0  0  0  0  0  0  0  0  0  0  0  0
  146.7333  141.1743  155.9974 N   0  0  0  0  0  0  0  0  0  0  0  0
  151.2059  141.7708  157.4641 C   0  0  0  0  0  0  0  0  0  0  0  0
  150.7830  142.9460  158.1099 C   0  0  0  0  0  0  0  0  0  0  0  0
  151.3812  143.3246  159.3300 C   0  0  0  0  0  0  0  0  0  0  0  0
  150.9185  144.5964  160.0187 C   0  0  0  0  0  0  0  0  0  0  0  0
  153.8241  142.1805  161.4973 H   0  0  0  0  0  0  0  0  0  0  0  0
  152.3250  142.9551  162.0060 H   0  0  0  0  0  0  0  0  0  0  0  0
  153.5462  143.8788  161.1175 H   0  0  0  0  0  0  0  0  0  0  0  0
  153.5982  140.7265  159.6644 H   0  0  0  0  0  0  0  0  0  0  0  0
  151.5491  139.3481  155.3909 H   0  0  0  0  0  0  0  0  0  0  0  0
  149.0540  142.1011  155.8586 H   0  0  0  0  0  0  0  0  0  0  0  0
  150.2781  142.2469  154.6190 H   0  0  0  0  0  0  0  0  0  0  0  0
  149.0024  139.5553  155.2917 H   0  0  0  0  0  0  0  0  0  0  0  0
  149.7448  139.9592  152.7594 H   0  0  0  0  0  0  0  0  0  0  0  0
  148.0896  141.3089  152.9738 H   0  0  0  0  0  0  0  0  0  0  0  0
  147.3371  139.8459  153.5684 H   0  0  0  0  0  0  0  0  0  0  0  0
  146.4771  143.2213  153.5358 H   0  0  0  0  0  0  0  0  0  0  0  0
  144.9008  144.4723  157.1551 H   0  0  0  0  0  0  0  0  0  0  0  0
  145.9345  144.5178  158.5915 H   0  0  0  0  0  0  0  0  0  0  0  0
  144.1851  144.3153  158.7637 H   0  0  0  0  0  0  0  0  0  0  0  0
  150.0069  143.5525  157.6669 H   0  0  0  0  0  0  0  0  0  0  0  0
  150.1182  145.0826  159.4600 H   0  0  0  0  0  0  0  0  0  0  0  0
  151.7430  145.3042  160.1070 H   0  0  0  0  0  0  0  0  0  0  0  0
  150.5419  144.3756  161.0177 H   0  0  0  0  0  0  0  0  0  0  0  0
  1  2  1  0  0  0  0
  1 24  1  0  0  0  0
  1 25  1  0  0  0  0
  1 26  1  0  0  0  0
  2 22  1  0  0  0  0
  2  3  2  0  0  0  0
  3  4  1  0  0  0  0
  3 27  1  0  0  0  0
  4 20  2  0  0  0  0
  4  5  1  0  0  0  0
  5  6  2  0  0  0  0
  6  7  1  0  0  0  0
  6 28  1  0  0  0  0
  7  8  1  0  0  0  0
  7 20  1  0  0  0  0
  8  9  1  0  0  0  0
  8 29  1  0  0  0  0
  8 30  1  0  0  0  0
  9 10  1  0  0  0  0
  9 11  1  0  0  0  0
  9 31  1  0  0  0  0
 10 32  1  0  0  0  0
 11 12  1  0  0  0  0
 11 33  1  0  0  0  0
 11 34  1  0  0  0  0
 12 19  1  0  0  0  0
 12 13  1  0  0  0  0
 13 14  2  0  0  0  0
 13 35  1  0  0  0  0
 14 15  1  0  0  0  0
 15 16  1  0  0  0  0
 15 19  2  0  0  0  0
 16 17  1  0  0  0  0
 16 18  2  0  0  0  0
 17 36  1  0  0  0  0
 17 37  1  0  0  0  0
 17 38  1  0  0  0  0
 20 21  1  0  0  0  0
 21 22  2  0  0  0  0
 21 39  1  0  0  0  0
 22 23  1  0  0  0  0
 23 40  1  0  0  0  0
 23 41  1  0  0  0  0
 23 42  1  0  0  0  0
M  END
> <s_m_source_file>
AV-unprocessed.smi

> <i_m_source_file_index>
2845

> <i_lp_mmshare_version>
43012

> <i_f3d_flags>
0

> <s_epik_input>
W0NIM11jKFtjSF0xKWMoW0NIM10pW2NIXWMoYzEyKW4oW2NIXW4yKVtDSDJdW0NASF0oW09IXSlbQ0gyXW4zW2NIXW5jKG4zKVtTQF0oPU8pW0NIM10=

> <s_epik_cmdline>
J2VwaWtfcHl0aG9uJywgJy1waCcsICc3LjAnLCAnLXRuJywgJzgnLCAnLW1hJywgJzIwMCcsICctbWV0YWxfYmluZGluZycsICctaW1hZScsICc8aW5maWxlLm1hZT4nLCAnLW9tYWUnLCAnPG91dGZpbGUubWFlPic=

> <r_lp_tautomer_probability>
1

> <r_epik_Ionization_Penalty>
0.0968684

> <r_epik_Ionization_Penalty_Charging>
0

> <r_epik_Ionization_Penalty_Neutral>
0.0968684

> <r_epik_State_Penalty>
0.0870047

> <r_epik_Charging_Adjusted_Penalty>
0.0870047

> <i_epik_Tot_Q>
0

> <i_epik_Tot_abs_Q>
0

> <r_epik_Metal_State_Penalty>
0.0746849

> <b_epik_Metal_Only>
0

> <s_lp_Force_Field>
OPLS_2005

> <r_lp_Energy>
9.81721

> <b_lp_Chiralities_Consistent>
1

> <s_lp_Variant>
AV-unprocessed.smi:2845-3

> <Gold.Version>
5.8.1

> <Gold.Id.Protein>
6NUR|6NUR_protein|mol2

> <Gold.PLP.Fitness>
55.3301

> <Gold.PLP.PLP>
-45.7300

> <Gold.PLP.part.hbond>
-3.9353

> <Gold.PLP.part.metal>
0.0000

> <Gold.PLP.part.buried>
-6.1451

> <Gold.PLP.part.nonpolar>
-37.0951

> <Gold.PLP.part.repulsive>
0.2590

> <Gold.PLP.ligand.clash>
0.0000

> <Gold.PLP.ligand.torsion>
1.2068

> <Gold.PLP.Chemscore.Hbond>
3.6564

> <Gold.PLP.Chemscore.CHOScore>
0.0000

> <Gold.PLP.Chemscore.Metal>
0.0000

> <Gold.Chemscore.Hbonds>
donor molecule, donor type, donor heavy atom, donor atom, acceptor molecule, acceptor atom, score
      L1  H    10    32       P1  7957  1.00
      P1  H  6934  6946       L1    18  0.85
      P1  H  7989  7998       L1    10  0.80
      P1  H  7997  8008       L1     5  1.00

> <Gold.PLP.Chemscore.Internal.Correction>
1.0443

> <Gold.Rescore>
     Score         DG    S(hbond)    S(metal)    S(lipo)     H(rot)  DE(clash)    DE(int)     intcor
     18.21     -20.63       3.21        0.00      97.14       2.71       0.17       2.25       ----

> <Gold.Chemscore.Fitness>
18.2108

> <Gold.Chemscore.DG>
-20.6315

> <Gold.Chemscore.ZeroCoef>
-5.4800

> <Gold.Chemscore.Hbond>
3.2112

> <Gold.Chemscore.Metal>
0.0000

> <Gold.Chemscore.Lipo>
97.1420

> <Gold.Chemscore.Internal_Hbond>
0.0000

> <Gold.Chemscore.DEClash>
0.1669

> <Gold.Chemscore.DEInternal>
2.2538

> <Gold.Chemscore.Rot>
2.7108

> <Gold.Chemscore.Internal.Correction>
   9.000000E+99

> <Gold.Chemscore.Hbonds>
donor molecule, donor type, donor heavy atom, donor atom, acceptor molecule, acceptor atom, score
      L1  H    10    32       P1  7957  0.98
      P1  H  6934  6946       L1    18  0.81
      P1  H  7989  7998       L1    10  0.18
      P1  H  7997  8008       L1     5  0.38

> <Gold.Chemscore.Hbond.Weighted>
-10.7255

> <Gold.Chemscore.Metal.Weighted>
-0.0000

> <Gold.Chemscore.Lipo.Weighted>
-11.3656

> <Gold.Chemscore.Internal_Hbond.Weighted>
0.0000

> <Gold.Chemscore.DEClash.Weighted>
0.1669

> <Gold.Chemscore.DEInternal.Weighted>
2.2538

> <Gold.Chemscore.Rot.Weighted>
6.9396

> <Gold.Chemscore.Internal.Correction.Weighted>
   9.000000E+99

> <Gold.Protein.RotatedTorsions>
[ 6907 6896 6895 6894 ] final  -84.53 input  -60.11 | X-H torsion
[ 7974 7965 7964 7962 ] final  112.09 input  175.53 | X-H torsion
[ 8008 7997 7996 7995 ] final  -55.32 input   59.86 | X-H torsion
[ 10167 10162 10161 10158 ] final   82.37 input  -65.29 | X-H torsion
[ 10718 10713 10712 10709 ] final  177.15 input   66.30 | X-H torsion
[ 10763 10752 10751 10750 ] final   61.83 input  -60.55 | X-H torsion
[ 11005 11000 10999 10996 ] final -104.08 input  -57.11 | X-H torsion

> <Gold.Protein.ActiveResidues>
 VAL166  LYS551  ARG553  GLY616  TRP617  ASP618  TYR619  PRO620  LYS621  CYS622 
 ASP623  PHE694  ASN695  SER759  ASP760  ASP761  ALA762  ILE779  LEU786  VAL792 
 PHE793  MET794  SER795  GLU796  ALA797  LYS798  CYS799  TRP800  GLU811  SER814 

> <Gold.Protein.RotatedAtoms>
  150.6876  134.3345  159.4840 H   0  0  0  0  0  0  0  0  0  0  0  0  # atno 6907 bound_to 6896
  152.1205  134.9206  160.0572 H   0  0  0  0  0  0  0  0  0  0  0  0  # atno 6908 bound_to 6896
  152.0414  133.3944  159.4375 H   0  0  0  0  0  0  0  0  0  0  0  0  # atno 6909 bound_to 6896
  145.2339  139.2807  143.4153 H   0  0  0  0  0  0  0  0  0  0  0  0  # atno 7974 bound_to 7965
  154.4191  140.1156  156.5457 H   0  0  0  0  0  0  0  0  0  0  0  0  # atno 8008 bound_to 7997
  155.6462  140.3496  155.4713 H   0  0  0  0  0  0  0  0  0  0  0  0  # atno 8009 bound_to 7997
  155.9830  140.1164  157.0699 H   0  0  0  0  0  0  0  0  0  0  0  0  # atno 8010 bound_to 7997
  139.9295  144.6161  150.8359 H   0  0  0  0  0  0  0  0  0  0  0  0  # atno 10167 bound_to 10162
  156.9095  130.9905  151.3023 H   0  0  0  0  0  0  0  0  0  0  0  0  # atno 10718 bound_to 10713
  152.9963  135.5486  154.6097 H   0  0  0  0  0  0  0  0  0  0  0  0  # atno 10763 bound_to 10752
  154.5420  135.2820  155.1089 H   0  0  0  0  0  0  0  0  0  0  0  0  # atno 10764 bound_to 10752
  154.2362  135.6424  153.5244 H   0  0  0  0  0  0  0  0  0  0  0  0  # atno 10765 bound_to 10752
  141.1117  133.8693  157.1566 H   0  0  0  0  0  0  0  0  0  0  0  0  # atno 11005 bound_to 11000
  146.3346  140.2682  142.8605 LP  0  0  0  0  0  0  0  0  0  0  0  0  # atno 17320 bound_to 7965
  144.9651  140.8314  143.5489 LP  0  0  0  0  0  0  0  0  0  0  0  0  # atno 17321 bound_to 7965
  140.7641  143.3240  151.2558 LP  0  0  0  0  0  0  0  0  0  0  0  0  # atno 17342 bound_to 10162
  139.6794  143.9881  152.2799 LP  0  0  0  0  0  0  0  0  0  0  0  0  # atno 17343 bound_to 10162
  157.5976  130.8489  149.8753 LP  0  0  0  0  0  0  0  0  0  0  0  0  # atno 17370 bound_to 10713
  156.0543  130.3711  150.1129 LP  0  0  0  0  0  0  0  0  0  0  0  0  # atno 17371 bound_to 10713
  140.0014  135.0026  157.0199 LP  0  0  0  0  0  0  0  0  0  0  0  0  # atno 17394 bound_to 11000
  140.4758  134.1340  155.7209 LP  0  0  0  0  0  0  0  0  0  0  0  0  # atno 17395 bound_to 11000

$$$$
