AV-unprocessed.smi:249|AV-procd|sdf|1912|dock8
  -GOLD-   2262021 03D 1   1.00000     0.00000
 Structure written by MMmdl.
 64 67  0  0  0  0  0  0  0  0  2 V2000
  144.6613  132.8053  151.5948 C   0  0  0  0  0  0  0  0  0  0  0  0
  145.9053  131.9164  151.4312 C   0  0  0  0  0  0  0  0  0  0  0  0
  146.2704  131.1725  152.6718 N   0  3  2  0  0  0  0  0  0  0  0  0
  146.8765  132.0715  153.6953 C   0  0  0  0  0  0  0  0  0  0  0  0
  147.1697  131.3359  155.0117 C   0  0  0  0  0  0  0  0  0  0  0  0
  148.1130  130.1350  154.7926 C   0  0  2  0  0  0  0  0  0  0  0  0
  149.4761  130.5142  154.3847 N   0  0  0  0  0  0  0  0  0  0  0  0
  150.3395  129.4637  153.8543 C   0  0  0  0  0  0  0  0  0  0  0  0
  150.1670  131.3078  155.2344 C   0  0  0  0  0  0  0  0  0  0  0  0
  150.8176  130.6984  156.2557 N   0  0  0  0  0  0  0  0  0  0  0  0
  151.5252  131.4267  157.1245 C   0  0  0  0  0  0  0  0  0  0  0  0
  151.7054  132.7489  157.1533 N   0  0  0  0  0  0  0  0  0  0  0  0
  151.0382  133.3652  156.1357 C   0  0  0  0  0  0  0  0  0  0  0  0
  150.2509  132.7255  155.1377 C   0  0  0  0  0  0  0  0  0  0  0  0
  149.7311  133.6722  154.2636 N   0  0  0  0  0  0  0  0  0  0  0  0
  150.1931  134.8071  154.7131 C   0  0  0  0  0  0  0  0  0  0  0  0
  150.9709  134.7172  155.8459 N   0  0  0  0  0  0  0  0  0  0  0  0
  151.6152  135.8178  156.5419 C   0  0  0  0  0  0  0  0  0  0  0  0
  150.6552  136.9372  157.0248 C   0  0  1  0  0  0  0  0  0  0  0  0
  149.8838  136.4419  158.2702 C   0  0  0  0  0  0  0  0  0  0  0  0
  150.7563  136.1654  159.3473 O   0  0  0  0  0  0  0  0  0  0  0  0
  151.3333  138.3186  157.2614 C   0  0  1  0  0  0  0  0  0  0  0  0
  151.9779  138.9656  156.0450 C   0  0  0  0  0  0  0  0  0  0  0  0
  152.0883  140.4288  156.4595 C   0  0  0  0  0  0  0  0  0  0  0  0
  151.0016  140.6658  157.3448 O   0  0  0  0  0  0  0  0  0  0  0  0
  150.3615  139.4358  157.6619 C   0  0  0  0  0  0  0  0  0  0  0  0
  147.4262  129.2273  153.7551 C   0  0  0  0  0  0  0  0  0  0  0  0
  147.1171  129.9586  152.4271 C   0  0  1  0  0  0  0  0  0  0  0  0
  146.4678  128.9530  151.4534 C   0  0  0  0  0  0  0  0  0  0  0  0
  144.3460  133.1982  150.6278 H   0  0  0  0  0  0  0  0  0  0  0  0
  144.8455  133.6655  152.2373 H   0  0  0  0  0  0  0  0  0  0  0  0
  143.8239  132.2422  152.0080 H   0  0  0  0  0  0  0  0  0  0  0  0
  145.6678  131.2231  150.6281 H   0  0  0  0  0  0  0  0  0  0  0  0
  146.7549  132.5089  151.0886 H   0  0  0  0  0  0  0  0  0  0  0  0
  147.7901  132.5151  153.2970 H   0  0  0  0  0  0  0  0  0  0  0  0
  146.2047  132.8966  153.9251 H   0  0  0  0  0  0  0  0  0  0  0  0
  147.5679  132.0326  155.7492 H   0  0  0  0  0  0  0  0  0  0  0  0
  146.2294  130.9796  155.4345 H   0  0  0  0  0  0  0  0  0  0  0  0
  148.1916  129.5776  155.7263 H   0  0  0  0  0  0  0  0  0  0  0  0
  151.3883  129.7654  153.8287 H   0  0  0  0  0  0  0  0  0  0  0  0
  150.0503  129.2169  152.8329 H   0  0  0  0  0  0  0  0  0  0  0  0
  150.2631  128.5604  154.4605 H   0  0  0  0  0  0  0  0  0  0  0  0
  152.0185  130.8712  157.9085 H   0  0  0  0  0  0  0  0  0  0  0  0
  149.9675  135.7488  154.2339 H   0  0  0  0  0  0  0  0  0  0  0  0
  152.1436  135.3884  157.3939 H   0  0  0  0  0  0  0  0  0  0  0  0
  152.3813  136.2385  155.8893 H   0  0  0  0  0  0  0  0  0  0  0  0
  149.8993  137.0792  156.2523 H   0  0  0  0  0  0  0  0  0  0  0  0
  149.1457  137.1753  158.5947 H   0  0  0  0  0  0  0  0  0  0  0  0
  149.3248  135.5359  158.0345 H   0  0  0  0  0  0  0  0  0  0  0  0
  150.4996  136.6958  160.0862 H   0  0  0  0  0  0  0  0  0  0  0  0
  152.0891  138.2233  158.0429 H   0  0  0  0  0  0  0  0  0  0  0  0
  152.9532  138.5530  155.7942 H   0  0  0  0  0  0  0  0  0  0  0  0
  151.3298  138.8708  155.1723 H   0  0  0  0  0  0  0  0  0  0  0  0
  153.0185  140.6009  157.0021 H   0  0  0  0  0  0  0  0  0  0  0  0
  152.0639  141.1061  155.6055 H   0  0  0  0  0  0  0  0  0  0  0  0
  149.4414  139.3737  157.0793 H   0  0  0  0  0  0  0  0  0  0  0  0
  150.0945  139.4002  158.7183 H   0  0  0  0  0  0  0  0  0  0  0  0
  148.0298  128.3387  153.5690 H   0  0  0  0  0  0  0  0  0  0  0  0
  146.4927  128.8532  154.1786 H   0  0  0  0  0  0  0  0  0  0  0  0
  148.0598  130.2888  151.9873 H   0  0  0  0  0  0  0  0  0  0  0  0
  147.0287  128.0182  151.4283 H   0  0  0  0  0  0  0  0  0  0  0  0
  146.4515  129.3178  150.4270 H   0  0  0  0  0  0  0  0  0  0  0  0
  145.4461  128.7129  151.7496 H   0  0  0  0  0  0  0  0  0  0  0  0
  145.4041  130.8326  153.0644 H   0  0  0  0  0  0  0  0  0  0  0  0
  1  2  1  0  0  0  0
  1 30  1  0  0  0  0
  1 31  1  0  0  0  0
  1 32  1  0  0  0  0
  2  3  1  0  0  0  0
  2 33  1  0  0  0  0
  2 34  1  0  0  0  0
  3 28  1  0  0  0  0
  3  4  1  0  0  0  0
  3 64  1  0  0  0  0
  4  5  1  0  0  0  0
  4 35  1  0  0  0  0
  4 36  1  0  0  0  0
  5  6  1  0  0  0  0
  5 37  1  0  0  0  0
  5 38  1  0  0  0  0
  6  7  1  0  0  0  0
  6 27  1  0  0  0  0
  6 39  1  0  0  0  0
  7  8  1  0  0  0  0
  7  9  1  0  0  0  0
  8 40  1  0  0  0  0
  8 41  1  0  0  0  0
  8 42  1  0  0  0  0
  9 14  1  0  0  0  0
  9 10  2  0  0  0  0
 10 11  1  0  0  0  0
 11 12  2  0  0  0  0
 11 43  1  0  0  0  0
 12 13  1  0  0  0  0
 13 17  1  0  0  0  0
 13 14  2  0  0  0  0
 14 15  1  0  0  0  0
 15 16  2  0  0  0  0
 16 17  1  0  0  0  0
 16 44  1  0  0  0  0
 17 18  1  0  0  0  0
 18 19  1  0  0  0  0
 18 45  1  0  0  0  0
 18 46  1  0  0  0  0
 19 20  1  0  0  0  0
 19 22  1  0  0  0  0
 19 47  1  0  0  0  0
 20 21  1  0  0  0  0
 20 48  1  0  0  0  0
 20 49  1  0  0  0  0
 21 50  1  0  0  0  0
 22 26  1  0  0  0  0
 22 23  1  0  0  0  0
 22 51  1  0  0  0  0
 23 24  1  0  0  0  0
 23 52  1  0  0  0  0
 23 53  1  0  0  0  0
 24 25  1  0  0  0  0
 24 54  1  0  0  0  0
 24 55  1  0  0  0  0
 25 26  1  0  0  0  0
 26 56  1  0  0  0  0
 26 57  1  0  0  0  0
 27 28  1  0  0  0  0
 27 58  1  0  0  0  0
 27 59  1  0  0  0  0
 28 29  1  0  0  0  0
 28 60  1  0  0  0  0
 29 61  1  0  0  0  0
 29 62  1  0  0  0  0
 29 63  1  0  0  0  0
M  CHG  1   3   1
M  END
> <s_m_source_file>
AV-unprocessed.smi

> <i_m_source_file_index>
249

> <i_lp_mmshare_version>
43012

> <i_f3d_flags>
0

> <s_epik_input>
W0NIM11bQ0gyXU4xW0NIMl1bQ0gyXVtDQEhdKFtDSDJdW0NASF0xW0NIM10pTihbQ0gzXSljKG5bY0hdbjIpYyhjMjMpbltjSF1uM1tDSDJdW0NASF0oW0NIMl1bT0hdKVtDQEBIXTRbQ0gyXVtDSDJdT1tDSDJdNA==

> <s_epik_cmdline>
J2VwaWtfcHl0aG9uJywgJy1waCcsICc3LjAnLCAnLXRuJywgJzgnLCAnLW1hJywgJzIwMCcsICctbWV0YWxfYmluZGluZycsICctaW1hZScsICc8aW5maWxlLm1hZT4nLCAnLW9tYWUnLCAnPG91dGZpbGUubWFlPic=

> <r_lp_tautomer_probability>
1

> <r_epik_Ionization_Penalty>
0.00294688

> <r_epik_Ionization_Penalty_Charging>
0.00169971

> <r_epik_Ionization_Penalty_Neutral>
0.00124717

> <r_epik_State_Penalty>
-0

> <r_epik_Charging_Adjusted_Penalty>
0.00169971

> <i_epik_Tot_Q>
1

> <i_epik_Tot_abs_Q>
1

> <r_epik_Metal_State_Penalty>
-0

> <b_epik_Metal_Only>
0

> <s_lp_Force_Field>
OPLS_2005

> <r_lp_Energy>
57.4157

> <b_lp_Chiralities_Consistent>
1

> <s_lp_Variant>
AV-unprocessed.smi:249-15

> <Gold.Version>
5.8.1

> <Gold.Id.Protein>
6NUR|6NUR_protein|mol2

> <Gold.PLP.Fitness>
44.8891

> <Gold.PLP.PLP>
-37.0788

> <Gold.PLP.part.hbond>
-2.0000

> <Gold.PLP.part.metal>
0.0000

> <Gold.PLP.part.buried>
-6.7455

> <Gold.PLP.part.nonpolar>
-29.7070

> <Gold.PLP.part.repulsive>
0.2181

> <Gold.PLP.ligand.clash>
0.0000

> <Gold.PLP.ligand.torsion>
0.8511

> <Gold.PLP.Chemscore.Hbond>
1.9516

> <Gold.PLP.Chemscore.CHOScore>
1.0000

> <Gold.PLP.Chemscore.Metal>
0.0000

> <Gold.Chemscore.Hbonds>
donor molecule, donor type, donor heavy atom, donor atom, acceptor molecule, acceptor atom, score
      P1  H  6896  6907       L1    21  0.41
      P1  H  6896  6909       L1    12  0.61
      L1  C    16    44       P1  7948  0.74

> <Gold.PLP.Chemscore.Internal.Correction>
0.6578

> <Gold.Rescore>
     Score         DG    S(hbond)    S(metal)    S(lipo)     H(rot)  DE(clash)    DE(int)     intcor
     13.34     -14.37       1.91        0.00      84.85       2.90       0.00       1.03       ----

> <Gold.Chemscore.Fitness>
13.3374

> <Gold.Chemscore.DG>
-14.3660

> <Gold.Chemscore.ZeroCoef>
-5.4800

> <Gold.Chemscore.Hbond>
1.9113

> <Gold.Chemscore.Metal>
0.0000

> <Gold.Chemscore.Lipo>
84.8531

> <Gold.Chemscore.Internal_Hbond>
0.0000

> <Gold.Chemscore.DEClash>
0.0013

> <Gold.Chemscore.DEInternal>
1.0273

> <Gold.Chemscore.Rot>
2.9006

> <Gold.Chemscore.Internal.Correction>
   9.000000E+99

> <Gold.Chemscore.Hbonds>
donor molecule, donor type, donor heavy atom, donor atom, acceptor molecule, acceptor atom, score
      P1  H  6896  6907       L1    21  0.26
      P1  H  6896  6909       L1    12  0.32

> <Gold.Chemscore.Hbond.Weighted>
-6.3839

> <Gold.Chemscore.Metal.Weighted>
-0.0000

> <Gold.Chemscore.Lipo.Weighted>
-9.9278

> <Gold.Chemscore.Internal_Hbond.Weighted>
0.0000

> <Gold.Chemscore.DEClash.Weighted>
0.0013

> <Gold.Chemscore.DEInternal.Weighted>
1.0273

> <Gold.Chemscore.Rot.Weighted>
7.4256

> <Gold.Chemscore.Internal.Correction.Weighted>
   9.000000E+99

> <Gold.Protein.RotatedTorsions>
[ 6907 6896 6895 6894 ] final  -43.56 input  -60.11 | X-H torsion
[ 7974 7965 7964 7962 ] final  -19.35 input  175.53 | X-H torsion
[ 8008 7997 7996 7995 ] final  -80.32 input   59.86 | X-H torsion
[ 10167 10162 10161 10158 ] final  164.69 input  -65.29 | X-H torsion
[ 10718 10713 10712 10709 ] final  110.85 input   66.30 | X-H torsion
[ 10763 10752 10751 10750 ] final -112.46 input  -60.55 | X-H torsion
[ 11005 11000 10999 10996 ] final   34.82 input  -57.11 | X-H torsion

> <Gold.Protein.ActiveResidues>
 VAL166  LYS551  ARG553  GLY616  TRP617  ASP618  TYR619  PRO620  LYS621  CYS622 
 ASP623  PHE694  ASN695  SER759  ASP760  ASP761  ALA762  ILE779  LEU786  VAL792 
 PHE793  MET794  SER795  GLU796  ALA797  LYS798  CYS799  TRP800  GLU811  SER814 

> <Gold.Protein.RotatedAtoms>
  150.9426  134.8833  159.7621 H   0  0  0  0  0  0  0  0  0  0  0  0  # atno 6907 bound_to 6896
  152.5086  134.3920  159.9397 H   0  0  0  0  0  0  0  0  0  0  0  0  # atno 6908 bound_to 6896
  151.3940  133.3739  159.2759 H   0  0  0  0  0  0  0  0  0  0  0  0  # atno 6909 bound_to 6896
  146.1846  140.4049  142.8481 H   0  0  0  0  0  0  0  0  0  0  0  0  # atno 7974 bound_to 7965
  154.5871  140.0665  156.9186 H   0  0  0  0  0  0  0  0  0  0  0  0  # atno 8008 bound_to 7997
  155.2360  140.3341  155.4279 H   0  0  0  0  0  0  0  0  0  0  0  0  # atno 8009 bound_to 7997
  156.2230  140.1807  156.7415 H   0  0  0  0  0  0  0  0  0  0  0  0  # atno 8010 bound_to 7997
  139.4893  144.4210  151.9187 H   0  0  0  0  0  0  0  0  0  0  0  0  # atno 10167 bound_to 10162
  157.6474  131.0940  150.6662 H   0  0  0  0  0  0  0  0  0  0  0  0  # atno 10718 bound_to 10713
  154.8350  135.4490  154.1197 H   0  0  0  0  0  0  0  0  0  0  0  0  # atno 10763 bound_to 10752
  153.2437  135.6919  153.7761 H   0  0  0  0  0  0  0  0  0  0  0  0  # atno 10764 bound_to 10752
  153.7100  135.3358  155.3220 H   0  0  0  0  0  0  0  0  0  0  0  0  # atno 10765 bound_to 10752
  140.2489  134.3326  155.7897 H   0  0  0  0  0  0  0  0  0  0  0  0  # atno 11005 bound_to 11000
  144.8374  140.6804  143.6251 LP  0  0  0  0  0  0  0  0  0  0  0  0  # atno 17320 bound_to 7965
  145.3977  139.1604  143.4194 LP  0  0  0  0  0  0  0  0  0  0  0  0  # atno 17321 bound_to 7965
  140.3654  144.2922  150.5927 LP  0  0  0  0  0  0  0  0  0  0  0  0  # atno 17342 bound_to 10162
  140.5366  143.2232  151.8152 LP  0  0  0  0  0  0  0  0  0  0  0  0  # atno 17343 bound_to 10162
  156.6977  130.4614  149.5581 LP  0  0  0  0  0  0  0  0  0  0  0  0  # atno 17370 bound_to 10713
  156.1817  130.6503  151.0959 LP  0  0  0  0  0  0  0  0  0  0  0  0  # atno 17371 bound_to 10713
  141.2203  133.7342  156.9006 LP  0  0  0  0  0  0  0  0  0  0  0  0  # atno 17394 bound_to 11000
  140.1577  134.9187  157.2675 LP  0  0  0  0  0  0  0  0  0  0  0  0  # atno 17395 bound_to 11000

$$$$
