AV-unprocessed.smi:1452|AV-procd|sdf|5907|dock2
  -GOLD-   22720 5593D 1   1.00000     0.00000
 Structure written by MMmdl.
 40 42  0  0  0  0  0  0  0  0  2 V2000
  150.7747  140.5276  155.6738 O   0  0  0  0  0  0  0  0  0  0  0  0
  149.9358  141.4239  155.7465 C   0  0  0  0  0  0  0  0  0  0  0  0
  150.0307  142.4005  156.6731 N   0  0  0  0  0  0  0  0  0  0  0  0
  151.0006  142.6308  157.6925 C   0  0  0  0  0  0  0  0  0  0  0  0
  151.3513  143.9875  157.8757 C   0  0  0  0  0  0  0  0  0  0  0  0
  152.3130  144.3333  158.8445 C   0  0  0  0  0  0  0  0  0  0  0  0
  152.9063  143.3108  159.6054 C   0  0  0  0  0  0  0  0  0  0  0  0
  152.5081  141.9847  159.3573 C   0  0  0  0  0  0  0  0  0  0  0  0
  151.5858  141.6517  158.4294 N   0  0  0  0  0  0  0  0  0  0  0  0
  148.8810  141.4972  154.9185 N   0  0  0  0  0  0  0  0  0  0  0  0
  148.5563  140.5241  153.8814 C   0  0  2  0  0  0  0  0  0  0  0  0
  147.2080  140.7762  153.2197 C   0  0  0  0  0  0  0  0  0  0  0  0
  146.8801  139.4243  152.5780 C   0  0  0  0  0  0  0  0  0  0  0  0
  147.5851  138.3882  153.3730 N   0  3  2  0  0  0  0  0  0  0  0  0
  146.6936  137.3202  153.9000 C   0  0  0  0  0  0  0  0  0  0  0  0
  147.3856  136.5275  155.0189 C   0  0  0  0  0  0  0  0  0  0  0  0
  147.7308  137.4295  156.2190 C   0  0  0  0  0  0  0  0  0  0  0  0
  147.8660  138.9121  155.8227 C   0  0  0  0  0  0  0  0  0  0  0  0
  148.4313  139.0757  154.3898 C   0  0  2  0  0  0  0  0  0  0  0  0
  149.3387  143.1306  156.5853 H   0  0  0  0  0  0  0  0  0  0  0  0
  150.8880  144.7622  157.2818 H   0  0  0  0  0  0  0  0  0  0  0  0
  152.5902  145.3655  158.9996 H   0  0  0  0  0  0  0  0  0  0  0  0
  153.6476  143.5367  160.3576 H   0  0  0  0  0  0  0  0  0  0  0  0
  152.9412  141.1691  159.9173 H   0  0  0  0  0  0  0  0  0  0  0  0
  148.2385  142.2672  155.0441 H   0  0  0  0  0  0  0  0  0  0  0  0
  149.3204  140.5605  153.1017 H   0  0  0  0  0  0  0  0  0  0  0  0
  146.4561  141.0200  153.9720 H   0  0  0  0  0  0  0  0  0  0  0  0
  147.2356  141.5912  152.4956 H   0  0  0  0  0  0  0  0  0  0  0  0
  145.8032  139.2613  152.5166 H   0  0  0  0  0  0  0  0  0  0  0  0
  147.2714  139.3889  151.5607 H   0  0  0  0  0  0  0  0  0  0  0  0
  145.7719  137.7565  154.2892 H   0  0  0  0  0  0  0  0  0  0  0  0
  146.4084  136.6599  153.0804 H   0  0  0  0  0  0  0  0  0  0  0  0
  146.7582  135.6976  155.3453 H   0  0  0  0  0  0  0  0  0  0  0  0
  148.2990  136.0807  154.6233 H   0  0  0  0  0  0  0  0  0  0  0  0
  146.9647  137.3380  156.9898 H   0  0  0  0  0  0  0  0  0  0  0  0
  148.6586  137.0775  156.6715 H   0  0  0  0  0  0  0  0  0  0  0  0
  146.8879  139.3921  155.8810 H   0  0  0  0  0  0  0  0  0  0  0  0
  148.4939  139.4181  156.5565 H   0  0  0  0  0  0  0  0  0  0  0  0
  149.4193  138.6132  154.3732 H   0  0  0  0  0  0  0  0  0  0  0  0
  148.2312  137.9387  152.7400 H   0  0  0  0  0  0  0  0  0  0  0  0
  1  2  2  0  0  0  0
  2  3  1  0  0  0  0
  2 10  1  0  0  0  0
  3  4  1  0  0  0  0
  3 20  1  0  0  0  0
  4  9  1  0  0  0  0
  4  5  2  0  0  0  0
  5  6  1  0  0  0  0
  5 21  1  0  0  0  0
  6  7  2  0  0  0  0
  6 22  1  0  0  0  0
  7  8  1  0  0  0  0
  7 23  1  0  0  0  0
  8  9  2  0  0  0  0
  8 24  1  0  0  0  0
 10 11  1  0  0  0  0
 10 25  1  0  0  0  0
 11 19  1  0  0  0  0
 11 12  1  0  0  0  0
 11 26  1  0  0  0  0
 12 13  1  0  0  0  0
 12 27  1  0  0  0  0
 12 28  1  0  0  0  0
 13 14  1  0  0  0  0
 13 29  1  0  0  0  0
 13 30  1  0  0  0  0
 14 19  1  0  0  0  0
 14 15  1  0  0  0  0
 14 40  1  0  0  0  0
 15 16  1  0  0  0  0
 15 31  1  0  0  0  0
 15 32  1  0  0  0  0
 16 17  1  0  0  0  0
 16 33  1  0  0  0  0
 16 34  1  0  0  0  0
 17 18  1  0  0  0  0
 17 35  1  0  0  0  0
 17 36  1  0  0  0  0
 18 19  1  0  0  0  0
 18 37  1  0  0  0  0
 18 38  1  0  0  0  0
 19 39  1  0  0  0  0
M  CHG  1  14   1
M  END
> <s_m_source_file>
AV-unprocessed.smi

> <i_m_source_file_index>
1452

> <i_lp_mmshare_version>
43012

> <i_f3d_flags>
0

> <s_epik_input>
W0NIMl0xW0NIMl1bQ0gyXVtDSDJdW0NASF0oTjEyKVtDQEBIXShbQ0gyXVtDSDJdMilbTkhdQyg9TylbTkhdYzNbY0hdW2NIXVtjSF1bY0hdbjM=

> <s_epik_cmdline>
J2VwaWtfcHl0aG9uJywgJy1waCcsICc3LjAnLCAnLXRuJywgJzgnLCAnLW1hJywgJzIwMCcsICctbWV0YWxfYmluZGluZycsICctaW1hZScsICc8aW5maWxlLm1hZT4nLCAnLW9tYWUnLCAnPG91dGZpbGUubWFlPic=

> <r_epik_Ionization_Penalty>
0.00100813

> <r_epik_Ionization_Penalty_Charging>
0.000974069

> <r_epik_Ionization_Penalty_Neutral>
3.40643e-05

> <r_epik_State_Penalty>
0.000633842

> <r_epik_Charging_Adjusted_Penalty>
0.00160791

> <i_epik_Tot_Q>
1

> <i_epik_Tot_abs_Q>
1

> <r_epik_Metal_State_Penalty>
-0

> <b_epik_Metal_Only>
0

> <s_lp_Force_Field>
OPLS_2005

> <r_lp_Energy>
44.9795

> <b_lp_Chiralities_Consistent>
1

> <s_lp_Variant>
AV-unprocessed.smi:1452-5

> <Gold.Version>
5.8.1

> <Gold.Id.Protein>
6NUR|6NUR_protein|mol2

> <Gold.PLP.Fitness>
45.3446

> <Gold.PLP.PLP>
-34.6123

> <Gold.PLP.part.hbond>
-3.2242

> <Gold.PLP.part.metal>
0.0000

> <Gold.PLP.part.buried>
-1.2278

> <Gold.PLP.part.nonpolar>
-30.6332

> <Gold.PLP.part.repulsive>
0.3395

> <Gold.PLP.ligand.clash>
0.0000

> <Gold.PLP.ligand.torsion>
0.3365

> <Gold.PLP.Chemscore.Hbond>
3.8008

> <Gold.PLP.Chemscore.CHOScore>
0.0000

> <Gold.PLP.Chemscore.Metal>
0.0000

> <Gold.Chemscore.Hbonds>
donor molecule, donor type, donor heavy atom, donor atom, acceptor molecule, acceptor atom, score
      L1  H     3    20       P1  8028  0.90
      L1  H    14    40       P1  7948  1.98
      P1  H  7989  7998       L1     1  0.17

> <Gold.PLP.Chemscore.Internal.Correction>
0.0029

> <Gold.Rescore>
     Score         DG    S(hbond)    S(metal)    S(lipo)     H(rot)  DE(clash)    DE(int)     intcor
     16.28     -18.89       1.97        0.00      80.31       1.00       0.04       2.57       ----

> <Gold.Chemscore.Fitness>
16.2787

> <Gold.Chemscore.DG>
-18.8933

> <Gold.Chemscore.ZeroCoef>
-5.4800

> <Gold.Chemscore.Hbond>
1.9691

> <Gold.Chemscore.Metal>
0.0000

> <Gold.Chemscore.Lipo>
80.3121

> <Gold.Chemscore.Internal_Hbond>
0.0000

> <Gold.Chemscore.DEClash>
0.0440

> <Gold.Chemscore.DEInternal>
2.5705

> <Gold.Chemscore.Rot>
1.0000

> <Gold.Chemscore.Internal.Correction>
   9.000000E+99

> <Gold.Chemscore.Hbonds>
donor molecule, donor type, donor heavy atom, donor atom, acceptor molecule, acceptor atom, score
      L1  H     3    20       P1  8028  0.88
      L1  H    14    40       P1  7948  0.88
      P1  H  7989  7998       L1     1  0.05

> <Gold.Chemscore.Hbond.Weighted>
-6.5767

> <Gold.Chemscore.Metal.Weighted>
-0.0000

> <Gold.Chemscore.Lipo.Weighted>
-9.3965

> <Gold.Chemscore.Internal_Hbond.Weighted>
0.0000

> <Gold.Chemscore.DEClash.Weighted>
0.0440

> <Gold.Chemscore.DEInternal.Weighted>
2.5705

> <Gold.Chemscore.Rot.Weighted>
2.5600

> <Gold.Chemscore.Internal.Correction.Weighted>
   9.000000E+99

> <Gold.Protein.RotatedTorsions>
[ 6907 6896 6895 6894 ] final  118.32 input  -60.11 | X-H torsion
[ 7974 7965 7964 7962 ] final  161.02 input  175.53 | X-H torsion
[ 8008 7997 7996 7995 ] final -138.27 input   59.86 | X-H torsion
[ 10167 10162 10161 10158 ] final  160.06 input  -65.29 | X-H torsion
[ 10718 10713 10712 10709 ] final  111.61 input   66.30 | X-H torsion
[ 10763 10752 10751 10750 ] final  -48.05 input  -60.55 | X-H torsion
[ 11005 11000 10999 10996 ] final  117.05 input  -57.11 | X-H torsion

> <Gold.Protein.ActiveResidues>
 VAL166  LYS551  ARG553  GLY616  TRP617  ASP618  TYR619  PRO620  LYS621  CYS622 
 ASP623  PHE694  ASN695  SER759  ASP760  ASP761  ALA762  ILE779  LEU786  VAL792 
 PHE793  MET794  SER795  GLU796  ALA797  LYS798  CYS799  TRP800  GLU811  SER814 

> <Gold.Protein.RotatedAtoms>
  152.4551  133.7708  159.6797 H   0  0  0  0  0  0  0  0  0  0  0  0  # atno 6907 bound_to 6896
  150.8475  133.7828  159.3044 H   0  0  0  0  0  0  0  0  0  0  0  0  # atno 6908 bound_to 6896
  151.5434  135.1071  159.9984 H   0  0  0  0  0  0  0  0  0  0  0  0  # atno 6909 bound_to 6896
  144.7707  139.7840  143.6298 H   0  0  0  0  0  0  0  0  0  0  0  0  # atno 7974 bound_to 7965
  155.4256  140.0521  157.3022 H   0  0  0  0  0  0  0  0  0  0  0  0  # atno 8008 bound_to 7997
  154.4883  140.2109  155.9564 H   0  0  0  0  0  0  0  0  0  0  0  0  # atno 8009 bound_to 7997
  156.1306  140.3172  155.8348 H   0  0  0  0  0  0  0  0  0  0  0  0  # atno 8010 bound_to 7997
  139.4837  144.4670  151.8628 H   0  0  0  0  0  0  0  0  0  0  0  0  # atno 10167 bound_to 10162
  157.6436  131.0953  150.6773 H   0  0  0  0  0  0  0  0  0  0  0  0  # atno 10718 bound_to 10713
  154.0715  135.6604  153.4825 H   0  0  0  0  0  0  0  0  0  0  0  0  # atno 10763 bound_to 10752
  153.0389  135.5158  154.7562 H   0  0  0  0  0  0  0  0  0  0  0  0  # atno 10764 bound_to 10752
  154.6630  135.3018  154.9810 H   0  0  0  0  0  0  0  0  0  0  0  0  # atno 10765 bound_to 10752
  139.9061  134.9605  156.7292 H   0  0  0  0  0  0  0  0  0  0  0  0  # atno 11005 bound_to 11000
  146.1850  139.5061  142.9842 LP  0  0  0  0  0  0  0  0  0  0  0  0  # atno 17320 bound_to 7965
  145.6334  141.0299  143.1851 LP  0  0  0  0  0  0  0  0  0  0  0  0  # atno 17321 bound_to 7965
  140.4136  144.2336  150.5888 LP  0  0  0  0  0  0  0  0  0  0  0  0  # atno 17342 bound_to 10162
  140.4942  143.2338  151.8774 LP  0  0  0  0  0  0  0  0  0  0  0  0  # atno 17343 bound_to 10162
  156.7094  130.4647  149.5551 LP  0  0  0  0  0  0  0  0  0  0  0  0  # atno 17370 bound_to 10713
  156.1740  130.6456  151.0872 LP  0  0  0  0  0  0  0  0  0  0  0  0  # atno 17371 bound_to 10713
  140.6939  133.9366  155.7983 LP  0  0  0  0  0  0  0  0  0  0  0  0  # atno 17394 bound_to 11000
  141.0421  134.0606  157.3888 LP  0  0  0  0  0  0  0  0  0  0  0  0  # atno 17395 bound_to 11000

$$$$
