AV-unprocessed.smi:152|AV-procd|sdf|1248|dock5
  -GOLD-   2262018473D 1   1.00000     0.00000
 Structure written by MMmdl.
 58 61  0  0  0  0  0  0  0  0  2 V2000
  145.0984  136.5658  150.0093 C   0  0  0  0  0  0  0  0  0  0  0  0
  146.0697  135.5734  150.6648 C   0  0  0  0  0  0  0  0  0  0  0  0
  146.0043  134.2263  150.0453 N   0  3  2  0  0  0  0  0  0  0  0  0
  144.6474  133.6404  149.9750 C   0  0  0  0  0  0  0  0  0  0  0  0
  144.8288  132.1160  149.9692 C   0  0  0  0  0  0  0  0  0  0  0  0
  146.3419  131.8957  149.9446 C   0  0  0  0  0  0  0  0  0  0  0  0
  146.9183  133.1763  150.5583 C   0  0  2  0  0  0  0  0  0  0  0  0
  146.9698  133.1077  152.1093 C   0  0  0  0  0  0  0  0  0  0  0  0
  148.0661  132.2809  152.6130 N   0  0  0  0  0  0  0  0  0  0  0  0
  147.7476  130.8939  152.9212 C   0  0  0  0  0  0  0  0  0  0  0  0
  148.8974  132.8290  153.5317 C   0  0  0  0  0  0  0  0  0  0  0  0
  150.0016  132.1524  153.9455 N   0  0  0  0  0  0  0  0  0  0  0  0
  150.8220  132.6984  154.8484 C   0  0  0  0  0  0  0  0  0  0  0  0
  150.7268  133.8844  155.4532 N   0  0  0  0  0  0  0  0  0  0  0  0
  149.6218  134.5670  155.0367 C   0  0  0  0  0  0  0  0  0  0  0  0
  148.6628  134.1149  154.0880 C   0  0  0  0  0  0  0  0  0  0  0  0
  147.6652  135.0671  153.9255 N   0  0  0  0  0  0  0  0  0  0  0  0
  148.0151  136.0308  154.7330 C   0  0  0  0  0  0  0  0  0  0  0  0
  149.1839  135.8196  155.4306 N   0  0  0  0  0  0  0  0  0  0  0  0
  149.8003  136.7223  156.3909 C   0  0  0  0  0  0  0  0  0  0  0  0
  151.1892  137.2661  155.9558 C   0  0  0  0  0  0  0  0  0  0  0  0
  152.1203  136.2075  156.0799 O   0  0  0  0  0  0  0  0  0  0  0  0
  151.2480  137.7653  154.4962 C   0  0  0  0  0  0  0  0  0  0  0  0
  150.4860  139.0911  154.3306 C   0  0  0  0  0  0  0  0  0  0  0  0
  151.0240  140.0696  155.2140 O   0  0  0  0  0  0  0  0  0  0  0  0
  150.8980  139.7172  156.5880 C   0  0  0  0  0  0  0  0  0  0  0  0
  151.6621  138.4106  156.8733 C   0  0  0  0  0  0  0  0  0  0  0  0
  145.1193  137.5240  150.5285 H   0  0  0  0  0  0  0  0  0  0  0  0
  144.0738  136.1943  150.0412 H   0  0  0  0  0  0  0  0  0  0  0  0
  145.3538  136.7551  148.9668 H   0  0  0  0  0  0  0  0  0  0  0  0
  147.0886  135.9606  150.6500 H   0  0  0  0  0  0  0  0  0  0  0  0
  145.8012  135.4731  151.7171 H   0  0  0  0  0  0  0  0  0  0  0  0
  144.0521  133.9404  150.8388 H   0  0  0  0  0  0  0  0  0  0  0  0
  144.1365  133.9933  149.0785 H   0  0  0  0  0  0  0  0  0  0  0  0
  144.4031  131.6891  150.8783 H   0  0  0  0  0  0  0  0  0  0  0  0
  144.3354  131.6418  149.1201 H   0  0  0  0  0  0  0  0  0  0  0  0
  146.6451  130.9832  150.4592 H   0  0  0  0  0  0  0  0  0  0  0  0
  146.6764  131.8092  148.9099 H   0  0  0  0  0  0  0  0  0  0  0  0
  147.9158  133.3633  150.1601 H   0  0  0  0  0  0  0  0  0  0  0  0
  147.0720  134.1025  152.5425 H   0  0  0  0  0  0  0  0  0  0  0  0
  146.0288  132.7100  152.4908 H   0  0  0  0  0  0  0  0  0  0  0  0
  148.6469  130.3120  153.1263 H   0  0  0  0  0  0  0  0  0  0  0  0
  147.2360  130.4263  152.0800 H   0  0  0  0  0  0  0  0  0  0  0  0
  147.0945  130.8351  153.7926 H   0  0  0  0  0  0  0  0  0  0  0  0
  151.6773  132.1001  155.1257 H   0  0  0  0  0  0  0  0  0  0  0  0
  147.4288  136.9321  154.8383 H   0  0  0  0  0  0  0  0  0  0  0  0
  149.1017  137.5395  156.5669 H   0  0  0  0  0  0  0  0  0  0  0  0
  149.8858  136.1974  157.3432 H   0  0  0  0  0  0  0  0  0  0  0  0
  151.9339  135.7343  156.8763 H   0  0  0  0  0  0  0  0  0  0  0  0
  152.2876  137.9354  154.2115 H   0  0  0  0  0  0  0  0  0  0  0  0
  150.8720  137.0166  153.7998 H   0  0  0  0  0  0  0  0  0  0  0  0
  150.5865  139.4518  153.3069 H   0  0  0  0  0  0  0  0  0  0  0  0
  149.4188  138.9634  154.5154 H   0  0  0  0  0  0  0  0  0  0  0  0
  151.3082  140.5258  157.1931 H   0  0  0  0  0  0  0  0  0  0  0  0
  149.8449  139.6313  156.8572 H   0  0  0  0  0  0  0  0  0  0  0  0
  151.5566  138.1325  157.9227 H   0  0  0  0  0  0  0  0  0  0  0  0
  152.7256  138.5952  156.7119 H   0  0  0  0  0  0  0  0  0  0  0  0
  146.2779  134.3523  149.0812 H   0  0  0  0  0  0  0  0  0  0  0  0
  1  2  1  0  0  0  0
  1 28  1  0  0  0  0
  1 29  1  0  0  0  0
  1 30  1  0  0  0  0
  2  3  1  0  0  0  0
  2 31  1  0  0  0  0
  2 32  1  0  0  0  0
  3  7  1  0  0  0  0
  3  4  1  0  0  0  0
  3 58  1  0  0  0  0
  4  5  1  0  0  0  0
  4 33  1  0  0  0  0
  4 34  1  0  0  0  0
  5  6  1  0  0  0  0
  5 35  1  0  0  0  0
  5 36  1  0  0  0  0
  6  7  1  0  0  0  0
  6 37  1  0  0  0  0
  6 38  1  0  0  0  0
  7  8  1  0  0  0  0
  7 39  1  0  0  0  0
  8  9  1  0  0  0  0
  8 40  1  0  0  0  0
  8 41  1  0  0  0  0
  9 10  1  0  0  0  0
  9 11  1  0  0  0  0
 10 42  1  0  0  0  0
 10 43  1  0  0  0  0
 10 44  1  0  0  0  0
 11 16  1  0  0  0  0
 11 12  2  0  0  0  0
 12 13  1  0  0  0  0
 13 14  2  0  0  0  0
 13 45  1  0  0  0  0
 14 15  1  0  0  0  0
 15 19  1  0  0  0  0
 15 16  2  0  0  0  0
 16 17  1  0  0  0  0
 17 18  2  0  0  0  0
 18 19  1  0  0  0  0
 18 46  1  0  0  0  0
 19 20  1  0  0  0  0
 20 21  1  0  0  0  0
 20 47  1  0  0  0  0
 20 48  1  0  0  0  0
 21 27  1  0  0  0  0
 21 22  1  0  0  0  0
 21 23  1  0  0  0  0
 22 49  1  0  0  0  0
 23 24  1  0  0  0  0
 23 50  1  0  0  0  0
 23 51  1  0  0  0  0
 24 25  1  0  0  0  0
 24 52  1  0  0  0  0
 24 53  1  0  0  0  0
 25 26  1  0  0  0  0
 26 27  1  0  0  0  0
 26 54  1  0  0  0  0
 26 55  1  0  0  0  0
 27 56  1  0  0  0  0
 27 57  1  0  0  0  0
M  CHG  1   3   1
M  END
> <s_m_source_file>
AV-unprocessed.smi

> <i_m_source_file_index>
152

> <i_lp_mmshare_version>
43012

> <i_f3d_flags>
0

> <s_epik_input>
W0NIM11bQ0gyXU4xW0NIMl1bQ0gyXVtDSDJdW0NASF0xW0NIMl1OKFtDSDNdKWMobltjSF1uMiljKGMyMyluW2NIXW4zW0NIMl1DNChbT0hdKVtDSDJdW0NIMl1PW0NIMl1bQ0gyXTQ=

> <s_epik_cmdline>
J2VwaWtfcHl0aG9uJywgJy1waCcsICc3LjAnLCAnLXRuJywgJzgnLCAnLW1hJywgJzIwMCcsICctbWV0YWxfYmluZGluZycsICctaW1hZScsICc8aW5maWxlLm1hZT4nLCAnLW9tYWUnLCAnPG91dGZpbGUubWFlPic=

> <r_lp_tautomer_probability>
1

> <r_epik_Ionization_Penalty>
0.00152183

> <r_epik_Ionization_Penalty_Charging>
0.00112577

> <r_epik_Ionization_Penalty_Neutral>
0.000396066

> <r_epik_State_Penalty>
-0

> <r_epik_Charging_Adjusted_Penalty>
0.00112577

> <i_epik_Tot_Q>
1

> <i_epik_Tot_abs_Q>
1

> <r_epik_Metal_State_Penalty>
-0

> <b_epik_Metal_Only>
0

> <s_lp_Force_Field>
OPLS_2005

> <r_lp_Energy>
47.1196

> <b_lp_Chiralities_Consistent>
1

> <s_lp_Variant>
AV-unprocessed.smi:152-3

> <Gold.Version>
5.8.1

> <Gold.Id.Protein>
6NUR|6NUR_protein|mol2

> <Gold.PLP.Fitness>
46.2589

> <Gold.PLP.PLP>
-38.8001

> <Gold.PLP.part.hbond>
-3.0000

> <Gold.PLP.part.metal>
0.0000

> <Gold.PLP.part.buried>
-2.7240

> <Gold.PLP.part.nonpolar>
-35.1537

> <Gold.PLP.part.repulsive>
1.0067

> <Gold.PLP.ligand.clash>
0.0000

> <Gold.PLP.ligand.torsion>
1.0475

> <Gold.PLP.Chemscore.Hbond>
2.9000

> <Gold.PLP.Chemscore.CHOScore>
0.0000

> <Gold.PLP.Chemscore.Metal>
0.0000

> <Gold.Chemscore.Hbonds>
donor molecule, donor type, donor heavy atom, donor atom, acceptor molecule, acceptor atom, score
      L1  H     3    58       P1  7921  0.67
      P1  H  7989  7998       L1    25  0.10
      P1  H 10752 10763       L1    22  1.00

> <Gold.PLP.Chemscore.Internal.Correction>
0.8538

> <Gold.Rescore>
     Score         DG    S(hbond)    S(metal)    S(lipo)     H(rot)  DE(clash)    DE(int)     intcor
     13.34     -18.25       2.54        0.00      96.47       2.73       2.17       2.74       ----

> <Gold.Chemscore.Fitness>
13.3408

> <Gold.Chemscore.DG>
-18.2486

> <Gold.Chemscore.ZeroCoef>
-5.4800

> <Gold.Chemscore.Hbond>
2.5398

> <Gold.Chemscore.Metal>
0.0000

> <Gold.Chemscore.Lipo>
96.4671

> <Gold.Chemscore.Internal_Hbond>
0.0000

> <Gold.Chemscore.DEClash>
2.1720

> <Gold.Chemscore.DEInternal>
2.7358

> <Gold.Chemscore.Rot>
2.7348

> <Gold.Chemscore.Internal.Correction>
   9.000000E+99

> <Gold.Chemscore.Hbonds>
donor molecule, donor type, donor heavy atom, donor atom, acceptor molecule, acceptor atom, score
      L1  H     3    58       P1  7921  0.07
      P1  H 10752 10763       L1    22  0.92

> <Gold.Chemscore.Hbond.Weighted>
-8.4830

> <Gold.Chemscore.Metal.Weighted>
-0.0000

> <Gold.Chemscore.Lipo.Weighted>
-11.2866

> <Gold.Chemscore.Internal_Hbond.Weighted>
0.0000

> <Gold.Chemscore.DEClash.Weighted>
2.1720

> <Gold.Chemscore.DEInternal.Weighted>
2.7358

> <Gold.Chemscore.Rot.Weighted>
7.0010

> <Gold.Chemscore.Internal.Correction.Weighted>
   9.000000E+99

> <Gold.Protein.RotatedTorsions>
[ 6907 6896 6895 6894 ] final  169.00 input  -60.11 | X-H torsion
[ 7974 7965 7964 7962 ] final  168.51 input  175.53 | X-H torsion
[ 8008 7997 7996 7995 ] final  158.33 input   59.86 | X-H torsion
[ 10167 10162 10161 10158 ] final   91.37 input  -65.29 | X-H torsion
[ 10718 10713 10712 10709 ] final -166.83 input   66.30 | X-H torsion
[ 10763 10752 10751 10750 ] final   87.29 input  -60.55 | X-H torsion
[ 11005 11000 10999 10996 ] final -102.03 input  -57.11 | X-H torsion

> <Gold.Protein.ActiveResidues>
 VAL166  LYS551  ARG553  GLY616  TRP617  ASP618  TYR619  PRO620  LYS621  CYS622 
 ASP623  PHE694  ASN695  SER759  ASP760  ASP761  ALA762  ILE779  LEU786  VAL792 
 PHE793  MET794  SER795  GLU796  ALA797  LYS798  CYS799  TRP800  GLU811  SER814 

> <Gold.Protein.RotatedAtoms>
  151.8388  133.3420  159.3636 H   0  0  0  0  0  0  0  0  0  0  0  0  # atno 6907 bound_to 6896
  150.7241  134.5412  159.5757 H   0  0  0  0  0  0  0  0  0  0  0  0  # atno 6908 bound_to 6896
  152.2881  134.7754  160.0434 H   0  0  0  0  0  0  0  0  0  0  0  0  # atno 6909 bound_to 6896
  144.7386  139.8918  143.6403 H   0  0  0  0  0  0  0  0  0  0  0  0  # atno 7974 bound_to 7965
  156.2309  140.1861  156.7243 H   0  0  0  0  0  0  0  0  0  0  0  0  # atno 8008 bound_to 7997
  154.6022  140.0634  156.9411 H   0  0  0  0  0  0  0  0  0  0  0  0  # atno 8009 bound_to 7997
  155.2156  140.3303  155.4325 H   0  0  0  0  0  0  0  0  0  0  0  0  # atno 8010 bound_to 7997
  139.8381  144.6654  150.9317 H   0  0  0  0  0  0  0  0  0  0  0  0  # atno 10167 bound_to 10162
  156.6736  130.9094  151.3047 H   0  0  0  0  0  0  0  0  0  0  0  0  # atno 10718 bound_to 10713
  153.1654  135.4549  154.9830 H   0  0  0  0  0  0  0  0  0  0  0  0  # atno 10763 bound_to 10752
  154.7928  135.3226  154.7740 H   0  0  0  0  0  0  0  0  0  0  0  0  # atno 10764 bound_to 10752
  153.8224  135.6945  153.4880 H   0  0  0  0  0  0  0  0  0  0  0  0  # atno 10765 bound_to 10752
  141.1206  133.8525  157.1307 H   0  0  0  0  0  0  0  0  0  0  0  0  # atno 11005 bound_to 11000
  146.1136  139.4144  143.0272 LP  0  0  0  0  0  0  0  0  0  0  0  0  # atno 17320 bound_to 7965
  145.7407  141.0009  143.1303 LP  0  0  0  0  0  0  0  0  0  0  0  0  # atno 17321 bound_to 7965
  140.7800  143.3938  151.1265 LP  0  0  0  0  0  0  0  0  0  0  0  0  # atno 17342 bound_to 10162
  139.7586  143.8669  152.3095 LP  0  0  0  0  0  0  0  0  0  0  0  0  # atno 17343 bound_to 10162
  157.7068  130.9395  150.0959 LP  0  0  0  0  0  0  0  0  0  0  0  0  # atno 17370 bound_to 10713
  156.1920  130.3655  149.8897 LP  0  0  0  0  0  0  0  0  0  0  0  0  # atno 17371 bound_to 10713
  140.0161  134.9967  157.0496 LP  0  0  0  0  0  0  0  0  0  0  0  0  # atno 17394 bound_to 11000
  140.4517  134.1575  155.7182 LP  0  0  0  0  0  0  0  0  0  0  0  0  # atno 17395 bound_to 11000

$$$$
