AV-unprocessed.smi:356|AV-procd|sdf|2408|dock6
  -GOLD-   2262022343D 1   1.00000     0.00000
 Structure written by MMmdl.
 41 43  0  0  0  0  0  0  0  0  1 V2000
  155.2058  139.6514  161.9708 C   0  0  0  0  0  0  0  0  0  0  0  0
  154.3003  140.7820  161.5964 C   0  0  0  0  0  0  0  0  0  0  0  0
  153.8718  141.6753  162.4883 N   0  0  0  0  0  0  0  0  0  0  0  0
  153.0800  142.5102  161.7234 C   0  0  0  0  0  0  0  0  0  0  0  0
  152.3382  143.6574  162.0856 C   0  0  0  0  0  0  0  0  0  0  0  0
  151.5926  144.3604  161.1168 C   0  0  0  0  0  0  0  0  0  0  0  0
  151.5774  143.9275  159.7750 C   0  0  0  0  0  0  0  0  0  0  0  0
  152.3085  142.7863  159.3928 C   0  0  0  0  0  0  0  0  0  0  0  0
  153.0517  142.0879  160.3635 C   0  0  0  0  0  0  0  0  0  0  0  0
  153.8629  140.9575  160.3254 N   0  0  0  0  0  0  0  0  0  0  0  0
  154.1674  140.1434  159.1570 C   0  0  0  0  0  0  0  0  0  0  0  0
  152.9274  139.4093  158.6057 C   0  0  2  0  0  0  0  0  0  0  0  0
  152.6874  138.2494  159.3766 O   0  0  0  0  0  0  0  0  0  0  0  0
  153.0981  138.9731  157.1368 C   0  0  0  0  0  0  0  0  0  0  0  0
  151.9229  139.1585  156.2841 N   0  0  0  0  0  0  0  0  0  0  0  0
  152.1944  138.8711  154.8769 C   0  0  0  0  0  0  0  0  0  0  0  0
  150.9549  139.1002  153.9943 C   0  0  0  0  0  0  0  0  0  0  0  0
  150.4870  140.4344  154.1601 O   0  0  0  0  0  0  0  0  0  0  0  0
  150.1653  140.7383  155.5131 C   0  0  0  0  0  0  0  0  0  0  0  0
  151.4043  140.5176  156.3981 C   0  0  0  0  0  0  0  0  0  0  0  0
  155.4651  139.7034  163.0286 H   0  0  0  0  0  0  0  0  0  0  0  0
  156.1273  139.6936  161.3907 H   0  0  0  0  0  0  0  0  0  0  0  0
  154.7146  138.6962  161.7854 H   0  0  0  0  0  0  0  0  0  0  0  0
  152.3438  143.9970  163.1108 H   0  0  0  0  0  0  0  0  0  0  0  0
  151.0303  145.2367  161.4052 H   0  0  0  0  0  0  0  0  0  0  0  0
  151.0047  144.4726  159.0390 H   0  0  0  0  0  0  0  0  0  0  0  0
  152.3000  142.4537  158.3657 H   0  0  0  0  0  0  0  0  0  0  0  0
  154.6010  140.7871  158.3916 H   0  0  0  0  0  0  0  0  0  0  0  0
  154.9473  139.4284  159.4215 H   0  0  0  0  0  0  0  0  0  0  0  0
  152.0446  140.0382  158.7109 H   0  0  0  0  0  0  0  0  0  0  0  0
  153.5137  137.8223  159.5423 H   0  0  0  0  0  0  0  0  0  0  0  0
  153.9328  139.5354  156.7155 H   0  0  0  0  0  0  0  0  0  0  0  0
  153.4008  137.9251  157.1051 H   0  0  0  0  0  0  0  0  0  0  0  0
  153.0124  139.4996  154.5216 H   0  0  0  0  0  0  0  0  0  0  0  0
  152.5168  137.8383  154.7547 H   0  0  0  0  0  0  0  0  0  0  0  0
  151.2005  138.9363  152.9450 H   0  0  0  0  0  0  0  0  0  0  0  0
  150.1631  138.3950  154.2515 H   0  0  0  0  0  0  0  0  0  0  0  0
  149.8331  141.7743  155.5764 H   0  0  0  0  0  0  0  0  0  0  0  0
  149.3353  140.1137  155.8468 H   0  0  0  0  0  0  0  0  0  0  0  0
  151.1458  140.7293  157.4361 H   0  0  0  0  0  0  0  0  0  0  0  0
  152.1784  141.2338  156.1172 H   0  0  0  0  0  0  0  0  0  0  0  0
  1  2  1  0  0  0  0
  1 21  1  0  0  0  0
  1 22  1  0  0  0  0
  1 23  1  0  0  0  0
  2 10  1  0  0  0  0
  2  3  2  0  0  0  0
  3  4  1  0  0  0  0
  4  9  2  0  0  0  0
  4  5  1  0  0  0  0
  5  6  2  0  0  0  0
  5 24  1  0  0  0  0
  6  7  1  0  0  0  0
  6 25  1  0  0  0  0
  7  8  2  0  0  0  0
  7 26  1  0  0  0  0
  8  9  1  0  0  0  0
  8 27  1  0  0  0  0
  9 10  1  0  0  0  0
 10 11  1  0  0  0  0
 11 12  1  0  0  0  0
 11 28  1  0  0  0  0
 11 29  1  0  0  0  0
 12 13  1  0  0  0  0
 12 14  1  0  0  0  0
 12 30  1  0  0  0  0
 13 31  1  0  0  0  0
 14 15  1  0  0  0  0
 14 32  1  0  0  0  0
 14 33  1  0  0  0  0
 15 20  1  0  0  0  0
 15 16  1  0  0  0  0
 16 17  1  0  0  0  0
 16 34  1  0  0  0  0
 16 35  1  0  0  0  0
 17 18  1  0  0  0  0
 17 36  1  0  0  0  0
 17 37  1  0  0  0  0
 18 19  1  0  0  0  0
 19 20  1  0  0  0  0
 19 38  1  0  0  0  0
 19 39  1  0  0  0  0
 20 40  1  0  0  0  0
 20 41  1  0  0  0  0
M  END
> <s_m_source_file>
AV-unprocessed.smi

> <i_m_source_file_index>
356

> <i_lp_mmshare_version>
43012

> <i_f3d_flags>
0

> <s_epik_input>
W2NIXTFbY0hdW2NIXVtjSF1jKGMxMiluKGMobjIpW0NIM10pW0NIMl1bQ0BIXShbT0hdKVtDSDJdTjNbQ0gyXVtDSDJdT1tDSDJdW0NIMl0z

> <s_epik_cmdline>
J2VwaWtfcHl0aG9uJywgJy1waCcsICc3LjAnLCAnLXRuJywgJzgnLCAnLW1hJywgJzIwMCcsICctbWV0YWxfYmluZGluZycsICctaW1hZScsICc8aW5maWxlLm1hZT4nLCAnLW9tYWUnLCAnPG91dGZpbGUubWFlPic=

> <r_epik_Ionization_Penalty>
0.355661

> <r_epik_Ionization_Penalty_Charging>
0

> <r_epik_Ionization_Penalty_Neutral>
0.355661

> <r_epik_State_Penalty>
0.325123

> <r_epik_Charging_Adjusted_Penalty>
0.325123

> <i_epik_Tot_Q>
0

> <i_epik_Tot_abs_Q>
0

> <r_epik_Metal_State_Penalty>
0.239925

> <b_epik_Metal_Only>
0

> <s_lp_Force_Field>
OPLS_2005

> <r_lp_Energy>
27.9323

> <b_lp_Chiralities_Consistent>
1

> <s_lp_Variant>
AV-unprocessed.smi:356-1

> <Gold.Version>
5.8.1

> <Gold.Id.Protein>
6NUR|6NUR_protein|mol2

> <Gold.PLP.Fitness>
48.1686

> <Gold.PLP.PLP>
-46.8372

> <Gold.PLP.part.hbond>
-1.2494

> <Gold.PLP.part.metal>
0.0000

> <Gold.PLP.part.buried>
-5.0039

> <Gold.PLP.part.nonpolar>
-39.4967

> <Gold.PLP.part.repulsive>
0.7592

> <Gold.PLP.ligand.clash>
0.0000

> <Gold.PLP.ligand.torsion>
0.8379

> <Gold.PLP.Chemscore.Hbond>
1.0000

> <Gold.PLP.Chemscore.CHOScore>
0.0000

> <Gold.PLP.Chemscore.Metal>
0.0000

> <Gold.Chemscore.Hbonds>
donor molecule, donor type, donor heavy atom, donor atom, acceptor molecule, acceptor atom, score
      P1  H  7989  7998       L1    18  0.28

> <Gold.PLP.Chemscore.Internal.Correction>
0.0072

> <Gold.Rescore>
     Score         DG    S(hbond)    S(metal)    S(lipo)     H(rot)  DE(clash)    DE(int)     intcor
     16.07     -16.99       0.70        0.00     121.94       1.99       0.09       0.83       ----

> <Gold.Chemscore.Fitness>
16.0669

> <Gold.Chemscore.DG>
-16.9888

> <Gold.Chemscore.ZeroCoef>
-5.4800

> <Gold.Chemscore.Hbond>
0.6968

> <Gold.Chemscore.Metal>
0.0000

> <Gold.Chemscore.Lipo>
121.9362

> <Gold.Chemscore.Internal_Hbond>
0.0000

> <Gold.Chemscore.DEClash>
0.0883

> <Gold.Chemscore.DEInternal>
0.8336

> <Gold.Chemscore.Rot>
1.9863

> <Gold.Chemscore.Internal.Correction>
   9.000000E+99

> <Gold.Chemscore.Hbonds>
donor molecule, donor type, donor heavy atom, donor atom, acceptor molecule, acceptor atom, score
      P1  H  7989  7998       L1    18  0.01

> <Gold.Chemscore.Hbond.Weighted>
-2.3273

> <Gold.Chemscore.Metal.Weighted>
-0.0000

> <Gold.Chemscore.Lipo.Weighted>
-14.2665

> <Gold.Chemscore.Internal_Hbond.Weighted>
0.0000

> <Gold.Chemscore.DEClash.Weighted>
0.0883

> <Gold.Chemscore.DEInternal.Weighted>
0.8336

> <Gold.Chemscore.Rot.Weighted>
5.0850

> <Gold.Chemscore.Internal.Correction.Weighted>
   9.000000E+99

> <Gold.Protein.RotatedTorsions>
[ 6907 6896 6895 6894 ] final -126.87 input  -60.11 | X-H torsion
[ 7974 7965 7964 7962 ] final -148.21 input  175.53 | X-H torsion
[ 8008 7997 7996 7995 ] final -103.57 input   59.86 | X-H torsion
[ 10167 10162 10161 10158 ] final  116.71 input  -65.29 | X-H torsion
[ 10718 10713 10712 10709 ] final  -96.60 input   66.30 | X-H torsion
[ 10763 10752 10751 10750 ] final  115.03 input  -60.55 | X-H torsion
[ 11005 11000 10999 10996 ] final  -71.80 input  -57.11 | X-H torsion

> <Gold.Protein.ActiveResidues>
 VAL166  LYS551  ARG553  GLY616  TRP617  ASP618  TYR619  PRO620  LYS621  CYS622 
 ASP623  PHE694  ASN695  SER759  ASP760  ASP761  ALA762  ILE779  LEU786  VAL792 
 PHE793  MET794  SER795  GLU796  ALA797  LYS798  CYS799  TRP800  GLU811  SER814 

> <Gold.Protein.RotatedAtoms>
  150.9014  133.7114  159.2877 H   0  0  0  0  0  0  0  0  0  0  0  0  # atno 6907 bound_to 6896
  151.4631  135.1038  159.9740 H   0  0  0  0  0  0  0  0  0  0  0  0  # atno 6908 bound_to 6896
  152.4879  133.8372  159.7189 H   0  0  0  0  0  0  0  0  0  0  0  0  # atno 6909 bound_to 6896
  144.8044  140.5226  143.5685 H   0  0  0  0  0  0  0  0  0  0  0  0  # atno 7974 bound_to 7965
  154.8728  140.0422  157.1735 H   0  0  0  0  0  0  0  0  0  0  0  0  # atno 8008 bound_to 7997
  154.8721  140.2960  155.5454 H   0  0  0  0  0  0  0  0  0  0  0  0  # atno 8009 bound_to 7997
  156.2999  140.2427  156.3711 H   0  0  0  0  0  0  0  0  0  0  0  0  # atno 8010 bound_to 7997
  139.6228  144.7104  151.2597 H   0  0  0  0  0  0  0  0  0  0  0  0  # atno 10167 bound_to 10162
  156.0065  130.5158  150.6249 H   0  0  0  0  0  0  0  0  0  0  0  0  # atno 10718 bound_to 10713
  153.5161  135.3607  155.2610 H   0  0  0  0  0  0  0  0  0  0  0  0  # atno 10763 bound_to 10752
  154.8738  135.4034  154.3313 H   0  0  0  0  0  0  0  0  0  0  0  0  # atno 10764 bound_to 10752
  153.3975  135.7074  153.6517 H   0  0  0  0  0  0  0  0  0  0  0  0  # atno 10765 bound_to 10752
  141.1598  133.6828  156.6961 H   0  0  0  0  0  0  0  0  0  0  0  0  # atno 11005 bound_to 11000
  145.5475  139.1476  143.3413 LP  0  0  0  0  0  0  0  0  0  0  0  0  # atno 17320 bound_to 7965
  146.2332  140.5614  142.8966 LP  0  0  0  0  0  0  0  0  0  0  0  0  # atno 17321 bound_to 7965
  140.7392  143.6623  150.8153 LP  0  0  0  0  0  0  0  0  0  0  0  0  # atno 17342 bound_to 10162
  140.0237  143.5516  152.2790 LP  0  0  0  0  0  0  0  0  0  0  0  0  # atno 17343 bound_to 10162
  157.4058  131.0816  151.1267 LP  0  0  0  0  0  0  0  0  0  0  0  0  # atno 17370 bound_to 10713
  157.1914  130.6353  149.5706 LP  0  0  0  0  0  0  0  0  0  0  0  0  # atno 17371 bound_to 10713
  140.2994  134.8176  157.4085 LP  0  0  0  0  0  0  0  0  0  0  0  0  # atno 17394 bound_to 11000
  140.1275  134.5138  155.8132 LP  0  0  0  0  0  0  0  0  0  0  0  0  # atno 17395 bound_to 11000

$$$$
