AV-unprocessed.smi:960|AV-procd|sdf|4271|dock8
  -GOLD-   22720 2183D 1   1.00000     0.00000
 Structure written by MMmdl.
 46 47  0  0  0  0  0  0  0  0  2 V2000
  145.8613  131.7701  149.7592 C   0  0  0  0  0  0  0  0  0  0  0  0
  145.0063  131.4359  150.7401 C   0  0  0  0  0  0  0  0  0  0  0  0
  145.2375  130.2262  151.6275 C   0  0  0  0  0  0  0  0  0  0  0  0
  143.7703  132.2694  151.0414 C   0  0  0  0  0  0  0  0  0  0  0  0
  144.0986  133.6208  151.5671 N   0  3  2  0  0  0  0  0  0  0  0  0
  142.8949  134.3001  152.1125 C   0  0  0  0  0  0  0  0  0  0  0  0
  143.2592  135.6281  152.7948 C   0  0  0  0  0  0  0  0  0  0  0  0
  144.0043  136.5631  151.8253 C   0  0  1  0  0  0  0  0  0  0  0  0
  144.4337  137.7842  152.5008 N   0  0  0  0  0  0  0  0  0  0  0  0
  145.3648  137.8464  153.4634 C   0  0  0  0  0  0  0  0  0  0  0  0
  145.9663  136.8626  153.8932 O   0  0  0  0  0  0  0  0  0  0  0  0
  145.5341  139.1030  153.9017 N   0  0  0  0  0  0  0  0  0  0  0  0
  146.4387  139.5395  154.9021 C   0  0  0  0  0  0  0  0  0  0  0  0
  146.9663  138.8304  156.0212 C   0  0  0  0  0  0  0  0  0  0  0  0
  146.7427  137.4203  156.4920 C   0  0  0  0  0  0  0  0  0  0  0  0
  147.8140  139.6029  156.6846 N   0  0  0  0  0  0  0  0  0  0  0  0
  147.8799  140.8201  155.9894 O   0  0  0  0  0  0  0  0  0  0  0  0
  147.0589  140.7539  154.9092 C   0  0  0  0  0  0  0  0  0  0  0  0
  147.0057  141.9526  154.0237 C   0  0  0  0  0  0  0  0  0  0  0  0
  145.2252  135.8297  151.2497 C   0  0  0  0  0  0  0  0  0  0  0  0
  144.8284  134.4900  150.6057 C   0  0  0  0  0  0  0  0  0  0  0  0
  146.7437  131.1800  149.5581 H   0  0  0  0  0  0  0  0  0  0  0  0
  145.6917  132.6401  149.1416 H   0  0  0  0  0  0  0  0  0  0  0  0
  145.4162  130.5474  152.6539 H   0  0  0  0  0  0  0  0  0  0  0  0
  146.1055  129.6536  151.2991 H   0  0  0  0  0  0  0  0  0  0  0  0
  144.3761  129.5601  151.6299 H   0  0  0  0  0  0  0  0  0  0  0  0
  143.1387  132.3470  150.1549 H   0  0  0  0  0  0  0  0  0  0  0  0
  143.1874  131.7298  151.7895 H   0  0  0  0  0  0  0  0  0  0  0  0
  142.1796  134.4762  151.3075 H   0  0  0  0  0  0  0  0  0  0  0  0
  142.4017  133.6507  152.8371 H   0  0  0  0  0  0  0  0  0  0  0  0
  142.3515  136.1087  153.1618 H   0  0  0  0  0  0  0  0  0  0  0  0
  143.8788  135.4289  153.6704 H   0  0  0  0  0  0  0  0  0  0  0  0
  143.3404  136.8283  150.9999 H   0  0  0  0  0  0  0  0  0  0  0  0
  143.9866  138.6442  152.2180 H   0  0  0  0  0  0  0  0  0  0  0  0
  144.8912  139.7986  153.5529 H   0  0  0  0  0  0  0  0  0  0  0  0
  146.5919  136.7435  155.6510 H   0  0  0  0  0  0  0  0  0  0  0  0
  145.8671  137.3570  157.1379 H   0  0  0  0  0  0  0  0  0  0  0  0
  147.5970  137.0476  157.0582 H   0  0  0  0  0  0  0  0  0  0  0  0
  146.4694  141.7350  153.1001 H   0  0  0  0  0  0  0  0  0  0  0  0
  148.0101  142.2836  153.7601 H   0  0  0  0  0  0  0  0  0  0  0  0
  146.4973  142.7773  154.5230 H   0  0  0  0  0  0  0  0  0  0  0  0
  145.7250  136.4577  150.5112 H   0  0  0  0  0  0  0  0  0  0  0  0
  145.9536  135.6451  152.0411 H   0  0  0  0  0  0  0  0  0  0  0  0
  145.7398  133.9978  150.2705 H   0  0  0  0  0  0  0  0  0  0  0  0
  144.2103  134.6615  149.7229 H   0  0  0  0  0  0  0  0  0  0  0  0
  144.7193  133.4739  152.3502 H   0  0  0  0  0  0  0  0  0  0  0  0
  1  2  2  0  0  0  0
  1 22  1  0  0  0  0
  1 23  1  0  0  0  0
  2  3  1  0  0  0  0
  2  4  1  0  0  0  0
  3 24  1  0  0  0  0
  3 25  1  0  0  0  0
  3 26  1  0  0  0  0
  4  5  1  0  0  0  0
  4 27  1  0  0  0  0
  4 28  1  0  0  0  0
  5 21  1  0  0  0  0
  5  6  1  0  0  0  0
  5 46  1  0  0  0  0
  6  7  1  0  0  0  0
  6 29  1  0  0  0  0
  6 30  1  0  0  0  0
  7  8  1  0  0  0  0
  7 31  1  0  0  0  0
  7 32  1  0  0  0  0
  8  9  1  0  0  0  0
  8 20  1  0  0  0  0
  8 33  1  0  0  0  0
  9 10  1  0  0  0  0
  9 34  1  0  0  0  0
 10 11  2  0  0  0  0
 10 12  1  0  0  0  0
 12 13  1  0  0  0  0
 12 35  1  0  0  0  0
 13 18  2  0  0  0  0
 13 14  1  0  0  0  0
 14 15  1  0  0  0  0
 14 16  2  0  0  0  0
 15 36  1  0  0  0  0
 15 37  1  0  0  0  0
 15 38  1  0  0  0  0
 16 17  1  0  0  0  0
 17 18  1  0  0  0  0
 18 19  1  0  0  0  0
 19 39  1  0  0  0  0
 19 40  1  0  0  0  0
 19 41  1  0  0  0  0
 20 21  1  0  0  0  0
 20 42  1  0  0  0  0
 20 43  1  0  0  0  0
 21 44  1  0  0  0  0
 21 45  1  0  0  0  0
M  CHG  1   5   1
M  END
> <s_m_source_file>
AV-unprocessed.smi

> <i_m_source_file_index>
960

> <i_lp_mmshare_version>
43012

> <i_f3d_flags>
0

> <s_epik_input>
W0NIMl09QyhbQ0gzXSlbQ0gyXU4xW0NIMl1bQ0gyXVtDSF0oW0NIMl1bQ0gyXTEpW05IXUMoPU8pW05IXWMyYyhbQ0gzXSlub2MyW0NIM10=

> <s_epik_cmdline>
J2VwaWtfcHl0aG9uJywgJy1waCcsICc3LjAnLCAnLXRuJywgJzgnLCAnLW1hJywgJzIwMCcsICctbWV0YWxfYmluZGluZycsICctaW1hZScsICc8aW5maWxlLm1hZT4nLCAnLW9tYWUnLCAnPG91dGZpbGUubWFlPic=

> <r_epik_Ionization_Penalty>
0.01938

> <r_epik_Ionization_Penalty_Charging>
0.0193505

> <r_epik_Ionization_Penalty_Neutral>
2.94909e-05

> <r_epik_State_Penalty>
0.0154499

> <r_epik_Charging_Adjusted_Penalty>
0.0348004

> <i_epik_Tot_Q>
1

> <i_epik_Tot_abs_Q>
1

> <r_epik_Metal_State_Penalty>
0.0154499

> <b_epik_Metal_Only>
0

> <s_lp_Force_Field>
OPLS_2005

> <r_lp_Energy>
20.2595

> <b_lp_Chiralities_Consistent>
1

> <s_lp_Variant>
AV-unprocessed.smi:960-1

> <Gold.Version>
5.8.1

> <Gold.Id.Protein>
6NUR|6NUR_protein|mol2

> <Gold.PLP.Fitness>
38.7333

> <Gold.PLP.PLP>
-33.0713

> <Gold.PLP.part.hbond>
-3.0000

> <Gold.PLP.part.metal>
0.0000

> <Gold.PLP.part.buried>
-4.1628

> <Gold.PLP.part.nonpolar>
-26.3759

> <Gold.PLP.part.repulsive>
0.1851

> <Gold.PLP.ligand.clash>
0.0000

> <Gold.PLP.ligand.torsion>
0.3287

> <Gold.PLP.Chemscore.Hbond>
2.0000

> <Gold.PLP.Chemscore.CHOScore>
0.0000

> <Gold.PLP.Chemscore.Metal>
0.0000

> <Gold.Chemscore.Hbonds>
donor molecule, donor type, donor heavy atom, donor atom, acceptor molecule, acceptor atom, score
      L1  H     9    34       P1 10175  1.00
      L1  H    12    35       P1 10175  1.00

> <Gold.PLP.Chemscore.Internal.Correction>
0.3195

> <Gold.Rescore>
     Score         DG    S(hbond)    S(metal)    S(lipo)     H(rot)  DE(clash)    DE(int)     intcor
     16.22     -18.06       1.96        0.00      81.15       1.35       0.05       1.80       ----

> <Gold.Chemscore.Fitness>
16.2222

> <Gold.Chemscore.DG>
-18.0639

> <Gold.Chemscore.ZeroCoef>
-5.4800

> <Gold.Chemscore.Hbond>
1.9582

> <Gold.Chemscore.Metal>
0.0000

> <Gold.Chemscore.Lipo>
81.1498

> <Gold.Chemscore.Internal_Hbond>
0.0000

> <Gold.Chemscore.DEClash>
0.0456

> <Gold.Chemscore.DEInternal>
1.7960

> <Gold.Chemscore.Rot>
1.3480

> <Gold.Chemscore.Internal.Correction>
   9.000000E+99

> <Gold.Chemscore.Hbonds>
donor molecule, donor type, donor heavy atom, donor atom, acceptor molecule, acceptor atom, score
      L1  H     9    34       P1 10175  0.96
      L1  H    12    35       P1 10175  0.99

> <Gold.Chemscore.Hbond.Weighted>
-6.5402

> <Gold.Chemscore.Metal.Weighted>
-0.0000

> <Gold.Chemscore.Lipo.Weighted>
-9.4945

> <Gold.Chemscore.Internal_Hbond.Weighted>
0.0000

> <Gold.Chemscore.DEClash.Weighted>
0.0456

> <Gold.Chemscore.DEInternal.Weighted>
1.7960

> <Gold.Chemscore.Rot.Weighted>
3.4509

> <Gold.Chemscore.Internal.Correction.Weighted>
   9.000000E+99

> <Gold.Protein.RotatedTorsions>
[ 6907 6896 6895 6894 ] final   96.45 input  -60.11 | X-H torsion
[ 7974 7965 7964 7962 ] final -140.09 input  175.53 | X-H torsion
[ 8008 7997 7996 7995 ] final  -68.59 input   59.86 | X-H torsion
[ 10167 10162 10161 10158 ] final -151.76 input  -65.29 | X-H torsion
[ 10718 10713 10712 10709 ] final  -66.52 input   66.30 | X-H torsion
[ 10763 10752 10751 10750 ] final  103.43 input  -60.55 | X-H torsion
[ 11005 11000 10999 10996 ] final  152.99 input  -57.11 | X-H torsion

> <Gold.Protein.ActiveResidues>
 VAL166  LYS551  ARG553  GLY616  TRP617  ASP618  TYR619  PRO620  LYS621  CYS622 
 ASP623  PHE694  ASN695  SER759  ASP760  ASP761  ALA762  ILE779  LEU786  VAL792 
 PHE793  MET794  SER795  GLU796  ALA797  LYS798  CYS799  TRP800  GLU811  SER814 

> <Gold.Protein.RotatedAtoms>
  152.5434  134.0884  159.8265 H   0  0  0  0  0  0  0  0  0  0  0  0  # atno 6907 bound_to 6896
  151.0976  133.5260  159.2619 H   0  0  0  0  0  0  0  0  0  0  0  0  # atno 6908 bound_to 6896
  151.2027  135.0458  159.8933 H   0  0  0  0  0  0  0  0  0  0  0  0  # atno 6909 bound_to 6896
  144.8624  140.6241  143.5319 H   0  0  0  0  0  0  0  0  0  0  0  0  # atno 7974 bound_to 7965
  154.4879  140.0870  156.7527 H   0  0  0  0  0  0  0  0  0  0  0  0  # atno 8008 bound_to 7997
  155.4305  140.3449  155.4261 H   0  0  0  0  0  0  0  0  0  0  0  0  # atno 8009 bound_to 7997
  156.1287  140.1495  156.9085 H   0  0  0  0  0  0  0  0  0  0  0  0  # atno 8010 bound_to 7997
  139.7240  143.8913  152.2513 H   0  0  0  0  0  0  0  0  0  0  0  0  # atno 10167 bound_to 10162
  156.0608  130.4263  150.1721 H   0  0  0  0  0  0  0  0  0  0  0  0  # atno 10718 bound_to 10713
  153.3526  135.3977  155.1657 H   0  0  0  0  0  0  0  0  0  0  0  0  # atno 10763 bound_to 10752
  154.8665  135.3660  154.5203 H   0  0  0  0  0  0  0  0  0  0  0  0  # atno 10764 bound_to 10752
  153.5656  135.7080  153.5588 H   0  0  0  0  0  0  0  0  0  0  0  0  # atno 10765 bound_to 10752
  140.1357  134.8772  157.2264 H   0  0  0  0  0  0  0  0  0  0  0  0  # atno 11005 bound_to 11000
  145.4286  139.1552  143.4035 LP  0  0  0  0  0  0  0  0  0  0  0  0  # atno 17320 bound_to 7965
  146.2871  140.4400  142.8754 LP  0  0  0  0  0  0  0  0  0  0  0  0  # atno 17321 bound_to 7965
  139.8817  144.7014  150.8870 LP  0  0  0  0  0  0  0  0  0  0  0  0  # atno 17342 bound_to 10162
  140.7759  143.3656  151.1745 LP  0  0  0  0  0  0  0  0  0  0  0  0  # atno 17343 bound_to 10162
  156.9789  130.9858  151.3442 LP  0  0  0  0  0  0  0  0  0  0  0  0  # atno 17370 bound_to 10713
  157.5614  130.8248  149.8271 LP  0  0  0  0  0  0  0  0  0  0  0  0  # atno 17371 bound_to 10713
  140.2785  134.3377  155.7350 LP  0  0  0  0  0  0  0  0  0  0  0  0  # atno 17394 bound_to 11000
  141.2178  133.7464  156.9329 LP  0  0  0  0  0  0  0  0  0  0  0  0  # atno 17395 bound_to 11000

$$$$
