AV-unprocessed.smi:1340|AV-procd|sdf|5503|dock4
  -GOLD-   22720 5 83D 1   1.00000     0.00000
 Structure written by MMmdl.
 40 41  0  0  0  0  0  0  0  0  1 V2000
  152.0527  144.7406  158.9093 C   0  0  0  0  0  0  0  0  0  0  0  0
  152.2456  143.3887  158.2141 C   0  0  0  0  0  0  0  0  0  0  0  0
  150.9442  142.8506  157.5905 C   0  0  0  0  0  0  0  0  0  0  0  0
  151.1200  141.5167  156.8374 C   0  0  2  0  0  0  0  0  0  0  0  0
  150.0855  141.3533  155.7138 C   0  0  0  0  0  0  0  0  0  0  0  0
  151.0150  140.4050  157.7770 N   0  0  0  0  0  0  0  0  0  0  0  0
  151.8406  139.3488  157.8500 C   0  0  0  0  0  0  0  0  0  0  0  0
  152.7429  139.1315  157.0417 O   0  0  0  0  0  0  0  0  0  0  0  0
  151.6233  138.4036  159.0349 C   0  0  0  0  0  0  0  0  0  0  0  0
  150.3935  137.5710  158.8040 C   0  0  0  0  0  0  0  0  0  0  0  0
  149.8902  137.1592  157.5940 C   0  0  0  0  0  0  0  0  0  0  0  0
  148.4821  136.1491  157.7816 S   0  0  0  0  0  0  0  0  0  0  0  0
  148.6278  136.3286  159.5321 C   0  0  0  0  0  0  0  0  0  0  0  0
  147.8048  135.7140  160.5212 N   0  0  0  0  0  0  0  0  0  0  0  0
  146.9056  134.6120  160.1931 C   0  0  0  0  0  0  0  0  0  0  0  0
  146.1882  134.3214  161.5074 C   0  0  0  0  0  0  0  0  0  0  0  0
  146.7909  135.2824  162.4010 N   0  0  0  0  0  0  0  0  0  0  0  0
  147.7049  136.0622  161.8193 C   0  0  0  0  0  0  0  0  0  0  0  0
  148.3340  136.9402  162.4066 O   0  0  0  0  0  0  0  0  0  0  0  0
  149.6458  137.1144  159.8954 N   0  0  0  0  0  0  0  0  0  0  0  0
  152.9894  145.0893  159.3451 H   0  0  0  0  0  0  0  0  0  0  0  0
  151.3200  144.6691  159.7136 H   0  0  0  0  0  0  0  0  0  0  0  0
  151.7084  145.4998  158.2067 H   0  0  0  0  0  0  0  0  0  0  0  0
  153.0082  143.4862  157.4407 H   0  0  0  0  0  0  0  0  0  0  0  0
  152.6377  142.6785  158.9414 H   0  0  0  0  0  0  0  0  0  0  0  0
  150.1924  142.7306  158.3720 H   0  0  0  0  0  0  0  0  0  0  0  0
  150.5484  143.5989  156.9027 H   0  0  0  0  0  0  0  0  0  0  0  0
  152.1146  141.5161  156.3871 H   0  0  0  0  0  0  0  0  0  0  0  0
  150.1582  142.1683  154.9934 H   0  0  0  0  0  0  0  0  0  0  0  0
  149.0686  141.3467  156.1075 H   0  0  0  0  0  0  0  0  0  0  0  0
  150.2389  140.4208  155.1695 H   0  0  0  0  0  0  0  0  0  0  0  0
  150.3020  140.4853  158.4877 H   0  0  0  0  0  0  0  0  0  0  0  0
  152.5040  137.7721  159.1583 H   0  0  0  0  0  0  0  0  0  0  0  0
  151.5284  138.9863  159.9521 H   0  0  0  0  0  0  0  0  0  0  0  0
  150.2731  137.3723  156.6068 H   0  0  0  0  0  0  0  0  0  0  0  0
  146.2027  134.9027  159.4111 H   0  0  0  0  0  0  0  0  0  0  0  0
  147.4715  133.7453  159.8480 H   0  0  0  0  0  0  0  0  0  0  0  0
  145.1130  134.4893  161.4329 H   0  0  0  0  0  0  0  0  0  0  0  0
  146.3675  133.3040  161.8571 H   0  0  0  0  0  0  0  0  0  0  0  0
  146.5363  135.3477  163.3761 H   0  0  0  0  0  0  0  0  0  0  0  0
  1  2  1  0  0  0  0
  1 21  1  0  0  0  0
  1 22  1  0  0  0  0
  1 23  1  0  0  0  0
  2  3  1  0  0  0  0
  2 24  1  0  0  0  0
  2 25  1  0  0  0  0
  3  4  1  0  0  0  0
  3 26  1  0  0  0  0
  3 27  1  0  0  0  0
  4  5  1  0  0  0  0
  4  6  1  0  0  0  0
  4 28  1  0  0  0  0
  5 29  1  0  0  0  0
  5 30  1  0  0  0  0
  5 31  1  0  0  0  0
  6  7  1  0  0  0  0
  6 32  1  0  0  0  0
  7  8  2  0  0  0  0
  7  9  1  0  0  0  0
  9 10  1  0  0  0  0
  9 33  1  0  0  0  0
  9 34  1  0  0  0  0
 10 20  1  0  0  0  0
 10 11  2  0  0  0  0
 11 12  1  0  0  0  0
 11 35  1  0  0  0  0
 12 13  1  0  0  0  0
 13 14  1  0  0  0  0
 13 20  2  0  0  0  0
 14 18  1  0  0  0  0
 14 15  1  0  0  0  0
 15 16  1  0  0  0  0
 15 36  1  0  0  0  0
 15 37  1  0  0  0  0
 16 17  1  0  0  0  0
 16 38  1  0  0  0  0
 16 39  1  0  0  0  0
 17 18  1  0  0  0  0
 17 40  1  0  0  0  0
 18 19  2  0  0  0  0
M  END
> <s_m_source_file>
AV-unprocessed.smi

> <i_m_source_file_index>
1340

> <i_lp_mmshare_version>
43012

> <i_f3d_flags>
0

> <s_epik_input>
W0NIM11bQ0gyXVtDSDJdW0NASF0oW0NIM10pW05IXUMoPU8pW0NIMl1jMVtjSF1zYyhuMSlOMltDSDJdW0NIMl1bTkhdQzI9Tw==

> <s_epik_cmdline>
J2VwaWtfcHl0aG9uJywgJy1waCcsICc3LjAnLCAnLXRuJywgJzgnLCAnLW1hJywgJzIwMCcsICctbWV0YWxfYmluZGluZycsICctaW1hZScsICc8aW5maWxlLm1hZT4nLCAnLW9tYWUnLCAnPG91dGZpbGUubWFlPic=

> <r_lp_tautomer_probability>
1

> <r_epik_Ionization_Penalty>
0.00012151

> <r_epik_Ionization_Penalty_Charging>
0

> <r_epik_Ionization_Penalty_Neutral>
0.00012151

> <r_epik_State_Penalty>
-0

> <r_epik_Charging_Adjusted_Penalty>
0

> <i_epik_Tot_Q>
0

> <i_epik_Tot_abs_Q>
0

> <r_epik_Metal_State_Penalty>
-0

> <b_epik_Metal_Only>
0

> <s_lp_Force_Field>
OPLS_2005

> <r_lp_Energy>
29.8855

> <b_lp_Chiralities_Consistent>
1

> <s_lp_Variant>
AV-unprocessed.smi:1340-1

> <Gold.Version>
5.8.1

> <Gold.Id.Protein>
6NUR|6NUR_protein|mol2

> <Gold.PLP.Fitness>
41.8597

> <Gold.PLP.PLP>
-38.1739

> <Gold.PLP.part.hbond>
-2.7668

> <Gold.PLP.part.metal>
0.0000

> <Gold.PLP.part.buried>
-6.8996

> <Gold.PLP.part.nonpolar>
-29.0272

> <Gold.PLP.part.repulsive>
0.1924

> <Gold.PLP.ligand.clash>
0.0000

> <Gold.PLP.ligand.torsion>
1.1575

> <Gold.PLP.Chemscore.Hbond>
1.9913

> <Gold.PLP.Chemscore.CHOScore>
0.0000

> <Gold.PLP.Chemscore.Metal>
0.0000

> <Gold.Chemscore.Hbonds>
donor molecule, donor type, donor heavy atom, donor atom, acceptor molecule, acceptor atom, score
      P1  H  6931  6943       L1    19  1.00
      P1  H  7997  8010       L1     8  1.00

> <Gold.PLP.Chemscore.Internal.Correction>
0.0270

> <Gold.Rescore>
     Score         DG    S(hbond)    S(metal)    S(lipo)     H(rot)  DE(clash)    DE(int)     intcor
     13.58     -16.00       1.98        0.00      75.26       1.92       0.01       2.41       ----

> <Gold.Chemscore.Fitness>
13.5836

> <Gold.Chemscore.DG>
-16.0004

> <Gold.Chemscore.ZeroCoef>
-5.4800

> <Gold.Chemscore.Hbond>
1.9834

> <Gold.Chemscore.Metal>
0.0000

> <Gold.Chemscore.Lipo>
75.2574

> <Gold.Chemscore.Internal_Hbond>
0.0000

> <Gold.Chemscore.DEClash>
0.0089

> <Gold.Chemscore.DEInternal>
2.4079

> <Gold.Chemscore.Rot>
1.9176

> <Gold.Chemscore.Internal.Correction>
   9.000000E+99

> <Gold.Chemscore.Hbonds>
donor molecule, donor type, donor heavy atom, donor atom, acceptor molecule, acceptor atom, score
      P1  H  6931  6943       L1    19  0.94
      P1  H  7997  8010       L1     8  0.99

> <Gold.Chemscore.Hbond.Weighted>
-6.6244

> <Gold.Chemscore.Metal.Weighted>
-0.0000

> <Gold.Chemscore.Lipo.Weighted>
-8.8051

> <Gold.Chemscore.Internal_Hbond.Weighted>
0.0000

> <Gold.Chemscore.DEClash.Weighted>
0.0089

> <Gold.Chemscore.DEInternal.Weighted>
2.4079

> <Gold.Chemscore.Rot.Weighted>
4.9091

> <Gold.Chemscore.Internal.Correction.Weighted>
   9.000000E+99

> <Gold.Protein.RotatedTorsions>
[ 6907 6896 6895 6894 ] final -177.63 input  -60.11 | X-H torsion
[ 7974 7965 7964 7962 ] final  -47.61 input  175.53 | X-H torsion
[ 8008 7997 7996 7995 ] final   65.21 input   59.86 | X-H torsion
[ 10167 10162 10161 10158 ] final -156.60 input  -65.29 | X-H torsion
[ 10718 10713 10712 10709 ] final  -44.40 input   66.30 | X-H torsion
[ 10763 10752 10751 10750 ] final -147.73 input  -60.55 | X-H torsion
[ 11005 11000 10999 10996 ] final  -37.99 input  -57.11 | X-H torsion

> <Gold.Protein.ActiveResidues>
 VAL166  LYS551  ARG553  GLY616  TRP617  ASP618  TYR619  PRO620  LYS621  CYS622 
 ASP623  PHE694  ASN695  SER759  ASP760  ASP761  ALA762  ILE779  LEU786  VAL792 
 PHE793  MET794  SER795  GLU796  ALA797  LYS798  CYS799  TRP800  GLU811  SER814 

> <Gold.Protein.RotatedAtoms>
  151.6240  133.3337  159.3094 H   0  0  0  0  0  0  0  0  0  0  0  0  # atno 6907 bound_to 6896
  150.8091  134.7238  159.6683 H   0  0  0  0  0  0  0  0  0  0  0  0  # atno 6908 bound_to 6896
  152.4187  134.5999  160.0049 H   0  0  0  0  0  0  0  0  0  0  0  0  # atno 6909 bound_to 6896
  145.9598  140.7490  142.9463 H   0  0  0  0  0  0  0  0  0  0  0  0  # atno 7974 bound_to 7965
  155.6582  140.3497  155.4773 H   0  0  0  0  0  0  0  0  0  0  0  0  # atno 8008 bound_to 7997
  155.9791  140.1171  157.0766 H   0  0  0  0  0  0  0  0  0  0  0  0  # atno 8009 bound_to 7997
  154.4186  140.1142  156.5397 H   0  0  0  0  0  0  0  0  0  0  0  0  # atno 8010 bound_to 7997
  139.6838  143.9537  152.2350 H   0  0  0  0  0  0  0  0  0  0  0  0  # atno 10167 bound_to 10162
  156.2390  130.4178  149.8783 H   0  0  0  0  0  0  0  0  0  0  0  0  # atno 10718 bound_to 10713
  154.8270  135.3352  154.6864 H   0  0  0  0  0  0  0  0  0  0  0  0  # atno 10763 bound_to 10752
  153.7489  135.6940  153.4954 H   0  0  0  0  0  0  0  0  0  0  0  0  # atno 10764 bound_to 10752
  153.2191  135.4455  155.0419 H   0  0  0  0  0  0  0  0  0  0  0  0  # atno 10765 bound_to 10752
  140.9994  133.6963  156.1994 H   0  0  0  0  0  0  0  0  0  0  0  0  # atno 11005 bound_to 11000
  144.6812  140.2572  143.7324 LP  0  0  0  0  0  0  0  0  0  0  0  0  # atno 17320 bound_to 7965
  145.8055  139.1982  143.2023 LP  0  0  0  0  0  0  0  0  0  0  0  0  # atno 17321 bound_to 7965
  139.9334  144.6727  150.8340 LP  0  0  0  0  0  0  0  0  0  0  0  0  # atno 17342 bound_to 10162
  140.7661  143.3293  151.2445 LP  0  0  0  0  0  0  0  0  0  0  0  0  # atno 17343 bound_to 10162
  156.6371  130.8689  151.3507 LP  0  0  0  0  0  0  0  0  0  0  0  0  # atno 17370 bound_to 10713
  157.7167  130.9506  150.1282 LP  0  0  0  0  0  0  0  0  0  0  0  0  # atno 17371 bound_to 10713
  140.6914  134.4662  157.5588 LP  0  0  0  0  0  0  0  0  0  0  0  0  # atno 17394 bound_to 11000
  139.9031  134.8511  156.1815 LP  0  0  0  0  0  0  0  0  0  0  0  0  # atno 17395 bound_to 11000

$$$$
