AV-unprocessed.smi:2761|AV-procd|sdf|10633|dock10
  -GOLD-   2272015 83D 1   1.00000     0.00000
 Structure written by MMmdl.
 27 28  0  0  0  0  0  0  0  0  1 V2000
  150.5408  140.1233  158.0377 O   0  0  0  0  0  0  0  0  0  0  0  0
  150.9336  141.2210  157.6361 C   0  0  0  0  0  0  0  0  0  0  0  0
  150.5518  141.8048  156.4792 N   0  0  0  0  0  0  0  0  0  0  0  0
  149.6779  141.3109  155.5043 C   0  0  0  0  0  0  0  0  0  0  0  0
  148.2988  141.4606  155.9023 C   0  0  0  0  0  0  0  0  0  0  0  0
  147.3485  141.0235  155.0479 C   0  0  0  0  0  0  0  0  0  0  0  0
  147.7068  140.4226  153.7636 C   0  0  0  0  0  0  0  0  0  0  0  0
  146.8984  140.0057  152.9378 O   0  0  0  0  0  0  0  0  0  0  0  0
  149.0486  140.3628  153.5539 N   0  0  0  0  0  0  0  0  0  0  0  0
  150.0804  140.7881  154.3824 N   0  0  0  0  0  0  0  0  0  0  0  0
  151.9153  142.0406  158.4869 C   0  0  1  0  0  0  0  0  0  0  0  0
  151.3939  143.4575  158.8233 C   0  0  0  0  0  0  0  0  0  0  0  0
  152.3440  144.1251  159.6436 O   0  0  0  0  0  0  0  0  0  0  0  0
  152.5652  143.4206  160.8572 C   0  0  0  0  0  0  0  0  0  0  0  0
  153.0966  142.0164  160.5281 C   0  0  0  0  0  0  0  0  0  0  0  0
  152.1503  141.3436  159.7083 O   0  0  0  0  0  0  0  0  0  0  0  0
  150.9592  142.7120  156.3045 H   0  0  0  0  0  0  0  0  0  0  0  0
  147.9974  141.9004  156.8422 H   0  0  0  0  0  0  0  0  0  0  0  0
  146.3061  141.1186  155.3147 H   0  0  0  0  0  0  0  0  0  0  0  0
  149.3744  139.9600  152.6869 H   0  0  0  0  0  0  0  0  0  0  0  0
  152.8509  142.1165  157.9299 H   0  0  0  0  0  0  0  0  0  0  0  0
  151.2553  144.0439  157.9144 H   0  0  0  0  0  0  0  0  0  0  0  0
  150.4282  143.4152  159.3304 H   0  0  0  0  0  0  0  0  0  0  0  0
  153.2888  143.9684  161.4608 H   0  0  0  0  0  0  0  0  0  0  0  0
  151.6412  143.3630  161.4349 H   0  0  0  0  0  0  0  0  0  0  0  0
  154.0617  142.0730  160.0224 H   0  0  0  0  0  0  0  0  0  0  0  0
  153.2457  141.4433  161.4433 H   0  0  0  0  0  0  0  0  0  0  0  0
  1  2  2  0  0  0  0
  2  3  1  0  0  0  0
  2 11  1  0  0  0  0
  3 17  1  0  0  0  0
  3  4  1  0  0  0  0
  4  5  1  0  0  0  0
  4 10  2  0  0  0  0
  5  6  2  0  0  0  0
  5 18  1  0  0  0  0
  6  7  1  0  0  0  0
  6 19  1  0  0  0  0
  7  8  2  0  0  0  0
  7  9  1  0  0  0  0
  9 10  1  0  0  0  0
  9 20  1  0  0  0  0
 11 16  1  0  0  0  0
 11 12  1  0  0  0  0
 11 21  1  0  0  0  0
 12 13  1  0  0  0  0
 12 22  1  0  0  0  0
 12 23  1  0  0  0  0
 13 14  1  0  0  0  0
 14 15  1  0  0  0  0
 14 24  1  0  0  0  0
 14 25  1  0  0  0  0
 15 16  1  0  0  0  0
 15 26  1  0  0  0  0
 15 27  1  0  0  0  0
M  END
> <s_m_source_file>
AV-unprocessed.smi

> <i_m_source_file_index>
2761

> <i_lp_mmshare_version>
43012

> <i_f3d_flags>
0

> <s_epik_input>
TzFbQ0gyXVtDSDJdT1tDSDJdW0NASF0xQyg9TylbTkhdYzJbY0hdW2NIXWMoW09IXSlubjI=

> <s_epik_cmdline>
J2VwaWtfcHl0aG9uJywgJy1waCcsICc3LjAnLCAnLXRuJywgJzgnLCAnLW1hJywgJzIwMCcsICctbWV0YWxfYmluZGluZycsICctaW1hZScsICc8aW5maWxlLm1hZT4nLCAnLW9tYWUnLCAnPG91dGZpbGUubWFlPic=

> <r_lp_tautomer_probability>
1

> <r_epik_Ionization_Penalty>
0.000593199

> <r_epik_Ionization_Penalty_Charging>
0.000590119

> <r_epik_Ionization_Penalty_Neutral>
3.08036e-06

> <r_epik_State_Penalty>
-0

> <r_epik_Charging_Adjusted_Penalty>
0.000590119

> <i_epik_Tot_Q>
0

> <i_epik_Tot_abs_Q>
0

> <r_epik_Metal_State_Penalty>
0.240077

> <b_epik_Metal_Only>
0

> <s_lp_Force_Field>
OPLS_2005

> <r_lp_Energy>
26.3126

> <b_lp_Chiralities_Consistent>
1

> <s_lp_Variant>
AV-unprocessed.smi:2761-2

> <Gold.Version>
5.8.1

> <Gold.Id.Protein>
6NUR|6NUR_protein|mol2

> <Gold.PLP.Fitness>
30.1731

> <Gold.PLP.PLP>
-26.7230

> <Gold.PLP.part.hbond>
-1.7728

> <Gold.PLP.part.metal>
0.0000

> <Gold.PLP.part.buried>
-4.9613

> <Gold.PLP.part.nonpolar>
-20.6048

> <Gold.PLP.part.repulsive>
0.6403

> <Gold.PLP.ligand.clash>
0.0000

> <Gold.PLP.ligand.torsion>
0.7476

> <Gold.PLP.Chemscore.Hbond>
1.6480

> <Gold.PLP.Chemscore.CHOScore>
0.0000

> <Gold.PLP.Chemscore.Metal>
0.0000

> <Gold.Chemscore.Hbonds>
donor molecule, donor type, donor heavy atom, donor atom, acceptor molecule, acceptor atom, score
      L1  H     9    20       P1  7957  1.00
      P1  H  7989  7998       L1    10  0.70

> <Gold.PLP.Chemscore.Internal.Correction>
0.0012

> <Gold.Rescore>
     Score         DG    S(hbond)    S(metal)    S(lipo)     H(rot)  DE(clash)    DE(int)     intcor
     13.62     -14.45       1.54        0.00      54.47       1.00       0.08       0.75       ----

> <Gold.Chemscore.Fitness>
13.6212

> <Gold.Chemscore.DG>
-14.4458

> <Gold.Chemscore.ZeroCoef>
-5.4800

> <Gold.Chemscore.Hbond>
1.5427

> <Gold.Chemscore.Metal>
0.0000

> <Gold.Chemscore.Lipo>
54.4712

> <Gold.Chemscore.Internal_Hbond>
0.0000

> <Gold.Chemscore.DEClash>
0.0760

> <Gold.Chemscore.DEInternal>
0.7486

> <Gold.Chemscore.Rot>
1.0000

> <Gold.Chemscore.Internal.Correction>
   9.000000E+99

> <Gold.Chemscore.Hbonds>
donor molecule, donor type, donor heavy atom, donor atom, acceptor molecule, acceptor atom, score
      L1  H     9    20       P1  7957  0.90
      P1  H  7989  7998       L1    10  0.55

> <Gold.Chemscore.Hbond.Weighted>
-5.1527

> <Gold.Chemscore.Metal.Weighted>
-0.0000

> <Gold.Chemscore.Lipo.Weighted>
-6.3731

> <Gold.Chemscore.Internal_Hbond.Weighted>
0.0000

> <Gold.Chemscore.DEClash.Weighted>
0.0760

> <Gold.Chemscore.DEInternal.Weighted>
0.7486

> <Gold.Chemscore.Rot.Weighted>
2.5600

> <Gold.Chemscore.Internal.Correction.Weighted>
   9.000000E+99

> <Gold.Protein.RotatedTorsions>
[ 6907 6896 6895 6894 ] final    8.38 input  -60.11 | X-H torsion
[ 7974 7965 7964 7962 ] final -137.30 input  175.53 | X-H torsion
[ 8008 7997 7996 7995 ] final -135.21 input   59.86 | X-H torsion
[ 10167 10162 10161 10158 ] final   87.55 input  -65.29 | X-H torsion
[ 10718 10713 10712 10709 ] final  -37.36 input   66.30 | X-H torsion
[ 10763 10752 10751 10750 ] final   80.06 input  -60.55 | X-H torsion
[ 11005 11000 10999 10996 ] final -173.40 input  -57.11 | X-H torsion

> <Gold.Protein.ActiveResidues>
 VAL166  LYS551  ARG553  GLY616  TRP617  ASP618  TYR619  PRO620  LYS621  CYS622 
 ASP623  PHE694  ASN695  SER759  ASP760  ASP761  ALA762  ILE779  LEU786  VAL792 
 PHE793  MET794  SER795  GLU796  ALA797  LYS798  CYS799  TRP800  GLU811  SER814 

> <Gold.Protein.RotatedAtoms>
  151.7051  135.0923  160.0257 H   0  0  0  0  0  0  0  0  0  0  0  0  # atno 6907 bound_to 6896
  152.3696  133.6397  159.6085 H   0  0  0  0  0  0  0  0  0  0  0  0  # atno 6908 bound_to 6896
  150.7663  133.9208  159.3439 H   0  0  0  0  0  0  0  0  0  0  0  0  # atno 6909 bound_to 6896
  144.8854  140.6567  143.5179 H   0  0  0  0  0  0  0  0  0  0  0  0  # atno 7974 bound_to 7965
  155.3749  140.0490  157.3045 H   0  0  0  0  0  0  0  0  0  0  0  0  # atno 8008 bound_to 7997
  154.5111  140.2192  155.9117 H   0  0  0  0  0  0  0  0  0  0  0  0  # atno 8009 bound_to 7997
  156.1584  140.3121  155.8770 H   0  0  0  0  0  0  0  0  0  0  0  0  # atno 8010 bound_to 7997
  139.8762  144.6465  150.8894 H   0  0  0  0  0  0  0  0  0  0  0  0  # atno 10167 bound_to 10162
  156.3161  130.4259  149.8004 H   0  0  0  0  0  0  0  0  0  0  0  0  # atno 10718 bound_to 10713
  153.1003  135.4816  154.8854 H   0  0  0  0  0  0  0  0  0  0  0  0  # atno 10763 bound_to 10752
  154.7371  135.3073  154.8795 H   0  0  0  0  0  0  0  0  0  0  0  0  # atno 10764 bound_to 10752
  153.9413  135.6833  153.4797 H   0  0  0  0  0  0  0  0  0  0  0  0  # atno 10765 bound_to 10752
  140.4862  134.6028  157.4938 H   0  0  0  0  0  0  0  0  0  0  0  0  # atno 11005 bound_to 11000
  145.3879  139.1623  143.4245 LP  0  0  0  0  0  0  0  0  0  0  0  0  # atno 17320 bound_to 7965
  146.3021  140.3966  142.8700 LP  0  0  0  0  0  0  0  0  0  0  0  0  # atno 17321 bound_to 7965
  140.7752  143.3623  151.1805 LP  0  0  0  0  0  0  0  0  0  0  0  0  # atno 17342 bound_to 10162
  139.7238  143.9181  152.2995 LP  0  0  0  0  0  0  0  0  0  0  0  0  # atno 17343 bound_to 10162
  156.5329  130.8265  151.3243 LP  0  0  0  0  0  0  0  0  0  0  0  0  # atno 17370 bound_to 10713
  157.7402  130.9845  150.2361 LP  0  0  0  0  0  0  0  0  0  0  0  0  # atno 17371 bound_to 10713
  139.9796  134.7158  155.9884 LP  0  0  0  0  0  0  0  0  0  0  0  0  # atno 17394 bound_to 11000
  141.1507  133.6549  156.4004 LP  0  0  0  0  0  0  0  0  0  0  0  0  # atno 17395 bound_to 11000

$$$$
