AV-unprocessed.smi:3049|AV-procd|sdf|11630|dock4
  -GOLD-   2272017 23D 1   1.00000     0.00000
 Structure written by MMmdl.
 52 53  0  0  0  0  0  0  0  0  2 V2000
  151.3249  143.2775  157.2109 C   0  0  0  0  0  0  0  0  0  0  0  0
  150.3379  142.2325  157.7565 C   0  0  0  0  0  0  0  0  0  0  0  0
  150.1892  140.9746  156.8635 C   0  0  0  0  0  0  0  0  0  0  0  0
  151.5602  140.3536  156.5114 C   0  0  0  0  0  0  0  0  0  0  0  0
  151.5203  139.3994  155.3095 C   0  0  0  0  0  0  0  0  0  0  0  0
  149.4115  141.2749  155.5600 C   0  0  0  0  0  0  0  0  0  0  0  0
  149.9563  141.9804  154.7091 O   0  0  0  0  0  0  0  0  0  0  0  0
  148.1539  140.7946  155.3901 N   0  0  0  0  0  0  0  0  0  0  0  0
  147.2528  141.0896  154.2700 C   0  0  0  0  0  0  0  0  0  0  0  0
  147.1766  139.8449  153.3693 C   0  0  0  0  0  0  0  0  0  0  0  0
  146.6995  138.6132  154.1714 C   0  0  0  0  0  0  0  0  0  0  0  0
  146.8277  137.4132  153.3505 N   0  0  0  0  0  0  0  0  0  0  0  0
  145.8090  136.6491  152.9311 C   0  0  0  0  0  0  0  0  0  0  0  0
  144.6312  136.8942  153.1905 O   0  0  0  0  0  0  0  0  0  0  0  0
  146.2599  135.5970  152.2243 N   0  0  0  0  0  0  0  0  0  0  0  0
  145.5251  134.5898  151.5840 C   0  0  0  0  0  0  0  0  0  0  0  0
  144.1691  134.3219  151.7148 C   0  0  0  0  0  0  0  0  0  0  0  0
  143.4392  133.3708  151.0907 N   0  5  0  0  0  0  0  0  0  0  0  0
  144.0695  132.5453  150.2068 C   0  0  0  0  0  0  0  0  0  0  0  0
  143.4656  131.6584  149.6044 O   0  0  0  0  0  0  0  0  0  0  0  0
  145.5154  132.7272  149.9711 C   0  0  0  0  0  0  0  0  0  0  0  0
  146.2180  131.8071  148.9874 C   0  0  0  0  0  0  0  0  0  0  0  0
  146.1818  133.7033  150.6353 C   0  0  0  0  0  0  0  0  0  0  0  0
  147.4877  138.4501  155.4937 C   0  0  0  0  0  0  0  0  0  0  0  0
  147.5726  139.7760  156.2724 C   0  0  0  0  0  0  0  0  0  0  0  0
  151.3431  144.1602  157.8501 H   0  0  0  0  0  0  0  0  0  0  0  0
  151.0404  143.6005  156.2091 H   0  0  0  0  0  0  0  0  0  0  0  0
  152.3425  142.8896  157.1614 H   0  0  0  0  0  0  0  0  0  0  0  0
  150.6305  141.9488  158.7684 H   0  0  0  0  0  0  0  0  0  0  0  0
  149.3687  142.7193  157.8605 H   0  0  0  0  0  0  0  0  0  0  0  0
  149.6243  140.2637  157.4638 H   0  0  0  0  0  0  0  0  0  0  0  0
  152.2779  141.1432  156.2822 H   0  0  0  0  0  0  0  0  0  0  0  0
  151.9631  139.8283  157.3785 H   0  0  0  0  0  0  0  0  0  0  0  0
  152.5216  139.0403  155.0711 H   0  0  0  0  0  0  0  0  0  0  0  0
  151.1294  139.8990  154.4227 H   0  0  0  0  0  0  0  0  0  0  0  0
  150.8992  138.5258  155.5052 H   0  0  0  0  0  0  0  0  0  0  0  0
  146.2601  141.3191  154.6605 H   0  0  0  0  0  0  0  0  0  0  0  0
  147.5321  141.9735  153.6995 H   0  0  0  0  0  0  0  0  0  0  0  0
  146.5027  140.0302  152.5322 H   0  0  0  0  0  0  0  0  0  0  0  0
  148.1611  139.6532  152.9390 H   0  0  0  0  0  0  0  0  0  0  0  0
  145.6475  138.7705  154.4172 H   0  0  0  0  0  0  0  0  0  0  0  0
  147.7633  137.1353  153.0935 H   0  0  0  0  0  0  0  0  0  0  0  0
  147.2618  135.5051  152.1451 H   0  0  0  0  0  0  0  0  0  0  0  0
  143.5651  134.9664  152.3838 H   0  0  0  0  0  0  0  0  0  0  0  0
  147.2764  132.0537  148.8991 H   0  0  0  0  0  0  0  0  0  0  0  0
  145.7684  131.8918  147.9978 H   0  0  0  0  0  0  0  0  0  0  0  0
  146.1398  130.7698  149.3144 H   0  0  0  0  0  0  0  0  0  0  0  0
  147.2401  133.8285  150.4584 H   0  0  0  0  0  0  0  0  0  0  0  0
  147.0241  137.6840  156.1164 H   0  0  0  0  0  0  0  0  0  0  0  0
  148.4989  138.1008  155.2782 H   0  0  0  0  0  0  0  0  0  0  0  0
  148.1439  139.6289  157.1898 H   0  0  0  0  0  0  0  0  0  0  0  0
  146.5777  140.0895  156.5919 H   0  0  0  0  0  0  0  0  0  0  0  0
  1  2  1  0  0  0  0
  1 26  1  0  0  0  0
  1 27  1  0  0  0  0
  1 28  1  0  0  0  0
  2  3  1  0  0  0  0
  2 29  1  0  0  0  0
  2 30  1  0  0  0  0
  3  4  1  0  0  0  0
  3  6  1  0  0  0  0
  3 31  1  0  0  0  0
  4  5  1  0  0  0  0
  4 32  1  0  0  0  0
  4 33  1  0  0  0  0
  5 34  1  0  0  0  0
  5 35  1  0  0  0  0
  5 36  1  0  0  0  0
  6  7  2  0  0  0  0
  6  8  1  0  0  0  0
  8 25  1  0  0  0  0
  8  9  1  0  0  0  0
  9 10  1  0  0  0  0
  9 37  1  0  0  0  0
  9 38  1  0  0  0  0
 10 11  1  0  0  0  0
 10 39  1  0  0  0  0
 10 40  1  0  0  0  0
 11 12  1  0  0  0  0
 11 24  1  0  0  0  0
 11 41  1  0  0  0  0
 12 13  1  0  0  0  0
 12 42  1  0  0  0  0
 13 14  2  0  0  0  0
 13 15  1  0  0  0  0
 15 16  1  0  0  0  0
 15 43  1  0  0  0  0
 16 23  1  0  0  0  0
 16 17  2  0  0  0  0
 17 18  1  0  0  0  0
 17 44  1  0  0  0  0
 18 19  1  0  0  0  0
 19 20  2  0  0  0  0
 19 21  1  0  0  0  0
 21 22  1  0  0  0  0
 21 23  2  0  0  0  0
 22 45  1  0  0  0  0
 22 46  1  0  0  0  0
 22 47  1  0  0  0  0
 23 48  1  0  0  0  0
 24 25  1  0  0  0  0
 24 49  1  0  0  0  0
 24 50  1  0  0  0  0
 25 51  1  0  0  0  0
 25 52  1  0  0  0  0
M  CHG  1  18  -1
M  END
> <s_m_source_file>
AV-unprocessed.smi

> <i_m_source_file_index>
3049

> <i_lp_mmshare_version>
43012

> <i_f3d_flags>
0

> <s_epik_input>
W0NIM11bQ0gyXVtDSF0oW0NIMl1bQ0gzXSlDKD1PKU4xW0NIMl1bQ0gyXVtDSF0oW0NIMl1bQ0gyXTEpW05IXUMoPU8pW05IXWMyW2NIXVtuSF1jKD1PKWMoW0NIM10pW2NIXTI=

> <s_epik_cmdline>
J2VwaWtfcHl0aG9uJywgJy1waCcsICc3LjAnLCAnLXRuJywgJzgnLCAnLW1hJywgJzIwMCcsICctbWV0YWxfYmluZGluZycsICctaW1hZScsICc8aW5maWxlLm1hZT4nLCAnLW9tYWUnLCAnPG91dGZpbGUubWFlPic=

> <r_lp_tautomer_probability>
1

> <r_epik_Ionization_Penalty>
7.58311

> <r_epik_Ionization_Penalty_Charging>
1.51652

> <r_epik_Ionization_Penalty_Neutral>
6.06659

> <r_epik_State_Penalty>
6.06654

> <r_epik_Charging_Adjusted_Penalty>
7.58305

> <i_epik_Tot_Q>
-1

> <i_epik_Tot_abs_Q>
1

> <r_epik_Metal_State_Penalty>
2.01464

> <b_epik_Metal_Only>
1

> <s_lp_Force_Field>
OPLS_2005

> <r_lp_Energy>
39.554

> <b_lp_Chiralities_Consistent>
1

> <s_lp_Variant>
AV-unprocessed.smi:3049-2

> <Gold.Version>
5.8.1

> <Gold.Id.Protein>
6NUR|6NUR_protein|mol2

> <Gold.PLP.Fitness>
44.7146

> <Gold.PLP.PLP>
-36.2562

> <Gold.PLP.part.hbond>
-5.0000

> <Gold.PLP.part.metal>
0.0000

> <Gold.PLP.part.buried>
-0.9948

> <Gold.PLP.part.nonpolar>
-31.3716

> <Gold.PLP.part.repulsive>
2.5312

> <Gold.PLP.ligand.clash>
0.0000

> <Gold.PLP.ligand.torsion>
0.4596

> <Gold.PLP.Chemscore.Hbond>
3.0630

> <Gold.PLP.Chemscore.CHOScore>
0.0000

> <Gold.PLP.Chemscore.Metal>
0.0000

> <Gold.Chemscore.Hbonds>
donor molecule, donor type, donor heavy atom, donor atom, acceptor molecule, acceptor atom, score
      L1  H    12    42       P1  7948  0.99
      L1  H    15    43       P1  7948  1.00
      P1  H  7989  7998       L1     7  0.06
      P1  H  8011  8017       L1     7  0.02
      P1  H 10785 10796       L1    20  1.00

> <Gold.PLP.Chemscore.Internal.Correction>
0.1887

> <Gold.Rescore>
     Score         DG    S(hbond)    S(metal)    S(lipo)     H(rot)  DE(clash)    DE(int)     intcor
     17.21     -23.36       3.17        0.00      96.04       1.54       4.13       2.03       ----

> <Gold.Chemscore.Fitness>
17.2055

> <Gold.Chemscore.DG>
-23.3619

> <Gold.Chemscore.ZeroCoef>
-5.4800

> <Gold.Chemscore.Hbond>
3.1675

> <Gold.Chemscore.Metal>
0.0000

> <Gold.Chemscore.Lipo>
96.0382

> <Gold.Chemscore.Internal_Hbond>
0.0000

> <Gold.Chemscore.DEClash>
4.1284

> <Gold.Chemscore.DEInternal>
2.0279

> <Gold.Chemscore.Rot>
1.5367

> <Gold.Chemscore.Internal.Correction>
   9.000000E+99

> <Gold.Chemscore.Hbonds>
donor molecule, donor type, donor heavy atom, donor atom, acceptor molecule, acceptor atom, score
      L1  H    12    42       P1  7948  0.93
      L1  H    15    43       P1  7948  0.96
      P1  H  7989  7998       L1     7  0.05
      P1  H  8011  8017       L1     7  0.03
      P1  H 10785 10796       L1    20  0.95

> <Gold.Chemscore.Hbond.Weighted>
-10.5795

> <Gold.Chemscore.Metal.Weighted>
-0.0000

> <Gold.Chemscore.Lipo.Weighted>
-11.2365

> <Gold.Chemscore.Internal_Hbond.Weighted>
0.0000

> <Gold.Chemscore.DEClash.Weighted>
4.1284

> <Gold.Chemscore.DEInternal.Weighted>
2.0279

> <Gold.Chemscore.Rot.Weighted>
3.9340

> <Gold.Chemscore.Internal.Correction.Weighted>
   9.000000E+99

> <Gold.Protein.RotatedTorsions>
[ 6907 6896 6895 6894 ] final  -26.90 input  -60.11 | X-H torsion
[ 7974 7965 7964 7962 ] final   22.00 input  175.53 | X-H torsion
[ 8008 7997 7996 7995 ] final -125.82 input   59.86 | X-H torsion
[ 10167 10162 10161 10158 ] final  -58.38 input  -65.29 | X-H torsion
[ 10718 10713 10712 10709 ] final  176.36 input   66.30 | X-H torsion
[ 10763 10752 10751 10750 ] final -155.16 input  -60.55 | X-H torsion
[ 11005 11000 10999 10996 ] final  -51.97 input  -57.11 | X-H torsion

> <Gold.Protein.ActiveResidues>
 VAL166  LYS551  ARG553  GLY616  TRP617  ASP618  TYR619  PRO620  LYS621  CYS622 
 ASP623  PHE694  ASN695  SER759  ASP760  ASP761  ALA762  ILE779  LEU786  VAL792 
 PHE793  MET794  SER795  GLU796  ALA797  LYS798  CYS799  TRP800  GLU811  SER814 

> <Gold.Protein.RotatedAtoms>
  151.1545  135.0243  159.8682 H   0  0  0  0  0  0  0  0  0  0  0  0  # atno 6907 bound_to 6896
  152.5452  134.1350  159.8465 H   0  0  0  0  0  0  0  0  0  0  0  0  # atno 6908 bound_to 6896
  151.1439  133.4907  159.2629 H   0  0  0  0  0  0  0  0  0  0  0  0  # atno 6909 bound_to 6896
  146.2047  139.7947  142.8735 H   0  0  0  0  0  0  0  0  0  0  0  0  # atno 7974 bound_to 7965
  155.2195  140.0421  157.2946 H   0  0  0  0  0  0  0  0  0  0  0  0  # atno 8008 bound_to 7997
  154.5959  140.2439  155.7829 H   0  0  0  0  0  0  0  0  0  0  0  0  # atno 8009 bound_to 7997
  156.2290  140.2945  156.0148 H   0  0  0  0  0  0  0  0  0  0  0  0  # atno 8010 bound_to 7997
  140.6201  143.2416  151.5502 H   0  0  0  0  0  0  0  0  0  0  0  0  # atno 10167 bound_to 10162
  156.9212  130.9941  151.3004 H   0  0  0  0  0  0  0  0  0  0  0  0  # atno 10718 bound_to 10713
  154.7807  135.3174  154.7996 H   0  0  0  0  0  0  0  0  0  0  0  0  # atno 10763 bound_to 10752
  153.8708  135.6844  153.4779 H   0  0  0  0  0  0  0  0  0  0  0  0  # atno 10764 bound_to 10752
  153.1442  135.4726  154.9479 H   0  0  0  0  0  0  0  0  0  0  0  0  # atno 10765 bound_to 10752
  141.0900  133.6634  156.3956 H   0  0  0  0  0  0  0  0  0  0  0  0  # atno 11005 bound_to 11000
  145.3360  141.0277  143.3419 LP  0  0  0  0  0  0  0  0  0  0  0  0  # atno 17320 bound_to 7965
  144.8765  139.4964  143.6743 LP  0  0  0  0  0  0  0  0  0  0  0  0  # atno 17321 bound_to 7965
  139.5431  144.2594  152.1390 LP  0  0  0  0  0  0  0  0  0  0  0  0  # atno 17342 bound_to 10162
  140.1812  144.4843  150.6527 LP  0  0  0  0  0  0  0  0  0  0  0  0  # atno 17343 bound_to 10162
  157.5906  130.8441  149.8654 LP  0  0  0  0  0  0  0  0  0  0  0  0  # atno 17370 bound_to 10713
  156.0490  130.3721  150.1247 LP  0  0  0  0  0  0  0  0  0  0  0  0  # atno 17371 bound_to 10713
  140.5275  134.6245  157.5339 LP  0  0  0  0  0  0  0  0  0  0  0  0  # atno 17394 bound_to 11000
  139.9724  134.7271  156.0016 LP  0  0  0  0  0  0  0  0  0  0  0  0  # atno 17395 bound_to 11000

$$$$
