AV-unprocessed.smi:2786|AV-procd|sdf|10748|dock5
  -GOLD-   2272015183D 1   1.00000     0.00000
 Structure written by MMmdl.
 27 28  0  0  0  0  0  0  0  0  2 V2000
  148.5555  137.9233  154.8123 C   0  0  0  0  0  0  0  0  0  0  0  0
  149.9025  138.4581  154.7610 N   0  0  0  0  0  0  0  0  0  0  0  0
  151.0711  137.7109  154.6955 C   0  0  0  0  0  0  0  0  0  0  0  0
  152.1109  138.6077  154.6548 C   0  0  0  0  0  0  0  0  0  0  0  0
  151.6043  139.9019  154.6941 N   0  0  0  0  0  0  0  0  0  0  0  0
  150.2837  139.7507  154.7663 C   0  0  0  0  0  0  0  0  0  0  0  0
  149.3102  140.8930  154.8155 C   0  0  2  0  0  0  0  0  0  0  0  0
  148.5487  140.9251  156.1593 C   0  0  0  0  0  0  0  0  0  0  0  0
  147.6291  142.0809  156.2032 N   0  3  0  0  0  0  0  0  0  0  0  0
  146.7104  142.0768  155.0469 C   0  0  0  0  0  0  0  0  0  0  0  0
  147.5166  142.0254  153.7362 C   0  0  0  0  0  0  0  0  0  0  0  0
  148.3452  140.8239  153.7177 N   0  0  0  0  0  0  0  0  0  0  0  0
  148.5769  136.8390  154.6988 H   0  0  0  0  0  0  0  0  0  0  0  0
  147.9563  138.3489  154.0069 H   0  0  0  0  0  0  0  0  0  0  0  0
  148.0981  138.1680  155.7712 H   0  0  0  0  0  0  0  0  0  0  0  0
  151.0671  136.6307  154.6819 H   0  0  0  0  0  0  0  0  0  0  0  0
  153.1737  138.4237  154.5997 H   0  0  0  0  0  0  0  0  0  0  0  0
  149.8713  141.8208  154.6994 H   0  0  0  0  0  0  0  0  0  0  0  0
  147.9821  140.0039  156.3061 H   0  0  0  0  0  0  0  0  0  0  0  0
  149.2488  141.0050  156.9914 H   0  0  0  0  0  0  0  0  0  0  0  0
  147.0951  142.0565  157.0600 H   0  0  0  0  0  0  0  0  0  0  0  0
  146.0366  141.2215  155.1188 H   0  0  0  0  0  0  0  0  0  0  0  0
  146.0931  142.9747  155.0787 H   0  0  0  0  0  0  0  0  0  0  0  0
  146.8385  141.9969  152.8830 H   0  0  0  0  0  0  0  0  0  0  0  0
  148.1389  142.9142  153.6206 H   0  0  0  0  0  0  0  0  0  0  0  0
  147.7454  140.0248  153.8694 H   0  0  0  0  0  0  0  0  0  0  0  0
  148.1758  142.9295  156.1772 H   0  0  0  0  0  0  0  0  0  0  0  0
  1  2  1  0  0  0  0
  1 13  1  0  0  0  0
  1 14  1  0  0  0  0
  1 15  1  0  0  0  0
  2  6  1  0  0  0  0
  2  3  1  0  0  0  0
  3  4  2  0  0  0  0
  3 16  1  0  0  0  0
  4  5  1  0  0  0  0
  4 17  1  0  0  0  0
  5  6  2  0  0  0  0
  6  7  1  0  0  0  0
  7 12  1  0  0  0  0
  7  8  1  0  0  0  0
  7 18  1  0  0  0  0
  8  9  1  0  0  0  0
  8 19  1  0  0  0  0
  8 20  1  0  0  0  0
  9 10  1  0  0  0  0
  9 21  1  0  0  0  0
  9 27  1  0  0  0  0
 10 11  1  0  0  0  0
 10 22  1  0  0  0  0
 10 23  1  0  0  0  0
 11 12  1  0  0  0  0
 11 24  1  0  0  0  0
 11 25  1  0  0  0  0
 12 26  1  0  0  0  0
M  CHG  1   9   1
M  END
> <s_m_source_file>
AV-unprocessed.smi

> <i_m_source_file_index>
2786

> <i_lp_mmshare_version>
43012

> <i_f3d_flags>
0

> <s_epik_input>
W0NIM11uMVtjSF1bY0hdbmMxW0NAQEhdMltDSDJdW05IXVtDSDJdW0NIMl1bTkhdMg==

> <s_epik_cmdline>
J2VwaWtfcHl0aG9uJywgJy1waCcsICc3LjAnLCAnLXRuJywgJzgnLCAnLW1hJywgJzIwMCcsICctbWV0YWxfYmluZGluZycsICctaW1hZScsICc8aW5maWxlLm1hZT4nLCAnLW9tYWUnLCAnPG91dGZpbGUubWFlPic=

> <r_lp_tautomer_probability>
1

> <r_epik_Ionization_Penalty>
0.130484

> <r_epik_Ionization_Penalty_Charging>
0.130409

> <r_epik_Ionization_Penalty_Neutral>
7.57914e-05

> <r_epik_State_Penalty>
0.270147

> <r_epik_Charging_Adjusted_Penalty>
0.400555

> <i_epik_Tot_Q>
1

> <i_epik_Tot_abs_Q>
1

> <r_epik_Metal_State_Penalty>
0.136376

> <b_epik_Metal_Only>
0

> <s_lp_Force_Field>
OPLS_2005

> <r_lp_Energy>
9.37099

> <b_lp_Chiralities_Consistent>
1

> <s_lp_Variant>
AV-unprocessed.smi:2786-1

> <Gold.Version>
5.8.1

> <Gold.Id.Protein>
6NUR|6NUR_protein|mol2

> <Gold.PLP.Fitness>
32.5230

> <Gold.PLP.PLP>
-23.7492

> <Gold.PLP.part.hbond>
-2.8800

> <Gold.PLP.part.metal>
0.0000

> <Gold.PLP.part.buried>
-4.1034

> <Gold.PLP.part.nonpolar>
-17.5541

> <Gold.PLP.part.repulsive>
0.0808

> <Gold.PLP.ligand.clash>
0.0000

> <Gold.PLP.ligand.torsion>
0.0418

> <Gold.PLP.Chemscore.Hbond>
2.9500

> <Gold.PLP.Chemscore.CHOScore>
0.0000

> <Gold.PLP.Chemscore.Metal>
0.0000

> <Gold.Chemscore.Hbonds>
donor molecule, donor type, donor heavy atom, donor atom, acceptor molecule, acceptor atom, score
      L1  H     9    27       P1  8028  2.00
      P1  H  7989  7998       L1     5  0.95

> <Gold.PLP.Chemscore.Internal.Correction>
0.0074

> <Gold.Rescore>
     Score         DG    S(hbond)    S(metal)    S(lipo)     H(rot)  DE(clash)    DE(int)     intcor
     12.44     -12.45       1.48        0.00      39.23       1.00       0.00       0.00       ----

> <Gold.Chemscore.Fitness>
12.4418

> <Gold.Chemscore.DG>
-12.4464

> <Gold.Chemscore.ZeroCoef>
-5.4800

> <Gold.Chemscore.Hbond>
1.4778

> <Gold.Chemscore.Metal>
0.0000

> <Gold.Chemscore.Lipo>
39.2344

> <Gold.Chemscore.Internal_Hbond>
0.0000

> <Gold.Chemscore.DEClash>
0.0000

> <Gold.Chemscore.DEInternal>
0.0046

> <Gold.Chemscore.Rot>
1.0000

> <Gold.Chemscore.Internal.Correction>
   9.000000E+99

> <Gold.Chemscore.Hbonds>
donor molecule, donor type, donor heavy atom, donor atom, acceptor molecule, acceptor atom, score
      L1  H     9    27       P1  8028  0.73
      P1  H  7989  7998       L1     5  0.20

> <Gold.Chemscore.Hbond.Weighted>
-4.9360

> <Gold.Chemscore.Metal.Weighted>
-0.0000

> <Gold.Chemscore.Lipo.Weighted>
-4.5904

> <Gold.Chemscore.Internal_Hbond.Weighted>
0.0000

> <Gold.Chemscore.DEClash.Weighted>
0.0000

> <Gold.Chemscore.DEInternal.Weighted>
0.0046

> <Gold.Chemscore.Rot.Weighted>
2.5600

> <Gold.Chemscore.Internal.Correction.Weighted>
   9.000000E+99

> <Gold.Protein.RotatedTorsions>
[ 6907 6896 6895 6894 ] final  -13.73 input  -60.11 | X-H torsion
[ 7974 7965 7964 7962 ] final -159.82 input  175.53 | X-H torsion
[ 8008 7997 7996 7995 ] final   48.00 input   59.86 | X-H torsion
[ 10167 10162 10161 10158 ] final  178.70 input  -65.29 | X-H torsion
[ 10718 10713 10712 10709 ] final   20.25 input   66.30 | X-H torsion
[ 10763 10752 10751 10750 ] final -177.56 input  -60.55 | X-H torsion
[ 11005 11000 10999 10996 ] final   -6.30 input  -57.11 | X-H torsion

> <Gold.Protein.ActiveResidues>
 VAL166  LYS551  ARG553  GLY616  TRP617  ASP618  TYR619  PRO620  LYS621  CYS622 
 ASP623  PHE694  ASN695  SER759  ASP760  ASP761  ALA762  ILE779  LEU786  VAL792 
 PHE793  MET794  SER795  GLU796  ALA797  LYS798  CYS799  TRP800  GLU811  SER814 

> <Gold.Protein.RotatedAtoms>
  151.3504  135.0883  159.9400 H   0  0  0  0  0  0  0  0  0  0  0  0  # atno 6907 bound_to 6896
  152.5188  133.9358  159.7613 H   0  0  0  0  0  0  0  0  0  0  0  0  # atno 6908 bound_to 6896
  150.9732  133.6268  159.2764 H   0  0  0  0  0  0  0  0  0  0  0  0  # atno 6909 bound_to 6896
  144.7450  140.3630  143.6092 H   0  0  0  0  0  0  0  0  0  0  0  0  # atno 7974 bound_to 7965
  155.3784  140.3427  155.4246 H   0  0  0  0  0  0  0  0  0  0  0  0  # atno 8008 bound_to 7997
  156.1624  140.1605  156.8623 H   0  0  0  0  0  0  0  0  0  0  0  0  # atno 8009 bound_to 7997
  154.5152  140.0780  156.8050 H   0  0  0  0  0  0  0  0  0  0  0  0  # atno 8010 bound_to 7997
  139.5305  144.2648  152.0677 H   0  0  0  0  0  0  0  0  0  0  0  0  # atno 10167 bound_to 10162
  157.1219  130.6553  149.5926 H   0  0  0  0  0  0  0  0  0  0  0  0  # atno 10718 bound_to 10713
  154.5586  135.2818  155.0940 H   0  0  0  0  0  0  0  0  0  0  0  0  # atno 10763 bound_to 10752
  154.2358  135.6366  153.5194 H   0  0  0  0  0  0  0  0  0  0  0  0  # atno 10764 bound_to 10752
  153.0023  135.5548  154.6174 H   0  0  0  0  0  0  0  0  0  0  0  0  # atno 10765 bound_to 10752
  140.7005  133.8994  155.8680 H   0  0  0  0  0  0  0  0  0  0  0  0  # atno 11005 bound_to 11000
  145.7157  139.1696  143.2513 LP  0  0  0  0  0  0  0  0  0  0  0  0  # atno 17320 bound_to 7965
  146.1314  140.7180  142.9410 LP  0  0  0  0  0  0  0  0  0  0  0  0  # atno 17321 bound_to 7965
  140.2111  144.4562  150.6385 LP  0  0  0  0  0  0  0  0  0  0  0  0  # atno 17342 bound_to 10162
  140.6480  143.2218  151.6142 LP  0  0  0  0  0  0  0  0  0  0  0  0  # atno 17343 bound_to 10162
  155.9827  130.4841  150.6893 LP  0  0  0  0  0  0  0  0  0  0  0  0  # atno 17370 bound_to 10713
  157.4469  131.0868  151.0886 LP  0  0  0  0  0  0  0  0  0  0  0  0  # atno 17371 bound_to 10713
  141.0168  134.0945  157.4164 LP  0  0  0  0  0  0  0  0  0  0  0  0  # atno 17394 bound_to 11000
  139.8898  135.0107  156.6700 LP  0  0  0  0  0  0  0  0  0  0  0  0  # atno 17395 bound_to 11000

$$$$
