AV-unprocessed.smi:2334|AV-procd|sdf|9321|dock3
  -GOLD-   2272012543D 1   1.00000     0.00000
 Structure written by MMmdl.
 49 51  0  0  0  0  0  0  0  0  1 V2000
  149.3126  139.2315  154.1310 C   0  0  0  0  0  0  0  0  0  0  0  0
  150.2336  138.7938  155.2566 C   0  0  0  0  0  0  0  0  0  0  0  0
  150.7819  139.7954  155.9785 N   0  0  0  0  0  0  0  0  0  0  0  0
  151.6099  139.4936  157.0061 C   0  0  0  0  0  0  0  0  0  0  0  0
  152.1627  140.5683  157.7302 N   0  0  0  0  0  0  0  0  0  0  0  0
  151.5272  141.8765  157.7655 C   0  0  0  0  0  0  0  0  0  0  0  0
  152.3554  142.6812  158.7658 C   0  0  0  0  0  0  0  0  0  0  0  0
  152.8166  141.6206  159.7656 C   0  0  0  0  0  0  0  0  0  0  0  0
  152.9762  140.3524  158.9190 C   0  0  0  0  0  0  0  0  0  0  0  0
  151.9199  138.1553  157.3405 C   0  0  0  0  0  0  0  0  0  0  0  0
  151.3502  137.1112  156.5885 C   0  0  0  0  0  0  0  0  0  0  0  0
  150.4911  137.4259  155.5095 C   0  0  0  0  0  0  0  0  0  0  0  0
  149.8503  136.4397  154.7084 N   0  0  0  0  0  0  0  0  0  0  0  0
  149.4706  135.1984  155.0566 C   0  0  0  0  0  0  0  0  0  0  0  0
  149.6469  134.6896  156.1630 O   0  0  0  0  0  0  0  0  0  0  0  0
  148.8883  134.5692  154.0222 N   0  0  0  0  0  0  0  0  0  0  0  0
  148.3537  133.1999  153.9656 C   0  0  0  0  0  0  0  0  0  0  0  0
  149.4684  132.1855  154.3008 C   0  0  0  0  0  0  0  0  0  0  0  0
  147.2304  133.0876  155.0192 C   0  0  0  0  0  0  0  0  0  0  0  0
  145.9916  133.9207  154.6378 C   0  0  0  0  0  0  0  0  0  0  0  0
  145.5132  133.5274  153.3571 O   0  0  0  0  0  0  0  0  0  0  0  0
  146.4664  133.7363  152.3215 C   0  0  0  0  0  0  0  0  0  0  0  0
  147.7224  132.8868  152.5868 C   0  0  0  0  0  0  0  0  0  0  0  0
  149.6768  138.8549  153.1745 H   0  0  0  0  0  0  0  0  0  0  0  0
  149.2507  140.3186  154.0626 H   0  0  0  0  0  0  0  0  0  0  0  0
  148.3054  138.8465  154.2939 H   0  0  0  0  0  0  0  0  0  0  0  0
  151.5156  142.3457  156.7809 H   0  0  0  0  0  0  0  0  0  0  0  0
  150.4981  141.7729  158.1126 H   0  0  0  0  0  0  0  0  0  0  0  0
  153.2215  143.1156  158.2644 H   0  0  0  0  0  0  0  0  0  0  0  0
  151.7915  143.4911  159.2293 H   0  0  0  0  0  0  0  0  0  0  0  0
  153.7320  141.8974  160.2892 H   0  0  0  0  0  0  0  0  0  0  0  0
  152.0380  141.4635  160.5132 H   0  0  0  0  0  0  0  0  0  0  0  0
  152.6648  139.4697  159.4788 H   0  0  0  0  0  0  0  0  0  0  0  0
  154.0146  140.2178  158.6148 H   0  0  0  0  0  0  0  0  0  0  0  0
  152.5844  137.9156  158.1572 H   0  0  0  0  0  0  0  0  0  0  0  0
  151.5727  136.0920  156.8633 H   0  0  0  0  0  0  0  0  0  0  0  0
  149.7260  136.6861  153.7374 H   0  0  0  0  0  0  0  0  0  0  0  0
  148.8079  135.0963  153.1649 H   0  0  0  0  0  0  0  0  0  0  0  0
  149.0742  131.1704  154.3589 H   0  0  0  0  0  0  0  0  0  0  0  0
  149.9336  132.4103  155.2610 H   0  0  0  0  0  0  0  0  0  0  0  0
  150.2550  132.1766  153.5464 H   0  0  0  0  0  0  0  0  0  0  0  0
  146.9256  132.0451  155.1203 H   0  0  0  0  0  0  0  0  0  0  0  0
  147.5950  133.3924  156.0011 H   0  0  0  0  0  0  0  0  0  0  0  0
  145.1985  133.7645  155.3693 H   0  0  0  0  0  0  0  0  0  0  0  0
  146.2159  134.9883  154.6411 H   0  0  0  0  0  0  0  0  0  0  0  0
  146.0171  133.4495  151.3707 H   0  0  0  0  0  0  0  0  0  0  0  0
  146.7149  134.7959  152.2456 H   0  0  0  0  0  0  0  0  0  0  0  0
  148.4409  133.0220  151.7788 H   0  0  0  0  0  0  0  0  0  0  0  0
  147.4377  131.8343  152.5529 H   0  0  0  0  0  0  0  0  0  0  0  0
  1  2  1  0  0  0  0
  1 24  1  0  0  0  0
  1 25  1  0  0  0  0
  1 26  1  0  0  0  0
  2 12  1  0  0  0  0
  2  3  2  0  0  0  0
  3  4  1  0  0  0  0
  4  5  1  0  0  0  0
  4 10  2  0  0  0  0
  5  9  1  0  0  0  0
  5  6  1  0  0  0  0
  6  7  1  0  0  0  0
  6 27  1  0  0  0  0
  6 28  1  0  0  0  0
  7  8  1  0  0  0  0
  7 29  1  0  0  0  0
  7 30  1  0  0  0  0
  8  9  1  0  0  0  0
  8 31  1  0  0  0  0
  8 32  1  0  0  0  0
  9 33  1  0  0  0  0
  9 34  1  0  0  0  0
 10 11  1  0  0  0  0
 10 35  1  0  0  0  0
 11 12  2  0  0  0  0
 11 36  1  0  0  0  0
 12 13  1  0  0  0  0
 13 14  1  0  0  0  0
 13 37  1  0  0  0  0
 14 15  2  0  0  0  0
 14 16  1  0  0  0  0
 16 17  1  0  0  0  0
 16 38  1  0  0  0  0
 17 23  1  0  0  0  0
 17 18  1  0  0  0  0
 17 19  1  0  0  0  0
 18 39  1  0  0  0  0
 18 40  1  0  0  0  0
 18 41  1  0  0  0  0
 19 20  1  0  0  0  0
 19 42  1  0  0  0  0
 19 43  1  0  0  0  0
 20 21  1  0  0  0  0
 20 44  1  0  0  0  0
 20 45  1  0  0  0  0
 21 22  1  0  0  0  0
 22 23  1  0  0  0  0
 22 46  1  0  0  0  0
 22 47  1  0  0  0  0
 23 48  1  0  0  0  0
 23 49  1  0  0  0  0
M  END
> <s_m_source_file>
AV-unprocessed.smi

> <i_m_source_file_index>
2334

> <i_lp_mmshare_version>
43012

> <i_f3d_flags>
0

> <s_epik_input>
W0NIMl0xW0NIMl1bQ0gyXVtDSDJdTjFjKG5jMltDSDNdKVtjSF1bY0hdYzJbTkhdQyg9TylbTkhdQzMoW0NIM10pW0NIMl1bQ0gyXU9bQ0gyXVtDSDJdMw==

> <s_epik_cmdline>
J2VwaWtfcHl0aG9uJywgJy1waCcsICc3LjAnLCAnLXRuJywgJzgnLCAnLW1hJywgJzIwMCcsICctbWV0YWxfYmluZGluZycsICctaW1hZScsICc8aW5maWxlLm1hZT4nLCAnLW9tYWUnLCAnPG91dGZpbGUubWFlPic=

> <r_lp_tautomer_probability>
1

> <r_epik_Ionization_Penalty>
0.314437

> <r_epik_Ionization_Penalty_Charging>
0

> <r_epik_Ionization_Penalty_Neutral>
0.314437

> <r_epik_State_Penalty>
0.308039

> <r_epik_Charging_Adjusted_Penalty>
0.308039

> <i_epik_Tot_Q>
0

> <i_epik_Tot_abs_Q>
0

> <r_epik_Metal_State_Penalty>
0.200041

> <b_epik_Metal_Only>
0

> <s_lp_Force_Field>
OPLS_2005

> <r_lp_Energy>
36.0775

> <b_lp_Chiralities_Consistent>
1

> <s_lp_Variant>
AV-unprocessed.smi:2334-1

> <Gold.Version>
5.8.1

> <Gold.Id.Protein>
6NUR|6NUR_protein|mol2

> <Gold.PLP.Fitness>
38.1635

> <Gold.PLP.PLP>
-32.6213

> <Gold.PLP.part.hbond>
-2.0000

> <Gold.PLP.part.metal>
0.0000

> <Gold.PLP.part.buried>
-3.5570

> <Gold.PLP.part.nonpolar>
-27.3596

> <Gold.PLP.part.repulsive>
0.1639

> <Gold.PLP.ligand.clash>
0.0000

> <Gold.PLP.ligand.torsion>
0.3166

> <Gold.PLP.Chemscore.Hbond>
1.9920

> <Gold.PLP.Chemscore.CHOScore>
0.0000

> <Gold.PLP.Chemscore.Metal>
0.0000

> <Gold.Chemscore.Hbonds>
donor molecule, donor type, donor heavy atom, donor atom, acceptor molecule, acceptor atom, score
      L1  H    13    37       P1  7948  0.95
      L1  H    16    38       P1  7948  1.00

> <Gold.PLP.Chemscore.Internal.Correction>
0.1993

> <Gold.Rescore>
     Score         DG    S(hbond)    S(metal)    S(lipo)     H(rot)  DE(clash)    DE(int)     intcor
     17.00     -18.39       1.80        0.00      80.91       1.00       0.01       1.37       ----

> <Gold.Chemscore.Fitness>
17.0020

> <Gold.Chemscore.DG>
-18.3884

> <Gold.Chemscore.ZeroCoef>
-5.4800

> <Gold.Chemscore.Hbond>
1.7969

> <Gold.Chemscore.Metal>
0.0000

> <Gold.Chemscore.Lipo>
80.9126

> <Gold.Chemscore.Internal_Hbond>
0.0000

> <Gold.Chemscore.DEClash>
0.0118

> <Gold.Chemscore.DEInternal>
1.3746

> <Gold.Chemscore.Rot>
1.0000

> <Gold.Chemscore.Internal.Correction>
   9.000000E+99

> <Gold.Chemscore.Hbonds>
donor molecule, donor type, donor heavy atom, donor atom, acceptor molecule, acceptor atom, score
      L1  H    13    37       P1  7948  0.52
      L1  H    16    38       P1  7948  0.45

> <Gold.Chemscore.Hbond.Weighted>
-6.0016

> <Gold.Chemscore.Metal.Weighted>
-0.0000

> <Gold.Chemscore.Lipo.Weighted>
-9.4668

> <Gold.Chemscore.Internal_Hbond.Weighted>
0.0000

> <Gold.Chemscore.DEClash.Weighted>
0.0118

> <Gold.Chemscore.DEInternal.Weighted>
1.3746

> <Gold.Chemscore.Rot.Weighted>
2.5600

> <Gold.Chemscore.Internal.Correction.Weighted>
   9.000000E+99

> <Gold.Protein.RotatedTorsions>
[ 6907 6896 6895 6894 ] final -149.79 input  -60.11 | X-H torsion
[ 7974 7965 7964 7962 ] final  162.66 input  175.53 | X-H torsion
[ 8008 7997 7996 7995 ] final    0.30 input   59.86 | X-H torsion
[ 10167 10162 10161 10158 ] final   29.23 input  -65.29 | X-H torsion
[ 10718 10713 10712 10709 ] final   56.34 input   66.30 | X-H torsion
[ 10763 10752 10751 10750 ] final   90.91 input  -60.55 | X-H torsion
[ 11005 11000 10999 10996 ] final  121.76 input  -57.11 | X-H torsion

> <Gold.Protein.ActiveResidues>
 VAL166  LYS551  ARG553  GLY616  TRP617  ASP618  TYR619  PRO620  LYS621  CYS622 
 ASP623  PHE694  ASN695  SER759  ASP760  ASP761  ALA762  ILE779  LEU786  VAL792 
 PHE793  MET794  SER795  GLU796  ALA797  LYS798  CYS799  TRP800  GLU811  SER814 

> <Gold.Protein.RotatedAtoms>
  151.1891  133.4678  159.2594 H   0  0  0  0  0  0  0  0  0  0  0  0  # atno 6907 bound_to 6896
  151.1181  135.0064  159.8536 H   0  0  0  0  0  0  0  0  0  0  0  0  # atno 6908 bound_to 6896
  152.5454  134.1805  159.8686 H   0  0  0  0  0  0  0  0  0  0  0  0  # atno 6909 bound_to 6896
  144.7626  139.8072  143.6327 H   0  0  0  0  0  0  0  0  0  0  0  0  # atno 7974 bound_to 7965
  154.6665  140.2602  155.7053 H   0  0  0  0  0  0  0  0  0  0  0  0  # atno 8008 bound_to 7997
  156.2641  140.2838  156.1079 H   0  0  0  0  0  0  0  0  0  0  0  0  # atno 8009 bound_to 7997
  155.1231  140.0377  157.2745 H   0  0  0  0  0  0  0  0  0  0  0  0  # atno 8010 bound_to 7997
  140.4784  144.0654  150.6257 H   0  0  0  0  0  0  0  0  0  0  0  0  # atno 10167 bound_to 10162
  157.5422  130.8705  149.8839 H   0  0  0  0  0  0  0  0  0  0  0  0  # atno 10718 bound_to 10713
  153.2026  135.4416  155.0285 H   0  0  0  0  0  0  0  0  0  0  0  0  # atno 10763 bound_to 10752
  154.8155  135.3313  154.7189 H   0  0  0  0  0  0  0  0  0  0  0  0  # atno 10764 bound_to 10752
  153.7633  135.6990  153.4976 H   0  0  0  0  0  0  0  0  0  0  0  0  # atno 10765 bound_to 10752
  139.9239  134.9639  156.8006 H   0  0  0  0  0  0  0  0  0  0  0  0  # atno 11005 bound_to 11000
  146.1704  139.4852  142.9931 LP  0  0  0  0  0  0  0  0  0  0  0  0  # atno 17320 bound_to 7965
  145.6571  141.0249  143.1729 LP  0  0  0  0  0  0  0  0  0  0  0  0  # atno 17321 bound_to 7965
  140.3889  143.2763  152.0083 LP  0  0  0  0  0  0  0  0  0  0  0  0  # atno 17342 bound_to 10162
  139.4829  144.6093  151.7462 LP  0  0  0  0  0  0  0  0  0  0  0  0  # atno 17343 bound_to 10162
  156.0506  130.3718  150.1210 LP  0  0  0  0  0  0  0  0  0  0  0  0  # atno 17370 bound_to 10713
  156.9389  130.9738  151.3520 LP  0  0  0  0  0  0  0  0  0  0  0  0  # atno 17371 bound_to 10713
  140.6392  133.9834  155.7699 LP  0  0  0  0  0  0  0  0  0  0  0  0  # atno 17394 bound_to 11000
  141.0782  134.0102  157.3426 LP  0  0  0  0  0  0  0  0  0  0  0  0  # atno 17395 bound_to 11000

$$$$
