AV-unprocessed.smi:1867|AV-procd|sdf|7561|dock2
  -GOLD-   22720 9273D 1   1.00000     0.00000
 Structure written by MMmdl.
 52 55  0  0  0  0  0  0  0  0  2 V2000
  147.6208  140.0278  155.0908 O   0  0  0  0  0  0  0  0  0  0  0  0
  148.3826  139.1836  154.6262 C   0  0  0  0  0  0  0  0  0  0  0  0
  149.6451  138.9734  155.0471 N   0  0  0  0  0  0  0  0  0  0  0  0
  150.3838  139.6875  156.0278 C   0  0  0  0  0  0  0  0  0  0  0  0
  149.6907  140.6084  156.8365 C   0  0  0  0  0  0  0  0  0  0  0  0
  150.3915  141.3174  157.8300 C   0  0  0  0  0  0  0  0  0  0  0  0
  151.7767  141.0813  157.9941 C   0  0  0  0  0  0  0  0  0  0  0  0
  152.5173  141.7690  158.9761 N   0  0  0  0  0  0  0  0  0  0  0  0
  153.6122  141.1280  159.6920 C   0  0  0  0  0  0  0  0  0  0  0  0
  153.7043  141.8477  161.0427 C   0  0  0  0  0  0  0  0  0  0  0  0
  152.9935  143.1805  160.8075 C   0  0  0  0  0  0  0  0  0  0  0  0
  151.9200  142.8232  159.7814 C   0  0  0  0  0  0  0  0  0  0  0  0
  152.4394  140.1790  157.2321 N   0  0  0  0  0  0  0  0  0  0  0  0
  151.7640  139.5034  156.2790 C   0  0  0  0  0  0  0  0  0  0  0  0
  147.9881  138.3682  153.6309 N   0  0  0  0  0  0  0  0  0  0  0  0
  146.6941  138.3215  152.9426 C   0  0  1  0  0  0  0  0  0  0  0  0
  146.7908  138.7604  151.4685 C   0  0  0  0  0  0  0  0  0  0  0  0
  145.8744  137.7930  150.7135 C   0  0  0  0  0  0  0  0  0  0  0  0
  146.0185  136.5469  151.4739 N   0  3  2  0  0  0  0  0  0  0  0  0
  145.0921  135.4330  151.1870 C   0  0  0  0  0  0  0  0  0  0  0  0
  145.5679  134.1901  151.9692 C   0  0  0  0  0  0  0  0  0  0  0  0
  145.7677  134.4862  153.4730 C   0  0  0  0  0  0  0  0  0  0  0  0
  146.6397  135.7400  153.7018 C   0  0  0  0  0  0  0  0  0  0  0  0
  146.0480  136.9142  152.9005 C   0  0  1  0  0  0  0  0  0  0  0  0
  150.1221  138.1824  154.6405 H   0  0  0  0  0  0  0  0  0  0  0  0
  148.6319  140.7742  156.6991 H   0  0  0  0  0  0  0  0  0  0  0  0
  149.8600  142.0216  158.4527 H   0  0  0  0  0  0  0  0  0  0  0  0
  153.4425  140.0600  159.8329 H   0  0  0  0  0  0  0  0  0  0  0  0
  154.5317  141.2578  159.1206 H   0  0  0  0  0  0  0  0  0  0  0  0
  153.1637  141.2755  161.7974 H   0  0  0  0  0  0  0  0  0  0  0  0
  154.7316  141.9685  161.3876 H   0  0  0  0  0  0  0  0  0  0  0  0
  152.5817  143.6135  161.7194 H   0  0  0  0  0  0  0  0  0  0  0  0
  153.6922  143.8991  160.3768 H   0  0  0  0  0  0  0  0  0  0  0  0
  151.6391  143.6845  159.1744 H   0  0  0  0  0  0  0  0  0  0  0  0
  151.0260  142.4419  160.2767 H   0  0  0  0  0  0  0  0  0  0  0  0
  152.3562  138.7879  155.7307 H   0  0  0  0  0  0  0  0  0  0  0  0
  148.6773  137.7051  153.3068 H   0  0  0  0  0  0  0  0  0  0  0  0
  145.9992  139.0050  153.4338 H   0  0  0  0  0  0  0  0  0  0  0  0
  146.5082  139.8032  151.3201 H   0  0  0  0  0  0  0  0  0  0  0  0
  147.8130  138.6424  151.1042 H   0  0  0  0  0  0  0  0  0  0  0  0
  144.8383  138.1335  150.7533 H   0  0  0  0  0  0  0  0  0  0  0  0
  146.1602  137.6700  149.6684 H   0  0  0  0  0  0  0  0  0  0  0  0
  144.0745  135.7066  151.4701 H   0  0  0  0  0  0  0  0  0  0  0  0
  145.0865  135.2239  150.1167 H   0  0  0  0  0  0  0  0  0  0  0  0
  144.8580  133.3727  151.8398 H   0  0  0  0  0  0  0  0  0  0  0  0
  146.5124  133.8438  151.5476 H   0  0  0  0  0  0  0  0  0  0  0  0
  144.7935  134.6368  153.9402 H   0  0  0  0  0  0  0  0  0  0  0  0
  146.2143  133.6235  153.9685 H   0  0  0  0  0  0  0  0  0  0  0  0
  146.6685  135.9736  154.7661 H   0  0  0  0  0  0  0  0  0  0  0  0
  147.6666  135.5445  153.3900 H   0  0  0  0  0  0  0  0  0  0  0  0
  145.0132  137.0471  153.2242 H   0  0  0  0  0  0  0  0  0  0  0  0
  146.9452  136.2087  151.2566 H   0  0  0  0  0  0  0  0  0  0  0  0
  1  2  2  0  0  0  0
  2  3  1  0  0  0  0
  2 15  1  0  0  0  0
  3  4  1  0  0  0  0
  3 25  1  0  0  0  0
  4 14  1  0  0  0  0
  4  5  2  0  0  0  0
  5  6  1  0  0  0  0
  5 26  1  0  0  0  0
  6  7  2  0  0  0  0
  6 27  1  0  0  0  0
  7  8  1  0  0  0  0
  7 13  1  0  0  0  0
  8 12  1  0  0  0  0
  8  9  1  0  0  0  0
  9 10  1  0  0  0  0
  9 28  1  0  0  0  0
  9 29  1  0  0  0  0
 10 11  1  0  0  0  0
 10 30  1  0  0  0  0
 10 31  1  0  0  0  0
 11 12  1  0  0  0  0
 11 32  1  0  0  0  0
 11 33  1  0  0  0  0
 12 34  1  0  0  0  0
 12 35  1  0  0  0  0
 13 14  2  0  0  0  0
 14 36  1  0  0  0  0
 15 16  1  0  0  0  0
 15 37  1  0  0  0  0
 16 24  1  0  0  0  0
 16 17  1  0  0  0  0
 16 38  1  0  0  0  0
 17 18  1  0  0  0  0
 17 39  1  0  0  0  0
 17 40  1  0  0  0  0
 18 19  1  0  0  0  0
 18 41  1  0  0  0  0
 18 42  1  0  0  0  0
 19 24  1  0  0  0  0
 19 20  1  0  0  0  0
 19 52  1  0  0  0  0
 20 21  1  0  0  0  0
 20 43  1  0  0  0  0
 20 44  1  0  0  0  0
 21 22  1  0  0  0  0
 21 45  1  0  0  0  0
 21 46  1  0  0  0  0
 22 23  1  0  0  0  0
 22 47  1  0  0  0  0
 22 48  1  0  0  0  0
 23 24  1  0  0  0  0
 23 49  1  0  0  0  0
 23 50  1  0  0  0  0
 24 51  1  0  0  0  0
M  CHG  1  19   1
M  END
> <s_m_source_file>
AV-unprocessed.smi

> <i_m_source_file_index>
1867

> <i_lp_mmshare_version>
43012

> <i_f3d_flags>
0

> <s_epik_input>
W0NIMl0xW0NIMl1bQ0gyXVtDSDJdW0NASF0oTjEyKVtDQEBIXShbQ0gyXVtDSDJdMilbTkhdQyg9TylbTkhdYzNbY0hdW2NIXWMobltjSF0zKU40W0NIMl1bQ0gyXVtDSDJdW0NIMl00

> <s_epik_cmdline>
J2VwaWtfcHl0aG9uJywgJy1waCcsICc3LjAnLCAnLXRuJywgJzgnLCAnLW1hJywgJzIwMCcsICctbWV0YWxfYmluZGluZycsICctaW1hZScsICc8aW5maWxlLm1hZT4nLCAnLW9tYWUnLCAnPG91dGZpbGUubWFlPic=

> <r_lp_tautomer_probability>
1

> <r_epik_Ionization_Penalty>
0.0751123

> <r_epik_Ionization_Penalty_Charging>
0.000974069

> <r_epik_Ionization_Penalty_Neutral>
0.0741382

> <r_epik_State_Penalty>
0.0647261

> <r_epik_Charging_Adjusted_Penalty>
0.0657002

> <i_epik_Tot_Q>
1

> <i_epik_Tot_abs_Q>
1

> <r_epik_Metal_State_Penalty>
0.0580571

> <b_epik_Metal_Only>
0

> <s_lp_Force_Field>
OPLS_2005

> <r_lp_Energy>
77.0679

> <b_lp_Chiralities_Consistent>
1

> <s_lp_Variant>
AV-unprocessed.smi:1867-2

> <Gold.Version>
5.8.1

> <Gold.Id.Protein>
6NUR|6NUR_protein|mol2

> <Gold.PLP.Fitness>
47.7523

> <Gold.PLP.PLP>
-37.5117

> <Gold.PLP.part.hbond>
-3.1852

> <Gold.PLP.part.metal>
0.0000

> <Gold.PLP.part.buried>
7.2831

> <Gold.PLP.part.nonpolar>
-41.4021

> <Gold.PLP.part.repulsive>
0.2000

> <Gold.PLP.ligand.clash>
0.0000

> <Gold.PLP.ligand.torsion>
0.3297

> <Gold.PLP.Chemscore.Hbond>
3.5652

> <Gold.PLP.Chemscore.CHOScore>
0.0000

> <Gold.PLP.Chemscore.Metal>
0.0000

> <Gold.Chemscore.Hbonds>
donor molecule, donor type, donor heavy atom, donor atom, acceptor molecule, acceptor atom, score
      L1  H    15    37       P1  7948  0.76
      L1  H    19    52       P1  7948  1.72
      P1  H  7997  8009       L1    13  1.00

> <Gold.PLP.Chemscore.Internal.Correction>
0.2046

> <Gold.Rescore>
     Score         DG    S(hbond)    S(metal)    S(lipo)     H(rot)  DE(clash)    DE(int)     intcor
     19.04     -22.97       2.18        0.00     109.19       1.00       2.28       1.66       ----

> <Gold.Chemscore.Fitness>
19.0377

> <Gold.Chemscore.DG>
-22.9715

> <Gold.Chemscore.ZeroCoef>
-5.4800

> <Gold.Chemscore.Hbond>
2.1785

> <Gold.Chemscore.Metal>
0.0000

> <Gold.Chemscore.Lipo>
109.1921

> <Gold.Chemscore.Internal_Hbond>
0.0000

> <Gold.Chemscore.DEClash>
2.2773

> <Gold.Chemscore.DEInternal>
1.6566

> <Gold.Chemscore.Rot>
1.0000

> <Gold.Chemscore.Internal.Correction>
   9.000000E+99

> <Gold.Chemscore.Hbonds>
donor molecule, donor type, donor heavy atom, donor atom, acceptor molecule, acceptor atom, score
      L1  H    15    37       P1  7948  0.72
      L1  H    19    52       P1  7948  0.81
      P1  H  7997  8009       L1    13  0.46

> <Gold.Chemscore.Hbond.Weighted>
-7.2761

> <Gold.Chemscore.Metal.Weighted>
-0.0000

> <Gold.Chemscore.Lipo.Weighted>
-12.7755

> <Gold.Chemscore.Internal_Hbond.Weighted>
0.0000

> <Gold.Chemscore.DEClash.Weighted>
2.2773

> <Gold.Chemscore.DEInternal.Weighted>
1.6566

> <Gold.Chemscore.Rot.Weighted>
2.5600

> <Gold.Chemscore.Internal.Correction.Weighted>
   9.000000E+99

> <Gold.Protein.RotatedTorsions>
[ 6907 6896 6895 6894 ] final  -49.07 input  -60.11 | X-H torsion
[ 7974 7965 7964 7962 ] final  -11.92 input  175.53 | X-H torsion
[ 8008 7997 7996 7995 ] final -179.34 input   59.86 | X-H torsion
[ 10167 10162 10161 10158 ] final   20.00 input  -65.29 | X-H torsion
[ 10718 10713 10712 10709 ] final -133.11 input   66.30 | X-H torsion
[ 10763 10752 10751 10750 ] final   25.32 input  -60.55 | X-H torsion
[ 11005 11000 10999 10996 ] final  -85.55 input  -57.11 | X-H torsion

> <Gold.Protein.ActiveResidues>
 VAL166  LYS551  ARG553  GLY616  TRP617  ASP618  TYR619  PRO620  LYS621  CYS622 
 ASP623  PHE694  ASN695  SER759  ASP760  ASP761  ALA762  ILE779  LEU786  VAL792 
 PHE793  MET794  SER795  GLU796  ALA797  LYS798  CYS799  TRP800  GLU811  SER814 

> <Gold.Protein.RotatedAtoms>
  150.8841  134.8237  159.7246 H   0  0  0  0  0  0  0  0  0  0  0  0  # atno 6907 bound_to 6896
  152.4797  134.4749  159.9657 H   0  0  0  0  0  0  0  0  0  0  0  0  # atno 6908 bound_to 6896
  151.4820  133.3505  159.2875 H   0  0  0  0  0  0  0  0  0  0  0  0  # atno 6909 bound_to 6896
  146.2170  140.2982  142.8373 H   0  0  0  0  0  0  0  0  0  0  0  0  # atno 7974 bound_to 7965
  156.0294  140.1278  157.0274 H   0  0  0  0  0  0  0  0  0  0  0  0  # atno 8008 bound_to 7997
  154.4343  140.1052  156.6148 H   0  0  0  0  0  0  0  0  0  0  0  0  # atno 8009 bound_to 7997
  155.5829  140.3468  155.4547 H   0  0  0  0  0  0  0  0  0  0  0  0  # atno 8010 bound_to 7997
  140.5537  143.9463  150.6595 H   0  0  0  0  0  0  0  0  0  0  0  0  # atno 10167 bound_to 10162
  156.2415  130.7098  151.0962 H   0  0  0  0  0  0  0  0  0  0  0  0  # atno 10718 bound_to 10713
  153.0700  135.6585  154.0269 H   0  0  0  0  0  0  0  0  0  0  0  0  # atno 10763 bound_to 10752
  153.9916  135.2945  155.3413 H   0  0  0  0  0  0  0  0  0  0  0  0  # atno 10764 bound_to 10752
  154.7071  135.5220  153.8681 H   0  0  0  0  0  0  0  0  0  0  0  0  # atno 10765 bound_to 10752
  141.1640  133.7406  156.9032 H   0  0  0  0  0  0  0  0  0  0  0  0  # atno 11005 bound_to 11000
  144.9077  140.7719  143.5827 LP  0  0  0  0  0  0  0  0  0  0  0  0  # atno 17320 bound_to 7965
  145.2911  139.1883  143.4740 LP  0  0  0  0  0  0  0  0  0  0  0  0  # atno 17321 bound_to 7965
  140.2896  143.3333  152.1075 LP  0  0  0  0  0  0  0  0  0  0  0  0  # atno 17342 bound_to 10162
  139.5038  144.6763  151.6119 LP  0  0  0  0  0  0  0  0  0  0  0  0  # atno 17343 bound_to 10162
  157.7177  131.0700  150.6261 LP  0  0  0  0  0  0  0  0  0  0  0  0  # atno 17370 bound_to 10713
  156.6335  130.4438  149.5778 LP  0  0  0  0  0  0  0  0  0  0  0  0  # atno 17371 bound_to 10713
  140.1568  134.9193  157.2664 LP  0  0  0  0  0  0  0  0  0  0  0  0  # atno 17394 bound_to 11000
  140.2658  134.3518  155.7390 LP  0  0  0  0  0  0  0  0  0  0  0  0  # atno 17395 bound_to 11000

$$$$
