AV-unprocessed.smi:1196|AV-procd|sdf|5007|dock10
  -GOLD-   22720 4 23D 1   1.00000     0.00000
 Structure written by MMmdl.
 36 37  0  0  0  0  0  0  0  0  2 V2000
  145.1380  134.6513  153.8599 C   0  0  0  0  0  0  0  0  0  0  0  0
  145.7477  134.8962  152.4704 C   0  0  1  0  0  0  0  0  0  0  0  0
  144.6816  134.7903  151.3624 C   0  0  0  0  0  0  0  0  0  0  0  0
  144.9027  133.6524  150.4870 N   0  0  0  0  0  0  0  0  0  0  0  0
  144.0922  133.1818  149.4756 C   0  0  0  0  0  0  0  0  0  0  0  0
  144.7078  132.0885  148.9369 C   0  0  0  0  0  0  0  0  0  0  0  0
  145.9049  131.9665  149.6963 C   0  0  0  0  0  0  0  0  0  0  0  0
  146.0199  132.9048  150.6221 N   0  0  0  0  0  0  0  0  0  0  0  0
  146.3851  136.2105  152.4315 N   0  0  0  0  0  0  0  0  0  0  0  0
  145.7490  137.3892  152.5085 C   0  0  0  0  0  0  0  0  0  0  0  0
  144.5267  137.4931  152.6131 O   0  0  0  0  0  0  0  0  0  0  0  0
  146.6295  138.6401  152.4692 C   0  0  0  0  0  0  0  0  0  0  0  0
  147.0668  139.0918  153.8750 C   0  0  0  0  0  0  0  0  0  0  0  0
  148.3713  138.4188  154.3454 C   0  0  1  0  0  0  0  0  0  0  0  0
  149.5316  139.1801  153.9348 N   0  0  0  0  0  0  0  0  0  0  0  0
  150.2677  139.5469  154.9818 C   0  0  0  0  0  0  0  0  0  0  0  0
  151.3085  140.1867  154.8481 O   0  0  0  0  0  0  0  0  0  0  0  0
  149.6953  139.1201  156.1239 N   0  5  0  0  0  0  0  0  0  0  0  0
  148.5563  138.4429  155.8625 C   0  0  0  0  0  0  0  0  0  0  0  0
  147.7582  137.9044  156.6276 O   0  0  0  0  0  0  0  0  0  0  0  0
  144.6719  133.6672  153.9151 H   0  0  0  0  0  0  0  0  0  0  0  0
  144.3760  135.3949  154.0953 H   0  0  0  0  0  0  0  0  0  0  0  0
  145.8989  134.6961  154.6397 H   0  0  0  0  0  0  0  0  0  0  0  0
  146.5002  134.1262  152.2895 H   0  0  0  0  0  0  0  0  0  0  0  0
  143.6918  134.6793  151.8072 H   0  0  0  0  0  0  0  0  0  0  0  0
  144.6512  135.7026  150.7640 H   0  0  0  0  0  0  0  0  0  0  0  0
  143.1552  133.6582  149.2275 H   0  0  0  0  0  0  0  0  0  0  0  0
  144.3560  131.4695  148.1250 H   0  0  0  0  0  0  0  0  0  0  0  0
  146.6889  131.2297  149.6024 H   0  0  0  0  0  0  0  0  0  0  0  0
  147.3922  136.2234  152.3568 H   0  0  0  0  0  0  0  0  0  0  0  0
  147.5068  138.4224  151.8595 H   0  0  0  0  0  0  0  0  0  0  0  0
  146.0947  139.4478  151.9670 H   0  0  0  0  0  0  0  0  0  0  0  0
  147.1795  140.1774  153.8971 H   0  0  0  0  0  0  0  0  0  0  0  0
  146.2747  138.8554  154.5873 H   0  0  0  0  0  0  0  0  0  0  0  0
  148.4445  137.3931  153.9820 H   0  0  0  0  0  0  0  0  0  0  0  0
  149.7558  139.3807  152.9717 H   0  0  0  0  0  0  0  0  0  0  0  0
  1  2  1  0  0  0  0
  1 21  1  0  0  0  0
  1 22  1  0  0  0  0
  1 23  1  0  0  0  0
  2  3  1  0  0  0  0
  2  9  1  0  0  0  0
  2 24  1  0  0  0  0
  3  4  1  0  0  0  0
  3 25  1  0  0  0  0
  3 26  1  0  0  0  0
  4  8  1  0  0  0  0
  4  5  1  0  0  0  0
  5  6  2  0  0  0  0
  5 27  1  0  0  0  0
  6  7  1  0  0  0  0
  6 28  1  0  0  0  0
  7  8  2  0  0  0  0
  7 29  1  0  0  0  0
  9 10  1  0  0  0  0
  9 30  1  0  0  0  0
 10 11  2  0  0  0  0
 10 12  1  0  0  0  0
 12 13  1  0  0  0  0
 12 31  1  0  0  0  0
 12 32  1  0  0  0  0
 13 14  1  0  0  0  0
 13 33  1  0  0  0  0
 13 34  1  0  0  0  0
 14 19  1  0  0  0  0
 14 15  1  0  0  0  0
 14 35  1  0  0  0  0
 15 16  1  0  0  0  0
 15 36  1  0  0  0  0
 16 17  2  0  0  0  0
 16 18  1  0  0  0  0
 18 19  1  0  0  0  0
 19 20  2  0  0  0  0
M  CHG  1  18  -1
M  END
> <s_m_source_file>
AV-unprocessed.smi

> <i_m_source_file_index>
1196

> <i_lp_mmshare_version>
43012

> <i_f3d_flags>
0

> <s_epik_input>
bjFbY0hdW2NIXVtjSF1uMVtDSDJdW0NAQEhdKFtDSDNdKVtOSF1DKD1PKVtDSDJdW0NIMl1bQ0BASF0yW05IXUMoPU8pW05IXUMyPU8=

> <s_epik_cmdline>
J2VwaWtfcHl0aG9uJywgJy1waCcsICc3LjAnLCAnLXRuJywgJzgnLCAnLW1hJywgJzIwMCcsICctbWV0YWxfYmluZGluZycsICctaW1hZScsICc8aW5maWxlLm1hZT4nLCAnLW9tYWUnLCAnPG91dGZpbGUubWFlPic=

> <r_lp_tautomer_probability>
1

> <r_epik_Ionization_Penalty>
2.57056

> <r_epik_Ionization_Penalty_Charging>
2.57023

> <r_epik_Ionization_Penalty_Neutral>
0.000331301

> <r_epik_State_Penalty>
2.56828

> <r_epik_Charging_Adjusted_Penalty>
5.13851

> <i_epik_Tot_Q>
-1

> <i_epik_Tot_abs_Q>
1

> <r_epik_Metal_State_Penalty>
0.444883

> <b_epik_Metal_Only>
1

> <s_lp_Force_Field>
OPLS_2005

> <r_lp_Energy>
6.594

> <b_lp_Chiralities_Consistent>
1

> <s_lp_Variant>
AV-unprocessed.smi:1196-12

> <Gold.Version>
5.8.1

> <Gold.Id.Protein>
6NUR|6NUR_protein|mol2

> <Gold.PLP.Fitness>
40.2834

> <Gold.PLP.PLP>
-28.4679

> <Gold.PLP.part.hbond>
-2.8896

> <Gold.PLP.part.metal>
0.0000

> <Gold.PLP.part.buried>
-4.2908

> <Gold.PLP.part.nonpolar>
-23.5049

> <Gold.PLP.part.repulsive>
1.3646

> <Gold.PLP.ligand.clash>
0.0000

> <Gold.PLP.ligand.torsion>
1.6247

> <Gold.PLP.Chemscore.Hbond>
3.0000

> <Gold.PLP.Chemscore.CHOScore>
2.0000

> <Gold.PLP.Chemscore.Metal>
0.0000

> <Gold.Chemscore.Hbonds>
donor molecule, donor type, donor heavy atom, donor atom, acceptor molecule, acceptor atom, score
      L1  H     9    30       P1  7948  1.00
      L1  H    15    36       P1  7957  1.00
      P1  H  7989  7998       L1    17  1.00
      L1  C     5    27       P1 10186  1.00
      L1  C     7    29       P1 10747  1.00

> <Gold.PLP.Chemscore.Internal.Correction>
0.0649

> <Gold.Rescore>
     Score         DG    S(hbond)    S(metal)    S(lipo)     H(rot)  DE(clash)    DE(int)     intcor
     12.51     -15.22       2.98        0.00      61.52       2.89       0.09       2.62       ----

> <Gold.Chemscore.Fitness>
12.5091

> <Gold.Chemscore.DG>
-15.2161

> <Gold.Chemscore.ZeroCoef>
-5.4800

> <Gold.Chemscore.Hbond>
2.9787

> <Gold.Chemscore.Metal>
0.0000

> <Gold.Chemscore.Lipo>
61.5153

> <Gold.Chemscore.Internal_Hbond>
0.0000

> <Gold.Chemscore.DEClash>
0.0851

> <Gold.Chemscore.DEInternal>
2.6219

> <Gold.Chemscore.Rot>
2.8946

> <Gold.Chemscore.Internal.Correction>
   9.000000E+99

> <Gold.Chemscore.Hbonds>
donor molecule, donor type, donor heavy atom, donor atom, acceptor molecule, acceptor atom, score
      L1  H     9    30       P1  7948  0.99
      L1  H    15    36       P1  7957  0.99
      P1  H  7989  7998       L1    17  0.92

> <Gold.Chemscore.Hbond.Weighted>
-9.9489

> <Gold.Chemscore.Metal.Weighted>
-0.0000

> <Gold.Chemscore.Lipo.Weighted>
-7.1973

> <Gold.Chemscore.Internal_Hbond.Weighted>
0.0000

> <Gold.Chemscore.DEClash.Weighted>
0.0851

> <Gold.Chemscore.DEInternal.Weighted>
2.6219

> <Gold.Chemscore.Rot.Weighted>
7.4101

> <Gold.Chemscore.Internal.Correction.Weighted>
   9.000000E+99

> <Gold.Protein.RotatedTorsions>
[ 6907 6896 6895 6894 ] final -126.45 input  -60.11 | X-H torsion
[ 7974 7965 7964 7962 ] final -154.37 input  175.53 | X-H torsion
[ 8008 7997 7996 7995 ] final   76.89 input   59.86 | X-H torsion
[ 10167 10162 10161 10158 ] final -122.83 input  -65.29 | X-H torsion
[ 10718 10713 10712 10709 ] final    4.02 input   66.30 | X-H torsion
[ 10763 10752 10751 10750 ] final  -25.06 input  -60.55 | X-H torsion
[ 11005 11000 10999 10996 ] final   35.68 input  -57.11 | X-H torsion

> <Gold.Protein.ActiveResidues>
 VAL166  LYS551  ARG553  GLY616  TRP617  ASP618  TYR619  PRO620  LYS621  CYS622 
 ASP623  PHE694  ASN695  SER759  ASP760  ASP761  ALA762  ILE779  LEU786  VAL792 
 PHE793  MET794  SER795  GLU796  ALA797  LYS798  CYS799  TRP800  GLU811  SER814 

> <Gold.Protein.RotatedAtoms>
  150.8970  133.7168  159.2888 H   0  0  0  0  0  0  0  0  0  0  0  0  # atno 6907 bound_to 6896
  151.4699  135.1043  159.9758 H   0  0  0  0  0  0  0  0  0  0  0  0  # atno 6908 bound_to 6896
  152.4854  133.8313  159.7160 H   0  0  0  0  0  0  0  0  0  0  0  0  # atno 6909 bound_to 6896
  144.7693  140.4397  143.5919 H   0  0  0  0  0  0  0  0  0  0  0  0  # atno 7974 bound_to 7965
  155.8338  140.3465  155.5589 H   0  0  0  0  0  0  0  0  0  0  0  0  # atno 8008 bound_to 7997
  155.8213  140.0913  157.1867 H   0  0  0  0  0  0  0  0  0  0  0  0  # atno 8009 bound_to 7997
  154.4004  140.1429  156.3491 H   0  0  0  0  0  0  0  0  0  0  0  0  # atno 8010 bound_to 7997
  140.0100  143.5451  152.2267 H   0  0  0  0  0  0  0  0  0  0  0  0  # atno 10167 bound_to 10162
  156.8865  130.5672  149.5651 H   0  0  0  0  0  0  0  0  0  0  0  0  # atno 10718 bound_to 10713
  153.6937  135.6960  153.5082 H   0  0  0  0  0  0  0  0  0  0  0  0  # atno 10763 bound_to 10752
  153.2394  135.4311  155.0680 H   0  0  0  0  0  0  0  0  0  0  0  0  # atno 10764 bound_to 10752
  154.8365  135.3504  154.6478 H   0  0  0  0  0  0  0  0  0  0  0  0  # atno 10765 bound_to 10752
  140.2402  134.3424  155.7929 H   0  0  0  0  0  0  0  0  0  0  0  0  # atno 11005 bound_to 11000
  145.6373  139.1545  143.2935 LP  0  0  0  0  0  0  0  0  0  0  0  0  # atno 17320 bound_to 7965
  146.1826  140.6473  142.9182 LP  0  0  0  0  0  0  0  0  0  0  0  0  # atno 17321 bound_to 7965
  139.6212  144.7629  151.2737 LP  0  0  0  0  0  0  0  0  0  0  0  0  # atno 17342 bound_to 10162
  140.7385  143.6646  150.8134 LP  0  0  0  0  0  0  0  0  0  0  0  0  # atno 17343 bound_to 10162
  156.0650  130.5695  150.9271 LP  0  0  0  0  0  0  0  0  0  0  0  0  # atno 17370 bound_to 10713
  157.6109  131.0936  150.8796 LP  0  0  0  0  0  0  0  0  0  0  0  0  # atno 17371 bound_to 10713
  141.2211  133.7294  156.8872 LP  0  0  0  0  0  0  0  0  0  0  0  0  # atno 17394 bound_to 11000
  140.1661  134.9132  157.2776 LP  0  0  0  0  0  0  0  0  0  0  0  0  # atno 17395 bound_to 11000

$$$$
