AV-unprocessed.smi:1196|AV-procd|sdf|4997|dock1
  -GOLD-   22720 4 03D 1   1.00000     0.00000
 Structure written by MMmdl.
 37 38  0  0  0  0  0  0  0  0  1 V2000
  149.7571  142.1728  155.3728 C   0  0  0  0  0  0  0  0  0  0  0  0
  150.8488  141.2422  155.9242 C   0  0  1  0  0  0  0  0  0  0  0  0
  150.8484  141.2256  157.4651 C   0  0  0  0  0  0  0  0  0  0  0  0
  151.4965  142.3961  158.0304 N   0  0  0  0  0  0  0  0  0  0  0  0
  151.2710  143.7240  157.7352 C   0  0  0  0  0  0  0  0  0  0  0  0
  152.1198  144.4620  158.5093 C   0  0  0  0  0  0  0  0  0  0  0  0
  152.8344  143.4832  159.2552 C   0  0  0  0  0  0  0  0  0  0  0  0
  152.4598  142.2472  158.9660 N   0  0  0  0  0  0  0  0  0  0  0  0
  150.6586  139.8879  155.4092 N   0  0  0  0  0  0  0  0  0  0  0  0
  151.6353  139.0031  155.1586 C   0  0  0  0  0  0  0  0  0  0  0  0
  152.8307  139.2510  155.3180 O   0  0  0  0  0  0  0  0  0  0  0  0
  151.1887  137.6266  154.6605 C   0  0  0  0  0  0  0  0  0  0  0  0
  150.6643  136.7257  155.7944 C   0  0  0  0  0  0  0  0  0  0  0  0
  150.2130  135.3382  155.2992 C   0  0  2  0  0  0  0  0  0  0  0  0
  149.1031  135.4079  154.3639 N   0  0  0  0  0  0  0  0  0  0  0  0
  148.0235  134.7445  154.7998 C   0  0  0  0  0  0  0  0  0  0  0  0
  146.9525  134.6399  154.2068 O   0  0  0  0  0  0  0  0  0  0  0  0
  148.3169  134.2177  155.9935 N   0  0  0  0  0  0  0  0  0  0  0  0
  149.5555  134.5084  156.3873 C   0  0  0  0  0  0  0  0  0  0  0  0
  150.0945  134.1764  157.4412 O   0  0  0  0  0  0  0  0  0  0  0  0
  149.8899  143.1914  155.7383 H   0  0  0  0  0  0  0  0  0  0  0  0
  148.7628  141.8391  155.6715 H   0  0  0  0  0  0  0  0  0  0  0  0
  149.7825  142.2116  154.2833 H   0  0  0  0  0  0  0  0  0  0  0  0
  151.8175  141.6201  155.5914 H   0  0  0  0  0  0  0  0  0  0  0  0
  149.8237  141.2008  157.8378 H   0  0  0  0  0  0  0  0  0  0  0  0
  151.3375  140.3261  157.8434 H   0  0  0  0  0  0  0  0  0  0  0  0
  150.5353  144.0289  157.0055 H   0  0  0  0  0  0  0  0  0  0  0  0
  152.2163  145.5372  158.5381 H   0  0  0  0  0  0  0  0  0  0  0  0
  153.6092  143.6330  159.9927 H   0  0  0  0  0  0  0  0  0  0  0  0
  149.7049  139.5927  155.2573 H   0  0  0  0  0  0  0  0  0  0  0  0
  150.4153  137.7742  153.9063 H   0  0  0  0  0  0  0  0  0  0  0  0
  152.0232  137.1330  154.1597 H   0  0  0  0  0  0  0  0  0  0  0  0
  151.4506  136.5966  156.5405 H   0  0  0  0  0  0  0  0  0  0  0  0
  149.8375  137.2210  156.3075 H   0  0  0  0  0  0  0  0  0  0  0  0
  151.0415  134.7833  154.8573 H   0  0  0  0  0  0  0  0  0  0  0  0
  149.1545  135.9023  153.4851 H   0  0  0  0  0  0  0  0  0  0  0  0
  147.6684  133.6697  156.5398 H   0  0  0  0  0  0  0  0  0  0  0  0
  1  2  1  0  0  0  0
  1 21  1  0  0  0  0
  1 22  1  0  0  0  0
  1 23  1  0  0  0  0
  2  3  1  0  0  0  0
  2  9  1  0  0  0  0
  2 24  1  0  0  0  0
  3  4  1  0  0  0  0
  3 25  1  0  0  0  0
  3 26  1  0  0  0  0
  4  8  1  0  0  0  0
  4  5  1  0  0  0  0
  5  6  2  0  0  0  0
  5 27  1  0  0  0  0
  6  7  1  0  0  0  0
  6 28  1  0  0  0  0
  7  8  2  0  0  0  0
  7 29  1  0  0  0  0
  9 10  1  0  0  0  0
  9 30  1  0  0  0  0
 10 11  2  0  0  0  0
 10 12  1  0  0  0  0
 12 13  1  0  0  0  0
 12 31  1  0  0  0  0
 12 32  1  0  0  0  0
 13 14  1  0  0  0  0
 13 33  1  0  0  0  0
 13 34  1  0  0  0  0
 14 19  1  0  0  0  0
 14 15  1  0  0  0  0
 14 35  1  0  0  0  0
 15 16  1  0  0  0  0
 15 36  1  0  0  0  0
 16 17  2  0  0  0  0
 16 18  1  0  0  0  0
 18 19  1  0  0  0  0
 18 37  1  0  0  0  0
 19 20  2  0  0  0  0
M  END
> <s_m_source_file>
AV-unprocessed.smi

> <i_m_source_file_index>
1196

> <i_lp_mmshare_version>
43012

> <i_f3d_flags>
0

> <s_epik_input>
bjFbY0hdW2NIXVtjSF1uMVtDSDJdW0NAQEhdKFtDSDNdKVtOSF1DKD1PKVtDSDJdW0NIMl1bQ0BASF0yW05IXUMoPU8pW05IXUMyPU8=

> <s_epik_cmdline>
J2VwaWtfcHl0aG9uJywgJy1waCcsICc3LjAnLCAnLXRuJywgJzgnLCAnLW1hJywgJzIwMCcsICctbWV0YWxfYmluZGluZycsICctaW1hZScsICc8aW5maWxlLm1hZT4nLCAnLW9tYWUnLCAnPG91dGZpbGUubWFlPic=

> <r_lp_tautomer_probability>
1

> <r_epik_Ionization_Penalty>
0.00815973

> <r_epik_Ionization_Penalty_Charging>
0

> <r_epik_Ionization_Penalty_Neutral>
0.00815973

> <r_epik_State_Penalty>
0.00583796

> <r_epik_Charging_Adjusted_Penalty>
0.00583796

> <i_epik_Tot_Q>
0

> <i_epik_Tot_abs_Q>
0

> <r_epik_Metal_State_Penalty>
0.409204

> <b_epik_Metal_Only>
0

> <s_lp_Force_Field>
OPLS_2005

> <r_lp_Energy>
16.5203

> <b_lp_Chiralities_Consistent>
1

> <s_lp_Variant>
AV-unprocessed.smi:1196-2

> <Gold.Version>
5.8.1

> <Gold.Id.Protein>
6NUR|6NUR_protein|mol2

> <Gold.PLP.Fitness>
45.7989

> <Gold.PLP.PLP>
-36.2365

> <Gold.PLP.part.hbond>
-3.0000

> <Gold.PLP.part.metal>
0.0000

> <Gold.PLP.part.buried>
-3.8113

> <Gold.PLP.part.nonpolar>
-30.2177

> <Gold.PLP.part.repulsive>
0.2162

> <Gold.PLP.ligand.clash>
0.0000

> <Gold.PLP.ligand.torsion>
0.9014

> <Gold.PLP.Chemscore.Hbond>
2.7360

> <Gold.PLP.Chemscore.CHOScore>
1.0000

> <Gold.PLP.Chemscore.Metal>
0.0000

> <Gold.Chemscore.Hbonds>
donor molecule, donor type, donor heavy atom, donor atom, acceptor molecule, acceptor atom, score
      L1  H    15    36       P1  7948  1.00
      P1  H  6896  6909       L1    20  0.80
      P1  H  7997  8010       L1    11  1.00
      L1  C     5    27       P1  8028  1.00

> <Gold.PLP.Chemscore.Internal.Correction>
0.1572

> <Gold.Rescore>
     Score         DG    S(hbond)    S(metal)    S(lipo)     H(rot)  DE(clash)    DE(int)     intcor
     14.71     -16.19       2.83        0.00      75.47       2.96       0.70       0.77       ----

> <Gold.Chemscore.Fitness>
14.7094

> <Gold.Chemscore.DG>
-16.1884

> <Gold.Chemscore.ZeroCoef>
-5.4800

> <Gold.Chemscore.Hbond>
2.8292

> <Gold.Chemscore.Metal>
0.0000

> <Gold.Chemscore.Lipo>
75.4715

> <Gold.Chemscore.Internal_Hbond>
0.0000

> <Gold.Chemscore.DEClash>
0.7045

> <Gold.Chemscore.DEInternal>
0.7745

> <Gold.Chemscore.Rot>
2.9575

> <Gold.Chemscore.Internal.Correction>
   9.000000E+99

> <Gold.Chemscore.Hbonds>
donor molecule, donor type, donor heavy atom, donor atom, acceptor molecule, acceptor atom, score
      L1  H    15    36       P1  7948  0.81
      P1  H  6896  6909       L1    20  0.77
      P1  H  7997  8010       L1    11  0.99

> <Gold.Chemscore.Hbond.Weighted>
-9.4495

> <Gold.Chemscore.Metal.Weighted>
-0.0000

> <Gold.Chemscore.Lipo.Weighted>
-8.8302

> <Gold.Chemscore.Internal_Hbond.Weighted>
0.0000

> <Gold.Chemscore.DEClash.Weighted>
0.7045

> <Gold.Chemscore.DEInternal.Weighted>
0.7745

> <Gold.Chemscore.Rot.Weighted>
7.5713

> <Gold.Chemscore.Internal.Correction.Weighted>
   9.000000E+99

> <Gold.Protein.RotatedTorsions>
[ 6907 6896 6895 6894 ] final   -5.74 input  -60.11 | X-H torsion
[ 7974 7965 7964 7962 ] final -125.33 input  175.53 | X-H torsion
[ 8008 7997 7996 7995 ] final   93.59 input   59.86 | X-H torsion
[ 10167 10162 10161 10158 ] final  174.94 input  -65.29 | X-H torsion
[ 10718 10713 10712 10709 ] final  155.48 input   66.30 | X-H torsion
[ 10763 10752 10751 10750 ] final  -55.98 input  -60.55 | X-H torsion
[ 11005 11000 10999 10996 ] final   79.67 input  -57.11 | X-H torsion

> <Gold.Protein.ActiveResidues>
 VAL166  LYS551  ARG553  GLY616  TRP617  ASP618  TYR619  PRO620  LYS621  CYS622 
 ASP623  PHE694  ASN695  SER759  ASP760  ASP761  ALA762  ILE779  LEU786  VAL792 
 PHE793  MET794  SER795  GLU796  ALA797  LYS798  CYS799  TRP800  GLU811  SER814 

> <Gold.Protein.RotatedAtoms>
  151.4767  135.1049  159.9766 H   0  0  0  0  0  0  0  0  0  0  0  0  # atno 6907 bound_to 6896
  152.4795  133.8216  159.7067 H   0  0  0  0  0  0  0  0  0  0  0  0  # atno 6908 bound_to 6896
  150.8857  133.7250  159.2945 H   0  0  0  0  0  0  0  0  0  0  0  0  # atno 6909 bound_to 6896
  144.9987  140.7800  143.4509 H   0  0  0  0  0  0  0  0  0  0  0  0  # atno 7974 bound_to 7965
  156.0484  140.3311  155.7323 H   0  0  0  0  0  0  0  0  0  0  0  0  # atno 8008 bound_to 7997
  155.5638  140.0621  157.2840 H   0  0  0  0  0  0  0  0  0  0  0  0  # atno 8009 bound_to 7997
  154.4424  140.1873  156.0798 H   0  0  0  0  0  0  0  0  0  0  0  0  # atno 8010 bound_to 7997
  139.5159  144.3089  152.0310 H   0  0  0  0  0  0  0  0  0  0  0  0  # atno 10167 bound_to 10162
  157.2177  131.0712  151.1931 H   0  0  0  0  0  0  0  0  0  0  0  0  # atno 10718 bound_to 10713
  154.1994  135.6413  153.5082 H   0  0  0  0  0  0  0  0  0  0  0  0  # atno 10763 bound_to 10752
  153.0015  135.5447  154.6331 H   0  0  0  0  0  0  0  0  0  0  0  0  # atno 10764 bound_to 10752
  154.5740  135.2919  155.0772 H   0  0  0  0  0  0  0  0  0  0  0  0  # atno 10765 bound_to 10752
  139.9163  134.7861  156.1809 H   0  0  0  0  0  0  0  0  0  0  0  0  # atno 11005 bound_to 11000
  145.2183  139.2171  143.5106 LP  0  0  0  0  0  0  0  0  0  0  0  0  # atno 17320 bound_to 7965
  146.3447  140.2036  142.8589 LP  0  0  0  0  0  0  0  0  0  0  0  0  # atno 17321 bound_to 7965
  140.2534  144.4144  150.6213 LP  0  0  0  0  0  0  0  0  0  0  0  0  # atno 17342 bound_to 10162
  140.6208  143.2176  151.6697 LP  0  0  0  0  0  0  0  0  0  0  0  0  # atno 17343 bound_to 10162
  157.3607  130.7130  149.6500 LP  0  0  0  0  0  0  0  0  0  0  0  0  # atno 17370 bound_to 10713
  155.9685  130.4226  150.4525 LP  0  0  0  0  0  0  0  0  0  0  0  0  # atno 17371 bound_to 10713
  141.0642  133.6827  156.2013 LP  0  0  0  0  0  0  0  0  0  0  0  0  # atno 17394 bound_to 11000
  140.6611  134.4966  157.5583 LP  0  0  0  0  0  0  0  0  0  0  0  0  # atno 17395 bound_to 11000

$$$$
