AV-unprocessed.smi:1004|AV-procd|sdf|4361|dock8
  -GOLD-   22720 2263D 1   1.00000     0.00000
 Structure written by MMmdl.
 42 43  0  0  0  0  0  0  0  0  1 V2000
  144.6760  131.7644  150.3827 C   0  0  0  0  0  0  0  0  0  0  0  0
  144.4847  133.1554  150.9513 C   0  0  0  0  0  0  0  0  0  0  0  0
  145.4193  134.2171  150.6414 C   0  0  0  0  0  0  0  0  0  0  0  0
  145.2189  135.4372  151.1630 C   0  0  0  0  0  0  0  0  0  0  0  0
  144.1261  135.7160  152.0039 N   0  0  0  0  0  0  0  0  0  0  0  0
  144.0132  137.0878  152.5267 C   0  0  0  0  0  0  0  0  0  0  0  0
  145.1753  137.4852  153.4486 C   0  0  0  0  0  0  0  0  0  0  0  0
  145.9536  136.6382  153.8892 O   0  0  0  0  0  0  0  0  0  0  0  0
  145.2891  138.7927  153.7188 N   0  0  0  0  0  0  0  0  0  0  0  0
  146.3205  139.3708  154.5716 C   0  0  0  0  0  0  0  0  0  0  0  0
  147.4305  140.0390  153.7422 C   0  0  0  0  0  0  0  0  0  0  0  0
  148.8312  139.7993  154.2863 C   0  0  0  0  0  0  0  0  0  0  0  0
  149.3811  138.5697  154.3254 C   0  0  0  0  0  0  0  0  0  0  0  0
  150.7795  138.2765  154.8395 C   0  0  0  0  0  0  0  0  0  0  0  0
  151.6284  139.5503  154.9874 C   0  0  0  0  0  0  0  0  0  0  0  0
  150.8176  140.6849  155.6252 C   0  0  0  0  0  0  0  0  0  0  0  0
  149.5789  141.0326  154.7801 C   0  0  0  0  0  0  0  0  0  0  0  0
  143.2097  134.7583  152.3382 C   0  0  0  0  0  0  0  0  0  0  0  0
  142.2540  134.9953  153.0779 O   0  0  0  0  0  0  0  0  0  0  0  0
  143.4377  133.4285  151.7608 C   0  0  0  0  0  0  0  0  0  0  0  0
  145.5763  131.7088  149.7700 H   0  0  0  0  0  0  0  0  0  0  0  0
  143.8235  131.4879  149.7617 H   0  0  0  0  0  0  0  0  0  0  0  0
  144.7673  131.0350  151.1878 H   0  0  0  0  0  0  0  0  0  0  0  0
  146.2705  134.0330  150.0025 H   0  0  0  0  0  0  0  0  0  0  0  0
  145.8818  136.2698  150.9778 H   0  0  0  0  0  0  0  0  0  0  0  0
  143.9698  137.8056  151.7064 H   0  0  0  0  0  0  0  0  0  0  0  0
  143.0697  137.2098  153.0620 H   0  0  0  0  0  0  0  0  0  0  0  0
  144.6134  139.4274  153.3186 H   0  0  0  0  0  0  0  0  0  0  0  0
  145.8632  140.0978  155.2445 H   0  0  0  0  0  0  0  0  0  0  0  0
  146.7537  138.5907  155.1995 H   0  0  0  0  0  0  0  0  0  0  0  0
  147.3899  139.6762  152.7148 H   0  0  0  0  0  0  0  0  0  0  0  0
  147.2415  141.1123  153.6909 H   0  0  0  0  0  0  0  0  0  0  0  0
  148.8141  137.7162  153.9833 H   0  0  0  0  0  0  0  0  0  0  0  0
  150.6851  137.7729  155.8021 H   0  0  0  0  0  0  0  0  0  0  0  0
  151.2733  137.5784  154.1631 H   0  0  0  0  0  0  0  0  0  0  0  0
  152.5187  139.3386  155.5802 H   0  0  0  0  0  0  0  0  0  0  0  0
  151.9794  139.8700  154.0053 H   0  0  0  0  0  0  0  0  0  0  0  0
  150.5028  140.3815  156.6245 H   0  0  0  0  0  0  0  0  0  0  0  0
  151.4402  141.5706  155.7542 H   0  0  0  0  0  0  0  0  0  0  0  0
  149.8800  141.6177  153.9106 H   0  0  0  0  0  0  0  0  0  0  0  0
  148.9046  141.6593  155.3645 H   0  0  0  0  0  0  0  0  0  0  0  0
  142.7374  132.6404  151.9967 H   0  0  0  0  0  0  0  0  0  0  0  0
  1  2  1  0  0  0  0
  1 21  1  0  0  0  0
  1 22  1  0  0  0  0
  1 23  1  0  0  0  0
  2 20  2  0  0  0  0
  2  3  1  0  0  0  0
  3  4  2  0  0  0  0
  3 24  1  0  0  0  0
  4  5  1  0  0  0  0
  4 25  1  0  0  0  0
  5  6  1  0  0  0  0
  5 18  1  0  0  0  0
  6  7  1  0  0  0  0
  6 26  1  0  0  0  0
  6 27  1  0  0  0  0
  7  8  2  0  0  0  0
  7  9  1  0  0  0  0
  9 10  1  0  0  0  0
  9 28  1  0  0  0  0
 10 11  1  0  0  0  0
 10 29  1  0  0  0  0
 10 30  1  0  0  0  0
 11 12  1  0  0  0  0
 11 31  1  0  0  0  0
 11 32  1  0  0  0  0
 12 17  1  0  0  0  0
 12 13  2  0  0  0  0
 13 14  1  0  0  0  0
 13 33  1  0  0  0  0
 14 15  1  0  0  0  0
 14 34  1  0  0  0  0
 14 35  1  0  0  0  0
 15 16  1  0  0  0  0
 15 36  1  0  0  0  0
 15 37  1  0  0  0  0
 16 17  1  0  0  0  0
 16 38  1  0  0  0  0
 16 39  1  0  0  0  0
 17 40  1  0  0  0  0
 17 41  1  0  0  0  0
 18 19  2  0  0  0  0
 18 20  1  0  0  0  0
 20 42  1  0  0  0  0
M  END
> <s_m_source_file>
AV-unprocessed.smi

> <i_m_source_file_index>
1004

> <i_lp_mmshare_version>
43012

> <i_f3d_flags>
0

> <s_epik_input>
W0NIM11jMVtjSF1bY0hdbihjKD1PKVtjSF0xKVtDSDJdQyg9TylbTkhdW0NIMl1bQ0gyXUMyPVtDSF1bQ0gyXVtDSDJdW0NIMl1bQ0gyXTI=

> <s_epik_cmdline>
J2VwaWtfcHl0aG9uJywgJy1waCcsICc3LjAnLCAnLXRuJywgJzgnLCAnLW1hJywgJzIwMCcsICctbWV0YWxfYmluZGluZycsICctaW1hZScsICc8aW5maWxlLm1hZT4nLCAnLW9tYWUnLCAnPG91dGZpbGUubWFlPic=

> <r_lp_tautomer_probability>
1

> <r_epik_Ionization_Penalty>
5.31482e-07

> <r_epik_Ionization_Penalty_Charging>
5.13379e-07

> <r_epik_Ionization_Penalty_Neutral>
1.81035e-08

> <r_epik_State_Penalty>
-0

> <r_epik_Charging_Adjusted_Penalty>
5.13379e-07

> <i_epik_Tot_Q>
0

> <i_epik_Tot_abs_Q>
0

> <r_epik_Metal_State_Penalty>
-0

> <b_epik_Metal_Only>
0

> <s_lp_Force_Field>
OPLS_2005

> <r_lp_Energy>
18.1417

> <b_lp_Chiralities_Consistent>
1

> <s_lp_Variant>
AV-unprocessed.smi:1004-1

> <Gold.Version>
5.8.1

> <Gold.Id.Protein>
6NUR|6NUR_protein|mol2

> <Gold.PLP.Fitness>
39.4701

> <Gold.PLP.PLP>
-37.6494

> <Gold.PLP.part.hbond>
-1.0000

> <Gold.PLP.part.metal>
0.0000

> <Gold.PLP.part.buried>
-0.9695

> <Gold.PLP.part.nonpolar>
-35.6573

> <Gold.PLP.part.repulsive>
0.2885

> <Gold.PLP.ligand.clash>
0.0000

> <Gold.PLP.ligand.torsion>
0.5994

> <Gold.PLP.Chemscore.Hbond>
1.0000

> <Gold.PLP.Chemscore.CHOScore>
0.0000

> <Gold.PLP.Chemscore.Metal>
0.0000

> <Gold.Chemscore.Hbonds>
donor molecule, donor type, donor heavy atom, donor atom, acceptor molecule, acceptor atom, score
      L1  H     9    28       P1 10175  1.00

> <Gold.PLP.Chemscore.Internal.Correction>
0.0196

> <Gold.Rescore>
     Score         DG    S(hbond)    S(metal)    S(lipo)     H(rot)  DE(clash)    DE(int)     intcor
     14.32     -15.02       1.00        0.00      88.68       1.63       0.03       0.68       ----

> <Gold.Chemscore.Fitness>
14.3153

> <Gold.Chemscore.DG>
-15.0194

> <Gold.Chemscore.ZeroCoef>
-5.4800

> <Gold.Chemscore.Hbond>
1.0000

> <Gold.Chemscore.Metal>
0.0000

> <Gold.Chemscore.Lipo>
88.6761

> <Gold.Chemscore.Internal_Hbond>
0.0000

> <Gold.Chemscore.DEClash>
0.0291

> <Gold.Chemscore.DEInternal>
0.6750

> <Gold.Chemscore.Rot>
1.6311

> <Gold.Chemscore.Internal.Correction>
   9.000000E+99

> <Gold.Chemscore.Hbonds>
donor molecule, donor type, donor heavy atom, donor atom, acceptor molecule, acceptor atom, score
      L1  H     9    28       P1 10175  1.00

> <Gold.Chemscore.Hbond.Weighted>
-3.3400

> <Gold.Chemscore.Metal.Weighted>
-0.0000

> <Gold.Chemscore.Lipo.Weighted>
-10.3751

> <Gold.Chemscore.Internal_Hbond.Weighted>
0.0000

> <Gold.Chemscore.DEClash.Weighted>
0.0291

> <Gold.Chemscore.DEInternal.Weighted>
0.6750

> <Gold.Chemscore.Rot.Weighted>
4.1757

> <Gold.Chemscore.Internal.Correction.Weighted>
   9.000000E+99

> <Gold.Protein.RotatedTorsions>
[ 6907 6896 6895 6894 ] final   -9.54 input  -60.11 | X-H torsion
[ 7974 7965 7964 7962 ] final   48.69 input  175.53 | X-H torsion
[ 8008 7997 7996 7995 ] final  -54.36 input   59.86 | X-H torsion
[ 10167 10162 10161 10158 ] final  -96.20 input  -65.29 | X-H torsion
[ 10718 10713 10712 10709 ] final  134.16 input   66.30 | X-H torsion
[ 10763 10752 10751 10750 ] final -161.33 input  -60.55 | X-H torsion
[ 11005 11000 10999 10996 ] final   81.38 input  -57.11 | X-H torsion

> <Gold.Protein.ActiveResidues>
 VAL166  LYS551  ARG553  GLY616  TRP617  ASP618  TYR619  PRO620  LYS621  CYS622 
 ASP623  PHE694  ASN695  SER759  ASP760  ASP761  ALA762  ILE779  LEU786  VAL792 
 PHE793  MET794  SER795  GLU796  ALA797  LYS798  CYS799  TRP800  GLU811  SER814 

> <Gold.Protein.RotatedAtoms>
  151.4162  135.0992  159.9599 H   0  0  0  0  0  0  0  0  0  0  0  0  # atno 6907 bound_to 6896
  152.5003  133.8750  159.7328 H   0  0  0  0  0  0  0  0  0  0  0  0  # atno 6908 bound_to 6896
  150.9256  133.6770  159.2850 H   0  0  0  0  0  0  0  0  0  0  0  0  # atno 6909 bound_to 6896
  146.0180  139.4618  142.9915 H   0  0  0  0  0  0  0  0  0  0  0  0  # atno 7974 bound_to 7965
  154.4160  140.1178  156.5303 H   0  0  0  0  0  0  0  0  0  0  0  0  # atno 8008 bound_to 7997
  155.6612  140.3496  155.4764 H   0  0  0  0  0  0  0  0  0  0  0  0  # atno 8009 bound_to 7997
  155.9711  140.1141  157.0801 H   0  0  0  0  0  0  0  0  0  0  0  0  # atno 8010 bound_to 7997
  140.2962  143.3190  152.0295 H   0  0  0  0  0  0  0  0  0  0  0  0  # atno 10167 bound_to 10162
  157.4701  131.1079  150.9814 H   0  0  0  0  0  0  0  0  0  0  0  0  # atno 10718 bound_to 10713
  154.7313  135.3047  154.8886 H   0  0  0  0  0  0  0  0  0  0  0  0  # atno 10763 bound_to 10752
  153.9728  135.6739  153.4751 H   0  0  0  0  0  0  0  0  0  0  0  0  # atno 10764 bound_to 10752
  153.0921  135.4954  154.8630 H   0  0  0  0  0  0  0  0  0  0  0  0  # atno 10765 bound_to 10752
  139.9100  134.7992  156.2034 H   0  0  0  0  0  0  0  0  0  0  0  0  # atno 11005 bound_to 11000
  145.7238  141.0066  143.1388 LP  0  0  0  0  0  0  0  0  0  0  0  0  # atno 17320 bound_to 7965
  144.6978  139.8903  143.7452 LP  0  0  0  0  0  0  0  0  0  0  0  0  # atno 17321 bound_to 7965
  139.4926  144.6489  151.6719 LP  0  0  0  0  0  0  0  0  0  0  0  0  # atno 17342 bound_to 10162
  140.5690  144.0141  150.6207 LP  0  0  0  0  0  0  0  0  0  0  0  0  # atno 17343 bound_to 10162
  157.0582  130.5814  149.5381 LP  0  0  0  0  0  0  0  0  0  0  0  0  # atno 17370 bound_to 10713
  156.0069  130.5156  150.7859 LP  0  0  0  0  0  0  0  0  0  0  0  0  # atno 17371 bound_to 10713
  141.0511  133.6888  156.1773 LP  0  0  0  0  0  0  0  0  0  0  0  0  # atno 17394 bound_to 11000
  140.6809  134.4768  157.5589 LP  0  0  0  0  0  0  0  0  0  0  0  0  # atno 17395 bound_to 11000

$$$$
