AV-unprocessed.smi:314|AV-procd|sdf|2313|dock5
  -GOLD-   2262022213D 1   1.00000     0.00000
 Structure written by MMmdl.
 48 49  0  0  0  0  0  0  0  0  1 V2000
  142.2860  145.8369  156.0879 C   0  0  0  0  0  0  0  0  0  0  0  0
  142.8041  145.7139  154.7679 O   0  0  0  0  0  0  0  0  0  0  0  0
  143.8986  144.8978  154.5674 C   0  0  0  0  0  0  0  0  0  0  0  0
  144.4636  144.8316  153.2786 C   0  0  0  0  0  0  0  0  0  0  0  0
  145.5803  144.0010  153.0647 C   0  0  0  0  0  0  0  0  0  0  0  0
  146.1034  143.2622  154.1537 C   0  0  0  0  0  0  0  0  0  0  0  0
  147.2188  142.3818  154.0817 N   0  0  0  0  0  0  0  0  0  0  0  0
  147.9176  141.8043  155.0745 C   0  0  0  0  0  0  0  0  0  0  0  0
  147.7021  141.9407  156.2782 O   0  0  0  0  0  0  0  0  0  0  0  0
  148.8990  141.0329  154.5862 N   0  0  0  0  0  0  0  0  0  0  0  0
  149.8505  140.2755  155.3914 C   0  0  0  0  0  0  0  0  0  0  0  0
  151.0220  141.1571  155.8725 C   0  0  0  0  0  0  0  0  0  0  0  0
  151.7422  140.6065  157.1160 C   0  0  0  0  0  0  0  0  0  0  0  0
  152.4447  139.6007  157.0024 O   0  0  0  0  0  0  0  0  0  0  0  0
  151.5820  141.2418  158.3018 N   0  0  0  0  0  0  0  0  0  0  0  0
  150.8313  142.4806  158.5257 C   0  0  0  0  0  0  0  0  0  0  0  0
  151.8296  143.5832  158.9321 C   0  0  1  0  0  0  0  0  0  0  0  0
  151.1336  144.9124  159.2435 C   0  0  0  0  0  0  0  0  0  0  0  0
  152.5337  143.1662  160.1014 O   0  0  0  0  0  0  0  0  0  0  0  0
  153.2501  141.9428  159.9371 C   0  0  1  0  0  0  0  0  0  0  0  0
  153.9675  141.6292  161.2545 C   0  0  0  0  0  0  0  0  0  0  0  0
  152.2636  140.8295  159.5314 C   0  0  0  0  0  0  0  0  0  0  0  0
  145.4597  143.3952  155.4016 C   0  0  0  0  0  0  0  0  0  0  0  0
  144.3889  144.1887  155.6136 N   0  0  0  0  0  0  0  0  0  0  0  0
  141.4321  146.5141  156.0784 H   0  0  0  0  0  0  0  0  0  0  0  0
  143.0288  146.2513  156.7710 H   0  0  0  0  0  0  0  0  0  0  0  0
  141.9418  144.8761  156.4733 H   0  0  0  0  0  0  0  0  0  0  0  0
  144.0457  145.4067  152.4656 H   0  0  0  0  0  0  0  0  0  0  0  0
  145.9973  143.9497  152.0722 H   0  0  0  0  0  0  0  0  0  0  0  0
  147.5089  142.1391  153.1457 H   0  0  0  0  0  0  0  0  0  0  0  0
  149.0050  140.9749  153.5840 H   0  0  0  0  0  0  0  0  0  0  0  0
  149.3065  139.8706  156.2457 H   0  0  0  0  0  0  0  0  0  0  0  0
  150.2183  139.4206  154.8209 H   0  0  0  0  0  0  0  0  0  0  0  0
  151.7499  141.2604  155.0668 H   0  0  0  0  0  0  0  0  0  0  0  0
  150.6480  142.1555  156.1025 H   0  0  0  0  0  0  0  0  0  0  0  0
  150.2523  142.8049  157.6628 H   0  0  0  0  0  0  0  0  0  0  0  0
  150.1045  142.3180  159.3233 H   0  0  0  0  0  0  0  0  0  0  0  0
  152.5460  143.7456  158.1246 H   0  0  0  0  0  0  0  0  0  0  0  0
  150.5903  145.2848  158.3747 H   0  0  0  0  0  0  0  0  0  0  0  0
  151.8592  145.6729  159.5326 H   0  0  0  0  0  0  0  0  0  0  0  0
  150.4220  144.8035  160.0625 H   0  0  0  0  0  0  0  0  0  0  0  0
  153.9992  142.0730  159.1538 H   0  0  0  0  0  0  0  0  0  0  0  0
  154.5432  140.7065  161.1782 H   0  0  0  0  0  0  0  0  0  0  0  0
  153.2562  141.5140  162.0727 H   0  0  0  0  0  0  0  0  0  0  0  0
  154.6567  142.4300  161.5229 H   0  0  0  0  0  0  0  0  0  0  0  0
  151.5239  140.6706  160.3175 H   0  0  0  0  0  0  0  0  0  0  0  0
  152.7956  139.8833  159.4234 H   0  0  0  0  0  0  0  0  0  0  0  0
  145.8158  142.8482  156.2624 H   0  0  0  0  0  0  0  0  0  0  0  0
  1  2  1  0  0  0  0
  1 25  1  0  0  0  0
  1 26  1  0  0  0  0
  1 27  1  0  0  0  0
  2  3  1  0  0  0  0
  3 24  1  0  0  0  0
  3  4  2  0  0  0  0
  4  5  1  0  0  0  0
  4 28  1  0  0  0  0
  5  6  2  0  0  0  0
  5 29  1  0  0  0  0
  6  7  1  0  0  0  0
  6 23  1  0  0  0  0
  7  8  1  0  0  0  0
  7 30  1  0  0  0  0
  8  9  2  0  0  0  0
  8 10  1  0  0  0  0
 10 11  1  0  0  0  0
 10 31  1  0  0  0  0
 11 12  1  0  0  0  0
 11 32  1  0  0  0  0
 11 33  1  0  0  0  0
 12 13  1  0  0  0  0
 12 34  1  0  0  0  0
 12 35  1  0  0  0  0
 13 14  2  0  0  0  0
 13 15  1  0  0  0  0
 15 22  1  0  0  0  0
 15 16  1  0  0  0  0
 16 17  1  0  0  0  0
 16 36  1  0  0  0  0
 16 37  1  0  0  0  0
 17 18  1  0  0  0  0
 17 19  1  0  0  0  0
 17 38  1  0  0  0  0
 18 39  1  0  0  0  0
 18 40  1  0  0  0  0
 18 41  1  0  0  0  0
 19 20  1  0  0  0  0
 20 21  1  0  0  0  0
 20 22  1  0  0  0  0
 20 42  1  0  0  0  0
 21 43  1  0  0  0  0
 21 44  1  0  0  0  0
 21 45  1  0  0  0  0
 22 46  1  0  0  0  0
 22 47  1  0  0  0  0
 23 24  2  0  0  0  0
 23 48  1  0  0  0  0
M  END
> <s_m_source_file>
AV-unprocessed.smi

> <i_m_source_file_index>
314

> <i_lp_mmshare_version>
43012

> <i_f3d_flags>
0

> <s_epik_input>
W0NIM11PYzFbY0hdW2NIXWMoW2NIXW4xKVtOSF1DKD1PKVtOSF1bQ0gyXVtDSDJdQyg9TylOMltDSDJdW0NAQEhdKFtDSDNdKU9bQ0BASF0oW0NIM10pW0NIMl0y

> <s_epik_cmdline>
J2VwaWtfcHl0aG9uJywgJy1waCcsICc3LjAnLCAnLXRuJywgJzgnLCAnLW1hJywgJzIwMCcsICctbWV0YWxfYmluZGluZycsICctaW1hZScsICc8aW5maWxlLm1hZT4nLCAnLW9tYWUnLCAnPG91dGZpbGUubWFlPic=

> <r_lp_tautomer_probability>
1

> <r_epik_Ionization_Penalty>
8.55977e-05

> <r_epik_Ionization_Penalty_Charging>
0

> <r_epik_Ionization_Penalty_Neutral>
8.55977e-05

> <r_epik_State_Penalty>
-0

> <r_epik_Charging_Adjusted_Penalty>
0

> <i_epik_Tot_Q>
0

> <i_epik_Tot_abs_Q>
0

> <r_epik_Metal_State_Penalty>
-0

> <b_epik_Metal_Only>
0

> <s_lp_Force_Field>
OPLS_2005

> <r_lp_Energy>
24.2957

> <b_lp_Chiralities_Consistent>
1

> <s_lp_Variant>
AV-unprocessed.smi:314-1

> <Gold.Version>
5.8.1

> <Gold.Id.Protein>
6NUR|6NUR_protein|mol2

> <Gold.PLP.Fitness>
48.4802

> <Gold.PLP.PLP>
-46.3598

> <Gold.PLP.part.hbond>
-1.4132

> <Gold.PLP.part.metal>
0.0000

> <Gold.PLP.part.buried>
-5.7620

> <Gold.PLP.part.nonpolar>
-39.5743

> <Gold.PLP.part.repulsive>
1.2314

> <Gold.PLP.ligand.clash>
0.0000

> <Gold.PLP.ligand.torsion>
0.4372

> <Gold.PLP.Chemscore.Hbond>
0.9913

> <Gold.PLP.Chemscore.CHOScore>
0.0000

> <Gold.PLP.Chemscore.Metal>
0.0000

> <Gold.Chemscore.Hbonds>
donor molecule, donor type, donor heavy atom, donor atom, acceptor molecule, acceptor atom, score
      P1  H  7997  8008       L1    14  1.00

> <Gold.PLP.Chemscore.Internal.Correction>
0.0210

> <Gold.Rescore>
     Score         DG    S(hbond)    S(metal)    S(lipo)     H(rot)  DE(clash)    DE(int)     intcor
     14.23     -16.28       0.96        0.00     104.48       1.81       0.18       1.86       ----

> <Gold.Chemscore.Fitness>
14.2332

> <Gold.Chemscore.DG>
-16.2756

> <Gold.Chemscore.ZeroCoef>
-5.4800

> <Gold.Chemscore.Hbond>
0.9571

> <Gold.Chemscore.Metal>
0.0000

> <Gold.Chemscore.Lipo>
104.4798

> <Gold.Chemscore.Internal_Hbond>
0.0000

> <Gold.Chemscore.DEClash>
0.1811

> <Gold.Chemscore.DEInternal>
1.8613

> <Gold.Chemscore.Rot>
1.8067

> <Gold.Chemscore.Internal.Correction>
   9.000000E+99

> <Gold.Chemscore.Hbonds>
donor molecule, donor type, donor heavy atom, donor atom, acceptor molecule, acceptor atom, score
      P1  H  7997  8008       L1    14  0.74

> <Gold.Chemscore.Hbond.Weighted>
-3.1966

> <Gold.Chemscore.Metal.Weighted>
-0.0000

> <Gold.Chemscore.Lipo.Weighted>
-12.2241

> <Gold.Chemscore.Internal_Hbond.Weighted>
0.0000

> <Gold.Chemscore.DEClash.Weighted>
0.1811

> <Gold.Chemscore.DEInternal.Weighted>
1.8613

> <Gold.Chemscore.Rot.Weighted>
4.6252

> <Gold.Chemscore.Internal.Correction.Weighted>
   9.000000E+99

> <Gold.Protein.RotatedTorsions>
[ 6907 6896 6895 6894 ] final    7.19 input  -60.11 | X-H torsion
[ 7974 7965 7964 7962 ] final   22.26 input  175.53 | X-H torsion
[ 8008 7997 7996 7995 ] final  -54.68 input   59.86 | X-H torsion
[ 10167 10162 10161 10158 ] final  -31.46 input  -65.29 | X-H torsion
[ 10718 10713 10712 10709 ] final  -93.69 input   66.30 | X-H torsion
[ 10763 10752 10751 10750 ] final -132.16 input  -60.55 | X-H torsion
[ 11005 11000 10999 10996 ] final   18.73 input  -57.11 | X-H torsion

> <Gold.Protein.ActiveResidues>
 VAL166  LYS551  ARG553  GLY616  TRP617  ASP618  TYR619  PRO620  LYS621  CYS622 
 ASP623  PHE694  ASN695  SER759  ASP760  ASP761  ALA762  ILE779  LEU786  VAL792 
 PHE793  MET794  SER795  GLU796  ALA797  LYS798  CYS799  TRP800  GLU811  SER814 

> <Gold.Protein.RotatedAtoms>
  151.6859  135.0954  160.0224 H   0  0  0  0  0  0  0  0  0  0  0  0  # atno 6907 bound_to 6896
  152.3808  133.6539  159.6168 H   0  0  0  0  0  0  0  0  0  0  0  0  # atno 6908 bound_to 6896
  150.7745  133.9034  159.3389 H   0  0  0  0  0  0  0  0  0  0  0  0  # atno 6909 bound_to 6896
  146.2036  139.7910  142.8743 H   0  0  0  0  0  0  0  0  0  0  0  0  # atno 7974 bound_to 7965
  154.4170  140.1171  156.5354 H   0  0  0  0  0  0  0  0  0  0  0  0  # atno 8008 bound_to 7997
  155.6563  140.3496  155.4747 H   0  0  0  0  0  0  0  0  0  0  0  0  # atno 8009 bound_to 7997
  155.9751  140.1149  157.0767 H   0  0  0  0  0  0  0  0  0  0  0  0  # atno 8010 bound_to 7997
  140.7236  143.3769  151.1672 H   0  0  0  0  0  0  0  0  0  0  0  0  # atno 10167 bound_to 10162
  156.0017  130.5037  150.5814 H   0  0  0  0  0  0  0  0  0  0  0  0  # atno 10718 bound_to 10713
  154.8745  135.3807  154.4364 H   0  0  0  0  0  0  0  0  0  0  0  0  # atno 10763 bound_to 10752
  153.5053  135.7030  153.5815 H   0  0  0  0  0  0  0  0  0  0  0  0  # atno 10764 bound_to 10752
  153.4128  135.3920  155.2028 H   0  0  0  0  0  0  0  0  0  0  0  0  # atno 10765 bound_to 10752
  140.4215  134.1513  155.7673 H   0  0  0  0  0  0  0  0  0  0  0  0  # atno 11005 bound_to 11000
  145.3397  141.0285  143.3399 LP  0  0  0  0  0  0  0  0  0  0  0  0  # atno 17320 bound_to 7965
  144.8740  139.4997  143.6754 LP  0  0  0  0  0  0  0  0  0  0  0  0  # atno 17321 bound_to 7965
  139.7351  143.9011  152.3032 LP  0  0  0  0  0  0  0  0  0  0  0  0  # atno 17342 bound_to 10162
  139.8813  144.7016  150.8874 LP  0  0  0  0  0  0  0  0  0  0  0  0  # atno 17343 bound_to 10162
  157.3694  131.0763  151.1570 LP  0  0  0  0  0  0  0  0  0  0  0  0  # atno 17370 bound_to 10713
  157.2329  130.6533  149.5857 LP  0  0  0  0  0  0  0  0  0  0  0  0  # atno 17371 bound_to 10713
  141.1782  133.8470  157.1350 LP  0  0  0  0  0  0  0  0  0  0  0  0  # atno 17394 bound_to 11000
  140.0196  134.9951  157.0565 LP  0  0  0  0  0  0  0  0  0  0  0  0  # atno 17395 bound_to 11000

$$$$
