AV-unprocessed.smi:2124|AV-procd|sdf|8668|dock3
  -GOLD-   2272011413D 1   1.00000     0.00000
 Structure written by MMmdl.
 46 48  0  0  0  0  0  0  0  0  2 V2000
  152.5109  141.2768  158.4738 C   0  0  0  0  0  0  0  0  0  0  0  0
  151.9662  140.2415  157.5129 C   0  0  0  0  0  0  0  0  0  0  0  0
  150.7931  139.7699  157.7025 N   0  0  0  0  0  0  0  0  0  0  0  0
  150.2819  138.8093  156.8136 C   0  0  0  0  0  0  0  0  0  0  0  0
  148.8818  138.3045  157.1154 C   0  0  0  0  0  0  0  0  0  0  0  0
  151.0150  138.3704  155.7506 C   0  0  0  0  0  0  0  0  0  0  0  0
  150.5057  137.3262  154.7563 C   0  0  0  0  0  0  0  0  0  0  0  0
  149.9863  136.0156  155.3531 C   0  0  0  0  0  0  0  0  0  0  0  0
  150.1770  135.7428  156.5388 O   0  0  0  0  0  0  0  0  0  0  0  0
  149.3311  135.2057  154.5073 N   0  0  0  0  0  0  0  0  0  0  0  0
  148.7533  133.9084  154.8522 C   0  0  2  0  0  0  0  0  0  0  0  0
  149.8649  132.9895  155.3917 C   0  0  0  0  0  0  0  0  0  0  0  0
  148.0387  133.3014  153.6198 C   0  0  1  0  0  0  0  0  0  0  0  0
  147.3649  131.9370  153.9071 C   0  0  0  0  0  0  0  0  0  0  0  0
  145.9123  132.1530  153.4471 C   0  0  2  0  0  0  0  0  0  0  0  0
  145.8701  132.2698  151.9131 C   0  0  0  0  0  0  0  0  0  0  0  0
  146.4934  133.6557  151.6638 C   0  0  0  0  0  0  0  0  0  0  0  0
  146.8428  134.1334  153.0867 C   0  0  1  0  0  0  0  0  0  0  0  0
  145.6625  133.5898  153.8848 C   0  0  0  0  0  0  0  0  0  0  0  0
  152.3597  138.9437  155.5635 C   0  0  0  0  0  0  0  0  0  0  0  0
  153.0561  138.5948  154.6109 O   0  0  0  0  0  0  0  0  0  0  0  0
  152.7877  139.8639  156.4745 N   0  5  0  0  0  0  0  0  0  0  0  0
  151.7255  141.6545  159.1298 H   0  0  0  0  0  0  0  0  0  0  0  0
  152.9311  142.1213  157.9265 H   0  0  0  0  0  0  0  0  0  0  0  0
  153.2949  140.8400  159.0928 H   0  0  0  0  0  0  0  0  0  0  0  0
  148.9068  137.2471  157.3796 H   0  0  0  0  0  0  0  0  0  0  0  0
  148.2313  138.4321  156.2500 H   0  0  0  0  0  0  0  0  0  0  0  0
  148.4376  138.8491  157.9494 H   0  0  0  0  0  0  0  0  0  0  0  0
  149.7276  137.7514  154.1216 H   0  0  0  0  0  0  0  0  0  0  0  0
  151.3172  137.0806  154.0711 H   0  0  0  0  0  0  0  0  0  0  0  0
  149.2188  135.5139  153.5523 H   0  0  0  0  0  0  0  0  0  0  0  0
  148.0133  134.0521  155.6416 H   0  0  0  0  0  0  0  0  0  0  0  0
  149.4731  132.0200  155.6978 H   0  0  0  0  0  0  0  0  0  0  0  0
  150.3510  133.4288  156.2636 H   0  0  0  0  0  0  0  0  0  0  0  0
  150.6332  132.8133  154.6383 H   0  0  0  0  0  0  0  0  0  0  0  0
  148.7784  133.1865  152.8258 H   0  0  0  0  0  0  0  0  0  0  0  0
  147.8506  131.1157  153.3787 H   0  0  0  0  0  0  0  0  0  0  0  0
  147.3793  131.6980  154.9712 H   0  0  0  0  0  0  0  0  0  0  0  0
  145.2126  131.4204  153.8504 H   0  0  0  0  0  0  0  0  0  0  0  0
  146.4245  131.4686  151.4231 H   0  0  0  0  0  0  0  0  0  0  0  0
  144.8429  132.2398  151.5476 H   0  0  0  0  0  0  0  0  0  0  0  0
  147.3654  133.6106  151.0105 H   0  0  0  0  0  0  0  0  0  0  0  0
  145.7655  134.3230  151.2005 H   0  0  0  0  0  0  0  0  0  0  0  0
  146.9737  135.2140  153.1477 H   0  0  0  0  0  0  0  0  0  0  0  0
  144.6992  133.9819  153.5539 H   0  0  0  0  0  0  0  0  0  0  0  0
  145.7568  133.7396  154.9614 H   0  0  0  0  0  0  0  0  0  0  0  0
  1  2  1  0  0  0  0
  1 23  1  0  0  0  0
  1 24  1  0  0  0  0
  1 25  1  0  0  0  0
  2 22  1  0  0  0  0
  2  3  2  0  0  0  0
  3  4  1  0  0  0  0
  4  5  1  0  0  0  0
  4  6  2  0  0  0  0
  5 26  1  0  0  0  0
  5 27  1  0  0  0  0
  5 28  1  0  0  0  0
  6  7  1  0  0  0  0
  6 20  1  0  0  0  0
  7  8  1  0  0  0  0
  7 29  1  0  0  0  0
  7 30  1  0  0  0  0
  8  9  2  0  0  0  0
  8 10  1  0  0  0  0
 10 11  1  0  0  0  0
 10 31  1  0  0  0  0
 11 12  1  0  0  0  0
 11 13  1  0  0  0  0
 11 32  1  0  0  0  0
 12 33  1  0  0  0  0
 12 34  1  0  0  0  0
 12 35  1  0  0  0  0
 13 18  1  0  0  0  0
 13 14  1  0  0  0  0
 13 36  1  0  0  0  0
 14 15  1  0  0  0  0
 14 37  1  0  0  0  0
 14 38  1  0  0  0  0
 15 19  1  0  0  0  0
 15 16  1  0  0  0  0
 15 39  1  0  0  0  0
 16 17  1  0  0  0  0
 16 40  1  0  0  0  0
 16 41  1  0  0  0  0
 17 18  1  0  0  0  0
 17 42  1  0  0  0  0
 17 43  1  0  0  0  0
 18 19  1  0  0  0  0
 18 44  1  0  0  0  0
 19 45  1  0  0  0  0
 19 46  1  0  0  0  0
 20 21  2  0  0  0  0
 20 22  1  0  0  0  0
M  CHG  1  22  -1
M  END
> <s_m_source_file>
AV-unprocessed.smi

> <i_m_source_file_index>
2124

> <i_lp_mmshare_version>
43012

> <i_f3d_flags>
0

> <s_epik_input>
W0NIM11jMW5jKFtDSDNdKWMoYyg9TylbbkhdMSlbQ0gyXUMoPU8pW05IXVtDQEhdKFtDSDNdKVtDQEhdKFtDSDJdW0NASF0yMylbQ0BIXShbQ0gyXTMpW0NIMl1bQ0gyXTI=

> <s_epik_cmdline>
J2VwaWtfcHl0aG9uJywgJy1waCcsICc3LjAnLCAnLXRuJywgJzgnLCAnLW1hJywgJzIwMCcsICctbWV0YWxfYmluZGluZycsICctaW1hZScsICc8aW5maWxlLm1hZT4nLCAnLW9tYWUnLCAnPG91dGZpbGUubWFlPic=

> <r_lp_tautomer_probability>
0.839158

> <r_epik_Ionization_Penalty>
6.63797

> <r_epik_Ionization_Penalty_Charging>
7.48558e-08

> <r_epik_Ionization_Penalty_Neutral>
6.63797

> <r_epik_State_Penalty>
4.49496

> <r_epik_Charging_Adjusted_Penalty>
4.49496

> <i_epik_Tot_Q>
-1

> <i_epik_Tot_abs_Q>
1

> <r_epik_Metal_State_Penalty>
0.841241

> <b_epik_Metal_Only>
1

> <s_lp_Force_Field>
OPLS_2005

> <r_lp_Energy>
55.6811

> <b_lp_Chiralities_Consistent>
1

> <s_lp_Variant>
AV-unprocessed.smi:2124-19

> <Gold.Version>
5.8.1

> <Gold.Id.Protein>
6NUR|6NUR_protein|mol2

> <Gold.PLP.Fitness>
40.2554

> <Gold.PLP.PLP>
-31.5859

> <Gold.PLP.part.hbond>
-2.0000

> <Gold.PLP.part.metal>
0.0000

> <Gold.PLP.part.buried>
-4.0475

> <Gold.PLP.part.nonpolar>
-25.1235

> <Gold.PLP.part.repulsive>
0.0631

> <Gold.PLP.ligand.clash>
0.0000

> <Gold.PLP.ligand.torsion>
0.1809

> <Gold.PLP.Chemscore.Hbond>
3.0000

> <Gold.PLP.Chemscore.CHOScore>
0.0000

> <Gold.PLP.Chemscore.Metal>
0.0000

> <Gold.Chemscore.Hbonds>
donor molecule, donor type, donor heavy atom, donor atom, acceptor molecule, acceptor atom, score
      L1  H    10    31       P1  7948  1.00
      P1  H  7997  8009       L1    22  2.00

> <Gold.PLP.Chemscore.Internal.Correction>
0.0312

> <Gold.Rescore>
     Score         DG    S(hbond)    S(metal)    S(lipo)     H(rot)  DE(clash)    DE(int)     intcor
     14.03     -14.30       1.85        0.00      57.78       1.61       0.00       0.27       ----

> <Gold.Chemscore.Fitness>
14.0308

> <Gold.Chemscore.DG>
-14.3028

> <Gold.Chemscore.ZeroCoef>
-5.4800

> <Gold.Chemscore.Hbond>
1.8479

> <Gold.Chemscore.Metal>
0.0000

> <Gold.Chemscore.Lipo>
57.7763

> <Gold.Chemscore.Internal_Hbond>
0.0000

> <Gold.Chemscore.DEClash>
0.0000

> <Gold.Chemscore.DEInternal>
0.2719

> <Gold.Chemscore.Rot>
1.6051

> <Gold.Chemscore.Internal.Correction>
   9.000000E+99

> <Gold.Chemscore.Hbonds>
donor molecule, donor type, donor heavy atom, donor atom, acceptor molecule, acceptor atom, score
      L1  H    10    31       P1  7948  0.50
      P1  H  7997  8009       L1    22  0.88

> <Gold.Chemscore.Hbond.Weighted>
-6.1719

> <Gold.Chemscore.Metal.Weighted>
-0.0000

> <Gold.Chemscore.Lipo.Weighted>
-6.7598

> <Gold.Chemscore.Internal_Hbond.Weighted>
0.0000

> <Gold.Chemscore.DEClash.Weighted>
0.0000

> <Gold.Chemscore.DEInternal.Weighted>
0.2719

> <Gold.Chemscore.Rot.Weighted>
4.1090

> <Gold.Chemscore.Internal.Correction.Weighted>
   9.000000E+99

> <Gold.Protein.RotatedTorsions>
[ 6907 6896 6895 6894 ] final   14.30 input  -60.11 | X-H torsion
[ 7974 7965 7964 7962 ] final -164.26 input  175.53 | X-H torsion
[ 8008 7997 7996 7995 ] final  177.64 input   59.86 | X-H torsion
[ 10167 10162 10161 10158 ] final  -82.27 input  -65.29 | X-H torsion
[ 10718 10713 10712 10709 ] final    4.96 input   66.30 | X-H torsion
[ 10763 10752 10751 10750 ] final   36.07 input  -60.55 | X-H torsion
[ 11005 11000 10999 10996 ] final   -3.12 input  -57.11 | X-H torsion

> <Gold.Protein.ActiveResidues>
 VAL166  LYS551  ARG553  GLY616  TRP617  ASP618  TYR619  PRO620  LYS621  CYS622 
 ASP623  PHE694  ASN695  SER759  ASP760  ASP761  ALA762  ILE779  LEU786  VAL792 
 PHE793  MET794  SER795  GLU796  ALA797  LYS798  CYS799  TRP800  GLU811  SER814 

> <Gold.Protein.RotatedAtoms>
  151.8000  135.0711  160.0398 H   0  0  0  0  0  0  0  0  0  0  0  0  # atno 6907 bound_to 6896
  152.3095  133.5734  159.5680 H   0  0  0  0  0  0  0  0  0  0  0  0  # atno 6908 bound_to 6896
  150.7313  134.0088  159.3705 H   0  0  0  0  0  0  0  0  0  0  0  0  # atno 6909 bound_to 6896
  144.7302  140.2986  143.6208 H   0  0  0  0  0  0  0  0  0  0  0  0  # atno 7974 bound_to 7965
  156.0634  140.1353  156.9914 H   0  0  0  0  0  0  0  0  0  0  0  0  # atno 8008 bound_to 7997
  154.4493  140.0986  156.6622 H   0  0  0  0  0  0  0  0  0  0  0  0  # atno 8009 bound_to 7997
  155.5341  140.3459  155.4435 H   0  0  0  0  0  0  0  0  0  0  0  0  # atno 8010 bound_to 7997
  140.4335  143.2540  151.8726 H   0  0  0  0  0  0  0  0  0  0  0  0  # atno 10167 bound_to 10162
  156.9003  130.5719  149.5648 H   0  0  0  0  0  0  0  0  0  0  0  0  # atno 10718 bound_to 10713
  153.0092  135.6316  154.1927 H   0  0  0  0  0  0  0  0  0  0  0  0  # atno 10763 bound_to 10752
  154.1670  135.2820  155.3094 H   0  0  0  0  0  0  0  0  0  0  0  0  # atno 10764 bound_to 10752
  154.5938  135.5609  153.7365 H   0  0  0  0  0  0  0  0  0  0  0  0  # atno 10765 bound_to 10752
  140.6658  133.9279  155.8464 H   0  0  0  0  0  0  0  0  0  0  0  0  # atno 11005 bound_to 11000
  145.7783  139.1882  143.2172 LP  0  0  0  0  0  0  0  0  0  0  0  0  # atno 17320 bound_to 7965
  146.0855  140.7716  142.9621 LP  0  0  0  0  0  0  0  0  0  0  0  0  # atno 17321 bound_to 7965
  139.4786  144.5308  151.8669 LP  0  0  0  0  0  0  0  0  0  0  0  0  # atno 17342 bound_to 10162
  140.4400  144.2000  150.5891 LP  0  0  0  0  0  0  0  0  0  0  0  0  # atno 17343 bound_to 10162
  156.0585  130.5642  150.9143 LP  0  0  0  0  0  0  0  0  0  0  0  0  # atno 17370 bound_to 10713
  157.6030  131.0940  150.8928 LP  0  0  0  0  0  0  0  0  0  0  0  0  # atno 17371 bound_to 10713
  141.0430  134.0594  157.3879 LP  0  0  0  0  0  0  0  0  0  0  0  0  # atno 17394 bound_to 11000
  139.8997  135.0160  156.7210 LP  0  0  0  0  0  0  0  0  0  0  0  0  # atno 17395 bound_to 11000

$$$$
