AV-unprocessed.smi:699|AV-procd|sdf|3400|dock1
  -GOLD-   22720 0383D 1   1.00000     0.00000
 Structure written by MMmdl.
 34 35  0  0  0  0  0  0  0  0  1 V2000
  149.5799  137.4202  154.1559 N   0  0  0  0  0  0  0  0  0  0  0  0
  149.4085  138.7360  154.3050 C   0  0  0  0  0  0  0  0  0  0  0  0
  150.3253  139.5350  154.1215 O   0  0  0  0  0  0  0  0  0  0  0  0
  147.9980  139.2155  154.7115 C   0  0  1  0  0  0  0  0  0  0  0  0
  147.9295  140.7492  154.7556 C   0  0  0  0  0  0  0  0  0  0  0  0
  147.5514  141.1950  153.3395 C   0  0  0  0  0  0  0  0  0  0  0  0
  146.7811  140.0232  152.7162 C   0  0  0  0  0  0  0  0  0  0  0  0
  146.8678  138.8525  153.7128 C   0  0  1  0  0  0  0  0  0  0  0  0
  147.0488  137.5763  153.0187 N   0  0  0  0  0  0  0  0  0  0  0  0
  146.0570  136.7447  152.6686 C   0  0  0  0  0  0  0  0  0  0  0  0
  144.8699  136.9781  152.8945 O   0  0  0  0  0  0  0  0  0  0  0  0
  146.5376  135.6532  152.0476 N   0  0  0  0  0  0  0  0  0  0  0  0
  145.8336  134.5384  151.5142 C   0  0  0  0  0  0  0  0  0  0  0  0
  146.5958  133.4289  151.0934 C   0  0  0  0  0  0  0  0  0  0  0  0
  145.9287  132.3034  150.5700 C   0  0  0  0  0  0  0  0  0  0  0  0
  144.5866  132.2247  150.4538 N   0  0  0  0  0  0  0  0  0  0  0  0
  143.8570  133.2820  150.8674 C   0  0  0  0  0  0  0  0  0  0  0  0
  144.4240  134.4547  151.4059 C   0  0  0  0  0  0  0  0  0  0  0  0
  150.4847  137.0603  153.8890 H   0  0  0  0  0  0  0  0  0  0  0  0
  148.8059  136.7901  154.3081 H   0  0  0  0  0  0  0  0  0  0  0  0
  147.7668  138.8042  155.6958 H   0  0  0  0  0  0  0  0  0  0  0  0
  147.1476  141.0523  155.4534 H   0  0  0  0  0  0  0  0  0  0  0  0
  148.8562  141.2141  155.0957 H   0  0  0  0  0  0  0  0  0  0  0  0
  146.9649  142.1140  153.3484 H   0  0  0  0  0  0  0  0  0  0  0  0
  148.4530  141.3925  152.7584 H   0  0  0  0  0  0  0  0  0  0  0  0
  145.7411  140.2890  152.5248 H   0  0  0  0  0  0  0  0  0  0  0  0
  147.2282  139.7658  151.7549 H   0  0  0  0  0  0  0  0  0  0  0  0
  145.9271  138.8197  154.2663 H   0  0  0  0  0  0  0  0  0  0  0  0
  147.9974  137.3083  152.8001 H   0  0  0  0  0  0  0  0  0  0  0  0
  147.5355  135.6400  151.8964 H   0  0  0  0  0  0  0  0  0  0  0  0
  147.6737  133.4364  151.1645 H   0  0  0  0  0  0  0  0  0  0  0  0
  146.4892  131.4424  150.2371 H   0  0  0  0  0  0  0  0  0  0  0  0
  142.7854  133.1892  150.7721 H   0  0  0  0  0  0  0  0  0  0  0  0
  143.7684  135.2482  151.7280 H   0  0  0  0  0  0  0  0  0  0  0  0
  1  2  1  0  0  0  0
  1 19  1  0  0  0  0
  1 20  1  0  0  0  0
  2  3  2  0  0  0  0
  2  4  1  0  0  0  0
  4  8  1  0  0  0  0
  4  5  1  0  0  0  0
  4 21  1  0  0  0  0
  5  6  1  0  0  0  0
  5 22  1  0  0  0  0
  5 23  1  0  0  0  0
  6  7  1  0  0  0  0
  6 24  1  0  0  0  0
  6 25  1  0  0  0  0
  7  8  1  0  0  0  0
  7 26  1  0  0  0  0
  7 27  1  0  0  0  0
  8  9  1  0  0  0  0
  8 28  1  0  0  0  0
  9 10  1  0  0  0  0
  9 29  1  0  0  0  0
 10 11  2  0  0  0  0
 10 12  1  0  0  0  0
 12 13  1  0  0  0  0
 12 30  1  0  0  0  0
 13 18  1  0  0  0  0
 13 14  2  0  0  0  0
 14 15  1  0  0  0  0
 14 31  1  0  0  0  0
 15 16  2  0  0  0  0
 15 32  1  0  0  0  0
 16 17  1  0  0  0  0
 17 18  2  0  0  0  0
 17 33  1  0  0  0  0
 18 34  1  0  0  0  0
M  END
> <s_m_source_file>
AV-unprocessed.smi

> <i_m_source_file_index>
699

> <i_lp_mmshare_version>
43012

> <i_f3d_flags>
0

> <s_epik_input>
W05IMl1DKD1PKVtDQEBIXTFbQ0gyXVtDSDJdW0NIMl1bQ0BIXTFbTkhdQyg9TylbTkhdYzJbY0hdW2NIXW5bY0hdW2NIXTI=

> <s_epik_cmdline>
J2VwaWtfcHl0aG9uJywgJy1waCcsICc3LjAnLCAnLXRuJywgJzgnLCAnLW1hJywgJzIwMCcsICctbWV0YWxfYmluZGluZycsICctaW1hZScsICc8aW5maWxlLm1hZT4nLCAnLW9tYWUnLCAnPG91dGZpbGUubWFlPic=

> <r_epik_Ionization_Penalty>
0.113907

> <r_epik_Ionization_Penalty_Charging>
0

> <r_epik_Ionization_Penalty_Neutral>
0.113907

> <r_epik_State_Penalty>
0.103543

> <r_epik_Charging_Adjusted_Penalty>
0.103543

> <i_epik_Tot_Q>
0

> <i_epik_Tot_abs_Q>
0

> <r_epik_Metal_State_Penalty>
0.0867106

> <b_epik_Metal_Only>
0

> <s_lp_Force_Field>
OPLS_2005

> <r_lp_Energy>
19.4222

> <b_lp_Chiralities_Consistent>
1

> <s_lp_Variant>
AV-unprocessed.smi:699-2

> <Gold.Version>
5.8.1

> <Gold.Id.Protein>
6NUR|6NUR_protein|mol2

> <Gold.PLP.Fitness>
40.2037

> <Gold.PLP.PLP>
-26.5451

> <Gold.PLP.part.hbond>
-3.7837

> <Gold.PLP.part.metal>
0.0000

> <Gold.PLP.part.buried>
-3.3016

> <Gold.PLP.part.nonpolar>
-20.7091

> <Gold.PLP.part.repulsive>
1.0204

> <Gold.PLP.ligand.clash>
0.0000

> <Gold.PLP.ligand.torsion>
0.3860

> <Gold.PLP.Chemscore.Hbond>
2.8225

> <Gold.PLP.Chemscore.CHOScore>
1.9812

> <Gold.PLP.Chemscore.Metal>
0.0000

> <Gold.Chemscore.Hbonds>
donor molecule, donor type, donor heavy atom, donor atom, acceptor molecule, acceptor atom, score
      L1  H     9    29       P1  7948  0.88
      L1  H    12    30       P1  7948  0.93
      P1  H  7989  7998       L1     3  1.00
      L1  C    15    32       P1 10747  0.96
      L1  C    17    33       P1 10186  1.00

> <Gold.PLP.Chemscore.Internal.Correction>
0.0194

> <Gold.Rescore>
     Score         DG    S(hbond)    S(metal)    S(lipo)     H(rot)  DE(clash)    DE(int)     intcor
     15.21     -18.30       2.86        0.00      60.52       1.49       0.20       2.89       ----

> <Gold.Chemscore.Fitness>
15.2118

> <Gold.Chemscore.DG>
-18.2981

> <Gold.Chemscore.ZeroCoef>
-5.4800

> <Gold.Chemscore.Hbond>
2.8592

> <Gold.Chemscore.Metal>
0.0000

> <Gold.Chemscore.Lipo>
60.5179

> <Gold.Chemscore.Internal_Hbond>
0.0000

> <Gold.Chemscore.DEClash>
0.2006

> <Gold.Chemscore.DEInternal>
2.8858

> <Gold.Chemscore.Rot>
1.4892

> <Gold.Chemscore.Internal.Correction>
   9.000000E+99

> <Gold.Chemscore.Hbonds>
donor molecule, donor type, donor heavy atom, donor atom, acceptor molecule, acceptor atom, score
      L1  H     9    29       P1  7948  0.86
      L1  H    12    30       P1  7948  0.88
      P1  H  7989  7998       L1     3  0.98

> <Gold.Chemscore.Hbond.Weighted>
-9.5498

> <Gold.Chemscore.Metal.Weighted>
-0.0000

> <Gold.Chemscore.Lipo.Weighted>
-7.0806

> <Gold.Chemscore.Internal_Hbond.Weighted>
0.0000

> <Gold.Chemscore.DEClash.Weighted>
0.2006

> <Gold.Chemscore.DEInternal.Weighted>
2.8858

> <Gold.Chemscore.Rot.Weighted>
3.8123

> <Gold.Chemscore.Internal.Correction.Weighted>
   9.000000E+99

> <Gold.Protein.RotatedTorsions>
[ 6907 6896 6895 6894 ] final   59.08 input  -60.11 | X-H torsion
[ 7974 7965 7964 7962 ] final   71.62 input  175.53 | X-H torsion
[ 8008 7997 7996 7995 ] final  149.76 input   59.86 | X-H torsion
[ 10167 10162 10161 10158 ] final   22.30 input  -65.29 | X-H torsion
[ 10718 10713 10712 10709 ] final  128.67 input   66.30 | X-H torsion
[ 10763 10752 10751 10750 ] final  -65.01 input  -60.55 | X-H torsion
[ 11005 11000 10999 10996 ] final  144.96 input  -57.11 | X-H torsion

> <Gold.Protein.ActiveResidues>
 VAL166  LYS551  ARG553  GLY616  TRP617  ASP618  TYR619  PRO620  LYS621  CYS622 
 ASP623  PHE694  ASN695  SER759  ASP760  ASP761  ALA762  ILE779  LEU786  VAL792 
 PHE793  MET794  SER795  GLU796  ALA797  LYS798  CYS799  TRP800  GLU811  SER814 

> <Gold.Protein.RotatedAtoms>
  152.3882  134.6483  160.0117 H   0  0  0  0  0  0  0  0  0  0  0  0  # atno 6907 bound_to 6896
  151.6725  133.3308  159.3208 H   0  0  0  0  0  0  0  0  0  0  0  0  # atno 6908 bound_to 6896
  150.7804  134.6787  159.6476 H   0  0  0  0  0  0  0  0  0  0  0  0  # atno 6909 bound_to 6896
  145.7635  139.2811  143.1362 H   0  0  0  0  0  0  0  0  0  0  0  0  # atno 7974 bound_to 7965
  156.2742  140.2093  156.5909 H   0  0  0  0  0  0  0  0  0  0  0  0  # atno 8008 bound_to 7997
  154.6983  140.0523  157.0456 H   0  0  0  0  0  0  0  0  0  0  0  0  # atno 8009 bound_to 7997
  155.0770  140.3182  155.4616 H   0  0  0  0  0  0  0  0  0  0  0  0  # atno 8010 bound_to 7997
  140.5359  143.9762  150.6491 H   0  0  0  0  0  0  0  0  0  0  0  0  # atno 10167 bound_to 10162
  157.5223  131.1098  150.9134 H   0  0  0  0  0  0  0  0  0  0  0  0  # atno 10718 bound_to 10713
  154.3387  135.6161  153.5586 H   0  0  0  0  0  0  0  0  0  0  0  0  # atno 10763 bound_to 10752
  152.9806  135.5764  154.4878 H   0  0  0  0  0  0  0  0  0  0  0  0  # atno 10764 bound_to 10752
  154.4578  135.2855  155.1712 H   0  0  0  0  0  0  0  0  0  0  0  0  # atno 10765 bound_to 10752
  140.0674  134.9171  157.1287 H   0  0  0  0  0  0  0  0  0  0  0  0  # atno 11005 bound_to 11000
  146.0240  140.8321  142.9909 LP  0  0  0  0  0  0  0  0  0  0  0  0  # atno 17320 bound_to 7965
  144.6826  140.2671  143.7311 LP  0  0  0  0  0  0  0  0  0  0  0  0  # atno 17321 bound_to 7965
  140.3149  143.3174  152.0842 LP  0  0  0  0  0  0  0  0  0  0  0  0  # atno 17342 bound_to 10162
  139.4970  144.6612  151.6460 LP  0  0  0  0  0  0  0  0  0  0  0  0  # atno 17343 bound_to 10162
  156.9741  130.5502  149.5292 LP  0  0  0  0  0  0  0  0  0  0  0  0  # atno 17370 bound_to 10713
  156.0362  130.5449  150.8660 LP  0  0  0  0  0  0  0  0  0  0  0  0  # atno 17371 bound_to 10713
  140.3679  134.2423  155.7180 LP  0  0  0  0  0  0  0  0  0  0  0  0  # atno 17394 bound_to 11000
  141.1998  133.8002  157.0519 LP  0  0  0  0  0  0  0  0  0  0  0  0  # atno 17395 bound_to 11000

$$$$
