AV-unprocessed.smi:653|AV-procd|sdf|3204|dock10
  -GOLD-   22720 0143D 1   1.00000     0.00000
 Structure written by MMmdl.
 44 45  0  0  0  0  0  0  0  0  1 V2000
  143.9703  133.7470  150.7772 C   0  0  0  0  0  0  0  0  0  0  0  0
  145.1816  133.7817  151.6853 C   0  0  0  0  0  0  0  0  0  0  0  0
  145.3221  134.7880  152.6641 C   0  0  0  0  0  0  0  0  0  0  0  0
  146.4717  134.7763  153.4772 C   0  0  0  0  0  0  0  0  0  0  0  0
  147.4338  133.7638  153.2809 C   0  0  0  0  0  0  0  0  0  0  0  0
  148.6943  133.7087  154.1286 C   0  0  0  0  0  0  0  0  0  0  0  0
  148.8381  134.9330  155.0406 C   0  0  0  0  0  0  0  0  0  0  0  0
  148.8140  134.8218  156.2675 O   0  0  0  0  0  0  0  0  0  0  0  0
  148.9886  136.1100  154.4151 N   0  0  0  0  0  0  0  0  0  0  0  0
  149.1183  137.4015  155.0810 C   0  0  0  0  0  0  0  0  0  0  0  0
  150.3631  138.1726  154.5993 C   0  0  2  0  0  0  0  0  0  0  0  0
  151.6327  137.8482  155.3629 C   0  0  0  0  0  0  0  0  0  0  0  0
  152.5128  139.0454  155.0237 C   0  0  0  0  0  0  0  0  0  0  0  0
  151.6240  140.1514  154.9071 O   0  0  0  0  0  0  0  0  0  0  0  0
  150.2768  139.6931  154.8018 C   0  0  1  0  0  0  0  0  0  0  0  0
  149.5017  140.4809  153.7202 C   0  0  0  0  0  0  0  0  0  0  0  0
  149.3904  141.9874  154.0186 C   0  0  0  0  0  0  0  0  0  0  0  0
  148.1087  139.8725  153.4945 C   0  0  0  0  0  0  0  0  0  0  0  0
  147.1960  132.8035  152.2746 C   0  0  0  0  0  0  0  0  0  0  0  0
  146.0973  132.8075  151.4896 N   0  0  0  0  0  0  0  0  0  0  0  0
  143.1634  134.3629  151.1752 H   0  0  0  0  0  0  0  0  0  0  0  0
  143.5974  132.7275  150.6714 H   0  0  0  0  0  0  0  0  0  0  0  0
  144.2315  134.1223  149.7877 H   0  0  0  0  0  0  0  0  0  0  0  0
  144.5690  135.5518  152.7909 H   0  0  0  0  0  0  0  0  0  0  0  0
  146.6107  135.5303  154.2379 H   0  0  0  0  0  0  0  0  0  0  0  0
  148.6864  132.8068  154.7417 H   0  0  0  0  0  0  0  0  0  0  0  0
  149.5631  133.6384  153.4726 H   0  0  0  0  0  0  0  0  0  0  0  0
  149.0026  136.1133  153.4054 H   0  0  0  0  0  0  0  0  0  0  0  0
  148.2170  137.9945  154.9175 H   0  0  0  0  0  0  0  0  0  0  0  0
  149.1766  137.2240  156.1553 H   0  0  0  0  0  0  0  0  0  0  0  0
  150.5426  137.9483  153.5485 H   0  0  0  0  0  0  0  0  0  0  0  0
  151.4389  137.8187  156.4363 H   0  0  0  0  0  0  0  0  0  0  0  0
  152.0804  136.8984  155.0686 H   0  0  0  0  0  0  0  0  0  0  0  0
  153.2819  139.2266  155.7746 H   0  0  0  0  0  0  0  0  0  0  0  0
  153.0049  138.8939  154.0621 H   0  0  0  0  0  0  0  0  0  0  0  0
  149.8148  139.8762  155.7738 H   0  0  0  0  0  0  0  0  0  0  0  0
  150.0465  140.3744  152.7817 H   0  0  0  0  0  0  0  0  0  0  0  0
  148.8855  142.1705  154.9675 H   0  0  0  0  0  0  0  0  0  0  0  0
  148.8200  142.4959  153.2409 H   0  0  0  0  0  0  0  0  0  0  0  0
  150.3659  142.4701  154.0605 H   0  0  0  0  0  0  0  0  0  0  0  0
  147.4966  139.9381  154.3945 H   0  0  0  0  0  0  0  0  0  0  0  0
  148.1779  138.8210  153.2153 H   0  0  0  0  0  0  0  0  0  0  0  0
  147.5784  140.3888  152.6940 H   0  0  0  0  0  0  0  0  0  0  0  0
  147.9064  132.0105  152.0929 H   0  0  0  0  0  0  0  0  0  0  0  0
  1  2  1  0  0  0  0
  1 21  1  0  0  0  0
  1 22  1  0  0  0  0
  1 23  1  0  0  0  0
  2 20  1  0  0  0  0
  2  3  2  0  0  0  0
  3  4  1  0  0  0  0
  3 24  1  0  0  0  0
  4  5  2  0  0  0  0
  4 25  1  0  0  0  0
  5  6  1  0  0  0  0
  5 19  1  0  0  0  0
  6  7  1  0  0  0  0
  6 26  1  0  0  0  0
  6 27  1  0  0  0  0
  7  8  2  0  0  0  0
  7  9  1  0  0  0  0
  9 10  1  0  0  0  0
  9 28  1  0  0  0  0
 10 11  1  0  0  0  0
 10 29  1  0  0  0  0
 10 30  1  0  0  0  0
 11 15  1  0  0  0  0
 11 12  1  0  0  0  0
 11 31  1  0  0  0  0
 12 13  1  0  0  0  0
 12 32  1  0  0  0  0
 12 33  1  0  0  0  0
 13 14  1  0  0  0  0
 13 34  1  0  0  0  0
 13 35  1  0  0  0  0
 14 15  1  0  0  0  0
 15 16  1  0  0  0  0
 15 36  1  0  0  0  0
 16 17  1  0  0  0  0
 16 18  1  0  0  0  0
 16 37  1  0  0  0  0
 17 38  1  0  0  0  0
 17 39  1  0  0  0  0
 17 40  1  0  0  0  0
 18 41  1  0  0  0  0
 18 42  1  0  0  0  0
 18 43  1  0  0  0  0
 19 20  2  0  0  0  0
 19 44  1  0  0  0  0
M  END
> <s_m_source_file>
AV-unprocessed.smi

> <i_m_source_file_index>
653

> <i_lp_mmshare_version>
43012

> <i_f3d_flags>
0

> <s_epik_input>
W0NIM11jMVtjSF1bY0hdYyhbY0hdbjEpW0NIMl1DKD1PKVtOSF1bQ0gyXVtDQEBIXTJbQ0gyXVtDSDJdT1tDQEhdMltDSF0oW0NIM10pW0NIM10=

> <s_epik_cmdline>
J2VwaWtfcHl0aG9uJywgJy1waCcsICc3LjAnLCAnLXRuJywgJzgnLCAnLW1hJywgJzIwMCcsICctbWV0YWxfYmluZGluZycsICctaW1hZScsICc8aW5maWxlLm1hZT4nLCAnLW9tYWUnLCAnPG91dGZpbGUubWFlPic=

> <r_epik_Ionization_Penalty>
0.0166429

> <r_epik_Ionization_Penalty_Charging>
0

> <r_epik_Ionization_Penalty_Neutral>
0.0166429

> <r_epik_State_Penalty>
0.0131478

> <r_epik_Charging_Adjusted_Penalty>
0.0131478

> <i_epik_Tot_Q>
0

> <i_epik_Tot_abs_Q>
0

> <r_epik_Metal_State_Penalty>
0.012786

> <b_epik_Metal_Only>
0

> <s_lp_Force_Field>
OPLS_2005

> <r_lp_Energy>
19.6488

> <b_lp_Chiralities_Consistent>
1

> <s_lp_Variant>
AV-unprocessed.smi:653-1

> <Gold.Version>
5.8.1

> <Gold.Id.Protein>
6NUR|6NUR_protein|mol2

> <Gold.PLP.Fitness>
41.9649

> <Gold.PLP.PLP>
-33.7805

> <Gold.PLP.part.hbond>
-2.0000

> <Gold.PLP.part.metal>
0.0000

> <Gold.PLP.part.buried>
-0.2456

> <Gold.PLP.part.nonpolar>
-31.1659

> <Gold.PLP.part.repulsive>
0.2077

> <Gold.PLP.ligand.clash>
0.0384

> <Gold.PLP.ligand.torsion>
0.4052

> <Gold.PLP.Chemscore.Hbond>
2.0000

> <Gold.PLP.Chemscore.CHOScore>
1.0000

> <Gold.PLP.Chemscore.Metal>
0.0000

> <Gold.Chemscore.Hbonds>
donor molecule, donor type, donor heavy atom, donor atom, acceptor molecule, acceptor atom, score
      L1  H     9    28       P1  7948  0.99
      P1  H  7989  7998       L1    14  0.80
      L1  C    19    44       P1 10747  1.00

> <Gold.PLP.Chemscore.Internal.Correction>
0.0332

> <Gold.Rescore>
     Score         DG    S(hbond)    S(metal)    S(lipo)     H(rot)  DE(clash)    DE(int)     intcor
     15.99     -16.86       1.69        0.00      81.60       1.48       0.30       0.57       ----

> <Gold.Chemscore.Fitness>
15.9910

> <Gold.Chemscore.DG>
-16.8621

> <Gold.Chemscore.ZeroCoef>
-5.4800

> <Gold.Chemscore.Hbond>
1.6875

> <Gold.Chemscore.Metal>
0.0000

> <Gold.Chemscore.Lipo>
81.6016

> <Gold.Chemscore.Internal_Hbond>
0.0000

> <Gold.Chemscore.DEClash>
0.3019

> <Gold.Chemscore.DEInternal>
0.5692

> <Gold.Chemscore.Rot>
1.4850

> <Gold.Chemscore.Internal.Correction>
   9.000000E+99

> <Gold.Chemscore.Hbonds>
donor molecule, donor type, donor heavy atom, donor atom, acceptor molecule, acceptor atom, score
      L1  H     9    28       P1  7948  0.91
      P1  H  7989  7998       L1    14  0.10

> <Gold.Chemscore.Hbond.Weighted>
-5.6363

> <Gold.Chemscore.Metal.Weighted>
-0.0000

> <Gold.Chemscore.Lipo.Weighted>
-9.5474

> <Gold.Chemscore.Internal_Hbond.Weighted>
0.0000

> <Gold.Chemscore.DEClash.Weighted>
0.3019

> <Gold.Chemscore.DEInternal.Weighted>
0.5692

> <Gold.Chemscore.Rot.Weighted>
3.8015

> <Gold.Chemscore.Internal.Correction.Weighted>
   9.000000E+99

> <Gold.Protein.RotatedTorsions>
[ 6907 6896 6895 6894 ] final   96.81 input  -60.11 | X-H torsion
[ 7974 7965 7964 7962 ] final    2.29 input  175.53 | X-H torsion
[ 8008 7997 7996 7995 ] final   76.09 input   59.86 | X-H torsion
[ 10167 10162 10161 10158 ] final  144.48 input  -65.29 | X-H torsion
[ 10718 10713 10712 10709 ] final   60.88 input   66.30 | X-H torsion
[ 10763 10752 10751 10750 ] final -128.58 input  -60.55 | X-H torsion
[ 11005 11000 10999 10996 ] final  142.71 input  -57.11 | X-H torsion

> <Gold.Protein.ActiveResidues>
 VAL166  LYS551  ARG553  GLY616  TRP617  ASP618  TYR619  PRO620  LYS621  CYS622 
 ASP623  PHE694  ASN695  SER759  ASP760  ASP761  ALA762  ILE779  LEU786  VAL792 
 PHE793  MET794  SER795  GLU796  ALA797  LYS798  CYS799  TRP800  GLU811  SER814 

> <Gold.Protein.RotatedAtoms>
  152.5431  134.0830  159.8243 H   0  0  0  0  0  0  0  0  0  0  0  0  # atno 6907 bound_to 6896
  151.0929  133.5294  159.2621 H   0  0  0  0  0  0  0  0  0  0  0  0  # atno 6908 bound_to 6896
  151.2079  135.0478  159.8953 H   0  0  0  0  0  0  0  0  0  0  0  0  # atno 6909 bound_to 6896
  146.2443  140.0858  142.8354 H   0  0  0  0  0  0  0  0  0  0  0  0  # atno 7974 bound_to 7965
  155.8224  140.3469  155.5522 H   0  0  0  0  0  0  0  0  0  0  0  0  # atno 8008 bound_to 7997
  155.8328  140.0930  157.1802 H   0  0  0  0  0  0  0  0  0  0  0  0  # atno 8009 bound_to 7997
  154.4004  140.1409  156.3622 H   0  0  0  0  0  0  0  0  0  0  0  0  # atno 8010 bound_to 7997
  139.4946  144.5969  151.6564 H   0  0  0  0  0  0  0  0  0  0  0  0  # atno 10167 bound_to 10162
  157.5786  130.8963  149.9391 H   0  0  0  0  0  0  0  0  0  0  0  0  # atno 10718 bound_to 10713
  154.8756  135.3924  154.3779 H   0  0  0  0  0  0  0  0  0  0  0  0  # atno 10763 bound_to 10752
  153.4530  135.7028  153.6102 H   0  0  0  0  0  0  0  0  0  0  0  0  # atno 10764 bound_to 10752
  153.4633  135.3807  155.2319 H   0  0  0  0  0  0  0  0  0  0  0  0  # atno 10765 bound_to 10752
  140.0498  134.9262  157.0995 H   0  0  0  0  0  0  0  0  0  0  0  0  # atno 11005 bound_to 11000
  145.0693  140.9144  143.4891 LP  0  0  0  0  0  0  0  0  0  0  0  0  # atno 17320 bound_to 7965
  145.0989  139.2837  143.5696 LP  0  0  0  0  0  0  0  0  0  0  0  0  # atno 17321 bound_to 7965
  140.5609  144.0271  150.6169 LP  0  0  0  0  0  0  0  0  0  0  0  0  # atno 17342 bound_to 10162
  140.3356  143.3051  152.0642 LP  0  0  0  0  0  0  0  0  0  0  0  0  # atno 17343 bound_to 10162
  156.0831  130.3671  150.0541 LP  0  0  0  0  0  0  0  0  0  0  0  0  # atno 17370 bound_to 10713
  156.8683  130.9515  151.3611 LP  0  0  0  0  0  0  0  0  0  0  0  0  # atno 17371 bound_to 10713
  140.3936  134.2158  155.7165 LP  0  0  0  0  0  0  0  0  0  0  0  0  # atno 17394 bound_to 11000
  141.1924  133.8173  157.0839 LP  0  0  0  0  0  0  0  0  0  0  0  0  # atno 17395 bound_to 11000

$$$$
