AV-unprocessed.smi:2088|AV-procd|sdf|8527|dock8
  -GOLD-   2272011243D 1   1.00000     0.00000
 Structure written by MMmdl.
 33 34  0  0  0  0  0  0  0  0  1 V2000
  153.4716  138.7794  157.9551 O   0  0  0  0  0  0  0  0  0  0  0  0
  152.2578  138.9825  157.9630 C   0  0  0  0  0  0  0  0  0  0  0  0
  151.5828  139.5270  159.2210 C   0  0  0  0  0  0  0  0  0  0  0  0
  152.0627  140.8659  159.5114 N   0  0  0  0  0  0  0  0  0  0  0  0
  153.0191  141.2529  160.4253 C   0  0  0  0  0  0  0  0  0  0  0  0
  153.1557  142.6071  160.3197 C   0  0  0  0  0  0  0  0  0  0  0  0
  152.2309  142.9712  159.2980 C   0  0  0  0  0  0  0  0  0  0  0  0
  151.9456  144.3403  158.7396 C   0  0  0  0  0  0  0  0  0  0  0  0
  150.8711  144.3042  157.9516 F   0  0  0  0  0  0  0  0  0  0  0  0
  151.7187  145.1976  159.7349 F   0  0  0  0  0  0  0  0  0  0  0  0
  152.9872  144.7678  158.0260 F   0  0  0  0  0  0  0  0  0  0  0  0
  151.5771  141.9203  158.8210 N   0  0  0  0  0  0  0  0  0  0  0  0
  151.4619  138.7871  156.9003 N   0  0  0  0  0  0  0  0  0  0  0  0
  151.9115  138.4248  155.5610 C   0  0  0  0  0  0  0  0  0  0  0  0
  150.9336  138.9412  154.4923 C   0  0  1  0  0  0  0  0  0  0  0  0
  149.5343  138.3250  154.5402 C   0  0  0  0  0  0  0  0  0  0  0  0
  148.7109  139.3940  153.8606 C   0  0  0  0  0  0  0  0  0  0  0  0
  149.3601  140.6692  154.3913 C   0  0  0  0  0  0  0  0  0  0  0  0
  150.7244  140.3424  154.6455 O   0  0  0  0  0  0  0  0  0  0  0  0
  150.4987  139.5450  159.0976 H   0  0  0  0  0  0  0  0  0  0  0  0
  151.8015  138.8807  160.0720 H   0  0  0  0  0  0  0  0  0  0  0  0
  153.5211  140.5394  161.0621 H   0  0  0  0  0  0  0  0  0  0  0  0
  153.8213  143.2432  160.8839 H   0  0  0  0  0  0  0  0  0  0  0  0
  150.4767  138.9800  157.0099 H   0  0  0  0  0  0  0  0  0  0  0  0
  152.9191  138.7952  155.3660 H   0  0  0  0  0  0  0  0  0  0  0  0
  151.9702  137.3375  155.5072 H   0  0  0  0  0  0  0  0  0  0  0  0
  151.3556  138.7828  153.4984 H   0  0  0  0  0  0  0  0  0  0  0  0
  149.4766  137.3571  154.0406 H   0  0  0  0  0  0  0  0  0  0  0  0
  149.2034  138.1990  155.5722 H   0  0  0  0  0  0  0  0  0  0  0  0
  148.8349  139.3298  152.7787 H   0  0  0  0  0  0  0  0  0  0  0  0
  147.6466  139.3289  154.0886 H   0  0  0  0  0  0  0  0  0  0  0  0
  149.2735  141.5005  153.6916 H   0  0  0  0  0  0  0  0  0  0  0  0
  148.8969  140.9688  155.3319 H   0  0  0  0  0  0  0  0  0  0  0  0
  1  2  2  0  0  0  0
  2  3  1  0  0  0  0
  2 13  1  0  0  0  0
  3  4  1  0  0  0  0
  3 20  1  0  0  0  0
  3 21  1  0  0  0  0
  4 12  1  0  0  0  0
  4  5  1  0  0  0  0
  5  6  2  0  0  0  0
  5 22  1  0  0  0  0
  6  7  1  0  0  0  0
  6 23  1  0  0  0  0
  7  8  1  0  0  0  0
  7 12  2  0  0  0  0
  8  9  1  0  0  0  0
  8 10  1  0  0  0  0
  8 11  1  0  0  0  0
 13 14  1  0  0  0  0
 13 24  1  0  0  0  0
 14 15  1  0  0  0  0
 14 25  1  0  0  0  0
 14 26  1  0  0  0  0
 15 19  1  0  0  0  0
 15 16  1  0  0  0  0
 15 27  1  0  0  0  0
 16 17  1  0  0  0  0
 16 28  1  0  0  0  0
 16 29  1  0  0  0  0
 17 18  1  0  0  0  0
 17 30  1  0  0  0  0
 17 31  1  0  0  0  0
 18 19  1  0  0  0  0
 18 32  1  0  0  0  0
 18 33  1  0  0  0  0
M  END
> <s_m_source_file>
AV-unprocessed.smi

> <i_m_source_file_index>
2088

> <i_lp_mmshare_version>
43012

> <i_f3d_flags>
0

> <s_epik_input>
TzFbQ0gyXVtDSDJdW0NIMl1bQ0BIXTFbQ0gyXVtOSF1DKD1PKVtDSDJdbjJbY0hdW2NIXWMobjIpQyhGKShGKUY=

> <s_epik_cmdline>
J2VwaWtfcHl0aG9uJywgJy1waCcsICc3LjAnLCAnLXRuJywgJzgnLCAnLW1hJywgJzIwMCcsICctbWV0YWxfYmluZGluZycsICctaW1hZScsICc8aW5maWxlLm1hZT4nLCAnLW9tYWUnLCAnPG91dGZpbGUubWFlPic=

> <r_lp_tautomer_probability>
1

> <r_epik_Ionization_Penalty>
2.25732e-07

> <r_epik_Ionization_Penalty_Charging>
0

> <r_epik_Ionization_Penalty_Neutral>
2.25732e-07

> <r_epik_State_Penalty>
-0

> <r_epik_Charging_Adjusted_Penalty>
0

> <i_epik_Tot_Q>
0

> <i_epik_Tot_abs_Q>
0

> <r_epik_Metal_State_Penalty>
-0

> <b_epik_Metal_Only>
0

> <s_lp_Force_Field>
OPLS_2005

> <r_lp_Energy>
19.1857

> <b_lp_Chiralities_Consistent>
1

> <s_lp_Variant>
AV-unprocessed.smi:2088-2

> <Gold.Version>
5.8.1

> <Gold.Id.Protein>
6NUR|6NUR_protein|mol2

> <Gold.PLP.Fitness>
50.4803

> <Gold.PLP.PLP>
-46.2357

> <Gold.PLP.part.hbond>
-1.7023

> <Gold.PLP.part.metal>
0.0000

> <Gold.PLP.part.buried>
-4.7559

> <Gold.PLP.part.nonpolar>
-40.1363

> <Gold.PLP.part.repulsive>
0.1448

> <Gold.PLP.ligand.clash>
0.0000

> <Gold.PLP.ligand.torsion>
0.7810

> <Gold.PLP.Chemscore.Hbond>
1.9280

> <Gold.PLP.Chemscore.CHOScore>
0.0000

> <Gold.PLP.Chemscore.Metal>
0.0000

> <Gold.Chemscore.Hbonds>
donor molecule, donor type, donor heavy atom, donor atom, acceptor molecule, acceptor atom, score
      P1  H  7989  7998       L1    19  1.00
      P1  H  7997  8010       L1     1  0.73

> <Gold.PLP.Chemscore.Internal.Correction>
0.0226

> <Gold.Rescore>
     Score         DG    S(hbond)    S(metal)    S(lipo)     H(rot)  DE(clash)    DE(int)     intcor
     15.44     -16.52       1.81        0.00      84.16       1.89       0.88       0.20       ----

> <Gold.Chemscore.Fitness>
15.4408

> <Gold.Chemscore.DG>
-16.5211

> <Gold.Chemscore.ZeroCoef>
-5.4800

> <Gold.Chemscore.Hbond>
1.8085

> <Gold.Chemscore.Metal>
0.0000

> <Gold.Chemscore.Lipo>
84.1563

> <Gold.Chemscore.Internal_Hbond>
0.0000

> <Gold.Chemscore.DEClash>
0.8816

> <Gold.Chemscore.DEInternal>
0.1987

> <Gold.Chemscore.Rot>
1.8928

> <Gold.Chemscore.Internal.Correction>
   9.000000E+99

> <Gold.Chemscore.Hbonds>
donor molecule, donor type, donor heavy atom, donor atom, acceptor molecule, acceptor atom, score
      P1  H  7989  7998       L1    19  0.18
      P1  H  7997  8010       L1     1  0.70

> <Gold.Chemscore.Hbond.Weighted>
-6.0403

> <Gold.Chemscore.Metal.Weighted>
-0.0000

> <Gold.Chemscore.Lipo.Weighted>
-9.8463

> <Gold.Chemscore.Internal_Hbond.Weighted>
0.0000

> <Gold.Chemscore.DEClash.Weighted>
0.8816

> <Gold.Chemscore.DEInternal.Weighted>
0.1987

> <Gold.Chemscore.Rot.Weighted>
4.8455

> <Gold.Chemscore.Internal.Correction.Weighted>
   9.000000E+99

> <Gold.Protein.RotatedTorsions>
[ 6907 6896 6895 6894 ] final  101.15 input  -60.11 | X-H torsion
[ 7974 7965 7964 7962 ] final -142.23 input  175.53 | X-H torsion
[ 8008 7997 7996 7995 ] final    5.25 input   59.86 | X-H torsion
[ 10167 10162 10161 10158 ] final -179.01 input  -65.29 | X-H torsion
[ 10718 10713 10712 10709 ] final -138.01 input   66.30 | X-H torsion
[ 10763 10752 10751 10750 ] final  -55.94 input  -60.55 | X-H torsion
[ 11005 11000 10999 10996 ] final -125.62 input  -57.11 | X-H torsion

> <Gold.Protein.ActiveResidues>
 VAL166  LYS551  ARG553  GLY616  TRP617  ASP618  TYR619  PRO620  LYS621  CYS622 
 ASP623  PHE694  ASN695  SER759  ASP760  ASP761  ALA762  ILE779  LEU786  VAL792 
 PHE793  MET794  SER795  GLU796  ALA797  LYS798  CYS799  TRP800  GLU811  SER814 

> <Gold.Protein.RotatedAtoms>
  152.5356  134.0170  159.7963 H   0  0  0  0  0  0  0  0  0  0  0  0  # atno 6907 bound_to 6896
  151.0362  133.5738  159.2663 H   0  0  0  0  0  0  0  0  0  0  0  0  # atno 6908 bound_to 6896
  151.2724  135.0696  159.9193 H   0  0  0  0  0  0  0  0  0  0  0  0  # atno 6909 bound_to 6896
  144.8459  140.5983  143.5422 H   0  0  0  0  0  0  0  0  0  0  0  0  # atno 7974 bound_to 7965
  154.7260  140.2721  155.6498 H   0  0  0  0  0  0  0  0  0  0  0  0  # atno 8008 bound_to 7997
  156.2837  140.2725  156.1871 H   0  0  0  0  0  0  0  0  0  0  0  0  # atno 8009 bound_to 7997
  155.0444  140.0371  157.2511 H   0  0  0  0  0  0  0  0  0  0  0  0  # atno 8010 bound_to 7997
  139.5406  144.2375  152.0886 H   0  0  0  0  0  0  0  0  0  0  0  0  # atno 10167 bound_to 10162
  156.2946  130.7394  151.1429 H   0  0  0  0  0  0  0  0  0  0  0  0  # atno 10718 bound_to 10713
  154.1987  135.6415  153.5081 H   0  0  0  0  0  0  0  0  0  0  0  0  # atno 10763 bound_to 10752
  153.0017  135.5446  154.6338 H   0  0  0  0  0  0  0  0  0  0  0  0  # atno 10764 bound_to 10752
  154.5746  135.2920  155.0767 H   0  0  0  0  0  0  0  0  0  0  0  0  # atno 10765 bound_to 10752
  140.9747  134.0757  157.3831 H   0  0  0  0  0  0  0  0  0  0  0  0  # atno 11005 bound_to 11000
  145.4598  139.1514  143.3872 LP  0  0  0  0  0  0  0  0  0  0  0  0  # atno 17320 bound_to 7965
  146.2743  140.4728  142.8801 LP  0  0  0  0  0  0  0  0  0  0  0  0  # atno 17321 bound_to 7965
  140.1853  144.4805  150.6507 LP  0  0  0  0  0  0  0  0  0  0  0  0  # atno 17342 bound_to 10162
  140.6633  143.2259  151.5803 LP  0  0  0  0  0  0  0  0  0  0  0  0  # atno 17343 bound_to 10162
  157.7352  131.0575  150.5485 LP  0  0  0  0  0  0  0  0  0  0  0  0  # atno 17370 bound_to 10713
  156.5605  130.4254  149.6065 LP  0  0  0  0  0  0  0  0  0  0  0  0  # atno 17371 bound_to 10713
  139.8926  135.0125  156.6853 LP  0  0  0  0  0  0  0  0  0  0  0  0  # atno 17394 bound_to 11000
  140.7277  133.9086  155.8189 LP  0  0  0  0  0  0  0  0  0  0  0  0  # atno 17395 bound_to 11000

$$$$
