AV-unprocessed.smi:1492|AV-procd|sdf|6036|dock2
  -GOLD-   22720 6143D 1   1.00000     0.00000
 Structure written by MMmdl.
 52 53  0  0  0  0  0  0  0  0  1 V2000
  149.5238  137.9937  155.0834 C   0  0  0  0  0  0  0  0  0  0  0  0
  150.3989  138.6291  156.1809 C   0  0  0  0  0  0  0  0  0  0  0  0
  149.8303  138.6642  157.6410 C   0  0  1  0  0  0  0  0  0  0  0  0
  148.5125  139.4799  157.6315 C   0  0  0  0  0  0  0  0  0  0  0  0
  149.4651  137.2089  158.0635 C   0  0  0  0  0  0  0  0  0  0  0  0
  148.9393  137.1629  159.4218 N   0  0  0  0  0  0  0  0  0  0  0  0
  148.5727  136.0499  160.0692 C   0  0  0  0  0  0  0  0  0  0  0  0
  148.5613  134.9335  159.5518 O   0  0  0  0  0  0  0  0  0  0  0  0
  148.1754  136.2297  161.5337 C   0  0  0  0  0  0  0  0  0  0  0  0
  146.7917  135.6904  161.8944 C   0  0  0  0  0  0  0  0  0  0  0  0
  146.5498  134.3690  162.1386 C   0  0  0  0  0  0  0  0  0  0  0  0
  147.6329  133.3066  162.0694 C   0  0  0  0  0  0  0  0  0  0  0  0
  145.2693  133.9053  162.4705 N   0  0  0  0  0  0  0  0  0  0  0  0
  144.3005  134.7570  162.5487 C   0  0  0  0  0  0  0  0  0  0  0  0
  142.8742  134.3832  162.8921 C   0  0  0  0  0  0  0  0  0  0  0  0
  144.4813  136.1200  162.3198 N   0  0  0  0  0  0  0  0  0  0  0  0
  145.6797  136.6557  161.9966 C   0  0  0  0  0  0  0  0  0  0  0  0
  145.7912  137.8682  161.8202 O   0  0  0  0  0  0  0  0  0  0  0  0
  150.8498  139.2472  158.5674 N   0  0  0  0  0  0  0  0  0  0  0  0
  151.2474  140.6322  158.2773 C   0  0  0  0  0  0  0  0  0  0  0  0
  152.2033  141.2007  159.3398 C   0  0  0  0  0  0  0  0  0  0  0  0
  153.3500  140.3680  159.4497 O   0  0  0  0  0  0  0  0  0  0  0  0
  153.0124  139.0322  159.7993 C   0  0  0  0  0  0  0  0  0  0  0  0
  152.0666  138.4419  158.7399 C   0  0  0  0  0  0  0  0  0  0  0  0
  143.6881  136.7394  162.4009 H   0  0  0  0  0  0  0  0  0  0  0  0
  149.9915  138.1243  154.1074 H   0  0  0  0  0  0  0  0  0  0  0  0
  148.5360  138.4499  155.0307 H   0  0  0  0  0  0  0  0  0  0  0  0
  149.3995  136.9205  155.2283 H   0  0  0  0  0  0  0  0  0  0  0  0
  151.3602  138.1124  156.1782 H   0  0  0  0  0  0  0  0  0  0  0  0
  150.6102  139.6447  155.8473 H   0  0  0  0  0  0  0  0  0  0  0  0
  147.7649  139.0259  156.9817 H   0  0  0  0  0  0  0  0  0  0  0  0
  148.6615  140.4984  157.2742 H   0  0  0  0  0  0  0  0  0  0  0  0
  148.0593  139.5394  158.6206 H   0  0  0  0  0  0  0  0  0  0  0  0
  148.7480  136.7519  157.3826 H   0  0  0  0  0  0  0  0  0  0  0  0
  150.3388  136.5599  157.9962 H   0  0  0  0  0  0  0  0  0  0  0  0
  148.9008  138.0396  159.9220 H   0  0  0  0  0  0  0  0  0  0  0  0
  148.9385  135.7697  162.1633 H   0  0  0  0  0  0  0  0  0  0  0  0
  148.2224  137.2914  161.7766 H   0  0  0  0  0  0  0  0  0  0  0  0
  148.4541  133.5482  162.7441 H   0  0  0  0  0  0  0  0  0  0  0  0
  148.0264  133.2272  161.0558 H   0  0  0  0  0  0  0  0  0  0  0  0
  147.2462  132.3275  162.3549 H   0  0  0  0  0  0  0  0  0  0  0  0
  142.4874  133.6721  162.1616 H   0  0  0  0  0  0  0  0  0  0  0  0
  142.2190  135.2554  162.8991 H   0  0  0  0  0  0  0  0  0  0  0  0
  142.8351  133.9183  163.8774 H   0  0  0  0  0  0  0  0  0  0  0  0
  151.7322  140.6912  157.3031 H   0  0  0  0  0  0  0  0  0  0  0  0
  150.3828  141.2912  158.2439 H   0  0  0  0  0  0  0  0  0  0  0  0
  152.5201  142.2066  159.0637 H   0  0  0  0  0  0  0  0  0  0  0  0
  151.7043  141.2761  160.3072 H   0  0  0  0  0  0  0  0  0  0  0  0
  153.9253  138.4402  159.8629 H   0  0  0  0  0  0  0  0  0  0  0  0
  152.5481  139.0117  160.7865 H   0  0  0  0  0  0  0  0  0  0  0  0
  151.8260  137.4284  159.0535 H   0  0  0  0  0  0  0  0  0  0  0  0
  152.6041  138.3637  157.7950 H   0  0  0  0  0  0  0  0  0  0  0  0
  1  2  1  0  0  0  0
  1 26  1  0  0  0  0
  1 27  1  0  0  0  0
  1 28  1  0  0  0  0
  2  3  1  0  0  0  0
  2 29  1  0  0  0  0
  2 30  1  0  0  0  0
  3  4  1  0  0  0  0
  3  5  1  0  0  0  0
  3 19  1  0  0  0  0
  4 31  1  0  0  0  0
  4 32  1  0  0  0  0
  4 33  1  0  0  0  0
  5  6  1  0  0  0  0
  5 34  1  0  0  0  0
  5 35  1  0  0  0  0
  6  7  1  0  0  0  0
  6 36  1  0  0  0  0
  7  8  2  0  0  0  0
  7  9  1  0  0  0  0
  9 10  1  0  0  0  0
  9 37  1  0  0  0  0
  9 38  1  0  0  0  0
 10 17  1  0  0  0  0
 10 11  2  0  0  0  0
 11 12  1  0  0  0  0
 11 13  1  0  0  0  0
 12 39  1  0  0  0  0
 12 40  1  0  0  0  0
 12 41  1  0  0  0  0
 13 14  2  0  0  0  0
 14 15  1  0  0  0  0
 14 16  1  0  0  0  0
 15 42  1  0  0  0  0
 15 43  1  0  0  0  0
 15 44  1  0  0  0  0
 16 25  1  0  0  0  0
 16 17  1  0  0  0  0
 17 18  2  0  0  0  0
 19 24  1  0  0  0  0
 19 20  1  0  0  0  0
 20 21  1  0  0  0  0
 20 45  1  0  0  0  0
 20 46  1  0  0  0  0
 21 22  1  0  0  0  0
 21 47  1  0  0  0  0
 21 48  1  0  0  0  0
 22 23  1  0  0  0  0
 23 24  1  0  0  0  0
 23 49  1  0  0  0  0
 23 50  1  0  0  0  0
 24 51  1  0  0  0  0
 24 52  1  0  0  0  0
M  END
> <s_m_source_file>
AV-unprocessed.smi

> <i_m_source_file_index>
1492

> <i_lp_mmshare_version>
43012

> <i_f3d_flags>
0

> <s_epik_input>
W0NIMl0xW0NIMl1PW0NIMl1bQ0gyXU4xW0NAQF0oW0NIM10pKFtDSDJdW0NIM10pW0NIMl1bTkhdQyg9TylbQ0gyXWMyYyhbQ0gzXSluYyhbQ0gzXSlbbkhdYzI9Tw==

> <s_epik_cmdline>
J2VwaWtfcHl0aG9uJywgJy1waCcsICc3LjAnLCAnLXRuJywgJzgnLCAnLW1hJywgJzIwMCcsICctbWV0YWxfYmluZGluZycsICctaW1hZScsICc8aW5maWxlLm1hZT4nLCAnLW9tYWUnLCAnPG91dGZpbGUubWFlPic=

> <r_lp_tautomer_probability>
0.839158

> <r_epik_Ionization_Penalty>
0.328652

> <r_epik_Ionization_Penalty_Charging>
0.000364731

> <r_epik_Ionization_Penalty_Neutral>
0.328288

> <r_epik_State_Penalty>
0.414451

> <r_epik_Charging_Adjusted_Penalty>
0.414816

> <i_epik_Tot_Q>
0

> <i_epik_Tot_abs_Q>
0

> <r_epik_Metal_State_Penalty>
0.592978

> <b_epik_Metal_Only>
0

> <s_lp_Force_Field>
OPLS_2005

> <r_lp_Energy>
47.024

> <b_lp_Chiralities_Consistent>
1

> <s_lp_Variant>
AV-unprocessed.smi:1492-1

> <Gold.Version>
5.8.1

> <Gold.Id.Protein>
6NUR|6NUR_protein|mol2

> <Gold.PLP.Fitness>
40.7044

> <Gold.PLP.PLP>
-36.6050

> <Gold.PLP.part.hbond>
-2.0000

> <Gold.PLP.part.metal>
0.0000

> <Gold.PLP.part.buried>
-7.0313

> <Gold.PLP.part.nonpolar>
-27.3131

> <Gold.PLP.part.repulsive>
0.3614

> <Gold.PLP.ligand.clash>
0.0000

> <Gold.PLP.ligand.torsion>
0.3508

> <Gold.PLP.Chemscore.Hbond>
1.4848

> <Gold.PLP.Chemscore.CHOScore>
0.0000

> <Gold.PLP.Chemscore.Metal>
0.0000

> <Gold.Chemscore.Hbonds>
donor molecule, donor type, donor heavy atom, donor atom, acceptor molecule, acceptor atom, score
      P1  H  6896  6907       L1     8  0.73
      P1  H  6934  6947       L1    18  0.72

> <Gold.PLP.Chemscore.Internal.Correction>
0.3468

> <Gold.Rescore>
     Score         DG    S(hbond)    S(metal)    S(lipo)     H(rot)  DE(clash)    DE(int)     intcor
     15.35     -15.95       1.93        0.00      80.67       2.12       0.07       0.53       ----

> <Gold.Chemscore.Fitness>
15.3504

> <Gold.Chemscore.DG>
-15.9457

> <Gold.Chemscore.ZeroCoef>
-5.4800

> <Gold.Chemscore.Hbond>
1.9290

> <Gold.Chemscore.Metal>
0.0000

> <Gold.Chemscore.Lipo>
80.6708

> <Gold.Chemscore.Internal_Hbond>
0.0000

> <Gold.Chemscore.DEClash>
0.0699

> <Gold.Chemscore.DEInternal>
0.5255

> <Gold.Chemscore.Rot>
2.1155

> <Gold.Chemscore.Internal.Correction>
   9.000000E+99

> <Gold.Chemscore.Hbonds>
donor molecule, donor type, donor heavy atom, donor atom, acceptor molecule, acceptor atom, score
      P1  H  6896  6907       L1     8  0.16
      P1  H  6934  6947       L1    18  0.70

> <Gold.Chemscore.Hbond.Weighted>
-6.4429

> <Gold.Chemscore.Metal.Weighted>
-0.0000

> <Gold.Chemscore.Lipo.Weighted>
-9.4385

> <Gold.Chemscore.Internal_Hbond.Weighted>
0.0000

> <Gold.Chemscore.DEClash.Weighted>
0.0699

> <Gold.Chemscore.DEInternal.Weighted>
0.5255

> <Gold.Chemscore.Rot.Weighted>
5.4157

> <Gold.Chemscore.Internal.Correction.Weighted>
   9.000000E+99

> <Gold.Protein.RotatedTorsions>
[ 6907 6896 6895 6894 ] final  -72.04 input  -60.11 | X-H torsion
[ 7974 7965 7964 7962 ] final  -54.40 input  175.53 | X-H torsion
[ 8008 7997 7996 7995 ] final  -52.68 input   59.86 | X-H torsion
[ 10167 10162 10161 10158 ] final   78.48 input  -65.29 | X-H torsion
[ 10718 10713 10712 10709 ] final  138.44 input   66.30 | X-H torsion
[ 10763 10752 10751 10750 ] final -128.61 input  -60.55 | X-H torsion
[ 11005 11000 10999 10996 ] final    8.26 input  -57.11 | X-H torsion

> <Gold.Protein.ActiveResidues>
 VAL166  LYS551  ARG553  GLY616  TRP617  ASP618  TYR619  PRO620  LYS621  CYS622 
 ASP623  PHE694  ASN695  SER759  ASP760  ASP761  ALA762  ILE779  LEU786  VAL792 
 PHE793  MET794  SER795  GLU796  ALA797  LYS798  CYS799  TRP800  GLU811  SER814 

> <Gold.Protein.RotatedAtoms>
  150.7187  134.5221  159.5658 H   0  0  0  0  0  0  0  0  0  0  0  0  # atno 6907 bound_to 6896
  152.2774  134.7863  160.0412 H   0  0  0  0  0  0  0  0  0  0  0  0  # atno 6908 bound_to 6896
  151.8522  133.3406  159.3713 H   0  0  0  0  0  0  0  0  0  0  0  0  # atno 6909 bound_to 6896
  145.8860  140.8108  142.9816 H   0  0  0  0  0  0  0  0  0  0  0  0  # atno 7974 bound_to 7965
  154.4113  140.1218  156.5030 H   0  0  0  0  0  0  0  0  0  0  0  0  # atno 8008 bound_to 7997
  155.6875  140.3495  155.4861 H   0  0  0  0  0  0  0  0  0  0  0  0  # atno 8009 bound_to 7997
  155.9497  140.1102  157.0977 H   0  0  0  0  0  0  0  0  0  0  0  0  # atno 8010 bound_to 7997
  139.9705  144.5898  150.7989 H   0  0  0  0  0  0  0  0  0  0  0  0  # atno 10167 bound_to 10162
  157.4252  131.1043  151.0310 H   0  0  0  0  0  0  0  0  0  0  0  0  # atno 10718 bound_to 10713
  154.8756  135.3923  154.3784 H   0  0  0  0  0  0  0  0  0  0  0  0  # atno 10763 bound_to 10752
  153.4535  135.7028  153.6099 H   0  0  0  0  0  0  0  0  0  0  0  0  # atno 10764 bound_to 10752
  153.4629  135.3808  155.2317 H   0  0  0  0  0  0  0  0  0  0  0  0  # atno 10765 bound_to 10752
  140.5390  134.0393  155.7898 H   0  0  0  0  0  0  0  0  0  0  0  0  # atno 11005 bound_to 11000
  144.6728  140.1456  143.7434 LP  0  0  0  0  0  0  0  0  0  0  0  0  # atno 17320 bound_to 7965
  145.8966  139.2406  143.1518 LP  0  0  0  0  0  0  0  0  0  0  0  0  # atno 17321 bound_to 7965
  140.7523  143.2988  151.3133 LP  0  0  0  0  0  0  0  0  0  0  0  0  # atno 17342 bound_to 10162
  139.6485  144.0407  152.2608 LP  0  0  0  0  0  0  0  0  0  0  0  0  # atno 17343 bound_to 10162
  157.1226  130.6068  149.5509 LP  0  0  0  0  0  0  0  0  0  0  0  0  # atno 17370 bound_to 10713
  155.9894  130.4941  150.7213 LP  0  0  0  0  0  0  0  0  0  0  0  0  # atno 17371 bound_to 10713
  141.1238  133.9417  157.2676 LP  0  0  0  0  0  0  0  0  0  0  0  0  # atno 17394 bound_to 11000
  139.9514  135.0174  156.9004 LP  0  0  0  0  0  0  0  0  0  0  0  0  # atno 17395 bound_to 11000

$$$$
