AV-unprocessed.smi:2356|AV-procd|sdf|9397|dock5
  -GOLD-   2272013 33D 1   1.00000     0.00000
 Structure written by MMmdl.
 54 57  0  0  0  0  0  0  0  0  2 V2000
  147.1227  142.4850  153.8248 C   0  0  0  0  0  0  0  0  0  0  0  0
  148.2393  141.6223  154.3858 C   0  0  0  0  0  0  0  0  0  0  0  0
  149.1513  142.2240  155.1812 N   0  3  0  0  0  0  0  0  0  0  0  0
  150.1952  141.5823  155.7587 C   0  0  0  0  0  0  0  0  0  0  0  0
  151.0791  142.3220  156.5706 N   0  0  0  0  0  0  0  0  0  0  0  0
  151.0111  143.7739  156.5513 C   0  0  0  0  0  0  0  0  0  0  0  0
  151.9200  144.2440  157.6901 C   0  0  0  0  0  0  0  0  0  0  0  0
  152.1099  143.0200  158.5963 C   0  0  0  0  0  0  0  0  0  0  0  0
  151.3083  141.8928  157.9391 C   0  0  0  0  0  0  0  0  0  0  0  0
  150.3502  140.1979  155.5138 C   0  0  0  0  0  0  0  0  0  0  0  0
  149.4261  139.5234  154.6908 C   0  0  0  0  0  0  0  0  0  0  0  0
  148.3541  140.2405  154.1045 C   0  0  0  0  0  0  0  0  0  0  0  0
  147.3637  139.6382  153.2810 N   0  0  0  0  0  0  0  0  0  0  0  0
  146.7525  138.4453  153.4150 C   0  0  0  0  0  0  0  0  0  0  0  0
  146.9784  137.6397  154.3150 O   0  0  0  0  0  0  0  0  0  0  0  0
  145.8578  138.1769  152.4465 N   0  0  0  0  0  0  0  0  0  0  0  0
  145.0244  136.9824  152.2888 C   0  0  2  0  0  0  0  0  0  0  0  0
  143.8820  137.0067  153.3127 C   0  0  0  0  0  0  0  0  0  0  0  0
  143.0615  135.7100  153.2386 C   0  0  0  0  0  0  0  0  0  0  0  0
  143.9036  134.5763  153.4367 O   0  0  0  0  0  0  0  0  0  0  0  0
  144.9722  134.4378  152.4987 C   0  0  1  0  0  0  0  0  0  0  0  0
  144.4677  134.0493  151.1153 C   0  0  0  0  0  0  0  0  0  0  0  0
  143.6821  132.7747  150.9157 C   0  0  0  0  0  0  0  0  0  0  0  0
  145.0832  132.8918  150.3645 C   0  0  0  0  0  0  0  0  0  0  0  0
  145.8545  135.7014  152.4937 C   0  0  0  0  0  0  0  0  0  0  0  0
  146.1503  142.0911  154.1219 H   0  0  0  0  0  0  0  0  0  0  0  0
  147.1678  142.5033  152.7356 H   0  0  0  0  0  0  0  0  0  0  0  0
  147.1939  143.5124  154.1830 H   0  0  0  0  0  0  0  0  0  0  0  0
  151.3363  144.1770  155.5915 H   0  0  0  0  0  0  0  0  0  0  0  0
  149.9828  144.0935  156.7269 H   0  0  0  0  0  0  0  0  0  0  0  0
  152.8843  144.5666  157.2955 H   0  0  0  0  0  0  0  0  0  0  0  0
  151.4843  145.0885  158.2250 H   0  0  0  0  0  0  0  0  0  0  0  0
  153.1668  142.7549  158.6433 H   0  0  0  0  0  0  0  0  0  0  0  0
  151.7719  143.2066  159.6160 H   0  0  0  0  0  0  0  0  0  0  0  0
  150.3509  141.7577  158.4447 H   0  0  0  0  0  0  0  0  0  0  0  0
  151.8543  140.9497  157.9777 H   0  0  0  0  0  0  0  0  0  0  0  0
  151.1654  139.6391  155.9489 H   0  0  0  0  0  0  0  0  0  0  0  0
  149.5543  138.4631  154.5399 H   0  0  0  0  0  0  0  0  0  0  0  0
  147.1289  140.1542  152.4456 H   0  0  0  0  0  0  0  0  0  0  0  0
  145.7420  138.8852  151.7359 H   0  0  0  0  0  0  0  0  0  0  0  0
  144.5786  136.9789  151.2930 H   0  0  0  0  0  0  0  0  0  0  0  0
  144.2854  137.1184  154.3203 H   0  0  0  0  0  0  0  0  0  0  0  0
  143.2341  137.8665  153.1379 H   0  0  0  0  0  0  0  0  0  0  0  0
  142.2963  135.7111  154.0148 H   0  0  0  0  0  0  0  0  0  0  0  0
  142.5347  135.6368  152.2871 H   0  0  0  0  0  0  0  0  0  0  0  0
  145.5837  133.6101  152.8606 H   0  0  0  0  0  0  0  0  0  0  0  0
  144.1587  134.8889  150.4969 H   0  0  0  0  0  0  0  0  0  0  0  0
  143.5345  132.1293  151.7792 H   0  0  0  0  0  0  0  0  0  0  0  0
  142.8572  132.8003  150.2066 H   0  0  0  0  0  0  0  0  0  0  0  0
  145.1921  132.9935  149.2867 H   0  0  0  0  0  0  0  0  0  0  0  0
  145.8676  132.3238  150.8608 H   0  0  0  0  0  0  0  0  0  0  0  0
  146.6281  135.6117  151.7305 H   0  0  0  0  0  0  0  0  0  0  0  0
  146.3770  135.7645  153.4492 H   0  0  0  0  0  0  0  0  0  0  0  0
  149.0445  143.2225  155.3600 H   0  0  0  0  0  0  0  0  0  0  0  0
  1  2  1  0  0  0  0
  1 26  1  0  0  0  0
  1 27  1  0  0  0  0
  1 28  1  0  0  0  0
  2 12  1  0  0  0  0
  2  3  2  0  0  0  0
  3  4  1  0  0  0  0
  3 54  1  0  0  0  0
  4  5  1  0  0  0  0
  4 10  2  0  0  0  0
  5  9  1  0  0  0  0
  5  6  1  0  0  0  0
  6  7  1  0  0  0  0
  6 29  1  0  0  0  0
  6 30  1  0  0  0  0
  7  8  1  0  0  0  0
  7 31  1  0  0  0  0
  7 32  1  0  0  0  0
  8  9  1  0  0  0  0
  8 33  1  0  0  0  0
  8 34  1  0  0  0  0
  9 35  1  0  0  0  0
  9 36  1  0  0  0  0
 10 11  1  0  0  0  0
 10 37  1  0  0  0  0
 11 12  2  0  0  0  0
 11 38  1  0  0  0  0
 12 13  1  0  0  0  0
 13 14  1  0  0  0  0
 13 39  1  0  0  0  0
 14 15  2  0  0  0  0
 14 16  1  0  0  0  0
 16 17  1  0  0  0  0
 16 40  1  0  0  0  0
 17 25  1  0  0  0  0
 17 18  1  0  0  0  0
 17 41  1  0  0  0  0
 18 19  1  0  0  0  0
 18 42  1  0  0  0  0
 18 43  1  0  0  0  0
 19 20  1  0  0  0  0
 19 44  1  0  0  0  0
 19 45  1  0  0  0  0
 20 21  1  0  0  0  0
 21 22  1  0  0  0  0
 21 25  1  0  0  0  0
 21 46  1  0  0  0  0
 22 24  1  0  0  0  0
 22 23  1  0  0  0  0
 22 47  1  0  0  0  0
 23 24  1  0  0  0  0
 23 48  1  0  0  0  0
 23 49  1  0  0  0  0
 24 50  1  0  0  0  0
 24 51  1  0  0  0  0
 25 52  1  0  0  0  0
 25 53  1  0  0  0  0
M  CHG  1   3   1
M  END
> <s_m_source_file>
AV-unprocessed.smi

> <i_m_source_file_index>
2356

> <i_lp_mmshare_version>
43012

> <i_f3d_flags>
0

> <s_epik_input>
W0NIMl0xW0NIMl1bQ0gyXVtDSDJdTjFjKG5jMltDSDNdKVtjSF1bY0hdYzJbTkhdQyg9TylbTkhdW0NAQEhdM1tDSDJdW0NIMl1PW0NASF0oW0NIMl0zKVtDSF00W0NIMl1bQ0gyXTQ=

> <s_epik_cmdline>
J2VwaWtfcHl0aG9uJywgJy1waCcsICc3LjAnLCAnLXRuJywgJzgnLCAnLW1hJywgJzIwMCcsICctbWV0YWxfYmluZGluZycsICctaW1hZScsICc8aW5maWxlLm1hZT4nLCAnLW9tYWUnLCAnPG91dGZpbGUubWFlPic=

> <r_lp_tautomer_probability>
0.999994

> <r_epik_Ionization_Penalty>
0.534681

> <r_epik_Ionization_Penalty_Charging>
0.534661

> <r_epik_Ionization_Penalty_Neutral>
1.99132e-05

> <r_epik_State_Penalty>
0.543738

> <r_epik_Charging_Adjusted_Penalty>
1.0784

> <i_epik_Tot_Q>
1

> <i_epik_Tot_abs_Q>
1

> <r_epik_Metal_State_Penalty>
0.74699

> <b_epik_Metal_Only>
0

> <s_lp_Force_Field>
OPLS_2005

> <r_lp_Energy>
60.0457

> <b_lp_Chiralities_Consistent>
1

> <s_lp_Variant>
AV-unprocessed.smi:2356-5

> <Gold.Version>
5.8.1

> <Gold.Id.Protein>
6NUR|6NUR_protein|mol2

> <Gold.PLP.Fitness>
47.7715

> <Gold.PLP.PLP>
-43.0522

> <Gold.PLP.part.hbond>
-2.3956

> <Gold.PLP.part.metal>
0.0000

> <Gold.PLP.part.buried>
-1.7912

> <Gold.PLP.part.nonpolar>
-39.9702

> <Gold.PLP.part.repulsive>
0.5423

> <Gold.PLP.ligand.clash>
0.0000

> <Gold.PLP.ligand.torsion>
1.3114

> <Gold.PLP.Chemscore.Hbond>
2.0000

> <Gold.PLP.Chemscore.CHOScore>
0.0000

> <Gold.PLP.Chemscore.Metal>
0.0000

> <Gold.Chemscore.Hbonds>
donor molecule, donor type, donor heavy atom, donor atom, acceptor molecule, acceptor atom, score
      L1  H     3    54       P1  8028  1.98

> <Gold.PLP.Chemscore.Internal.Correction>
1.3423

> <Gold.Rescore>
     Score         DG    S(hbond)    S(metal)    S(lipo)     H(rot)  DE(clash)    DE(int)     intcor
     16.69     -19.13       1.05        0.00     115.29       1.31       0.60       1.84       ----

> <Gold.Chemscore.Fitness>
16.6853

> <Gold.Chemscore.DG>
-19.1260

> <Gold.Chemscore.ZeroCoef>
-5.4800

> <Gold.Chemscore.Hbond>
1.0479

> <Gold.Chemscore.Metal>
0.0000

> <Gold.Chemscore.Lipo>
115.2943

> <Gold.Chemscore.Internal_Hbond>
0.0000

> <Gold.Chemscore.DEClash>
0.6045

> <Gold.Chemscore.DEInternal>
1.8362

> <Gold.Chemscore.Rot>
1.3060

> <Gold.Chemscore.Internal.Correction>
   9.000000E+99

> <Gold.Chemscore.Hbonds>
donor molecule, donor type, donor heavy atom, donor atom, acceptor molecule, acceptor atom, score
      L1  H     3    54       P1  8028  0.92

> <Gold.Chemscore.Hbond.Weighted>
-3.4998

> <Gold.Chemscore.Metal.Weighted>
-0.0000

> <Gold.Chemscore.Lipo.Weighted>
-13.4894

> <Gold.Chemscore.Internal_Hbond.Weighted>
0.0000

> <Gold.Chemscore.DEClash.Weighted>
0.6045

> <Gold.Chemscore.DEInternal.Weighted>
1.8362

> <Gold.Chemscore.Rot.Weighted>
3.3433

> <Gold.Chemscore.Internal.Correction.Weighted>
   9.000000E+99

> <Gold.Protein.RotatedTorsions>
[ 6907 6896 6895 6894 ] final  -17.87 input  -60.11 | X-H torsion
[ 7974 7965 7964 7962 ] final  -26.10 input  175.53 | X-H torsion
[ 8008 7997 7996 7995 ] final  103.76 input   59.86 | X-H torsion
[ 10167 10162 10161 10158 ] final  154.57 input  -65.29 | X-H torsion
[ 10718 10713 10712 10709 ] final   71.50 input   66.30 | X-H torsion
[ 10763 10752 10751 10750 ] final    6.50 input  -60.55 | X-H torsion
[ 11005 11000 10999 10996 ] final   -2.49 input  -57.11 | X-H torsion

> <Gold.Protein.ActiveResidues>
 VAL166  LYS551  ARG553  GLY616  TRP617  ASP618  TYR619  PRO620  LYS621  CYS622 
 ASP623  PHE694  ASN695  SER759  ASP760  ASP761  ALA762  ILE779  LEU786  VAL792 
 PHE793  MET794  SER795  GLU796  ALA797  LYS798  CYS799  TRP800  GLU811  SER814 

> <Gold.Protein.RotatedAtoms>
  151.2868  135.0730  159.9189 H   0  0  0  0  0  0  0  0  0  0  0  0  # atno 6907 bound_to 6896
  152.5324  133.9973  159.7889 H   0  0  0  0  0  0  0  0  0  0  0  0  # atno 6908 bound_to 6896
  151.0236  133.5803  159.2699 H   0  0  0  0  0  0  0  0  0  0  0  0  # atno 6909 bound_to 6896
  146.1448  140.4975  142.8636 H   0  0  0  0  0  0  0  0  0  0  0  0  # atno 7974 bound_to 7965
  156.1513  140.3159  155.8652 H   0  0  0  0  0  0  0  0  0  0  0  0  # atno 8008 bound_to 7997
  155.3966  140.0497  157.3055 H   0  0  0  0  0  0  0  0  0  0  0  0  # atno 8009 bound_to 7997
  154.5061  140.2147  155.9260 H   0  0  0  0  0  0  0  0  0  0  0  0  # atno 8010 bound_to 7997
  139.4823  144.5175  151.7929 H   0  0  0  0  0  0  0  0  0  0  0  0  # atno 10167 bound_to 10162
  157.6455  130.9531  150.0798 H   0  0  0  0  0  0  0  0  0  0  0  0  # atno 10718 bound_to 10713
  153.2470  135.6909  153.7720 H   0  0  0  0  0  0  0  0  0  0  0  0  # atno 10763 bound_to 10752
  153.6829  135.3325  155.3183 H   0  0  0  0  0  0  0  0  0  0  0  0  # atno 10764 bound_to 10752
  154.8379  135.4526  154.1413 H   0  0  0  0  0  0  0  0  0  0  0  0  # atno 10765 bound_to 10752
  140.6589  133.9338  155.8424 H   0  0  0  0  0  0  0  0  0  0  0  0  # atno 11005 bound_to 11000
  144.7833  140.5885  143.6590 LP  0  0  0  0  0  0  0  0  0  0  0  0  # atno 17320 bound_to 7965
  145.4964  139.1485  143.3681 LP  0  0  0  0  0  0  0  0  0  0  0  0  # atno 17321 bound_to 7965
  140.4685  144.1621  150.5915 LP  0  0  0  0  0  0  0  0  0  0  0  0  # atno 17342 bound_to 10162
  140.4408  143.2527  151.9475 LP  0  0  0  0  0  0  0  0  0  0  0  0  # atno 17343 bound_to 10162
  156.1778  130.3649  149.9077 LP  0  0  0  0  0  0  0  0  0  0  0  0  # atno 17370 bound_to 10713
  156.7037  130.8943  151.3602 LP  0  0  0  0  0  0  0  0  0  0  0  0  # atno 17371 bound_to 10713
  141.0480  134.0526  157.3819 LP  0  0  0  0  0  0  0  0  0  0  0  0  # atno 17394 bound_to 11000
  139.9020  135.0167  156.7312 LP  0  0  0  0  0  0  0  0  0  0  0  0  # atno 17395 bound_to 11000

$$$$
