AV-unprocessed.smi:2021|AV-procd|sdf|8182|dock7
  -GOLD-   2272010433D 1   1.00000     0.00000
 Structure written by MMmdl.
 41 42  0  0  0  0  0  0  0  0  3 V2000
  144.3840  136.4164  152.1746 C   0  0  0  0  0  0  0  0  0  0  0  0
  145.5388  135.4244  151.9696 C   0  0  0  0  0  0  0  0  0  0  0  0
  145.0585  134.2016  151.1700 C   0  0  0  0  0  0  0  0  0  0  0  0
  146.1550  135.0230  153.3275 C   0  0  0  0  0  0  0  0  0  0  0  0
  147.5349  134.4783  153.2061 N   0  3  2  0  0  0  0  0  0  0  0  0
  147.6058  133.2083  152.4430 C   0  0  0  0  0  0  0  0  0  0  0  0
  147.1673  132.0149  153.3095 C   0  0  0  0  0  0  0  0  0  0  0  0
  147.9771  131.9659  154.4755 O   0  0  0  0  0  0  0  0  0  0  0  0
  147.8272  133.1196  155.2974 C   0  0  1  0  0  0  0  0  0  0  0  0
  148.6698  132.9385  156.5718 C   0  0  0  0  0  0  0  0  0  0  0  0
  147.8856  133.1998  157.7742 N   0  0  0  0  0  0  0  0  0  0  0  0
  148.2006  134.0667  158.7467 C   0  0  0  0  0  0  0  0  0  0  0  0
  149.2252  134.7472  158.6584 O   0  0  0  0  0  0  0  0  0  0  0  0
  147.3096  134.0887  159.7631 N   0  5  0  0  0  0  0  0  0  0  0  0
  147.4732  134.9515  160.7798 C   0  0  0  0  0  0  0  0  0  0  0  0
  147.8761  136.2180  160.5887 N   0  0  0  0  0  0  0  0  0  0  0  0
  147.9808  136.9417  161.7690 N   0  0  0  0  0  0  0  0  0  0  0  0
  147.6604  136.1959  162.8262 C   0  0  0  0  0  0  0  0  0  0  0  0
  147.2092  134.5404  162.4769 S   0  0  0  0  0  0  0  0  0  0  0  0
  148.2770  134.3562  154.4881 C   0  0  0  0  0  0  0  0  0  0  0  0
  143.5767  135.9718  152.7578 H   0  0  0  0  0  0  0  0  0  0  0  0
  143.9658  136.7370  151.2199 H   0  0  0  0  0  0  0  0  0  0  0  0
  144.7212  137.3102  152.7003 H   0  0  0  0  0  0  0  0  0  0  0  0
  146.2898  135.9404  151.3725 H   0  0  0  0  0  0  0  0  0  0  0  0
  144.2979  133.6430  151.7166 H   0  0  0  0  0  0  0  0  0  0  0  0
  145.8793  133.5191  150.9491 H   0  0  0  0  0  0  0  0  0  0  0  0
  144.6254  134.5040  150.2158 H   0  0  0  0  0  0  0  0  0  0  0  0
  146.1474  135.8703  154.0130 H   0  0  0  0  0  0  0  0  0  0  0  0
  145.5097  134.2684  153.7798 H   0  0  0  0  0  0  0  0  0  0  0  0
  147.0099  133.2685  151.5318 H   0  0  0  0  0  0  0  0  0  0  0  0
  148.6377  133.0582  152.1229 H   0  0  0  0  0  0  0  0  0  0  0  0
  146.1128  132.0837  153.5807 H   0  0  0  0  0  0  0  0  0  0  0  0
  147.2922  131.0839  152.7564 H   0  0  0  0  0  0  0  0  0  0  0  0
  146.7812  133.2235  155.5893 H   0  0  0  0  0  0  0  0  0  0  0  0
  149.1188  131.9444  156.6043 H   0  0  0  0  0  0  0  0  0  0  0  0
  149.4976  133.6479  156.5673 H   0  0  0  0  0  0  0  0  0  0  0  0
  147.0347  132.6689  157.8892 H   0  0  0  0  0  0  0  0  0  0  0  0
  147.6945  136.6215  163.8179 H   0  0  0  0  0  0  0  0  0  0  0  0
  149.3379  134.2630  154.2515 H   0  0  0  0  0  0  0  0  0  0  0  0
  148.1818  135.2617  155.0855 H   0  0  0  0  0  0  0  0  0  0  0  0
  148.0332  135.1584  152.6498 H   0  0  0  0  0  0  0  0  0  0  0  0
  1  2  1  0  0  0  0
  1 21  1  0  0  0  0
  1 22  1  0  0  0  0
  1 23  1  0  0  0  0
  2  3  1  0  0  0  0
  2  4  1  0  0  0  0
  2 24  1  0  0  0  0
  3 25  1  0  0  0  0
  3 26  1  0  0  0  0
  3 27  1  0  0  0  0
  4  5  1  0  0  0  0
  4 28  1  0  0  0  0
  4 29  1  0  0  0  0
  5 20  1  0  0  0  0
  5  6  1  0  0  0  0
  5 41  1  0  0  0  0
  6  7  1  0  0  0  0
  6 30  1  0  0  0  0
  6 31  1  0  0  0  0
  7  8  1  0  0  0  0
  7 32  1  0  0  0  0
  7 33  1  0  0  0  0
  8  9  1  0  0  0  0
  9 10  1  0  0  0  0
  9 20  1  0  0  0  0
  9 34  1  0  0  0  0
 10 11  1  0  0  0  0
 10 35  1  0  0  0  0
 10 36  1  0  0  0  0
 11 12  1  0  0  0  0
 11 37  1  0  0  0  0
 12 13  2  0  0  0  0
 12 14  1  0  0  0  0
 14 15  1  0  0  0  0
 15 19  1  0  0  0  0
 15 16  2  0  0  0  0
 16 17  1  0  0  0  0
 17 18  2  0  0  0  0
 18 19  1  0  0  0  0
 18 38  1  0  0  0  0
 20 39  1  0  0  0  0
 20 40  1  0  0  0  0
M  CHG  1   5   1
M  CHG  1  14  -1
M  END
> <s_m_source_file>
AV-unprocessed.smi

> <i_m_source_file_index>
2021

> <i_lp_mmshare_version>
43012

> <i_f3d_flags>
0

> <s_epik_input>
W0NIM11bQ0hdKFtDSDNdKVtDSDJdTjFbQ0gyXVtDSDJdT1tDQEhdKFtDSDJdMSlbQ0gyXVtOSF1DKD1PKVtOSF1jMm5uW2NIXXMy

> <s_epik_cmdline>
J2VwaWtfcHl0aG9uJywgJy1waCcsICc3LjAnLCAnLXRuJywgJzgnLCAnLW1hJywgJzIwMCcsICctbWV0YWxfYmluZGluZycsICctaW1hZScsICc8aW5maWxlLm1hZT4nLCAnLW9tYWUnLCAnPG91dGZpbGUubWFlPic=

> <r_lp_tautomer_probability>
1

> <r_epik_Ionization_Penalty>
3.15762

> <r_epik_Ionization_Penalty_Charging>
3.12229

> <r_epik_Ionization_Penalty_Neutral>
0.0353298

> <r_epik_State_Penalty>
3.11266

> <r_epik_Charging_Adjusted_Penalty>
6.23495

> <i_epik_Tot_Q>
0

> <i_epik_Tot_abs_Q>
2

> <r_epik_Metal_State_Penalty>
0.541462

> <b_epik_Metal_Only>
1

> <s_lp_Force_Field>
OPLS_2005

> <r_lp_Energy>
12.8808

> <b_lp_Chiralities_Consistent>
1

> <s_lp_Variant>
AV-unprocessed.smi:2021-8

> <Gold.Version>
5.8.1

> <Gold.Id.Protein>
6NUR|6NUR_protein|mol2

> <Gold.PLP.Fitness>
41.8499

> <Gold.PLP.PLP>
-29.9094

> <Gold.PLP.part.hbond>
-4.0000

> <Gold.PLP.part.metal>
0.0000

> <Gold.PLP.part.buried>
-4.1455

> <Gold.PLP.part.nonpolar>
-22.4379

> <Gold.PLP.part.repulsive>
0.0802

> <Gold.PLP.ligand.clash>
0.0000

> <Gold.PLP.ligand.torsion>
1.2604

> <Gold.PLP.Chemscore.Hbond>
4.7760

> <Gold.PLP.Chemscore.CHOScore>
0.0000

> <Gold.PLP.Chemscore.Metal>
0.0000

> <Gold.Chemscore.Hbonds>
donor molecule, donor type, donor heavy atom, donor atom, acceptor molecule, acceptor atom, score
      L1  H     5    41       P1  7948  2.00
      P1  H  6896  6907       L1    13  1.00
      P1  H  6931  6943       L1    17  1.00
      P1  H  6934  6947       L1    17  0.08

> <Gold.PLP.Chemscore.Internal.Correction>
0.1333

> <Gold.Rescore>
     Score         DG    S(hbond)    S(metal)    S(lipo)     H(rot)  DE(clash)    DE(int)     intcor
     14.23     -17.42       2.95        0.00      58.20       1.85       0.03       3.16       ----

> <Gold.Chemscore.Fitness>
14.2255

> <Gold.Chemscore.DG>
-17.4212

> <Gold.Chemscore.ZeroCoef>
-5.4800

> <Gold.Chemscore.Hbond>
2.9520

> <Gold.Chemscore.Metal>
0.0000

> <Gold.Chemscore.Lipo>
58.1959

> <Gold.Chemscore.Internal_Hbond>
0.0000

> <Gold.Chemscore.DEClash>
0.0310

> <Gold.Chemscore.DEInternal>
3.1648

> <Gold.Chemscore.Rot>
1.8466

> <Gold.Chemscore.Internal.Correction>
   9.000000E+99

> <Gold.Chemscore.Hbonds>
donor molecule, donor type, donor heavy atom, donor atom, acceptor molecule, acceptor atom, score
      L1  H     5    41       P1  7948  0.95
      P1  H  6896  6907       L1    13  0.98
      P1  H  6931  6943       L1    17  0.97
      P1  H  6934  6947       L1    17  0.02

> <Gold.Chemscore.Hbond.Weighted>
-9.8595

> <Gold.Chemscore.Metal.Weighted>
-0.0000

> <Gold.Chemscore.Lipo.Weighted>
-6.8089

> <Gold.Chemscore.Internal_Hbond.Weighted>
0.0000

> <Gold.Chemscore.DEClash.Weighted>
0.0310

> <Gold.Chemscore.DEInternal.Weighted>
3.1648

> <Gold.Chemscore.Rot.Weighted>
4.7272

> <Gold.Chemscore.Internal.Correction.Weighted>
   9.000000E+99

> <Gold.Protein.RotatedTorsions>
[ 6907 6896 6895 6894 ] final  -91.99 input  -60.11 | X-H torsion
[ 7974 7965 7964 7962 ] final   18.07 input  175.53 | X-H torsion
[ 8008 7997 7996 7995 ] final   52.18 input   59.86 | X-H torsion
[ 10167 10162 10161 10158 ] final -135.39 input  -65.29 | X-H torsion
[ 10718 10713 10712 10709 ] final -111.14 input   66.30 | X-H torsion
[ 10763 10752 10751 10750 ] final   32.67 input  -60.55 | X-H torsion
[ 11005 11000 10999 10996 ] final  -79.94 input  -57.11 | X-H torsion

> <Gold.Protein.ActiveResidues>
 VAL166  LYS551  ARG553  GLY616  TRP617  ASP618  TYR619  PRO620  LYS621  CYS622 
 ASP623  PHE694  ASN695  SER759  ASP760  ASP761  ALA762  ILE779  LEU786  VAL792 
 PHE793  MET794  SER795  GLU796  ALA797  LYS798  CYS799  TRP800  GLU811  SER814 

> <Gold.Protein.RotatedAtoms>
  150.6900  134.2192  159.4389 H   0  0  0  0  0  0  0  0  0  0  0  0  # atno 6907 bound_to 6896
  152.0149  134.9853  160.0578 H   0  0  0  0  0  0  0  0  0  0  0  0  # atno 6908 bound_to 6896
  152.1453  133.4454  159.4824 H   0  0  0  0  0  0  0  0  0  0  0  0  # atno 6909 bound_to 6896
  146.2197  139.8511  142.8622 H   0  0  0  0  0  0  0  0  0  0  0  0  # atno 7974 bound_to 7965
  155.4475  140.3457  155.4297 H   0  0  0  0  0  0  0  0  0  0  0  0  # atno 8008 bound_to 7997
  156.1240  140.1495  156.9192 H   0  0  0  0  0  0  0  0  0  0  0  0  # atno 8009 bound_to 7997
  154.4844  140.0859  156.7433 H   0  0  0  0  0  0  0  0  0  0  0  0  # atno 8010 bound_to 7997
  139.8783  143.6871  152.2631 H   0  0  0  0  0  0  0  0  0  0  0  0  # atno 10167 bound_to 10162
  156.0630  130.5852  150.8332 H   0  0  0  0  0  0  0  0  0  0  0  0  # atno 10718 bound_to 10713
  153.0250  135.6407  154.1392 H   0  0  0  0  0  0  0  0  0  0  0  0  # atno 10763 bound_to 10752
  154.1122  135.2852  155.3229 H   0  0  0  0  0  0  0  0  0  0  0  0  # atno 10764 bound_to 10752
  154.6323  135.5488  153.7757 H   0  0  0  0  0  0  0  0  0  0  0  0  # atno 10765 bound_to 10752
  141.1668  133.7128  156.8198 H   0  0  0  0  0  0  0  0  0  0  0  0  # atno 11005 bound_to 11000
  145.2801  141.0136  143.3722 LP  0  0  0  0  0  0  0  0  0  0  0  0  # atno 17320 bound_to 7965
  144.9157  139.4474  143.6565 LP  0  0  0  0  0  0  0  0  0  0  0  0  # atno 17321 bound_to 7965
  139.7219  144.7601  151.0941 LP  0  0  0  0  0  0  0  0  0  0  0  0  # atno 17342 bound_to 10162
  140.7749  143.5196  150.9552 LP  0  0  0  0  0  0  0  0  0  0  0  0  # atno 17343 bound_to 10162
  157.5652  131.0946  150.9500 LP  0  0  0  0  0  0  0  0  0  0  0  0  # atno 17370 bound_to 10713
  156.9729  130.5497  149.5291 LP  0  0  0  0  0  0  0  0  0  0  0  0  # atno 17371 bound_to 10713
  140.2127  134.8815  157.3292 LP  0  0  0  0  0  0  0  0  0  0  0  0  # atno 17394 bound_to 11000
  140.2070  134.4185  155.7632 LP  0  0  0  0  0  0  0  0  0  0  0  0  # atno 17395 bound_to 11000

$$$$
