AV-unprocessed.smi:2999|AV-procd|sdf|11426|dock1
  -GOLD-   2272016353D 1   1.00000     0.00000
 Structure written by MMmdl.
 37 39  0  0  0  0  0  0  0  0  3 V2000
  149.1216  138.7537  158.5023 O   0  0  0  0  0  0  0  0  0  0  0  0
  148.2178  137.9199  158.5910 C   0  0  0  0  0  0  0  0  0  0  0  0
  146.9711  138.2396  158.2187 N   0  0  0  0  0  0  0  0  0  0  0  0
  146.5205  139.5465  157.7486 C   0  0  0  0  0  0  0  0  0  0  0  0
  146.9825  139.8634  156.3105 C   0  0  1  0  0  0  0  0  0  0  0  0
  145.8477  139.7914  155.2601 C   0  0  0  0  0  0  0  0  0  0  0  0
  146.3302  140.1675  153.9107 N   0  3  2  0  0  0  0  0  0  0  0  0
  147.1055  139.0970  153.2416 C   0  0  0  0  0  0  0  0  0  0  0  0
  146.8153  138.9735  151.7641 C   0  0  0  0  0  0  0  0  0  0  0  0
  146.2511  137.9593  152.7338 C   0  0  0  0  0  0  0  0  0  0  0  0
  147.0321  141.4722  153.9439 C   0  0  0  0  0  0  0  0  0  0  0  0
  148.1322  141.4877  155.0201 C   0  0  0  0  0  0  0  0  0  0  0  0
  147.5714  141.1599  156.2840 O   0  0  0  0  0  0  0  0  0  0  0  0
  148.3353  136.6545  159.0514 N   0  5  0  0  0  0  0  0  0  0  0  0
  147.9973  136.3675  160.3191 C   0  0  0  0  0  0  0  0  0  0  0  0
  147.6769  137.3059  161.2174 N   0  0  0  0  0  0  0  0  0  0  0  0
  147.3528  136.7856  162.4718 C   0  0  0  0  0  0  0  0  0  0  0  0
  147.4215  135.4188  162.5279 C   0  0  0  0  0  0  0  0  0  0  0  0
  147.8967  134.7401  160.9971 S   0  0  0  0  0  0  0  0  0  0  0  0
  146.2701  137.5175  158.2979 H   0  0  0  0  0  0  0  0  0  0  0  0
  145.4358  139.6314  157.8312 H   0  0  0  0  0  0  0  0  0  0  0  0
  146.9349  140.2903  158.4291 H   0  0  0  0  0  0  0  0  0  0  0  0
  147.7578  139.1388  156.0569 H   0  0  0  0  0  0  0  0  0  0  0  0
  145.4017  138.7964  155.2384 H   0  0  0  0  0  0  0  0  0  0  0  0
  145.0468  140.4841  155.5213 H   0  0  0  0  0  0  0  0  0  0  0  0
  148.1066  138.9027  153.6212 H   0  0  0  0  0  0  0  0  0  0  0  0
  146.1195  139.6795  151.3145 H   0  0  0  0  0  0  0  0  0  0  0  0
  147.6279  138.6468  151.1185 H   0  0  0  0  0  0  0  0  0  0  0  0
  146.6922  136.9645  152.7284 H   0  0  0  0  0  0  0  0  0  0  0  0
  145.1803  137.9920  152.9275 H   0  0  0  0  0  0  0  0  0  0  0  0
  147.4470  141.7048  152.9626 H   0  0  0  0  0  0  0  0  0  0  0  0
  146.3008  142.2506  154.1652 H   0  0  0  0  0  0  0  0  0  0  0  0
  148.9390  140.7959  154.7746 H   0  0  0  0  0  0  0  0  0  0  0  0
  148.5776  142.4806  155.0832 H   0  0  0  0  0  0  0  0  0  0  0  0
  147.0837  137.4626  163.2688 H   0  0  0  0  0  0  0  0  0  0  0  0
  147.2218  134.7732  163.3695 H   0  0  0  0  0  0  0  0  0  0  0  0
  145.5069  140.3002  153.3408 H   0  0  0  0  0  0  0  0  0  0  0  0
  1  2  2  0  0  0  0
  2  3  1  0  0  0  0
  2 14  1  0  0  0  0
  3  4  1  0  0  0  0
  3 20  1  0  0  0  0
  4  5  1  0  0  0  0
  4 21  1  0  0  0  0
  4 22  1  0  0  0  0
  5 13  1  0  0  0  0
  5  6  1  0  0  0  0
  5 23  1  0  0  0  0
  6  7  1  0  0  0  0
  6 24  1  0  0  0  0
  6 25  1  0  0  0  0
  7  8  1  0  0  0  0
  7 11  1  0  0  0  0
  7 37  1  0  0  0  0
  8 10  1  0  0  0  0
  8  9  1  0  0  0  0
  8 26  1  0  0  0  0
  9 10  1  0  0  0  0
  9 27  1  0  0  0  0
  9 28  1  0  0  0  0
 10 29  1  0  0  0  0
 10 30  1  0  0  0  0
 11 12  1  0  0  0  0
 11 31  1  0  0  0  0
 11 32  1  0  0  0  0
 12 13  1  0  0  0  0
 12 33  1  0  0  0  0
 12 34  1  0  0  0  0
 14 15  1  0  0  0  0
 15 19  1  0  0  0  0
 15 16  2  0  0  0  0
 16 17  1  0  0  0  0
 17 18  2  0  0  0  0
 17 35  1  0  0  0  0
 18 19  1  0  0  0  0
 18 36  1  0  0  0  0
M  CHG  1   7   1
M  CHG  1  14  -1
M  END
> <s_m_source_file>
AV-unprocessed.smi

> <i_m_source_file_index>
2999

> <i_lp_mmshare_version>
43012

> <i_f3d_flags>
0

> <s_epik_input>
czFbY0hdW2NIXW5jMVtOSF1DKD1PKVtOSF1bQ0gyXVtDQEBIXTJbQ0gyXU4oW0NIMl1bQ0gyXU8yKVtDSF0zW0NIMl1bQ0gyXTM=

> <s_epik_cmdline>
J2VwaWtfcHl0aG9uJywgJy1waCcsICc3LjAnLCAnLXRuJywgJzgnLCAnLW1hJywgJzIwMCcsICctbWV0YWxfYmluZGluZycsICctaW1hZScsICc8aW5maWxlLm1hZT4nLCAnLW9tYWUnLCAnPG91dGZpbGUubWFlPic=

> <r_lp_tautomer_probability>
0.999

> <r_epik_Ionization_Penalty>
7.79196

> <r_epik_Ionization_Penalty_Charging>
6.93299

> <r_epik_Ionization_Penalty_Neutral>
0.858963

> <r_epik_State_Penalty>
7.05108

> <r_epik_Charging_Adjusted_Penalty>
13.9841

> <i_epik_Tot_Q>
0

> <i_epik_Tot_abs_Q>
2

> <r_epik_Metal_State_Penalty>
3.05936

> <b_epik_Metal_Only>
1

> <s_lp_Force_Field>
OPLS_2005

> <r_lp_Energy>
16.0159

> <b_lp_Chiralities_Consistent>
1

> <s_lp_Variant>
AV-unprocessed.smi:2999-10

> <Gold.Version>
5.8.1

> <Gold.Id.Protein>
6NUR|6NUR_protein|mol2

> <Gold.PLP.Fitness>
38.6615

> <Gold.PLP.PLP>
-30.8052

> <Gold.PLP.part.hbond>
-3.4733

> <Gold.PLP.part.metal>
0.0000

> <Gold.PLP.part.buried>
-3.0687

> <Gold.PLP.part.nonpolar>
-25.1679

> <Gold.PLP.part.repulsive>
0.1543

> <Gold.PLP.ligand.clash>
0.0000

> <Gold.PLP.ligand.torsion>
2.1593

> <Gold.PLP.Chemscore.Hbond>
3.6360

> <Gold.PLP.Chemscore.CHOScore>
0.0000

> <Gold.PLP.Chemscore.Metal>
0.0000

> <Gold.Chemscore.Hbonds>
donor molecule, donor type, donor heavy atom, donor atom, acceptor molecule, acceptor atom, score
      L1  H     7    37       P1 10175  2.00
      P1  H  6931  6943       L1    16  0.53
      P1  H  6934  6947       L1    16  0.83

> <Gold.PLP.Chemscore.Internal.Correction>
1.2670

> <Gold.Rescore>
     Score         DG    S(hbond)    S(metal)    S(lipo)     H(rot)  DE(clash)    DE(int)     intcor
     13.26     -15.43       1.98        0.00      62.48       1.55       0.00       2.17       ----

> <Gold.Chemscore.Fitness>
13.2604

> <Gold.Chemscore.DG>
-15.4320

> <Gold.Chemscore.ZeroCoef>
-5.4800

> <Gold.Chemscore.Hbond>
1.9794

> <Gold.Chemscore.Metal>
0.0000

> <Gold.Chemscore.Lipo>
62.4765

> <Gold.Chemscore.Internal_Hbond>
0.0000

> <Gold.Chemscore.DEClash>
0.0038

> <Gold.Chemscore.DEInternal>
2.1678

> <Gold.Chemscore.Rot>
1.5504

> <Gold.Chemscore.Internal.Correction>
   9.000000E+99

> <Gold.Chemscore.Hbonds>
donor molecule, donor type, donor heavy atom, donor atom, acceptor molecule, acceptor atom, score
      L1  H     7    37       P1 10175  0.93
      P1  H  6931  6943       L1    16  0.03
      P1  H  6934  6947       L1    16  0.75

> <Gold.Chemscore.Hbond.Weighted>
-6.6112

> <Gold.Chemscore.Metal.Weighted>
-0.0000

> <Gold.Chemscore.Lipo.Weighted>
-7.3097

> <Gold.Chemscore.Internal_Hbond.Weighted>
0.0000

> <Gold.Chemscore.DEClash.Weighted>
0.0038

> <Gold.Chemscore.DEInternal.Weighted>
2.1678

> <Gold.Chemscore.Rot.Weighted>
3.9690

> <Gold.Chemscore.Internal.Correction.Weighted>
   9.000000E+99

> <Gold.Protein.RotatedTorsions>
[ 6907 6896 6895 6894 ] final   54.57 input  -60.11 | X-H torsion
[ 7974 7965 7964 7962 ] final -106.84 input  175.53 | X-H torsion
[ 8008 7997 7996 7995 ] final  114.83 input   59.86 | X-H torsion
[ 10167 10162 10161 10158 ] final   10.50 input  -65.29 | X-H torsion
[ 10718 10713 10712 10709 ] final -129.14 input   66.30 | X-H torsion
[ 10763 10752 10751 10750 ] final  -70.52 input  -60.55 | X-H torsion
[ 11005 11000 10999 10996 ] final  -71.24 input  -57.11 | X-H torsion

> <Gold.Protein.ActiveResidues>
 VAL166  LYS551  ARG553  GLY616  TRP617  ASP618  TYR619  PRO620  LYS621  CYS622 
 ASP623  PHE694  ASN695  SER759  ASP760  ASP761  ALA762  ILE779  LEU786  VAL792 
 PHE793  MET794  SER795  GLU796  ALA797  LYS798  CYS799  TRP800  GLU811  SER814 

> <Gold.Protein.RotatedAtoms>
  152.3452  134.7081  160.0252 H   0  0  0  0  0  0  0  0  0  0  0  0  # atno 6907 bound_to 6896
  151.7453  133.3319  159.3384 H   0  0  0  0  0  0  0  0  0  0  0  0  # atno 6908 bound_to 6896
  150.7505  134.6174  159.6163 H   0  0  0  0  0  0  0  0  0  0  0  0  # atno 6909 bound_to 6896
  145.2128  140.9103  143.3304 H   0  0  0  0  0  0  0  0  0  0  0  0  # atno 7974 bound_to 7965
  156.2345  140.2951  156.0276 H   0  0  0  0  0  0  0  0  0  0  0  0  # atno 8008 bound_to 7997
  155.2131  140.0413  157.2953 H   0  0  0  0  0  0  0  0  0  0  0  0  # atno 8009 bound_to 7997
  154.6054  140.2438  155.7745 H   0  0  0  0  0  0  0  0  0  0  0  0  # atno 8010 bound_to 7997
  140.6190  143.8245  150.7152 H   0  0  0  0  0  0  0  0  0  0  0  0  # atno 10167 bound_to 10162
  156.2018  130.6862  151.0548 H   0  0  0  0  0  0  0  0  0  0  0  0  # atno 10718 bound_to 10713
  154.4188  135.5991  153.5997 H   0  0  0  0  0  0  0  0  0  0  0  0  # atno 10763 bound_to 10752
  152.9793  135.5947  154.3980 H   0  0  0  0  0  0  0  0  0  0  0  0  # atno 10764 bound_to 10752
  154.3802  135.2841  155.2194 H   0  0  0  0  0  0  0  0  0  0  0  0  # atno 10765 bound_to 10752
  141.1589  133.6812  156.6876 H   0  0  0  0  0  0  0  0  0  0  0  0  # atno 11005 bound_to 11000
  144.9839  139.3755  143.6248 LP  0  0  0  0  0  0  0  0  0  0  0  0  # atno 17320 bound_to 7965
  146.3394  139.8993  142.8797 LP  0  0  0  0  0  0  0  0  0  0  0  0  # atno 17321 bound_to 7965
  140.1831  143.4098  152.1918 LP  0  0  0  0  0  0  0  0  0  0  0  0  # atno 17342 bound_to 10162
  139.5423  144.7267  151.4695 LP  0  0  0  0  0  0  0  0  0  0  0  0  # atno 17343 bound_to 10162
  157.6990  131.0783  150.6880 LP  0  0  0  0  0  0  0  0  0  0  0  0  # atno 17370 bound_to 10713
  156.6938  130.4603  149.5592 LP  0  0  0  0  0  0  0  0  0  0  0  0  # atno 17371 bound_to 10713
  140.3055  134.8129  157.4133 LP  0  0  0  0  0  0  0  0  0  0  0  0  # atno 17394 bound_to 11000
  140.1224  134.5202  155.8172 LP  0  0  0  0  0  0  0  0  0  0  0  0  # atno 17395 bound_to 11000

$$$$
