AV-unprocessed.smi:2124|AV-procd|sdf|8655|dock3
  -GOLD-   2272011403D 1   1.00000     0.00000
 Structure written by MMmdl.
 47 49  0  0  0  0  0  0  0  0  1 V2000
  151.2623  142.5620  157.1323 C   0  0  0  0  0  0  0  0  0  0  0  0
  150.6819  141.5790  156.1375 C   0  0  0  0  0  0  0  0  0  0  0  0
  151.0807  140.3557  156.0152 N   0  0  0  0  0  0  0  0  0  0  0  0
  150.4666  139.5399  155.0545 C   0  0  0  0  0  0  0  0  0  0  0  0
  150.9948  138.1183  154.9650 C   0  0  0  0  0  0  0  0  0  0  0  0
  149.4615  140.0063  154.2567 C   0  0  0  0  0  0  0  0  0  0  0  0
  148.7750  139.1449  153.1974 C   0  0  0  0  0  0  0  0  0  0  0  0
  147.3486  138.6909  153.5179 C   0  0  0  0  0  0  0  0  0  0  0  0
  146.5696  139.4452  154.1010 O   0  0  0  0  0  0  0  0  0  0  0  0
  147.0267  137.4491  153.1179 N   0  0  0  0  0  0  0  0  0  0  0  0
  145.7341  136.7734  153.2617 C   0  0  1  0  0  0  0  0  0  0  0  0
  144.5727  137.7484  152.9840 C   0  0  0  0  0  0  0  0  0  0  0  0
  145.6473  135.4728  152.4177 C   0  0  2  0  0  0  0  0  0  0  0  0
  145.6319  135.7270  150.8908 C   0  0  0  0  0  0  0  0  0  0  0  0
  144.3826  134.9642  150.4169 C   0  0  1  0  0  0  0  0  0  0  0  0
  144.6225  133.4490  150.5481 C   0  0  0  0  0  0  0  0  0  0  0  0
  144.5629  133.2283  152.0712 C   0  0  0  0  0  0  0  0  0  0  0  0
  144.3442  134.6539  152.6122 C   0  0  2  0  0  0  0  0  0  0  0  0
  143.4099  135.2360  151.5566 C   0  0  0  0  0  0  0  0  0  0  0  0
  149.0156  141.4051  154.4037 C   0  0  0  0  0  0  0  0  0  0  0  0
  148.1279  141.9286  153.7320 O   0  0  0  0  0  0  0  0  0  0  0  0
  149.6639  142.1174  155.3522 N   0  0  0  0  0  0  0  0  0  0  0  0
  149.3962  143.0809  155.4904 H   0  0  0  0  0  0  0  0  0  0  0  0
  152.3293  142.6933  156.9508 H   0  0  0  0  0  0  0  0  0  0  0  0
  151.1295  142.1903  158.1486 H   0  0  0  0  0  0  0  0  0  0  0  0
  150.7817  143.5389  157.0607 H   0  0  0  0  0  0  0  0  0  0  0  0
  150.2240  137.4056  155.2584 H   0  0  0  0  0  0  0  0  0  0  0  0
  151.8521  137.9727  155.6233 H   0  0  0  0  0  0  0  0  0  0  0  0
  151.3136  137.8867  153.9485 H   0  0  0  0  0  0  0  0  0  0  0  0
  148.7487  139.7027  152.2609 H   0  0  0  0  0  0  0  0  0  0  0  0
  149.3762  138.2617  152.9783 H   0  0  0  0  0  0  0  0  0  0  0  0
  147.7485  136.9195  152.6511 H   0  0  0  0  0  0  0  0  0  0  0  0
  145.6770  136.4972  154.3150 H   0  0  0  0  0  0  0  0  0  0  0  0
  143.6110  137.3073  153.2444 H   0  0  0  0  0  0  0  0  0  0  0  0
  144.5247  138.0333  151.9330 H   0  0  0  0  0  0  0  0  0  0  0  0
  144.6778  138.6613  153.5713 H   0  0  0  0  0  0  0  0  0  0  0  0
  146.5049  134.8455  152.6643 H   0  0  0  0  0  0  0  0  0  0  0  0
  145.5223  136.7877  150.6616 H   0  0  0  0  0  0  0  0  0  0  0  0
  146.5426  135.3774  150.4033 H   0  0  0  0  0  0  0  0  0  0  0  0
  144.0335  135.2692  149.4301 H   0  0  0  0  0  0  0  0  0  0  0  0
  143.8355  132.8838  150.0473 H   0  0  0  0  0  0  0  0  0  0  0  0
  145.5787  133.1451  150.1209 H   0  0  0  0  0  0  0  0  0  0  0  0
  143.7216  132.5845  152.3307 H   0  0  0  0  0  0  0  0  0  0  0  0
  145.4686  132.7647  152.4642 H   0  0  0  0  0  0  0  0  0  0  0  0
  143.9465  134.6608  153.6272 H   0  0  0  0  0  0  0  0  0  0  0  0
  143.1942  136.2957  151.7004 H   0  0  0  0  0  0  0  0  0  0  0  0
  142.4696  134.6901  151.4620 H   0  0  0  0  0  0  0  0  0  0  0  0
  1  2  1  0  0  0  0
  1 24  1  0  0  0  0
  1 25  1  0  0  0  0
  1 26  1  0  0  0  0
  2 22  1  0  0  0  0
  2  3  2  0  0  0  0
  3  4  1  0  0  0  0
  4  5  1  0  0  0  0
  4  6  2  0  0  0  0
  5 27  1  0  0  0  0
  5 28  1  0  0  0  0
  5 29  1  0  0  0  0
  6  7  1  0  0  0  0
  6 20  1  0  0  0  0
  7  8  1  0  0  0  0
  7 30  1  0  0  0  0
  7 31  1  0  0  0  0
  8  9  2  0  0  0  0
  8 10  1  0  0  0  0
 10 11  1  0  0  0  0
 10 32  1  0  0  0  0
 11 12  1  0  0  0  0
 11 13  1  0  0  0  0
 11 33  1  0  0  0  0
 12 34  1  0  0  0  0
 12 35  1  0  0  0  0
 12 36  1  0  0  0  0
 13 18  1  0  0  0  0
 13 14  1  0  0  0  0
 13 37  1  0  0  0  0
 14 15  1  0  0  0  0
 14 38  1  0  0  0  0
 14 39  1  0  0  0  0
 15 19  1  0  0  0  0
 15 16  1  0  0  0  0
 15 40  1  0  0  0  0
 16 17  1  0  0  0  0
 16 41  1  0  0  0  0
 16 42  1  0  0  0  0
 17 18  1  0  0  0  0
 17 43  1  0  0  0  0
 17 44  1  0  0  0  0
 18 19  1  0  0  0  0
 18 45  1  0  0  0  0
 19 46  1  0  0  0  0
 19 47  1  0  0  0  0
 20 21  2  0  0  0  0
 20 22  1  0  0  0  0
 22 23  1  0  0  0  0
M  END
> <s_m_source_file>
AV-unprocessed.smi

> <i_m_source_file_index>
2124

> <i_lp_mmshare_version>
43012

> <i_f3d_flags>
0

> <s_epik_input>
W0NIM11jMW5jKFtDSDNdKWMoYyg9TylbbkhdMSlbQ0gyXUMoPU8pW05IXVtDQEhdKFtDSDNdKVtDQEhdKFtDSDJdW0NASF0yMylbQ0BIXShbQ0gyXTMpW0NIMl1bQ0gyXTI=

> <s_epik_cmdline>
J2VwaWtfcHl0aG9uJywgJy1waCcsICc3LjAnLCAnLXRuJywgJzgnLCAnLW1hJywgJzIwMCcsICctbWV0YWxfYmluZGluZycsICctaW1hZScsICc8aW5maWxlLm1hZT4nLCAnLW9tYWUnLCAnPG91dGZpbGUubWFlPic=

> <r_lp_tautomer_probability>
0.839158

> <r_epik_Ionization_Penalty>
0.000383628

> <r_epik_Ionization_Penalty_Charging>
0.00035045

> <r_epik_Ionization_Penalty_Neutral>
3.31781e-05

> <r_epik_State_Penalty>
0.09125

> <r_epik_Charging_Adjusted_Penalty>
0.0916005

> <i_epik_Tot_Q>
0

> <i_epik_Tot_abs_Q>
0

> <r_epik_Metal_State_Penalty>
0.255229

> <b_epik_Metal_Only>
0

> <s_lp_Force_Field>
OPLS_2005

> <r_lp_Energy>
52.5198

> <b_lp_Chiralities_Consistent>
1

> <s_lp_Variant>
AV-unprocessed.smi:2124-6

> <Gold.Version>
5.8.1

> <Gold.Id.Protein>
6NUR|6NUR_protein|mol2

> <Gold.PLP.Fitness>
40.6696

> <Gold.PLP.PLP>
-36.0253

> <Gold.PLP.part.hbond>
-2.0000

> <Gold.PLP.part.metal>
0.0000

> <Gold.PLP.part.buried>
-1.3022

> <Gold.PLP.part.nonpolar>
-33.6426

> <Gold.PLP.part.repulsive>
0.4598

> <Gold.PLP.ligand.clash>
0.0000

> <Gold.PLP.ligand.torsion>
0.6988

> <Gold.PLP.Chemscore.Hbond>
1.9920

> <Gold.PLP.Chemscore.CHOScore>
0.0000

> <Gold.PLP.Chemscore.Metal>
0.0000

> <Gold.Chemscore.Hbonds>
donor molecule, donor type, donor heavy atom, donor atom, acceptor molecule, acceptor atom, score
      L1  H    10    32       P1  7948  1.00
      L1  H    22    23       P1  8028  1.00
      P1  H  8011  8017       L1    21  0.06

> <Gold.PLP.Chemscore.Internal.Correction>
0.0660

> <Gold.Rescore>
     Score         DG    S(hbond)    S(metal)    S(lipo)     H(rot)  DE(clash)    DE(int)     intcor
     14.41     -16.76       1.97        0.00      76.19       1.65       1.59       0.76       ----

> <Gold.Chemscore.Fitness>
14.4092

> <Gold.Chemscore.DG>
-16.7558

> <Gold.Chemscore.ZeroCoef>
-5.4800

> <Gold.Chemscore.Hbond>
1.9743

> <Gold.Chemscore.Metal>
0.0000

> <Gold.Chemscore.Lipo>
76.1884

> <Gold.Chemscore.Internal_Hbond>
0.0000

> <Gold.Chemscore.DEClash>
1.5905

> <Gold.Chemscore.DEInternal>
0.7561

> <Gold.Chemscore.Rot>
1.6534

> <Gold.Chemscore.Internal.Correction>
   9.000000E+99

> <Gold.Chemscore.Hbonds>
donor molecule, donor type, donor heavy atom, donor atom, acceptor molecule, acceptor atom, score
      L1  H    10    32       P1  7948  0.98
      L1  H    22    23       P1  8028  1.00

> <Gold.Chemscore.Hbond.Weighted>
-6.5943

> <Gold.Chemscore.Metal.Weighted>
-0.0000

> <Gold.Chemscore.Lipo.Weighted>
-8.9140

> <Gold.Chemscore.Internal_Hbond.Weighted>
0.0000

> <Gold.Chemscore.DEClash.Weighted>
1.5905

> <Gold.Chemscore.DEInternal.Weighted>
0.7561

> <Gold.Chemscore.Rot.Weighted>
4.2326

> <Gold.Chemscore.Internal.Correction.Weighted>
   9.000000E+99

> <Gold.Protein.RotatedTorsions>
[ 6907 6896 6895 6894 ] final  119.62 input  -60.11 | X-H torsion
[ 7974 7965 7964 7962 ] final -156.34 input  175.53 | X-H torsion
[ 8008 7997 7996 7995 ] final -154.12 input   59.86 | X-H torsion
[ 10167 10162 10161 10158 ] final  -56.01 input  -65.29 | X-H torsion
[ 10718 10713 10712 10709 ] final -142.15 input   66.30 | X-H torsion
[ 10763 10752 10751 10750 ] final   89.69 input  -60.55 | X-H torsion
[ 11005 11000 10999 10996 ] final   44.45 input  -57.11 | X-H torsion

> <Gold.Protein.ActiveResidues>
 VAL166  LYS551  ARG553  GLY616  TRP617  ASP618  TYR619  PRO620  LYS621  CYS622 
 ASP623  PHE694  ASN695  SER759  ASP760  ASP761  ALA762  ILE779  LEU786  VAL792 
 PHE793  MET794  SER795  GLU796  ALA797  LYS798  CYS799  TRP800  GLU811  SER814 

> <Gold.Protein.RotatedAtoms>
  152.4458  133.7534  159.6706 H   0  0  0  0  0  0  0  0  0  0  0  0  # atno 6907 bound_to 6896
  150.8358  133.8006  159.3086 H   0  0  0  0  0  0  0  0  0  0  0  0  # atno 6908 bound_to 6896
  151.5646  135.1067  160.0032 H   0  0  0  0  0  0  0  0  0  0  0  0  # atno 6909 bound_to 6896
  144.7598  140.4123  143.5985 H   0  0  0  0  0  0  0  0  0  0  0  0  # atno 7974 bound_to 7965
  155.6814  140.0745  157.2483 H   0  0  0  0  0  0  0  0  0  0  0  0  # atno 8008 bound_to 7997
  154.4105  140.1681  156.2039 H   0  0  0  0  0  0  0  0  0  0  0  0  # atno 8009 bound_to 7997
  155.9531  140.3376  155.6428 H   0  0  0  0  0  0  0  0  0  0  0  0  # atno 8010 bound_to 7997
  140.6342  143.2474  151.5162 H   0  0  0  0  0  0  0  0  0  0  0  0  # atno 10167 bound_to 10162
  156.3424  130.7644  151.1783 H   0  0  0  0  0  0  0  0  0  0  0  0  # atno 10718 bound_to 10713
  153.1897  135.4461  155.0134 H   0  0  0  0  0  0  0  0  0  0  0  0  # atno 10763 bound_to 10752
  154.8082  135.3283  154.7377 H   0  0  0  0  0  0  0  0  0  0  0  0  # atno 10764 bound_to 10752
  153.7832  135.6976  153.4940 H   0  0  0  0  0  0  0  0  0  0  0  0  # atno 10765 bound_to 10752
  140.1551  134.4412  155.8355 H   0  0  0  0  0  0  0  0  0  0  0  0  # atno 11005 bound_to 11000
  145.6658  139.1590  143.2782 LP  0  0  0  0  0  0  0  0  0  0  0  0  # atno 17320 bound_to 7965
  146.1648  140.6734  142.9260 LP  0  0  0  0  0  0  0  0  0  0  0  0  # atno 17321 bound_to 7965
  139.5553  144.2290  152.1602 LP  0  0  0  0  0  0  0  0  0  0  0  0  # atno 17342 bound_to 10162
  140.1542  144.5086  150.6669 LP  0  0  0  0  0  0  0  0  0  0  0  0  # atno 17343 bound_to 10162
  157.7449  131.0450  150.4824 LP  0  0  0  0  0  0  0  0  0  0  0  0  # atno 17370 bound_to 10713
  156.5006  130.4116  149.6355 LP  0  0  0  0  0  0  0  0  0  0  0  0  # atno 17371 bound_to 10713
  141.2203  133.6889  156.7492 LP  0  0  0  0  0  0  0  0  0  0  0  0  # atno 17394 bound_to 11000
  140.2558  134.8505  157.3711 LP  0  0  0  0  0  0  0  0  0  0  0  0  # atno 17395 bound_to 11000

$$$$
