AV-unprocessed.smi:784|AV-procd|sdf|3719|dock6
  -GOLD-   22720 1143D 1   1.00000     0.00000
 Structure written by MMmdl.
 37 38  0  0  0  0  0  0  0  0  2 V2000
  147.6803  139.0133  153.6251 C   0  0  0  0  0  0  0  0  0  0  0  0
  149.0340  139.3517  154.1758 C   0  0  0  0  0  0  0  0  0  0  0  0
  150.0694  138.4658  154.5795 C   0  0  0  0  0  0  0  0  0  0  0  0
  151.0632  139.3018  155.0041 C   0  0  0  0  0  0  0  0  0  0  0  0
  152.4289  139.0609  155.5590 C   0  0  0  0  0  0  0  0  0  0  0  0
  152.3737  138.9901  157.4025 S   0  0  0  0  0  0  0  0  0  0  0  0
  151.7229  137.7123  157.7344 O   0  0  0  0  0  0  0  0  0  0  0  0
  153.7571  139.1804  157.8701 O   0  0  0  0  0  0  0  0  0  0  0  0
  151.4168  140.2608  157.7261 N   0  5  0  0  0  0  0  0  0  0  0  0
  152.0076  141.5118  158.1811 C   0  0  0  0  0  0  0  0  0  0  0  0
  152.3769  141.3593  159.6766 C   0  0  0  0  0  0  0  0  0  0  0  0
  153.1655  142.5222  160.3195 C   0  0  0  0  0  0  0  0  0  0  0  0
  152.4623  143.8958  160.3311 C   0  0  0  0  0  0  0  0  0  0  0  0
  152.5351  144.6052  158.9689 C   0  0  0  0  0  0  0  0  0  0  0  0
  151.5535  144.1032  157.8834 C   0  0  0  0  0  0  0  0  0  0  0  0
  150.9907  142.6629  157.9781 C   0  0  0  0  0  0  0  0  0  0  0  0
  150.6753  140.5965  154.8662 O   0  0  0  0  0  0  0  0  0  0  0  0
  149.3797  140.6181  154.3374 N   0  0  0  0  0  0  0  0  0  0  0  0
  147.6468  137.9828  153.2715 H   0  0  0  0  0  0  0  0  0  0  0  0
  147.4205  139.6592  152.7859 H   0  0  0  0  0  0  0  0  0  0  0  0
  146.9096  139.1283  154.3874 H   0  0  0  0  0  0  0  0  0  0  0  0
  150.0812  137.3861  154.5701 H   0  0  0  0  0  0  0  0  0  0  0  0
  152.8575  138.1339  155.1797 H   0  0  0  0  0  0  0  0  0  0  0  0
  153.0963  139.8756  155.2782 H   0  0  0  0  0  0  0  0  0  0  0  0
  152.9167  141.7413  157.6235 H   0  0  0  0  0  0  0  0  0  0  0  0
  151.4711  141.1852  160.2592 H   0  0  0  0  0  0  0  0  0  0  0  0
  152.9774  140.4563  159.7974 H   0  0  0  0  0  0  0  0  0  0  0  0
  153.3620  142.2433  161.3553 H   0  0  0  0  0  0  0  0  0  0  0  0
  154.1518  142.6124  159.8604 H   0  0  0  0  0  0  0  0  0  0  0  0
  151.4313  143.8098  160.6762 H   0  0  0  0  0  0  0  0  0  0  0  0
  152.9708  144.5244  161.0628 H   0  0  0  0  0  0  0  0  0  0  0  0
  152.3656  145.6726  159.1144 H   0  0  0  0  0  0  0  0  0  0  0  0
  153.5549  144.5306  158.5891 H   0  0  0  0  0  0  0  0  0  0  0  0
  150.6950  144.7757  157.8759 H   0  0  0  0  0  0  0  0  0  0  0  0
  152.0230  144.2430  156.9083 H   0  0  0  0  0  0  0  0  0  0  0  0
  150.4310  142.4944  157.0568 H   0  0  0  0  0  0  0  0  0  0  0  0
  150.2398  142.6216  158.7683 H   0  0  0  0  0  0  0  0  0  0  0  0
  1  2  1  0  0  0  0
  1 19  1  0  0  0  0
  1 20  1  0  0  0  0
  1 21  1  0  0  0  0
  2 18  2  0  0  0  0
  2  3  1  0  0  0  0
  3  4  2  0  0  0  0
  3 22  1  0  0  0  0
  4  5  1  0  0  0  0
  4 17  1  0  0  0  0
  5  6  1  0  0  0  0
  5 23  1  0  0  0  0
  5 24  1  0  0  0  0
  6  7  2  0  0  0  0
  6  8  2  0  0  0  0
  6  9  1  0  0  0  0
  9 10  1  0  0  0  0
 10 16  1  0  0  0  0
 10 11  1  0  0  0  0
 10 25  1  0  0  0  0
 11 12  1  0  0  0  0
 11 26  1  0  0  0  0
 11 27  1  0  0  0  0
 12 13  1  0  0  0  0
 12 28  1  0  0  0  0
 12 29  1  0  0  0  0
 13 14  1  0  0  0  0
 13 30  1  0  0  0  0
 13 31  1  0  0  0  0
 14 15  1  0  0  0  0
 14 32  1  0  0  0  0
 14 33  1  0  0  0  0
 15 16  1  0  0  0  0
 15 34  1  0  0  0  0
 15 35  1  0  0  0  0
 16 36  1  0  0  0  0
 16 37  1  0  0  0  0
 17 18  1  0  0  0  0
M  CHG  1   9  -1
M  END
> <s_m_source_file>
AV-unprocessed.smi

> <i_m_source_file_index>
784

> <i_lp_mmshare_version>
43012

> <i_f3d_flags>
0

> <s_epik_input>
W0NIM11jMVtjSF1jKG9uMSlbQ0gyXVMoPU8pKD1PKVtOSF1bQ0hdMltDSDJdW0NIMl1bQ0gyXVtDSDJdW0NIMl1bQ0gyXTI=

> <s_epik_cmdline>
J2VwaWtfcHl0aG9uJywgJy1waCcsICc3LjAnLCAnLXRuJywgJzgnLCAnLW1hJywgJzIwMCcsICctbWV0YWxfYmluZGluZycsICctaW1hZScsICc8aW5maWxlLm1hZT4nLCAnLW9tYWUnLCAnPG91dGZpbGUubWFlPic=

> <r_lp_tautomer_probability>
1

> <r_epik_Ionization_Penalty>
5.56674

> <r_epik_Ionization_Penalty_Charging>
5.56674

> <r_epik_Ionization_Penalty_Neutral>
9.19761e-10

> <r_epik_State_Penalty>
5.56669

> <r_epik_Charging_Adjusted_Penalty>
11.1334

> <i_epik_Tot_Q>
-1

> <i_epik_Tot_abs_Q>
1

> <r_epik_Metal_State_Penalty>
1.56499

> <b_epik_Metal_Only>
1

> <s_lp_Force_Field>
OPLS_2005

> <r_lp_Energy>
11.8728

> <b_lp_Chiralities_Consistent>
1

> <s_lp_Variant>
AV-unprocessed.smi:784-2

> <Gold.Version>
5.8.1

> <Gold.Id.Protein>
6NUR|6NUR_protein|mol2

> <Gold.PLP.Fitness>
43.9028

> <Gold.PLP.PLP>
-39.6864

> <Gold.PLP.part.hbond>
-2.7976

> <Gold.PLP.part.metal>
0.0000

> <Gold.PLP.part.buried>
-2.8872

> <Gold.PLP.part.nonpolar>
-34.5872

> <Gold.PLP.part.repulsive>
0.3467

> <Gold.PLP.ligand.clash>
0.0000

> <Gold.PLP.ligand.torsion>
1.3877

> <Gold.PLP.Chemscore.Hbond>
2.0000

> <Gold.PLP.Chemscore.CHOScore>
0.0000

> <Gold.PLP.Chemscore.Metal>
0.0000

> <Gold.Chemscore.Hbonds>
donor molecule, donor type, donor heavy atom, donor atom, acceptor molecule, acceptor atom, score
      P1  H  7989  7998       L1    17  0.73
      P1  H  7997  8009       L1     8  1.00

> <Gold.PLP.Chemscore.Internal.Correction>
0.9918

> <Gold.Rescore>
     Score         DG    S(hbond)    S(metal)    S(lipo)     H(rot)  DE(clash)    DE(int)     intcor
     18.17     -20.22       1.93        0.00     100.31       1.34       0.09       1.96       ----

> <Gold.Chemscore.Fitness>
18.1696

> <Gold.Chemscore.DG>
-20.2186

> <Gold.Chemscore.ZeroCoef>
-5.4800

> <Gold.Chemscore.Hbond>
1.9264

> <Gold.Chemscore.Metal>
0.0000

> <Gold.Chemscore.Lipo>
100.3094

> <Gold.Chemscore.Internal_Hbond>
0.0000

> <Gold.Chemscore.DEClash>
0.0876

> <Gold.Chemscore.DEInternal>
1.9614

> <Gold.Chemscore.Rot>
1.3405

> <Gold.Chemscore.Internal.Correction>
   9.000000E+99

> <Gold.Chemscore.Hbonds>
donor molecule, donor type, donor heavy atom, donor atom, acceptor molecule, acceptor atom, score
      P1  H  7989  7998       L1    17  0.03
      P1  H  7997  8009       L1     8  0.89

> <Gold.Chemscore.Hbond.Weighted>
-6.4341

> <Gold.Chemscore.Metal.Weighted>
-0.0000

> <Gold.Chemscore.Lipo.Weighted>
-11.7362

> <Gold.Chemscore.Internal_Hbond.Weighted>
0.0000

> <Gold.Chemscore.DEClash.Weighted>
0.0876

> <Gold.Chemscore.DEInternal.Weighted>
1.9614

> <Gold.Chemscore.Rot.Weighted>
3.4318

> <Gold.Chemscore.Internal.Correction.Weighted>
   9.000000E+99

> <Gold.Protein.RotatedTorsions>
[ 6907 6896 6895 6894 ] final   82.53 input  -60.11 | X-H torsion
[ 7974 7965 7964 7962 ] final  143.61 input  175.53 | X-H torsion
[ 8008 7997 7996 7995 ] final  132.54 input   59.86 | X-H torsion
[ 10167 10162 10161 10158 ] final  -54.19 input  -65.29 | X-H torsion
[ 10718 10713 10712 10709 ] final  163.88 input   66.30 | X-H torsion
[ 10763 10752 10751 10750 ] final -105.54 input  -60.55 | X-H torsion
[ 11005 11000 10999 10996 ] final -141.26 input  -57.11 | X-H torsion

> <Gold.Protein.ActiveResidues>
 VAL166  LYS551  ARG553  GLY616  TRP617  ASP618  TYR619  PRO620  LYS621  CYS622 
 ASP623  PHE694  ASN695  SER759  ASP760  ASP761  ALA762  ILE779  LEU786  VAL792 
 PHE793  MET794  SER795  GLU796  ALA797  LYS798  CYS799  TRP800  GLU811  SER814 

> <Gold.Protein.RotatedAtoms>
  152.5302  134.3035  159.9087 H   0  0  0  0  0  0  0  0  0  0  0  0  # atno 6907 bound_to 6896
  151.2986  133.4126  159.2646 H   0  0  0  0  0  0  0  0  0  0  0  0  # atno 6908 bound_to 6896
  151.0139  134.9434  159.8079 H   0  0  0  0  0  0  0  0  0  0  0  0  # atno 6909 bound_to 6896
  144.8906  139.5564  143.5800 H   0  0  0  0  0  0  0  0  0  0  0  0  # atno 7974 bound_to 7965
  156.2983  140.2544  156.3105 H   0  0  0  0  0  0  0  0  0  0  0  0  # atno 8008 bound_to 7997
  154.9330  140.0398  157.2077 H   0  0  0  0  0  0  0  0  0  0  0  0  # atno 8009 bound_to 7997
  154.8199  140.2858  155.5798 H   0  0  0  0  0  0  0  0  0  0  0  0  # atno 8010 bound_to 7997
  140.6444  143.2526  151.4901 H   0  0  0  0  0  0  0  0  0  0  0  0  # atno 10167 bound_to 10162
  157.1023  131.0446  151.2493 H   0  0  0  0  0  0  0  0  0  0  0  0  # atno 10718 bound_to 10713
  154.7953  135.4745  154.0147 H   0  0  0  0  0  0  0  0  0  0  0  0  # atno 10763 bound_to 10752
  153.1694  135.6822  153.8636 H   0  0  0  0  0  0  0  0  0  0  0  0  # atno 10764 bound_to 10752
  153.8223  135.3202  155.3389 H   0  0  0  0  0  0  0  0  0  0  0  0  # atno 10765 bound_to 10752
  140.8342  134.2481  157.4842 H   0  0  0  0  0  0  0  0  0  0  0  0  # atno 11005 bound_to 11000
  146.3051  139.7554  142.9062 LP  0  0  0  0  0  0  0  0  0  0  0  0  # atno 17320 bound_to 7965
  145.3790  141.0355  143.3188 LP  0  0  0  0  0  0  0  0  0  0  0  0  # atno 17321 bound_to 7965
  139.5654  144.2055  152.1756 LP  0  0  0  0  0  0  0  0  0  0  0  0  # atno 17342 bound_to 10162
  140.1336  144.5266  150.6787 LP  0  0  0  0  0  0  0  0  0  0  0  0  # atno 17343 bound_to 10162
  157.4630  130.7664  149.7253 LP  0  0  0  0  0  0  0  0  0  0  0  0  # atno 17370 bound_to 10713
  155.9870  130.3970  150.3183 LP  0  0  0  0  0  0  0  0  0  0  0  0  # atno 17371 bound_to 10713
  139.8704  134.9602  156.4355 LP  0  0  0  0  0  0  0  0  0  0  0  0  # atno 17394 bound_to 11000
  140.8966  133.7810  155.9632 LP  0  0  0  0  0  0  0  0  0  0  0  0  # atno 17395 bound_to 11000

$$$$
