AV-unprocessed.smi:3347|AV-procd|sdf|12914|dock7
  -GOLD-   2272019333D 1   1.00000     0.00000
 Structure written by MMmdl.
 40 42  0  0  0  0  0  0  0  0  2 V2000
  149.6169  135.3304  156.2988 O   0  0  0  0  0  0  0  0  0  0  0  0
  149.4900  135.5135  155.0885 C   0  0  0  0  0  0  0  0  0  0  0  0
  148.8997  134.6330  154.2675 N   0  0  0  0  0  0  0  0  0  0  0  0
  148.3561  133.3373  154.6639 C   0  0  0  0  0  0  0  0  0  0  0  0
  148.0089  132.4546  153.4492 C   0  0  1  0  0  0  0  0  0  0  0  0
  146.8289  131.5152  153.6897 C   0  0  0  0  0  0  0  0  0  0  0  0
  146.3320  131.1637  152.2824 C   0  0  0  0  0  0  0  0  0  0  0  0
  146.8413  132.2174  151.3740 N   0  3  1  0  0  0  0  0  0  0  0  0
  145.8134  132.8009  150.4857 C   0  0  0  0  0  0  0  0  0  0  0  0
  144.6685  131.8622  150.1894 C   0  0  0  0  0  0  0  0  0  0  0  0
  145.7253  132.1255  149.1383 C   0  0  0  0  0  0  0  0  0  0  0  0
  147.5536  133.2132  152.1998 C   0  0  0  0  0  0  0  0  0  0  0  0
  149.8907  136.6075  154.4187 N   0  0  0  0  0  0  0  0  0  0  0  0
  150.5459  137.7663  154.9173 C   0  0  0  0  0  0  0  0  0  0  0  0
  151.4793  137.7644  155.9827 C   0  0  0  0  0  0  0  0  0  0  0  0
  152.0695  138.9826  156.3710 C   0  0  0  0  0  0  0  0  0  0  0  0
  151.7128  140.1551  155.6774 C   0  0  0  0  0  0  0  0  0  0  0  0
  150.8349  140.1700  154.6526 N   0  0  0  0  0  0  0  0  0  0  0  0
  150.2735  138.9985  154.2855 C   0  0  0  0  0  0  0  0  0  0  0  0
  148.8360  134.8698  153.2880 H   0  0  0  0  0  0  0  0  0  0  0  0
  149.1125  132.8380  155.2700 H   0  0  0  0  0  0  0  0  0  0  0  0
  147.4863  133.4660  155.3106 H   0  0  0  0  0  0  0  0  0  0  0  0
  148.8780  131.8479  153.1886 H   0  0  0  0  0  0  0  0  0  0  0  0
  147.1028  130.6337  154.2704 H   0  0  0  0  0  0  0  0  0  0  0  0
  146.0400  132.0383  154.2326 H   0  0  0  0  0  0  0  0  0  0  0  0
  146.7390  130.2059  151.9574 H   0  0  0  0  0  0  0  0  0  0  0  0
  145.2440  131.0843  152.2596 H   0  0  0  0  0  0  0  0  0  0  0  0
  145.6406  133.8718  150.5800 H   0  0  0  0  0  0  0  0  0  0  0  0
  144.6670  130.8843  150.6675 H   0  0  0  0  0  0  0  0  0  0  0  0
  143.6866  132.3027  150.0297 H   0  0  0  0  0  0  0  0  0  0  0  0
  145.4383  132.7392  148.2868 H   0  0  0  0  0  0  0  0  0  0  0  0
  146.4264  131.3225  148.9172 H   0  0  0  0  0  0  0  0  0  0  0  0
  146.8660  134.0129  152.4819 H   0  0  0  0  0  0  0  0  0  0  0  0
  148.3835  133.6602  151.6516 H   0  0  0  0  0  0  0  0  0  0  0  0
  149.6525  136.6379  153.4382 H   0  0  0  0  0  0  0  0  0  0  0  0
  151.7648  136.8617  156.4992 H   0  0  0  0  0  0  0  0  0  0  0  0
  152.7845  139.0163  157.1796 H   0  0  0  0  0  0  0  0  0  0  0  0
  152.1483  141.1050  155.9498 H   0  0  0  0  0  0  0  0  0  0  0  0
  149.5774  139.0486  153.4608 H   0  0  0  0  0  0  0  0  0  0  0  0
  147.5365  131.7772  150.7882 H   0  0  0  0  0  0  0  0  0  0  0  0
  1  2  2  0  0  0  0
  2  3  1  0  0  0  0
  2 13  1  0  0  0  0
  3  4  1  0  0  0  0
  3 20  1  0  0  0  0
  4  5  1  0  0  0  0
  4 21  1  0  0  0  0
  4 22  1  0  0  0  0
  5 12  1  0  0  0  0
  5  6  1  0  0  0  0
  5 23  1  0  0  0  0
  6  7  1  0  0  0  0
  6 24  1  0  0  0  0
  6 25  1  0  0  0  0
  7  8  1  0  0  0  0
  7 26  1  0  0  0  0
  7 27  1  0  0  0  0
  8  9  1  0  0  0  0
  8 12  1  0  0  0  0
  8 40  1  0  0  0  0
  9 11  1  0  0  0  0
  9 10  1  0  0  0  0
  9 28  1  0  0  0  0
 10 11  1  0  0  0  0
 10 29  1  0  0  0  0
 10 30  1  0  0  0  0
 11 31  1  0  0  0  0
 11 32  1  0  0  0  0
 12 33  1  0  0  0  0
 12 34  1  0  0  0  0
 13 14  1  0  0  0  0
 13 35  1  0  0  0  0
 14 19  1  0  0  0  0
 14 15  2  0  0  0  0
 15 16  1  0  0  0  0
 15 36  1  0  0  0  0
 16 17  2  0  0  0  0
 16 37  1  0  0  0  0
 17 18  1  0  0  0  0
 17 38  1  0  0  0  0
 18 19  2  0  0  0  0
 19 39  1  0  0  0  0
M  CHG  1   8   1
M  END
> <s_m_source_file>
AV-unprocessed.smi

> <i_m_source_file_index>
3347

> <i_lp_mmshare_version>
43012

> <i_f3d_flags>
0

> <s_epik_input>
W2NIXTFuW2NIXVtjSF1bY0hdYzFbTkhdQyg9TylbTkhdW0NIMl1bQ0BASF0yW0NIMl1bQ0gyXU4oW0NIMl0yKVtDSF0zW0NIMl1bQ0gyXTM=

> <s_epik_cmdline>
J2VwaWtfcHl0aG9uJywgJy1waCcsICc3LjAnLCAnLXRuJywgJzgnLCAnLW1hJywgJzIwMCcsICctbWV0YWxfYmluZGluZycsICctaW1hZScsICc8aW5maWxlLm1hZT4nLCAnLW9tYWUnLCAnPG91dGZpbGUubWFlPic=

> <r_epik_Ionization_Penalty>
0.00442629

> <r_epik_Ionization_Penalty_Charging>
0.000203384

> <r_epik_Ionization_Penalty_Neutral>
0.00422291

> <r_epik_State_Penalty>
0.00301008

> <r_epik_Charging_Adjusted_Penalty>
0.00321347

> <i_epik_Tot_Q>
1

> <i_epik_Tot_abs_Q>
1

> <r_epik_Metal_State_Penalty>
-0

> <b_epik_Metal_Only>
0

> <s_lp_Force_Field>
OPLS_2005

> <r_lp_Energy>
39.1383

> <b_lp_Chiralities_Consistent>
1

> <s_lp_Variant>
AV-unprocessed.smi:3347-4

> <Gold.Version>
5.8.1

> <Gold.Id.Protein>
6NUR|6NUR_protein|mol2

> <Gold.PLP.Fitness>
50.6578

> <Gold.PLP.PLP>
-37.5282

> <Gold.PLP.part.hbond>
-4.4205

> <Gold.PLP.part.metal>
0.0000

> <Gold.PLP.part.buried>
-4.0076

> <Gold.PLP.part.nonpolar>
-29.2931

> <Gold.PLP.part.repulsive>
0.1840

> <Gold.PLP.ligand.clash>
0.0000

> <Gold.PLP.ligand.torsion>
1.5254

> <Gold.PLP.Chemscore.Hbond>
3.9750

> <Gold.PLP.Chemscore.CHOScore>
0.9969

> <Gold.PLP.Chemscore.Metal>
0.0000

> <Gold.Chemscore.Hbonds>
donor molecule, donor type, donor heavy atom, donor atom, acceptor molecule, acceptor atom, score
      L1  H     3    20       P1  7948  1.00
      L1  H     8    40       P1 10747  1.00
      L1  H    13    35       P1  7948  1.00
      P1  H  7989  7998       L1    18  1.00
      L1  C    19    39       P1  7957  1.00

> <Gold.PLP.Chemscore.Internal.Correction>
1.2646

> <Gold.Rescore>
     Score         DG    S(hbond)    S(metal)    S(lipo)     H(rot)  DE(clash)    DE(int)     intcor
     19.58     -21.41       2.71        0.00      89.75       1.42       0.14       1.69       ----

> <Gold.Chemscore.Fitness>
19.5757

> <Gold.Chemscore.DG>
-21.4052

> <Gold.Chemscore.ZeroCoef>
-5.4800

> <Gold.Chemscore.Hbond>
2.7140

> <Gold.Chemscore.Metal>
0.0000

> <Gold.Chemscore.Lipo>
89.7484

> <Gold.Chemscore.Internal_Hbond>
0.0000

> <Gold.Chemscore.DEClash>
0.1353

> <Gold.Chemscore.DEInternal>
1.6942

> <Gold.Chemscore.Rot>
1.4219

> <Gold.Chemscore.Internal.Correction>
   9.000000E+99

> <Gold.Chemscore.Hbonds>
donor molecule, donor type, donor heavy atom, donor atom, acceptor molecule, acceptor atom, score
      L1  H     3    20       P1  7948  0.33
      L1  H     8    40       P1 10747  1.00
      L1  H    13    35       P1  7948  0.55
      P1  H  7989  7998       L1    18  0.38

> <Gold.Chemscore.Hbond.Weighted>
-9.0648

> <Gold.Chemscore.Metal.Weighted>
-0.0000

> <Gold.Chemscore.Lipo.Weighted>
-10.5006

> <Gold.Chemscore.Internal_Hbond.Weighted>
0.0000

> <Gold.Chemscore.DEClash.Weighted>
0.1353

> <Gold.Chemscore.DEInternal.Weighted>
1.6942

> <Gold.Chemscore.Rot.Weighted>
3.6401

> <Gold.Chemscore.Internal.Correction.Weighted>
   9.000000E+99

> <Gold.Protein.RotatedTorsions>
[ 6907 6896 6895 6894 ] final   80.26 input  -60.11 | X-H torsion
[ 7974 7965 7964 7962 ] final -160.25 input  175.53 | X-H torsion
[ 8008 7997 7996 7995 ] final   65.27 input   59.86 | X-H torsion
[ 10167 10162 10161 10158 ] final   71.30 input  -65.29 | X-H torsion
[ 10718 10713 10712 10709 ] final   28.26 input   66.30 | X-H torsion
[ 10763 10752 10751 10750 ] final  160.09 input  -60.55 | X-H torsion
[ 11005 11000 10999 10996 ] final   50.04 input  -57.11 | X-H torsion

> <Gold.Protein.ActiveResidues>
 VAL166  LYS551  ARG553  GLY616  TRP617  ASP618  TYR619  PRO620  LYS621  CYS622 
 ASP623  PHE694  ASN695  SER759  ASP760  ASP761  ALA762  ILE779  LEU786  VAL792 
 PHE793  MET794  SER795  GLU796  ALA797  LYS798  CYS799  TRP800  GLU811  SER814 

> <Gold.Protein.RotatedAtoms>
  152.5228  134.3385  159.9208 H   0  0  0  0  0  0  0  0  0  0  0  0  # atno 6907 bound_to 6896
  151.3334  133.3985  159.2672 H   0  0  0  0  0  0  0  0  0  0  0  0  # atno 6908 bound_to 6896
  150.9862  134.9224  159.7930 H   0  0  0  0  0  0  0  0  0  0  0  0  # atno 6909 bound_to 6896
  144.7434  140.3569  143.6104 H   0  0  0  0  0  0  0  0  0  0  0  0  # atno 7974 bound_to 7965
  155.6591  140.3497  155.4776 H   0  0  0  0  0  0  0  0  0  0  0  0  # atno 8008 bound_to 7997
  155.9784  140.1169  157.0772 H   0  0  0  0  0  0  0  0  0  0  0  0  # atno 8009 bound_to 7997
  154.4185  140.1143  156.5387 H   0  0  0  0  0  0  0  0  0  0  0  0  # atno 8010 bound_to 7997
  140.0476  144.5338  150.7387 H   0  0  0  0  0  0  0  0  0  0  0  0  # atno 10167 bound_to 10162
  157.2311  130.7024  149.6314 H   0  0  0  0  0  0  0  0  0  0  0  0  # atno 10718 bound_to 10713
  154.2420  135.2774  155.2850 H   0  0  0  0  0  0  0  0  0  0  0  0  # atno 10763 bound_to 10752
  154.5537  135.5667  153.6948 H   0  0  0  0  0  0  0  0  0  0  0  0  # atno 10764 bound_to 10752
  152.9998  135.6281  154.2564 H   0  0  0  0  0  0  0  0  0  0  0  0  # atno 10765 bound_to 10752
  140.1051  134.5029  155.8727 H   0  0  0  0  0  0  0  0  0  0  0  0  # atno 11005 bound_to 11000
  145.7218  139.1712  143.2480 LP  0  0  0  0  0  0  0  0  0  0  0  0  # atno 17320 bound_to 7965
  146.1271  140.7233  142.9430 LP  0  0  0  0  0  0  0  0  0  0  0  0  # atno 17321 bound_to 7965
  140.7232  143.2609  151.4210 LP  0  0  0  0  0  0  0  0  0  0  0  0  # atno 17342 bound_to 10162
  139.5974  144.1369  152.2159 LP  0  0  0  0  0  0  0  0  0  0  0  0  # atno 17343 bound_to 10162
  155.9675  130.4488  150.5635 LP  0  0  0  0  0  0  0  0  0  0  0  0  # atno 17370 bound_to 10713
  157.3477  131.0728  151.1738 LP  0  0  0  0  0  0  0  0  0  0  0  0  # atno 17371 bound_to 10713
  141.2116  133.6709  156.6595 LP  0  0  0  0  0  0  0  0  0  0  0  0  # atno 17394 bound_to 11000
  140.3166  134.8042  157.4219 LP  0  0  0  0  0  0  0  0  0  0  0  0  # atno 17395 bound_to 11000

$$$$
