AV-unprocessed.smi:1019|AV-procd|sdf|4444|dock6
  -GOLD-   22720 2403D 1   1.00000     0.00000
 Structure written by MMmdl.
 44 46  0  0  0  0  0  0  0  0  2 V2000
  145.7837  133.8446  154.6745 C   0  0  0  0  0  0  0  0  0  0  0  0
  144.3515  134.2323  154.6226 N   0  3  2  0  0  0  0  0  0  0  0  0
  143.9704  134.8418  153.3229 C   0  0  0  0  0  0  0  0  0  0  0  0
  144.2361  133.9122  152.1516 C   0  0  0  0  0  0  0  0  0  0  0  0
  145.5541  133.7315  151.6816 C   0  0  0  0  0  0  0  0  0  0  0  0
  145.8063  132.8725  150.5943 C   0  0  0  0  0  0  0  0  0  0  0  0
  144.7424  132.1891  149.9748 C   0  0  0  0  0  0  0  0  0  0  0  0
  143.4257  132.3644  150.4432 C   0  0  0  0  0  0  0  0  0  0  0  0
  143.1724  133.2237  151.5300 C   0  0  0  0  0  0  0  0  0  0  0  0
  143.9460  135.0742  155.7780 C   0  0  0  0  0  0  0  0  0  0  0  0
  144.1397  134.3565  157.1340 C   0  0  2  0  0  0  0  0  0  0  0  0
  143.1600  133.3462  157.2681 O   0  0  0  0  0  0  0  0  0  0  0  0
  144.0088  135.2942  158.3518 C   0  0  0  0  0  0  0  0  0  0  0  0
  144.5366  134.7069  159.5703 N   0  0  0  0  0  0  0  0  0  0  0  0
  144.0515  133.6379  160.2318 C   0  0  0  0  0  0  0  0  0  0  0  0
  144.6803  133.2738  161.3452 N   0  0  0  0  0  0  0  0  0  0  0  0
  145.7025  134.2049  161.4070 C   0  0  0  0  0  0  0  0  0  0  0  0
  146.7336  134.3730  162.3586 C   0  0  0  0  0  0  0  0  0  0  0  0
  147.6788  135.4097  162.2125 C   0  0  0  0  0  0  0  0  0  0  0  0
  147.6096  136.2908  161.1139 C   0  0  0  0  0  0  0  0  0  0  0  0
  146.5905  136.1441  160.1533 C   0  0  0  0  0  0  0  0  0  0  0  0
  145.6462  135.1114  160.3054 C   0  0  0  0  0  0  0  0  0  0  0  0
  146.4278  134.7160  154.5475 H   0  0  0  0  0  0  0  0  0  0  0  0
  146.0270  133.1269  153.8912 H   0  0  0  0  0  0  0  0  0  0  0  0
  146.0401  133.3739  155.6226 H   0  0  0  0  0  0  0  0  0  0  0  0
  142.9042  135.0724  153.3153 H   0  0  0  0  0  0  0  0  0  0  0  0
  144.4940  135.7896  153.1860 H   0  0  0  0  0  0  0  0  0  0  0  0
  146.3750  134.2523  152.1526 H   0  0  0  0  0  0  0  0  0  0  0  0
  146.8163  132.7374  150.2357 H   0  0  0  0  0  0  0  0  0  0  0  0
  144.9362  131.5295  149.1417 H   0  0  0  0  0  0  0  0  0  0  0  0
  142.6101  131.8386  149.9686 H   0  0  0  0  0  0  0  0  0  0  0  0
  142.1594  133.3532  151.8825 H   0  0  0  0  0  0  0  0  0  0  0  0
  144.5133  136.0047  155.7352 H   0  0  0  0  0  0  0  0  0  0  0  0
  142.8969  135.3618  155.6940 H   0  0  0  0  0  0  0  0  0  0  0  0
  145.1164  133.8774  157.1763 H   0  0  0  0  0  0  0  0  0  0  0  0
  143.2582  132.7253  156.5630 H   0  0  0  0  0  0  0  0  0  0  0  0
  144.5346  136.2321  158.1648 H   0  0  0  0  0  0  0  0  0  0  0  0
  142.9626  135.5514  158.5231 H   0  0  0  0  0  0  0  0  0  0  0  0
  143.1799  133.1034  159.8831 H   0  0  0  0  0  0  0  0  0  0  0  0
  146.7988  133.7021  163.2026 H   0  0  0  0  0  0  0  0  0  0  0  0
  148.4630  135.5275  162.9461 H   0  0  0  0  0  0  0  0  0  0  0  0
  148.3410  137.0788  161.0086 H   0  0  0  0  0  0  0  0  0  0  0  0
  146.5380  136.8166  159.3103 H   0  0  0  0  0  0  0  0  0  0  0  0
  143.8105  133.3825  154.6941 H   0  0  0  0  0  0  0  0  0  0  0  0
  1  2  1  0  0  0  0
  1 23  1  0  0  0  0
  1 24  1  0  0  0  0
  1 25  1  0  0  0  0
  2  3  1  0  0  0  0
  2 10  1  0  0  0  0
  2 44  1  0  0  0  0
  3  4  1  0  0  0  0
  3 26  1  0  0  0  0
  3 27  1  0  0  0  0
  4  9  1  0  0  0  0
  4  5  2  0  0  0  0
  5  6  1  0  0  0  0
  5 28  1  0  0  0  0
  6  7  2  0  0  0  0
  6 29  1  0  0  0  0
  7  8  1  0  0  0  0
  7 30  1  0  0  0  0
  8  9  2  0  0  0  0
  8 31  1  0  0  0  0
  9 32  1  0  0  0  0
 10 11  1  0  0  0  0
 10 33  1  0  0  0  0
 10 34  1  0  0  0  0
 11 12  1  0  0  0  0
 11 13  1  0  0  0  0
 11 35  1  0  0  0  0
 12 36  1  0  0  0  0
 13 14  1  0  0  0  0
 13 37  1  0  0  0  0
 13 38  1  0  0  0  0
 14 22  1  0  0  0  0
 14 15  1  0  0  0  0
 15 16  2  0  0  0  0
 15 39  1  0  0  0  0
 16 17  1  0  0  0  0
 17 22  2  0  0  0  0
 17 18  1  0  0  0  0
 18 19  2  0  0  0  0
 18 40  1  0  0  0  0
 19 20  1  0  0  0  0
 19 41  1  0  0  0  0
 20 21  2  0  0  0  0
 20 42  1  0  0  0  0
 21 22  1  0  0  0  0
 21 43  1  0  0  0  0
M  CHG  1   2   1
M  END
> <s_m_source_file>
AV-unprocessed.smi

> <i_m_source_file_index>
1019

> <i_lp_mmshare_version>
43012

> <i_f3d_flags>
0

> <s_epik_input>
W2NIXTFbY0hdW2NIXVtjSF1bY0hdYzFbQ0gyXU4oW0NIM10pW0NIMl1bQ0BIXShbT0hdKVtDSDJdbihbY0hdbjIpYyhjMjMpW2NIXVtjSF1bY0hdW2NIXTM=

> <s_epik_cmdline>
J2VwaWtfcHl0aG9uJywgJy1waCcsICc3LjAnLCAnLXRuJywgJzgnLCAnLW1hJywgJzIwMCcsICctbWV0YWxfYmluZGluZycsICctaW1hZScsICc8aW5maWxlLm1hZT4nLCAnLW9tYWUnLCAnPG91dGZpbGUubWFlPic=

> <r_epik_Ionization_Penalty>
0.0996557

> <r_epik_Ionization_Penalty_Charging>
0.0475377

> <r_epik_Ionization_Penalty_Neutral>
0.0521179

> <r_epik_State_Penalty>
0.0851777

> <r_epik_Charging_Adjusted_Penalty>
0.132715

> <i_epik_Tot_Q>
1

> <i_epik_Tot_abs_Q>
1

> <r_epik_Metal_State_Penalty>
0.0423478

> <b_epik_Metal_Only>
0

> <s_lp_Force_Field>
OPLS_2005

> <r_lp_Energy>
17.6047

> <b_lp_Chiralities_Consistent>
1

> <s_lp_Variant>
AV-unprocessed.smi:1019-2

> <Gold.Version>
5.8.1

> <Gold.Id.Protein>
6NUR|6NUR_protein|mol2

> <Gold.PLP.Fitness>
46.9478

> <Gold.PLP.PLP>
-35.5961

> <Gold.PLP.part.hbond>
-3.0000

> <Gold.PLP.part.metal>
0.0000

> <Gold.PLP.part.buried>
-5.4300

> <Gold.PLP.part.nonpolar>
-26.9754

> <Gold.PLP.part.repulsive>
0.0672

> <Gold.PLP.ligand.clash>
0.0000

> <Gold.PLP.ligand.torsion>
0.4704

> <Gold.PLP.Chemscore.Hbond>
4.0000

> <Gold.PLP.Chemscore.CHOScore>
0.0000

> <Gold.PLP.Chemscore.Metal>
0.0000

> <Gold.Chemscore.Hbonds>
donor molecule, donor type, donor heavy atom, donor atom, acceptor molecule, acceptor atom, score
      L1  H     2    44       P1 10957  2.00
      L1  H    12    36       P1 10957  0.93
      P1  H 11000 11005       L1    12  0.90

> <Gold.PLP.Chemscore.Internal.Correction>
0.2924

> <Gold.Rescore>
     Score         DG    S(hbond)    S(metal)    S(lipo)     H(rot)  DE(clash)    DE(int)     intcor
     18.98     -19.68       2.80        0.00      93.03       2.36       0.05       0.65       ----

> <Gold.Chemscore.Fitness>
18.9772

> <Gold.Chemscore.DG>
-19.6769

> <Gold.Chemscore.ZeroCoef>
-5.4800

> <Gold.Chemscore.Hbond>
2.8018

> <Gold.Chemscore.Metal>
0.0000

> <Gold.Chemscore.Lipo>
93.0312

> <Gold.Chemscore.Internal_Hbond>
0.0000

> <Gold.Chemscore.DEClash>
0.0517

> <Gold.Chemscore.DEInternal>
0.6479

> <Gold.Chemscore.Rot>
2.3616

> <Gold.Chemscore.Internal.Correction>
   9.000000E+99

> <Gold.Chemscore.Hbonds>
donor molecule, donor type, donor heavy atom, donor atom, acceptor molecule, acceptor atom, score
      L1  H     2    44       P1 10957  0.97
      L1  H    12    36       P1 10957  0.86
      P1  H 11000 11005       L1    12  0.17

> <Gold.Chemscore.Hbond.Weighted>
-9.3579

> <Gold.Chemscore.Metal.Weighted>
-0.0000

> <Gold.Chemscore.Lipo.Weighted>
-10.8847

> <Gold.Chemscore.Internal_Hbond.Weighted>
0.0000

> <Gold.Chemscore.DEClash.Weighted>
0.0517

> <Gold.Chemscore.DEInternal.Weighted>
0.6479

> <Gold.Chemscore.Rot.Weighted>
6.0457

> <Gold.Chemscore.Internal.Correction.Weighted>
   9.000000E+99

> <Gold.Protein.RotatedTorsions>
[ 6907 6896 6895 6894 ] final   65.67 input  -60.11 | X-H torsion
[ 7974 7965 7964 7962 ] final   57.19 input  175.53 | X-H torsion
[ 8008 7997 7996 7995 ] final  179.55 input   59.86 | X-H torsion
[ 10167 10162 10161 10158 ] final  -59.30 input  -65.29 | X-H torsion
[ 10718 10713 10712 10709 ] final  175.13 input   66.30 | X-H torsion
[ 10763 10752 10751 10750 ] final -144.12 input  -60.55 | X-H torsion
[ 11005 11000 10999 10996 ] final  -92.91 input  -57.11 | X-H torsion

> <Gold.Protein.ActiveResidues>
 VAL166  LYS551  ARG553  GLY616  TRP617  ASP618  TYR619  PRO620  LYS621  CYS622 
 ASP623  PHE694  ASN695  SER759  ASP760  ASP761  ALA762  ILE779  LEU786  VAL792 
 PHE793  MET794  SER795  GLU796  ALA797  LYS798  CYS799  TRP800  GLU811  SER814 

> <Gold.Protein.RotatedAtoms>
  152.4424  134.5563  159.9881 H   0  0  0  0  0  0  0  0  0  0  0  0  # atno 6907 bound_to 6896
  151.5657  133.3391  159.2987 H   0  0  0  0  0  0  0  0  0  0  0  0  # atno 6908 bound_to 6896
  150.8333  134.7629  159.6936 H   0  0  0  0  0  0  0  0  0  0  0  0  # atno 6909 bound_to 6896
  145.9317  139.3813  143.0417 H   0  0  0  0  0  0  0  0  0  0  0  0  # atno 7974 bound_to 7965
  156.0421  140.1306  157.0144 H   0  0  0  0  0  0  0  0  0  0  0  0  # atno 8008 bound_to 7997
  154.4396  140.1028  156.6323 H   0  0  0  0  0  0  0  0  0  0  0  0  # atno 8009 bound_to 7997
  155.5651  140.3465  155.4503 H   0  0  0  0  0  0  0  0  0  0  0  0  # atno 8010 bound_to 7997
  140.6144  143.2397  151.5633 H   0  0  0  0  0  0  0  0  0  0  0  0  # atno 10167 bound_to 10162
  156.9393  130.9996  151.2971 H   0  0  0  0  0  0  0  0  0  0  0  0  # atno 10718 bound_to 10713
  154.8441  135.3449  154.6296 H   0  0  0  0  0  0  0  0  0  0  0  0  # atno 10763 bound_to 10752
  153.6905  135.6975  153.5096 H   0  0  0  0  0  0  0  0  0  0  0  0  # atno 10764 bound_to 10752
  153.2599  135.4326  155.0838 H   0  0  0  0  0  0  0  0  0  0  0  0  # atno 10765 bound_to 10752
  141.1510  133.7852  157.0086 H   0  0  0  0  0  0  0  0  0  0  0  0  # atno 11005 bound_to 11000
  145.8417  140.9577  143.0796 LP  0  0  0  0  0  0  0  0  0  0  0  0  # atno 17320 bound_to 7965
  144.6766  140.0293  143.7483 LP  0  0  0  0  0  0  0  0  0  0  0  0  # atno 17321 bound_to 7965
  139.5386  144.2709  152.1305 LP  0  0  0  0  0  0  0  0  0  0  0  0  # atno 17342 bound_to 10162
  140.1915  144.4747  150.6476 LP  0  0  0  0  0  0  0  0  0  0  0  0  # atno 17343 bound_to 10162
  157.5795  130.8366  149.8503 LP  0  0  0  0  0  0  0  0  0  0  0  0  # atno 17370 bound_to 10713
  156.0411  130.3738  150.1432 LP  0  0  0  0  0  0  0  0  0  0  0  0  # atno 17371 bound_to 10713
  140.0893  134.9602  157.1750 LP  0  0  0  0  0  0  0  0  0  0  0  0  # atno 17394 bound_to 11000
  140.3468  134.2642  155.7204 LP  0  0  0  0  0  0  0  0  0  0  0  0  # atno 17395 bound_to 11000

$$$$
