AV-unprocessed.smi:827|AV-procd|sdf|3857|dock10
  -GOLD-   22720 1313D 1   1.00000     0.00000
 Structure written by MMmdl.
 47 48  0  0  0  0  0  0  0  0  2 V2000
  139.7467  141.7697  154.0863 C   0  0  0  0  0  0  0  0  0  0  0  0
  140.5264  140.6130  153.8026 O   0  0  0  0  0  0  0  0  0  0  0  0
  139.9160  139.3746  153.8637 C   0  0  0  0  0  0  0  0  0  0  0  0
  138.6008  139.3193  154.1922 N   0  0  0  0  0  0  0  0  0  0  0  0
  138.0039  138.1116  154.2540 C   0  0  0  0  0  0  0  0  0  0  0  0
  138.6806  136.9044  154.0007 C   0  0  0  0  0  0  0  0  0  0  0  0
  140.0448  136.9587  153.6604 C   0  0  0  0  0  0  0  0  0  0  0  0
  140.6826  138.2206  153.5767 C   0  0  0  0  0  0  0  0  0  0  0  0
  142.0582  138.3932  153.2568 N   0  0  0  0  0  0  0  0  0  0  0  0
  143.0459  137.4822  153.2677 C   0  0  0  0  0  0  0  0  0  0  0  0
  142.9220  136.2958  153.5714 O   0  0  0  0  0  0  0  0  0  0  0  0
  144.2096  138.0237  152.8808 N   0  0  0  0  0  0  0  0  0  0  0  0
  145.4743  137.3028  152.7897 C   0  0  0  0  0  0  0  0  0  0  0  0
  145.5077  136.3657  151.5663 C   0  0  0  0  0  0  0  0  0  0  0  0
  146.4003  135.1968  151.7683 N   0  3  0  0  0  0  0  0  0  0  0  0
  146.4705  134.7468  153.1870 C   0  0  0  0  0  0  0  0  0  0  0  0
  147.3975  133.5280  153.3475 C   0  0  0  0  0  0  0  0  0  0  0  0
  146.9462  132.4623  152.4480 N   0  0  0  0  0  0  0  0  0  0  0  0
  146.4025  131.2832  152.8343 C   0  0  0  0  0  0  0  0  0  0  0  0
  145.8984  130.3060  151.7700 C   0  0  0  0  0  0  0  0  0  0  0  0
  146.2958  130.9569  154.0163 O   0  0  0  0  0  0  0  0  0  0  0  0
  147.0229  132.8811  151.0459 C   0  0  0  0  0  0  0  0  0  0  0  0
  146.0879  134.0851  150.8297 C   0  0  0  0  0  0  0  0  0  0  0  0
  140.3705  142.6579  153.9884 H   0  0  0  0  0  0  0  0  0  0  0  0
  139.3582  141.7488  155.1056 H   0  0  0  0  0  0  0  0  0  0  0  0
  138.9152  141.8718  153.3873 H   0  0  0  0  0  0  0  0  0  0  0  0
  136.9569  138.1071  154.5182 H   0  0  0  0  0  0  0  0  0  0  0  0
  138.1656  135.9577  154.0707 H   0  0  0  0  0  0  0  0  0  0  0  0
  140.5726  136.0344  153.4855 H   0  0  0  0  0  0  0  0  0  0  0  0
  142.3041  139.3101  152.9125 H   0  0  0  0  0  0  0  0  0  0  0  0
  144.2231  139.0057  152.6456 H   0  0  0  0  0  0  0  0  0  0  0  0
  146.2776  138.0365  152.7173 H   0  0  0  0  0  0  0  0  0  0  0  0
  145.6361  136.7561  153.7190 H   0  0  0  0  0  0  0  0  0  0  0  0
  144.5067  136.0167  151.3083 H   0  0  0  0  0  0  0  0  0  0  0  0
  145.8613  136.9423  150.7098 H   0  0  0  0  0  0  0  0  0  0  0  0
  146.8333  135.5531  153.8232 H   0  0  0  0  0  0  0  0  0  0  0  0
  145.4681  134.4937  153.5369 H   0  0  0  0  0  0  0  0  0  0  0  0
  148.4207  133.8027  153.0864 H   0  0  0  0  0  0  0  0  0  0  0  0
  147.4356  133.2314  154.3947 H   0  0  0  0  0  0  0  0  0  0  0  0
  146.7076  130.0076  151.1027 H   0  0  0  0  0  0  0  0  0  0  0  0
  145.0984  130.7550  151.1807 H   0  0  0  0  0  0  0  0  0  0  0  0
  145.5015  129.4025  152.2348 H   0  0  0  0  0  0  0  0  0  0  0  0
  148.0518  133.1568  150.8099 H   0  0  0  0  0  0  0  0  0  0  0  0
  146.7627  132.0831  150.3492 H   0  0  0  0  0  0  0  0  0  0  0  0
  145.0505  133.7760  150.9692 H   0  0  0  0  0  0  0  0  0  0  0  0
  146.1796  134.4364  149.8012 H   0  0  0  0  0  0  0  0  0  0  0  0
  147.3304  135.5037  151.5214 H   0  0  0  0  0  0  0  0  0  0  0  0
  1  2  1  0  0  0  0
  1 24  1  0  0  0  0
  1 25  1  0  0  0  0
  1 26  1  0  0  0  0
  2  3  1  0  0  0  0
  3  8  1  0  0  0  0
  3  4  2  0  0  0  0
  4  5  1  0  0  0  0
  5  6  2  0  0  0  0
  5 27  1  0  0  0  0
  6  7  1  0  0  0  0
  6 28  1  0  0  0  0
  7  8  2  0  0  0  0
  7 29  1  0  0  0  0
  8  9  1  0  0  0  0
  9 10  1  0  0  0  0
  9 30  1  0  0  0  0
 10 11  2  0  0  0  0
 10 12  1  0  0  0  0
 12 13  1  0  0  0  0
 12 31  1  0  0  0  0
 13 14  1  0  0  0  0
 13 32  1  0  0  0  0
 13 33  1  0  0  0  0
 14 15  1  0  0  0  0
 14 34  1  0  0  0  0
 14 35  1  0  0  0  0
 15 23  1  0  0  0  0
 15 16  1  0  0  0  0
 15 47  1  0  0  0  0
 16 17  1  0  0  0  0
 16 36  1  0  0  0  0
 16 37  1  0  0  0  0
 17 18  1  0  0  0  0
 17 38  1  0  0  0  0
 17 39  1  0  0  0  0
 18 19  1  0  0  0  0
 18 22  1  0  0  0  0
 19 20  1  0  0  0  0
 19 21  2  0  0  0  0
 20 40  1  0  0  0  0
 20 41  1  0  0  0  0
 20 42  1  0  0  0  0
 22 23  1  0  0  0  0
 22 43  1  0  0  0  0
 22 44  1  0  0  0  0
 23 45  1  0  0  0  0
 23 46  1  0  0  0  0
M  CHG  1  15   1
M  END
> <s_m_source_file>
AV-unprocessed.smi

> <i_m_source_file_index>
827

> <i_lp_mmshare_version>
43012

> <i_f3d_flags>
0

> <s_epik_input>
W0NIM11PYzFuW2NIXVtjSF1bY0hdYzFbTkhdQyg9TylbTkhdW0NIMl1bQ0gyXU4yW0NIMl1bQ0gyXU4oQyg9TylbQ0gzXSlbQ0gyXVtDSDJdMg==

> <s_epik_cmdline>
J2VwaWtfcHl0aG9uJywgJy1waCcsICc3LjAnLCAnLXRuJywgJzgnLCAnLW1hJywgJzIwMCcsICctbWV0YWxfYmluZGluZycsICctaW1hZScsICc8aW5maWxlLm1hZT4nLCAnLW9tYWUnLCAnPG91dGZpbGUubWFlPic=

> <r_lp_tautomer_probability>
1

> <r_epik_Ionization_Penalty>
0.63011

> <r_epik_Ionization_Penalty_Charging>
0.630034

> <r_epik_Ionization_Penalty_Neutral>
7.67152e-05

> <r_epik_State_Penalty>
0.646805

> <r_epik_Charging_Adjusted_Penalty>
1.27684

> <i_epik_Tot_Q>
1

> <i_epik_Tot_abs_Q>
1

> <r_epik_Metal_State_Penalty>
0.64681

> <b_epik_Metal_Only>
0

> <s_lp_Force_Field>
OPLS_2005

> <r_lp_Energy>
42.7203

> <b_lp_Chiralities_Consistent>
1

> <s_lp_Variant>
AV-unprocessed.smi:827-2

> <Gold.Version>
5.8.1

> <Gold.Id.Protein>
6NUR|6NUR_protein|mol2

> <Gold.PLP.Fitness>
47.3242

> <Gold.PLP.PLP>
-36.4540

> <Gold.PLP.part.hbond>
-3.4819

> <Gold.PLP.part.metal>
0.0000

> <Gold.PLP.part.buried>
-2.5551

> <Gold.PLP.part.nonpolar>
-30.7654

> <Gold.PLP.part.repulsive>
1.8196

> <Gold.PLP.ligand.clash>
0.0000

> <Gold.PLP.ligand.torsion>
0.5810

> <Gold.PLP.Chemscore.Hbond>
3.9920

> <Gold.PLP.Chemscore.CHOScore>
0.0000

> <Gold.PLP.Chemscore.Metal>
0.0000

> <Gold.Chemscore.Hbonds>
donor molecule, donor type, donor heavy atom, donor atom, acceptor molecule, acceptor atom, score
      L1  H     9    30       P1 10175  0.96
      L1  H    12    31       P1 10175  1.00
      L1  H    15    47       P1  7948  2.00

> <Gold.PLP.Chemscore.Internal.Correction>
0.0562

> <Gold.Rescore>
     Score         DG    S(hbond)    S(metal)    S(lipo)     H(rot)  DE(clash)    DE(int)     intcor
     16.72     -18.77       2.90        0.00      71.79       1.87       0.20       1.85       ----

> <Gold.Chemscore.Fitness>
16.7199

> <Gold.Chemscore.DG>
-18.7678

> <Gold.Chemscore.ZeroCoef>
-5.4800

> <Gold.Chemscore.Hbond>
2.8992

> <Gold.Chemscore.Metal>
0.0000

> <Gold.Chemscore.Lipo>
71.7939

> <Gold.Chemscore.Internal_Hbond>
0.0000

> <Gold.Chemscore.DEClash>
0.2001

> <Gold.Chemscore.DEInternal>
1.8477

> <Gold.Chemscore.Rot>
1.8732

> <Gold.Chemscore.Internal.Correction>
   9.000000E+99

> <Gold.Chemscore.Hbonds>
donor molecule, donor type, donor heavy atom, donor atom, acceptor molecule, acceptor atom, score
      L1  H     9    30       P1 10175  0.89
      L1  H    12    31       P1 10175  0.94
      L1  H    15    47       P1  7948  0.95

> <Gold.Chemscore.Hbond.Weighted>
-9.6833

> <Gold.Chemscore.Metal.Weighted>
-0.0000

> <Gold.Chemscore.Lipo.Weighted>
-8.3999

> <Gold.Chemscore.Internal_Hbond.Weighted>
0.0000

> <Gold.Chemscore.DEClash.Weighted>
0.2001

> <Gold.Chemscore.DEInternal.Weighted>
1.8477

> <Gold.Chemscore.Rot.Weighted>
4.7955

> <Gold.Chemscore.Internal.Correction.Weighted>
   9.000000E+99

> <Gold.Protein.RotatedTorsions>
[ 6907 6896 6895 6894 ] final -100.65 input  -60.11 | X-H torsion
[ 7974 7965 7964 7962 ] final  -64.35 input  175.53 | X-H torsion
[ 8008 7997 7996 7995 ] final -127.80 input   59.86 | X-H torsion
[ 10167 10162 10161 10158 ] final  -57.93 input  -65.29 | X-H torsion
[ 10718 10713 10712 10709 ] final   45.28 input   66.30 | X-H torsion
[ 10763 10752 10751 10750 ] final  109.74 input  -60.55 | X-H torsion
[ 11005 11000 10999 10996 ] final  135.67 input  -57.11 | X-H torsion

> <Gold.Protein.ActiveResidues>
 VAL166  LYS551  ARG553  GLY616  TRP617  ASP618  TYR619  PRO620  LYS621  CYS622 
 ASP623  PHE694  ASN695  SER759  ASP760  ASP761  ALA762  ILE779  LEU786  VAL792 
 PHE793  MET794  SER795  GLU796  ALA797  LYS798  CYS799  TRP800  GLU811  SER814 

> <Gold.Protein.RotatedAtoms>
  150.7124  134.0854  159.3912 H   0  0  0  0  0  0  0  0  0  0  0  0  # atno 6907 bound_to 6896
  151.8839  135.0441  160.0500 H   0  0  0  0  0  0  0  0  0  0  0  0  # atno 6908 bound_to 6896
  152.2546  133.5209  159.5382 H   0  0  0  0  0  0  0  0  0  0  0  0  # atno 6909 bound_to 6896
  145.7677  140.8829  143.0396 H   0  0  0  0  0  0  0  0  0  0  0  0  # atno 7974 bound_to 7965
  155.2522  140.0432  157.2988 H   0  0  0  0  0  0  0  0  0  0  0  0  # atno 8008 bound_to 7997
  154.5762  140.2388  155.8089 H   0  0  0  0  0  0  0  0  0  0  0  0  # atno 8009 bound_to 7997
  156.2160  140.2984  155.9848 H   0  0  0  0  0  0  0  0  0  0  0  0  # atno 8010 bound_to 7997
  140.6228  143.2426  151.5437 H   0  0  0  0  0  0  0  0  0  0  0  0  # atno 10167 bound_to 10162
  157.4358  130.8052  149.7647 H   0  0  0  0  0  0  0  0  0  0  0  0  # atno 10718 bound_to 10713
  153.4390  135.3770  155.2217 H   0  0  0  0  0  0  0  0  0  0  0  0  # atno 10763 bound_to 10752
  154.8753  135.3858  154.4175 H   0  0  0  0  0  0  0  0  0  0  0  0  # atno 10764 bound_to 10752
  153.4718  135.7087  153.6052 H   0  0  0  0  0  0  0  0  0  0  0  0  # atno 10765 bound_to 10752
  139.9995  134.9484  157.0040 H   0  0  0  0  0  0  0  0  0  0  0  0  # atno 11005 bound_to 11000
  144.6818  139.9812  143.7483 LP  0  0  0  0  0  0  0  0  0  0  0  0  # atno 17320 bound_to 7965
  146.0201  139.3243  143.0818 LP  0  0  0  0  0  0  0  0  0  0  0  0  # atno 17321 bound_to 7965
  139.5454  144.2536  152.1431 LP  0  0  0  0  0  0  0  0  0  0  0  0  # atno 17342 bound_to 10162
  140.1760  144.4890  150.6553 LP  0  0  0  0  0  0  0  0  0  0  0  0  # atno 17343 bound_to 10162
  155.9930  130.3927  150.2918 LP  0  0  0  0  0  0  0  0  0  0  0  0  # atno 17370 bound_to 10713
  157.1079  131.0213  151.3060 LP  0  0  0  0  0  0  0  0  0  0  0  0  # atno 17371 bound_to 10713
  140.4755  134.1343  155.7209 LP  0  0  0  0  0  0  0  0  0  0  0  0  # atno 17394 bound_to 11000
  141.1631  133.8756  157.1793 LP  0  0  0  0  0  0  0  0  0  0  0  0  # atno 17395 bound_to 11000

$$$$
