AV-unprocessed.smi:1452|AV-procd|sdf|5903|dock2
  -GOLD-   22720 5593D 1   1.00000     0.00000
 Structure written by MMmdl.
 40 42  0  0  0  0  0  0  0  0  2 V2000
  143.1357  135.9243  153.3349 O   0  0  0  0  0  0  0  0  0  0  0  0
  143.2473  137.0989  152.9880 C   0  0  0  0  0  0  0  0  0  0  0  0
  142.2358  137.9763  153.1619 N   0  0  0  0  0  0  0  0  0  0  0  0
  140.9317  137.8197  153.7188 C   0  0  0  0  0  0  0  0  0  0  0  0
  140.0080  138.8171  153.3326 C   0  0  0  0  0  0  0  0  0  0  0  0
  138.6881  138.7715  153.8216 C   0  0  0  0  0  0  0  0  0  0  0  0
  138.3223  137.7267  154.6882 C   0  0  0  0  0  0  0  0  0  0  0  0
  139.3000  136.7735  155.0255 C   0  0  0  0  0  0  0  0  0  0  0  0
  140.5659  136.8166  154.5582 N   0  0  0  0  0  0  0  0  0  0  0  0
  144.3641  137.5828  152.4207 N   0  0  0  0  0  0  0  0  0  0  0  0
  145.5713  136.8177  152.1283 C   0  0  2  0  0  0  0  0  0  0  0  0
  145.3825  135.8277  150.9649 C   0  0  0  0  0  0  0  0  0  0  0  0
  146.1718  134.5667  151.3683 C   0  0  0  0  0  0  0  0  0  0  0  0
  146.8426  134.9145  152.6353 N   0  3  2  0  0  0  0  0  0  0  0  0
  147.2158  133.7966  153.5290 C   0  0  0  0  0  0  0  0  0  0  0  0
  147.9749  134.3537  154.7498 C   0  0  0  0  0  0  0  0  0  0  0  0
  147.1792  135.4693  155.4575 C   0  0  0  0  0  0  0  0  0  0  0  0
  146.7376  136.5570  154.4595 C   0  0  0  0  0  0  0  0  0  0  0  0
  145.9779  135.9074  153.2903 C   0  0  1  0  0  0  0  0  0  0  0  0
  142.4456  138.9164  152.8589 H   0  0  0  0  0  0  0  0  0  0  0  0
  140.3035  139.6141  152.6653 H   0  0  0  0  0  0  0  0  0  0  0  0
  137.9695  139.5255  153.5356 H   0  0  0  0  0  0  0  0  0  0  0  0
  137.3195  137.6579  155.0833 H   0  0  0  0  0  0  0  0  0  0  0  0
  139.0606  135.9543  155.6871 H   0  0  0  0  0  0  0  0  0  0  0  0
  144.3708  138.5618  152.1690 H   0  0  0  0  0  0  0  0  0  0  0  0
  146.3990  137.4855  151.8798 H   0  0  0  0  0  0  0  0  0  0  0  0
  144.3309  135.5737  150.8221 H   0  0  0  0  0  0  0  0  0  0  0  0
  145.7459  136.2509  150.0278 H   0  0  0  0  0  0  0  0  0  0  0  0
  145.4870  133.7314  151.5232 H   0  0  0  0  0  0  0  0  0  0  0  0
  146.9009  134.2719  150.6133 H   0  0  0  0  0  0  0  0  0  0  0  0
  146.3209  133.2598  153.8475 H   0  0  0  0  0  0  0  0  0  0  0  0
  147.8426  133.0875  152.9870 H   0  0  0  0  0  0  0  0  0  0  0  0
  148.1962  133.5495  155.4519 H   0  0  0  0  0  0  0  0  0  0  0  0
  148.9373  134.7510  154.4249 H   0  0  0  0  0  0  0  0  0  0  0  0
  146.2992  135.0380  155.9363 H   0  0  0  0  0  0  0  0  0  0  0  0
  147.7787  135.9109  156.2542 H   0  0  0  0  0  0  0  0  0  0  0  0
  146.1058  137.2876  154.9648 H   0  0  0  0  0  0  0  0  0  0  0  0
  147.6090  137.0982  154.0886 H   0  0  0  0  0  0  0  0  0  0  0  0
  145.0905  135.3972  153.6727 H   0  0  0  0  0  0  0  0  0  0  0  0
  147.6931  135.3991  152.3864 H   0  0  0  0  0  0  0  0  0  0  0  0
  1  2  2  0  0  0  0
  2  3  1  0  0  0  0
  2 10  1  0  0  0  0
  3  4  1  0  0  0  0
  3 20  1  0  0  0  0
  4  9  1  0  0  0  0
  4  5  2  0  0  0  0
  5  6  1  0  0  0  0
  5 21  1  0  0  0  0
  6  7  2  0  0  0  0
  6 22  1  0  0  0  0
  7  8  1  0  0  0  0
  7 23  1  0  0  0  0
  8  9  2  0  0  0  0
  8 24  1  0  0  0  0
 10 11  1  0  0  0  0
 10 25  1  0  0  0  0
 11 19  1  0  0  0  0
 11 12  1  0  0  0  0
 11 26  1  0  0  0  0
 12 13  1  0  0  0  0
 12 27  1  0  0  0  0
 12 28  1  0  0  0  0
 13 14  1  0  0  0  0
 13 29  1  0  0  0  0
 13 30  1  0  0  0  0
 14 19  1  0  0  0  0
 14 15  1  0  0  0  0
 14 40  1  0  0  0  0
 15 16  1  0  0  0  0
 15 31  1  0  0  0  0
 15 32  1  0  0  0  0
 16 17  1  0  0  0  0
 16 33  1  0  0  0  0
 16 34  1  0  0  0  0
 17 18  1  0  0  0  0
 17 35  1  0  0  0  0
 17 36  1  0  0  0  0
 18 19  1  0  0  0  0
 18 37  1  0  0  0  0
 18 38  1  0  0  0  0
 19 39  1  0  0  0  0
M  CHG  1  14   1
M  END
> <s_m_source_file>
AV-unprocessed.smi

> <i_m_source_file_index>
1452

> <i_lp_mmshare_version>
43012

> <i_f3d_flags>
0

> <s_epik_input>
W0NIMl0xW0NIMl1bQ0gyXVtDSDJdW0NASF0oTjEyKVtDQEBIXShbQ0gyXVtDSDJdMilbTkhdQyg9TylbTkhdYzNbY0hdW2NIXVtjSF1bY0hdbjM=

> <s_epik_cmdline>
J2VwaWtfcHl0aG9uJywgJy1waCcsICc3LjAnLCAnLXRuJywgJzgnLCAnLW1hJywgJzIwMCcsICctbWV0YWxfYmluZGluZycsICctaW1hZScsICc8aW5maWxlLm1hZT4nLCAnLW9tYWUnLCAnPG91dGZpbGUubWFlPic=

> <r_epik_Ionization_Penalty>
0.00100813

> <r_epik_Ionization_Penalty_Charging>
0.000974069

> <r_epik_Ionization_Penalty_Neutral>
3.40643e-05

> <r_epik_State_Penalty>
0.000633842

> <r_epik_Charging_Adjusted_Penalty>
0.00160791

> <i_epik_Tot_Q>
1

> <i_epik_Tot_abs_Q>
1

> <r_epik_Metal_State_Penalty>
-0

> <b_epik_Metal_Only>
0

> <s_lp_Force_Field>
OPLS_2005

> <r_lp_Energy>
38.1413

> <b_lp_Chiralities_Consistent>
1

> <s_lp_Variant>
AV-unprocessed.smi:1452-1

> <Gold.Version>
5.8.1

> <Gold.Id.Protein>
6NUR|6NUR_protein|mol2

> <Gold.PLP.Fitness>
43.9152

> <Gold.PLP.PLP>
-29.4285

> <Gold.PLP.part.hbond>
-4.0000

> <Gold.PLP.part.metal>
0.0000

> <Gold.PLP.part.buried>
-2.6455

> <Gold.PLP.part.nonpolar>
-23.9186

> <Gold.PLP.part.repulsive>
0.2631

> <Gold.PLP.ligand.clash>
0.0000

> <Gold.PLP.ligand.torsion>
0.2480

> <Gold.PLP.Chemscore.Hbond>
4.0000

> <Gold.PLP.Chemscore.CHOScore>
0.9911

> <Gold.PLP.Chemscore.Metal>
0.0000

> <Gold.Chemscore.Hbonds>
donor molecule, donor type, donor heavy atom, donor atom, acceptor molecule, acceptor atom, score
      L1  H     3    20       P1 10175  1.00
      L1  H    10    25       P1 10175  0.99
      L1  H    14    40       P1  7948  2.00
      L1  C     8    24       P1 11000  0.63

> <Gold.PLP.Chemscore.Internal.Correction>
0.0093

> <Gold.Rescore>
     Score         DG    S(hbond)    S(metal)    S(lipo)     H(rot)  DE(clash)    DE(int)     intcor
     16.96     -19.47       2.81        0.00      61.15       1.00       0.05       2.46       ----

> <Gold.Chemscore.Fitness>
16.9634

> <Gold.Chemscore.DG>
-19.4737

> <Gold.Chemscore.ZeroCoef>
-5.4800

> <Gold.Chemscore.Hbond>
2.8140

> <Gold.Chemscore.Metal>
0.0000

> <Gold.Chemscore.Lipo>
61.1534

> <Gold.Chemscore.Internal_Hbond>
0.0000

> <Gold.Chemscore.DEClash>
0.0509

> <Gold.Chemscore.DEInternal>
2.4593

> <Gold.Chemscore.Rot>
1.0000

> <Gold.Chemscore.Internal.Correction>
   9.000000E+99

> <Gold.Chemscore.Hbonds>
donor molecule, donor type, donor heavy atom, donor atom, acceptor molecule, acceptor atom, score
      L1  H     3    20       P1 10175  0.97
      L1  H    10    25       P1 10175  0.87
      L1  H    14    40       P1  7948  0.97

> <Gold.Chemscore.Hbond.Weighted>
-9.3987

> <Gold.Chemscore.Metal.Weighted>
-0.0000

> <Gold.Chemscore.Lipo.Weighted>
-7.1549

> <Gold.Chemscore.Internal_Hbond.Weighted>
0.0000

> <Gold.Chemscore.DEClash.Weighted>
0.0509

> <Gold.Chemscore.DEInternal.Weighted>
2.4593

> <Gold.Chemscore.Rot.Weighted>
2.5600

> <Gold.Chemscore.Internal.Correction.Weighted>
   9.000000E+99

> <Gold.Protein.RotatedTorsions>
[ 6907 6896 6895 6894 ] final  -20.32 input  -60.11 | X-H torsion
[ 7974 7965 7964 7962 ] final  125.38 input  175.53 | X-H torsion
[ 8008 7997 7996 7995 ] final   75.89 input   59.86 | X-H torsion
[ 10167 10162 10161 10158 ] final  -44.85 input  -65.29 | X-H torsion
[ 10718 10713 10712 10709 ] final   -1.68 input   66.30 | X-H torsion
[ 10763 10752 10751 10750 ] final  -77.19 input  -60.55 | X-H torsion
[ 11005 11000 10999 10996 ] final -173.17 input  -57.11 | X-H torsion

> <Gold.Protein.ActiveResidues>
 VAL166  LYS551  ARG553  GLY616  TRP617  ASP618  TYR619  PRO620  LYS621  CYS622 
 ASP623  PHE694  ASN695  SER759  ASP760  ASP761  ALA762  ILE779  LEU786  VAL792 
 PHE793  MET794  SER795  GLU796  ALA797  LYS798  CYS799  TRP800  GLU811  SER814 

> <Gold.Protein.RotatedAtoms>
  151.2500  135.0619  159.9057 H   0  0  0  0  0  0  0  0  0  0  0  0  # atno 6907 bound_to 6896
  152.5381  134.0342  159.8049 H   0  0  0  0  0  0  0  0  0  0  0  0  # atno 6908 bound_to 6896
  151.0549  133.5543  159.2670 H   0  0  0  0  0  0  0  0  0  0  0  0  # atno 6909 bound_to 6896
  145.0737  139.3710  143.4944 H   0  0  0  0  0  0  0  0  0  0  0  0  # atno 7974 bound_to 7965
  155.8195  140.3470  155.5505 H   0  0  0  0  0  0  0  0  0  0  0  0  # atno 8008 bound_to 7997
  155.8357  140.0934  157.1785 H   0  0  0  0  0  0  0  0  0  0  0  0  # atno 8009 bound_to 7997
  154.4004  140.1404  156.3655 H   0  0  0  0  0  0  0  0  0  0  0  0  # atno 8010 bound_to 7997
  140.6881  143.2909  151.3554 H   0  0  0  0  0  0  0  0  0  0  0  0  # atno 10167 bound_to 10162
  156.8020  130.5396  149.5720 H   0  0  0  0  0  0  0  0  0  0  0  0  # atno 10718 bound_to 10713
  154.5096  135.5772  153.6595 H   0  0  0  0  0  0  0  0  0  0  0  0  # atno 10763 bound_to 10752
  152.9894  135.6155  154.2896 H   0  0  0  0  0  0  0  0  0  0  0  0  # atno 10764 bound_to 10752
  154.2809  135.2851  155.2677 H   0  0  0  0  0  0  0  0  0  0  0  0  # atno 10765 bound_to 10752
  140.4887  134.6005  157.4947 H   0  0  0  0  0  0  0  0  0  0  0  0  # atno 11005 bound_to 11000
  146.3529  140.0494  142.8637 LP  0  0  0  0  0  0  0  0  0  0  0  0  # atno 17320 bound_to 7965
  145.1262  140.9491  143.4571 LP  0  0  0  0  0  0  0  0  0  0  0  0  # atno 17321 bound_to 7965
  139.6257  144.0818  152.2432 LP  0  0  0  0  0  0  0  0  0  0  0  0  # atno 17342 bound_to 10162
  140.0277  144.6105  150.7514 LP  0  0  0  0  0  0  0  0  0  0  0  0  # atno 17343 bound_to 10162
  156.1096  130.6030  151.0025 LP  0  0  0  0  0  0  0  0  0  0  0  0  # atno 17370 bound_to 10713
  157.6549  131.0891  150.7969 LP  0  0  0  0  0  0  0  0  0  0  0  0  # atno 17371 bound_to 10713
  139.9782  134.7180  155.9909 LP  0  0  0  0  0  0  0  0  0  0  0  0  # atno 17394 bound_to 11000
  141.1495  133.6550  156.3969 LP  0  0  0  0  0  0  0  0  0  0  0  0  # atno 17395 bound_to 11000

$$$$
