AV-unprocessed.smi:2821|AV-procd|sdf|10859|dock2
  -GOLD-   2272015303D 1   1.00000     0.00000
 Structure written by MMmdl.
 36 37  0  0  0  0  0  0  0  0  1 V2000
  152.7841  138.5051  156.0776 C   0  0  0  0  0  0  0  0  0  0  0  0
  152.7160  138.4423  154.5501 C   0  0  0  0  0  0  0  0  0  0  0  0
  151.3529  138.3157  154.1570 O   0  0  0  0  0  0  0  0  0  0  0  0
  150.4974  139.3652  154.4214 C   0  0  0  0  0  0  0  0  0  0  0  0
  149.1941  139.3553  153.8801 C   0  0  0  0  0  0  0  0  0  0  0  0
  148.3132  140.3517  154.1191 N   0  0  0  0  0  0  0  0  0  0  0  0
  148.7409  141.3614  154.9087 C   0  0  0  0  0  0  0  0  0  0  0  0
  150.0412  141.3839  155.4596 C   0  0  0  0  0  0  0  0  0  0  0  0
  150.4204  142.4562  156.2800 N   0  0  0  0  0  0  0  0  0  0  0  0
  150.5657  142.3073  157.7276 C   0  0  1  0  0  0  0  0  0  0  0  0
  150.5969  140.8159  158.0922 C   0  0  0  0  0  0  0  0  0  0  0  0
  151.8106  143.0440  158.2826 C   0  0  1  0  0  0  0  0  0  0  0  0
  151.8952  144.5513  157.9779 C   0  0  0  0  0  0  0  0  0  0  0  0
  151.8110  145.1981  159.3470 C   0  0  0  0  0  0  0  0  0  0  0  0
  152.3979  144.1211  160.2477 C   0  0  0  0  0  0  0  0  0  0  0  0
  151.8751  142.9216  159.7015 O   0  0  0  0  0  0  0  0  0  0  0  0
  150.9225  140.3881  155.2044 N   0  0  0  0  0  0  0  0  0  0  0  0
  153.8156  138.5977  156.4176 H   0  0  0  0  0  0  0  0  0  0  0  0
  152.3634  137.6046  156.5254 H   0  0  0  0  0  0  0  0  0  0  0  0
  152.2278  139.3617  156.4590 H   0  0  0  0  0  0  0  0  0  0  0  0
  153.1529  139.3492  154.1280 H   0  0  0  0  0  0  0  0  0  0  0  0
  153.2955  137.5898  154.1918 H   0  0  0  0  0  0  0  0  0  0  0  0
  148.8557  138.5420  153.2554 H   0  0  0  0  0  0  0  0  0  0  0  0
  148.0351  142.1550  155.1065 H   0  0  0  0  0  0  0  0  0  0  0  0
  150.3198  143.3924  155.9158 H   0  0  0  0  0  0  0  0  0  0  0  0
  149.6816  142.7222  158.2129 H   0  0  0  0  0  0  0  0  0  0  0  0
  150.6579  140.6771  159.1719 H   0  0  0  0  0  0  0  0  0  0  0  0
  151.4521  140.3093  157.6438 H   0  0  0  0  0  0  0  0  0  0  0  0
  149.6939  140.3098  157.7490 H   0  0  0  0  0  0  0  0  0  0  0  0
  152.7079  142.5609  157.8932 H   0  0  0  0  0  0  0  0  0  0  0  0
  152.8584  144.7789  157.5194 H   0  0  0  0  0  0  0  0  0  0  0  0
  151.1189  144.9127  157.3035 H   0  0  0  0  0  0  0  0  0  0  0  0
  152.3467  146.1456  159.4079 H   0  0  0  0  0  0  0  0  0  0  0  0
  150.7683  145.3760  159.6133 H   0  0  0  0  0  0  0  0  0  0  0  0
  153.4869  144.1078  160.1816 H   0  0  0  0  0  0  0  0  0  0  0  0
  152.1142  144.2424  161.2932 H   0  0  0  0  0  0  0  0  0  0  0  0
  1  2  1  0  0  0  0
  1 18  1  0  0  0  0
  1 19  1  0  0  0  0
  1 20  1  0  0  0  0
  2  3  1  0  0  0  0
  2 21  1  0  0  0  0
  2 22  1  0  0  0  0
  3  4  1  0  0  0  0
  4 17  1  0  0  0  0
  4  5  2  0  0  0  0
  5  6  1  0  0  0  0
  5 23  1  0  0  0  0
  6  7  2  0  0  0  0
  7  8  1  0  0  0  0
  7 24  1  0  0  0  0
  8  9  1  0  0  0  0
  8 17  2  0  0  0  0
  9 10  1  0  0  0  0
  9 25  1  0  0  0  0
 10 11  1  0  0  0  0
 10 12  1  0  0  0  0
 10 26  1  0  0  0  0
 11 27  1  0  0  0  0
 11 28  1  0  0  0  0
 11 29  1  0  0  0  0
 12 16  1  0  0  0  0
 12 13  1  0  0  0  0
 12 30  1  0  0  0  0
 13 14  1  0  0  0  0
 13 31  1  0  0  0  0
 13 32  1  0  0  0  0
 14 15  1  0  0  0  0
 14 33  1  0  0  0  0
 14 34  1  0  0  0  0
 15 16  1  0  0  0  0
 15 35  1  0  0  0  0
 15 36  1  0  0  0  0
M  END
> <s_m_source_file>
AV-unprocessed.smi

> <i_m_source_file_index>
2821

> <i_lp_mmshare_version>
43012

> <i_f3d_flags>
0

> <s_epik_input>
W0NIM11bQ0gyXU9jMVtjSF1uW2NIXWMobjEpW05IXVtDQEhdKFtDSDNdKVtDQEBIXTJbQ0gyXVtDSDJdW0NIMl1PMg==

> <s_epik_cmdline>
J2VwaWtfcHl0aG9uJywgJy1waCcsICc3LjAnLCAnLXRuJywgJzgnLCAnLW1hJywgJzIwMCcsICctbWV0YWxfYmluZGluZycsICctaW1hZScsICc8aW5maWxlLm1hZT4nLCAnLW9tYWUnLCAnPG91dGZpbGUubWFlPic=

> <r_lp_tautomer_probability>
1

> <r_epik_Ionization_Penalty>
4.69533e-05

> <r_epik_Ionization_Penalty_Charging>
0

> <r_epik_Ionization_Penalty_Neutral>
4.69533e-05

> <r_epik_State_Penalty>
-0

> <r_epik_Charging_Adjusted_Penalty>
0

> <i_epik_Tot_Q>
0

> <i_epik_Tot_abs_Q>
0

> <r_epik_Metal_State_Penalty>
-0

> <b_epik_Metal_Only>
0

> <s_lp_Force_Field>
OPLS_2005

> <r_lp_Energy>
30.0608

> <b_lp_Chiralities_Consistent>
1

> <s_lp_Variant>
AV-unprocessed.smi:2821-4

> <Gold.Version>
5.8.1

> <Gold.Id.Protein>
6NUR|6NUR_protein|mol2

> <Gold.PLP.Fitness>
41.5010

> <Gold.PLP.PLP>
-37.4042

> <Gold.PLP.part.hbond>
-2.0000

> <Gold.PLP.part.metal>
0.0000

> <Gold.PLP.part.buried>
-3.5826

> <Gold.PLP.part.nonpolar>
-33.0560

> <Gold.PLP.part.repulsive>
0.4593

> <Gold.PLP.ligand.clash>
0.0024

> <Gold.PLP.ligand.torsion>
0.9879

> <Gold.PLP.Chemscore.Hbond>
0.7136

> <Gold.PLP.Chemscore.CHOScore>
1.2944

> <Gold.PLP.Chemscore.Metal>
0.0000

> <Gold.Chemscore.Hbonds>
donor molecule, donor type, donor heavy atom, donor atom, acceptor molecule, acceptor atom, score
      L1  H     9    25       P1  8028  0.78
      L1  C     5    23       P1  7948  0.64
      L1  C     5    23       P1  7957  0.10
      L1  C     7    24       P1  8028  0.40

> <Gold.PLP.Chemscore.Internal.Correction>
0.0511

> <Gold.Rescore>
     Score         DG    S(hbond)    S(metal)    S(lipo)     H(rot)  DE(clash)    DE(int)     intcor
     11.96     -15.14       1.01        0.00      87.69       1.55       0.00       3.18       ----

> <Gold.Chemscore.Fitness>
11.9597

> <Gold.Chemscore.DG>
-15.1378

> <Gold.Chemscore.ZeroCoef>
-5.4800

> <Gold.Chemscore.Hbond>
1.0087

> <Gold.Chemscore.Metal>
0.0000

> <Gold.Chemscore.Lipo>
87.6940

> <Gold.Chemscore.Internal_Hbond>
0.0000

> <Gold.Chemscore.DEClash>
0.0009

> <Gold.Chemscore.DEInternal>
3.1772

> <Gold.Chemscore.Rot>
1.5514

> <Gold.Chemscore.Internal.Correction>
   9.000000E+99

> <Gold.Chemscore.Hbonds>
donor molecule, donor type, donor heavy atom, donor atom, acceptor molecule, acceptor atom, score
      L1  H     9    25       P1  8028  0.76

> <Gold.Chemscore.Hbond.Weighted>
-3.3691

> <Gold.Chemscore.Metal.Weighted>
-0.0000

> <Gold.Chemscore.Lipo.Weighted>
-10.2602

> <Gold.Chemscore.Internal_Hbond.Weighted>
0.0000

> <Gold.Chemscore.DEClash.Weighted>
0.0009

> <Gold.Chemscore.DEInternal.Weighted>
3.1772

> <Gold.Chemscore.Rot.Weighted>
3.9715

> <Gold.Chemscore.Internal.Correction.Weighted>
   9.000000E+99

> <Gold.Protein.RotatedTorsions>
[ 6907 6896 6895 6894 ] final  102.92 input  -60.11 | X-H torsion
[ 7974 7965 7964 7962 ] final   11.40 input  175.53 | X-H torsion
[ 8008 7997 7996 7995 ] final    2.95 input   59.86 | X-H torsion
[ 10167 10162 10161 10158 ] final  -75.81 input  -65.29 | X-H torsion
[ 10718 10713 10712 10709 ] final   72.84 input   66.30 | X-H torsion
[ 10763 10752 10751 10750 ] final -119.06 input  -60.55 | X-H torsion
[ 11005 11000 10999 10996 ] final  -48.17 input  -57.11 | X-H torsion

> <Gold.Protein.ActiveResidues>
 VAL166  LYS551  ARG553  GLY616  TRP617  ASP618  TYR619  PRO620  LYS621  CYS622 
 ASP623  PHE694  ASN695  SER759  ASP760  ASP761  ALA762  ILE779  LEU786  VAL792 
 PHE793  MET794  SER795  GLU796  ALA797  LYS798  CYS799  TRP800  GLU811  SER814 

> <Gold.Protein.RotatedAtoms>
  152.5310  133.9904  159.7847 H   0  0  0  0  0  0  0  0  0  0  0  0  # atno 6907 bound_to 6896
  151.0141  133.5930  159.2686 H   0  0  0  0  0  0  0  0  0  0  0  0  # atno 6908 bound_to 6896
  151.2994  135.0771  159.9286 H   0  0  0  0  0  0  0  0  0  0  0  0  # atno 6909 bound_to 6896
  146.2371  139.9490  142.8473 H   0  0  0  0  0  0  0  0  0  0  0  0  # atno 7974 bound_to 7965
  154.6978  140.2666  155.6749 H   0  0  0  0  0  0  0  0  0  0  0  0  # atno 8008 bound_to 7997
  156.2754  140.2778  156.1502 H   0  0  0  0  0  0  0  0  0  0  0  0  # atno 8009 bound_to 7997
  155.0807  140.0372  157.2628 H   0  0  0  0  0  0  0  0  0  0  0  0  # atno 8010 bound_to 7997
  140.4911  143.2380  151.7906 H   0  0  0  0  0  0  0  0  0  0  0  0  # atno 10167 bound_to 10162
  157.6520  130.9599  150.0985 H   0  0  0  0  0  0  0  0  0  0  0  0  # atno 10718 bound_to 10713
  154.8606  135.4252  154.2238 H   0  0  0  0  0  0  0  0  0  0  0  0  # atno 10763 bound_to 10752
  153.3238  135.6984  153.7013 H   0  0  0  0  0  0  0  0  0  0  0  0  # atno 10764 bound_to 10752
  153.6057  135.3528  155.2935 H   0  0  0  0  0  0  0  0  0  0  0  0  # atno 10765 bound_to 10752
  141.0685  133.6686  156.3403 H   0  0  0  0  0  0  0  0  0  0  0  0  # atno 11005 bound_to 11000
  145.1879  140.9798  143.4228 LP  0  0  0  0  0  0  0  0  0  0  0  0  # atno 17320 bound_to 7965
  144.9883  139.3714  143.6227 LP  0  0  0  0  0  0  0  0  0  0  0  0  # atno 17321 bound_to 7965
  139.4851  144.4648  151.9497 LP  0  0  0  0  0  0  0  0  0  0  0  0  # atno 17342 bound_to 10162
  140.3735  144.2826  150.5917 LP  0  0  0  0  0  0  0  0  0  0  0  0  # atno 17343 bound_to 10162
  156.1914  130.3655  149.8905 LP  0  0  0  0  0  0  0  0  0  0  0  0  # atno 17370 bound_to 10713
  156.6832  130.8866  151.3578 LP  0  0  0  0  0  0  0  0  0  0  0  0  # atno 17371 bound_to 10713
  140.5723  134.5828  157.5460 LP  0  0  0  0  0  0  0  0  0  0  0  0  # atno 17394 bound_to 11000
  139.9500  134.7634  156.0471 LP  0  0  0  0  0  0  0  0  0  0  0  0  # atno 17395 bound_to 11000

$$$$
