AV-unprocessed.smi:1926|AV-procd|sdf|7794|dock2
  -GOLD-   22720 9533D 1   1.00000     0.00000
 Structure written by MMmdl.
 35 36  0  0  0  0  0  0  0  0  1 V2000
  151.6129  138.3576  154.4102 C   0  0  0  0  0  0  0  0  0  0  0  0
  150.3274  138.3932  153.7998 O   0  0  0  0  0  0  0  0  0  0  0  0
  149.5137  139.4851  154.0364 C   0  0  0  0  0  0  0  0  0  0  0  0
  150.0430  140.5535  154.6837 N   0  0  0  0  0  0  0  0  0  0  0  0
  149.2532  141.6220  154.9130 C   0  0  0  0  0  0  0  0  0  0  0  0
  147.9073  141.6843  154.5100 C   0  0  0  0  0  0  0  0  0  0  0  0
  147.3556  140.5777  153.8385 C   0  0  0  0  0  0  0  0  0  0  0  0
  148.1693  139.4431  153.5964 C   0  0  0  0  0  0  0  0  0  0  0  0
  147.7316  138.2666  152.9233 N   0  0  0  0  0  0  0  0  0  0  0  0
  146.4923  137.8963  152.5573 C   0  0  0  0  0  0  0  0  0  0  0  0
  145.4634  138.5447  152.7427 O   0  0  0  0  0  0  0  0  0  0  0  0
  146.5078  136.6976  151.9576 N   0  0  0  0  0  0  0  0  0  0  0  0
  145.3326  135.9993  151.4469 C   0  0  0  0  0  0  0  0  0  0  0  0
  145.7004  134.6780  150.7443 C   0  0  2  0  0  0  0  0  0  0  0  0
  144.5170  133.8547  150.2748 C   0  0  0  0  0  0  0  0  0  0  0  0
  145.1486  132.4782  150.0930 C   0  0  0  0  0  0  0  0  0  0  0  0
  146.1808  132.3931  151.0714 O   0  0  0  0  0  0  0  0  0  0  0  0
  146.4185  133.6751  151.6466 C   0  0  0  0  0  0  0  0  0  0  0  0
  152.1236  137.4396  154.1205 H   0  0  0  0  0  0  0  0  0  0  0  0
  151.5386  138.3655  155.4985 H   0  0  0  0  0  0  0  0  0  0  0  0
  152.2316  139.1959  154.0868 H   0  0  0  0  0  0  0  0  0  0  0  0
  149.7089  142.4531  155.4303 H   0  0  0  0  0  0  0  0  0  0  0  0
  147.3112  142.5627  154.7091 H   0  0  0  0  0  0  0  0  0  0  0  0
  146.3268  140.6349  153.5224 H   0  0  0  0  0  0  0  0  0  0  0  0
  148.4627  137.6001  152.7217 H   0  0  0  0  0  0  0  0  0  0  0  0
  147.3968  136.2320  151.8475 H   0  0  0  0  0  0  0  0  0  0  0  0
  144.6308  135.8116  152.2611 H   0  0  0  0  0  0  0  0  0  0  0  0
  144.8233  136.6653  150.7499 H   0  0  0  0  0  0  0  0  0  0  0  0
  146.3415  134.8844  149.8854 H   0  0  0  0  0  0  0  0  0  0  0  0
  143.7485  133.8155  151.0481 H   0  0  0  0  0  0  0  0  0  0  0  0
  144.0633  134.2360  149.3594 H   0  0  0  0  0  0  0  0  0  0  0  0
  144.4257  131.6698  150.2026 H   0  0  0  0  0  0  0  0  0  0  0  0
  145.6015  132.3960  149.1042 H   0  0  0  0  0  0  0  0  0  0  0  0
  147.4858  133.8814  151.7321 H   0  0  0  0  0  0  0  0  0  0  0  0
  145.9925  133.6825  152.6508 H   0  0  0  0  0  0  0  0  0  0  0  0
  1  2  1  0  0  0  0
  1 19  1  0  0  0  0
  1 20  1  0  0  0  0
  1 21  1  0  0  0  0
  2  3  1  0  0  0  0
  3  8  1  0  0  0  0
  3  4  2  0  0  0  0
  4  5  1  0  0  0  0
  5  6  2  0  0  0  0
  5 22  1  0  0  0  0
  6  7  1  0  0  0  0
  6 23  1  0  0  0  0
  7  8  2  0  0  0  0
  7 24  1  0  0  0  0
  8  9  1  0  0  0  0
  9 10  1  0  0  0  0
  9 25  1  0  0  0  0
 10 11  2  0  0  0  0
 10 12  1  0  0  0  0
 12 13  1  0  0  0  0
 12 26  1  0  0  0  0
 13 14  1  0  0  0  0
 13 27  1  0  0  0  0
 13 28  1  0  0  0  0
 14 18  1  0  0  0  0
 14 15  1  0  0  0  0
 14 29  1  0  0  0  0
 15 16  1  0  0  0  0
 15 30  1  0  0  0  0
 15 31  1  0  0  0  0
 16 17  1  0  0  0  0
 16 32  1  0  0  0  0
 16 33  1  0  0  0  0
 17 18  1  0  0  0  0
 18 34  1  0  0  0  0
 18 35  1  0  0  0  0
M  END
> <s_m_source_file>
AV-unprocessed.smi

> <i_m_source_file_index>
1926

> <i_lp_mmshare_version>
43012

> <i_f3d_flags>
0

> <s_epik_input>
W0NIM11PYzFuW2NIXVtjSF1bY0hdYzFbTkhdQyg9TylbTkhdW0NIMl1bQ0BASF0yW0NIMl1bQ0gyXU9bQ0gyXTI=

> <s_epik_cmdline>
J2VwaWtfcHl0aG9uJywgJy1waCcsICc3LjAnLCAnLXRuJywgJzgnLCAnLW1hJywgJzIwMCcsICctbWV0YWxfYmluZGluZycsICctaW1hZScsICc8aW5maWxlLm1hZT4nLCAnLW9tYWUnLCAnPG91dGZpbGUubWFlPic=

> <r_lp_tautomer_probability>
1

> <r_epik_Ionization_Penalty>
9.48928e-05

> <r_epik_Ionization_Penalty_Charging>
0

> <r_epik_Ionization_Penalty_Neutral>
9.48928e-05

> <r_epik_State_Penalty>
-0

> <r_epik_Charging_Adjusted_Penalty>
0

> <i_epik_Tot_Q>
0

> <i_epik_Tot_abs_Q>
0

> <r_epik_Metal_State_Penalty>
-0

> <b_epik_Metal_Only>
0

> <s_lp_Force_Field>
OPLS_2005

> <r_lp_Energy>
20.748

> <b_lp_Chiralities_Consistent>
1

> <s_lp_Variant>
AV-unprocessed.smi:1926-1

> <Gold.Version>
5.8.1

> <Gold.Id.Protein>
6NUR|6NUR_protein|mol2

> <Gold.PLP.Fitness>
40.5691

> <Gold.PLP.PLP>
-29.2324

> <Gold.PLP.part.hbond>
-3.6395

> <Gold.PLP.part.metal>
0.0000

> <Gold.PLP.part.buried>
-1.2690

> <Gold.PLP.part.nonpolar>
-29.0707

> <Gold.PLP.part.repulsive>
4.2237

> <Gold.PLP.ligand.clash>
0.0000

> <Gold.PLP.ligand.torsion>
0.1090

> <Gold.PLP.Chemscore.Hbond>
2.9040

> <Gold.PLP.Chemscore.CHOScore>
0.9458

> <Gold.PLP.Chemscore.Metal>
0.0000

> <Gold.Chemscore.Hbonds>
donor molecule, donor type, donor heavy atom, donor atom, acceptor molecule, acceptor atom, score
      L1  H     9    25       P1  7948  0.96
      L1  H    12    26       P1  7948  1.00
      P1  H  7989  7998       L1     4  0.84
      L1  C     5    22       P1  8028  0.96

> <Gold.PLP.Chemscore.Internal.Correction>
0.0054

> <Gold.Rescore>
     Score         DG    S(hbond)    S(metal)    S(lipo)     H(rot)  DE(clash)    DE(int)     intcor
     13.36     -16.39       2.01        0.00      68.57       1.50       1.80       1.22       ----

> <Gold.Chemscore.Fitness>
13.3615

> <Gold.Chemscore.DG>
-16.3868

> <Gold.Chemscore.ZeroCoef>
-5.4800

> <Gold.Chemscore.Hbond>
2.0111

> <Gold.Chemscore.Metal>
0.0000

> <Gold.Chemscore.Lipo>
68.5676

> <Gold.Chemscore.Internal_Hbond>
0.0000

> <Gold.Chemscore.DEClash>
1.8049

> <Gold.Chemscore.DEInternal>
1.2203

> <Gold.Chemscore.Rot>
1.4971

> <Gold.Chemscore.Internal.Correction>
   9.000000E+99

> <Gold.Chemscore.Hbonds>
donor molecule, donor type, donor heavy atom, donor atom, acceptor molecule, acceptor atom, score
      L1  H     9    25       P1  7948  0.92
      L1  H    12    26       P1  7948  0.91
      P1  H  7989  7998       L1     4  0.16

> <Gold.Chemscore.Hbond.Weighted>
-6.7169

> <Gold.Chemscore.Metal.Weighted>
-0.0000

> <Gold.Chemscore.Lipo.Weighted>
-8.0224

> <Gold.Chemscore.Internal_Hbond.Weighted>
0.0000

> <Gold.Chemscore.DEClash.Weighted>
1.8049

> <Gold.Chemscore.DEInternal.Weighted>
1.2203

> <Gold.Chemscore.Rot.Weighted>
3.8326

> <Gold.Chemscore.Internal.Correction.Weighted>
   9.000000E+99

> <Gold.Protein.RotatedTorsions>
[ 6907 6896 6895 6894 ] final   95.08 input  -60.11 | X-H torsion
[ 7974 7965 7964 7962 ] final -133.51 input  175.53 | X-H torsion
[ 8008 7997 7996 7995 ] final  -99.21 input   59.86 | X-H torsion
[ 10167 10162 10161 10158 ] final  159.86 input  -65.29 | X-H torsion
[ 10718 10713 10712 10709 ] final  155.57 input   66.30 | X-H torsion
[ 10763 10752 10751 10750 ] final   46.02 input  -60.55 | X-H torsion
[ 11005 11000 10999 10996 ] final    4.93 input  -57.11 | X-H torsion

> <Gold.Protein.ActiveResidues>
 VAL166  LYS551  ARG553  GLY616  TRP617  ASP618  TYR619  PRO620  LYS621  CYS622 
 ASP623  PHE694  ASN695  SER759  ASP760  ASP761  ALA762  ILE779  LEU786  VAL792 
 PHE793  MET794  SER795  GLU796  ALA797  LYS798  CYS799  TRP800  GLU811  SER814 

> <Gold.Protein.RotatedAtoms>
  152.5446  134.1095  159.8351 H   0  0  0  0  0  0  0  0  0  0  0  0  # atno 6907 bound_to 6896
  151.1163  133.5129  159.2611 H   0  0  0  0  0  0  0  0  0  0  0  0  # atno 6908 bound_to 6896
  151.1828  135.0378  159.8854 H   0  0  0  0  0  0  0  0  0  0  0  0  # atno 6909 bound_to 6896
  144.9187  140.6986  143.4979 H   0  0  0  0  0  0  0  0  0  0  0  0  # atno 7974 bound_to 7965
  154.8117  140.0449  157.1348 H   0  0  0  0  0  0  0  0  0  0  0  0  # atno 8008 bound_to 7997
  154.9360  140.3046  155.5124 H   0  0  0  0  0  0  0  0  0  0  0  0  # atno 8009 bound_to 7997
  156.2972  140.2314  156.4425 H   0  0  0  0  0  0  0  0  0  0  0  0  # atno 8010 bound_to 7997
  139.4835  144.4690  151.8602 H   0  0  0  0  0  0  0  0  0  0  0  0  # atno 10167 bound_to 10162
  157.2166  131.0709  151.1937 H   0  0  0  0  0  0  0  0  0  0  0  0  # atno 10718 bound_to 10713
  152.9816  135.6021  154.3532 H   0  0  0  0  0  0  0  0  0  0  0  0  # atno 10763 bound_to 10752
  154.3220  135.2769  155.2516 H   0  0  0  0  0  0  0  0  0  0  0  0  # atno 10764 bound_to 10752
  154.4679  135.5949  153.6356 H   0  0  0  0  0  0  0  0  0  0  0  0  # atno 10765 bound_to 10752
  140.5764  134.0054  155.8029 H   0  0  0  0  0  0  0  0  0  0  0  0  # atno 11005 bound_to 11000
  145.3333  139.1753  143.4525 LP  0  0  0  0  0  0  0  0  0  0  0  0  # atno 17320 bound_to 7965
  146.3194  140.3365  142.8644 LP  0  0  0  0  0  0  0  0  0  0  0  0  # atno 17321 bound_to 7965
  140.4157  144.2310  150.5888 LP  0  0  0  0  0  0  0  0  0  0  0  0  # atno 17342 bound_to 10162
  140.4923  143.2343  151.8801 LP  0  0  0  0  0  0  0  0  0  0  0  0  # atno 17343 bound_to 10162
  157.3618  130.7135  149.6507 LP  0  0  0  0  0  0  0  0  0  0  0  0  # atno 17370 bound_to 10713
  155.9686  130.4223  150.4511 LP  0  0  0  0  0  0  0  0  0  0  0  0  # atno 17371 bound_to 10713
  141.1024  133.9747  157.3056 LP  0  0  0  0  0  0  0  0  0  0  0  0  # atno 17394 bound_to 11000
  139.9338  135.0198  156.8487 LP  0  0  0  0  0  0  0  0  0  0  0  0  # atno 17395 bound_to 11000

$$$$
