AV-unprocessed.smi:2333|AV-procd|sdf|9320|dock3
  -GOLD-   2272012543D 1   1.00000     0.00000
 Structure written by MMmdl.
 37 38  0  0  0  0  0  0  0  0  1 V2000
  152.2051  144.2236  160.3838 C   0  0  0  0  0  0  0  0  0  0  0  0
  152.0229  143.1984  159.2785 C   0  0  0  0  0  0  0  0  0  0  0  0
  151.1841  143.5844  158.2296 N   0  0  0  0  0  0  0  0  0  0  0  0
  150.9807  142.7803  157.2381 C   0  0  0  0  0  0  0  0  0  0  0  0
  151.5844  141.5113  157.1761 N   0  0  0  0  0  0  0  0  0  0  0  0
  151.2707  140.6842  155.9924 C   0  0  0  0  0  0  0  0  0  0  0  0
  149.7558  140.5830  155.6387 C   0  0  0  0  0  0  0  0  0  0  0  0
  149.5540  139.3267  155.0177 O   0  0  0  0  0  0  0  0  0  0  0  0
  148.9241  140.5623  156.9456 C   0  0  0  0  0  0  0  0  0  0  0  0
  147.4047  140.5166  156.7014 C   0  0  0  0  0  0  0  0  0  0  0  0
  146.9519  141.6674  155.7933 C   0  0  0  0  0  0  0  0  0  0  0  0
  147.7215  141.6511  154.4659 C   0  0  0  0  0  0  0  0  0  0  0  0
  149.2430  141.7023  154.6952 C   0  0  0  0  0  0  0  0  0  0  0  0
  152.3868  141.0442  158.1767 C   0  0  0  0  0  0  0  0  0  0  0  0
  152.8735  139.9128  158.1444 O   0  0  0  0  0  0  0  0  0  0  0  0
  152.6257  141.9785  159.2889 C   0  0  0  0  0  0  0  0  0  0  0  0
  153.5525  141.5050  160.4017 C   0  0  0  0  0  0  0  0  0  0  0  0
  151.8996  143.8084  161.3447 H   0  0  0  0  0  0  0  0  0  0  0  0
  151.6055  145.1164  160.2013 H   0  0  0  0  0  0  0  0  0  0  0  0
  153.2494  144.5299  160.4517 H   0  0  0  0  0  0  0  0  0  0  0  0
  150.3383  143.0385  156.3945 H   0  0  0  0  0  0  0  0  0  0  0  0
  151.8358  141.0356  155.1264 H   0  0  0  0  0  0  0  0  0  0  0  0
  151.6599  139.6768  156.1527 H   0  0  0  0  0  0  0  0  0  0  0  0
  150.3861  139.0136  154.6974 H   0  0  0  0  0  0  0  0  0  0  0  0
  149.2204  139.7177  157.5694 H   0  0  0  0  0  0  0  0  0  0  0  0
  149.1477  141.4574  157.5279 H   0  0  0  0  0  0  0  0  0  0  0  0
  147.1280  139.5626  156.2510 H   0  0  0  0  0  0  0  0  0  0  0  0
  146.8769  140.5683  157.6541 H   0  0  0  0  0  0  0  0  0  0  0  0
  145.8805  141.5933  155.6041 H   0  0  0  0  0  0  0  0  0  0  0  0
  147.1127  142.6201  156.2994 H   0  0  0  0  0  0  0  0  0  0  0  0
  147.4624  140.7538  153.9031 H   0  0  0  0  0  0  0  0  0  0  0  0
  147.4135  142.4968  153.8503 H   0  0  0  0  0  0  0  0  0  0  0  0
  149.4953  142.6738  155.1218 H   0  0  0  0  0  0  0  0  0  0  0  0
  149.7466  141.6513  153.7291 H   0  0  0  0  0  0  0  0  0  0  0  0
  154.5302  141.2481  159.9925 H   0  0  0  0  0  0  0  0  0  0  0  0
  153.1416  140.6152  160.8795 H   0  0  0  0  0  0  0  0  0  0  0  0
  153.7096  142.2523  161.1778 H   0  0  0  0  0  0  0  0  0  0  0  0
  1  2  1  0  0  0  0
  1 18  1  0  0  0  0
  1 19  1  0  0  0  0
  1 20  1  0  0  0  0
  2 16  2  0  0  0  0
  2  3  1  0  0  0  0
  3  4  2  0  0  0  0
  4  5  1  0  0  0  0
  4 21  1  0  0  0  0
  5  6  1  0  0  0  0
  5 14  1  0  0  0  0
  6  7  1  0  0  0  0
  6 22  1  0  0  0  0
  6 23  1  0  0  0  0
  7 13  1  0  0  0  0
  7  8  1  0  0  0  0
  7  9  1  0  0  0  0
  8 24  1  0  0  0  0
  9 10  1  0  0  0  0
  9 25  1  0  0  0  0
  9 26  1  0  0  0  0
 10 11  1  0  0  0  0
 10 27  1  0  0  0  0
 10 28  1  0  0  0  0
 11 12  1  0  0  0  0
 11 29  1  0  0  0  0
 11 30  1  0  0  0  0
 12 13  1  0  0  0  0
 12 31  1  0  0  0  0
 12 32  1  0  0  0  0
 13 33  1  0  0  0  0
 13 34  1  0  0  0  0
 14 15  2  0  0  0  0
 14 16  1  0  0  0  0
 16 17  1  0  0  0  0
 17 35  1  0  0  0  0
 17 36  1  0  0  0  0
 17 37  1  0  0  0  0
M  END
> <s_m_source_file>
AV-unprocessed.smi

> <i_m_source_file_index>
2333

> <i_lp_mmshare_version>
43012

> <i_f3d_flags>
0

> <s_epik_input>
W0NIM11jMW5bY0hdbihjKD1PKWMxW0NIM10pW0NIMl1DMihbT0hdKVtDSDJdW0NIMl1bQ0gyXVtDSDJdW0NIMl0y

> <s_epik_cmdline>
J2VwaWtfcHl0aG9uJywgJy1waCcsICc3LjAnLCAnLXRuJywgJzgnLCAnLW1hJywgJzIwMCcsICctbWV0YWxfYmluZGluZycsICctaW1hZScsICc8aW5maWxlLm1hZT4nLCAnLW9tYWUnLCAnPG91dGZpbGUubWFlPic=

> <r_lp_tautomer_probability>
1

> <r_epik_Ionization_Penalty>
0.000179312

> <r_epik_Ionization_Penalty_Charging>
2.41041e-07

> <r_epik_Ionization_Penalty_Neutral>
0.000179071

> <r_epik_State_Penalty>
-0

> <r_epik_Charging_Adjusted_Penalty>
2.41041e-07

> <i_epik_Tot_Q>
0

> <i_epik_Tot_abs_Q>
0

> <r_epik_Metal_State_Penalty>
-0

> <b_epik_Metal_Only>
0

> <s_lp_Force_Field>
OPLS_2005

> <r_lp_Energy>
24.9482

> <b_lp_Chiralities_Consistent>
1

> <s_lp_Variant>
AV-unprocessed.smi:2333-1

> <Gold.Version>
5.8.1

> <Gold.Id.Protein>
6NUR|6NUR_protein|mol2

> <Gold.PLP.Fitness>
37.8164

> <Gold.PLP.PLP>
-32.9530

> <Gold.PLP.part.hbond>
-1.0000

> <Gold.PLP.part.metal>
0.0000

> <Gold.PLP.part.buried>
-3.3349

> <Gold.PLP.part.nonpolar>
-27.9897

> <Gold.PLP.part.repulsive>
0.1162

> <Gold.PLP.ligand.clash>
0.0000

> <Gold.PLP.ligand.torsion>
0.5964

> <Gold.PLP.Chemscore.Hbond>
1.0000

> <Gold.PLP.Chemscore.CHOScore>
1.0000

> <Gold.PLP.Chemscore.Metal>
0.0000

> <Gold.Chemscore.Hbonds>
donor molecule, donor type, donor heavy atom, donor atom, acceptor molecule, acceptor atom, score
      P1  H  7997  8008       L1    15  0.94
      L1  C     4    21       P1  8028  1.00

> <Gold.PLP.Chemscore.Internal.Correction>
0.0561

> <Gold.Rescore>
     Score         DG    S(hbond)    S(metal)    S(lipo)     H(rot)  DE(clash)    DE(int)     intcor
     12.45     -13.13       0.89        0.00      76.85       1.69       0.20       0.48       ----

> <Gold.Chemscore.Fitness>
12.4498

> <Gold.Chemscore.DG>
-13.1338

> <Gold.Chemscore.ZeroCoef>
-5.4800

> <Gold.Chemscore.Hbond>
0.8944

> <Gold.Chemscore.Metal>
0.0000

> <Gold.Chemscore.Lipo>
76.8508

> <Gold.Chemscore.Internal_Hbond>
0.0000

> <Gold.Chemscore.DEClash>
0.2004

> <Gold.Chemscore.DEInternal>
0.4836

> <Gold.Chemscore.Rot>
1.6895

> <Gold.Chemscore.Internal.Correction>
   9.000000E+99

> <Gold.Chemscore.Hbonds>
donor molecule, donor type, donor heavy atom, donor atom, acceptor molecule, acceptor atom, score
      P1  H  7997  8008       L1    15  0.44

> <Gold.Chemscore.Hbond.Weighted>
-2.9874

> <Gold.Chemscore.Metal.Weighted>
-0.0000

> <Gold.Chemscore.Lipo.Weighted>
-8.9915

> <Gold.Chemscore.Internal_Hbond.Weighted>
0.0000

> <Gold.Chemscore.DEClash.Weighted>
0.2004

> <Gold.Chemscore.DEInternal.Weighted>
0.4836

> <Gold.Chemscore.Rot.Weighted>
4.3252

> <Gold.Chemscore.Internal.Correction.Weighted>
   9.000000E+99

> <Gold.Protein.RotatedTorsions>
[ 6907 6896 6895 6894 ] final -166.87 input  -60.11 | X-H torsion
[ 7974 7965 7964 7962 ] final -101.15 input  175.53 | X-H torsion
[ 8008 7997 7996 7995 ] final  -73.76 input   59.86 | X-H torsion
[ 10167 10162 10161 10158 ] final   37.22 input  -65.29 | X-H torsion
[ 10718 10713 10712 10709 ] final  178.32 input   66.30 | X-H torsion
[ 10763 10752 10751 10750 ] final  170.89 input  -60.55 | X-H torsion
[ 11005 11000 10999 10996 ] final  -84.35 input  -57.11 | X-H torsion

> <Gold.Protein.ActiveResidues>
 VAL166  LYS551  ARG553  GLY616  TRP617  ASP618  TYR619  PRO620  LYS621  CYS622 
 ASP623  PHE694  ASN695  SER759  ASP760  ASP761  ALA762  ILE779  LEU786  VAL792 
 PHE793  MET794  SER795  GLU796  ALA797  LYS798  CYS799  TRP800  GLU811  SER814 

> <Gold.Protein.RotatedAtoms>
  151.4505  133.3619  159.2794 H   0  0  0  0  0  0  0  0  0  0  0  0  # atno 6907 bound_to 6896
  150.9094  134.8512  159.7425 H   0  0  0  0  0  0  0  0  0  0  0  0  # atno 6908 bound_to 6896
  152.4924  134.4434  159.9603 H   0  0  0  0  0  0  0  0  0  0  0  0  # atno 6909 bound_to 6896
  145.2853  140.9338  143.2909 H   0  0  0  0  0  0  0  0  0  0  0  0  # atno 7974 bound_to 7965
  154.5274  140.0773  156.8283 H   0  0  0  0  0  0  0  0  0  0  0  0  # atno 8008 bound_to 7997
  155.3446  140.3409  155.4221 H   0  0  0  0  0  0  0  0  0  0  0  0  # atno 8009 bound_to 7997
  156.1746  140.1631  156.8373 H   0  0  0  0  0  0  0  0  0  0  0  0  # atno 8010 bound_to 7997
  140.4054  144.1667  150.6136 H   0  0  0  0  0  0  0  0  0  0  0  0  # atno 10167 bound_to 10162
  156.8922  130.9851  151.3048 H   0  0  0  0  0  0  0  0  0  0  0  0  # atno 10718 bound_to 10713
  154.4040  135.2755  155.2078 H   0  0  0  0  0  0  0  0  0  0  0  0  # atno 10763 bound_to 10752
  154.4092  135.6026  153.5946 H   0  0  0  0  0  0  0  0  0  0  0  0  # atno 10764 bound_to 10752
  152.9831  135.5945  154.4312 H   0  0  0  0  0  0  0  0  0  0  0  0  # atno 10765 bound_to 10752
  141.1651  133.7341  156.8855 H   0  0  0  0  0  0  0  0  0  0  0  0  # atno 11005 bound_to 11000
  144.9218  139.4402  143.6537 LP  0  0  0  0  0  0  0  0  0  0  0  0  # atno 17320 bound_to 7965
  146.3203  139.8083  142.8951 LP  0  0  0  0  0  0  0  0  0  0  0  0  # atno 17321 bound_to 7965
  140.4695  143.2418  151.9108 LP  0  0  0  0  0  0  0  0  0  0  0  0  # atno 17342 bound_to 10162
  139.4783  144.5384  151.8564 LP  0  0  0  0  0  0  0  0  0  0  0  0  # atno 17343 bound_to 10162
  157.6076  130.8559  149.8901 LP  0  0  0  0  0  0  0  0  0  0  0  0  # atno 17370 bound_to 10713
  156.0623  130.3698  150.0955 LP  0  0  0  0  0  0  0  0  0  0  0  0  # atno 17371 bound_to 10713
  140.1685  134.9116  157.2804 LP  0  0  0  0  0  0  0  0  0  0  0  0  # atno 17394 bound_to 11000
  140.2529  134.3661  155.7435 LP  0  0  0  0  0  0  0  0  0  0  0  0  # atno 17395 bound_to 11000

$$$$
