AV-unprocessed.smi:2548|AV-procd|sdf|10007|dock8
  -GOLD-   2272014 53D 1   1.00000     0.00000
 Structure written by MMmdl.
 44 45  0  0  0  0  0  0  0  0  1 V2000
  148.4630  141.6064  154.3264 C   0  0  0  0  0  0  0  0  0  0  0  0
  149.0657  140.2653  154.5722 C   0  0  0  0  0  0  0  0  0  0  0  0
  149.2874  139.5708  155.7278 C   0  0  0  0  0  0  0  0  0  0  0  0
  149.8888  138.3506  155.2974 C   0  0  0  0  0  0  0  0  0  0  0  0
  150.3554  137.1950  156.1459 C   0  0  0  0  0  0  0  0  0  0  0  0
  150.0769  137.4243  157.6367 C   0  0  0  0  0  0  0  0  0  0  0  0
  150.3514  138.4966  158.1780 O   0  0  0  0  0  0  0  0  0  0  0  0
  149.5084  136.3969  158.2879 N   0  0  0  0  0  0  0  0  0  0  0  0
  149.1361  136.3789  159.7027 C   0  0  0  0  0  0  0  0  0  0  0  0
  147.6151  136.1394  159.9506 C   0  0  0  0  0  0  0  0  0  0  0  0
  146.8135  137.0729  159.0126 C   0  0  0  0  0  0  0  0  0  0  0  0
  147.2152  134.6831  159.5740 C   0  0  0  0  0  0  0  0  0  0  0  0
  147.9438  133.5391  160.3100 C   0  0  0  0  0  0  0  0  0  0  0  0
  147.3444  133.1174  161.6624 C   0  0  0  0  0  0  0  0  0  0  0  0
  146.9089  134.2456  162.6122 C   0  0  0  0  0  0  0  0  0  0  0  0
  147.7153  135.5499  162.5149 C   0  0  0  0  0  0  0  0  0  0  0  0
  147.1993  136.4854  161.4052 C   0  0  0  0  0  0  0  0  0  0  0  0
  150.0353  138.2985  153.9805 N   0  0  0  0  0  0  0  0  0  0  0  0
  149.5264  139.4678  153.5505 N   0  0  0  0  0  0  0  0  0  0  0  0
  149.5023  139.7062  152.5692 H   0  0  0  0  0  0  0  0  0  0  0  0
  148.2676  142.1236  155.2660 H   0  0  0  0  0  0  0  0  0  0  0  0
  147.5187  141.5136  153.7897 H   0  0  0  0  0  0  0  0  0  0  0  0
  149.1314  142.2298  153.7322 H   0  0  0  0  0  0  0  0  0  0  0  0
  149.0522  139.8842  156.7342 H   0  0  0  0  0  0  0  0  0  0  0  0
  149.8665  136.2687  155.8413 H   0  0  0  0  0  0  0  0  0  0  0  0
  151.4256  137.0417  156.0013 H   0  0  0  0  0  0  0  0  0  0  0  0
  149.3118  135.5587  157.7602 H   0  0  0  0  0  0  0  0  0  0  0  0
  149.7095  135.5789  160.1720 H   0  0  0  0  0  0  0  0  0  0  0  0
  149.4827  137.2968  160.1741 H   0  0  0  0  0  0  0  0  0  0  0  0
  145.7417  136.8842  159.0844 H   0  0  0  0  0  0  0  0  0  0  0  0
  147.0979  136.9306  157.9694 H   0  0  0  0  0  0  0  0  0  0  0  0
  146.9663  138.1257  159.2521 H   0  0  0  0  0  0  0  0  0  0  0  0
  146.1382  134.5480  159.6847 H   0  0  0  0  0  0  0  0  0  0  0  0
  147.4092  134.5516  158.5083 H   0  0  0  0  0  0  0  0  0  0  0  0
  147.9245  132.6591  159.6662 H   0  0  0  0  0  0  0  0  0  0  0  0
  149.0020  133.7569  160.4331 H   0  0  0  0  0  0  0  0  0  0  0  0
  146.4850  132.4689  161.4879 H   0  0  0  0  0  0  0  0  0  0  0  0
  148.0788  132.4924  162.1713 H   0  0  0  0  0  0  0  0  0  0  0  0
  145.8520  134.4631  162.4540 H   0  0  0  0  0  0  0  0  0  0  0  0
  146.9695  133.8669  163.6333 H   0  0  0  0  0  0  0  0  0  0  0  0
  147.5986  136.0781  163.4618 H   0  0  0  0  0  0  0  0  0  0  0  0
  148.7834  135.3533  162.4230 H   0  0  0  0  0  0  0  0  0  0  0  0
  147.5191  137.5006  161.6390 H   0  0  0  0  0  0  0  0  0  0  0  0
  146.1111  136.5269  161.4695 H   0  0  0  0  0  0  0  0  0  0  0  0
  1  2  1  0  0  0  0
  1 21  1  0  0  0  0
  1 22  1  0  0  0  0
  1 23  1  0  0  0  0
  2 19  1  0  0  0  0
  2  3  2  0  0  0  0
  3  4  1  0  0  0  0
  3 24  1  0  0  0  0
  4  5  1  0  0  0  0
  4 18  2  0  0  0  0
  5  6  1  0  0  0  0
  5 25  1  0  0  0  0
  5 26  1  0  0  0  0
  6  7  2  0  0  0  0
  6  8  1  0  0  0  0
  8  9  1  0  0  0  0
  8 27  1  0  0  0  0
  9 10  1  0  0  0  0
  9 28  1  0  0  0  0
  9 29  1  0  0  0  0
 10 17  1  0  0  0  0
 10 11  1  0  0  0  0
 10 12  1  0  0  0  0
 11 30  1  0  0  0  0
 11 31  1  0  0  0  0
 11 32  1  0  0  0  0
 12 13  1  0  0  0  0
 12 33  1  0  0  0  0
 12 34  1  0  0  0  0
 13 14  1  0  0  0  0
 13 35  1  0  0  0  0
 13 36  1  0  0  0  0
 14 15  1  0  0  0  0
 14 37  1  0  0  0  0
 14 38  1  0  0  0  0
 15 16  1  0  0  0  0
 15 39  1  0  0  0  0
 15 40  1  0  0  0  0
 16 17  1  0  0  0  0
 16 41  1  0  0  0  0
 16 42  1  0  0  0  0
 17 43  1  0  0  0  0
 17 44  1  0  0  0  0
 18 19  1  0  0  0  0
 19 20  1  0  0  0  0
M  END
> <s_m_source_file>
AV-unprocessed.smi

> <i_m_source_file_index>
2548

> <i_lp_mmshare_version>
43012

> <i_f3d_flags>
0

> <s_epik_input>
W0NIM11jMVtjSF1jKG5bbkhdMSlbQ0gyXUMoPU8pW05IXVtDSDJdQzIoW0NIM10pW0NIMl1bQ0gyXVtDSDJdW0NIMl1bQ0gyXVtDSDJdMg==

> <s_epik_cmdline>
J2VwaWtfcHl0aG9uJywgJy1waCcsICc3LjAnLCAnLXRuJywgJzgnLCAnLW1hJywgJzIwMCcsICctbWV0YWxfYmluZGluZycsICctaW1hZScsICc8aW5maWxlLm1hZT4nLCAnLW9tYWUnLCAnPG91dGZpbGUubWFlPic=

> <r_lp_tautomer_probability>
0.5

> <r_epik_Ionization_Penalty>
8.42262e-05

> <r_epik_Ionization_Penalty_Charging>
0

> <r_epik_Ionization_Penalty_Neutral>
8.42262e-05

> <r_epik_State_Penalty>
0.41068

> <r_epik_Charging_Adjusted_Penalty>
0.41068

> <i_epik_Tot_Q>
0

> <i_epik_Tot_abs_Q>
0

> <r_epik_Metal_State_Penalty>
0.410698

> <b_epik_Metal_Only>
0

> <s_lp_Force_Field>
OPLS_2005

> <r_lp_Energy>
22.9227

> <b_lp_Chiralities_Consistent>
1

> <s_lp_Variant>
AV-unprocessed.smi:2548-1

> <Gold.Version>
5.8.1

> <Gold.Id.Protein>
6NUR|6NUR_protein|mol2

> <Gold.PLP.Fitness>
32.9610

> <Gold.PLP.PLP>
-30.4840

> <Gold.PLP.part.hbond>
-1.0000

> <Gold.PLP.part.metal>
0.0000

> <Gold.PLP.part.buried>
-4.9734

> <Gold.PLP.part.nonpolar>
-25.5331

> <Gold.PLP.part.repulsive>
0.5078

> <Gold.PLP.ligand.clash>
0.0000

> <Gold.PLP.ligand.torsion>
0.2675

> <Gold.PLP.Chemscore.Hbond>
1.0000

> <Gold.PLP.Chemscore.CHOScore>
0.0000

> <Gold.PLP.Chemscore.Metal>
0.0000

> <Gold.Chemscore.Hbonds>
donor molecule, donor type, donor heavy atom, donor atom, acceptor molecule, acceptor atom, score
      L1  H    19    20       P1  7957  0.80

> <Gold.PLP.Chemscore.Internal.Correction>
0.0121

> <Gold.Rescore>
     Score         DG    S(hbond)    S(metal)    S(lipo)     H(rot)  DE(clash)    DE(int)     intcor
     13.13     -14.69       1.00        0.00      84.17       1.55       0.01       1.56       ----

> <Gold.Chemscore.Fitness>
13.1264

> <Gold.Chemscore.DG>
-14.6934

> <Gold.Chemscore.ZeroCoef>
-5.4800

> <Gold.Chemscore.Hbond>
0.9972

> <Gold.Chemscore.Metal>
0.0000

> <Gold.Chemscore.Lipo>
84.1703

> <Gold.Chemscore.Internal_Hbond>
0.0000

> <Gold.Chemscore.DEClash>
0.0081

> <Gold.Chemscore.DEInternal>
1.5589

> <Gold.Chemscore.Rot>
1.5489

> <Gold.Chemscore.Internal.Correction>
   9.000000E+99

> <Gold.Chemscore.Hbonds>
donor molecule, donor type, donor heavy atom, donor atom, acceptor molecule, acceptor atom, score
      L1  H    19    20       P1  7957  0.79

> <Gold.Chemscore.Hbond.Weighted>
-3.3307

> <Gold.Chemscore.Metal.Weighted>
-0.0000

> <Gold.Chemscore.Lipo.Weighted>
-9.8479

> <Gold.Chemscore.Internal_Hbond.Weighted>
0.0000

> <Gold.Chemscore.DEClash.Weighted>
0.0081

> <Gold.Chemscore.DEInternal.Weighted>
1.5589

> <Gold.Chemscore.Rot.Weighted>
3.9652

> <Gold.Chemscore.Internal.Correction.Weighted>
   9.000000E+99

> <Gold.Protein.RotatedTorsions>
[ 6907 6896 6895 6894 ] final -111.41 input  -60.11 | X-H torsion
[ 7974 7965 7964 7962 ] final  131.40 input  175.53 | X-H torsion
[ 8008 7997 7996 7995 ] final   67.75 input   59.86 | X-H torsion
[ 10167 10162 10161 10158 ] final  104.48 input  -65.29 | X-H torsion
[ 10718 10713 10712 10709 ] final  155.24 input   66.30 | X-H torsion
[ 10763 10752 10751 10750 ] final   73.91 input  -60.55 | X-H torsion
[ 11005 11000 10999 10996 ] final   34.10 input  -57.11 | X-H torsion

> <Gold.Protein.ActiveResidues>
 VAL166  LYS551  ARG553  GLY616  TRP617  ASP618  TYR619  PRO620  LYS621  CYS622 
 ASP623  PHE694  ASN695  SER759  ASP760  ASP761  ALA762  ILE779  LEU786  VAL792 
 PHE793  MET794  SER795  GLU796  ALA797  LYS798  CYS799  TRP800  GLU811  SER814 

> <Gold.Protein.RotatedAtoms>
  150.7689  133.9239  159.3406 H   0  0  0  0  0  0  0  0  0  0  0  0  # atno 6907 bound_to 6896
  151.7130  135.0907  160.0280 H   0  0  0  0  0  0  0  0  0  0  0  0  # atno 6908 bound_to 6896
  152.3697  133.6365  159.6113 H   0  0  0  0  0  0  0  0  0  0  0  0  # atno 6909 bound_to 6896
  145.0077  139.4250  143.5260 H   0  0  0  0  0  0  0  0  0  0  0  0  # atno 7974 bound_to 7965
  155.6977  140.3495  155.4920 H   0  0  0  0  0  0  0  0  0  0  0  0  # atno 8008 bound_to 7997
  155.9468  140.1112  157.1032 H   0  0  0  0  0  0  0  0  0  0  0  0  # atno 8009 bound_to 7997
  154.4113  140.1202  156.4986 H   0  0  0  0  0  0  0  0  0  0  0  0  # atno 8010 bound_to 7997
  139.7174  144.7065  151.0928 H   0  0  0  0  0  0  0  0  0  0  0  0  # atno 10167 bound_to 10162
  157.2209  131.0718  151.1912 H   0  0  0  0  0  0  0  0  0  0  0  0  # atno 10718 bound_to 10713
  153.0552  135.5045  154.7963 H   0  0  0  0  0  0  0  0  0  0  0  0  # atno 10763 bound_to 10752
  154.6795  135.2966  154.9635 H   0  0  0  0  0  0  0  0  0  0  0  0  # atno 10764 bound_to 10752
  154.0426  135.6715  153.4844 H   0  0  0  0  0  0  0  0  0  0  0  0  # atno 10765 bound_to 10752
  140.2563  134.3244  155.7873 H   0  0  0  0  0  0  0  0  0  0  0  0  # atno 11005 bound_to 11000
  146.3464  139.9503  142.8730 LP  0  0  0  0  0  0  0  0  0  0  0  0  # atno 17320 bound_to 7965
  145.2065  140.9877  143.4125 LP  0  0  0  0  0  0  0  0  0  0  0  0  # atno 17321 bound_to 7965
  140.7746  143.5212  150.9535 LP  0  0  0  0  0  0  0  0  0  0  0  0  # atno 17342 bound_to 10162
  139.8898  143.6968  152.3147 LP  0  0  0  0  0  0  0  0  0  0  0  0  # atno 17343 bound_to 10162
  157.3576  130.7115  149.6481 LP  0  0  0  0  0  0  0  0  0  0  0  0  # atno 17370 bound_to 10713
  155.9682  130.4234  150.4563 LP  0  0  0  0  0  0  0  0  0  0  0  0  # atno 17371 bound_to 10713
  141.2195  133.7383  156.9116 LP  0  0  0  0  0  0  0  0  0  0  0  0  # atno 17394 bound_to 11000
  140.1508  134.9231  157.2590 LP  0  0  0  0  0  0  0  0  0  0  0  0  # atno 17395 bound_to 11000

$$$$
