AV-unprocessed.smi:1870|AV-procd|sdf|7596|dock8
  -GOLD-   22720 9313D 1   1.00000     0.00000
 Structure written by MMmdl.
 48 50  0  0  0  0  0  0  0  0  2 V2000
  147.9371  133.4004  156.6271 C   0  0  0  0  0  0  0  0  0  0  0  0
  147.7250  134.2835  157.8270 C   0  0  0  0  0  0  0  0  0  0  0  0
  147.8962  135.5528  157.6517 N   0  0  0  0  0  0  0  0  0  0  0  0
  147.7095  136.4539  158.6824 N   0  0  0  0  0  0  0  0  0  0  0  0
  147.8618  137.8609  158.2846 C   0  0  0  0  0  0  0  0  0  0  0  0
  149.2601  138.1600  157.6970 C   0  0  1  0  0  0  0  0  0  0  0  0
  149.3114  137.6371  156.3853 O   0  0  0  0  0  0  0  0  0  0  0  0
  149.5839  139.6703  157.6411 C   0  0  0  0  0  0  0  0  0  0  0  0
  150.7918  140.0016  156.8346 N   0  3  2  0  0  0  0  0  0  0  0  0
  151.9988  139.1811  157.1209 C   0  0  0  0  0  0  0  0  0  0  0  0
  152.4887  139.3774  158.5667 C   0  0  0  0  0  0  0  0  0  0  0  0
  152.5166  140.8411  158.9790 C   0  0  0  0  0  0  0  0  0  0  0  0
  153.1740  141.2162  160.1684 C   0  0  0  0  0  0  0  0  0  0  0  0
  153.1664  142.5599  160.5883 C   0  0  0  0  0  0  0  0  0  0  0  0
  152.4976  143.5333  159.8220 C   0  0  0  0  0  0  0  0  0  0  0  0
  151.8380  143.1643  158.6340 C   0  0  0  0  0  0  0  0  0  0  0  0
  151.8426  141.8205  158.2061 C   0  0  0  0  0  0  0  0  0  0  0  0
  151.1367  141.4444  156.9062 C   0  0  0  0  0  0  0  0  0  0  0  0
  147.3787  136.1118  159.9605 C   0  0  0  0  0  0  0  0  0  0  0  0
  147.2431  136.9472  160.8552 O   0  0  0  0  0  0  0  0  0  0  0  0
  147.1841  134.6731  160.1518 C   0  0  0  0  0  0  0  0  0  0  0  0
  146.8051  134.2747  161.4691 C   0  0  0  0  0  0  0  0  0  0  0  0
  146.4891  133.9329  162.5288 N   0  0  0  0  0  0  0  0  0  0  0  0
  147.3418  133.7813  159.1421 C   0  0  0  0  0  0  0  0  0  0  0  0
  147.1448  132.2788  159.2883 C   0  0  0  0  0  0  0  0  0  0  0  0
  148.7858  132.7343  156.7830 H   0  0  0  0  0  0  0  0  0  0  0  0
  148.1341  133.9804  155.7243 H   0  0  0  0  0  0  0  0  0  0  0  0
  147.0558  132.7879  156.4359 H   0  0  0  0  0  0  0  0  0  0  0  0
  147.0885  138.1160  157.5576 H   0  0  0  0  0  0  0  0  0  0  0  0
  147.6789  138.5127  159.1414 H   0  0  0  0  0  0  0  0  0  0  0  0
  149.9980  137.6252  158.2911 H   0  0  0  0  0  0  0  0  0  0  0  0
  149.4171  138.3526  155.7767 H   0  0  0  0  0  0  0  0  0  0  0  0
  148.7199  140.1954  157.2309 H   0  0  0  0  0  0  0  0  0  0  0  0
  149.7164  140.0744  158.6432 H   0  0  0  0  0  0  0  0  0  0  0  0
  151.8342  138.1261  156.9081 H   0  0  0  0  0  0  0  0  0  0  0  0
  152.7854  139.4931  156.4320 H   0  0  0  0  0  0  0  0  0  0  0  0
  151.8447  138.8360  159.2613 H   0  0  0  0  0  0  0  0  0  0  0  0
  153.4859  138.9506  158.6785 H   0  0  0  0  0  0  0  0  0  0  0  0
  153.6797  140.4721  160.7667 H   0  0  0  0  0  0  0  0  0  0  0  0
  153.6699  142.8433  161.5009 H   0  0  0  0  0  0  0  0  0  0  0  0
  152.4915  144.5639  160.1454 H   0  0  0  0  0  0  0  0  0  0  0  0
  151.3318  143.9184  158.0491 H   0  0  0  0  0  0  0  0  0  0  0  0
  151.8027  141.6882  156.0775 H   0  0  0  0  0  0  0  0  0  0  0  0
  150.2434  142.0561  156.7711 H   0  0  0  0  0  0  0  0  0  0  0  0
  146.9661  131.9850  160.3223 H   0  0  0  0  0  0  0  0  0  0  0  0
  148.0274  131.7375  158.9464 H   0  0  0  0  0  0  0  0  0  0  0  0
  146.2886  131.9495  158.6986 H   0  0  0  0  0  0  0  0  0  0  0  0
  150.5373  139.8190  155.8742 H   0  0  0  0  0  0  0  0  0  0  0  0
  1  2  1  0  0  0  0
  1 26  1  0  0  0  0
  1 27  1  0  0  0  0
  1 28  1  0  0  0  0
  2 24  1  0  0  0  0
  2  3  2  0  0  0  0
  3  4  1  0  0  0  0
  4  5  1  0  0  0  0
  4 19  1  0  0  0  0
  5  6  1  0  0  0  0
  5 29  1  0  0  0  0
  5 30  1  0  0  0  0
  6  7  1  0  0  0  0
  6  8  1  0  0  0  0
  6 31  1  0  0  0  0
  7 32  1  0  0  0  0
  8  9  1  0  0  0  0
  8 33  1  0  0  0  0
  8 34  1  0  0  0  0
  9 18  1  0  0  0  0
  9 10  1  0  0  0  0
  9 48  1  0  0  0  0
 10 11  1  0  0  0  0
 10 35  1  0  0  0  0
 10 36  1  0  0  0  0
 11 12  1  0  0  0  0
 11 37  1  0  0  0  0
 11 38  1  0  0  0  0
 12 17  2  0  0  0  0
 12 13  1  0  0  0  0
 13 14  2  0  0  0  0
 13 39  1  0  0  0  0
 14 15  1  0  0  0  0
 14 40  1  0  0  0  0
 15 16  2  0  0  0  0
 15 41  1  0  0  0  0
 16 17  1  0  0  0  0
 16 42  1  0  0  0  0
 17 18  1  0  0  0  0
 18 43  1  0  0  0  0
 18 44  1  0  0  0  0
 19 20  2  0  0  0  0
 19 21  1  0  0  0  0
 21 22  1  0  0  0  0
 21 24  2  0  0  0  0
 22 23  3  0  0  0  0
 24 25  1  0  0  0  0
 25 45  1  0  0  0  0
 25 46  1  0  0  0  0
 25 47  1  0  0  0  0
M  CHG  1   9   1
M  END
> <s_m_source_file>
AV-unprocessed.smi

> <i_m_source_file_index>
1870

> <i_lp_mmshare_version>
43012

> <i_f3d_flags>
0

> <s_epik_input>
TiNDYyhjMVtDSDNdKWMoPU8pbihuYzFbQ0gzXSlbQ0gyXVtDQEhdKFtPSF0pW0NIMl1OKFtDSDJdW0NIMl0yKVtDSDJdYyhjMjMpW2NIXVtjSF1bY0hdW2NIXTM=

> <s_epik_cmdline>
J2VwaWtfcHl0aG9uJywgJy1waCcsICc3LjAnLCAnLXRuJywgJzgnLCAnLW1hJywgJzIwMCcsICctbWV0YWxfYmluZGluZycsICctaW1hZScsICc8aW5maWxlLm1hZT4nLCAnLW9tYWUnLCAnPG91dGZpbGUubWFlPic=

> <r_epik_Ionization_Penalty>
0.0122865

> <r_epik_Ionization_Penalty_Charging>
0.0122864

> <r_epik_Ionization_Penalty_Neutral>
1.48087e-07

> <r_epik_State_Penalty>
0.00950248

> <r_epik_Charging_Adjusted_Penalty>
0.0217889

> <i_epik_Tot_Q>
1

> <i_epik_Tot_abs_Q>
1

> <r_epik_Metal_State_Penalty>
0.00950248

> <b_epik_Metal_Only>
0

> <s_lp_Force_Field>
OPLS_2005

> <r_lp_Energy>
37.2352

> <b_lp_Chiralities_Consistent>
1

> <s_lp_Variant>
AV-unprocessed.smi:1870-4

> <Gold.Version>
5.8.1

> <Gold.Id.Protein>
6NUR|6NUR_protein|mol2

> <Gold.PLP.Fitness>
49.7051

> <Gold.PLP.PLP>
-44.6832

> <Gold.PLP.part.hbond>
-3.0937

> <Gold.PLP.part.metal>
0.0000

> <Gold.PLP.part.buried>
-6.0778

> <Gold.PLP.part.nonpolar>
-35.5996

> <Gold.PLP.part.repulsive>
0.0685

> <Gold.PLP.ligand.clash>
0.0000

> <Gold.PLP.ligand.torsion>
0.2384

> <Gold.PLP.Chemscore.Hbond>
1.8240

> <Gold.PLP.Chemscore.CHOScore>
0.0000

> <Gold.PLP.Chemscore.Metal>
0.0000

> <Gold.Chemscore.Hbonds>
donor molecule, donor type, donor heavy atom, donor atom, acceptor molecule, acceptor atom, score
      P1  H  6934  6947       L1    20  0.88

> <Gold.PLP.Chemscore.Internal.Correction>
0.0265

> <Gold.Rescore>
     Score         DG    S(hbond)    S(metal)    S(lipo)     H(rot)  DE(clash)    DE(int)     intcor
     18.05     -18.29       1.76        0.00     106.73       2.16       0.00       0.24       ----

> <Gold.Chemscore.Fitness>
18.0516

> <Gold.Chemscore.DG>
-18.2924

> <Gold.Chemscore.ZeroCoef>
-5.4800

> <Gold.Chemscore.Hbond>
1.7551

> <Gold.Chemscore.Metal>
0.0000

> <Gold.Chemscore.Lipo>
106.7286

> <Gold.Chemscore.Internal_Hbond>
0.0000

> <Gold.Chemscore.DEClash>
0.0038

> <Gold.Chemscore.DEInternal>
0.2371

> <Gold.Chemscore.Rot>
2.1628

> <Gold.Chemscore.Internal.Correction>
   9.000000E+99

> <Gold.Chemscore.Hbonds>
donor molecule, donor type, donor heavy atom, donor atom, acceptor molecule, acceptor atom, score
      P1  H  6931  6943       L1    20  0.04
      P1  H  6934  6947       L1    20  0.85

> <Gold.Chemscore.Hbond.Weighted>
-5.8619

> <Gold.Chemscore.Metal.Weighted>
-0.0000

> <Gold.Chemscore.Lipo.Weighted>
-12.4873

> <Gold.Chemscore.Internal_Hbond.Weighted>
0.0000

> <Gold.Chemscore.DEClash.Weighted>
0.0038

> <Gold.Chemscore.DEInternal.Weighted>
0.2371

> <Gold.Chemscore.Rot.Weighted>
5.5367

> <Gold.Chemscore.Internal.Correction.Weighted>
   9.000000E+99

> <Gold.Protein.RotatedTorsions>
[ 6907 6896 6895 6894 ] final  172.63 input  -60.11 | X-H torsion
[ 7974 7965 7964 7962 ] final  133.02 input  175.53 | X-H torsion
[ 8008 7997 7996 7995 ] final    3.64 input   59.86 | X-H torsion
[ 10167 10162 10161 10158 ] final -105.90 input  -65.29 | X-H torsion
[ 10718 10713 10712 10709 ] final   -4.06 input   66.30 | X-H torsion
[ 10763 10752 10751 10750 ] final   50.10 input  -60.55 | X-H torsion
[ 11005 11000 10999 10996 ] final -100.92 input  -57.11 | X-H torsion

> <Gold.Protein.ActiveResidues>
 VAL166  LYS551  ARG553  GLY616  TRP617  ASP618  TYR619  PRO620  LYS621  CYS622 
 ASP623  PHE694  ASN695  SER759  ASP760  ASP761  ALA762  ILE779  LEU786  VAL792 
 PHE793  MET794  SER795  GLU796  ALA797  LYS798  CYS799  TRP800  GLU811  SER814 

> <Gold.Protein.RotatedAtoms>
  151.7812  133.3350  159.3471 H   0  0  0  0  0  0  0  0  0  0  0  0  # atno 6907 bound_to 6896
  150.7426  134.5929  159.6006 H   0  0  0  0  0  0  0  0  0  0  0  0  # atno 6908 bound_to 6896
  152.3275  134.7303  160.0349 H   0  0  0  0  0  0  0  0  0  0  0  0  # atno 6909 bound_to 6896
  144.9908  139.4409  143.5340 H   0  0  0  0  0  0  0  0  0  0  0  0  # atno 7974 bound_to 7965
  154.7062  140.2683  155.6672 H   0  0  0  0  0  0  0  0  0  0  0  0  # atno 8008 bound_to 7997
  156.2781  140.2762  156.1613 H   0  0  0  0  0  0  0  0  0  0  0  0  # atno 8009 bound_to 7997
  155.0697  140.0372  157.2594 H   0  0  0  0  0  0  0  0  0  0  0  0  # atno 8010 bound_to 7997
  140.1935  143.3873  152.1187 H   0  0  0  0  0  0  0  0  0  0  0  0  # atno 10167 bound_to 10162
  156.7668  130.5287  149.5774 H   0  0  0  0  0  0  0  0  0  0  0  0  # atno 10718 bound_to 10713
  152.9785  135.5890  154.4196 H   0  0  0  0  0  0  0  0  0  0  0  0  # atno 10763 bound_to 10752
  154.3822  135.2767  155.2206 H   0  0  0  0  0  0  0  0  0  0  0  0  # atno 10764 bound_to 10752
  154.4115  135.6080  153.6010 H   0  0  0  0  0  0  0  0  0  0  0  0  # atno 10765 bound_to 10752
  141.1252  133.8437  157.1164 H   0  0  0  0  0  0  0  0  0  0  0  0  # atno 11005 bound_to 11000
  146.3431  139.9238  142.8763 LP  0  0  0  0  0  0  0  0  0  0  0  0  # atno 17320 bound_to 7965
  145.2289  140.9965  143.4002 LP  0  0  0  0  0  0  0  0  0  0  0  0  # atno 17321 bound_to 7965
  139.5246  144.7086  151.5278 LP  0  0  0  0  0  0  0  0  0  0  0  0  # atno 17342 bound_to 10162
  140.6439  143.8833  150.6718 LP  0  0  0  0  0  0  0  0  0  0  0  0  # atno 17343 bound_to 10162
  156.1303  130.6173  151.0324 LP  0  0  0  0  0  0  0  0  0  0  0  0  # atno 17370 bound_to 10713
  157.6709  131.0861  150.7614 LP  0  0  0  0  0  0  0  0  0  0  0  0  # atno 17371 bound_to 10713
  140.0243  134.9931  157.0655 LP  0  0  0  0  0  0  0  0  0  0  0  0  # atno 17394 bound_to 11000
  140.4388  134.1703  155.7172 LP  0  0  0  0  0  0  0  0  0  0  0  0  # atno 17395 bound_to 11000

$$$$
