AV-unprocessed.smi:99|AV-procd|sdf|885|dock2
  -GOLD-   2262017363D 1   1.00000     0.00000
 Structure written by MMmdl.
 52 55  0  0  0  0  0  0  0  0  2 V2000
  152.0718  139.4779  158.5827 O   0  0  0  0  0  0  0  0  0  0  0  0
  151.4195  140.4386  158.1689 C   0  0  0  0  0  0  0  0  0  0  0  0
  150.3562  140.3214  157.3516 O   0  0  0  0  0  0  0  0  0  0  0  0
  150.2814  139.2451  156.4318 C   0  0  0  0  0  0  0  0  0  0  0  0
  150.0171  137.9455  157.2044 C   0  0  2  0  0  0  0  0  0  0  0  0
  150.9899  136.9830  156.8127 O   0  0  0  0  0  0  0  0  0  0  0  0
  150.4785  136.1113  155.8478 C   0  0  1  0  0  0  0  0  0  0  0  0
  150.6605  134.6900  156.3307 N   0  0  0  0  0  0  0  0  0  0  0  0
  149.6844  133.7322  156.1107 C   0  0  0  0  0  0  0  0  0  0  0  0
  149.8486  132.4564  156.5161 C   0  0  0  0  0  0  0  0  0  0  0  0
  151.0812  132.0752  157.1994 C   0  0  0  0  0  0  0  0  0  0  0  0
  151.2167  130.9137  157.5789 O   0  0  0  0  0  0  0  0  0  0  0  0
  152.0358  133.0322  157.3851 N   0  5  0  0  0  0  0  0  0  0  0  0
  151.8767  134.3216  156.9664 C   0  0  0  0  0  0  0  0  0  0  0  0
  152.7426  135.1865  157.1029 O   0  0  0  0  0  0  0  0  0  0  0  0
  148.9830  136.4112  155.6659 C   0  0  2  0  0  0  0  0  0  0  0  0
  148.7148  137.0595  154.4399 O   0  0  0  0  0  0  0  0  0  0  0  0
  148.6654  137.3186  156.8426 C   0  0  1  0  0  0  0  0  0  0  0  0
  148.1807  136.5168  157.9135 O   0  0  0  0  0  0  0  0  0  0  0  0
  148.0886  137.0034  159.1674 C   0  0  0  0  0  0  0  0  0  0  0  0
  148.3223  138.1764  159.4656 O   0  0  0  0  0  0  0  0  0  0  0  0
  147.6828  135.9645  160.1574 C   0  0  0  0  0  0  0  0  0  0  0  0
  147.5177  136.3259  161.5147 C   0  0  0  0  0  0  0  0  0  0  0  0
  147.1378  135.3644  162.4715 C   0  0  0  0  0  0  0  0  0  0  0  0
  146.9191  134.0299  162.0826 C   0  0  0  0  0  0  0  0  0  0  0  0
  147.0794  133.6579  160.7350 C   0  0  0  0  0  0  0  0  0  0  0  0
  147.4587  134.6178  159.7769 C   0  0  0  0  0  0  0  0  0  0  0  0
  151.7273  141.8555  158.5183 C   0  0  0  0  0  0  0  0  0  0  0  0
  152.5131  142.1332  159.6611 C   0  0  0  0  0  0  0  0  0  0  0  0
  152.8207  143.4614  160.0146 C   0  0  0  0  0  0  0  0  0  0  0  0
  152.3452  144.5283  159.2302 C   0  0  0  0  0  0  0  0  0  0  0  0
  151.5618  144.2654  158.0914 C   0  0  0  0  0  0  0  0  0  0  0  0
  151.2535  142.9378  157.7361 C   0  0  0  0  0  0  0  0  0  0  0  0
  149.4652  139.4352  155.7336 H   0  0  0  0  0  0  0  0  0  0  0  0
  151.2019  139.1709  155.8514 H   0  0  0  0  0  0  0  0  0  0  0  0
  150.0898  138.1433  158.2746 H   0  0  0  0  0  0  0  0  0  0  0  0
  151.0708  136.2024  154.9357 H   0  0  0  0  0  0  0  0  0  0  0  0
  148.7722  133.9953  155.5966 H   0  0  0  0  0  0  0  0  0  0  0  0
  149.0786  131.7216  156.3323 H   0  0  0  0  0  0  0  0  0  0  0  0
  148.3918  135.4938  155.6854 H   0  0  0  0  0  0  0  0  0  0  0  0
  148.7456  136.4122  153.7513 H   0  0  0  0  0  0  0  0  0  0  0  0
  147.9176  138.0679  156.5768 H   0  0  0  0  0  0  0  0  0  0  0  0
  147.6805  137.3443  161.8373 H   0  0  0  0  0  0  0  0  0  0  0  0
  147.0144  135.6520  163.5054 H   0  0  0  0  0  0  0  0  0  0  0  0
  146.6282  133.2928  162.8165 H   0  0  0  0  0  0  0  0  0  0  0  0
  146.9114  132.6343  160.4338 H   0  0  0  0  0  0  0  0  0  0  0  0
  147.5721  134.2972  158.7515 H   0  0  0  0  0  0  0  0  0  0  0  0
  152.8895  141.3303  160.2786 H   0  0  0  0  0  0  0  0  0  0  0  0
  153.4228  143.6611  160.8888 H   0  0  0  0  0  0  0  0  0  0  0  0
  152.5805  145.5468  159.5014 H   0  0  0  0  0  0  0  0  0  0  0  0
  151.1959  145.0833  157.4883 H   0  0  0  0  0  0  0  0  0  0  0  0
  150.6487  142.7714  156.8566 H   0  0  0  0  0  0  0  0  0  0  0  0
  1  2  2  0  0  0  0
  2  3  1  0  0  0  0
  2 28  1  0  0  0  0
  3  4  1  0  0  0  0
  4  5  1  0  0  0  0
  4 34  1  0  0  0  0
  4 35  1  0  0  0  0
  5 18  1  0  0  0  0
  5  6  1  0  0  0  0
  5 36  1  0  0  0  0
  6  7  1  0  0  0  0
  7  8  1  0  0  0  0
  7 16  1  0  0  0  0
  7 37  1  0  0  0  0
  8 14  1  0  0  0  0
  8  9  1  0  0  0  0
  9 10  2  0  0  0  0
  9 38  1  0  0  0  0
 10 11  1  0  0  0  0
 10 39  1  0  0  0  0
 11 12  2  0  0  0  0
 11 13  1  0  0  0  0
 13 14  1  0  0  0  0
 14 15  2  0  0  0  0
 16 17  1  0  0  0  0
 16 18  1  0  0  0  0
 16 40  1  0  0  0  0
 17 41  1  0  0  0  0
 18 19  1  0  0  0  0
 18 42  1  0  0  0  0
 19 20  1  0  0  0  0
 20 21  2  0  0  0  0
 20 22  1  0  0  0  0
 22 27  1  0  0  0  0
 22 23  2  0  0  0  0
 23 24  1  0  0  0  0
 23 43  1  0  0  0  0
 24 25  2  0  0  0  0
 24 44  1  0  0  0  0
 25 26  1  0  0  0  0
 25 45  1  0  0  0  0
 26 27  2  0  0  0  0
 26 46  1  0  0  0  0
 27 47  1  0  0  0  0
 28 33  1  0  0  0  0
 28 29  2  0  0  0  0
 29 30  1  0  0  0  0
 29 48  1  0  0  0  0
 30 31  2  0  0  0  0
 30 49  1  0  0  0  0
 31 32  1  0  0  0  0
 31 50  1  0  0  0  0
 32 33  2  0  0  0  0
 32 51  1  0  0  0  0
 33 52  1  0  0  0  0
M  CHG  1  13  -1
M  END
> <s_m_source_file>
AV-unprocessed.smi

> <i_m_source_file_index>
99

> <i_lp_mmshare_version>
43012

> <i_f3d_flags>
0

> <s_epik_input>
W2NIXTFbY0hdW2NIXVtjSF1bY0hdYzFDKD1PKU9bQ0gyXVtDQEBIXTJPW0NAQEhdKG4zW2NIXVtjSF1jKD1PKVtuSF1jMz1PKVtDQEBIXShbT0hdKVtDQEhdMk9DKD1PKWM0W2NIXVtjSF1bY0hdW2NIXVtjSF00

> <s_epik_cmdline>
J2VwaWtfcHl0aG9uJywgJy1waCcsICc3LjAnLCAnLXRuJywgJzgnLCAnLW1hJywgJzIwMCcsICctbWV0YWxfYmluZGluZycsICctaW1hZScsICc8aW5maWxlLm1hZT4nLCAnLW9tYWUnLCAnPG91dGZpbGUubWFlPic=

> <r_lp_tautomer_probability>
1

> <r_epik_Ionization_Penalty>
2.89159

> <r_epik_Ionization_Penalty_Charging>
2.1077e-08

> <r_epik_Ionization_Penalty_Neutral>
2.89159

> <r_epik_State_Penalty>
2.88671

> <r_epik_Charging_Adjusted_Penalty>
2.88671

> <i_epik_Tot_Q>
-1

> <i_epik_Tot_abs_Q>
1

> <r_epik_Metal_State_Penalty>
0.0727308

> <b_epik_Metal_Only>
1

> <s_epik_Chemistry_Notes>
This compound has an ester and may undergo hydrolysis at high or low pH. This compound contains an acetal/aminal-like group ( X-CH(R)-Y where X, Y are N, S, or O) that may be acid/base labile, releasing an aldehyde.

> <s_lp_Force_Field>
OPLS_2005

> <r_lp_Energy>
38.0652

> <b_lp_Chiralities_Consistent>
1

> <s_lp_Variant>
AV-unprocessed.smi:99-21

> <Gold.Version>
5.8.1

> <Gold.Id.Protein>
6NUR|6NUR_protein|mol2

> <Gold.PLP.Fitness>
57.8979

> <Gold.PLP.PLP>
-51.6532

> <Gold.PLP.part.hbond>
-5.0484

> <Gold.PLP.part.metal>
0.0000

> <Gold.PLP.part.buried>
-2.9150

> <Gold.PLP.part.nonpolar>
-44.6579

> <Gold.PLP.part.repulsive>
0.0000

> <Gold.PLP.ligand.clash>
0.0000

> <Gold.PLP.ligand.torsion>
1.9826

> <Gold.PLP.Chemscore.Hbond>
3.1660

> <Gold.PLP.Chemscore.CHOScore>
0.0000

> <Gold.PLP.Chemscore.Metal>
0.0000

> <Gold.Chemscore.Hbonds>
donor molecule, donor type, donor heavy atom, donor atom, acceptor molecule, acceptor atom, score
      L1  H    17    41       P1  7948  0.85
      P1  H  6896  6907       L1    13  1.12
      P1  H  6934  6947       L1    21  0.19
      P1  H 10752 10764       L1    15  1.00

> <Gold.PLP.Chemscore.Internal.Correction>
0.7120

> <Gold.Rescore>
     Score         DG    S(hbond)    S(metal)    S(lipo)     H(rot)  DE(clash)    DE(int)     intcor
     12.81     -18.80       2.04        0.00     124.29       3.13       0.28       5.70       ----

> <Gold.Chemscore.Fitness>
12.8146

> <Gold.Chemscore.DG>
-18.7961

> <Gold.Chemscore.ZeroCoef>
-5.4800

> <Gold.Chemscore.Hbond>
2.0355

> <Gold.Chemscore.Metal>
0.0000

> <Gold.Chemscore.Lipo>
124.2923

> <Gold.Chemscore.Internal_Hbond>
0.0000

> <Gold.Chemscore.DEClash>
0.2847

> <Gold.Chemscore.DEInternal>
5.6968

> <Gold.Chemscore.Rot>
3.1346

> <Gold.Chemscore.Internal.Correction>
   9.000000E+99

> <Gold.Chemscore.Hbonds>
donor molecule, donor type, donor heavy atom, donor atom, acceptor molecule, acceptor atom, score
      L1  H    17    41       P1  7948  0.83
      P1  H  6896  6907       L1    13  0.05
      P1  H  6934  6947       L1    21  0.17
      P1  H 10752 10764       L1    15  0.44

> <Gold.Chemscore.Hbond.Weighted>
-6.7984

> <Gold.Chemscore.Metal.Weighted>
-0.0000

> <Gold.Chemscore.Lipo.Weighted>
-14.5422

> <Gold.Chemscore.Internal_Hbond.Weighted>
0.0000

> <Gold.Chemscore.DEClash.Weighted>
0.2847

> <Gold.Chemscore.DEInternal.Weighted>
5.6968

> <Gold.Chemscore.Rot.Weighted>
8.0246

> <Gold.Chemscore.Internal.Correction.Weighted>
   9.000000E+99

> <Gold.Protein.RotatedTorsions>
[ 6907 6896 6895 6894 ] final  157.64 input  -60.11 | X-H torsion
[ 7974 7965 7964 7962 ] final  113.64 input  175.53 | X-H torsion
[ 8008 7997 7996 7995 ] final  -69.80 input   59.86 | X-H torsion
[ 10167 10162 10161 10158 ] final  101.51 input  -65.29 | X-H torsion
[ 10718 10713 10712 10709 ] final  -88.20 input   66.30 | X-H torsion
[ 10763 10752 10751 10750 ] final   -0.79 input  -60.55 | X-H torsion
[ 11005 11000 10999 10996 ] final -127.23 input  -57.11 | X-H torsion

> <Gold.Protein.ActiveResidues>
 VAL166  LYS551  ARG553  GLY616  TRP617  ASP618  TYR619  PRO620  LYS621  CYS622 
 ASP623  PHE694  ASN695  SER759  ASP760  ASP761  ALA762  ILE779  LEU786  VAL792 
 PHE793  MET794  SER795  GLU796  ALA797  LYS798  CYS799  TRP800  GLU811  SER814 

> <Gold.Protein.RotatedAtoms>
  152.0121  133.3865  159.4223 H   0  0  0  0  0  0  0  0  0  0  0  0  # atno 6907 bound_to 6896
  150.6898  134.3718  159.5005 H   0  0  0  0  0  0  0  0  0  0  0  0  # atno 6908 bound_to 6896
  152.1480  134.9010  160.0600 H   0  0  0  0  0  0  0  0  0  0  0  0  # atno 6909 bound_to 6896
  145.2145  139.2891  143.4251 H   0  0  0  0  0  0  0  0  0  0  0  0  # atno 7974 bound_to 7965
  154.4965  140.0846  156.7707 H   0  0  0  0  0  0  0  0  0  0  0  0  # atno 8008 bound_to 7997
  155.4105  140.3441  155.4245 H   0  0  0  0  0  0  0  0  0  0  0  0  # atno 8009 bound_to 7997
  156.1400  140.1526  156.8923 H   0  0  0  0  0  0  0  0  0  0  0  0  # atno 8010 bound_to 7997
  139.7432  144.7005  151.0544 H   0  0  0  0  0  0  0  0  0  0  0  0  # atno 10167 bound_to 10162
  155.9984  130.4827  150.4983 H   0  0  0  0  0  0  0  0  0  0  0  0  # atno 10718 bound_to 10713
  153.3364  135.6978  153.6904 H   0  0  0  0  0  0  0  0  0  0  0  0  # atno 10763 bound_to 10752
  153.5686  135.3520  155.2829 H   0  0  0  0  0  0  0  0  0  0  0  0  # atno 10764 bound_to 10752
  154.8628  135.4266  154.2566 H   0  0  0  0  0  0  0  0  0  0  0  0  # atno 10765 bound_to 10752
  140.9617  134.0927  157.3962 H   0  0  0  0  0  0  0  0  0  0  0  0  # atno 11005 bound_to 11000
  146.3390  140.2431  142.8596 LP  0  0  0  0  0  0  0  0  0  0  0  0  # atno 17320 bound_to 7965
  144.9824  140.8472  143.5389 LP  0  0  0  0  0  0  0  0  0  0  0  0  # atno 17321 bound_to 7965
  140.7788  143.4899  150.9907 LP  0  0  0  0  0  0  0  0  0  0  0  0  # atno 17342 bound_to 10162
  139.8587  143.7343  152.3174 LP  0  0  0  0  0  0  0  0  0  0  0  0  # atno 17343 bound_to 10162
  157.2970  131.0637  151.2094 LP  0  0  0  0  0  0  0  0  0  0  0  0  # atno 17370 bound_to 10713
  157.3087  130.6879  149.6203 LP  0  0  0  0  0  0  0  0  0  0  0  0  # atno 17371 bound_to 10713
  139.8880  135.0094  156.6596 LP  0  0  0  0  0  0  0  0  0  0  0  0  # atno 17394 bound_to 11000
  140.7458  133.8939  155.8311 LP  0  0  0  0  0  0  0  0  0  0  0  0  # atno 17395 bound_to 11000

$$$$
