AV-unprocessed.smi:2492|AV-procd|sdf|9817|dock6
  -GOLD-   2272013443D 1   1.00000     0.00000
 Structure written by MMmdl.
 32 33  0  0  0  0  0  0  0  0  2 V2000
  144.4205  132.7526  151.3963 C   0  0  0  0  0  0  0  0  0  0  0  0
  146.2147  133.0028  151.4479 S   0  0  0  0  0  0  0  0  0  0  0  0
  146.4038  133.6202  153.1454 C   0  0  2  0  0  0  0  0  0  0  0  0
  146.1189  135.1154  153.2588 C   0  0  0  0  0  0  0  0  0  0  0  0
  146.7846  135.5236  154.5734 C   0  0  0  0  0  0  0  0  0  0  0  0
  147.9937  134.5822  154.7478 C   0  0  2  0  0  0  0  0  0  0  0  0
  149.2600  135.2893  154.5675 N   0  0  0  0  0  0  0  0  0  0  0  0
  150.2640  135.3429  155.4549 C   0  0  0  0  0  0  0  0  0  0  0  0
  150.1567  134.7664  156.5398 O   0  0  0  0  0  0  0  0  0  0  0  0
  151.3276  136.0628  155.0314 N   0  5  0  0  0  0  0  0  0  0  0  0
  151.3183  137.4013  155.1427 C   0  0  0  0  0  0  0  0  0  0  0  0
  151.8534  138.1097  156.1379 N   0  0  0  0  0  0  0  0  0  0  0  0
  151.5726  139.3842  155.7559 C   0  0  0  0  0  0  0  0  0  0  0  0
  151.9676  140.5768  156.5574 C   0  0  0  0  0  0  0  0  0  0  0  0
  150.9241  139.5137  154.6082 N   0  0  0  0  0  0  0  0  0  0  0  0
  150.7533  138.1868  154.1890 O   0  0  0  0  0  0  0  0  0  0  0  0
  147.8294  133.4765  153.6879 C   0  0  0  0  0  0  0  0  0  0  0  0
  144.1187  132.4054  150.4082 H   0  0  0  0  0  0  0  0  0  0  0  0
  143.8992  133.6861  151.6094 H   0  0  0  0  0  0  0  0  0  0  0  0
  144.1155  132.0065  152.1300 H   0  0  0  0  0  0  0  0  0  0  0  0
  145.7137  133.0816  153.7963 H   0  0  0  0  0  0  0  0  0  0  0  0
  146.5894  135.6503  152.4323 H   0  0  0  0  0  0  0  0  0  0  0  0
  145.0530  135.3438  153.2413 H   0  0  0  0  0  0  0  0  0  0  0  0
  147.0508  136.5816  154.5823 H   0  0  0  0  0  0  0  0  0  0  0  0
  146.0858  135.3640  155.3955 H   0  0  0  0  0  0  0  0  0  0  0  0
  147.9653  134.1346  155.7430 H   0  0  0  0  0  0  0  0  0  0  0  0
  149.3891  135.7773  153.6934 H   0  0  0  0  0  0  0  0  0  0  0  0
  152.8211  141.0736  156.0957 H   0  0  0  0  0  0  0  0  0  0  0  0
  152.2434  140.2846  157.5711 H   0  0  0  0  0  0  0  0  0  0  0  0
  151.1415  141.2862  156.6172 H   0  0  0  0  0  0  0  0  0  0  0  0
  148.0109  132.4847  154.1029 H   0  0  0  0  0  0  0  0  0  0  0  0
  148.5435  133.6203  152.8750 H   0  0  0  0  0  0  0  0  0  0  0  0
  1  2  1  0  0  0  0
  1 18  1  0  0  0  0
  1 19  1  0  0  0  0
  1 20  1  0  0  0  0
  2  3  1  0  0  0  0
  3 17  1  0  0  0  0
  3  4  1  0  0  0  0
  3 21  1  0  0  0  0
  4  5  1  0  0  0  0
  4 22  1  0  0  0  0
  4 23  1  0  0  0  0
  5  6  1  0  0  0  0
  5 24  1  0  0  0  0
  5 25  1  0  0  0  0
  6  7  1  0  0  0  0
  6 17  1  0  0  0  0
  6 26  1  0  0  0  0
  7  8  1  0  0  0  0
  7 27  1  0  0  0  0
  8  9  2  0  0  0  0
  8 10  1  0  0  0  0
 10 11  1  0  0  0  0
 11 16  1  0  0  0  0
 11 12  2  0  0  0  0
 12 13  1  0  0  0  0
 13 14  1  0  0  0  0
 13 15  2  0  0  0  0
 14 28  1  0  0  0  0
 14 29  1  0  0  0  0
 14 30  1  0  0  0  0
 15 16  1  0  0  0  0
 17 31  1  0  0  0  0
 17 32  1  0  0  0  0
M  CHG  1  10  -1
M  END
> <s_m_source_file>
AV-unprocessed.smi

> <i_m_source_file_index>
2492

> <i_lp_mmshare_version>
43012

> <i_f3d_flags>
0

> <s_epik_input>
W0NIM11TW0NAQEhdMVtDSDJdW0NIMl1bQ0BIXShbQ0gyXTEpW05IXUMoPU8pW05IXWMybmMoW0NIM10pbm8y

> <s_epik_cmdline>
J2VwaWtfcHl0aG9uJywgJy1waCcsICc3LjAnLCAnLXRuJywgJzgnLCAnLW1hJywgJzIwMCcsICctbWV0YWxfYmluZGluZycsICctaW1hZScsICc8aW5maWxlLm1hZT4nLCAnLW9tYWUnLCAnPG91dGZpbGUubWFlPic=

> <r_lp_tautomer_probability>
1

> <r_epik_Ionization_Penalty>
6.26454

> <r_epik_Ionization_Penalty_Charging>
6.26445

> <r_epik_Ionization_Penalty_Neutral>
9.05726e-05

> <r_epik_State_Penalty>
6.26444

> <r_epik_Charging_Adjusted_Penalty>
12.5289

> <i_epik_Tot_Q>
-1

> <i_epik_Tot_abs_Q>
1

> <r_epik_Metal_State_Penalty>
2.20125

> <b_epik_Metal_Only>
1

> <s_lp_Force_Field>
OPLS_2005

> <r_lp_Energy>
10.8343

> <b_lp_Chiralities_Consistent>
1

> <s_lp_Variant>
AV-unprocessed.smi:2492-7

> <Gold.Version>
5.8.1

> <Gold.Id.Protein>
6NUR|6NUR_protein|mol2

> <Gold.PLP.Fitness>
33.6082

> <Gold.PLP.PLP>
-24.9941

> <Gold.PLP.part.hbond>
-3.0000

> <Gold.PLP.part.metal>
0.0000

> <Gold.PLP.part.buried>
-4.5682

> <Gold.PLP.part.nonpolar>
-18.5749

> <Gold.PLP.part.repulsive>
0.5840

> <Gold.PLP.ligand.clash>
0.0000

> <Gold.PLP.ligand.torsion>
1.7011

> <Gold.PLP.Chemscore.Hbond>
4.0000

> <Gold.PLP.Chemscore.CHOScore>
0.0000

> <Gold.PLP.Chemscore.Metal>
0.0000

> <Gold.Chemscore.Hbonds>
donor molecule, donor type, donor heavy atom, donor atom, acceptor molecule, acceptor atom, score
      L1  H     7    27       P1  7948  1.00
      P1  H  7989  7998       L1    15  1.00
      P1  H 10752 10764       L1    10  2.00

> <Gold.PLP.Chemscore.Internal.Correction>
0.0164

> <Gold.Rescore>
     Score         DG    S(hbond)    S(metal)    S(lipo)     H(rot)  DE(clash)    DE(int)     intcor
     12.25     -14.09       2.37        0.00      33.60       1.27       0.05       1.79       ----

> <Gold.Chemscore.Fitness>
12.2477

> <Gold.Chemscore.DG>
-14.0858

> <Gold.Chemscore.ZeroCoef>
-5.4800

> <Gold.Chemscore.Hbond>
2.3740

> <Gold.Chemscore.Metal>
0.0000

> <Gold.Chemscore.Lipo>
33.5956

> <Gold.Chemscore.Internal_Hbond>
0.0000

> <Gold.Chemscore.DEClash>
0.0524

> <Gold.Chemscore.DEInternal>
1.7857

> <Gold.Chemscore.Rot>
1.2712

> <Gold.Chemscore.Internal.Correction>
   9.000000E+99

> <Gold.Chemscore.Hbonds>
donor molecule, donor type, donor heavy atom, donor atom, acceptor molecule, acceptor atom, score
      L1  H     7    27       P1  7948  0.49
      P1  H  7989  7998       L1    15  0.85
      P1  H 10752 10764       L1    10  0.70

> <Gold.Chemscore.Hbond.Weighted>
-7.9293

> <Gold.Chemscore.Metal.Weighted>
-0.0000

> <Gold.Chemscore.Lipo.Weighted>
-3.9307

> <Gold.Chemscore.Internal_Hbond.Weighted>
0.0000

> <Gold.Chemscore.DEClash.Weighted>
0.0524

> <Gold.Chemscore.DEInternal.Weighted>
1.7857

> <Gold.Chemscore.Rot.Weighted>
3.2542

> <Gold.Chemscore.Internal.Correction.Weighted>
   9.000000E+99

> <Gold.Protein.RotatedTorsions>
[ 6907 6896 6895 6894 ] final -152.23 input  -60.11 | X-H torsion
[ 7974 7965 7964 7962 ] final    2.27 input  175.53 | X-H torsion
[ 8008 7997 7996 7995 ] final   78.29 input   59.86 | X-H torsion
[ 10167 10162 10161 10158 ] final -144.72 input  -65.29 | X-H torsion
[ 10718 10713 10712 10709 ] final -149.02 input   66.30 | X-H torsion
[ 10763 10752 10751 10750 ] final  -45.97 input  -60.55 | X-H torsion
[ 11005 11000 10999 10996 ] final  151.32 input  -57.11 | X-H torsion

> <Gold.Protein.ActiveResidues>
 VAL166  LYS551  ARG553  GLY616  TRP617  ASP618  TYR619  PRO620  LYS621  CYS622 
 ASP623  PHE694  ASN695  SER759  ASP760  ASP761  ALA762  ILE779  LEU786  VAL792 
 PHE793  MET794  SER795  GLU796  ALA797  LYS798  CYS799  TRP800  GLU811  SER814 

> <Gold.Protein.RotatedAtoms>
  151.2248  133.4482  159.2601 H   0  0  0  0  0  0  0  0  0  0  0  0  # atno 6907 bound_to 6896
  151.0851  134.9882  159.8385 H   0  0  0  0  0  0  0  0  0  0  0  0  # atno 6908 bound_to 6896
  152.5428  134.2185  159.8831 H   0  0  0  0  0  0  0  0  0  0  0  0  # atno 6909 bound_to 6896
  146.2443  140.0861  142.8354 H   0  0  0  0  0  0  0  0  0  0  0  0  # atno 7974 bound_to 7965
  155.8536  140.3457  155.5709 H   0  0  0  0  0  0  0  0  0  0  0  0  # atno 8008 bound_to 7997
  155.8011  140.0885  157.1976 H   0  0  0  0  0  0  0  0  0  0  0  0  # atno 8009 bound_to 7997
  154.4008  140.1465  156.3263 H   0  0  0  0  0  0  0  0  0  0  0  0  # atno 8010 bound_to 7997
  139.7873  143.8016  152.2646 H   0  0  0  0  0  0  0  0  0  0  0  0  # atno 10167 bound_to 10162
  156.4277  130.8060  151.2286 H   0  0  0  0  0  0  0  0  0  0  0  0  # atno 10718 bound_to 10713
  154.0373  135.6649  153.4786 H   0  0  0  0  0  0  0  0  0  0  0  0  # atno 10763 bound_to 10752
  153.0516  135.5081  154.7876 H   0  0  0  0  0  0  0  0  0  0  0  0  # atno 10764 bound_to 10752
  154.6840  135.3050  154.9538 H   0  0  0  0  0  0  0  0  0  0  0  0  # atno 10765 bound_to 10752
  140.1209  134.8864  157.2070 H   0  0  0  0  0  0  0  0  0  0  0  0  # atno 11005 bound_to 11000
  145.0690  140.9142  143.4893 LP  0  0  0  0  0  0  0  0  0  0  0  0  # atno 17320 bound_to 7965
  145.0992  139.2835  143.5695 LP  0  0  0  0  0  0  0  0  0  0  0  0  # atno 17321 bound_to 7965
  139.8097  144.7341  150.9714 LP  0  0  0  0  0  0  0  0  0  0  0  0  # atno 17342 bound_to 10162
  140.7820  143.4263  151.0763 LP  0  0  0  0  0  0  0  0  0  0  0  0  # atno 17343 bound_to 10162
  157.7508  131.0208  150.3724 LP  0  0  0  0  0  0  0  0  0  0  0  0  # atno 17370 bound_to 10713
  156.4054  130.3924  149.6929 LP  0  0  0  0  0  0  0  0  0  0  0  0  # atno 17371 bound_to 10713
  140.2967  134.3179  155.7300 LP  0  0  0  0  0  0  0  0  0  0  0  0  # atno 17394 bound_to 11000
  141.2151  133.7567  156.9581 LP  0  0  0  0  0  0  0  0  0  0  0  0  # atno 17395 bound_to 11000

$$$$
