AV-unprocessed.smi:1053|AV-procd|sdf|4617|dock9
  -GOLD-   22720 3123D 1   1.00000     0.00000
 Structure written by MMmdl.
 38 39  0  0  0  0  0  0  0  0  2 V2000
  146.2979  142.6180  154.0396 C   0  0  0  0  0  0  0  0  0  0  0  0
  147.4820  141.7295  154.4459 C   0  0  0  0  0  0  0  0  0  0  0  0
  148.0513  142.1049  155.7643 N   0  3  1  0  0  0  0  0  0  0  0  0
  147.1213  141.8148  156.8812 C   0  0  0  0  0  0  0  0  0  0  0  0
  147.7328  142.2581  158.2194 C   0  0  0  0  0  0  0  0  0  0  0  0
  148.9872  141.6151  158.3989 O   0  0  0  0  0  0  0  0  0  0  0  0
  149.9298  141.9717  157.3928 C   0  0  1  0  0  0  0  0  0  0  0  0
  151.2793  141.3092  157.7175 C   0  0  0  0  0  0  0  0  0  0  0  0
  152.2412  142.2551  158.2682 N   0  0  0  0  0  0  0  0  0  0  0  0
  152.7677  142.1964  159.5460 C   0  0  0  0  0  0  0  0  0  0  0  0
  152.3726  143.1075  160.4425 N   0  0  0  0  0  0  0  0  0  0  0  0
  152.9044  143.0222  161.6808 C   0  0  0  0  0  0  0  0  0  0  0  0
  153.8352  142.0211  162.0208 C   0  0  0  0  0  0  0  0  0  0  0  0
  154.1795  141.1119  160.9957 C   0  0  0  0  0  0  0  0  0  0  0  0
  155.1712  139.9798  161.2177 C   0  0  0  0  0  0  0  0  0  0  0  0
  156.1691  140.0781  160.3391 F   0  0  0  0  0  0  0  0  0  0  0  0
  155.6857  140.0139  162.4475 F   0  0  0  0  0  0  0  0  0  0  0  0
  154.5610  138.8068  161.0472 F   0  0  0  0  0  0  0  0  0  0  0  0
  153.6389  141.2083  159.7584 N   0  0  0  0  0  0  0  0  0  0  0  0
  149.3819  141.5029  156.0302 C   0  0  0  0  0  0  0  0  0  0  0  0
  145.8462  142.2534  153.1167 H   0  0  0  0  0  0  0  0  0  0  0  0
  146.6010  143.6497  153.8634 H   0  0  0  0  0  0  0  0  0  0  0  0
  145.5237  142.6193  154.8075 H   0  0  0  0  0  0  0  0  0  0  0  0
  147.1249  140.6999  154.4941 H   0  0  0  0  0  0  0  0  0  0  0  0
  148.2595  141.7515  153.6811 H   0  0  0  0  0  0  0  0  0  0  0  0
  146.1746  142.3326  156.7222 H   0  0  0  0  0  0  0  0  0  0  0  0
  146.9029  140.7460  156.9073 H   0  0  0  0  0  0  0  0  0  0  0  0
  147.8544  143.3419  158.2563 H   0  0  0  0  0  0  0  0  0  0  0  0
  147.0743  141.9832  159.0434 H   0  0  0  0  0  0  0  0  0  0  0  0
  150.0596  143.0559  157.3759 H   0  0  0  0  0  0  0  0  0  0  0  0
  151.1446  140.4580  158.3860 H   0  0  0  0  0  0  0  0  0  0  0  0
  151.7160  140.9106  156.8016 H   0  0  0  0  0  0  0  0  0  0  0  0
  152.4554  143.0797  157.7262 H   0  0  0  0  0  0  0  0  0  0  0  0
  152.5858  143.7580  162.4043 H   0  0  0  0  0  0  0  0  0  0  0  0
  154.2555  141.9601  163.0136 H   0  0  0  0  0  0  0  0  0  0  0  0
  149.2998  140.4147  156.0120 H   0  0  0  0  0  0  0  0  0  0  0  0
  150.0846  141.7833  155.2461 H   0  0  0  0  0  0  0  0  0  0  0  0
  148.1758  143.1073  155.7520 H   0  0  0  0  0  0  0  0  0  0  0  0
  1  2  1  0  0  0  0
  1 21  1  0  0  0  0
  1 22  1  0  0  0  0
  1 23  1  0  0  0  0
  2  3  1  0  0  0  0
  2 24  1  0  0  0  0
  2 25  1  0  0  0  0
  3 20  1  0  0  0  0
  3  4  1  0  0  0  0
  3 38  1  0  0  0  0
  4  5  1  0  0  0  0
  4 26  1  0  0  0  0
  4 27  1  0  0  0  0
  5  6  1  0  0  0  0
  5 28  1  0  0  0  0
  5 29  1  0  0  0  0
  6  7  1  0  0  0  0
  7  8  1  0  0  0  0
  7 20  1  0  0  0  0
  7 30  1  0  0  0  0
  8  9  1  0  0  0  0
  8 31  1  0  0  0  0
  8 32  1  0  0  0  0
  9 10  1  0  0  0  0
  9 33  1  0  0  0  0
 10 19  1  0  0  0  0
 10 11  2  0  0  0  0
 11 12  1  0  0  0  0
 12 13  2  0  0  0  0
 12 34  1  0  0  0  0
 13 14  1  0  0  0  0
 13 35  1  0  0  0  0
 14 15  1  0  0  0  0
 14 19  2  0  0  0  0
 15 16  1  0  0  0  0
 15 17  1  0  0  0  0
 15 18  1  0  0  0  0
 20 36  1  0  0  0  0
 20 37  1  0  0  0  0
M  CHG  1   3   1
M  END
> <s_m_source_file>
AV-unprocessed.smi

> <i_m_source_file_index>
1053

> <i_lp_mmshare_version>
43012

> <i_f3d_flags>
0

> <s_epik_input>
W0NIM11bQ0gyXU4xW0NIMl1bQ0gyXU9bQ0BIXShbQ0gyXTEpW0NIMl1bTkhdYzJuW2NIXVtjSF1jKG4yKUMoRikoRilG

> <s_epik_cmdline>
J2VwaWtfcHl0aG9uJywgJy1waCcsICc3LjAnLCAnLXRuJywgJzgnLCAnLW1hJywgJzIwMCcsICctbWV0YWxfYmluZGluZycsICctaW1hZScsICc8aW5maWxlLm1hZT4nLCAnLW9tYWUnLCAnPG91dGZpbGUubWFlPic=

> <r_lp_tautomer_probability>
1

> <r_epik_Ionization_Penalty>
0.178506

> <r_epik_Ionization_Penalty_Charging>
0.178504

> <r_epik_Ionization_Penalty_Neutral>
2.47619e-06

> <r_epik_State_Penalty>
0.167974

> <r_epik_Charging_Adjusted_Penalty>
0.346478

> <i_epik_Tot_Q>
1

> <i_epik_Tot_abs_Q>
1

> <r_epik_Metal_State_Penalty>
0.167974

> <b_epik_Metal_Only>
0

> <s_lp_Force_Field>
OPLS_2005

> <r_lp_Energy>
10.9386

> <b_lp_Chiralities_Consistent>
1

> <s_lp_Variant>
AV-unprocessed.smi:1053-1

> <Gold.Version>
5.8.1

> <Gold.Id.Protein>
6NUR|6NUR_protein|mol2

> <Gold.PLP.Fitness>
43.7589

> <Gold.PLP.PLP>
-40.5319

> <Gold.PLP.part.hbond>
-1.0000

> <Gold.PLP.part.metal>
0.0000

> <Gold.PLP.part.buried>
-6.4155

> <Gold.PLP.part.nonpolar>
-32.8765

> <Gold.PLP.part.repulsive>
0.2643

> <Gold.PLP.ligand.clash>
0.0000

> <Gold.PLP.ligand.torsion>
1.3967

> <Gold.PLP.Chemscore.Hbond>
2.0000

> <Gold.PLP.Chemscore.CHOScore>
0.0000

> <Gold.PLP.Chemscore.Metal>
0.0000

> <Gold.Chemscore.Hbonds>
donor molecule, donor type, donor heavy atom, donor atom, acceptor molecule, acceptor atom, score
      L1  H     3    38       P1  8028  2.00

> <Gold.PLP.Chemscore.Internal.Correction>
0.0205

> <Gold.Rescore>
     Score         DG    S(hbond)    S(metal)    S(lipo)     H(rot)  DE(clash)    DE(int)     intcor
     12.31     -13.79       0.98        0.00      77.02       1.55       0.20       1.27       ----

> <Gold.Chemscore.Fitness>
12.3140

> <Gold.Chemscore.DG>
-13.7902

> <Gold.Chemscore.ZeroCoef>
-5.4800

> <Gold.Chemscore.Hbond>
0.9820

> <Gold.Chemscore.Metal>
0.0000

> <Gold.Chemscore.Lipo>
77.0169

> <Gold.Chemscore.Internal_Hbond>
0.0000

> <Gold.Chemscore.DEClash>
0.2047

> <Gold.Chemscore.DEInternal>
1.2714

> <Gold.Chemscore.Rot>
1.5549

> <Gold.Chemscore.Internal.Correction>
   9.000000E+99

> <Gold.Chemscore.Hbonds>
donor molecule, donor type, donor heavy atom, donor atom, acceptor molecule, acceptor atom, score
      L1  H     3    38       P1  8028  0.85

> <Gold.Chemscore.Hbond.Weighted>
-3.2798

> <Gold.Chemscore.Metal.Weighted>
-0.0000

> <Gold.Chemscore.Lipo.Weighted>
-9.0110

> <Gold.Chemscore.Internal_Hbond.Weighted>
0.0000

> <Gold.Chemscore.DEClash.Weighted>
0.2047

> <Gold.Chemscore.DEInternal.Weighted>
1.2714

> <Gold.Chemscore.Rot.Weighted>
3.9806

> <Gold.Chemscore.Internal.Correction.Weighted>
   9.000000E+99

> <Gold.Protein.RotatedTorsions>
[ 6907 6896 6895 6894 ] final -149.68 input  -60.11 | X-H torsion
[ 7974 7965 7964 7962 ] final  165.16 input  175.53 | X-H torsion
[ 8008 7997 7996 7995 ] final -163.39 input   59.86 | X-H torsion
[ 10167 10162 10161 10158 ] final  179.12 input  -65.29 | X-H torsion
[ 10718 10713 10712 10709 ] final    2.32 input   66.30 | X-H torsion
[ 10763 10752 10751 10750 ] final  122.09 input  -60.55 | X-H torsion
[ 11005 11000 10999 10996 ] final  112.69 input  -57.11 | X-H torsion

> <Gold.Protein.ActiveResidues>
 VAL166  LYS551  ARG553  GLY616  TRP617  ASP618  TYR619  PRO620  LYS621  CYS622 
 ASP623  PHE694  ASN695  SER759  ASP760  ASP761  ALA762  ILE779  LEU786  VAL792 
 PHE793  MET794  SER795  GLU796  ALA797  LYS798  CYS799  TRP800  GLU811  SER814 

> <Gold.Protein.RotatedAtoms>
  151.1875  133.4687  159.2594 H   0  0  0  0  0  0  0  0  0  0  0  0  # atno 6907 bound_to 6896
  151.1196  135.0072  159.8542 H   0  0  0  0  0  0  0  0  0  0  0  0  # atno 6908 bound_to 6896
  152.5455  134.1788  159.8680 H   0  0  0  0  0  0  0  0  0  0  0  0  # atno 6909 bound_to 6896
  144.7514  139.8429  143.6365 H   0  0  0  0  0  0  0  0  0  0  0  0  # atno 7974 bound_to 7965
  155.8206  140.0919  157.1851 H   0  0  0  0  0  0  0  0  0  0  0  0  # atno 8008 bound_to 7997
  154.3979  140.1437  156.3555 H   0  0  0  0  0  0  0  0  0  0  0  0  # atno 8009 bound_to 7997
  155.8270  140.3444  155.5551 H   0  0  0  0  0  0  0  0  0  0  0  0  # atno 8010 bound_to 7997
  139.5323  144.2598  152.0716 H   0  0  0  0  0  0  0  0  0  0  0  0  # atno 10167 bound_to 10162
  156.8613  130.5587  149.5663 H   0  0  0  0  0  0  0  0  0  0  0  0  # atno 10718 bound_to 10713
  153.6243  135.3407  155.3021 H   0  0  0  0  0  0  0  0  0  0  0  0  # atno 10763 bound_to 10752
  154.8593  135.4280  154.2174 H   0  0  0  0  0  0  0  0  0  0  0  0  # atno 10764 bound_to 10752
  153.3054  135.7027  153.7237 H   0  0  0  0  0  0  0  0  0  0  0  0  # atno 10765 bound_to 10752
  139.8933  134.9535  156.6624 H   0  0  0  0  0  0  0  0  0  0  0  0  # atno 11005 bound_to 11000
  146.1470  139.4542  143.0073 LP  0  0  0  0  0  0  0  0  0  0  0  0  # atno 17320 bound_to 7965
  145.6930  141.0158  143.1545 LP  0  0  0  0  0  0  0  0  0  0  0  0  # atno 17321 bound_to 7965
  140.2064  144.4607  150.6407 LP  0  0  0  0  0  0  0  0  0  0  0  0  # atno 17342 bound_to 10162
  140.6509  143.2224  151.6080 LP  0  0  0  0  0  0  0  0  0  0  0  0  # atno 17343 bound_to 10162
  156.0775  130.5794  150.9502 LP  0  0  0  0  0  0  0  0  0  0  0  0  # atno 17370 bound_to 10713
  157.6248  131.0926  150.8553 LP  0  0  0  0  0  0  0  0  0  0  0  0  # atno 17371 bound_to 10713
  140.7437  133.8956  155.8296 LP  0  0  0  0  0  0  0  0  0  0  0  0  # atno 17394 bound_to 11000
  141.0057  134.1089  157.4272 LP  0  0  0  0  0  0  0  0  0  0  0  0  # atno 17395 bound_to 11000

$$$$
