AV-unprocessed.smi:676|AV-procd|sdf|3308|dock9
  -GOLD-   22720 0273D 1   1.00000     0.00000
 Structure written by MMmdl.
 42 43  0  0  0  0  0  0  0  0  1 V2000
  145.7333  139.9926  157.0240 C   0  0  0  0  0  0  0  0  0  0  0  0
  146.7800  140.5450  156.2353 O   0  0  0  0  0  0  0  0  0  0  0  0
  148.0741  139.9354  156.3383 C   0  0  2  0  0  0  0  0  0  0  0  0
  148.0105  138.4622  155.9157 C   0  0  0  0  0  0  0  0  0  0  0  0
  148.7323  140.3080  157.6805 C   0  0  0  0  0  0  0  0  0  0  0  0
  149.1787  141.6092  157.0171 C   0  0  1  0  0  0  0  0  0  0  0  0
  150.5131  142.0240  157.4354 N   0  0  0  0  0  0  0  0  0  0  0  0
  150.7620  142.8668  158.4478 C   0  0  0  0  0  0  0  0  0  0  0  0
  149.8781  143.3485  159.1573 O   0  0  0  0  0  0  0  0  0  0  0  0
  152.2374  143.2050  158.6992 C   0  0  0  0  0  0  0  0  0  0  0  0
  152.6554  142.9360  160.0846 N   0  0  0  0  0  0  0  0  0  0  0  0
  152.2224  143.8398  161.0752 C   0  0  0  0  0  0  0  0  0  0  0  0
  152.5512  143.6876  162.3677 C   0  0  0  0  0  0  0  0  0  0  0  0
  153.3731  142.5590  162.7346 C   0  0  0  0  0  0  0  0  0  0  0  0
  153.7946  141.6896  161.7949 C   0  0  0  0  0  0  0  0  0  0  0  0
  153.4385  141.8527  160.3806 C   0  0  0  0  0  0  0  0  0  0  0  0
  153.8206  141.0640  159.5153 O   0  0  0  0  0  0  0  0  0  0  0  0
  149.1189  140.8752  155.6518 C   0  0  0  0  0  0  0  0  0  0  0  0
  150.4179  140.2011  155.1697 C   0  0  0  0  0  0  0  0  0  0  0  0
  148.6173  141.7055  154.4652 C   0  0  0  0  0  0  0  0  0  0  0  0
  144.8621  140.6446  156.9642 H   0  0  0  0  0  0  0  0  0  0  0  0
  146.0063  139.9023  158.0749 H   0  0  0  0  0  0  0  0  0  0  0  0
  145.4270  139.0136  156.6561 H   0  0  0  0  0  0  0  0  0  0  0  0
  148.9994  138.0055  155.8880 H   0  0  0  0  0  0  0  0  0  0  0  0
  147.5723  138.3538  154.9234 H   0  0  0  0  0  0  0  0  0  0  0  0
  147.4221  137.8631  156.6100 H   0  0  0  0  0  0  0  0  0  0  0  0
  148.0582  140.4457  158.5251 H   0  0  0  0  0  0  0  0  0  0  0  0
  149.5585  139.6455  157.9444 H   0  0  0  0  0  0  0  0  0  0  0  0
  148.4218  142.3910  157.1137 H   0  0  0  0  0  0  0  0  0  0  0  0
  151.2947  141.6665  156.9055 H   0  0  0  0  0  0  0  0  0  0  0  0
  152.8403  142.6316  157.9941 H   0  0  0  0  0  0  0  0  0  0  0  0
  152.4254  144.2517  158.4518 H   0  0  0  0  0  0  0  0  0  0  0  0
  151.6177  144.6607  160.7182 H   0  0  0  0  0  0  0  0  0  0  0  0
  152.2129  144.3925  163.1128 H   0  0  0  0  0  0  0  0  0  0  0  0
  153.6529  142.4121  163.7672 H   0  0  0  0  0  0  0  0  0  0  0  0
  154.4102  140.8520  162.0883 H   0  0  0  0  0  0  0  0  0  0  0  0
  151.1621  140.9354  154.8588 H   0  0  0  0  0  0  0  0  0  0  0  0
  150.2357  139.5491  154.3149 H   0  0  0  0  0  0  0  0  0  0  0  0
  150.8796  139.5915  155.9464 H   0  0  0  0  0  0  0  0  0  0  0  0
  149.3899  142.3770  154.0890 H   0  0  0  0  0  0  0  0  0  0  0  0
  147.7663  142.3308  154.7349 H   0  0  0  0  0  0  0  0  0  0  0  0
  148.3027  141.0682  153.6382 H   0  0  0  0  0  0  0  0  0  0  0  0
  1  2  1  0  0  0  0
  1 21  1  0  0  0  0
  1 22  1  0  0  0  0
  1 23  1  0  0  0  0
  2  3  1  0  0  0  0
  3 18  1  0  0  0  0
  3  4  1  0  0  0  0
  3  5  1  0  0  0  0
  4 24  1  0  0  0  0
  4 25  1  0  0  0  0
  4 26  1  0  0  0  0
  5  6  1  0  0  0  0
  5 27  1  0  0  0  0
  5 28  1  0  0  0  0
  6  7  1  0  0  0  0
  6 18  1  0  0  0  0
  6 29  1  0  0  0  0
  7  8  1  0  0  0  0
  7 30  1  0  0  0  0
  8  9  2  0  0  0  0
  8 10  1  0  0  0  0
 10 11  1  0  0  0  0
 10 31  1  0  0  0  0
 10 32  1  0  0  0  0
 11 16  1  0  0  0  0
 11 12  1  0  0  0  0
 12 13  2  0  0  0  0
 12 33  1  0  0  0  0
 13 14  1  0  0  0  0
 13 34  1  0  0  0  0
 14 15  2  0  0  0  0
 14 35  1  0  0  0  0
 15 16  1  0  0  0  0
 15 36  1  0  0  0  0
 16 17  2  0  0  0  0
 18 19  1  0  0  0  0
 18 20  1  0  0  0  0
 19 37  1  0  0  0  0
 19 38  1  0  0  0  0
 19 39  1  0  0  0  0
 20 40  1  0  0  0  0
 20 41  1  0  0  0  0
 20 42  1  0  0  0  0
M  END
> <s_m_source_file>
AV-unprocessed.smi

> <i_m_source_file_index>
676

> <i_lp_mmshare_version>
43012

> <i_f3d_flags>
0

> <s_epik_input>
W0NIM11PW0NAQF0xKFtDSDNdKVtDSDJdW0NASF0oQzEoW0NIM10pW0NIM10pW05IXUMoPU8pW0NIMl1uMltjSF1bY0hdW2NIXVtjSF1jMj1P

> <s_epik_cmdline>
J2VwaWtfcHl0aG9uJywgJy1waCcsICc3LjAnLCAnLXRuJywgJzgnLCAnLW1hJywgJzIwMCcsICctbWV0YWxfYmluZGluZycsICctaW1hZScsICc8aW5maWxlLm1hZT4nLCAnLW9tYWUnLCAnPG91dGZpbGUubWFlPic=

> <r_lp_tautomer_probability>
1

> <r_epik_Ionization_Penalty>
4.09771e-07

> <r_epik_Ionization_Penalty_Charging>
3.90712e-07

> <r_epik_Ionization_Penalty_Neutral>
1.90591e-08

> <r_epik_State_Penalty>
-0

> <r_epik_Charging_Adjusted_Penalty>
3.90712e-07

> <i_epik_Tot_Q>
0

> <i_epik_Tot_abs_Q>
0

> <r_epik_Metal_State_Penalty>
-0

> <b_epik_Metal_Only>
0

> <s_lp_Force_Field>
OPLS_2005

> <r_lp_Energy>
31.4736

> <b_lp_Chiralities_Consistent>
1

> <s_lp_Variant>
AV-unprocessed.smi:676-2

> <Gold.Version>
5.8.1

> <Gold.Id.Protein>
6NUR|6NUR_protein|mol2

> <Gold.PLP.Fitness>
39.1093

> <Gold.PLP.PLP>
-39.8195

> <Gold.PLP.part.hbond>
-0.2311

> <Gold.PLP.part.metal>
0.0000

> <Gold.PLP.part.buried>
-2.5187

> <Gold.PLP.part.nonpolar>
-36.2210

> <Gold.PLP.part.repulsive>
0.1766

> <Gold.PLP.ligand.clash>
0.0000

> <Gold.PLP.ligand.torsion>
0.5454

> <Gold.PLP.Chemscore.Hbond>
0.0000

> <Gold.PLP.Chemscore.CHOScore>
0.0000

> <Gold.PLP.Chemscore.Metal>
0.0000

> <Gold.PLP.Chemscore.Internal.Correction>
0.3808

> <Gold.Rescore>
     Score         DG    S(hbond)    S(metal)    S(lipo)     H(rot)  DE(clash)    DE(int)     intcor
     10.89     -11.54       0.00        0.00      87.21       1.62       0.02       0.64       ----

> <Gold.Chemscore.Fitness>
10.8918

> <Gold.Chemscore.DG>
-11.5426

> <Gold.Chemscore.ZeroCoef>
-5.4800

> <Gold.Chemscore.Hbond>
0.0000

> <Gold.Chemscore.Metal>
0.0000

> <Gold.Chemscore.Lipo>
87.2080

> <Gold.Chemscore.Internal_Hbond>
0.0000

> <Gold.Chemscore.DEClash>
0.0156

> <Gold.Chemscore.DEInternal>
0.6352

> <Gold.Chemscore.Rot>
1.6175

> <Gold.Chemscore.Internal.Correction>
   9.000000E+99

> <Gold.Chemscore.Hbond.Weighted>
-0.0000

> <Gold.Chemscore.Metal.Weighted>
-0.0000

> <Gold.Chemscore.Lipo.Weighted>
-10.2033

> <Gold.Chemscore.Internal_Hbond.Weighted>
0.0000

> <Gold.Chemscore.DEClash.Weighted>
0.0156

> <Gold.Chemscore.DEInternal.Weighted>
0.6352

> <Gold.Chemscore.Rot.Weighted>
4.1408

> <Gold.Chemscore.Internal.Correction.Weighted>
   9.000000E+99

> <Gold.Protein.RotatedTorsions>
[ 6907 6896 6895 6894 ] final   94.68 input  -60.11 | X-H torsion
[ 7974 7965 7964 7962 ] final  119.65 input  175.53 | X-H torsion
[ 8008 7997 7996 7995 ] final  -14.16 input   59.86 | X-H torsion
[ 10167 10162 10161 10158 ] final  -90.19 input  -65.29 | X-H torsion
[ 10718 10713 10712 10709 ] final  155.54 input   66.30 | X-H torsion
[ 10763 10752 10751 10750 ] final  -90.44 input  -60.55 | X-H torsion
[ 11005 11000 10999 10996 ] final -118.36 input  -57.11 | X-H torsion

> <Gold.Protein.ActiveResidues>
 VAL166  LYS551  ARG553  GLY616  TRP617  ASP618  TYR619  PRO620  LYS621  CYS622 
 ASP623  PHE694  ASN695  SER759  ASP760  ASP761  ALA762  ILE779  LEU786  VAL792 
 PHE793  MET794  SER795  GLU796  ALA797  LYS798  CYS799  TRP800  GLU811  SER814 

> <Gold.Protein.RotatedAtoms>
  152.5448  134.1156  159.8376 H   0  0  0  0  0  0  0  0  0  0  0  0  # atno 6907 bound_to 6896
  151.1218  133.5092  159.2609 H   0  0  0  0  0  0  0  0  0  0  0  0  # atno 6908 bound_to 6896
  151.1771  135.0354  159.8831 H   0  0  0  0  0  0  0  0  0  0  0  0  # atno 6909 bound_to 6896
  145.1406  139.3270  143.4618 H   0  0  0  0  0  0  0  0  0  0  0  0  # atno 7974 bound_to 7965
  154.5232  140.2230  155.8937 H   0  0  0  0  0  0  0  0  0  0  0  0  # atno 8008 bound_to 7997
  156.1685  140.3127  155.8896 H   0  0  0  0  0  0  0  0  0  0  0  0  # atno 8009 bound_to 7997
  155.3607  140.0461  157.3037 H   0  0  0  0  0  0  0  0  0  0  0  0  # atno 8010 bound_to 7997
  140.3574  143.2859  151.9655 H   0  0  0  0  0  0  0  0  0  0  0  0  # atno 10167 bound_to 10162
  157.2170  131.0710  151.1935 H   0  0  0  0  0  0  0  0  0  0  0  0  # atno 10718 bound_to 10713
  154.6658  135.5304  153.8075 H   0  0  0  0  0  0  0  0  0  0  0  0  # atno 10763 bound_to 10752
  153.0470  135.6517  154.0802 H   0  0  0  0  0  0  0  0  0  0  0  0  # atno 10764 bound_to 10752
  154.0706  135.2954  155.3288 H   0  0  0  0  0  0  0  0  0  0  0  0  # atno 10765 bound_to 10752
  141.0291  134.0008  157.3169 H   0  0  0  0  0  0  0  0  0  0  0  0  # atno 11005 bound_to 11000
  146.3505  140.1442  142.8594 LP  0  0  0  0  0  0  0  0  0  0  0  0  # atno 17320 bound_to 7965
  145.0536  140.9036  143.4981 LP  0  0  0  0  0  0  0  0  0  0  0  0  # atno 17321 bound_to 7965
  139.4818  144.6023  151.7584 LP  0  0  0  0  0  0  0  0  0  0  0  0  # atno 17342 bound_to 10162
  140.5160  144.0952  150.6008 LP  0  0  0  0  0  0  0  0  0  0  0  0  # atno 17343 bound_to 10162
  157.3614  130.7133  149.6504 LP  0  0  0  0  0  0  0  0  0  0  0  0  # atno 17370 bound_to 10713
  155.9685  130.4224  150.4516 LP  0  0  0  0  0  0  0  0  0  0  0  0  # atno 17371 bound_to 10713
  139.9196  135.0199  156.8013 LP  0  0  0  0  0  0  0  0  0  0  0  0  # atno 17394 bound_to 11000
  140.6438  133.9794  155.7720 LP  0  0  0  0  0  0  0  0  0  0  0  0  # atno 17395 bound_to 11000

$$$$
