AV-unprocessed.smi:1239|AV-procd|sdf|5185|dock10
  -GOLD-   22720 4263D 1   1.00000     0.00000
 Structure written by MMmdl.
 48 49  0  0  0  0  0  0  0  0  2 V2000
  144.7203  137.8182  154.2505 C   0  0  0  0  0  0  0  0  0  0  0  0
  145.4578  137.0571  153.1250 C   0  0  2  0  0  0  0  0  0  0  0  0
  146.2543  138.0914  152.2901 C   0  0  0  0  0  0  0  0  0  0  0  0
  147.5499  138.3922  152.8952 N   0  0  0  0  0  0  0  0  0  0  0  0
  147.7891  139.3818  153.7665 C   0  0  0  0  0  0  0  0  0  0  0  0
  146.9222  140.1565  154.1696 O   0  0  0  0  0  0  0  0  0  0  0  0
  149.0865  139.4155  154.1179 N   0  0  0  0  0  0  0  0  0  0  0  0
  149.7487  140.3108  155.0033 C   0  0  0  0  0  0  0  0  0  0  0  0
  150.7704  139.7858  155.8223 C   0  0  0  0  0  0  0  0  0  0  0  0
  151.4539  140.6288  156.7226 C   0  0  0  0  0  0  0  0  0  0  0  0
  151.1074  141.9997  156.8059 C   0  0  0  0  0  0  0  0  0  0  0  0
  151.7445  142.9076  157.6793 N   0  0  0  0  0  0  0  0  0  0  0  0
  151.6361  144.3422  157.4389 C   0  0  0  0  0  0  0  0  0  0  0  0
  152.5268  142.4065  158.8019 C   0  0  0  0  0  0  0  0  0  0  0  0
  150.1123  142.4559  156.0070 N   0  3  0  0  0  0  0  0  0  0  0  0
  149.4320  141.6845  155.1317 C   0  0  0  0  0  0  0  0  0  0  0  0
  144.5718  136.1838  152.3240 N   0  0  0  0  0  0  0  0  0  0  0  0
  145.2708  135.5518  151.2007 C   0  0  0  0  0  0  0  0  0  0  0  0
  144.3571  134.6243  150.3811 C   0  0  0  0  0  0  0  0  0  0  0  0
  143.7959  133.6323  151.2306 O   0  0  0  0  0  0  0  0  0  0  0  0
  143.0491  134.1999  152.2986 C   0  0  0  0  0  0  0  0  0  0  0  0
  143.9542  135.1258  153.1292 C   0  0  0  0  0  0  0  0  0  0  0  0
  145.3813  138.5306  154.7449 H   0  0  0  0  0  0  0  0  0  0  0  0
  144.3595  137.1491  155.0309 H   0  0  0  0  0  0  0  0  0  0  0  0
  143.8671  138.3763  153.8638 H   0  0  0  0  0  0  0  0  0  0  0  0
  146.1988  136.4227  153.6138 H   0  0  0  0  0  0  0  0  0  0  0  0
  146.3810  137.7065  151.2767 H   0  0  0  0  0  0  0  0  0  0  0  0
  145.6983  139.0201  152.1660 H   0  0  0  0  0  0  0  0  0  0  0  0
  148.3222  137.8059  152.6134 H   0  0  0  0  0  0  0  0  0  0  0  0
  149.6823  138.7410  153.6603 H   0  0  0  0  0  0  0  0  0  0  0  0
  151.0361  138.7404  155.7610 H   0  0  0  0  0  0  0  0  0  0  0  0
  152.2362  140.2069  157.3357 H   0  0  0  0  0  0  0  0  0  0  0  0
  150.5945  144.6615  157.4889 H   0  0  0  0  0  0  0  0  0  0  0  0
  152.0307  144.5973  156.4548 H   0  0  0  0  0  0  0  0  0  0  0  0
  152.1952  144.9131  158.1805 H   0  0  0  0  0  0  0  0  0  0  0  0
  153.3609  141.7998  158.4474 H   0  0  0  0  0  0  0  0  0  0  0  0
  151.9066  141.7978  159.4604 H   0  0  0  0  0  0  0  0  0  0  0  0
  152.9374  143.2237  159.3951 H   0  0  0  0  0  0  0  0  0  0  0  0
  148.6615  142.2035  154.5827 H   0  0  0  0  0  0  0  0  0  0  0  0
  145.6629  136.3059  150.5205 H   0  0  0  0  0  0  0  0  0  0  0  0
  146.1259  134.9834  151.5698 H   0  0  0  0  0  0  0  0  0  0  0  0
  143.5617  135.1939  149.8979 H   0  0  0  0  0  0  0  0  0  0  0  0
  144.9258  134.1345  149.5905 H   0  0  0  0  0  0  0  0  0  0  0  0
  142.1928  134.7487  151.9031 H   0  0  0  0  0  0  0  0  0  0  0  0
  142.6544  133.3975  152.9221 H   0  0  0  0  0  0  0  0  0  0  0  0
  144.7293  134.5314  153.6156 H   0  0  0  0  0  0  0  0  0  0  0  0
  143.3427  135.5556  153.9213 H   0  0  0  0  0  0  0  0  0  0  0  0
  149.8587  143.4418  156.0711 H   0  0  0  0  0  0  0  0  0  0  0  0
  1  2  1  0  0  0  0
  1 23  1  0  0  0  0
  1 24  1  0  0  0  0
  1 25  1  0  0  0  0
  2  3  1  0  0  0  0
  2 17  1  0  0  0  0
  2 26  1  0  0  0  0
  3  4  1  0  0  0  0
  3 27  1  0  0  0  0
  3 28  1  0  0  0  0
  4  5  1  0  0  0  0
  4 29  1  0  0  0  0
  5  6  2  0  0  0  0
  5  7  1  0  0  0  0
  7  8  1  0  0  0  0
  7 30  1  0  0  0  0
  8 16  1  0  0  0  0
  8  9  2  0  0  0  0
  9 10  1  0  0  0  0
  9 31  1  0  0  0  0
 10 11  2  0  0  0  0
 10 32  1  0  0  0  0
 11 12  1  0  0  0  0
 11 15  1  0  0  0  0
 12 13  1  0  0  0  0
 12 14  1  0  0  0  0
 13 33  1  0  0  0  0
 13 34  1  0  0  0  0
 13 35  1  0  0  0  0
 14 36  1  0  0  0  0
 14 37  1  0  0  0  0
 14 38  1  0  0  0  0
 15 16  2  0  0  0  0
 15 48  1  0  0  0  0
 16 39  1  0  0  0  0
 17 22  1  0  0  0  0
 17 18  1  0  0  0  0
 18 19  1  0  0  0  0
 18 40  1  0  0  0  0
 18 41  1  0  0  0  0
 19 20  1  0  0  0  0
 19 42  1  0  0  0  0
 19 43  1  0  0  0  0
 20 21  1  0  0  0  0
 21 22  1  0  0  0  0
 21 44  1  0  0  0  0
 21 45  1  0  0  0  0
 22 46  1  0  0  0  0
 22 47  1  0  0  0  0
M  CHG  1  15   1
M  END
> <s_m_source_file>
AV-unprocessed.smi

> <i_m_source_file_index>
1239

> <i_lp_mmshare_version>
43012

> <i_f3d_flags>
0

> <s_epik_input>
W0NIMl0xW0NIMl1PW0NIMl1bQ0gyXU4xW0NASF0oW0NIM10pW0NIMl1bTkhdQyg9TylbTkhdYzJbY0hdW2NIXWMoTihbQ0gzXSlbQ0gzXSluW2NIXTI=

> <s_epik_cmdline>
J2VwaWtfcHl0aG9uJywgJy1waCcsICc3LjAnLCAnLXRuJywgJzgnLCAnLW1hJywgJzIwMCcsICctbWV0YWxfYmluZGluZycsICctaW1hZScsICc8aW5maWxlLm1hZT4nLCAnLW9tYWUnLCAnPG91dGZpbGUubWFlPic=

> <r_lp_tautomer_probability>
0.999994

> <r_epik_Ionization_Penalty>
0.528791

> <r_epik_Ionization_Penalty_Charging>
0.26278

> <r_epik_Ionization_Penalty_Neutral>
0.26601

> <r_epik_State_Penalty>
0.520375

> <r_epik_Charging_Adjusted_Penalty>
0.783156

> <i_epik_Tot_Q>
1

> <i_epik_Tot_abs_Q>
1

> <r_epik_Metal_State_Penalty>
0.806531

> <b_epik_Metal_Only>
0

> <s_lp_Force_Field>
OPLS_2005

> <r_lp_Energy>
44.5879

> <b_lp_Chiralities_Consistent>
1

> <s_lp_Variant>
AV-unprocessed.smi:1239-1

> <Gold.Version>
5.8.1

> <Gold.Id.Protein>
6NUR|6NUR_protein|mol2

> <Gold.PLP.Fitness>
45.6853

> <Gold.PLP.PLP>
-38.5786

> <Gold.PLP.part.hbond>
-3.9625

> <Gold.PLP.part.metal>
0.0000

> <Gold.PLP.part.buried>
-3.2395

> <Gold.PLP.part.nonpolar>
-33.1724

> <Gold.PLP.part.repulsive>
0.7456

> <Gold.PLP.ligand.clash>
0.0000

> <Gold.PLP.ligand.torsion>
0.9635

> <Gold.PLP.Chemscore.Hbond>
2.9920

> <Gold.PLP.Chemscore.CHOScore>
0.0000

> <Gold.PLP.Chemscore.Metal>
0.0000

> <Gold.Chemscore.Hbonds>
donor molecule, donor type, donor heavy atom, donor atom, acceptor molecule, acceptor atom, score
      L1  H     4    29       P1  7948  1.00
      L1  H    15    48       P1  8028  2.00

> <Gold.PLP.Chemscore.Internal.Correction>
0.0578

> <Gold.Rescore>
     Score         DG    S(hbond)    S(metal)    S(lipo)     H(rot)  DE(clash)    DE(int)     intcor
     17.01     -18.14       1.97        0.00      83.86       1.46       0.11       1.02       ----

> <Gold.Chemscore.Fitness>
17.0136

> <Gold.Chemscore.DG>
-18.1393

> <Gold.Chemscore.ZeroCoef>
-5.4800

> <Gold.Chemscore.Hbond>
1.9719

> <Gold.Chemscore.Metal>
0.0000

> <Gold.Chemscore.Lipo>
83.8593

> <Gold.Chemscore.Internal_Hbond>
0.0000

> <Gold.Chemscore.DEClash>
0.1067

> <Gold.Chemscore.DEInternal>
1.0190

> <Gold.Chemscore.Rot>
1.4604

> <Gold.Chemscore.Internal.Correction>
   9.000000E+99

> <Gold.Chemscore.Hbonds>
donor molecule, donor type, donor heavy atom, donor atom, acceptor molecule, acceptor atom, score
      L1  H     4    29       P1  7948  0.95
      L1  H    15    48       P1  8028  0.96

> <Gold.Chemscore.Hbond.Weighted>
-6.5863

> <Gold.Chemscore.Metal.Weighted>
-0.0000

> <Gold.Chemscore.Lipo.Weighted>
-9.8115

> <Gold.Chemscore.Internal_Hbond.Weighted>
0.0000

> <Gold.Chemscore.DEClash.Weighted>
0.1067

> <Gold.Chemscore.DEInternal.Weighted>
1.0190

> <Gold.Chemscore.Rot.Weighted>
3.7385

> <Gold.Chemscore.Internal.Correction.Weighted>
   9.000000E+99

> <Gold.Protein.RotatedTorsions>
[ 6907 6896 6895 6894 ] final   -4.81 input  -60.11 | X-H torsion
[ 7974 7965 7964 7962 ] final  138.73 input  175.53 | X-H torsion
[ 8008 7997 7996 7995 ] final   86.54 input   59.86 | X-H torsion
[ 10167 10162 10161 10158 ] final -144.21 input  -65.29 | X-H torsion
[ 10718 10713 10712 10709 ] final  133.62 input   66.30 | X-H torsion
[ 10763 10752 10751 10750 ] final  -39.37 input  -60.55 | X-H torsion
[ 11005 11000 10999 10996 ] final  139.86 input  -57.11 | X-H torsion

> <Gold.Protein.ActiveResidues>
 VAL166  LYS551  ARG553  GLY616  TRP617  ASP618  TYR619  PRO620  LYS621  CYS622 
 ASP623  PHE694  ASN695  SER759  ASP760  ASP761  ALA762  ILE779  LEU786  VAL792 
 PHE793  MET794  SER795  GLU796  ALA797  LYS798  CYS799  TRP800  GLU811  SER814 

> <Gold.Protein.RotatedAtoms>
  151.4916  135.1058  159.9804 H   0  0  0  0  0  0  0  0  0  0  0  0  # atno 6907 bound_to 6896
  152.4738  133.8087  159.7002 H   0  0  0  0  0  0  0  0  0  0  0  0  # atno 6908 bound_to 6896
  150.8764  133.7371  159.2971 H   0  0  0  0  0  0  0  0  0  0  0  0  # atno 6909 bound_to 6896
  144.9344  139.5007  143.5602 H   0  0  0  0  0  0  0  0  0  0  0  0  # atno 7974 bound_to 7965
  155.9641  140.3391  155.6517 H   0  0  0  0  0  0  0  0  0  0  0  0  # atno 8008 bound_to 7997
  155.6760  140.0732  157.2521 H   0  0  0  0  0  0  0  0  0  0  0  0  # atno 8009 bound_to 7997
  154.4150  140.1683  156.1918 H   0  0  0  0  0  0  0  0  0  0  0  0  # atno 8010 bound_to 7997
  139.7920  143.7952  152.2651 H   0  0  0  0  0  0  0  0  0  0  0  0  # atno 10167 bound_to 10162
  157.4755  131.1083  150.9749 H   0  0  0  0  0  0  0  0  0  0  0  0  # atno 10718 bound_to 10713
  153.9283  135.6774  153.4746 H   0  0  0  0  0  0  0  0  0  0  0  0  # atno 10763 bound_to 10752
  153.0992  135.4836  154.8833 H   0  0  0  0  0  0  0  0  0  0  0  0  # atno 10764 bound_to 10752
  154.7441  135.3168  154.8633 H   0  0  0  0  0  0  0  0  0  0  0  0  # atno 10765 bound_to 10752
  140.0285  134.9363  157.0616 H   0  0  0  0  0  0  0  0  0  0  0  0  # atno 11005 bound_to 11000
  146.3260  139.8318  142.8907 LP  0  0  0  0  0  0  0  0  0  0  0  0  # atno 17320 bound_to 7965
  145.3090  141.0214  143.3565 LP  0  0  0  0  0  0  0  0  0  0  0  0  # atno 17321 bound_to 7965
  139.8047  144.7360  150.9778 LP  0  0  0  0  0  0  0  0  0  0  0  0  # atno 17342 bound_to 10162
  140.7820  143.4310  151.0694 LP  0  0  0  0  0  0  0  0  0  0  0  0  # atno 17343 bound_to 10162
  157.0499  130.5783  149.5369 LP  0  0  0  0  0  0  0  0  0  0  0  0  # atno 17370 bound_to 10713
  156.0094  130.5185  150.7940 LP  0  0  0  0  0  0  0  0  0  0  0  0  # atno 17371 bound_to 10713
  140.4266  134.1825  155.7166 LP  0  0  0  0  0  0  0  0  0  0  0  0  # atno 17394 bound_to 11000
  141.1817  133.8400  157.1234 LP  0  0  0  0  0  0  0  0  0  0  0  0  # atno 17395 bound_to 11000

$$$$
