AV-unprocessed.smi:3171|AV-procd|sdf|12112|dock9
  -GOLD-   2272017553D 1   1.00000     0.00000
 Structure written by MMmdl.
 33 34  0  0  0  0  0  0  0  0  1 V2000
  152.1858  144.0830  161.5772 C   0  0  0  0  0  0  0  0  0  0  0  0
  151.9142  143.1768  160.3896 C   0  0  0  0  0  0  0  0  0  0  0  0
  150.8915  143.5663  159.5973 N   0  0  0  0  0  0  0  0  0  0  0  0
  150.5603  142.8517  158.5211 N   0  0  0  0  0  0  0  0  0  0  0  0
  151.2352  141.7217  158.1984 C   0  0  0  0  0  0  0  0  0  0  0  0
  150.8274  141.0228  157.0464 N   0  0  0  0  0  0  0  0  0  0  0  0
  150.1612  141.6988  155.9394 C   0  0  0  0  0  0  0  0  0  0  0  0
  149.6728  140.7154  154.8634 C   0  0  1  0  0  0  0  0  0  0  0  0
  148.6773  139.6850  155.3877 C   0  0  0  0  0  0  0  0  0  0  0  0
  147.9847  139.2597  154.1126 C   0  0  0  0  0  0  0  0  0  0  0  0
  147.9176  140.5683  153.3265 C   0  0  0  0  0  0  0  0  0  0  0  0
  148.9493  141.4037  153.8481 O   0  0  0  0  0  0  0  0  0  0  0  0
  152.3213  141.2560  158.9846 C   0  0  0  0  0  0  0  0  0  0  0  0
  153.0497  140.0393  158.6306 C   0  0  0  0  0  0  0  0  0  0  0  0
  153.6267  139.0761  158.3503 N   0  0  0  0  0  0  0  0  0  0  0  0
  152.6766  142.0121  160.1300 C   0  0  0  0  0  0  0  0  0  0  0  0
  153.8310  141.5873  161.0342 C   0  0  0  0  0  0  0  0  0  0  0  0
  153.2054  144.4670  161.5393 H   0  0  0  0  0  0  0  0  0  0  0  0
  152.0515  143.5375  162.5115 H   0  0  0  0  0  0  0  0  0  0  0  0
  151.5087  144.9381  161.5914 H   0  0  0  0  0  0  0  0  0  0  0  0
  150.7464  140.0173  157.0966 H   0  0  0  0  0  0  0  0  0  0  0  0
  149.3276  142.2907  156.3189 H   0  0  0  0  0  0  0  0  0  0  0  0
  150.8607  142.4102  155.4994 H   0  0  0  0  0  0  0  0  0  0  0  0
  150.5105  140.1929  154.3983 H   0  0  0  0  0  0  0  0  0  0  0  0
  149.1572  138.8573  155.9105 H   0  0  0  0  0  0  0  0  0  0  0  0
  147.9608  140.1515  156.0654 H   0  0  0  0  0  0  0  0  0  0  0  0
  148.6012  138.5340  153.5802 H   0  0  0  0  0  0  0  0  0  0  0  0
  147.0047  138.8136  154.2843 H   0  0  0  0  0  0  0  0  0  0  0  0
  148.0455  140.4066  152.2560 H   0  0  0  0  0  0  0  0  0  0  0  0
  146.9590  141.0643  153.4816 H   0  0  0  0  0  0  0  0  0  0  0  0
  153.6868  140.5626  161.3783 H   0  0  0  0  0  0  0  0  0  0  0  0
  153.9371  142.2098  161.9207 H   0  0  0  0  0  0  0  0  0  0  0  0
  154.7721  141.6334  160.4856 H   0  0  0  0  0  0  0  0  0  0  0  0
  1  2  1  0  0  0  0
  1 18  1  0  0  0  0
  1 19  1  0  0  0  0
  1 20  1  0  0  0  0
  2 16  1  0  0  0  0
  2  3  2  0  0  0  0
  3  4  1  0  0  0  0
  4  5  2  0  0  0  0
  5  6  1  0  0  0  0
  5 13  1  0  0  0  0
  6  7  1  0  0  0  0
  6 21  1  0  0  0  0
  7  8  1  0  0  0  0
  7 22  1  0  0  0  0
  7 23  1  0  0  0  0
  8 12  1  0  0  0  0
  8  9  1  0  0  0  0
  8 24  1  0  0  0  0
  9 10  1  0  0  0  0
  9 25  1  0  0  0  0
  9 26  1  0  0  0  0
 10 11  1  0  0  0  0
 10 27  1  0  0  0  0
 10 28  1  0  0  0  0
 11 12  1  0  0  0  0
 11 29  1  0  0  0  0
 11 30  1  0  0  0  0
 13 14  1  0  0  0  0
 13 16  2  0  0  0  0
 14 15  3  0  0  0  0
 16 17  1  0  0  0  0
 17 31  1  0  0  0  0
 17 32  1  0  0  0  0
 17 33  1  0  0  0  0
M  END
> <s_m_source_file>
AV-unprocessed.smi

> <i_m_source_file_index>
3171

> <i_lp_mmshare_version>
43012

> <i_f3d_flags>
0

> <s_epik_input>
W0NIM11jMW5uYyhjKEMjTiljMVtDSDNdKVtOSF1bQ0gyXVtDQEBIXTJbQ0gyXVtDSDJdW0NIMl1PMg==

> <s_epik_cmdline>
J2VwaWtfcHl0aG9uJywgJy1waCcsICc3LjAnLCAnLXRuJywgJzgnLCAnLW1hJywgJzIwMCcsICctbWV0YWxfYmluZGluZycsICctaW1hZScsICc8aW5maWxlLm1hZT4nLCAnLW9tYWUnLCAnPG91dGZpbGUubWFlPic=

> <r_lp_tautomer_probability>
1

> <r_epik_Ionization_Penalty>
0.00108228

> <r_epik_Ionization_Penalty_Charging>
0

> <r_epik_Ionization_Penalty_Neutral>
0.00108228

> <r_epik_State_Penalty>
-0

> <r_epik_Charging_Adjusted_Penalty>
0

> <i_epik_Tot_Q>
0

> <i_epik_Tot_abs_Q>
0

> <r_epik_Metal_State_Penalty>
-0

> <b_epik_Metal_Only>
0

> <s_lp_Force_Field>
OPLS_2005

> <r_lp_Energy>
28.3967

> <b_lp_Chiralities_Consistent>
1

> <s_lp_Variant>
AV-unprocessed.smi:3171-2

> <Gold.Version>
5.8.1

> <Gold.Id.Protein>
6NUR|6NUR_protein|mol2

> <Gold.PLP.Fitness>
35.8396

> <Gold.PLP.PLP>
-31.4905

> <Gold.PLP.part.hbond>
-2.5309

> <Gold.PLP.part.metal>
0.0000

> <Gold.PLP.part.buried>
-0.2168

> <Gold.PLP.part.nonpolar>
-28.5488

> <Gold.PLP.part.repulsive>
0.7771

> <Gold.PLP.ligand.clash>
0.0000

> <Gold.PLP.ligand.torsion>
0.1711

> <Gold.PLP.Chemscore.Hbond>
1.5616

> <Gold.PLP.Chemscore.CHOScore>
0.0000

> <Gold.PLP.Chemscore.Metal>
0.0000

> <Gold.Chemscore.Hbonds>
donor molecule, donor type, donor heavy atom, donor atom, acceptor molecule, acceptor atom, score
      P1  H  7997  8008       L1    15  0.73
      P1  H  8011  8017       L1    12  0.77

> <Gold.PLP.Chemscore.Internal.Correction>
0.0065

> <Gold.Rescore>
     Score         DG    S(hbond)    S(metal)    S(lipo)     H(rot)  DE(clash)    DE(int)     intcor
     13.82     -14.29       0.62        0.00      84.23       1.22       0.28       0.19       ----

> <Gold.Chemscore.Fitness>
13.8205

> <Gold.Chemscore.DG>
-14.2938

> <Gold.Chemscore.ZeroCoef>
-5.4800

> <Gold.Chemscore.Hbond>
0.6218

> <Gold.Chemscore.Metal>
0.0000

> <Gold.Chemscore.Lipo>
84.2316

> <Gold.Chemscore.Internal_Hbond>
0.0000

> <Gold.Chemscore.DEClash>
0.2803

> <Gold.Chemscore.DEInternal>
0.1931

> <Gold.Chemscore.Rot>
1.2181

> <Gold.Chemscore.Internal.Correction>
   9.000000E+99

> <Gold.Chemscore.Hbonds>
donor molecule, donor type, donor heavy atom, donor atom, acceptor molecule, acceptor atom, score
      P1  H  7997  8008       L1    15  0.09
      P1  H  8011  8017       L1    12  0.50

> <Gold.Chemscore.Hbond.Weighted>
-2.0770

> <Gold.Chemscore.Metal.Weighted>
-0.0000

> <Gold.Chemscore.Lipo.Weighted>
-9.8551

> <Gold.Chemscore.Internal_Hbond.Weighted>
0.0000

> <Gold.Chemscore.DEClash.Weighted>
0.2803

> <Gold.Chemscore.DEInternal.Weighted>
0.1931

> <Gold.Chemscore.Rot.Weighted>
3.1182

> <Gold.Chemscore.Internal.Correction.Weighted>
   9.000000E+99

> <Gold.Protein.RotatedTorsions>
[ 6907 6896 6895 6894 ] final -127.75 input  -60.11 | X-H torsion
[ 7974 7965 7964 7962 ] final  -95.20 input  175.53 | X-H torsion
[ 8008 7997 7996 7995 ] final -116.69 input   59.86 | X-H torsion
[ 10167 10162 10161 10158 ] final  -21.76 input  -65.29 | X-H torsion
[ 10718 10713 10712 10709 ] final  -36.04 input   66.30 | X-H torsion
[ 10763 10752 10751 10750 ] final  -27.67 input  -60.55 | X-H torsion
[ 11005 11000 10999 10996 ] final  146.87 input  -57.11 | X-H torsion

> <Gold.Protein.ActiveResidues>
 VAL166  LYS551  ARG553  GLY616  TRP617  ASP618  TYR619  PRO620  LYS621  CYS622 
 ASP623  PHE694  ASN695  SER759  ASP760  ASP761  ALA762  ILE779  LEU786  VAL792 
 PHE793  MET794  SER795  GLU796  ALA797  LYS798  CYS799  TRP800  GLU811  SER814 

> <Gold.Protein.RotatedAtoms>
  150.9106  133.7002  159.2855 H   0  0  0  0  0  0  0  0  0  0  0  0  # atno 6907 bound_to 6896
  151.4490  135.1026  159.9702 H   0  0  0  0  0  0  0  0  0  0  0  0  # atno 6908 bound_to 6896
  152.4928  133.8497  159.7250 H   0  0  0  0  0  0  0  0  0  0  0  0  # atno 6909 bound_to 6896
  145.3632  140.9495  143.2489 H   0  0  0  0  0  0  0  0  0  0  0  0  # atno 7974 bound_to 7965
  155.0718  140.0393  157.2611 H   0  0  0  0  0  0  0  0  0  0  0  0  # atno 8008 bound_to 7997
  154.6976  140.2666  155.6726 H   0  0  0  0  0  0  0  0  0  0  0  0  # atno 8009 bound_to 7997
  156.2750  140.2747  156.1576 H   0  0  0  0  0  0  0  0  0  0  0  0  # atno 8010 bound_to 7997
  140.7283  143.4598  151.0396 H   0  0  0  0  0  0  0  0  0  0  0  0  # atno 10167 bound_to 10162
  156.3316  130.4280  149.7868 H   0  0  0  0  0  0  0  0  0  0  0  0  # atno 10718 bound_to 10713
  153.7360  135.6935  153.4978 H   0  0  0  0  0  0  0  0  0  0  0  0  # atno 10763 bound_to 10752
  153.2103  135.4405  155.0370 H   0  0  0  0  0  0  0  0  0  0  0  0  # atno 10764 bound_to 10752
  154.8237  135.3435  154.6887 H   0  0  0  0  0  0  0  0  0  0  0  0  # atno 10765 bound_to 10752
  140.0828  134.9087  157.1528 H   0  0  0  0  0  0  0  0  0  0  0  0  # atno 11005 bound_to 11000
  144.8631  139.5148  143.6803 LP  0  0  0  0  0  0  0  0  0  0  0  0  # atno 17320 bound_to 7965
  146.2918  139.7161  142.9155 LP  0  0  0  0  0  0  0  0  0  0  0  0  # atno 17321 bound_to 7965
  139.8281  143.7728  152.3179 LP  0  0  0  0  0  0  0  0  0  0  0  0  # atno 17342 bound_to 10162
  139.7834  144.7436  151.0056 LP  0  0  0  0  0  0  0  0  0  0  0  0  # atno 17343 bound_to 10162
  156.5138  130.8184  151.3178 LP  0  0  0  0  0  0  0  0  0  0  0  0  # atno 17370 bound_to 10713
  157.7431  130.9905  150.2568 LP  0  0  0  0  0  0  0  0  0  0  0  0  # atno 17371 bound_to 10713
  140.3463  134.2648  155.7205 LP  0  0  0  0  0  0  0  0  0  0  0  0  # atno 17394 bound_to 11000
  141.2052  133.7865  157.0243 LP  0  0  0  0  0  0  0  0  0  0  0  0  # atno 17395 bound_to 11000

$$$$
