AV-unprocessed.smi:2368|AV-procd|sdf|9426|dock3
  -GOLD-   2272013 63D 1   1.00000     0.00000
 Structure written by MMmdl.
 35 36  0  0  0  0  0  0  0  0  1 V2000
  151.7687  140.2500  155.9530 C   0  0  0  0  0  0  0  0  0  0  0  0
  150.3948  140.2402  155.3090 C   0  0  0  0  0  0  0  0  0  0  0  0
  149.7231  141.4116  155.3476 N   0  0  0  0  0  0  0  0  0  0  0  0
  148.4937  141.4564  154.7948 C   0  0  0  0  0  0  0  0  0  0  0  0
  147.8806  140.3493  154.1779 C   0  0  0  0  0  0  0  0  0  0  0  0
  148.5883  139.1246  154.1207 C   0  0  0  0  0  0  0  0  0  0  0  0
  148.0563  137.9402  153.5382 N   0  0  0  0  0  0  0  0  0  0  0  0
  146.8036  137.4581  153.6101 C   0  0  0  0  0  0  0  0  0  0  0  0
  145.8720  137.9793  154.2230 O   0  0  0  0  0  0  0  0  0  0  0  0
  146.6799  136.3259  152.9031 N   0  0  0  0  0  0  0  0  0  0  0  0
  145.4440  135.5653  152.7569 C   0  0  1  0  0  0  0  0  0  0  0  0
  144.5340  136.2231  151.7546 C   0  0  0  0  0  0  0  0  0  0  0  0
  144.2069  135.4159  150.7476 C   0  0  0  0  0  0  0  0  0  0  0  0
  144.8492  134.0576  150.8614 C   0  0  2  0  0  0  0  0  0  0  0  0
  143.8330  132.9003  150.8211 C   0  0  0  0  0  0  0  0  0  0  0  0
  143.2054  132.7976  149.5582 O   0  0  0  0  0  0  0  0  0  0  0  0
  145.6733  134.1458  152.1724 C   0  0  0  0  0  0  0  0  0  0  0  0
  149.8718  139.0683  154.7135 C   0  0  0  0  0  0  0  0  0  0  0  0
  150.7885  137.5984  154.7035 Cl  0  0  0  0  0  0  0  0  0  0  0  0
  144.9189  135.5106  153.7123 H   0  0  0  0  0  0  0  0  0  0  0  0
  145.5324  133.9506  150.0180 H   0  0  0  0  0  0  0  0  0  0  0  0
  151.8170  139.5133  156.7549 H   0  0  0  0  0  0  0  0  0  0  0  0
  152.0062  141.2260  156.3784 H   0  0  0  0  0  0  0  0  0  0  0  0
  152.5340  140.0082  155.2152 H   0  0  0  0  0  0  0  0  0  0  0  0
  147.9788  142.4040  154.8511 H   0  0  0  0  0  0  0  0  0  0  0  0
  146.8852  140.4578  153.7760 H   0  0  0  0  0  0  0  0  0  0  0  0
  148.6870  137.4427  152.9269 H   0  0  0  0  0  0  0  0  0  0  0  0
  147.4946  135.9674  152.4268 H   0  0  0  0  0  0  0  0  0  0  0  0
  144.1868  137.2389  151.8731 H   0  0  0  0  0  0  0  0  0  0  0  0
  143.5623  135.6804  149.9223 H   0  0  0  0  0  0  0  0  0  0  0  0
  144.3304  131.9550  151.0400 H   0  0  0  0  0  0  0  0  0  0  0  0
  143.0684  133.0421  151.5851 H   0  0  0  0  0  0  0  0  0  0  0  0
  142.4088  133.3057  149.5754 H   0  0  0  0  0  0  0  0  0  0  0  0
  146.7280  133.9606  151.9632 H   0  0  0  0  0  0  0  0  0  0  0  0
  145.3654  133.3885  152.8943 H   0  0  0  0  0  0  0  0  0  0  0  0
  1  2  1  0  0  0  0
  1 22  1  0  0  0  0
  1 23  1  0  0  0  0
  1 24  1  0  0  0  0
  2 18  1  0  0  0  0
  2  3  2  0  0  0  0
  3  4  1  0  0  0  0
  4  5  2  0  0  0  0
  4 25  1  0  0  0  0
  5  6  1  0  0  0  0
  5 26  1  0  0  0  0
  6  7  1  0  0  0  0
  6 18  2  0  0  0  0
  7  8  1  0  0  0  0
  7 27  1  0  0  0  0
  8  9  2  0  0  0  0
  8 10  1  0  0  0  0
 10 11  1  0  0  0  0
 10 28  1  0  0  0  0
 11 20  1  0  0  0  0
 11 17  1  0  0  0  0
 11 12  1  0  0  0  0
 12 13  2  0  0  0  0
 12 29  1  0  0  0  0
 13 14  1  0  0  0  0
 13 30  1  0  0  0  0
 14 21  1  0  0  0  0
 14 15  1  0  0  0  0
 14 17  1  0  0  0  0
 15 16  1  0  0  0  0
 15 31  1  0  0  0  0
 15 32  1  0  0  0  0
 16 33  1  0  0  0  0
 17 34  1  0  0  0  0
 17 35  1  0  0  0  0
 18 19  1  0  0  0  0
M  END
> <s_m_source_file>
AV-unprocessed.smi

> <i_m_source_file_index>
2368

> <i_lp_mmshare_version>
43012

> <i_f3d_flags>
0

> <s_epik_input>
W0NIM11jMW5bY0hdW2NIXWMoYzFDbClbTkhdQyg9TylbTkhdW0NAQEhdMltDSF09W0NIXVtDQEBIXShbQ0gyXTIpW0NIMl1bT0hd

> <s_epik_cmdline>
J2VwaWtfcHl0aG9uJywgJy1waCcsICc3LjAnLCAnLXRuJywgJzgnLCAnLW1hJywgJzIwMCcsICctbWV0YWxfYmluZGluZycsICctaW1hZScsICc8aW5maWxlLm1hZT4nLCAnLW9tYWUnLCAnPG91dGZpbGUubWFlPic=

> <r_epik_Ionization_Penalty>
0.00964582

> <r_epik_Ionization_Penalty_Charging>
0

> <r_epik_Ionization_Penalty_Neutral>
0.00964582

> <r_epik_State_Penalty>
0.00730775

> <r_epik_Charging_Adjusted_Penalty>
0.00730775

> <i_epik_Tot_Q>
0

> <i_epik_Tot_abs_Q>
0

> <r_epik_Metal_State_Penalty>
0.00719079

> <b_epik_Metal_Only>
0

> <s_lp_Force_Field>
OPLS_2005

> <r_lp_Energy>
23.9809

> <b_lp_Chiralities_Consistent>
1

> <s_lp_Variant>
AV-unprocessed.smi:2368-2

> <Gold.Version>
5.8.1

> <Gold.Id.Protein>
6NUR|6NUR_protein|mol2

> <Gold.PLP.Fitness>
43.3709

> <Gold.PLP.PLP>
-32.8681

> <Gold.PLP.part.hbond>
-2.8290

> <Gold.PLP.part.metal>
0.0000

> <Gold.PLP.part.buried>
-3.4948

> <Gold.PLP.part.nonpolar>
-26.7213

> <Gold.PLP.part.repulsive>
0.2595

> <Gold.PLP.ligand.clash>
0.0000

> <Gold.PLP.ligand.torsion>
0.5383

> <Gold.PLP.Chemscore.Hbond>
2.9920

> <Gold.PLP.Chemscore.CHOScore>
0.8633

> <Gold.PLP.Chemscore.Metal>
0.0000

> <Gold.Chemscore.Hbonds>
donor molecule, donor type, donor heavy atom, donor atom, acceptor molecule, acceptor atom, score
      L1  H     7    27       P1  7948  1.00
      L1  H    10    28       P1  7948  0.99
      L1  H    16    33       P1 10186  1.00
      L1  C     4    25       P1  8028  0.85

> <Gold.PLP.Chemscore.Internal.Correction>
0.0134

> <Gold.Rescore>
     Score         DG    S(hbond)    S(metal)    S(lipo)     H(rot)  DE(clash)    DE(int)     intcor
     18.57     -19.71       2.93        0.00      76.99       1.78       0.08       1.06       ----

> <Gold.Chemscore.Fitness>
18.5688

> <Gold.Chemscore.DG>
-19.7063

> <Gold.Chemscore.ZeroCoef>
-5.4800

> <Gold.Chemscore.Hbond>
2.9265

> <Gold.Chemscore.Metal>
0.0000

> <Gold.Chemscore.Lipo>
76.9879

> <Gold.Chemscore.Internal_Hbond>
0.0000

> <Gold.Chemscore.DEClash>
0.0789

> <Gold.Chemscore.DEInternal>
1.0587

> <Gold.Chemscore.Rot>
1.7796

> <Gold.Chemscore.Internal.Correction>
   9.000000E+99

> <Gold.Chemscore.Hbonds>
donor molecule, donor type, donor heavy atom, donor atom, acceptor molecule, acceptor atom, score
      L1  H     7    27       P1  7948  0.95
      L1  H    10    28       P1  7948  0.91
      L1  H    16    33       P1 10186  1.00

> <Gold.Chemscore.Hbond.Weighted>
-9.7746

> <Gold.Chemscore.Metal.Weighted>
-0.0000

> <Gold.Chemscore.Lipo.Weighted>
-9.0076

> <Gold.Chemscore.Internal_Hbond.Weighted>
0.0000

> <Gold.Chemscore.DEClash.Weighted>
0.0789

> <Gold.Chemscore.DEInternal.Weighted>
1.0587

> <Gold.Chemscore.Rot.Weighted>
4.5558

> <Gold.Chemscore.Internal.Correction.Weighted>
   9.000000E+99

> <Gold.Protein.RotatedTorsions>
[ 6907 6896 6895 6894 ] final    0.09 input  -60.11 | X-H torsion
[ 7974 7965 7964 7962 ] final   -9.36 input  175.53 | X-H torsion
[ 8008 7997 7996 7995 ] final   85.53 input   59.86 | X-H torsion
[ 10167 10162 10161 10158 ] final  -44.10 input  -65.29 | X-H torsion
[ 10718 10713 10712 10709 ] final -105.48 input   66.30 | X-H torsion
[ 10763 10752 10751 10750 ] final  174.23 input  -60.55 | X-H torsion
[ 11005 11000 10999 10996 ] final  167.30 input  -57.11 | X-H torsion

> <Gold.Protein.ActiveResidues>
 VAL166  LYS551  ARG553  GLY616  TRP617  ASP618  TYR619  PRO620  LYS621  CYS622 
 ASP623  PHE694  ASN695  SER759  ASP760  ASP761  ALA762  ILE779  LEU786  VAL792 
 PHE793  MET794  SER795  GLU796  ALA797  LYS798  CYS799  TRP800  GLU811  SER814 

> <Gold.Protein.RotatedAtoms>
  151.5708  135.1062  159.9994 H   0  0  0  0  0  0  0  0  0  0  0  0  # atno 6907 bound_to 6896
  152.4401  133.7429  159.6661 H   0  0  0  0  0  0  0  0  0  0  0  0  # atno 6908 bound_to 6896
  150.8306  133.8029  159.3124 H   0  0  0  0  0  0  0  0  0  0  0  0  # atno 6909 bound_to 6896
  146.2254  140.2605  142.8351 H   0  0  0  0  0  0  0  0  0  0  0  0  # atno 7974 bound_to 7965
  155.9512  140.3401  155.6409 H   0  0  0  0  0  0  0  0  0  0  0  0  # atno 8008 bound_to 7997
  155.6917  140.0750  157.2463 H   0  0  0  0  0  0  0  0  0  0  0  0  # atno 8009 bound_to 7997
  154.4122  140.1656  156.2081 H   0  0  0  0  0  0  0  0  0  0  0  0  # atno 8010 bound_to 7997
  140.6909  143.2948  151.3446 H   0  0  0  0  0  0  0  0  0  0  0  0  # atno 10167 bound_to 10162
  156.0348  130.5566  150.7545 H   0  0  0  0  0  0  0  0  0  0  0  0  # atno 10718 bound_to 10713
  154.4510  135.2765  155.1781 H   0  0  0  0  0  0  0  0  0  0  0  0  # atno 10763 bound_to 10752
  154.3608  135.6130  153.5693 H   0  0  0  0  0  0  0  0  0  0  0  0  # atno 10764 bound_to 10752
  152.9847  135.5834  154.4855 H   0  0  0  0  0  0  0  0  0  0  0  0  # atno 10765 bound_to 10752
  140.2753  134.7793  157.3711 H   0  0  0  0  0  0  0  0  0  0  0  0  # atno 11005 bound_to 11000
  144.9343  140.8009  143.5670 LP  0  0  0  0  0  0  0  0  0  0  0  0  # atno 17320 bound_to 7965
  145.2551  139.2015  143.4922 LP  0  0  0  0  0  0  0  0  0  0  0  0  # atno 17321 bound_to 7965
  139.6312  144.0717  152.2478 LP  0  0  0  0  0  0  0  0  0  0  0  0  # atno 17342 bound_to 10162
  140.0192  144.6165  150.7581 LP  0  0  0  0  0  0  0  0  0  0  0  0  # atno 17343 bound_to 10162
  157.5080  131.0923  151.0233 LP  0  0  0  0  0  0  0  0  0  0  0  0  # atno 17370 bound_to 10713
  157.0596  130.5820  149.5383 LP  0  0  0  0  0  0  0  0  0  0  0  0  # atno 17371 bound_to 10713
  140.1334  134.5066  155.8088 LP  0  0  0  0  0  0  0  0  0  0  0  0  # atno 17394 bound_to 11000
  141.2171  133.6798  156.7080 LP  0  0  0  0  0  0  0  0  0  0  0  0  # atno 17395 bound_to 11000

$$$$
