AV-unprocessed.smi:701|AV-procd|sdf|3415|dock5
  -GOLD-   22720 0403D 1   1.00000     0.00000
 Structure written by MMmdl.
 48 50  0  0  0  0  0  0  0  0  2 V2000
  144.2373  132.3560  150.4046 C   0  0  0  0  0  0  0  0  0  0  0  0
  143.9974  133.2979  151.5862 C   0  0  0  0  0  0  0  0  0  0  0  0
  145.0440  133.1239  152.5262 O   0  0  0  0  0  0  0  0  0  0  0  0
  145.7580  134.3202  152.7904 C   0  0  1  0  0  0  0  0  0  0  0  0
  144.9438  135.3941  153.5171 C   0  0  0  0  0  0  0  0  0  0  0  0
  146.2004  135.6792  154.3470 C   0  0  2  0  0  0  0  0  0  0  0  0
  147.0118  136.7361  153.7430 N   0  0  0  0  0  0  0  0  0  0  0  0
  147.0086  138.0189  154.1291 C   0  0  0  0  0  0  0  0  0  0  0  0
  146.2885  138.4534  155.0285 O   0  0  0  0  0  0  0  0  0  0  0  0
  147.9421  138.9598  153.3584 C   0  0  0  0  0  0  0  0  0  0  0  0
  149.2205  139.1668  154.0554 N   0  0  0  0  0  0  0  0  0  0  0  0
  149.9409  138.0287  154.4587 C   0  0  0  0  0  0  0  0  0  0  0  0
  151.1222  138.1258  155.0977 C   0  0  0  0  0  0  0  0  0  0  0  0
  151.6526  139.4560  155.3698 C   0  0  0  0  0  0  0  0  0  0  0  0
  152.7274  139.5637  155.9569 O   0  0  0  0  0  0  0  0  0  0  0  0
  150.9188  140.5296  154.9535 N   0  5  0  0  0  0  0  0  0  0  0  0
  149.7197  140.4157  154.3025 C   0  0  0  0  0  0  0  0  0  0  0  0
  149.0743  141.3977  153.9330 O   0  0  0  0  0  0  0  0  0  0  0  0
  146.7052  134.2446  154.0178 C   0  0  0  0  0  0  0  0  0  0  0  0
  146.3474  133.2119  155.1132 C   0  0  0  0  0  0  0  0  0  0  0  0
  146.7430  131.7622  154.7741 C   0  0  0  0  0  0  0  0  0  0  0  0
  148.2262  131.6527  154.4068 C   0  0  0  0  0  0  0  0  0  0  0  0
  148.5900  132.6502  153.3028 C   0  0  0  0  0  0  0  0  0  0  0  0
  148.2077  134.0826  153.7058 C   0  0  0  0  0  0  0  0  0  0  0  0
  143.4517  132.4607  149.6562 H   0  0  0  0  0  0  0  0  0  0  0  0
  144.2531  131.3157  150.7302 H   0  0  0  0  0  0  0  0  0  0  0  0
  145.1908  132.5713  149.9215 H   0  0  0  0  0  0  0  0  0  0  0  0
  143.9724  134.3312  151.2374 H   0  0  0  0  0  0  0  0  0  0  0  0
  143.0330  133.0800  152.0467 H   0  0  0  0  0  0  0  0  0  0  0  0
  146.2671  134.7114  151.9068 H   0  0  0  0  0  0  0  0  0  0  0  0
  144.6022  136.2140  152.8839 H   0  0  0  0  0  0  0  0  0  0  0  0
  144.1276  134.9835  154.1130 H   0  0  0  0  0  0  0  0  0  0  0  0
  145.9933  135.8321  155.4077 H   0  0  0  0  0  0  0  0  0  0  0  0
  147.6359  136.4670  152.9964 H   0  0  0  0  0  0  0  0  0  0  0  0
  148.1186  138.5786  152.3505 H   0  0  0  0  0  0  0  0  0  0  0  0
  147.4251  139.9097  153.2175 H   0  0  0  0  0  0  0  0  0  0  0  0
  149.4818  137.0825  154.2129 H   0  0  0  0  0  0  0  0  0  0  0  0
  151.6648  137.2418  155.3982 H   0  0  0  0  0  0  0  0  0  0  0  0
  146.8366  133.4926  156.0470 H   0  0  0  0  0  0  0  0  0  0  0  0
  145.2793  133.2370  155.3308 H   0  0  0  0  0  0  0  0  0  0  0  0
  146.5254  131.1133  155.6228 H   0  0  0  0  0  0  0  0  0  0  0  0
  146.1376  131.3889  153.9489 H   0  0  0  0  0  0  0  0  0  0  0  0
  148.8357  131.8492  155.2897 H   0  0  0  0  0  0  0  0  0  0  0  0
  148.4597  130.6365  154.0880 H   0  0  0  0  0  0  0  0  0  0  0  0
  149.6584  132.5962  153.0929 H   0  0  0  0  0  0  0  0  0  0  0  0
  148.0778  132.3801  152.3783 H   0  0  0  0  0  0  0  0  0  0  0  0
  148.5090  134.7476  152.8962 H   0  0  0  0  0  0  0  0  0  0  0  0
  148.8015  134.3839  154.5700 H   0  0  0  0  0  0  0  0  0  0  0  0
  1  2  1  0  0  0  0
  1 25  1  0  0  0  0
  1 26  1  0  0  0  0
  1 27  1  0  0  0  0
  2  3  1  0  0  0  0
  2 28  1  0  0  0  0
  2 29  1  0  0  0  0
  3  4  1  0  0  0  0
  4 19  1  0  0  0  0
  4  5  1  0  0  0  0
  4 30  1  0  0  0  0
  5  6  1  0  0  0  0
  5 31  1  0  0  0  0
  5 32  1  0  0  0  0
  6  7  1  0  0  0  0
  6 19  1  0  0  0  0
  6 33  1  0  0  0  0
  7  8  1  0  0  0  0
  7 34  1  0  0  0  0
  8  9  2  0  0  0  0
  8 10  1  0  0  0  0
 10 11  1  0  0  0  0
 10 35  1  0  0  0  0
 10 36  1  0  0  0  0
 11 17  1  0  0  0  0
 11 12  1  0  0  0  0
 12 13  2  0  0  0  0
 12 37  1  0  0  0  0
 13 14  1  0  0  0  0
 13 38  1  0  0  0  0
 14 15  2  0  0  0  0
 14 16  1  0  0  0  0
 16 17  1  0  0  0  0
 17 18  2  0  0  0  0
 19 24  1  0  0  0  0
 19 20  1  0  0  0  0
 20 21  1  0  0  0  0
 20 39  1  0  0  0  0
 20 40  1  0  0  0  0
 21 22  1  0  0  0  0
 21 41  1  0  0  0  0
 21 42  1  0  0  0  0
 22 23  1  0  0  0  0
 22 43  1  0  0  0  0
 22 44  1  0  0  0  0
 23 24  1  0  0  0  0
 23 45  1  0  0  0  0
 23 46  1  0  0  0  0
 24 47  1  0  0  0  0
 24 48  1  0  0  0  0
M  CHG  1  16  -1
M  END
> <s_m_source_file>
AV-unprocessed.smi

> <i_m_source_file_index>
701

> <i_lp_mmshare_version>
43012

> <i_f3d_flags>
0

> <s_epik_input>
W0NIMl0xW0NIMl1bQ0gyXVtDSDJdW0NIMl1DMTJbQ0BIXShPW0NIMl1bQ0gzXSlbQ0gyXVtDQEhdMltOSF1DKD1PKVtDSDJdbjNbY0hdW2NIXWMoPU8pW25IXWMzPU8=

> <s_epik_cmdline>
J2VwaWtfcHl0aG9uJywgJy1waCcsICc3LjAnLCAnLXRuJywgJzgnLCAnLW1hJywgJzIwMCcsICctbWV0YWxfYmluZGluZycsICctaW1hZScsICc8aW5maWxlLm1hZT4nLCAnLW9tYWUnLCAnPG91dGZpbGUubWFlPic=

> <r_lp_tautomer_probability>
0.999537

> <r_epik_Ionization_Penalty>
3.12423

> <r_epik_Ionization_Penalty_Charging>
2.92877e-08

> <r_epik_Ionization_Penalty_Neutral>
3.12423

> <r_epik_State_Penalty>
3.12332

> <r_epik_Charging_Adjusted_Penalty>
3.12332

> <i_epik_Tot_Q>
-1

> <i_epik_Tot_abs_Q>
1

> <r_epik_Metal_State_Penalty>
0.463873

> <b_epik_Metal_Only>
1

> <s_lp_Force_Field>
OPLS_2005

> <r_lp_Energy>
37.69

> <b_lp_Chiralities_Consistent>
1

> <s_lp_Variant>
AV-unprocessed.smi:701-8

> <Gold.Version>
5.8.1

> <Gold.Id.Protein>
6NUR|6NUR_protein|mol2

> <Gold.PLP.Fitness>
42.1920

> <Gold.PLP.PLP>
-32.1382

> <Gold.PLP.part.hbond>
-4.1902

> <Gold.PLP.part.metal>
0.0000

> <Gold.PLP.part.buried>
1.0931

> <Gold.PLP.part.nonpolar>
-27.8343

> <Gold.PLP.part.repulsive>
0.3867

> <Gold.PLP.ligand.clash>
0.0000

> <Gold.PLP.ligand.torsion>
1.0927

> <Gold.PLP.Chemscore.Hbond>
3.0664

> <Gold.PLP.Chemscore.CHOScore>
0.9021

> <Gold.PLP.Chemscore.Metal>
0.0000

> <Gold.Chemscore.Hbonds>
donor molecule, donor type, donor heavy atom, donor atom, acceptor molecule, acceptor atom, score
      L1  H     7    34       P1  7948  1.00
      P1  H  7989  7998       L1    16  0.45
      P1  H  7997  8008       L1    15  1.00
      P1  H  8011  8017       L1    18  0.75
      L1  C    12    37       P1  7948  0.91

> <Gold.PLP.Chemscore.Internal.Correction>
0.3335

> <Gold.Rescore>
     Score         DG    S(hbond)    S(metal)    S(lipo)     H(rot)  DE(clash)    DE(int)     intcor
     14.11     -16.82       2.74        0.00      63.21       2.04       1.55       1.16       ----

> <Gold.Chemscore.Fitness>
14.1116

> <Gold.Chemscore.DG>
-16.8212

> <Gold.Chemscore.ZeroCoef>
-5.4800

> <Gold.Chemscore.Hbond>
2.7448

> <Gold.Chemscore.Metal>
0.0000

> <Gold.Chemscore.Lipo>
63.2122

> <Gold.Chemscore.Internal_Hbond>
0.0000

> <Gold.Chemscore.DEClash>
1.5472

> <Gold.Chemscore.DEInternal>
1.1624

> <Gold.Chemscore.Rot>
2.0399

> <Gold.Chemscore.Internal.Correction>
   9.000000E+99

> <Gold.Chemscore.Hbonds>
donor molecule, donor type, donor heavy atom, donor atom, acceptor molecule, acceptor atom, score
      L1  H     7    34       P1  7948  1.00
      P1  H  7989  7998       L1    16  0.01
      P1  H  7997  8008       L1    15  0.99
      P1  H  8011  8017       L1    18  0.67

> <Gold.Chemscore.Hbond.Weighted>
-9.1675

> <Gold.Chemscore.Metal.Weighted>
-0.0000

> <Gold.Chemscore.Lipo.Weighted>
-7.3958

> <Gold.Chemscore.Internal_Hbond.Weighted>
0.0000

> <Gold.Chemscore.DEClash.Weighted>
1.5472

> <Gold.Chemscore.DEInternal.Weighted>
1.1624

> <Gold.Chemscore.Rot.Weighted>
5.2222

> <Gold.Chemscore.Internal.Correction.Weighted>
   9.000000E+99

> <Gold.Protein.RotatedTorsions>
[ 6907 6896 6895 6894 ] final -100.98 input  -60.11 | X-H torsion
[ 7974 7965 7964 7962 ] final   54.08 input  175.53 | X-H torsion
[ 8008 7997 7996 7995 ] final  -52.40 input   59.86 | X-H torsion
[ 10167 10162 10161 10158 ] final   24.51 input  -65.29 | X-H torsion
[ 10718 10713 10712 10709 ] final -175.96 input   66.30 | X-H torsion
[ 10763 10752 10751 10750 ] final  -36.27 input  -60.55 | X-H torsion
[ 11005 11000 10999 10996 ] final  167.57 input  -57.11 | X-H torsion

> <Gold.Protein.ActiveResidues>
 VAL166  LYS551  ARG553  GLY616  TRP617  ASP618  TYR619  PRO620  LYS621  CYS622 
 ASP623  PHE694  ASN695  SER759  ASP760  ASP761  ALA762  ILE779  LEU786  VAL792 
 PHE793  MET794  SER795  GLU796  ALA797  LYS798  CYS799  TRP800  GLU811  SER814 

> <Gold.Protein.RotatedAtoms>
  150.7137  134.0804  159.3895 H   0  0  0  0  0  0  0  0  0  0  0  0  # atno 6907 bound_to 6896
  151.8788  135.0459  160.0496 H   0  0  0  0  0  0  0  0  0  0  0  0  # atno 6908 bound_to 6896
  152.2584  133.5240  159.5404 H   0  0  0  0  0  0  0  0  0  0  0  0  # atno 6909 bound_to 6896
  145.9645  139.4090  143.0227 H   0  0  0  0  0  0  0  0  0  0  0  0  # atno 7974 bound_to 7965
  154.4106  140.1225  156.4985 H   0  0  0  0  0  0  0  0  0  0  0  0  # atno 8008 bound_to 7997
  155.6919  140.3495  155.4877 H   0  0  0  0  0  0  0  0  0  0  0  0  # atno 8009 bound_to 7997
  155.9461  140.1096  157.1005 H   0  0  0  0  0  0  0  0  0  0  0  0  # atno 8010 bound_to 7997
  140.5182  144.0046  150.6404 H   0  0  0  0  0  0  0  0  0  0  0  0  # atno 10167 bound_to 10162
  156.8077  130.9575  151.3117 H   0  0  0  0  0  0  0  0  0  0  0  0  # atno 10718 bound_to 10713
  153.8770  135.6825  153.4770 H   0  0  0  0  0  0  0  0  0  0  0  0  # atno 10763 bound_to 10752
  153.1255  135.4721  154.9263 H   0  0  0  0  0  0  0  0  0  0  0  0  # atno 10764 bound_to 10752
  154.7687  135.3232  154.8185 H   0  0  0  0  0  0  0  0  0  0  0  0  # atno 10765 bound_to 10752
  140.2782  134.7772  157.3735 H   0  0  0  0  0  0  0  0  0  0  0  0  # atno 11005 bound_to 11000
  145.7993  140.9778  143.1007 LP  0  0  0  0  0  0  0  0  0  0  0  0  # atno 17320 bound_to 7965
  144.6822  139.9781  143.7483 LP  0  0  0  0  0  0  0  0  0  0  0  0  # atno 17321 bound_to 7965
  140.3388  143.3032  152.0610 LP  0  0  0  0  0  0  0  0  0  0  0  0  # atno 17342 bound_to 10162
  139.4915  144.6457  151.6783 LP  0  0  0  0  0  0  0  0  0  0  0  0  # atno 17343 bound_to 10162
  157.6522  130.8894  149.9656 LP  0  0  0  0  0  0  0  0  0  0  0  0  # atno 17370 bound_to 10713
  156.1063  130.3652  150.0127 LP  0  0  0  0  0  0  0  0  0  0  0  0  # atno 17371 bound_to 10713
  140.1309  134.5097  155.8107 LP  0  0  0  0  0  0  0  0  0  0  0  0  # atno 17394 bound_to 11000
  141.2167  133.6789  156.7037 LP  0  0  0  0  0  0  0  0  0  0  0  0  # atno 17395 bound_to 11000

$$$$
