AV-unprocessed.smi:2030|AV-procd|sdf|8224|dock8
  -GOLD-   2272010493D 1   1.00000     0.00000
 Structure written by MMmdl.
 35 36  0  0  0  0  0  0  0  0  1 V2000
  146.1317  143.0580  156.9924 C   0  0  0  0  0  0  0  0  0  0  0  0
  147.0068  142.7578  155.8609 N   0  0  0  0  0  0  0  0  0  0  0  0
  148.2383  142.2394  156.2041 N   0  0  0  0  0  0  0  0  0  0  0  0
  149.0325  141.7133  155.3250 C   0  0  0  0  0  0  0  0  0  0  0  0
  150.3408  141.1504  155.7500 C   0  0  0  0  0  0  0  0  0  0  0  0
  151.0414  140.5069  154.9685 O   0  0  0  0  0  0  0  0  0  0  0  0
  150.6886  141.3792  157.0288 N   0  0  0  0  0  0  0  0  0  0  0  0
  151.8770  140.8471  157.6877 C   0  0  0  0  0  0  0  0  0  0  0  0
  151.8784  141.1207  159.2048 C   0  0  0  0  0  0  0  0  0  0  0  0
  152.0526  142.5898  159.5523 C   0  0  0  0  0  0  0  0  0  0  0  0
  152.3646  143.5353  158.5515 C   0  0  0  0  0  0  0  0  0  0  0  0
  152.5391  144.8803  158.9293 C   0  0  0  0  0  0  0  0  0  0  0  0
  152.3929  145.2275  160.2862 C   0  0  0  0  0  0  0  0  0  0  0  0
  152.0782  144.2094  161.2085 C   0  0  0  0  0  0  0  0  0  0  0  0
  151.9115  142.9160  160.8569 N   0  0  0  0  0  0  0  0  0  0  0  0
  148.6273  141.6370  153.8670 C   0  0  0  0  0  0  0  0  0  0  0  0
  147.6300  142.7490  153.4843 C   0  0  0  0  0  0  0  0  0  0  0  0
  146.6057  143.0163  154.5911 C   0  0  0  0  0  0  0  0  0  0  0  0
  145.4973  143.4670  154.3021 O   0  0  0  0  0  0  0  0  0  0  0  0
  145.1970  142.5015  156.9142 H   0  0  0  0  0  0  0  0  0  0  0  0
  145.8947  144.1222  157.0223 H   0  0  0  0  0  0  0  0  0  0  0  0
  146.5914  142.7960  157.9469 H   0  0  0  0  0  0  0  0  0  0  0  0
  150.0559  141.9216  157.5996 H   0  0  0  0  0  0  0  0  0  0  0  0
  151.9778  139.7787  157.4910 H   0  0  0  0  0  0  0  0  0  0  0  0
  152.7433  141.3272  157.2321 H   0  0  0  0  0  0  0  0  0  0  0  0
  150.9461  140.7624  159.6431 H   0  0  0  0  0  0  0  0  0  0  0  0
  152.6733  140.5450  159.6807 H   0  0  0  0  0  0  0  0  0  0  0  0
  152.4768  143.2357  157.5196 H   0  0  0  0  0  0  0  0  0  0  0  0
  152.7822  145.6311  158.1921 H   0  0  0  0  0  0  0  0  0  0  0  0
  152.5191  146.2490  160.6129 H   0  0  0  0  0  0  0  0  0  0  0  0
  151.9586  144.4399  162.2568 H   0  0  0  0  0  0  0  0  0  0  0  0
  149.5027  141.7193  153.2214 H   0  0  0  0  0  0  0  0  0  0  0  0
  148.1885  140.6589  153.6669 H   0  0  0  0  0  0  0  0  0  0  0  0
  148.1691  143.6803  153.3061 H   0  0  0  0  0  0  0  0  0  0  0  0
  147.1207  142.4980  152.5533 H   0  0  0  0  0  0  0  0  0  0  0  0
  1  2  1  0  0  0  0
  1 20  1  0  0  0  0
  1 21  1  0  0  0  0
  1 22  1  0  0  0  0
  2 18  1  0  0  0  0
  2  3  1  0  0  0  0
  3  4  2  0  0  0  0
  4  5  1  0  0  0  0
  4 16  1  0  0  0  0
  5  6  2  0  0  0  0
  5  7  1  0  0  0  0
  7  8  1  0  0  0  0
  7 23  1  0  0  0  0
  8  9  1  0  0  0  0
  8 24  1  0  0  0  0
  8 25  1  0  0  0  0
  9 10  1  0  0  0  0
  9 26  1  0  0  0  0
  9 27  1  0  0  0  0
 10 15  1  0  0  0  0
 10 11  2  0  0  0  0
 11 12  1  0  0  0  0
 11 28  1  0  0  0  0
 12 13  2  0  0  0  0
 12 29  1  0  0  0  0
 13 14  1  0  0  0  0
 13 30  1  0  0  0  0
 14 15  2  0  0  0  0
 14 31  1  0  0  0  0
 16 17  1  0  0  0  0
 16 32  1  0  0  0  0
 16 33  1  0  0  0  0
 17 18  1  0  0  0  0
 17 34  1  0  0  0  0
 17 35  1  0  0  0  0
 18 19  2  0  0  0  0
M  END
> <s_m_source_file>
AV-unprocessed.smi

> <i_m_source_file_index>
2030

> <i_lp_mmshare_version>
43012

> <i_f3d_flags>
0

> <s_epik_input>
Tz1DMVtDSDJdW0NIMl1DKD1OTjFbQ0gzXSlDKD1PKVtOSF1bQ0gyXVtDSDJdYzJbY0hdW2NIXVtjSF1bY0hdbjI=

> <s_epik_cmdline>
J2VwaWtfcHl0aG9uJywgJy1waCcsICc3LjAnLCAnLXRuJywgJzgnLCAnLW1hJywgJzIwMCcsICctbWV0YWxfYmluZGluZycsICctaW1hZScsICc8aW5maWxlLm1hZT4nLCAnLW9tYWUnLCAnPG91dGZpbGUubWFlPic=

> <r_epik_Ionization_Penalty>
0.0175455

> <r_epik_Ionization_Penalty_Charging>
0

> <r_epik_Ionization_Penalty_Neutral>
0.0175455

> <r_epik_State_Penalty>
0.0138544

> <r_epik_Charging_Adjusted_Penalty>
0.0138544

> <i_epik_Tot_Q>
0

> <i_epik_Tot_abs_Q>
0

> <r_epik_Metal_State_Penalty>
0.0690211

> <b_epik_Metal_Only>
0

> <s_epik_Chemistry_Notes>
This compound has an imine and may undergo hydrolysis.

> <s_lp_Force_Field>
OPLS_2005

> <r_lp_Energy>
15.1803

> <b_lp_Chiralities_Consistent>
1

> <s_lp_Variant>
AV-unprocessed.smi:2030-1

> <Gold.Version>
5.8.1

> <Gold.Id.Protein>
6NUR|6NUR_protein|mol2

> <Gold.PLP.Fitness>
44.5918

> <Gold.PLP.PLP>
-41.8625

> <Gold.PLP.part.hbond>
-1.5409

> <Gold.PLP.part.metal>
0.0000

> <Gold.PLP.part.buried>
-7.1470

> <Gold.PLP.part.nonpolar>
-33.7969

> <Gold.PLP.part.repulsive>
0.5102

> <Gold.PLP.ligand.clash>
0.0000

> <Gold.PLP.ligand.torsion>
0.1383

> <Gold.PLP.Chemscore.Hbond>
1.0000

> <Gold.PLP.Chemscore.CHOScore>
0.0000

> <Gold.PLP.Chemscore.Metal>
0.0000

> <Gold.Chemscore.Hbonds>
donor molecule, donor type, donor heavy atom, donor atom, acceptor molecule, acceptor atom, score
      P1  H  7989  7998       L1     6  1.00

> <Gold.PLP.Chemscore.Internal.Correction>
0.0059

> <Gold.Rescore>
     Score         DG    S(hbond)    S(metal)    S(lipo)     H(rot)  DE(clash)    DE(int)     intcor
     16.28     -16.46       0.97        0.00      97.94       1.45       0.04       0.15       ----

> <Gold.Chemscore.Fitness>
16.2780

> <Gold.Chemscore.DG>
-16.4611

> <Gold.Chemscore.ZeroCoef>
-5.4800

> <Gold.Chemscore.Hbond>
0.9669

> <Gold.Chemscore.Metal>
0.0000

> <Gold.Chemscore.Lipo>
97.9374

> <Gold.Chemscore.Internal_Hbond>
0.0000

> <Gold.Chemscore.DEClash>
0.0351

> <Gold.Chemscore.DEInternal>
0.1479

> <Gold.Chemscore.Rot>
1.4480

> <Gold.Chemscore.Internal.Correction>
   9.000000E+99

> <Gold.Chemscore.Hbonds>
donor molecule, donor type, donor heavy atom, donor atom, acceptor molecule, acceptor atom, score
      P1  H  7989  7998       L1     6  0.95

> <Gold.Chemscore.Hbond.Weighted>
-3.2294

> <Gold.Chemscore.Metal.Weighted>
-0.0000

> <Gold.Chemscore.Lipo.Weighted>
-11.4587

> <Gold.Chemscore.Internal_Hbond.Weighted>
0.0000

> <Gold.Chemscore.DEClash.Weighted>
0.0351

> <Gold.Chemscore.DEInternal.Weighted>
0.1479

> <Gold.Chemscore.Rot.Weighted>
3.7070

> <Gold.Chemscore.Internal.Correction.Weighted>
   9.000000E+99

> <Gold.Protein.RotatedTorsions>
[ 6907 6896 6895 6894 ] final  126.12 input  -60.11 | X-H torsion
[ 7974 7965 7964 7962 ] final   26.45 input  175.53 | X-H torsion
[ 8008 7997 7996 7995 ] final   73.39 input   59.86 | X-H torsion
[ 10167 10162 10161 10158 ] final   15.42 input  -65.29 | X-H torsion
[ 10718 10713 10712 10709 ] final  -30.88 input   66.30 | X-H torsion
[ 10763 10752 10751 10750 ] final  176.31 input  -60.55 | X-H torsion
[ 11005 11000 10999 10996 ] final -155.34 input  -57.11 | X-H torsion

> <Gold.Protein.ActiveResidues>
 VAL166  LYS551  ARG553  GLY616  TRP617  ASP618  TYR619  PRO620  LYS621  CYS622 
 ASP623  PHE694  ASN695  SER759  ASP760  ASP761  ALA762  ILE779  LEU786  VAL792 
 PHE793  MET794  SER795  GLU796  ALA797  LYS798  CYS799  TRP800  GLU811  SER814 

> <Gold.Protein.RotatedAtoms>
  152.3932  133.6709  159.6254 H   0  0  0  0  0  0  0  0  0  0  0  0  # atno 6907 bound_to 6896
  150.7836  133.8919  159.3324 H   0  0  0  0  0  0  0  0  0  0  0  0  # atno 6908 bound_to 6896
  151.6701  135.0979  160.0247 H   0  0  0  0  0  0  0  0  0  0  0  0  # atno 6909 bound_to 6896
  146.1836  139.7326  142.8882 H   0  0  0  0  0  0  0  0  0  0  0  0  # atno 7974 bound_to 7965
  155.7830  140.3481  155.5307 H   0  0  0  0  0  0  0  0  0  0  0  0  # atno 8008 bound_to 7997
  155.8710  140.0986  157.1571 H   0  0  0  0  0  0  0  0  0  0  0  0  # atno 8009 bound_to 7997
  154.4017  140.1340  156.4065 H   0  0  0  0  0  0  0  0  0  0  0  0  # atno 8010 bound_to 7997
  140.5868  143.8873  150.6838 H   0  0  0  0  0  0  0  0  0  0  0  0  # atno 10167 bound_to 10162
  156.3943  130.4378  149.7371 H   0  0  0  0  0  0  0  0  0  0  0  0  # atno 10718 bound_to 10713
  154.4794  135.2774  155.1582 H   0  0  0  0  0  0  0  0  0  0  0  0  # atno 10763 bound_to 10752
  154.3298  135.6192  153.5550 H   0  0  0  0  0  0  0  0  0  0  0  0  # atno 10764 bound_to 10752
  152.9873  135.5763  154.5192 H   0  0  0  0  0  0  0  0  0  0  0  0  # atno 10765 bound_to 10752
  140.6876  134.4077  157.5222 H   0  0  0  0  0  0  0  0  0  0  0  0  # atno 11005 bound_to 11000
  145.4003  141.0384  143.3074 LP  0  0  0  0  0  0  0  0  0  0  0  0  # atno 17320 bound_to 7965
  144.8358  139.5552  143.6923 LP  0  0  0  0  0  0  0  0  0  0  0  0  # atno 17321 bound_to 7965
  140.2386  143.3680  152.1505 LP  0  0  0  0  0  0  0  0  0  0  0  0  # atno 17342 bound_to 10162
  139.5203  144.7030  151.5436 LP  0  0  0  0  0  0  0  0  0  0  0  0  # atno 17343 bound_to 10162
  156.4412  130.7862  151.2883 LP  0  0  0  0  0  0  0  0  0  0  0  0  # atno 17370 bound_to 10713
  157.7501  131.0124  150.3384 LP  0  0  0  0  0  0  0  0  0  0  0  0  # atno 17371 bound_to 10713
  139.8933  134.8734  156.2230 LP  0  0  0  0  0  0  0  0  0  0  0  0  # atno 17394 bound_to 11000
  141.0268  133.7011  156.1361 LP  0  0  0  0  0  0  0  0  0  0  0  0  # atno 17395 bound_to 11000

$$$$
