AV-unprocessed.smi:43|AV-procd|sdf|391|dock6
  -GOLD-   2262016243D 1   1.00000     0.00000
 Structure written by MMmdl.
 25 26  0  0  0  0  0  0  0  0  2 V2000
  154.1944  140.3077  160.0217 C   0  0  0  0  0  0  0  0  0  0  0  0
  153.2745  139.2790  159.5705 N   0  0  0  0  0  0  0  0  0  0  0  0
  153.4020  138.0174  160.0535 N   0  0  0  0  0  0  0  0  0  0  0  0
  152.4695  137.3010  159.4986 N   0  0  0  0  0  0  0  0  0  0  0  0
  151.7015  138.0590  158.6393 N   0  0  0  0  0  0  0  0  0  0  0  0
  152.2362  139.2729  158.7126 C   0  0  0  0  0  0  0  0  0  0  0  0
  151.7816  140.3975  158.0084 N   0  0  0  0  0  0  0  0  0  0  0  0
  152.0079  141.8176  158.2902 C   0  0  0  0  0  0  0  0  0  0  0  0
  151.4298  142.6379  157.1368 C   0  0  2  0  0  0  0  0  0  0  0  0
  150.9752  143.9092  157.5510 O   0  0  0  0  0  0  0  0  0  0  0  0
  150.3085  141.7474  156.6400 C   0  0  0  0  0  0  0  0  0  0  0  0
  150.8977  140.3463  156.8368 C   0  0  1  0  0  0  0  0  0  0  0  0
  151.6359  139.8421  155.5833 C   0  0  0  0  0  0  0  0  0  0  0  0
  150.9698  139.7775  154.5275 O   0  0  0  0  0  0  0  0  0  0  0  0
  152.8444  139.5355  155.6945 O   0  5  0  0  0  0  0  0  0  0  0  0
  152.1788  142.7625  156.3537 H   0  0  0  0  0  0  0  0  0  0  0  0
  150.0833  139.6507  157.0442 H   0  0  0  0  0  0  0  0  0  0  0  0
  153.6403  141.1500  160.4345 H   0  0  0  0  0  0  0  0  0  0  0  0
  154.8116  140.6424  159.1884 H   0  0  0  0  0  0  0  0  0  0  0  0
  154.8512  139.9165  160.7997 H   0  0  0  0  0  0  0  0  0  0  0  0
  151.5017  142.0609  159.2252 H   0  0  0  0  0  0  0  0  0  0  0  0
  153.0674  142.0404  158.4078 H   0  0  0  0  0  0  0  0  0  0  0  0
  150.3691  144.2348  156.9034 H   0  0  0  0  0  0  0  0  0  0  0  0
  149.4229  141.8608  157.2673 H   0  0  0  0  0  0  0  0  0  0  0  0
  150.0187  141.9648  155.6109 H   0  0  0  0  0  0  0  0  0  0  0  0
  1  2  1  0  0  0  0
  1 18  1  0  0  0  0
  1 19  1  0  0  0  0
  1 20  1  0  0  0  0
  2  6  1  0  0  0  0
  2  3  1  0  0  0  0
  3  4  2  0  0  0  0
  4  5  1  0  0  0  0
  5  6  2  0  0  0  0
  6  7  1  0  0  0  0
  7 12  1  0  0  0  0
  7  8  1  0  0  0  0
  8  9  1  0  0  0  0
  8 21  1  0  0  0  0
  8 22  1  0  0  0  0
  9 16  1  0  0  0  0
  9 10  1  0  0  0  0
  9 11  1  0  0  0  0
 10 23  1  0  0  0  0
 11 12  1  0  0  0  0
 11 24  1  0  0  0  0
 11 25  1  0  0  0  0
 12 17  1  0  0  0  0
 12 13  1  0  0  0  0
 13 14  2  0  0  0  0
 13 15  1  0  0  0  0
M  CHG  1  15  -1
M  END
> <s_m_source_file>
AV-unprocessed.smi

> <i_m_source_file_index>
43

> <i_lp_mmshare_version>
43012

> <i_f3d_flags>
0

> <s_epik_input>
W0NIM11uMW5ubmMxTjJbQ0gyXVtDQEhdKFtPSF0pW0NIMl1bQ0BIXTJDKD1PKVtPSF0=

> <s_epik_cmdline>
J2VwaWtfcHl0aG9uJywgJy1waCcsICc3LjAnLCAnLXRuJywgJzgnLCAnLW1hJywgJzIwMCcsICctbWV0YWxfYmluZGluZycsICctaW1hZScsICc8aW5maWxlLm1hZT4nLCAnLW9tYWUnLCAnPG91dGZpbGUubWFlPic=

> <r_lp_tautomer_probability>
1

> <r_epik_Ionization_Penalty>
0.000193127

> <r_epik_Ionization_Penalty_Charging>
0.000192933

> <r_epik_Ionization_Penalty_Neutral>
1.93728e-07

> <r_epik_State_Penalty>
-0

> <r_epik_Charging_Adjusted_Penalty>
0.000192933

> <i_epik_Tot_Q>
-1

> <i_epik_Tot_abs_Q>
1

> <r_epik_Metal_State_Penalty>
-0

> <b_epik_Metal_Only>
0

> <s_lp_Force_Field>
OPLS_2005

> <r_lp_Energy>
20.0938

> <b_lp_Chiralities_Consistent>
1

> <s_lp_Variant>
AV-unprocessed.smi:43-1

> <Gold.Version>
5.8.1

> <Gold.Id.Protein>
6NUR|6NUR_protein|mol2

> <Gold.PLP.Fitness>
39.4633

> <Gold.PLP.PLP>
-24.7890

> <Gold.PLP.part.hbond>
-4.0000

> <Gold.PLP.part.metal>
0.0000

> <Gold.PLP.part.buried>
-5.6752

> <Gold.PLP.part.nonpolar>
-15.7712

> <Gold.PLP.part.repulsive>
0.0982

> <Gold.PLP.ligand.clash>
0.0000

> <Gold.PLP.ligand.torsion>
0.1518

> <Gold.PLP.Chemscore.Hbond>
4.9913

> <Gold.PLP.Chemscore.CHOScore>
0.0000

> <Gold.PLP.Chemscore.Metal>
0.0000

> <Gold.Chemscore.Hbonds>
donor molecule, donor type, donor heavy atom, donor atom, acceptor molecule, acceptor atom, score
      L1  H    10    23       P1  8028  1.00
      P1  H  6896  6908       L1     4  0.26
      P1  H  7989  7998       L1    14  1.00
      P1  H  7997  8010       L1    15  2.00

> <Gold.PLP.Chemscore.Internal.Correction>
0.0041

> <Gold.Rescore>
     Score         DG    S(hbond)    S(metal)    S(lipo)     H(rot)  DE(clash)    DE(int)     intcor
     18.03     -18.13       3.86        0.00      34.96       1.69       0.00       0.10       ----

> <Gold.Chemscore.Fitness>
18.0280

> <Gold.Chemscore.DG>
-18.1292

> <Gold.Chemscore.ZeroCoef>
-5.4800

> <Gold.Chemscore.Hbond>
3.8569

> <Gold.Chemscore.Metal>
0.0000

> <Gold.Chemscore.Lipo>
34.9590

> <Gold.Chemscore.Internal_Hbond>
0.0000

> <Gold.Chemscore.DEClash>
0.0015

> <Gold.Chemscore.DEInternal>
0.0998

> <Gold.Chemscore.Rot>
1.6887

> <Gold.Chemscore.Internal.Correction>
   9.000000E+99

> <Gold.Chemscore.Hbonds>
donor molecule, donor type, donor heavy atom, donor atom, acceptor molecule, acceptor atom, score
      L1  H    10    23       P1  8028  0.94
      P1  H  6896  6908       L1     4  0.26
      P1  H  7989  7998       L1    14  0.55
      P1  H  7997  8010       L1    15  1.00

> <Gold.Chemscore.Hbond.Weighted>
-12.8822

> <Gold.Chemscore.Metal.Weighted>
-0.0000

> <Gold.Chemscore.Lipo.Weighted>
-4.0902

> <Gold.Chemscore.Internal_Hbond.Weighted>
0.0000

> <Gold.Chemscore.DEClash.Weighted>
0.0015

> <Gold.Chemscore.DEInternal.Weighted>
0.0998

> <Gold.Chemscore.Rot.Weighted>
4.3232

> <Gold.Chemscore.Internal.Correction.Weighted>
   9.000000E+99

> <Gold.Protein.RotatedTorsions>
[ 6907 6896 6895 6894 ] final -110.73 input  -60.11 | X-H torsion
[ 7974 7965 7964 7962 ] final -118.73 input  175.53 | X-H torsion
[ 8008 7997 7996 7995 ] final   88.57 input   59.86 | X-H torsion
[ 10167 10162 10161 10158 ] final  -74.83 input  -65.29 | X-H torsion
[ 10718 10713 10712 10709 ] final  146.16 input   66.30 | X-H torsion
[ 10763 10752 10751 10750 ] final  132.25 input  -60.55 | X-H torsion
[ 11005 11000 10999 10996 ] final -163.48 input  -57.11 | X-H torsion

> <Gold.Protein.ActiveResidues>
 VAL166  LYS551  ARG553  GLY616  TRP617  ASP618  TYR619  PRO620  LYS621  CYS622 
 ASP623  PHE694  ASN695  SER759  ASP760  ASP761  ALA762  ILE779  LEU786  VAL792 
 PHE793  MET794  SER795  GLU796  ALA797  LYS798  CYS799  TRP800  GLU811  SER814 

> <Gold.Protein.RotatedAtoms>
  150.7644  133.9339  159.3435 H   0  0  0  0  0  0  0  0  0  0  0  0  # atno 6907 bound_to 6896
  151.7240  135.0886  160.0298 H   0  0  0  0  0  0  0  0  0  0  0  0  # atno 6908 bound_to 6896
  152.3632  133.6285  159.6066 H   0  0  0  0  0  0  0  0  0  0  0  0  # atno 6909 bound_to 6896
  145.0705  140.8356  143.4098 H   0  0  0  0  0  0  0  0  0  0  0  0  # atno 7974 bound_to 7965
  155.9893  140.3370  155.6738 H   0  0  0  0  0  0  0  0  0  0  0  0  # atno 8008 bound_to 7997
  155.6442  140.0698  157.2626 H   0  0  0  0  0  0  0  0  0  0  0  0  # atno 8009 bound_to 7997
  154.4214  140.1737  156.1593 H   0  0  0  0  0  0  0  0  0  0  0  0  # atno 8010 bound_to 7997
  140.4994  143.2364  151.7778 H   0  0  0  0  0  0  0  0  0  0  0  0  # atno 10167 bound_to 10162
  157.3366  131.0929  151.1118 H   0  0  0  0  0  0  0  0  0  0  0  0  # atno 10718 bound_to 10713
  153.7877  135.3159  155.3374 H   0  0  0  0  0  0  0  0  0  0  0  0  # atno 10763 bound_to 10752
  154.8137  135.4650  154.0589 H   0  0  0  0  0  0  0  0  0  0  0  0  # atno 10764 bound_to 10752
  153.1897  135.6906  153.8454 H   0  0  0  0  0  0  0  0  0  0  0  0  # atno 10765 bound_to 10752
  140.5976  134.4980  157.5201 H   0  0  0  0  0  0  0  0  0  0  0  0  # atno 11005 bound_to 11000
  145.1298  139.2639  143.5545 LP  0  0  0  0  0  0  0  0  0  0  0  0  # atno 17320 bound_to 7965
  146.3528  140.0945  142.8611 LP  0  0  0  0  0  0  0  0  0  0  0  0  # atno 17321 bound_to 7965
  139.4868  144.4543  151.9617 LP  0  0  0  0  0  0  0  0  0  0  0  0  # atno 17342 bound_to 10162
  140.3631  144.2948  150.5930 LP  0  0  0  0  0  0  0  0  0  0  0  0  # atno 17343 bound_to 10162
  157.2346  130.6541  149.5864 LP  0  0  0  0  0  0  0  0  0  0  0  0  # atno 17370 bound_to 10713
  155.9702  130.4588  150.6011 LP  0  0  0  0  0  0  0  0  0  0  0  0  # atno 17371 bound_to 10713
  139.9246  134.8080  156.1106 LP  0  0  0  0  0  0  0  0  0  0  0  0  # atno 17394 bound_to 11000
  141.0894  133.6721  156.2506 LP  0  0  0  0  0  0  0  0  0  0  0  0  # atno 17395 bound_to 11000

$$$$
