AV-unprocessed.smi:2623|AV-procd|sdf|10230|dock2
  -GOLD-   2272014233D 1   1.00000     0.00000
 Structure written by MMmdl.
 40 42  0  0  0  0  0  0  0  0  1 V2000
  152.2424  136.3006  158.2475 O   0  0  0  0  0  0  0  0  0  0  0  0
  151.4474  137.3891  157.8219 C   0  0  0  0  0  0  0  0  0  0  0  0
  151.8012  138.6969  158.4726 C   0  0  0  0  0  0  0  0  0  0  0  0
  152.7818  138.8234  159.3702 N   0  0  0  0  0  0  0  0  0  0  0  0
  152.7494  140.1700  159.6729 C   0  0  0  0  0  0  0  0  0  0  0  0
  153.5438  140.9314  160.5602 C   0  0  0  0  0  0  0  0  0  0  0  0
  153.3246  142.3171  160.7048 C   0  0  0  0  0  0  0  0  0  0  0  0
  152.3103  142.9597  159.9660 C   0  0  0  0  0  0  0  0  0  0  0  0
  151.5077  142.2197  159.0763 C   0  0  0  0  0  0  0  0  0  0  0  0
  151.7306  140.8366  158.9355 C   0  0  0  0  0  0  0  0  0  0  0  0
  151.1360  139.8395  158.1673 N   0  0  0  0  0  0  0  0  0  0  0  0
  150.0325  140.0123  157.2312 C   0  0  0  0  0  0  0  0  0  0  0  0
  150.4363  140.7968  155.9655 C   0  0  1  0  0  0  0  0  0  0  0  0
  151.2456  139.9911  155.1316 O   0  0  0  0  0  0  0  0  0  0  0  0
  149.2211  141.2659  155.1525 C   0  0  0  0  0  0  0  0  0  0  0  0
  148.0381  141.0053  155.8963 O   0  0  0  0  0  0  0  0  0  0  0  0
  146.8871  141.6791  155.5482 C   0  0  0  0  0  0  0  0  0  0  0  0
  146.7654  142.0844  154.2028 C   0  0  0  0  0  0  0  0  0  0  0  0
  145.6215  142.7750  153.7581 C   0  0  0  0  0  0  0  0  0  0  0  0
  144.5822  143.0682  154.6599 C   0  0  0  0  0  0  0  0  0  0  0  0
  144.6904  142.6713  156.0056 C   0  0  0  0  0  0  0  0  0  0  0  0
  145.8350  141.9811  156.4502 C   0  0  0  0  0  0  0  0  0  0  0  0
  152.5074  135.8061  157.4875 H   0  0  0  0  0  0  0  0  0  0  0  0
  151.5504  137.4899  156.7412 H   0  0  0  0  0  0  0  0  0  0  0  0
  150.4049  137.1513  158.0306 H   0  0  0  0  0  0  0  0  0  0  0  0
  154.3229  140.4479  161.1306 H   0  0  0  0  0  0  0  0  0  0  0  0
  153.9374  142.8891  161.3862 H   0  0  0  0  0  0  0  0  0  0  0  0
  152.1482  144.0211  160.0833 H   0  0  0  0  0  0  0  0  0  0  0  0
  150.7297  142.7095  158.5103 H   0  0  0  0  0  0  0  0  0  0  0  0
  149.6525  139.0269  156.9591 H   0  0  0  0  0  0  0  0  0  0  0  0
  149.2126  140.5145  157.7450 H   0  0  0  0  0  0  0  0  0  0  0  0
  151.0286  141.6683  156.2447 H   0  0  0  0  0  0  0  0  0  0  0  0
  150.7830  139.1878  154.9484 H   0  0  0  0  0  0  0  0  0  0  0  0
  149.3013  142.3381  154.9637 H   0  0  0  0  0  0  0  0  0  0  0  0
  149.1925  140.7531  154.1893 H   0  0  0  0  0  0  0  0  0  0  0  0
  147.5582  141.8631  153.5033 H   0  0  0  0  0  0  0  0  0  0  0  0
  145.5415  143.0786  152.7248 H   0  0  0  0  0  0  0  0  0  0  0  0
  143.7035  143.5964  154.3203 H   0  0  0  0  0  0  0  0  0  0  0  0
  143.8931  142.8956  156.6989 H   0  0  0  0  0  0  0  0  0  0  0  0
  145.8799  141.6927  157.4892 H   0  0  0  0  0  0  0  0  0  0  0  0
  1  2  1  0  0  0  0
  1 23  1  0  0  0  0
  2  3  1  0  0  0  0
  2 24  1  0  0  0  0
  2 25  1  0  0  0  0
  3 11  1  0  0  0  0
  3  4  2  0  0  0  0
  4  5  1  0  0  0  0
  5 10  2  0  0  0  0
  5  6  1  0  0  0  0
  6  7  2  0  0  0  0
  6 26  1  0  0  0  0
  7  8  1  0  0  0  0
  7 27  1  0  0  0  0
  8  9  2  0  0  0  0
  8 28  1  0  0  0  0
  9 10  1  0  0  0  0
  9 29  1  0  0  0  0
 10 11  1  0  0  0  0
 11 12  1  0  0  0  0
 12 13  1  0  0  0  0
 12 30  1  0  0  0  0
 12 31  1  0  0  0  0
 13 14  1  0  0  0  0
 13 15  1  0  0  0  0
 13 32  1  0  0  0  0
 14 33  1  0  0  0  0
 15 16  1  0  0  0  0
 15 34  1  0  0  0  0
 15 35  1  0  0  0  0
 16 17  1  0  0  0  0
 17 22  1  0  0  0  0
 17 18  2  0  0  0  0
 18 19  1  0  0  0  0
 18 36  1  0  0  0  0
 19 20  2  0  0  0  0
 19 37  1  0  0  0  0
 20 21  1  0  0  0  0
 20 38  1  0  0  0  0
 21 22  2  0  0  0  0
 21 39  1  0  0  0  0
 22 40  1  0  0  0  0
M  END
> <s_m_source_file>
AV-unprocessed.smi

> <i_m_source_file_index>
2623

> <i_lp_mmshare_version>
43012

> <i_f3d_flags>
0

> <s_epik_input>
W2NIXTFbY0hdW2NIXVtjSF1jKGMxMiluKGMobjIpW0NIMl1bT0hdKVtDSDJdW0NASF0oW09IXSlbQ0gyXU9jM1tjSF1bY0hdW2NIXVtjSF1bY0hdMw==

> <s_epik_cmdline>
J2VwaWtfcHl0aG9uJywgJy1waCcsICc3LjAnLCAnLXRuJywgJzgnLCAnLW1hJywgJzIwMCcsICctbWV0YWxfYmluZGluZycsICctaW1hZScsICc8aW5maWxlLm1hZT4nLCAnLW9tYWUnLCAnPG91dGZpbGUubWFlPic=

> <r_lp_tautomer_probability>
1

> <r_epik_Ionization_Penalty>
0.0583159

> <r_epik_Ionization_Penalty_Charging>
0

> <r_epik_Ionization_Penalty_Neutral>
0.0583159

> <r_epik_State_Penalty>
0.0503525

> <r_epik_Charging_Adjusted_Penalty>
0.0503525

> <i_epik_Tot_Q>
0

> <i_epik_Tot_abs_Q>
0

> <r_epik_Metal_State_Penalty>
5.25517e-05

> <b_epik_Metal_Only>
0

> <s_lp_Force_Field>
OPLS_2005

> <r_lp_Energy>
15.201

> <b_lp_Chiralities_Consistent>
1

> <s_lp_Variant>
AV-unprocessed.smi:2623-2

> <Gold.Version>
5.8.1

> <Gold.Id.Protein>
6NUR|6NUR_protein|mol2

> <Gold.PLP.Fitness>
46.2174

> <Gold.PLP.PLP>
-44.2912

> <Gold.PLP.part.hbond>
-2.0000

> <Gold.PLP.part.metal>
0.0000

> <Gold.PLP.part.buried>
-7.2522

> <Gold.PLP.part.nonpolar>
-35.0967

> <Gold.PLP.part.repulsive>
0.0867

> <Gold.PLP.ligand.clash>
0.0000

> <Gold.PLP.ligand.torsion>
1.3415

> <Gold.PLP.Chemscore.Hbond>
1.4960

> <Gold.PLP.Chemscore.CHOScore>
0.0000

> <Gold.PLP.Chemscore.Metal>
0.0000

> <Gold.Chemscore.Hbonds>
donor molecule, donor type, donor heavy atom, donor atom, acceptor molecule, acceptor atom, score
      P1  H  6896  6909       L1     1  0.28
      P1  H  7989  7998       L1    14  1.00

> <Gold.PLP.Chemscore.Internal.Correction>
0.1212

> <Gold.Rescore>
     Score         DG    S(hbond)    S(metal)    S(lipo)     H(rot)  DE(clash)    DE(int)     intcor
     11.95     -13.29       0.93        0.00     106.59       3.04       0.01       1.33       ----

> <Gold.Chemscore.Fitness>
11.9452

> <Gold.Chemscore.DG>
-13.2927

> <Gold.Chemscore.ZeroCoef>
-5.4800

> <Gold.Chemscore.Hbond>
0.9322

> <Gold.Chemscore.Metal>
0.0000

> <Gold.Chemscore.Lipo>
106.5884

> <Gold.Chemscore.Internal_Hbond>
0.0000

> <Gold.Chemscore.DEClash>
0.0135

> <Gold.Chemscore.DEInternal>
1.3340

> <Gold.Chemscore.Rot>
3.0358

> <Gold.Chemscore.Internal.Correction>
   9.000000E+99

> <Gold.Chemscore.Hbonds>
donor molecule, donor type, donor heavy atom, donor atom, acceptor molecule, acceptor atom, score
      P1  H  6896  6909       L1     1  0.25
      P1  H  7989  7998       L1    14  0.55

> <Gold.Chemscore.Hbond.Weighted>
-3.1135

> <Gold.Chemscore.Metal.Weighted>
-0.0000

> <Gold.Chemscore.Lipo.Weighted>
-12.4708

> <Gold.Chemscore.Internal_Hbond.Weighted>
0.0000

> <Gold.Chemscore.DEClash.Weighted>
0.0135

> <Gold.Chemscore.DEInternal.Weighted>
1.3340

> <Gold.Chemscore.Rot.Weighted>
7.7716

> <Gold.Chemscore.Internal.Correction.Weighted>
   9.000000E+99

> <Gold.Protein.RotatedTorsions>
[ 6907 6896 6895 6894 ] final  119.40 input  -60.11 | X-H torsion
[ 7974 7965 7964 7962 ] final -167.46 input  175.53 | X-H torsion
[ 8008 7997 7996 7995 ] final   -2.34 input   59.86 | X-H torsion
[ 10167 10162 10161 10158 ] final    4.01 input  -65.29 | X-H torsion
[ 10718 10713 10712 10709 ] final  114.00 input   66.30 | X-H torsion
[ 10763 10752 10751 10750 ] final  121.62 input  -60.55 | X-H torsion
[ 11005 11000 10999 10996 ] final  -53.24 input  -57.11 | X-H torsion

> <Gold.Protein.ActiveResidues>
 VAL166  LYS551  ARG553  GLY616  TRP617  ASP618  TYR619  PRO620  LYS621  CYS622 
 ASP623  PHE694  ASN695  SER759  ASP760  ASP761  ALA762  ILE779  LEU786  VAL792 
 PHE793  MET794  SER795  GLU796  ALA797  LYS798  CYS799  TRP800  GLU811  SER814 

> <Gold.Protein.RotatedAtoms>
  152.4474  133.7563  159.6721 H   0  0  0  0  0  0  0  0  0  0  0  0  # atno 6907 bound_to 6896
  150.8377  133.7976  159.3079 H   0  0  0  0  0  0  0  0  0  0  0  0  # atno 6908 bound_to 6896
  151.5610  135.1068  160.0024 H   0  0  0  0  0  0  0  0  0  0  0  0  # atno 6909 bound_to 6896
  144.7223  140.2515  143.6278 H   0  0  0  0  0  0  0  0  0  0  0  0  # atno 7974 bound_to 7965
  154.6368  140.2537  155.7369 H   0  0  0  0  0  0  0  0  0  0  0  0  # atno 8008 bound_to 7997
  156.2508  140.2895  156.0664 H   0  0  0  0  0  0  0  0  0  0  0  0  # atno 8009 bound_to 7997
  155.1658  140.0385  157.2843 H   0  0  0  0  0  0  0  0  0  0  0  0  # atno 8010 bound_to 7997
  140.6557  143.7434  150.7649 H   0  0  0  0  0  0  0  0  0  0  0  0  # atno 10167 bound_to 10162
  157.6306  131.0992  150.7122 H   0  0  0  0  0  0  0  0  0  0  0  0  # atno 10718 bound_to 10713
  153.6170  135.3420  155.2998 H   0  0  0  0  0  0  0  0  0  0  0  0  # atno 10763 bound_to 10752
  154.8607  135.4264  154.2248 H   0  0  0  0  0  0  0  0  0  0  0  0  # atno 10764 bound_to 10752
  153.3112  135.7032  153.7186 H   0  0  0  0  0  0  0  0  0  0  0  0  # atno 10765 bound_to 10752
  141.0966  133.6624  156.4143 H   0  0  0  0  0  0  0  0  0  0  0  0  # atno 11005 bound_to 11000
  145.8223  139.2049  143.1931 LP  0  0  0  0  0  0  0  0  0  0  0  0  # atno 17320 bound_to 7965
  146.0503  140.8076  142.9785 LP  0  0  0  0  0  0  0  0  0  0  0  0  # atno 17321 bound_to 7965
  140.1093  143.4714  152.2379 LP  0  0  0  0  0  0  0  0  0  0  0  0  # atno 17342 bound_to 10162
  139.5779  144.7496  151.3717 LP  0  0  0  0  0  0  0  0  0  0  0  0  # atno 17343 bound_to 10162
  156.7462  130.4754  149.5466 LP  0  0  0  0  0  0  0  0  0  0  0  0  # atno 17370 bound_to 10713
  156.1508  130.6308  151.0592 LP  0  0  0  0  0  0  0  0  0  0  0  0  # atno 17371 bound_to 10713
  140.5125  134.6381  157.5289 LP  0  0  0  0  0  0  0  0  0  0  0  0  # atno 17394 bound_to 11000
  139.9804  134.7146  155.9870 LP  0  0  0  0  0  0  0  0  0  0  0  0  # atno 17395 bound_to 11000

$$$$
