AV-unprocessed.smi:1336|AV-procd|sdf|5496|dock8
  -GOLD-   22720 5 73D 1   1.00000     0.00000
 Structure written by MMmdl.
 43 43  0  0  0  0  0  0  0  0  1 V2000
  152.6891  138.5826  155.9356 C   0  0  0  0  0  0  0  0  0  0  0  0
  151.7560  137.9561  154.8899 C   0  0  0  0  0  0  0  0  0  0  0  0
  150.3435  137.6660  155.4217 C   0  0  0  0  0  0  0  0  0  0  0  0
  149.6390  138.9013  155.7485 N   0  0  0  0  0  0  0  0  0  0  0  0
  149.7035  140.0471  155.0540 C   0  0  0  0  0  0  0  0  0  0  0  0
  150.3933  140.1903  154.0426 O   0  0  0  0  0  0  0  0  0  0  0  0
  148.8336  141.2017  155.5793 C   0  0  2  0  0  0  0  0  0  0  0  0
  147.9734  141.7142  154.4123 C   0  0  0  0  0  0  0  0  0  0  0  0
  149.6777  142.3029  156.0359 N   0  0  0  0  0  0  0  0  0  0  0  0
  150.5265  142.2535  157.0764 C   0  0  0  0  0  0  0  0  0  0  0  0
  150.6193  141.2826  157.8274 O   0  0  0  0  0  0  0  0  0  0  0  0
  151.4124  143.4830  157.3016 C   0  0  0  0  0  0  0  0  0  0  0  0
  151.7500  143.6358  158.7591 C   0  0  0  0  0  0  0  0  0  0  0  0
  151.6446  144.7791  159.5120 C   0  0  0  0  0  0  0  0  0  0  0  0
  152.1911  144.5336  161.1479 S   0  0  0  0  0  0  0  0  0  0  0  0
  152.5427  142.8559  160.7483 C   0  0  0  0  0  0  0  0  0  0  0  0
  153.1261  141.8836  161.7239 C   0  0  0  0  0  0  0  0  0  0  0  0
  153.4589  142.5501  163.0672 C   0  0  0  0  0  0  0  0  0  0  0  0
  154.3073  141.1044  161.1282 C   0  0  0  0  0  0  0  0  0  0  0  0
  152.2436  142.5455  159.4839 N   0  0  0  0  0  0  0  0  0  0  0  0
  153.6885  138.7269  155.5246 H   0  0  0  0  0  0  0  0  0  0  0  0
  152.7795  137.9441  156.8146 H   0  0  0  0  0  0  0  0  0  0  0  0
  152.3251  139.5562  156.2645 H   0  0  0  0  0  0  0  0  0  0  0  0
  151.6942  138.6115  154.0204 H   0  0  0  0  0  0  0  0  0  0  0  0
  152.1979  137.0242  154.5355 H   0  0  0  0  0  0  0  0  0  0  0  0
  149.7662  137.1376  154.6626 H   0  0  0  0  0  0  0  0  0  0  0  0
  150.4084  136.9977  156.2818 H   0  0  0  0  0  0  0  0  0  0  0  0
  149.0452  138.8803  156.5648 H   0  0  0  0  0  0  0  0  0  0  0  0
  148.1888  140.8565  156.3900 H   0  0  0  0  0  0  0  0  0  0  0  0
  147.3191  140.9302  154.0286 H   0  0  0  0  0  0  0  0  0  0  0  0
  148.5847  142.0733  153.5829 H   0  0  0  0  0  0  0  0  0  0  0  0
  147.3360  142.5391  154.7326 H   0  0  0  0  0  0  0  0  0  0  0  0
  149.6720  143.1406  155.4723 H   0  0  0  0  0  0  0  0  0  0  0  0
  152.3171  143.3769  156.7021 H   0  0  0  0  0  0  0  0  0  0  0  0
  150.8994  144.3730  156.9350 H   0  0  0  0  0  0  0  0  0  0  0  0
  151.2932  145.7517  159.2011 H   0  0  0  0  0  0  0  0  0  0  0  0
  152.3457  141.1499  161.9294 H   0  0  0  0  0  0  0  0  0  0  0  0
  152.5774  143.0258  163.4982 H   0  0  0  0  0  0  0  0  0  0  0  0
  154.2255  143.3172  162.9506 H   0  0  0  0  0  0  0  0  0  0  0  0
  153.8269  141.8197  163.7880 H   0  0  0  0  0  0  0  0  0  0  0  0
  154.0134  140.5834  160.2164 H   0  0  0  0  0  0  0  0  0  0  0  0
  154.6787  140.3574  161.8303 H   0  0  0  0  0  0  0  0  0  0  0  0
  155.1359  141.7686  160.8809 H   0  0  0  0  0  0  0  0  0  0  0  0
  1  2  1  0  0  0  0
  1 21  1  0  0  0  0
  1 22  1  0  0  0  0
  1 23  1  0  0  0  0
  2  3  1  0  0  0  0
  2 24  1  0  0  0  0
  2 25  1  0  0  0  0
  3  4  1  0  0  0  0
  3 26  1  0  0  0  0
  3 27  1  0  0  0  0
  4  5  1  0  0  0  0
  4 28  1  0  0  0  0
  5  6  2  0  0  0  0
  5  7  1  0  0  0  0
  7  8  1  0  0  0  0
  7  9  1  0  0  0  0
  7 29  1  0  0  0  0
  8 30  1  0  0  0  0
  8 31  1  0  0  0  0
  8 32  1  0  0  0  0
  9 10  1  0  0  0  0
  9 33  1  0  0  0  0
 10 11  2  0  0  0  0
 10 12  1  0  0  0  0
 12 13  1  0  0  0  0
 12 34  1  0  0  0  0
 12 35  1  0  0  0  0
 13 20  1  0  0  0  0
 13 14  2  0  0  0  0
 14 15  1  0  0  0  0
 14 36  1  0  0  0  0
 15 16  1  0  0  0  0
 16 17  1  0  0  0  0
 16 20  2  0  0  0  0
 17 18  1  0  0  0  0
 17 19  1  0  0  0  0
 17 37  1  0  0  0  0
 18 38  1  0  0  0  0
 18 39  1  0  0  0  0
 18 40  1  0  0  0  0
 19 41  1  0  0  0  0
 19 42  1  0  0  0  0
 19 43  1  0  0  0  0
M  END
> <s_m_source_file>
AV-unprocessed.smi

> <i_m_source_file_index>
1336

> <i_lp_mmshare_version>
43012

> <i_f3d_flags>
0

> <s_epik_input>
W0NIM11bQ0gyXVtDSDJdW05IXUMoPU8pW0NASF0oW0NIM10pW05IXUMoPU8pW0NIMl1jMVtjSF1zYyhuMSlbQ0hdKFtDSDNdKVtDSDNd

> <s_epik_cmdline>
J2VwaWtfcHl0aG9uJywgJy1waCcsICc3LjAnLCAnLXRuJywgJzgnLCAnLW1hJywgJzIwMCcsICctbWV0YWxfYmluZGluZycsICctaW1hZScsICc8aW5maWxlLm1hZT4nLCAnLW9tYWUnLCAnPG91dGZpbGUubWFlPic=

> <r_lp_tautomer_probability>
1

> <r_epik_Ionization_Penalty>
3.10785e-05

> <r_epik_Ionization_Penalty_Charging>
0

> <r_epik_Ionization_Penalty_Neutral>
3.10785e-05

> <r_epik_State_Penalty>
-0

> <r_epik_Charging_Adjusted_Penalty>
0

> <i_epik_Tot_Q>
0

> <i_epik_Tot_abs_Q>
0

> <r_epik_Metal_State_Penalty>
-0

> <b_epik_Metal_Only>
0

> <s_lp_Force_Field>
OPLS_2005

> <r_lp_Energy>
-3.8093

> <b_lp_Chiralities_Consistent>
1

> <s_lp_Variant>
AV-unprocessed.smi:1336-1

> <Gold.Version>
5.8.1

> <Gold.Id.Protein>
6NUR|6NUR_protein|mol2

> <Gold.PLP.Fitness>
48.4817

> <Gold.PLP.PLP>
-45.1958

> <Gold.PLP.part.hbond>
-1.8178

> <Gold.PLP.part.metal>
0.0000

> <Gold.PLP.part.buried>
-5.9360

> <Gold.PLP.part.nonpolar>
-39.2832

> <Gold.PLP.part.repulsive>
0.8695

> <Gold.PLP.ligand.clash>
0.0000

> <Gold.PLP.ligand.torsion>
0.8977

> <Gold.PLP.Chemscore.Hbond>
1.6400

> <Gold.PLP.Chemscore.CHOScore>
0.0000

> <Gold.PLP.Chemscore.Metal>
0.0000

> <Gold.Chemscore.Hbonds>
donor molecule, donor type, donor heavy atom, donor atom, acceptor molecule, acceptor atom, score
      L1  H     9    33       P1  8028  0.67
      P1  H  7989  7998       L1     6  0.94

> <Gold.PLP.Chemscore.Internal.Correction>
0.1612

> <Gold.Rescore>
     Score         DG    S(hbond)    S(metal)    S(lipo)     H(rot)  DE(clash)    DE(int)     intcor
     16.39     -20.04       1.89        0.00     115.04       2.04       0.10       3.54       ----

> <Gold.Chemscore.Fitness>
16.3870

> <Gold.Chemscore.DG>
-20.0365

> <Gold.Chemscore.ZeroCoef>
-5.4800

> <Gold.Chemscore.Hbond>
1.8884

> <Gold.Chemscore.Metal>
0.0000

> <Gold.Chemscore.Lipo>
115.0385

> <Gold.Chemscore.Internal_Hbond>
0.0000

> <Gold.Chemscore.DEClash>
0.1045

> <Gold.Chemscore.DEInternal>
3.5449

> <Gold.Chemscore.Rot>
2.0353

> <Gold.Chemscore.Internal.Correction>
   9.000000E+99

> <Gold.Chemscore.Hbonds>
donor molecule, donor type, donor heavy atom, donor atom, acceptor molecule, acceptor atom, score
      L1  H     9    33       P1  8028  0.68
      P1  H  7989  7998       L1     6  0.85

> <Gold.Chemscore.Hbond.Weighted>
-6.3074

> <Gold.Chemscore.Metal.Weighted>
-0.0000

> <Gold.Chemscore.Lipo.Weighted>
-13.4595

> <Gold.Chemscore.Internal_Hbond.Weighted>
0.0000

> <Gold.Chemscore.DEClash.Weighted>
0.1045

> <Gold.Chemscore.DEInternal.Weighted>
3.5449

> <Gold.Chemscore.Rot.Weighted>
5.2104

> <Gold.Chemscore.Internal.Correction.Weighted>
   9.000000E+99

> <Gold.Protein.RotatedTorsions>
[ 6907 6896 6895 6894 ] final   89.54 input  -60.11 | X-H torsion
[ 7974 7965 7964 7962 ] final  170.24 input  175.53 | X-H torsion
[ 8008 7997 7996 7995 ] final  141.94 input   59.86 | X-H torsion
[ 10167 10162 10161 10158 ] final  166.96 input  -65.29 | X-H torsion
[ 10718 10713 10712 10709 ] final -152.86 input   66.30 | X-H torsion
[ 10763 10752 10751 10750 ] final  100.19 input  -60.55 | X-H torsion
[ 11005 11000 10999 10996 ] final   37.42 input  -57.11 | X-H torsion

> <Gold.Protein.ActiveResidues>
 VAL166  LYS551  ARG553  GLY616  TRP617  ASP618  TYR619  PRO620  LYS621  CYS622 
 ASP623  PHE694  ASN695  SER759  ASP760  ASP761  ALA762  ILE779  LEU786  VAL792 
 PHE793  MET794  SER795  GLU796  ALA797  LYS798  CYS799  TRP800  GLU811  SER814 

> <Gold.Protein.RotatedAtoms>
  152.5437  134.1950  159.8688 H   0  0  0  0  0  0  0  0  0  0  0  0  # atno 6907 bound_to 6896
  151.1942  133.4642  159.2603 H   0  0  0  0  0  0  0  0  0  0  0  0  # atno 6908 bound_to 6896
  151.1053  135.0008  159.8523 H   0  0  0  0  0  0  0  0  0  0  0  0  # atno 6909 bound_to 6896
  144.7330  139.9172  143.6418 H   0  0  0  0  0  0  0  0  0  0  0  0  # atno 7974 bound_to 7965
  156.2958  140.2302  156.4646 H   0  0  0  0  0  0  0  0  0  0  0  0  # atno 8008 bound_to 7997
  154.7988  140.0449  157.1278 H   0  0  0  0  0  0  0  0  0  0  0  0  # atno 8009 bound_to 7997
  154.9557  140.3048  155.5057 H   0  0  0  0  0  0  0  0  0  0  0  0  # atno 8010 bound_to 7997
  139.4935  144.3972  151.9451 H   0  0  0  0  0  0  0  0  0  0  0  0  # atno 10167 bound_to 10162
  156.4781  130.8290  151.2518 H   0  0  0  0  0  0  0  0  0  0  0  0  # atno 10718 bound_to 10713
  153.3108  135.4087  155.1334 H   0  0  0  0  0  0  0  0  0  0  0  0  # atno 10763 bound_to 10752
  154.8575  135.3564  154.5726 H   0  0  0  0  0  0  0  0  0  0  0  0  # atno 10764 bound_to 10752
  153.6155  135.7066  153.5389 H   0  0  0  0  0  0  0  0  0  0  0  0  # atno 10765 bound_to 10752
  140.2227  134.3621  155.7998 H   0  0  0  0  0  0  0  0  0  0  0  0  # atno 11005 bound_to 11000
  146.0956  139.3948  143.0378 LP  0  0  0  0  0  0  0  0  0  0  0  0  # atno 17320 bound_to 7965
  145.7650  140.9920  143.1180 LP  0  0  0  0  0  0  0  0  0  0  0  0  # atno 17321 bound_to 7965
  140.3410  144.3203  150.5967 LP  0  0  0  0  0  0  0  0  0  0  0  0  # atno 17342 bound_to 10162
  140.5565  143.2198  151.7838 LP  0  0  0  0  0  0  0  0  0  0  0  0  # atno 17343 bound_to 10162
  157.7486  131.0054  150.3112 LP  0  0  0  0  0  0  0  0  0  0  0  0  # atno 17370 bound_to 10713
  156.3550  130.3837  149.7298 LP  0  0  0  0  0  0  0  0  0  0  0  0  # atno 17371 bound_to 10713
  141.2222  133.7202  156.8603 LP  0  0  0  0  0  0  0  0  0  0  0  0  # atno 17394 bound_to 11000
  140.1832  134.9018  157.2974 LP  0  0  0  0  0  0  0  0  0  0  0  0  # atno 17395 bound_to 11000

$$$$
