AV-unprocessed.smi:2888|AV-procd|sdf|11103|dock3
  -GOLD-   2272015573D 1   1.00000     0.00000
 Structure written by MMmdl.
 33 35  0  0  0  0  0  0  0  0  1 V2000
  151.8731  145.5739  159.4789 C   0  0  0  0  0  0  0  0  0  0  0  0
  152.1290  144.0931  159.2971 C   0  0  0  0  0  0  0  0  0  0  0  0
  152.9149  143.3609  160.2113 C   0  0  0  0  0  0  0  0  0  0  0  0
  153.0774  141.9882  159.9287 C   0  0  0  0  0  0  0  0  0  0  0  0
  153.8992  141.0870  160.8256 C   0  0  0  0  0  0  0  0  0  0  0  0
  152.5126  141.4125  158.8441 N   0  0  0  0  0  0  0  0  0  0  0  0
  151.7912  142.2016  158.0436 C   0  0  0  0  0  0  0  0  0  0  0  0
  151.2363  141.5809  156.9397 N   0  0  0  0  0  0  0  0  0  0  0  0
  151.2912  140.1462  156.6887 C   0  0  1  0  0  0  0  0  0  0  0  0
  149.9202  139.5440  156.3558 C   0  0  0  0  0  0  0  0  0  0  0  0
  150.1880  138.8791  155.0000 C   0  0  2  0  0  0  0  0  0  0  0  0
  151.1144  137.6616  155.1221 C   0  0  0  0  0  0  0  0  0  0  0  0
  152.4671  138.3235  155.3836 C   0  0  0  0  0  0  0  0  0  0  0  0
  152.0902  139.8109  155.4181 C   0  0  1  0  0  0  0  0  0  0  0  0
  151.0727  139.8270  154.4294 O   0  0  0  0  0  0  0  0  0  0  0  0
  151.5696  143.5107  158.2140 N   0  0  0  0  0  0  0  0  0  0  0  0
  152.2950  145.9343  160.4175 H   0  0  0  0  0  0  0  0  0  0  0  0
  150.8018  145.7768  159.4873 H   0  0  0  0  0  0  0  0  0  0  0  0
  152.3244  146.1379  158.6623 H   0  0  0  0  0  0  0  0  0  0  0  0
  153.3667  143.8243  161.0761 H   0  0  0  0  0  0  0  0  0  0  0  0
  154.2163  141.6123  161.7267 H   0  0  0  0  0  0  0  0  0  0  0  0
  154.7896  140.7413  160.3003 H   0  0  0  0  0  0  0  0  0  0  0  0
  153.3170  140.2159  161.1273 H   0  0  0  0  0  0  0  0  0  0  0  0
  150.6201  142.1365  156.3644 H   0  0  0  0  0  0  0  0  0  0  0  0
  151.7428  139.6547  157.5515 H   0  0  0  0  0  0  0  0  0  0  0  0
  149.5793  138.8338  157.1097 H   0  0  0  0  0  0  0  0  0  0  0  0
  149.1557  140.3154  156.2503 H   0  0  0  0  0  0  0  0  0  0  0  0
  149.2879  138.6949  154.4130 H   0  0  0  0  0  0  0  0  0  0  0  0
  150.8086  136.9890  155.9242 H   0  0  0  0  0  0  0  0  0  0  0  0
  151.1397  137.0948  154.1908 H   0  0  0  0  0  0  0  0  0  0  0  0
  152.9318  137.9881  156.3113 H   0  0  0  0  0  0  0  0  0  0  0  0
  153.1565  138.1195  154.5635 H   0  0  0  0  0  0  0  0  0  0  0  0
  152.9299  140.4784  155.2196 H   0  0  0  0  0  0  0  0  0  0  0  0
  1  2  1  0  0  0  0
  1 17  1  0  0  0  0
  1 18  1  0  0  0  0
  1 19  1  0  0  0  0
  2 16  1  0  0  0  0
  2  3  2  0  0  0  0
  3  4  1  0  0  0  0
  3 20  1  0  0  0  0
  4  5  1  0  0  0  0
  4  6  2  0  0  0  0
  5 21  1  0  0  0  0
  5 22  1  0  0  0  0
  5 23  1  0  0  0  0
  6  7  1  0  0  0  0
  7  8  1  0  0  0  0
  7 16  2  0  0  0  0
  8  9  1  0  0  0  0
  8 24  1  0  0  0  0
  9 14  1  0  0  0  0
  9 10  1  0  0  0  0
  9 25  1  0  0  0  0
 10 11  1  0  0  0  0
 10 26  1  0  0  0  0
 10 27  1  0  0  0  0
 11 15  1  0  0  0  0
 11 12  1  0  0  0  0
 11 28  1  0  0  0  0
 12 13  1  0  0  0  0
 12 29  1  0  0  0  0
 12 30  1  0  0  0  0
 13 14  1  0  0  0  0
 13 31  1  0  0  0  0
 13 32  1  0  0  0  0
 14 15  1  0  0  0  0
 14 33  1  0  0  0  0
M  END
> <s_m_source_file>
AV-unprocessed.smi

> <i_m_source_file_index>
2888

> <i_lp_mmshare_version>
43012

> <i_f3d_flags>
0

> <s_epik_input>
W0NIM11jMVtjSF1jKFtDSDNdKW5jKG4xKVtOSF1bQ0BIXShbQ0gyXVtDQEBIXTIzKVtDQEBIXShPMylbQ0gyXVtDSDJdMg==

> <s_epik_cmdline>
J2VwaWtfcHl0aG9uJywgJy1waCcsICc3LjAnLCAnLXRuJywgJzgnLCAnLW1hJywgJzIwMCcsICctbWV0YWxfYmluZGluZycsICctaW1hZScsICc8aW5maWxlLm1hZT4nLCAnLW9tYWUnLCAnPG91dGZpbGUubWFlPic=

> <r_lp_tautomer_probability>
1

> <r_epik_Ionization_Penalty>
0.00890508

> <r_epik_Ionization_Penalty_Charging>
0

> <r_epik_Ionization_Penalty_Neutral>
0.00890508

> <r_epik_State_Penalty>
0.0067342

> <r_epik_Charging_Adjusted_Penalty>
0.0067342

> <i_epik_Tot_Q>
0

> <i_epik_Tot_abs_Q>
0

> <r_epik_Metal_State_Penalty>
0.00663442

> <b_epik_Metal_Only>
0

> <s_lp_Force_Field>
OPLS_2005

> <r_lp_Energy>
31.5377

> <b_lp_Chiralities_Consistent>
1

> <s_lp_Variant>
AV-unprocessed.smi:2888-4

> <Gold.Version>
5.8.1

> <Gold.Id.Protein>
6NUR|6NUR_protein|mol2

> <Gold.PLP.Fitness>
38.4080

> <Gold.PLP.PLP>
-35.5373

> <Gold.PLP.part.hbond>
-1.0000

> <Gold.PLP.part.metal>
0.0000

> <Gold.PLP.part.buried>
-3.4645

> <Gold.PLP.part.nonpolar>
-30.9094

> <Gold.PLP.part.repulsive>
0.2737

> <Gold.PLP.ligand.clash>
0.0000

> <Gold.PLP.ligand.torsion>
0.0608

> <Gold.PLP.Chemscore.Hbond>
0.9913

> <Gold.PLP.Chemscore.CHOScore>
0.0000

> <Gold.PLP.Chemscore.Metal>
0.0000

> <Gold.Chemscore.Hbonds>
donor molecule, donor type, donor heavy atom, donor atom, acceptor molecule, acceptor atom, score
      P1  H  7989  7998       L1    15  0.93

> <Gold.PLP.Chemscore.Internal.Correction>
0.0187

> <Gold.Rescore>
     Score         DG    S(hbond)    S(metal)    S(lipo)     H(rot)  DE(clash)    DE(int)     intcor
     16.93     -17.16       0.93        0.00      95.18       1.00       0.13       0.10       ----

> <Gold.Chemscore.Fitness>
16.9256

> <Gold.Chemscore.DG>
-17.1557

> <Gold.Chemscore.ZeroCoef>
-5.4800

> <Gold.Chemscore.Hbond>
0.9279

> <Gold.Chemscore.Metal>
0.0000

> <Gold.Chemscore.Lipo>
95.1847

> <Gold.Chemscore.Internal_Hbond>
0.0000

> <Gold.Chemscore.DEClash>
0.1300

> <Gold.Chemscore.DEInternal>
0.1001

> <Gold.Chemscore.Rot>
1.0000

> <Gold.Chemscore.Internal.Correction>
   9.000000E+99

> <Gold.Chemscore.Hbonds>
donor molecule, donor type, donor heavy atom, donor atom, acceptor molecule, acceptor atom, score
      P1  H  7989  7998       L1    15  0.23

> <Gold.Chemscore.Hbond.Weighted>
-3.0991

> <Gold.Chemscore.Metal.Weighted>
-0.0000

> <Gold.Chemscore.Lipo.Weighted>
-11.1366

> <Gold.Chemscore.Internal_Hbond.Weighted>
0.0000

> <Gold.Chemscore.DEClash.Weighted>
0.1300

> <Gold.Chemscore.DEInternal.Weighted>
0.1001

> <Gold.Chemscore.Rot.Weighted>
2.5600

> <Gold.Chemscore.Internal.Correction.Weighted>
   9.000000E+99

> <Gold.Protein.RotatedTorsions>
[ 6907 6896 6895 6894 ] final  -50.88 input  -60.11 | X-H torsion
[ 7974 7965 7964 7962 ] final   53.96 input  175.53 | X-H torsion
[ 8008 7997 7996 7995 ] final   92.17 input   59.86 | X-H torsion
[ 10167 10162 10161 10158 ] final  -11.72 input  -65.29 | X-H torsion
[ 10718 10713 10712 10709 ] final  -74.12 input   66.30 | X-H torsion
[ 10763 10752 10751 10750 ] final -177.12 input  -60.55 | X-H torsion
[ 11005 11000 10999 10996 ] final  129.55 input  -57.11 | X-H torsion

> <Gold.Protein.ActiveResidues>
 VAL166  LYS551  ARG553  GLY616  TRP617  ASP618  TYR619  PRO620  LYS621  CYS622 
 ASP623  PHE694  ASN695  SER759  ASP760  ASP761  ALA762  ILE779  LEU786  VAL792 
 PHE793  MET794  SER795  GLU796  ALA797  LYS798  CYS799  TRP800  GLU811  SER814 

> <Gold.Protein.RotatedAtoms>
  150.8665  134.8029  159.7122 H   0  0  0  0  0  0  0  0  0  0  0  0  # atno 6907 bound_to 6896
  152.4684  134.5016  159.9736 H   0  0  0  0  0  0  0  0  0  0  0  0  # atno 6908 bound_to 6896
  151.5111  133.3446  159.2920 H   0  0  0  0  0  0  0  0  0  0  0  0  # atno 6909 bound_to 6896
  145.9658  139.4102  143.0220 H   0  0  0  0  0  0  0  0  0  0  0  0  # atno 7974 bound_to 7965
  156.0323  140.3328  155.7153 H   0  0  0  0  0  0  0  0  0  0  0  0  # atno 8008 bound_to 7997
  155.5866  140.0642  157.2787 H   0  0  0  0  0  0  0  0  0  0  0  0  # atno 8009 bound_to 7997
  154.4358  140.1834  156.1020 H   0  0  0  0  0  0  0  0  0  0  0  0  # atno 8010 bound_to 7997
  140.7145  143.5609  150.9197 H   0  0  0  0  0  0  0  0  0  0  0  0  # atno 10167 bound_to 10162
  156.0254  130.4409  150.2844 H   0  0  0  0  0  0  0  0  0  0  0  0  # atno 10718 bound_to 10713
  154.5640  135.2822  155.0892 H   0  0  0  0  0  0  0  0  0  0  0  0  # atno 10763 bound_to 10752
  154.2290  135.6377  153.5173 H   0  0  0  0  0  0  0  0  0  0  0  0  # atno 10764 bound_to 10752
  153.0037  135.5532  154.6242 H   0  0  0  0  0  0  0  0  0  0  0  0  # atno 10765 bound_to 10752
  139.9621  134.9599  156.9164 H   0  0  0  0  0  0  0  0  0  0  0  0  # atno 11005 bound_to 11000
  145.7976  140.9786  143.1016 LP  0  0  0  0  0  0  0  0  0  0  0  0  # atno 17320 bound_to 7965
  144.6825  139.9760  143.7483 LP  0  0  0  0  0  0  0  0  0  0  0  0  # atno 17321 bound_to 7965
  139.9334  143.6466  152.3071 LP  0  0  0  0  0  0  0  0  0  0  0  0  # atno 17342 bound_to 10162
  139.6925  144.7645  151.1414 LP  0  0  0  0  0  0  0  0  0  0  0  0  # atno 17343 bound_to 10162
  157.0948  131.0179  151.3108 LP  0  0  0  0  0  0  0  0  0  0  0  0  # atno 17370 bound_to 10713
  157.4826  130.7774  149.7429 LP  0  0  0  0  0  0  0  0  0  0  0  0  # atno 17371 bound_to 10713
  140.5476  134.0658  155.7359 LP  0  0  0  0  0  0  0  0  0  0  0  0  # atno 17394 bound_to 11000
  141.1299  133.9319  157.2557 LP  0  0  0  0  0  0  0  0  0  0  0  0  # atno 17395 bound_to 11000

$$$$
