AV-unprocessed.smi:1017|AV-procd|sdf|4439|dock4
  -GOLD-   22720 2403D 1   1.00000     0.00000
 Structure written by MMmdl.
 43 44  0  0  0  0  0  0  0  0  2 V2000
  152.4272  144.5578  158.5627 C   0  0  0  0  0  0  0  0  0  0  0  0
  151.5253  143.6121  158.0100 O   0  0  0  0  0  0  0  0  0  0  0  0
  151.8403  142.2618  158.3205 C   0  0  0  0  0  0  0  0  0  0  0  0
  151.1083  141.2733  157.3919 C   0  0  0  0  0  0  0  0  0  0  0  0
  151.0407  139.9332  157.9830 N   0  0  0  0  0  0  0  0  0  0  0  0
  149.7566  139.4272  158.0914 N   0  0  0  0  0  0  0  0  0  0  0  0
  149.5553  138.2500  158.5898 C   0  0  0  0  0  0  0  0  0  0  0  0
  148.1666  137.7022  158.7092 C   0  0  0  0  0  0  0  0  0  0  0  0
  147.5010  137.7218  157.6670 O   0  0  0  0  0  0  0  0  0  0  0  0
  147.7408  137.2326  159.9220 N   0  5  0  0  0  0  0  0  0  0  0  0
  147.1849  135.9048  160.2690 C   0  0  0  0  0  0  0  0  0  0  0  0
  146.8868  135.9512  161.8013 C   0  0  0  0  0  0  0  0  0  0  0  0
  146.3717  134.8127  162.2610 F   0  0  0  0  0  0  0  0  0  0  0  0
  148.0069  136.1912  162.4872 F   0  0  0  0  0  0  0  0  0  0  0  0
  146.0181  136.9263  162.0788 F   0  0  0  0  0  0  0  0  0  0  0  0
  145.8819  135.6398  159.4442 C   0  0  0  0  0  0  0  0  0  0  0  0
  145.3444  134.1875  159.5071 C   0  0  0  0  0  0  0  0  0  0  0  0
  146.4108  133.1437  159.1223 C   0  0  0  0  0  0  0  0  0  0  0  0
  147.6722  133.3354  159.9865 C   0  0  0  0  0  0  0  0  0  0  0  0
  148.2217  134.7835  159.9273 C   0  0  0  0  0  0  0  0  0  0  0  0
  150.6798  137.4398  159.0436 C   0  0  0  0  0  0  0  0  0  0  0  0
  151.9265  137.9471  158.9302 C   0  0  0  0  0  0  0  0  0  0  0  0
  152.1743  139.2747  158.3683 C   0  0  0  0  0  0  0  0  0  0  0  0
  153.3011  139.7559  158.2492 O   0  0  0  0  0  0  0  0  0  0  0  0
  152.1459  145.5589  158.2360 H   0  0  0  0  0  0  0  0  0  0  0  0
  153.4489  144.3731  158.2283 H   0  0  0  0  0  0  0  0  0  0  0  0
  152.4080  144.5496  159.6524 H   0  0  0  0  0  0  0  0  0  0  0  0
  152.9160  142.1419  158.1874 H   0  0  0  0  0  0  0  0  0  0  0  0
  151.6355  142.0523  159.3715 H   0  0  0  0  0  0  0  0  0  0  0  0
  150.1018  141.6242  157.1612 H   0  0  0  0  0  0  0  0  0  0  0  0
  151.6271  141.2301  156.4325 H   0  0  0  0  0  0  0  0  0  0  0  0
  145.0966  136.3300  159.7539 H   0  0  0  0  0  0  0  0  0  0  0  0
  146.0532  135.8548  158.3902 H   0  0  0  0  0  0  0  0  0  0  0  0
  144.9473  133.9625  160.4971 H   0  0  0  0  0  0  0  0  0  0  0  0
  144.4946  134.0942  158.8303 H   0  0  0  0  0  0  0  0  0  0  0  0
  146.0168  132.1342  159.2416 H   0  0  0  0  0  0  0  0  0  0  0  0
  146.6697  133.2584  158.0690 H   0  0  0  0  0  0  0  0  0  0  0  0
  147.4640  133.0403  161.0150 H   0  0  0  0  0  0  0  0  0  0  0  0
  148.4459  132.6480  159.6433 H   0  0  0  0  0  0  0  0  0  0  0  0
  148.6064  134.9204  158.9176 H   0  0  0  0  0  0  0  0  0  0  0  0
  149.0913  134.8673  160.5794 H   0  0  0  0  0  0  0  0  0  0  0  0
  150.5386  136.4550  159.4639 H   0  0  0  0  0  0  0  0  0  0  0  0
  152.7662  137.3555  159.2635 H   0  0  0  0  0  0  0  0  0  0  0  0
  1  2  1  0  0  0  0
  1 25  1  0  0  0  0
  1 26  1  0  0  0  0
  1 27  1  0  0  0  0
  2  3  1  0  0  0  0
  3  4  1  0  0  0  0
  3 28  1  0  0  0  0
  3 29  1  0  0  0  0
  4  5  1  0  0  0  0
  4 30  1  0  0  0  0
  4 31  1  0  0  0  0
  5 23  1  0  0  0  0
  5  6  1  0  0  0  0
  6  7  2  0  0  0  0
  7  8  1  0  0  0  0
  7 21  1  0  0  0  0
  8  9  2  0  0  0  0
  8 10  1  0  0  0  0
 10 11  1  0  0  0  0
 11 20  1  0  0  0  0
 11 12  1  0  0  0  0
 11 16  1  0  0  0  0
 12 13  1  0  0  0  0
 12 14  1  0  0  0  0
 12 15  1  0  0  0  0
 16 17  1  0  0  0  0
 16 32  1  0  0  0  0
 16 33  1  0  0  0  0
 17 18  1  0  0  0  0
 17 34  1  0  0  0  0
 17 35  1  0  0  0  0
 18 19  1  0  0  0  0
 18 36  1  0  0  0  0
 18 37  1  0  0  0  0
 19 20  1  0  0  0  0
 19 38  1  0  0  0  0
 19 39  1  0  0  0  0
 20 40  1  0  0  0  0
 20 41  1  0  0  0  0
 21 22  2  0  0  0  0
 21 42  1  0  0  0  0
 22 23  1  0  0  0  0
 22 43  1  0  0  0  0
 23 24  2  0  0  0  0
M  CHG  1  10  -1
M  END
> <s_m_source_file>
AV-unprocessed.smi

> <i_m_source_file_index>
1017

> <i_lp_mmshare_version>
43012

> <i_f3d_flags>
0

> <s_epik_input>
W0NIM11PW0NIMl1bQ0gyXW4xbmMoW2NIXVtjSF1jMT1PKUMoPU8pW05IXUMyKEMoRikoRilGKVtDSDJdW0NIMl1bQ0gyXVtDSDJdW0NIMl0y

> <s_epik_cmdline>
J2VwaWtfcHl0aG9uJywgJy1waCcsICc3LjAnLCAnLXRuJywgJzgnLCAnLW1hJywgJzIwMCcsICctbWV0YWxfYmluZGluZycsICctaW1hZScsICc8aW5maWxlLm1hZT4nLCAnLW9tYWUnLCAnPG91dGZpbGUubWFlPic=

> <r_lp_tautomer_probability>
1

> <r_epik_Ionization_Penalty>
6.5547

> <r_epik_Ionization_Penalty_Charging>
6.5547

> <r_epik_Ionization_Penalty_Neutral>
1.08437e-11

> <r_epik_State_Penalty>
6.55469

> <r_epik_Charging_Adjusted_Penalty>
13.1094

> <i_epik_Tot_Q>
-1

> <i_epik_Tot_abs_Q>
1

> <r_epik_Metal_State_Penalty>
2.48023

> <b_epik_Metal_Only>
1

> <s_lp_Force_Field>
OPLS_2005

> <r_lp_Energy>
56.1946

> <b_lp_Chiralities_Consistent>
1

> <s_lp_Variant>
AV-unprocessed.smi:1017-2

> <Gold.Version>
5.8.1

> <Gold.Id.Protein>
6NUR|6NUR_protein|mol2

> <Gold.PLP.Fitness>
42.0991

> <Gold.PLP.PLP>
-36.8703

> <Gold.PLP.part.hbond>
-2.6956

> <Gold.PLP.part.metal>
0.0000

> <Gold.PLP.part.buried>
-4.2351

> <Gold.PLP.part.nonpolar>
-30.7514

> <Gold.PLP.part.repulsive>
0.1039

> <Gold.PLP.ligand.clash>
0.0000

> <Gold.PLP.ligand.torsion>
1.6355

> <Gold.PLP.Chemscore.Hbond>
2.7950

> <Gold.PLP.Chemscore.CHOScore>
0.0000

> <Gold.PLP.Chemscore.Metal>
0.0000

> <Gold.Chemscore.Hbonds>
donor molecule, donor type, donor heavy atom, donor atom, acceptor molecule, acceptor atom, score
      P1  H  6934  6947       L1    10  1.27
      P1  H  7997  8010       L1    24  1.00

> <Gold.PLP.Chemscore.Internal.Correction>
0.1146

> <Gold.Rescore>
     Score         DG    S(hbond)    S(metal)    S(lipo)     H(rot)  DE(clash)    DE(int)     intcor
     11.15     -15.14       1.61        0.00      73.09       1.67       0.16       3.83       ----

> <Gold.Chemscore.Fitness>
11.1539

> <Gold.Chemscore.DG>
-15.1446

> <Gold.Chemscore.ZeroCoef>
-5.4800

> <Gold.Chemscore.Hbond>
1.6100

> <Gold.Chemscore.Metal>
0.0000

> <Gold.Chemscore.Lipo>
73.0868

> <Gold.Chemscore.Internal_Hbond>
0.0000

> <Gold.Chemscore.DEClash>
0.1584

> <Gold.Chemscore.DEInternal>
3.8322

> <Gold.Chemscore.Rot>
1.6657

> <Gold.Chemscore.Internal.Correction>
   9.000000E+99

> <Gold.Chemscore.Hbonds>
donor molecule, donor type, donor heavy atom, donor atom, acceptor molecule, acceptor atom, score
      P1  H  6934  6947       L1    10  0.19
      P1  H  7997  8010       L1    24  0.99

> <Gold.Chemscore.Hbond.Weighted>
-5.3775

> <Gold.Chemscore.Metal.Weighted>
-0.0000

> <Gold.Chemscore.Lipo.Weighted>
-8.5512

> <Gold.Chemscore.Internal_Hbond.Weighted>
0.0000

> <Gold.Chemscore.DEClash.Weighted>
0.1584

> <Gold.Chemscore.DEInternal.Weighted>
3.8322

> <Gold.Chemscore.Rot.Weighted>
4.2641

> <Gold.Chemscore.Internal.Correction.Weighted>
   9.000000E+99

> <Gold.Protein.RotatedTorsions>
[ 6907 6896 6895 6894 ] final  162.09 input  -60.11 | X-H torsion
[ 7974 7965 7964 7962 ] final  155.87 input  175.53 | X-H torsion
[ 8008 7997 7996 7995 ] final   22.68 input   59.86 | X-H torsion
[ 10167 10162 10161 10158 ] final  -90.54 input  -65.29 | X-H torsion
[ 10718 10713 10712 10709 ] final -149.09 input   66.30 | X-H torsion
[ 10763 10752 10751 10750 ] final  100.75 input  -60.55 | X-H torsion
[ 11005 11000 10999 10996 ] final  -18.20 input  -57.11 | X-H torsion

> <Gold.Protein.ActiveResidues>
 VAL166  LYS551  ARG553  GLY616  TRP617  ASP618  TYR619  PRO620  LYS621  CYS622 
 ASP623  PHE694  ASN695  SER759  ASP760  ASP761  ALA762  ILE779  LEU786  VAL792 
 PHE793  MET794  SER795  GLU796  ALA797  LYS798  CYS799  TRP800  GLU811  SER814 

> <Gold.Protein.RotatedAtoms>
  151.9458  133.3651  159.3981 H   0  0  0  0  0  0  0  0  0  0  0  0  # atno 6907 bound_to 6896
  150.6990  134.4392  159.5293 H   0  0  0  0  0  0  0  0  0  0  0  0  # atno 6908 bound_to 6896
  152.2057  134.8548  160.0554 H   0  0  0  0  0  0  0  0  0  0  0  0  # atno 6909 bound_to 6896
  144.7998  139.7126  143.6186 H   0  0  0  0  0  0  0  0  0  0  0  0  # atno 7974 bound_to 7965
  154.9694  140.3088  155.4995 H   0  0  0  0  0  0  0  0  0  0  0  0  # atno 8008 bound_to 7997
  156.2967  140.2286  156.4724 H   0  0  0  0  0  0  0  0  0  0  0  0  # atno 8009 bound_to 7997
  154.7891  140.0441  157.1175 H   0  0  0  0  0  0  0  0  0  0  0  0  # atno 8010 bound_to 7997
  140.3539  143.2877  151.9694 H   0  0  0  0  0  0  0  0  0  0  0  0  # atno 10167 bound_to 10162
  156.4286  130.8064  151.2290 H   0  0  0  0  0  0  0  0  0  0  0  0  # atno 10718 bound_to 10713
  153.3179  135.4068  155.1392 H   0  0  0  0  0  0  0  0  0  0  0  0  # atno 10763 bound_to 10752
  154.8593  135.3580  154.5635 H   0  0  0  0  0  0  0  0  0  0  0  0  # atno 10764 bound_to 10752
  153.6067  135.7069  153.5421 H   0  0  0  0  0  0  0  0  0  0  0  0  # atno 10765 bound_to 10752
  140.8244  133.8044  155.9693 H   0  0  0  0  0  0  0  0  0  0  0  0  # atno 11005 bound_to 11000
  146.2276  139.5753  142.9576 LP  0  0  0  0  0  0  0  0  0  0  0  0  # atno 17320 bound_to 7965
  145.5582  141.0407  143.2241 LP  0  0  0  0  0  0  0  0  0  0  0  0  # atno 17321 bound_to 7965
  139.4822  144.6052  151.7534 LP  0  0  0  0  0  0  0  0  0  0  0  0  # atno 17342 bound_to 10162
  140.5192  144.0905  150.6017 LP  0  0  0  0  0  0  0  0  0  0  0  0  # atno 17343 bound_to 10162
  157.7508  131.0205  150.3712 LP  0  0  0  0  0  0  0  0  0  0  0  0  # atno 17370 bound_to 10713
  156.4045  130.3922  149.6936 LP  0  0  0  0  0  0  0  0  0  0  0  0  # atno 17371 bound_to 10713
  140.9065  134.2314  157.5011 LP  0  0  0  0  0  0  0  0  0  0  0  0  # atno 17394 bound_to 11000
  139.8707  134.9730  156.4795 LP  0  0  0  0  0  0  0  0  0  0  0  0  # atno 17395 bound_to 11000

$$$$
