AV-unprocessed.smi:2380|AV-procd|sdf|9455|dock2
  -GOLD-   2272013 83D 1   1.00000     0.00000
 Structure written by MMmdl.
 42 43  0  0  0  0  0  0  0  0  2 V2000
  152.6236  144.2247  161.8722 C   0  0  0  0  0  0  0  0  0  0  0  0
  152.6825  143.1485  160.8084 C   0  0  0  0  0  0  0  0  0  0  0  0
  153.6102  142.0934  160.8997 C   0  0  0  0  0  0  0  0  0  0  0  0
  153.6170  141.1240  159.8776 C   0  0  0  0  0  0  0  0  0  0  0  0
  154.5890  139.9632  159.9110 C   0  0  0  0  0  0  0  0  0  0  0  0
  152.7795  141.1633  158.8193 N   0  0  0  0  0  0  0  0  0  0  0  0
  151.8830  142.1759  158.7202 C   0  0  0  0  0  0  0  0  0  0  0  0
  150.9610  142.3092  157.6480 N   0  0  0  0  0  0  0  0  0  0  0  0
  150.7055  141.4344  156.6594 C   0  0  0  0  0  0  0  0  0  0  0  0
  151.2435  140.3354  156.5214 O   0  0  0  0  0  0  0  0  0  0  0  0
  149.7753  141.9091  155.8178 N   0  0  0  0  0  0  0  0  0  0  0  0
  149.2709  141.2039  154.6431 C   0  0  2  0  0  0  0  0  0  0  0  0
  147.9471  141.8223  154.1537 C   0  0  0  0  0  0  0  0  0  0  0  0
  147.3617  141.0227  152.9777 C   0  0  0  0  0  0  0  0  0  0  0  0
  147.1773  139.5956  153.3410 N   0  3  1  0  0  0  0  0  0  0  0  0
  146.5079  138.8248  152.2713 C   0  0  0  0  0  0  0  0  0  0  0  0
  148.4469  138.9652  153.7813 C   0  0  0  0  0  0  0  0  0  0  0  0
  149.0528  139.7191  154.9772 C   0  0  0  0  0  0  0  0  0  0  0  0
  151.8095  143.1888  159.7026 C   0  0  0  0  0  0  0  0  0  0  0  0
  153.1456  143.9129  162.7774 H   0  0  0  0  0  0  0  0  0  0  0  0
  151.5889  144.4447  162.1366 H   0  0  0  0  0  0  0  0  0  0  0  0
  153.0877  145.1404  161.5059 H   0  0  0  0  0  0  0  0  0  0  0  0
  154.2982  142.0293  161.7302 H   0  0  0  0  0  0  0  0  0  0  0  0
  155.1128  139.9140  160.8659 H   0  0  0  0  0  0  0  0  0  0  0  0
  155.3306  140.0697  159.1189 H   0  0  0  0  0  0  0  0  0  0  0  0
  154.0624  139.0197  159.7645 H   0  0  0  0  0  0  0  0  0  0  0  0
  150.4381  143.1720  157.6322 H   0  0  0  0  0  0  0  0  0  0  0  0
  149.3851  142.8210  156.0065 H   0  0  0  0  0  0  0  0  0  0  0  0
  150.0124  141.2693  153.8442 H   0  0  0  0  0  0  0  0  0  0  0  0
  147.2245  141.8477  154.9708 H   0  0  0  0  0  0  0  0  0  0  0  0
  148.1032  142.8576  153.8477 H   0  0  0  0  0  0  0  0  0  0  0  0
  146.4023  141.4531  152.6878 H   0  0  0  0  0  0  0  0  0  0  0  0
  148.0187  141.0973  152.1095 H   0  0  0  0  0  0  0  0  0  0  0  0
  147.1192  138.7961  151.3682 H   0  0  0  0  0  0  0  0  0  0  0  0
  145.5454  139.2713  152.0194 H   0  0  0  0  0  0  0  0  0  0  0  0
  146.3238  137.7992  152.5931 H   0  0  0  0  0  0  0  0  0  0  0  0
  148.2618  137.9276  154.0618 H   0  0  0  0  0  0  0  0  0  0  0  0
  149.1545  138.9484  152.9506 H   0  0  0  0  0  0  0  0  0  0  0  0
  149.9982  139.2564  155.2631 H   0  0  0  0  0  0  0  0  0  0  0  0
  148.3891  139.6248  155.8383 H   0  0  0  0  0  0  0  0  0  0  0  0
  151.0915  143.9913  159.6117 H   0  0  0  0  0  0  0  0  0  0  0  0
  146.5562  139.5792  154.1373 H   0  0  0  0  0  0  0  0  0  0  0  0
  1  2  1  0  0  0  0
  1 20  1  0  0  0  0
  1 21  1  0  0  0  0
  1 22  1  0  0  0  0
  2 19  1  0  0  0  0
  2  3  2  0  0  0  0
  3  4  1  0  0  0  0
  3 23  1  0  0  0  0
  4  5  1  0  0  0  0
  4  6  2  0  0  0  0
  5 24  1  0  0  0  0
  5 25  1  0  0  0  0
  5 26  1  0  0  0  0
  6  7  1  0  0  0  0
  7  8  1  0  0  0  0
  7 19  2  0  0  0  0
  8  9  1  0  0  0  0
  8 27  1  0  0  0  0
  9 10  2  0  0  0  0
  9 11  1  0  0  0  0
 11 12  1  0  0  0  0
 11 28  1  0  0  0  0
 12 18  1  0  0  0  0
 12 13  1  0  0  0  0
 12 29  1  0  0  0  0
 13 14  1  0  0  0  0
 13 30  1  0  0  0  0
 13 31  1  0  0  0  0
 14 15  1  0  0  0  0
 14 32  1  0  0  0  0
 14 33  1  0  0  0  0
 15 16  1  0  0  0  0
 15 17  1  0  0  0  0
 15 42  1  0  0  0  0
 16 34  1  0  0  0  0
 16 35  1  0  0  0  0
 16 36  1  0  0  0  0
 17 18  1  0  0  0  0
 17 37  1  0  0  0  0
 17 38  1  0  0  0  0
 18 39  1  0  0  0  0
 18 40  1  0  0  0  0
 19 41  1  0  0  0  0
M  CHG  1  15   1
M  END
> <s_m_source_file>
AV-unprocessed.smi

> <i_m_source_file_index>
2380

> <i_lp_mmshare_version>
43012

> <i_f3d_flags>
0

> <s_epik_input>
W0NIM11jMVtjSF1jKFtDSDNdKW5jKFtjSF0xKVtOSF1DKD1PKVtOSF1bQ0hdMltDSDJdW0NIMl1OKFtDSDNdKVtDSDJdW0NIMl0y

> <s_epik_cmdline>
J2VwaWtfcHl0aG9uJywgJy1waCcsICc3LjAnLCAnLXRuJywgJzgnLCAnLW1hJywgJzIwMCcsICctbWV0YWxfYmluZGluZycsICctaW1hZScsICc8aW5maWxlLm1hZT4nLCAnLW9tYWUnLCAnPG91dGZpbGUubWFlPic=

> <r_epik_Ionization_Penalty>
0.00385557

> <r_epik_Ionization_Penalty_Charging>
0.00366825

> <r_epik_Ionization_Penalty_Neutral>
0.000187322

> <r_epik_State_Penalty>
0.00261101

> <r_epik_Charging_Adjusted_Penalty>
0.00627926

> <i_epik_Tot_Q>
1

> <i_epik_Tot_abs_Q>
1

> <r_epik_Metal_State_Penalty>
-0

> <b_epik_Metal_Only>
0

> <s_lp_Force_Field>
OPLS_2005

> <r_lp_Energy>
16.3452

> <b_lp_Chiralities_Consistent>
1

> <s_lp_Variant>
AV-unprocessed.smi:2380-1

> <Gold.Version>
5.8.1

> <Gold.Id.Protein>
6NUR|6NUR_protein|mol2

> <Gold.PLP.Fitness>
41.6164

> <Gold.PLP.PLP>
-39.1945

> <Gold.PLP.part.hbond>
-1.2075

> <Gold.PLP.part.metal>
0.0000

> <Gold.PLP.part.buried>
-3.7780

> <Gold.PLP.part.nonpolar>
-35.0307

> <Gold.PLP.part.repulsive>
0.1544

> <Gold.PLP.ligand.clash>
0.0000

> <Gold.PLP.ligand.torsion>
0.2536

> <Gold.PLP.Chemscore.Hbond>
0.9760

> <Gold.PLP.Chemscore.CHOScore>
0.0000

> <Gold.PLP.Chemscore.Metal>
0.0000

> <Gold.Chemscore.Hbonds>
donor molecule, donor type, donor heavy atom, donor atom, acceptor molecule, acceptor atom, score
      L1  H    11    28       P1  8028  1.00

> <Gold.PLP.Chemscore.Internal.Correction>
0.0010

> <Gold.Rescore>
     Score         DG    S(hbond)    S(metal)    S(lipo)     H(rot)  DE(clash)    DE(int)     intcor
     15.09     -18.75       0.97        0.00     107.50       1.00       0.69       2.97       ----

> <Gold.Chemscore.Fitness>
15.0910

> <Gold.Chemscore.DG>
-18.7465

> <Gold.Chemscore.ZeroCoef>
-5.4800

> <Gold.Chemscore.Hbond>
0.9726

> <Gold.Chemscore.Metal>
0.0000

> <Gold.Chemscore.Lipo>
107.5037

> <Gold.Chemscore.Internal_Hbond>
0.0000

> <Gold.Chemscore.DEClash>
0.6883

> <Gold.Chemscore.DEInternal>
2.9672

> <Gold.Chemscore.Rot>
1.0000

> <Gold.Chemscore.Internal.Correction>
   9.000000E+99

> <Gold.Chemscore.Hbonds>
donor molecule, donor type, donor heavy atom, donor atom, acceptor molecule, acceptor atom, score
      L1  H    11    28       P1  8028  0.96

> <Gold.Chemscore.Hbond.Weighted>
-3.2485

> <Gold.Chemscore.Metal.Weighted>
-0.0000

> <Gold.Chemscore.Lipo.Weighted>
-12.5779

> <Gold.Chemscore.Internal_Hbond.Weighted>
0.0000

> <Gold.Chemscore.DEClash.Weighted>
0.6883

> <Gold.Chemscore.DEInternal.Weighted>
2.9672

> <Gold.Chemscore.Rot.Weighted>
2.5600

> <Gold.Chemscore.Internal.Correction.Weighted>
   9.000000E+99

> <Gold.Protein.RotatedTorsions>
[ 6907 6896 6895 6894 ] final  -82.54 input  -60.11 | X-H torsion
[ 7974 7965 7964 7962 ] final  -19.42 input  175.53 | X-H torsion
[ 8008 7997 7996 7995 ] final  109.36 input   59.86 | X-H torsion
[ 10167 10162 10161 10158 ] final   44.09 input  -65.29 | X-H torsion
[ 10718 10713 10712 10709 ] final  -86.20 input   66.30 | X-H torsion
[ 10763 10752 10751 10750 ] final -102.35 input  -60.55 | X-H torsion
[ 11005 11000 10999 10996 ] final  -89.31 input  -57.11 | X-H torsion

> <Gold.Protein.ActiveResidues>
 VAL166  LYS551  ARG553  GLY616  TRP617  ASP618  TYR619  PRO620  LYS621  CYS622 
 ASP623  PHE694  ASN695  SER759  ASP760  ASP761  ALA762  ILE779  LEU786  VAL792 
 PHE793  MET794  SER795  GLU796  ALA797  LYS798  CYS799  TRP800  GLU811  SER814 

> <Gold.Protein.RotatedAtoms>
  150.6896  134.3649  159.4966 H   0  0  0  0  0  0  0  0  0  0  0  0  # atno 6907 bound_to 6896
  152.1473  134.9013  160.0559 H   0  0  0  0  0  0  0  0  0  0  0  0  # atno 6908 bound_to 6896
  152.0124  133.3832  159.4262 H   0  0  0  0  0  0  0  0  0  0  0  0  # atno 6909 bound_to 6896
  146.1842  140.4059  142.8482 H   0  0  0  0  0  0  0  0  0  0  0  0  # atno 7974 bound_to 7965
  156.1973  140.3059  155.9454 H   0  0  0  0  0  0  0  0  0  0  0  0  # atno 8008 bound_to 7997
  155.3035  140.0447  157.3048 H   0  0  0  0  0  0  0  0  0  0  0  0  # atno 8009 bound_to 7997
  154.5526  140.2296  155.8469 H   0  0  0  0  0  0  0  0  0  0  0  0  # atno 8010 bound_to 7997
  140.3378  144.2508  150.6159 H   0  0  0  0  0  0  0  0  0  0  0  0  # atno 10167 bound_to 10162
  155.9991  130.4757  150.4679 H   0  0  0  0  0  0  0  0  0  0  0  0  # atno 10718 bound_to 10713
  154.7727  135.4864  153.9681 H   0  0  0  0  0  0  0  0  0  0  0  0  # atno 10763 bound_to 10752
  153.1388  135.6768  153.9067 H   0  0  0  0  0  0  0  0  0  0  0  0  # atno 10764 bound_to 10752
  153.8748  135.3139  155.3422 H   0  0  0  0  0  0  0  0  0  0  0  0  # atno 10765 bound_to 10752
  141.1587  133.7622  156.9576 H   0  0  0  0  0  0  0  0  0  0  0  0  # atno 11005 bound_to 11000
  144.8368  140.6795  143.6255 LP  0  0  0  0  0  0  0  0  0  0  0  0  # atno 17320 bound_to 7965
  145.3987  139.1602  143.4189 LP  0  0  0  0  0  0  0  0  0  0  0  0  # atno 17321 bound_to 7965
  140.5337  143.2238  151.8197 LP  0  0  0  0  0  0  0  0  0  0  0  0  # atno 17342 bound_to 10162
  139.4845  144.4688  151.9451 LP  0  0  0  0  0  0  0  0  0  0  0  0  # atno 17343 bound_to 10162
  157.2697  131.0584  151.2268 LP  0  0  0  0  0  0  0  0  0  0  0  0  # atno 17370 bound_to 10713
  157.3353  130.7005  149.6349 LP  0  0  0  0  0  0  0  0  0  0  0  0  # atno 17371 bound_to 10713
  140.1215  134.9414  157.2209 LP  0  0  0  0  0  0  0  0  0  0  0  0  # atno 17394 bound_to 11000
  140.3067  134.3070  155.7276 LP  0  0  0  0  0  0  0  0  0  0  0  0  # atno 17395 bound_to 11000

$$$$
