AV-unprocessed.smi:2381|AV-procd|sdf|9457|dock10
  -GOLD-   2272013 83D 1   1.00000     0.00000
 Structure written by MMmdl.
 30 31  0  0  0  0  0  0  0  0  1 V2000
  153.4769  145.0370  157.3363 C   0  0  0  0  0  0  0  0  0  0  0  0
  152.5135  144.4389  158.3401 C   0  0  0  0  0  0  0  0  0  0  0  0
  152.9612  143.5375  159.3248 C   0  0  0  0  0  0  0  0  0  0  0  0
  152.0158  143.0172  160.2277 C   0  0  0  0  0  0  0  0  0  0  0  0
  150.7060  143.3399  160.1939 N   0  0  0  0  0  0  0  0  0  0  0  0
  150.2621  144.2067  159.2495 C   0  0  0  0  0  0  0  0  0  0  0  0
  148.9055  144.6090  159.1234 N   0  0  0  0  0  0  0  0  0  0  0  0
  147.9117  144.4737  160.0193 C   0  0  0  0  0  0  0  0  0  0  0  0
  148.0260  143.9786  161.1412 O   0  0  0  0  0  0  0  0  0  0  0  0
  146.7550  144.9515  159.5379 N   0  0  0  0  0  0  0  0  0  0  0  0
  145.4864  144.9437  160.2552 C   0  0  0  0  0  0  0  0  0  0  0  0
  145.2704  143.7462  161.1616 C   0  0  0  0  0  0  0  0  0  0  0  0
  144.4169  142.5793  160.7226 C   0  0  0  0  0  0  0  0  0  0  0  0
  143.9262  143.5073  161.8080 C   0  0  0  0  0  0  0  0  0  0  0  0
  151.1453  144.7760  158.3042 C   0  0  0  0  0  0  0  0  0  0  0  0
  154.4974  144.6974  157.5151 H   0  0  0  0  0  0  0  0  0  0  0  0
  153.4633  146.1253  157.4015 H   0  0  0  0  0  0  0  0  0  0  0  0
  153.1937  144.7493  156.3237 H   0  0  0  0  0  0  0  0  0  0  0  0
  154.0000  143.2492  159.3911 H   0  0  0  0  0  0  0  0  0  0  0  0
  152.3193  142.3232  160.9973 H   0  0  0  0  0  0  0  0  0  0  0  0
  148.6615  145.0424  158.2454 H   0  0  0  0  0  0  0  0  0  0  0  0
  146.7491  145.3421  158.6073 H   0  0  0  0  0  0  0  0  0  0  0  0
  145.4012  145.8529  160.8526 H   0  0  0  0  0  0  0  0  0  0  0  0
  144.6821  144.9869  159.5202 H   0  0  0  0  0  0  0  0  0  0  0  0
  146.1311  143.5048  161.7825 H   0  0  0  0  0  0  0  0  0  0  0  0
  143.9309  142.6420  159.7509 H   0  0  0  0  0  0  0  0  0  0  0  0
  144.7385  141.5831  161.0192 H   0  0  0  0  0  0  0  0  0  0  0  0
  143.9205  143.1296  162.8285 H   0  0  0  0  0  0  0  0  0  0  0  0
  143.1136  144.1864  161.5574 H   0  0  0  0  0  0  0  0  0  0  0  0
  150.7798  145.4653  157.5565 H   0  0  0  0  0  0  0  0  0  0  0  0
  1  2  1  0  0  0  0
  1 16  1  0  0  0  0
  1 17  1  0  0  0  0
  1 18  1  0  0  0  0
  2 15  1  0  0  0  0
  2  3  2  0  0  0  0
  3  4  1  0  0  0  0
  3 19  1  0  0  0  0
  4  5  2  0  0  0  0
  4 20  1  0  0  0  0
  5  6  1  0  0  0  0
  6  7  1  0  0  0  0
  6 15  2  0  0  0  0
  7  8  1  0  0  0  0
  7 21  1  0  0  0  0
  8  9  2  0  0  0  0
  8 10  1  0  0  0  0
 10 11  1  0  0  0  0
 10 22  1  0  0  0  0
 11 12  1  0  0  0  0
 11 23  1  0  0  0  0
 11 24  1  0  0  0  0
 12 14  1  0  0  0  0
 12 13  1  0  0  0  0
 12 25  1  0  0  0  0
 13 14  1  0  0  0  0
 13 26  1  0  0  0  0
 13 27  1  0  0  0  0
 14 28  1  0  0  0  0
 14 29  1  0  0  0  0
 15 30  1  0  0  0  0
M  END
> <s_m_source_file>
AV-unprocessed.smi

> <i_m_source_file_index>
2381

> <i_lp_mmshare_version>
43012

> <i_f3d_flags>
0

> <s_epik_input>
W0NIM11jMVtjSF1bY0hdbmMoW2NIXTEpW05IXUMoPU8pW05IXVtDSDJdW0NIXTJbQ0gyXVtDSDJdMg==

> <s_epik_cmdline>
J2VwaWtfcHl0aG9uJywgJy1waCcsICc3LjAnLCAnLXRuJywgJzgnLCAnLW1hJywgJzIwMCcsICctbWV0YWxfYmluZGluZycsICctaW1hZScsICc8aW5maWxlLm1hZT4nLCAnLW9tYWUnLCAnPG91dGZpbGUubWFlPic=

> <r_lp_tautomer_probability>
1

> <r_epik_Ionization_Penalty>
9.40607e-05

> <r_epik_Ionization_Penalty_Charging>
0

> <r_epik_Ionization_Penalty_Neutral>
9.40607e-05

> <r_epik_State_Penalty>
-0

> <r_epik_Charging_Adjusted_Penalty>
0

> <i_epik_Tot_Q>
0

> <i_epik_Tot_abs_Q>
0

> <r_epik_Metal_State_Penalty>
-0

> <b_epik_Metal_Only>
0

> <s_lp_Force_Field>
OPLS_2005

> <r_lp_Energy>
14.347

> <b_lp_Chiralities_Consistent>
1

> <s_lp_Variant>
AV-unprocessed.smi:2381-1

> <Gold.Version>
5.8.1

> <Gold.Id.Protein>
6NUR|6NUR_protein|mol2

> <Gold.PLP.Fitness>
45.1327

> <Gold.PLP.PLP>
-37.1954

> <Gold.PLP.part.hbond>
-4.0000

> <Gold.PLP.part.metal>
0.0000

> <Gold.PLP.part.buried>
-6.0428

> <Gold.PLP.part.nonpolar>
-28.3506

> <Gold.PLP.part.repulsive>
0.5299

> <Gold.PLP.ligand.clash>
0.0000

> <Gold.PLP.ligand.torsion>
0.5346

> <Gold.PLP.Chemscore.Hbond>
2.8240

> <Gold.PLP.Chemscore.CHOScore>
0.0000

> <Gold.PLP.Chemscore.Metal>
0.0000

> <Gold.Chemscore.Hbonds>
donor molecule, donor type, donor heavy atom, donor atom, acceptor molecule, acceptor atom, score
      L1  H     7    21       P1  8029  0.99
      L1  H    10    22       P1  8029  0.86
      P1  H  6933  6944       L1     9  1.00

> <Gold.PLP.Chemscore.Internal.Correction>
0.5344

> <Gold.Rescore>
     Score         DG    S(hbond)    S(metal)    S(lipo)     H(rot)  DE(clash)    DE(int)     intcor
     19.21     -22.34       2.76        0.00      91.43       1.20       1.57       1.56       ----

> <Gold.Chemscore.Fitness>
19.2138

> <Gold.Chemscore.DG>
-22.3446

> <Gold.Chemscore.ZeroCoef>
-5.4800

> <Gold.Chemscore.Hbond>
2.7633

> <Gold.Chemscore.Metal>
0.0000

> <Gold.Chemscore.Lipo>
91.4310

> <Gold.Chemscore.Internal_Hbond>
0.0000

> <Gold.Chemscore.DEClash>
1.5688

> <Gold.Chemscore.DEInternal>
1.5620

> <Gold.Chemscore.Rot>
1.1962

> <Gold.Chemscore.Internal.Correction>
   9.000000E+99

> <Gold.Chemscore.Hbonds>
donor molecule, donor type, donor heavy atom, donor atom, acceptor molecule, acceptor atom, score
      L1  H     7    21       P1  8029  0.79
      L1  H    10    22       P1  8029  0.85
      P1  H  6933  6944       L1     9  0.99

> <Gold.Chemscore.Hbond.Weighted>
-9.2294

> <Gold.Chemscore.Metal.Weighted>
-0.0000

> <Gold.Chemscore.Lipo.Weighted>
-10.6974

> <Gold.Chemscore.Internal_Hbond.Weighted>
0.0000

> <Gold.Chemscore.DEClash.Weighted>
1.5688

> <Gold.Chemscore.DEInternal.Weighted>
1.5620

> <Gold.Chemscore.Rot.Weighted>
3.0622

> <Gold.Chemscore.Internal.Correction.Weighted>
   9.000000E+99

> <Gold.Protein.RotatedTorsions>
[ 6907 6896 6895 6894 ] final  -71.07 input  -60.11 | X-H torsion
[ 7974 7965 7964 7962 ] final  128.00 input  175.53 | X-H torsion
[ 8008 7997 7996 7995 ] final   12.28 input   59.86 | X-H torsion
[ 10167 10162 10161 10158 ] final   98.33 input  -65.29 | X-H torsion
[ 10718 10713 10712 10709 ] final    2.44 input   66.30 | X-H torsion
[ 10763 10752 10751 10750 ] final  107.80 input  -60.55 | X-H torsion
[ 11005 11000 10999 10996 ] final  167.21 input  -57.11 | X-H torsion

> <Gold.Protein.ActiveResidues>
 VAL166  LYS551  ARG553  GLY616  TRP617  ASP618  TYR619  PRO620  LYS621  CYS622 
 ASP623  PHE694  ASN695  SER759  ASP760  ASP761  ALA762  ILE779  LEU786  VAL792 
 PHE793  MET794  SER795  GLU796  ALA797  LYS798  CYS799  TRP800  GLU811  SER814 

> <Gold.Protein.RotatedAtoms>
  150.7229  134.5362  159.5724 H   0  0  0  0  0  0  0  0  0  0  0  0  # atno 6907 bound_to 6896
  152.2884  134.7747  160.0392 H   0  0  0  0  0  0  0  0  0  0  0  0  # atno 6908 bound_to 6896
  151.8369  133.3382  159.3667 H   0  0  0  0  0  0  0  0  0  0  0  0  # atno 6909 bound_to 6896
  145.0443  139.3936  143.5086 H   0  0  0  0  0  0  0  0  0  0  0  0  # atno 7974 bound_to 7965
  154.8184  140.2880  155.5804 H   0  0  0  0  0  0  0  0  0  0  0  0  # atno 8008 bound_to 7997
  156.2995  140.2555  156.3017 H   0  0  0  0  0  0  0  0  0  0  0  0  # atno 8009 bound_to 7997
  154.9367  140.0382  157.2065 H   0  0  0  0  0  0  0  0  0  0  0  0  # atno 8010 bound_to 7997
  139.7719  144.6919  151.0144 H   0  0  0  0  0  0  0  0  0  0  0  0  # atno 10167 bound_to 10162
  156.8630  130.5593  149.5662 H   0  0  0  0  0  0  0  0  0  0  0  0  # atno 10718 bound_to 10713
  153.4118  135.3832  155.2055 H   0  0  0  0  0  0  0  0  0  0  0  0  # atno 10763 bound_to 10752
  154.8738  135.3796  154.4492 H   0  0  0  0  0  0  0  0  0  0  0  0  # atno 10764 bound_to 10752
  153.5001  135.7088  153.5899 H   0  0  0  0  0  0  0  0  0  0  0  0  # atno 10765 bound_to 10752
  140.2744  134.7801  157.3704 H   0  0  0  0  0  0  0  0  0  0  0  0  # atno 11005 bound_to 11000
  146.3512  140.0061  142.8671 LP  0  0  0  0  0  0  0  0  0  0  0  0  # atno 17320 bound_to 7965
  145.1607  140.9671  143.4378 LP  0  0  0  0  0  0  0  0  0  0  0  0  # atno 17321 bound_to 7965
  140.7814  143.4579  151.0319 LP  0  0  0  0  0  0  0  0  0  0  0  0  # atno 17342 bound_to 10162
  139.8263  143.7752  152.3178 LP  0  0  0  0  0  0  0  0  0  0  0  0  # atno 17343 bound_to 10162
  156.0766  130.5787  150.9486 LP  0  0  0  0  0  0  0  0  0  0  0  0  # atno 17370 bound_to 10713
  157.6239  131.0927  150.8570 LP  0  0  0  0  0  0  0  0  0  0  0  0  # atno 17371 bound_to 10713
  140.1342  134.5055  155.8081 LP  0  0  0  0  0  0  0  0  0  0  0  0  # atno 17394 bound_to 11000
  141.2172  133.6801  156.7095 LP  0  0  0  0  0  0  0  0  0  0  0  0  # atno 17395 bound_to 11000

$$$$
