AV-unprocessed.smi:2032|AV-procd|sdf|8242|dock7
  -GOLD-   2272010513D 1   1.00000     0.00000
 Structure written by MMmdl.
 43 44  0  0  0  0  0  0  0  0  2 V2000
  151.3829  137.7260  155.5235 C   0  0  0  0  0  0  0  0  0  0  0  0
  150.9908  138.7605  154.4532 C   0  0  1  0  0  0  0  0  0  0  0  0
  149.5247  138.6404  153.9891 C   0  0  0  0  0  0  0  0  0  0  0  0
  148.5786  139.1616  155.0139 N   0  3  2  0  0  0  0  0  0  0  0  0
  147.1188  139.0388  154.6895 C   0  0  2  0  0  0  0  0  0  0  0  0
  146.5444  137.7649  155.3502 C   0  0  0  0  0  0  0  0  0  0  0  0
  146.8123  139.0597  153.1659 C   0  0  0  0  0  0  0  0  0  0  0  0
  146.9409  137.7468  152.5367 N   0  0  0  0  0  0  0  0  0  0  0  0
  145.9283  136.9016  152.2919 C   0  0  0  0  0  0  0  0  0  0  0  0
  144.7538  137.1548  152.5622 O   0  0  0  0  0  0  0  0  0  0  0  0
  146.3668  135.7689  151.7158 N   0  0  0  0  0  0  0  0  0  0  0  0
  145.6020  134.6569  151.2751 C   0  0  0  0  0  0  0  0  0  0  0  0
  144.2660  134.5949  151.3196 N   0  0  0  0  0  0  0  0  0  0  0  0
  143.7801  133.3857  150.8160 C   0  0  0  0  0  0  0  0  0  0  0  0
  144.7673  132.5330  150.3887 C   0  0  0  0  0  0  0  0  0  0  0  0
  146.3559  133.2184  150.6035 S   0  0  0  0  0  0  0  0  0  0  0  0
  148.9666  140.5498  155.3778 C   0  0  0  0  0  0  0  0  0  0  0  0
  150.4200  140.6009  155.8775 C   0  0  2  0  0  0  0  0  0  0  0  0
  150.8659  142.0312  156.2010 C   0  0  0  0  0  0  0  0  0  0  0  0
  151.2801  140.0950  154.8630 O   0  0  0  0  0  0  0  0  0  0  0  0
  151.2955  136.7125  155.1312 H   0  0  0  0  0  0  0  0  0  0  0  0
  150.7506  137.7847  156.4090 H   0  0  0  0  0  0  0  0  0  0  0  0
  152.4169  137.8666  155.8393 H   0  0  0  0  0  0  0  0  0  0  0  0
  151.6266  138.5694  153.5881 H   0  0  0  0  0  0  0  0  0  0  0  0
  149.3847  139.1963  153.0606 H   0  0  0  0  0  0  0  0  0  0  0  0
  149.3338  137.5905  153.7687 H   0  0  0  0  0  0  0  0  0  0  0  0
  146.6132  139.9040  155.1221 H   0  0  0  0  0  0  0  0  0  0  0  0
  145.4632  137.7016  155.2319 H   0  0  0  0  0  0  0  0  0  0  0  0
  146.7279  137.7243  156.4221 H   0  0  0  0  0  0  0  0  0  0  0  0
  146.9774  136.8665  154.9094 H   0  0  0  0  0  0  0  0  0  0  0  0
  145.7802  139.3619  152.9898 H   0  0  0  0  0  0  0  0  0  0  0  0
  147.4419  139.7939  152.6600 H   0  0  0  0  0  0  0  0  0  0  0  0
  147.8729  137.4559  152.2792 H   0  0  0  0  0  0  0  0  0  0  0  0
  147.3619  135.6966  151.5635 H   0  0  0  0  0  0  0  0  0  0  0  0
  142.7138  133.2152  150.7976 H   0  0  0  0  0  0  0  0  0  0  0  0
  144.6562  131.5474  149.9616 H   0  0  0  0  0  0  0  0  0  0  0  0
  148.8466  141.1992  154.5089 H   0  0  0  0  0  0  0  0  0  0  0  0
  148.3176  140.9481  156.1557 H   0  0  0  0  0  0  0  0  0  0  0  0
  150.5195  140.0032  156.7840 H   0  0  0  0  0  0  0  0  0  0  0  0
  150.2431  142.4707  156.9809 H   0  0  0  0  0  0  0  0  0  0  0  0
  150.8043  142.6731  155.3220 H   0  0  0  0  0  0  0  0  0  0  0  0
  151.8977  142.0472  156.5530 H   0  0  0  0  0  0  0  0  0  0  0  0
  148.7273  138.5908  155.8341 H   0  0  0  0  0  0  0  0  0  0  0  0
  1  2  1  0  0  0  0
  1 21  1  0  0  0  0
  1 22  1  0  0  0  0
  1 23  1  0  0  0  0
  2 20  1  0  0  0  0
  2  3  1  0  0  0  0
  2 24  1  0  0  0  0
  3  4  1  0  0  0  0
  3 25  1  0  0  0  0
  3 26  1  0  0  0  0
  4  5  1  0  0  0  0
  4 17  1  0  0  0  0
  4 43  1  0  0  0  0
  5  6  1  0  0  0  0
  5  7  1  0  0  0  0
  5 27  1  0  0  0  0
  6 28  1  0  0  0  0
  6 29  1  0  0  0  0
  6 30  1  0  0  0  0
  7  8  1  0  0  0  0
  7 31  1  0  0  0  0
  7 32  1  0  0  0  0
  8  9  1  0  0  0  0
  8 33  1  0  0  0  0
  9 10  2  0  0  0  0
  9 11  1  0  0  0  0
 11 12  1  0  0  0  0
 11 34  1  0  0  0  0
 12 16  1  0  0  0  0
 12 13  2  0  0  0  0
 13 14  1  0  0  0  0
 14 15  2  0  0  0  0
 14 35  1  0  0  0  0
 15 16  1  0  0  0  0
 15 36  1  0  0  0  0
 17 18  1  0  0  0  0
 17 37  1  0  0  0  0
 17 38  1  0  0  0  0
 18 19  1  0  0  0  0
 18 20  1  0  0  0  0
 18 39  1  0  0  0  0
 19 40  1  0  0  0  0
 19 41  1  0  0  0  0
 19 42  1  0  0  0  0
M  CHG  1   4   1
M  END
> <s_m_source_file>
AV-unprocessed.smi

> <i_m_source_file_index>
2032

> <i_lp_mmshare_version>
43012

> <i_f3d_flags>
0

> <s_epik_input>
W0NIM11bQ0BASF0xW0NIMl1OKFtDSDJdW0NASF0oTzEpW0NIM10pW0NASF0oW0NIM10pW0NIMl1bTkhdQyg9TylbTkhdYzJuW2NIXVtjSF1zMg==

> <s_epik_cmdline>
J2VwaWtfcHl0aG9uJywgJy1waCcsICc3LjAnLCAnLXRuJywgJzgnLCAnLW1hJywgJzIwMCcsICctbWV0YWxfYmluZGluZycsICctaW1hZScsICc8aW5maWxlLm1hZT4nLCAnLW9tYWUnLCAnPG91dGZpbGUubWFlPic=

> <r_lp_tautomer_probability>
0.999

> <r_epik_Ionization_Penalty>
0.695838

> <r_epik_Ionization_Penalty_Charging>
0.695697

> <r_epik_Ionization_Penalty_Neutral>
0.000141198

> <r_epik_State_Penalty>
0.717972

> <r_epik_Charging_Adjusted_Penalty>
1.41367

> <i_epik_Tot_Q>
1

> <i_epik_Tot_abs_Q>
1

> <r_epik_Metal_State_Penalty>
0.756405

> <b_epik_Metal_Only>
0

> <s_lp_Force_Field>
OPLS_2005

> <r_lp_Energy>
21.4223

> <b_lp_Chiralities_Consistent>
1

> <s_lp_Variant>
AV-unprocessed.smi:2032-12

> <Gold.Version>
5.8.1

> <Gold.Id.Protein>
6NUR|6NUR_protein|mol2

> <Gold.PLP.Fitness>
39.9721

> <Gold.PLP.PLP>
-30.8152

> <Gold.PLP.part.hbond>
-3.0000

> <Gold.PLP.part.metal>
0.0000

> <Gold.PLP.part.buried>
-5.0191

> <Gold.PLP.part.nonpolar>
-23.8338

> <Gold.PLP.part.repulsive>
0.5688

> <Gold.PLP.ligand.clash>
0.0000

> <Gold.PLP.ligand.torsion>
1.4260

> <Gold.PLP.Chemscore.Hbond>
3.0000

> <Gold.PLP.Chemscore.CHOScore>
0.9879

> <Gold.PLP.Chemscore.Metal>
0.0000

> <Gold.Chemscore.Hbonds>
donor molecule, donor type, donor heavy atom, donor atom, acceptor molecule, acceptor atom, score
      L1  H     8    33       P1  7948  1.00
      L1  H    11    34       P1  7948  1.00
      P1  H  7989  7998       L1    20  1.00
      L1  C    14    35       P1 10186  0.98

> <Gold.PLP.Chemscore.Internal.Correction>
0.0452

> <Gold.Rescore>
     Score         DG    S(hbond)    S(metal)    S(lipo)     H(rot)  DE(clash)    DE(int)     intcor
     16.19     -19.23       2.80        0.00      72.86       1.61       0.49       2.55       ----

> <Gold.Chemscore.Fitness>
16.1918

> <Gold.Chemscore.DG>
-19.2303

> <Gold.Chemscore.ZeroCoef>
-5.4800

> <Gold.Chemscore.Hbond>
2.7994

> <Gold.Chemscore.Metal>
0.0000

> <Gold.Chemscore.Lipo>
72.8570

> <Gold.Chemscore.Internal_Hbond>
0.0000

> <Gold.Chemscore.DEClash>
0.4905

> <Gold.Chemscore.DEInternal>
2.5480

> <Gold.Chemscore.Rot>
1.6110

> <Gold.Chemscore.Internal.Correction>
   9.000000E+99

> <Gold.Chemscore.Hbonds>
donor molecule, donor type, donor heavy atom, donor atom, acceptor molecule, acceptor atom, score
      L1  H     8    33       P1  7948  0.95
      L1  H    11    34       P1  7948  0.96
      P1  H  7989  7998       L1    20  0.49

> <Gold.Chemscore.Hbond.Weighted>
-9.3501

> <Gold.Chemscore.Metal.Weighted>
-0.0000

> <Gold.Chemscore.Lipo.Weighted>
-8.5243

> <Gold.Chemscore.Internal_Hbond.Weighted>
0.0000

> <Gold.Chemscore.DEClash.Weighted>
0.4905

> <Gold.Chemscore.DEInternal.Weighted>
2.5480

> <Gold.Chemscore.Rot.Weighted>
4.1242

> <Gold.Chemscore.Internal.Correction.Weighted>
   9.000000E+99

> <Gold.Protein.RotatedTorsions>
[ 6907 6896 6895 6894 ] final   66.13 input  -60.11 | X-H torsion
[ 7974 7965 7964 7962 ] final  171.46 input  175.53 | X-H torsion
[ 8008 7997 7996 7995 ] final -134.03 input   59.86 | X-H torsion
[ 10167 10162 10161 10158 ] final  140.51 input  -65.29 | X-H torsion
[ 10718 10713 10712 10709 ] final -140.98 input   66.30 | X-H torsion
[ 10763 10752 10751 10750 ] final   53.37 input  -60.55 | X-H torsion
[ 11005 11000 10999 10996 ] final  144.26 input  -57.11 | X-H torsion

> <Gold.Protein.ActiveResidues>
 VAL166  LYS551  ARG553  GLY616  TRP617  ASP618  TYR619  PRO620  LYS621  CYS622 
 ASP623  PHE694  ASN695  SER759  ASP760  ASP761  ALA762  ILE779  LEU786  VAL792 
 PHE793  MET794  SER795  GLU796  ALA797  LYS798  CYS799  TRP800  GLU811  SER814 

> <Gold.Protein.RotatedAtoms>
  152.4458  134.5497  159.9862 H   0  0  0  0  0  0  0  0  0  0  0  0  # atno 6907 bound_to 6896
  151.5583  133.3401  159.2974 H   0  0  0  0  0  0  0  0  0  0  0  0  # atno 6908 bound_to 6896
  150.8374  134.7685  159.6968 H   0  0  0  0  0  0  0  0  0  0  0  0  # atno 6909 bound_to 6896
  144.7294  139.9353  143.6426 H   0  0  0  0  0  0  0  0  0  0  0  0  # atno 7974 bound_to 7965
  155.3553  140.0479  157.3046 H   0  0  0  0  0  0  0  0  0  0  0  0  # atno 8008 bound_to 7997
  154.5206  140.2223  155.8947 H   0  0  0  0  0  0  0  0  0  0  0  0  # atno 8009 bound_to 7997
  156.1685  140.3101  155.8937 H   0  0  0  0  0  0  0  0  0  0  0  0  # atno 8010 bound_to 7997
  139.5047  144.6229  151.6007 H   0  0  0  0  0  0  0  0  0  0  0  0  # atno 10167 bound_to 10162
  156.3287  130.7574  151.1687 H   0  0  0  0  0  0  0  0  0  0  0  0  # atno 10718 bound_to 10713
  152.9795  135.5781  154.4731 H   0  0  0  0  0  0  0  0  0  0  0  0  # atno 10763 bound_to 10752
  154.4290  135.2773  155.1927 H   0  0  0  0  0  0  0  0  0  0  0  0  # atno 10764 bound_to 10752
  154.3643  135.6182  153.5760 H   0  0  0  0  0  0  0  0  0  0  0  0  # atno 10765 bound_to 10752
  140.0618  134.9200  157.1197 H   0  0  0  0  0  0  0  0  0  0  0  0  # atno 11005 bound_to 11000
  146.0826  139.3814  143.0455 LP  0  0  0  0  0  0  0  0  0  0  0  0  # atno 17320 bound_to 7965
  145.7820  140.9852  143.1094 LP  0  0  0  0  0  0  0  0  0  0  0  0  # atno 17321 bound_to 7965
  140.5937  143.9734  150.6341 LP  0  0  0  0  0  0  0  0  0  0  0  0  # atno 17342 bound_to 10162
  140.2923  143.3316  152.1051 LP  0  0  0  0  0  0  0  0  0  0  0  0  # atno 17343 bound_to 10162
  157.7426  131.0487  150.5011 LP  0  0  0  0  0  0  0  0  0  0  0  0  # atno 17370 bound_to 10713
  156.5173  130.4153  149.6269 LP  0  0  0  0  0  0  0  0  0  0  0  0  # atno 17371 bound_to 10713
  140.3758  134.2340  155.7174 LP  0  0  0  0  0  0  0  0  0  0  0  0  # atno 17394 bound_to 11000
  141.1976  133.8054  157.0619 LP  0  0  0  0  0  0  0  0  0  0  0  0  # atno 17395 bound_to 11000

$$$$
