AV-unprocessed.smi:2764|AV-procd|sdf|10640|dock2
  -GOLD-   2272015 93D 1   1.00000     0.00000
 Structure written by MMmdl.
 47 49  0  0  0  0  0  0  0  0  2 V2000
  149.4787  139.6861  156.5005 O   0  0  0  0  0  0  0  0  0  0  0  0
  149.2829  140.7150  155.8536 C   0  0  0  0  0  0  0  0  0  0  0  0
  149.7806  141.9272  156.1559 N   0  0  0  0  0  0  0  0  0  0  0  0
  150.6511  142.2782  157.2224 C   0  0  0  0  0  0  0  0  0  0  0  0
  151.4044  141.2078  157.7562 C   0  0  0  0  0  0  0  0  0  0  0  0
  152.2938  141.4497  158.8215 C   0  0  0  0  0  0  0  0  0  0  0  0
  152.4050  142.7579  159.3248 C   0  0  0  0  0  0  0  0  0  0  0  0
  153.2454  143.0385  160.3486 F   0  0  0  0  0  0  0  0  0  0  0  0
  151.6200  143.7671  158.7375 C   0  0  0  0  0  0  0  0  0  0  0  0
  150.7675  143.5367  157.7161 N   0  0  0  0  0  0  0  0  0  0  0  0
  148.5326  140.7648  154.7402 N   0  0  0  0  0  0  0  0  0  0  0  0
  147.8365  139.6561  154.0825 C   0  0  2  0  0  0  0  0  0  0  0  0
  147.3879  139.9973  152.6485 C   0  0  0  0  0  0  0  0  0  0  0  0
  146.6933  138.7923  151.9915 C   0  0  0  0  0  0  0  0  0  0  0  0
  145.5461  138.3203  152.8113 N   0  3  1  0  0  0  0  0  0  0  0  0
  144.7532  137.2584  152.1385 C   0  0  0  0  0  0  0  0  0  0  0  0
  145.5967  136.0018  151.8500 C   0  0  2  0  0  0  0  0  0  0  0  0
  144.9789  135.0034  150.8892 C   0  0  0  0  0  0  0  0  0  0  0  0
  145.7556  133.7282  151.2048 C   0  0  0  0  0  0  0  0  0  0  0  0
  146.1240  133.8239  152.5774 O   0  0  0  0  0  0  0  0  0  0  0  0
  145.8018  135.1162  153.0794 C   0  0  0  0  0  0  0  0  0  0  0  0
  145.9744  137.9435  154.1848 C   0  0  0  0  0  0  0  0  0  0  0  0
  146.6418  139.1285  154.9010 C   0  0  0  0  0  0  0  0  0  0  0  0
  149.5216  142.6852  155.5421 H   0  0  0  0  0  0  0  0  0  0  0  0
  151.3048  140.2086  157.3575 H   0  0  0  0  0  0  0  0  0  0  0  0
  152.8781  140.6456  159.2439 H   0  0  0  0  0  0  0  0  0  0  0  0
  151.6755  144.7843  159.0962 H   0  0  0  0  0  0  0  0  0  0  0  0
  148.4383  141.6658  154.2941 H   0  0  0  0  0  0  0  0  0  0  0  0
  148.5717  138.8530  154.0161 H   0  0  0  0  0  0  0  0  0  0  0  0
  146.6994  140.8427  152.6508 H   0  0  0  0  0  0  0  0  0  0  0  0
  148.2467  140.2997  152.0482 H   0  0  0  0  0  0  0  0  0  0  0  0
  146.3426  139.0842  151.0007 H   0  0  0  0  0  0  0  0  0  0  0  0
  147.4033  137.9755  151.8510 H   0  0  0  0  0  0  0  0  0  0  0  0
  143.9285  136.9557  152.7858 H   0  0  0  0  0  0  0  0  0  0  0  0
  144.2851  137.6396  151.2292 H   0  0  0  0  0  0  0  0  0  0  0  0
  146.5778  136.2971  151.4734 H   0  0  0  0  0  0  0  0  0  0  0  0
  143.9212  134.8593  151.1148 H   0  0  0  0  0  0  0  0  0  0  0  0
  145.0706  135.2975  149.8434 H   0  0  0  0  0  0  0  0  0  0  0  0
  145.1716  132.8286  151.0106 H   0  0  0  0  0  0  0  0  0  0  0  0
  146.6653  133.6778  150.6054 H   0  0  0  0  0  0  0  0  0  0  0  0
  146.5836  135.4921  153.7398 H   0  0  0  0  0  0  0  0  0  0  0  0
  144.8803  135.0393  153.6583 H   0  0  0  0  0  0  0  0  0  0  0  0
  145.1181  137.6092  154.7689 H   0  0  0  0  0  0  0  0  0  0  0  0
  146.6656  137.1006  154.1331 H   0  0  0  0  0  0  0  0  0  0  0  0
  146.9734  138.8210  155.8934 H   0  0  0  0  0  0  0  0  0  0  0  0
  145.8986  139.9120  155.0518 H   0  0  0  0  0  0  0  0  0  0  0  0
  144.9290  139.1146  152.9044 H   0  0  0  0  0  0  0  0  0  0  0  0
  1  2  2  0  0  0  0
  2  3  1  0  0  0  0
  2 11  1  0  0  0  0
  3  4  1  0  0  0  0
  3 24  1  0  0  0  0
  4 10  1  0  0  0  0
  4  5  2  0  0  0  0
  5  6  1  0  0  0  0
  5 25  1  0  0  0  0
  6  7  2  0  0  0  0
  6 26  1  0  0  0  0
  7  8  1  0  0  0  0
  7  9  1  0  0  0  0
  9 10  2  0  0  0  0
  9 27  1  0  0  0  0
 11 12  1  0  0  0  0
 11 28  1  0  0  0  0
 12 23  1  0  0  0  0
 12 13  1  0  0  0  0
 12 29  1  0  0  0  0
 13 14  1  0  0  0  0
 13 30  1  0  0  0  0
 13 31  1  0  0  0  0
 14 15  1  0  0  0  0
 14 32  1  0  0  0  0
 14 33  1  0  0  0  0
 15 16  1  0  0  0  0
 15 22  1  0  0  0  0
 15 47  1  0  0  0  0
 16 17  1  0  0  0  0
 16 34  1  0  0  0  0
 16 35  1  0  0  0  0
 17 21  1  0  0  0  0
 17 18  1  0  0  0  0
 17 36  1  0  0  0  0
 18 19  1  0  0  0  0
 18 37  1  0  0  0  0
 18 38  1  0  0  0  0
 19 20  1  0  0  0  0
 19 39  1  0  0  0  0
 19 40  1  0  0  0  0
 20 21  1  0  0  0  0
 21 41  1  0  0  0  0
 21 42  1  0  0  0  0
 22 23  1  0  0  0  0
 22 43  1  0  0  0  0
 22 44  1  0  0  0  0
 23 45  1  0  0  0  0
 23 46  1  0  0  0  0
M  CHG  1  15   1
M  END
> <s_m_source_file>
AV-unprocessed.smi

> <i_m_source_file_index>
2764

> <i_lp_mmshare_version>
43012

> <i_f3d_flags>
0

> <s_epik_input>
bjFbY0hdYyhGKVtjSF1bY0hdYzFbTkhdQyg9TylbTkhdW0NIXTJbQ0gyXVtDSDJdTihbQ0gyXVtDSDJdMilbQ0gyXVtDQEBIXTNbQ0gyXVtDSDJdT1tDSDJdMw==

> <s_epik_cmdline>
J2VwaWtfcHl0aG9uJywgJy1waCcsICc3LjAnLCAnLXRuJywgJzgnLCAnLW1hJywgJzIwMCcsICctbWV0YWxfYmluZGluZycsICctaW1hZScsICc8aW5maWxlLm1hZT4nLCAnLW9tYWUnLCAnPG91dGZpbGUubWFlPic=

> <r_epik_Ionization_Penalty>
0.0075076

> <r_epik_Ionization_Penalty_Charging>
0.00747775

> <r_epik_Ionization_Penalty_Neutral>
2.98483e-05

> <r_epik_State_Penalty>
0.00558817

> <r_epik_Charging_Adjusted_Penalty>
0.0130659

> <i_epik_Tot_Q>
1

> <i_epik_Tot_abs_Q>
1

> <r_epik_Metal_State_Penalty>
-0

> <b_epik_Metal_Only>
0

> <s_lp_Force_Field>
OPLS_2005

> <r_lp_Energy>
38.4399

> <b_lp_Chiralities_Consistent>
1

> <s_lp_Variant>
AV-unprocessed.smi:2764-1

> <Gold.Version>
5.8.1

> <Gold.Id.Protein>
6NUR|6NUR_protein|mol2

> <Gold.PLP.Fitness>
43.2073

> <Gold.PLP.PLP>
-34.9228

> <Gold.PLP.part.hbond>
-2.0000

> <Gold.PLP.part.metal>
0.0000

> <Gold.PLP.part.buried>
-1.4353

> <Gold.PLP.part.nonpolar>
-33.3200

> <Gold.PLP.part.repulsive>
0.8740

> <Gold.PLP.ligand.clash>
0.0000

> <Gold.PLP.ligand.torsion>
0.3796

> <Gold.PLP.Chemscore.Hbond>
2.9920

> <Gold.PLP.Chemscore.CHOScore>
0.0000

> <Gold.PLP.Chemscore.Metal>
0.0000

> <Gold.Chemscore.Hbonds>
donor molecule, donor type, donor heavy atom, donor atom, acceptor molecule, acceptor atom, score
      L1  H     3    24       P1  8028  0.60
      L1  H    15    47       P1 10175  2.00

> <Gold.PLP.Chemscore.Internal.Correction>
0.0677

> <Gold.Rescore>
     Score         DG    S(hbond)    S(metal)    S(lipo)     H(rot)  DE(clash)    DE(int)     intcor
     14.72     -18.66       1.90        0.00      91.05       1.49       1.77       2.17       ----

> <Gold.Chemscore.Fitness>
14.7219

> <Gold.Chemscore.DG>
-18.6593

> <Gold.Chemscore.ZeroCoef>
-5.4800

> <Gold.Chemscore.Hbond>
1.8978

> <Gold.Chemscore.Metal>
0.0000

> <Gold.Chemscore.Lipo>
91.0505

> <Gold.Chemscore.Internal_Hbond>
0.0000

> <Gold.Chemscore.DEClash>
1.7671

> <Gold.Chemscore.DEInternal>
2.1704

> <Gold.Chemscore.Rot>
1.4891

> <Gold.Chemscore.Internal.Correction>
   9.000000E+99

> <Gold.Chemscore.Hbonds>
donor molecule, donor type, donor heavy atom, donor atom, acceptor molecule, acceptor atom, score
      L1  H     3    24       P1  8028  0.59
      L1  H    15    47       P1 10175  0.99

> <Gold.Chemscore.Hbond.Weighted>
-6.3385

> <Gold.Chemscore.Metal.Weighted>
-0.0000

> <Gold.Chemscore.Lipo.Weighted>
-10.6529

> <Gold.Chemscore.Internal_Hbond.Weighted>
0.0000

> <Gold.Chemscore.DEClash.Weighted>
1.7671

> <Gold.Chemscore.DEInternal.Weighted>
2.1704

> <Gold.Chemscore.Rot.Weighted>
3.8121

> <Gold.Chemscore.Internal.Correction.Weighted>
   9.000000E+99

> <Gold.Protein.RotatedTorsions>
[ 6907 6896 6895 6894 ] final   95.12 input  -60.11 | X-H torsion
[ 7974 7965 7964 7962 ] final   41.47 input  175.53 | X-H torsion
[ 8008 7997 7996 7995 ] final   27.25 input   59.86 | X-H torsion
[ 10167 10162 10161 10158 ] final   52.68 input  -65.29 | X-H torsion
[ 10718 10713 10712 10709 ] final  132.70 input   66.30 | X-H torsion
[ 10763 10752 10751 10750 ] final   63.35 input  -60.55 | X-H torsion
[ 11005 11000 10999 10996 ] final -173.60 input  -57.11 | X-H torsion

> <Gold.Protein.ActiveResidues>
 VAL166  LYS551  ARG553  GLY616  TRP617  ASP618  TYR619  PRO620  LYS621  CYS622 
 ASP623  PHE694  ASN695  SER759  ASP760  ASP761  ALA762  ILE779  LEU786  VAL792 
 PHE793  MET794  SER795  GLU796  ALA797  LYS798  CYS799  TRP800  GLU811  SER814 

> <Gold.Protein.RotatedAtoms>
  152.5445  134.1088  159.8349 H   0  0  0  0  0  0  0  0  0  0  0  0  # atno 6907 bound_to 6896
  151.1157  133.5133  159.2611 H   0  0  0  0  0  0  0  0  0  0  0  0  # atno 6908 bound_to 6896
  151.1834  135.0380  159.8856 H   0  0  0  0  0  0  0  0  0  0  0  0  # atno 6909 bound_to 6896
  146.0821  139.5412  142.9530 H   0  0  0  0  0  0  0  0  0  0  0  0  # atno 7974 bound_to 7965
  155.0400  140.3168  155.4728 H   0  0  0  0  0  0  0  0  0  0  0  0  # atno 8008 bound_to 7997
  156.2856  140.2164  156.5467 H   0  0  0  0  0  0  0  0  0  0  0  0  # atno 8009 bound_to 7997
  154.7297  140.0482  157.0703 H   0  0  0  0  0  0  0  0  0  0  0  0  # atno 8010 bound_to 7997
  140.2488  144.3502  150.6355 H   0  0  0  0  0  0  0  0  0  0  0  0  # atno 10167 bound_to 10162
  157.4846  131.1087  150.9637 H   0  0  0  0  0  0  0  0  0  0  0  0  # atno 10718 bound_to 10713
  153.0015  135.5432  154.6338 H   0  0  0  0  0  0  0  0  0  0  0  0  # atno 10763 bound_to 10752
  154.5610  135.2834  155.0921 H   0  0  0  0  0  0  0  0  0  0  0  0  # atno 10764 bound_to 10752
  154.2124  135.6465  153.5172 H   0  0  0  0  0  0  0  0  0  0  0  0  # atno 10765 bound_to 10752
  140.4839  134.6049  157.4929 H   0  0  0  0  0  0  0  0  0  0  0  0  # atno 11005 bound_to 11000
  145.6199  141.0324  143.1920 LP  0  0  0  0  0  0  0  0  0  0  0  0  # atno 17320 bound_to 7965
  144.7300  139.7755  143.7350 LP  0  0  0  0  0  0  0  0  0  0  0  0  # atno 17321 bound_to 7965
  140.6056  143.2167  151.6986 LP  0  0  0  0  0  0  0  0  0  0  0  0  # atno 17342 bound_to 10162
  139.5053  144.3723  152.0458 LP  0  0  0  0  0  0  0  0  0  0  0  0  # atno 17343 bound_to 10162
  157.0359  130.5730  149.5349 LP  0  0  0  0  0  0  0  0  0  0  0  0  # atno 17370 bound_to 10713
  156.0140  130.5233  150.8076 LP  0  0  0  0  0  0  0  0  0  0  0  0  # atno 17371 bound_to 10713
  139.9810  134.7138  155.9860 LP  0  0  0  0  0  0  0  0  0  0  0  0  # atno 17394 bound_to 11000
  141.1518  133.6547  156.4036 LP  0  0  0  0  0  0  0  0  0  0  0  0  # atno 17395 bound_to 11000

$$$$
