AV-unprocessed.smi:227|AV-procd|sdf|1732|dock5
  -GOLD-   2262020223D 1   1.00000     0.00000
 Structure written by MMmdl.
 54 58  0  0  0  0  0  0  0  0  1 V2000
  151.6791  136.7528  154.2386 O   0  0  0  0  0  0  0  0  0  0  0  0
  151.4839  138.1389  154.4297 C   0  0  0  0  0  0  0  0  0  0  0  0
  150.4238  138.4161  155.5237 C   0  0  1  0  0  0  0  0  0  0  0  0
  151.0504  138.5868  156.9299 C   0  0  0  0  0  0  0  0  0  0  0  0
  150.3781  137.8021  157.9508 N   0  0  0  0  0  0  0  0  0  0  0  0
  150.9787  136.9946  158.8883 C   0  0  0  0  0  0  0  0  0  0  0  0
  150.1614  136.3946  159.7092 N   0  0  0  0  0  0  0  0  0  0  0  0
  148.8987  136.8098  159.3012 C   0  0  0  0  0  0  0  0  0  0  0  0
  147.5711  136.5452  159.7448 C   0  0  0  0  0  0  0  0  0  0  0  0
  147.2812  135.7199  160.7836 N   0  0  0  0  0  0  0  0  0  0  0  0
  147.9263  135.8391  162.0797 C   0  0  2  0  0  0  0  0  0  0  0  0
  147.4934  134.5284  162.7637 C   0  0  0  0  0  0  0  0  0  0  0  0
  146.0868  134.3211  162.1681 C   0  0  0  0  0  0  0  0  0  0  0  0
  145.9313  135.5924  161.3130 C   0  0  1  0  0  0  0  0  0  0  0  0
  145.7513  136.7926  162.2809 C   0  0  2  0  0  0  0  0  0  0  0  0
  144.9915  138.0253  161.7429 C   0  0  0  0  0  0  0  0  0  0  0  0
  145.7293  138.7990  160.8224 O   0  0  0  0  0  0  0  0  0  0  0  0
  147.2026  137.0307  162.7421 C   0  0  0  0  0  0  0  0  0  0  0  0
  146.5585  137.1833  159.1001 N   0  0  0  0  0  0  0  0  0  0  0  0
  146.8168  137.9943  158.0707 C   0  0  0  0  0  0  0  0  0  0  0  0
  147.9965  138.3155  157.5379 N   0  0  0  0  0  0  0  0  0  0  0  0
  149.0196  137.6991  158.1953 C   0  0  0  0  0  0  0  0  0  0  0  0
  149.5013  139.6068  155.1590 C   0  0  2  0  0  0  0  0  0  0  0  0
  148.6586  139.4042  153.9118 C   0  0  0  0  0  0  0  0  0  0  0  0
  148.2544  140.8320  153.5638 C   0  0  0  0  0  0  0  0  0  0  0  0
  149.3501  141.6473  153.9627 O   0  0  0  0  0  0  0  0  0  0  0  0
  150.2375  140.8990  154.7883 C   0  0  0  0  0  0  0  0  0  0  0  0
  151.4508  136.5364  153.3474 H   0  0  0  0  0  0  0  0  0  0  0  0
  152.4399  138.5920  154.6909 H   0  0  0  0  0  0  0  0  0  0  0  0
  151.1931  138.5860  153.4792 H   0  0  0  0  0  0  0  0  0  0  0  0
  149.7934  137.5268  155.5679 H   0  0  0  0  0  0  0  0  0  0  0  0
  152.1052  138.3103  156.9124 H   0  0  0  0  0  0  0  0  0  0  0  0
  151.0126  139.6300  157.2431 H   0  0  0  0  0  0  0  0  0  0  0  0
  152.0500  136.8696  158.9477 H   0  0  0  0  0  0  0  0  0  0  0  0
  149.0102  135.9553  162.0431 H   0  0  0  0  0  0  0  0  0  0  0  0
  148.1515  133.7043  162.4857 H   0  0  0  0  0  0  0  0  0  0  0  0
  147.4866  134.6076  163.8514 H   0  0  0  0  0  0  0  0  0  0  0  0
  146.0674  133.4304  161.5385 H   0  0  0  0  0  0  0  0  0  0  0  0
  145.3115  134.2100  162.9269 H   0  0  0  0  0  0  0  0  0  0  0  0
  145.1345  135.5017  160.5766 H   0  0  0  0  0  0  0  0  0  0  0  0
  145.1688  136.4561  163.1399 H   0  0  0  0  0  0  0  0  0  0  0  0
  144.0638  137.7100  161.2647 H   0  0  0  0  0  0  0  0  0  0  0  0
  144.7113  138.6728  162.5740 H   0  0  0  0  0  0  0  0  0  0  0  0
  145.4016  138.6274  159.9528 H   0  0  0  0  0  0  0  0  0  0  0  0
  147.3054  137.0361  163.8276 H   0  0  0  0  0  0  0  0  0  0  0  0
  147.5956  137.9763  162.3679 H   0  0  0  0  0  0  0  0  0  0  0  0
  145.9547  138.4512  157.6082 H   0  0  0  0  0  0  0  0  0  0  0  0
  148.8297  139.8177  155.9930 H   0  0  0  0  0  0  0  0  0  0  0  0
  149.2606  138.9793  153.1072 H   0  0  0  0  0  0  0  0  0  0  0  0
  147.7959  138.7572  154.0726 H   0  0  0  0  0  0  0  0  0  0  0  0
  148.0263  140.9564  152.5052 H   0  0  0  0  0  0  0  0  0  0  0  0
  147.3751  141.1278  154.1372 H   0  0  0  0  0  0  0  0  0  0  0  0
  150.5338  141.4749  155.6653 H   0  0  0  0  0  0  0  0  0  0  0  0
  151.1357  140.6810  154.2091 H   0  0  0  0  0  0  0  0  0  0  0  0
  1  2  1  0  0  0  0
  1 28  1  0  0  0  0
  2  3  1  0  0  0  0
  2 29  1  0  0  0  0
  2 30  1  0  0  0  0
  3  4  1  0  0  0  0
  3 23  1  0  0  0  0
  3 31  1  0  0  0  0
  4  5  1  0  0  0  0
  4 32  1  0  0  0  0
  4 33  1  0  0  0  0
  5 22  1  0  0  0  0
  5  6  1  0  0  0  0
  6  7  2  0  0  0  0
  6 34  1  0  0  0  0
  7  8  1  0  0  0  0
  8 22  2  0  0  0  0
  8  9  1  0  0  0  0
  9 10  1  0  0  0  0
  9 19  2  0  0  0  0
 10 14  1  0  0  0  0
 10 11  1  0  0  0  0
 11 18  1  0  0  0  0
 11 12  1  0  0  0  0
 11 35  1  0  0  0  0
 12 13  1  0  0  0  0
 12 36  1  0  0  0  0
 12 37  1  0  0  0  0
 13 14  1  0  0  0  0
 13 38  1  0  0  0  0
 13 39  1  0  0  0  0
 14 15  1  0  0  0  0
 14 40  1  0  0  0  0
 15 16  1  0  0  0  0
 15 18  1  0  0  0  0
 15 41  1  0  0  0  0
 16 17  1  0  0  0  0
 16 42  1  0  0  0  0
 16 43  1  0  0  0  0
 17 44  1  0  0  0  0
 18 45  1  0  0  0  0
 18 46  1  0  0  0  0
 19 20  1  0  0  0  0
 20 21  2  0  0  0  0
 20 47  1  0  0  0  0
 21 22  1  0  0  0  0
 23 27  1  0  0  0  0
 23 24  1  0  0  0  0
 23 48  1  0  0  0  0
 24 25  1  0  0  0  0
 24 49  1  0  0  0  0
 24 50  1  0  0  0  0
 25 26  1  0  0  0  0
 25 51  1  0  0  0  0
 25 52  1  0  0  0  0
 26 27  1  0  0  0  0
 27 53  1  0  0  0  0
 27 54  1  0  0  0  0
M  END
> <s_m_source_file>
AV-unprocessed.smi

> <i_m_source_file_index>
227

> <i_lp_mmshare_version>
43012

> <i_f3d_flags>
0

> <s_epik_input>
W0NIMl0xT1tDSDJdW0NIMl1bQ0BIXTFbQ0BIXShbQ0gyXVtPSF0pW0NIMl1uKFtjSF1uMiljKGMyMyluW2NIXW5jM04oW0NASF00NSlbQ0BASF0oW0NIMl1bQ0gyXTQpW0NASF0oW0NIMl01KVtDSDJdW09IXQ==

> <s_epik_cmdline>
J2VwaWtfcHl0aG9uJywgJy1waCcsICc3LjAnLCAnLXRuJywgJzgnLCAnLW1hJywgJzIwMCcsICctbWV0YWxfYmluZGluZycsICctaW1hZScsICc8aW5maWxlLm1hZT4nLCAnLW9tYWUnLCAnPG91dGZpbGUubWFlPic=

> <r_lp_tautomer_probability>
1

> <r_epik_Ionization_Penalty>
0.0055791

> <r_epik_Ionization_Penalty_Charging>
0

> <r_epik_Ionization_Penalty_Neutral>
0.0055791

> <r_epik_State_Penalty>
0.00401299

> <r_epik_Charging_Adjusted_Penalty>
0.00401299

> <i_epik_Tot_Q>
0

> <i_epik_Tot_abs_Q>
0

> <r_epik_Metal_State_Penalty>
-0

> <b_epik_Metal_Only>
0

> <s_lp_Force_Field>
OPLS_2005

> <r_lp_Energy>
91.5057

> <b_lp_Chiralities_Consistent>
1

> <s_lp_Variant>
AV-unprocessed.smi:227-6

> <Gold.Version>
5.8.1

> <Gold.Id.Protein>
6NUR|6NUR_protein|mol2

> <Gold.PLP.Fitness>
52.4632

> <Gold.PLP.PLP>
-43.4802

> <Gold.PLP.part.hbond>
-5.0986

> <Gold.PLP.part.metal>
0.0000

> <Gold.PLP.part.buried>
-4.9095

> <Gold.PLP.part.nonpolar>
-34.1696

> <Gold.PLP.part.repulsive>
0.1778

> <Gold.PLP.ligand.clash>
0.0000

> <Gold.PLP.ligand.torsion>
1.5557

> <Gold.PLP.Chemscore.Hbond>
3.9649

> <Gold.PLP.Chemscore.CHOScore>
0.0000

> <Gold.PLP.Chemscore.Metal>
0.0000

> <Gold.Chemscore.Hbonds>
donor molecule, donor type, donor heavy atom, donor atom, acceptor molecule, acceptor atom, score
      L1  H     1    28       P1  7949  1.00
      P1  H  6896  6909       L1     7  0.90
      P1  H  6934  6947       L1    17  0.30
      P1  H  8011  8017       L1    26  0.62
      P1  H 10752 10763       L1     1  0.90

> <Gold.PLP.Chemscore.Internal.Correction>
0.1997

> <Gold.Rescore>
     Score         DG    S(hbond)    S(metal)    S(lipo)     H(rot)  DE(clash)    DE(int)     intcor
     12.17     -15.78       2.44        0.00      97.22       3.61       0.28       3.34       ----

> <Gold.Chemscore.Fitness>
12.1668

> <Gold.Chemscore.DG>
-15.7846

> <Gold.Chemscore.ZeroCoef>
-5.4800

> <Gold.Chemscore.Hbond>
2.4443

> <Gold.Chemscore.Metal>
0.0000

> <Gold.Chemscore.Lipo>
97.2217

> <Gold.Chemscore.Internal_Hbond>
0.0000

> <Gold.Chemscore.DEClash>
0.2772

> <Gold.Chemscore.DEInternal>
3.3406

> <Gold.Chemscore.Rot>
3.6071

> <Gold.Chemscore.Internal.Correction>
   9.000000E+99

> <Gold.Chemscore.Hbonds>
donor molecule, donor type, donor heavy atom, donor atom, acceptor molecule, acceptor atom, score
      L1  H     1    28       P1  7949  0.81
      P1  H  6896  6909       L1     7  0.18
      P1  H  6934  6947       L1    17  0.27
      P1  H  8011  8017       L1    26  0.19
      P1  H 10752 10763       L1     1  0.18

> <Gold.Chemscore.Hbond.Weighted>
-8.1638

> <Gold.Chemscore.Metal.Weighted>
-0.0000

> <Gold.Chemscore.Lipo.Weighted>
-11.3749

> <Gold.Chemscore.Internal_Hbond.Weighted>
0.0000

> <Gold.Chemscore.DEClash.Weighted>
0.2772

> <Gold.Chemscore.DEInternal.Weighted>
3.3406

> <Gold.Chemscore.Rot.Weighted>
9.2342

> <Gold.Chemscore.Internal.Correction.Weighted>
   9.000000E+99

> <Gold.Protein.RotatedTorsions>
[ 6907 6896 6895 6894 ] final   77.11 input  -60.11 | X-H torsion
[ 7974 7965 7964 7962 ] final  112.93 input  175.53 | X-H torsion
[ 8008 7997 7996 7995 ] final  -67.11 input   59.86 | X-H torsion
[ 10167 10162 10161 10158 ] final   25.07 input  -65.29 | X-H torsion
[ 10718 10713 10712 10709 ] final  123.37 input   66.30 | X-H torsion
[ 10763 10752 10751 10750 ] final   52.58 input  -60.55 | X-H torsion
[ 11005 11000 10999 10996 ] final    0.22 input  -57.11 | X-H torsion

> <Gold.Protein.ActiveResidues>
 VAL166  LYS551  ARG553  GLY616  TRP617  ASP618  TYR619  PRO620  LYS621  CYS622 
 ASP623  PHE694  ASN695  SER759  ASP760  ASP761  ALA762  ILE779  LEU786  VAL792 
 PHE793  MET794  SER795  GLU796  ALA797  LYS798  CYS799  TRP800  GLU811  SER814 

> <Gold.Protein.RotatedAtoms>
  152.5103  134.3867  159.9369 H   0  0  0  0  0  0  0  0  0  0  0  0  # atno 6907 bound_to 6896
  151.3825  133.3810  159.2719 H   0  0  0  0  0  0  0  0  0  0  0  0  # atno 6908 bound_to 6896
  150.9493  134.8915  159.7721 H   0  0  0  0  0  0  0  0  0  0  0  0  # atno 6909 bound_to 6896
  145.2234  139.2852  143.4206 H   0  0  0  0  0  0  0  0  0  0  0  0  # atno 7974 bound_to 7965
  154.4778  140.0899  156.7304 H   0  0  0  0  0  0  0  0  0  0  0  0  # atno 8008 bound_to 7997
  155.4550  140.3459  155.4287 H   0  0  0  0  0  0  0  0  0  0  0  0  # atno 8009 bound_to 7997
  156.1144  140.1456  156.9282 H   0  0  0  0  0  0  0  0  0  0  0  0  # atno 8010 bound_to 7997
  140.5137  144.0118  150.6384 H   0  0  0  0  0  0  0  0  0  0  0  0  # atno 10167 bound_to 10162
  157.5670  131.1086  150.8436 H   0  0  0  0  0  0  0  0  0  0  0  0  # atno 10718 bound_to 10713
  152.9790  135.5807  154.4602 H   0  0  0  0  0  0  0  0  0  0  0  0  # atno 10763 bound_to 10752
  154.4179  135.2771  155.1996 H   0  0  0  0  0  0  0  0  0  0  0  0  # atno 10764 bound_to 10752
  154.3758  135.6157  153.5818 H   0  0  0  0  0  0  0  0  0  0  0  0  # atno 10765 bound_to 10752
  140.6289  133.9593  155.8264 H   0  0  0  0  0  0  0  0  0  0  0  0  # atno 11005 bound_to 11000
  146.3370  140.2546  142.8600 LP  0  0  0  0  0  0  0  0  0  0  0  0  # atno 17320 bound_to 7965
  144.9744  140.8400  143.5435 LP  0  0  0  0  0  0  0  0  0  0  0  0  # atno 17321 bound_to 7965
  140.3448  143.2998  152.0550 LP  0  0  0  0  0  0  0  0  0  0  0  0  # atno 17342 bound_to 10162
  139.4903  144.6416  151.6864 LP  0  0  0  0  0  0  0  0  0  0  0  0  # atno 17343 bound_to 10162
  156.8918  130.5215  149.5286 LP  0  0  0  0  0  0  0  0  0  0  0  0  # atno 17370 bound_to 10713
  156.0717  130.5749  150.9397 LP  0  0  0  0  0  0  0  0  0  0  0  0  # atno 17371 bound_to 10713
  141.0689  134.0235  157.3554 LP  0  0  0  0  0  0  0  0  0  0  0  0  # atno 17394 bound_to 11000
  139.9124  135.0192  156.7744 LP  0  0  0  0  0  0  0  0  0  0  0  0  # atno 17395 bound_to 11000

$$$$
