AV-unprocessed.smi:1512|AV-procd|sdf|6100|dock5
  -GOLD-   22720 6233D 1   1.00000     0.00000
 Structure written by MMmdl.
 44 46  0  0  0  0  0  0  0  0  3 V2000
  148.3855  131.5923  153.1556 C   0  0  0  0  0  0  0  0  0  0  0  0
  147.7215  132.7752  152.4316 C   0  0  2  0  0  0  0  0  0  0  0  0
  147.9920  133.9900  153.1995 N   0  0  0  0  0  0  0  0  0  0  0  0
  147.8910  134.1210  154.5316 C   0  0  0  0  0  0  0  0  0  0  0  0
  147.5700  133.1986  155.2822 O   0  0  0  0  0  0  0  0  0  0  0  0
  148.2320  135.5081  155.0944 C   0  0  0  0  0  0  0  0  0  0  0  0
  147.9083  135.6512  156.5245 N   0  0  0  0  0  0  0  0  0  0  0  0
  146.5513  135.8236  156.8556 C   0  0  0  0  0  0  0  0  0  0  0  0
  146.1443  135.9673  158.1247 C   0  0  0  0  0  0  0  0  0  0  0  0
  147.1408  135.9482  159.1676 C   0  0  0  0  0  0  0  0  0  0  0  0
  148.4519  135.7898  158.8737 C   0  0  0  0  0  0  0  0  0  0  0  0
  149.3986  135.7905  159.9654 N   0  3  0  0  0  0  0  0  0  0  0  0
  150.5817  135.5699  159.7248 O   0  0  0  0  0  0  0  0  0  0  0  0
  148.9868  136.0257  161.0974 O   0  5  0  0  0  0  0  0  0  0  0  0
  148.8949  135.6202  157.4740 C   0  0  0  0  0  0  0  0  0  0  0  0
  150.0753  135.4514  157.1617 O   0  0  0  0  0  0  0  0  0  0  0  0
  146.1949  132.5758  152.2551 C   0  0  2  0  0  0  0  0  0  0  0  0
  145.8322  131.4015  151.3130 C   0  0  0  0  0  0  0  0  0  0  0  0
  144.8992  132.0507  150.2759 C   0  0  1  0  0  0  0  0  0  0  0  0
  143.5606  132.4146  150.9428 C   0  0  0  0  0  0  0  0  0  0  0  0
  143.9412  133.6156  151.8278 C   0  0  0  0  0  0  0  0  0  0  0  0
  145.4548  133.7582  151.5761 C   0  0  2  0  0  0  0  0  0  0  0  0
  145.5482  133.4159  150.0930 C   0  0  0  0  0  0  0  0  0  0  0  0
  148.2622  130.6609  152.6036 H   0  0  0  0  0  0  0  0  0  0  0  0
  147.9619  131.4465  154.1498 H   0  0  0  0  0  0  0  0  0  0  0  0
  149.4570  131.7582  153.2727 H   0  0  0  0  0  0  0  0  0  0  0  0
  148.1780  132.8509  151.4436 H   0  0  0  0  0  0  0  0  0  0  0  0
  148.2715  134.8028  152.6697 H   0  0  0  0  0  0  0  0  0  0  0  0
  149.2934  135.6914  154.9207 H   0  0  0  0  0  0  0  0  0  0  0  0
  147.7134  136.2733  154.5133 H   0  0  0  0  0  0  0  0  0  0  0  0
  145.8696  135.8368  156.0175 H   0  0  0  0  0  0  0  0  0  0  0  0
  145.0985  136.1019  158.3596 H   0  0  0  0  0  0  0  0  0  0  0  0
  146.8228  136.0760  160.1922 H   0  0  0  0  0  0  0  0  0  0  0  0
  145.7631  132.4019  153.2421 H   0  0  0  0  0  0  0  0  0  0  0  0
  146.7144  131.0030  150.8107 H   0  0  0  0  0  0  0  0  0  0  0  0
  145.3550  130.5766  151.8434 H   0  0  0  0  0  0  0  0  0  0  0  0
  144.7884  131.4667  149.3619 H   0  0  0  0  0  0  0  0  0  0  0  0
  142.8206  132.7075  150.1969 H   0  0  0  0  0  0  0  0  0  0  0  0
  143.1472  131.5859  151.5189 H   0  0  0  0  0  0  0  0  0  0  0  0
  143.4107  134.5118  151.5033 H   0  0  0  0  0  0  0  0  0  0  0  0
  143.7048  133.4521  152.8797 H   0  0  0  0  0  0  0  0  0  0  0  0
  145.8307  134.7466  151.8388 H   0  0  0  0  0  0  0  0  0  0  0  0
  146.5726  133.3648  149.7207 H   0  0  0  0  0  0  0  0  0  0  0  0
  144.9707  134.0881  149.4559 H   0  0  0  0  0  0  0  0  0  0  0  0
  1  2  1  0  0  0  0
  1 24  1  0  0  0  0
  1 25  1  0  0  0  0
  1 26  1  0  0  0  0
  2  3  1  0  0  0  0
  2 17  1  0  0  0  0
  2 27  1  0  0  0  0
  3  4  1  0  0  0  0
  3 28  1  0  0  0  0
  4  5  2  0  0  0  0
  4  6  1  0  0  0  0
  6  7  1  0  0  0  0
  6 29  1  0  0  0  0
  6 30  1  0  0  0  0
  7 15  1  0  0  0  0
  7  8  1  0  0  0  0
  8  9  2  0  0  0  0
  8 31  1  0  0  0  0
  9 10  1  0  0  0  0
  9 32  1  0  0  0  0
 10 11  2  0  0  0  0
 10 33  1  0  0  0  0
 11 12  1  0  0  0  0
 11 15  1  0  0  0  0
 12 13  2  0  0  0  0
 12 14  1  0  0  0  0
 15 16  2  0  0  0  0
 17 22  1  0  0  0  0
 17 18  1  0  0  0  0
 17 34  1  0  0  0  0
 18 19  1  0  0  0  0
 18 35  1  0  0  0  0
 18 36  1  0  0  0  0
 19 23  1  0  0  0  0
 19 20  1  0  0  0  0
 19 37  1  0  0  0  0
 20 21  1  0  0  0  0
 20 38  1  0  0  0  0
 20 39  1  0  0  0  0
 21 22  1  0  0  0  0
 21 40  1  0  0  0  0
 21 41  1  0  0  0  0
 22 23  1  0  0  0  0
 22 42  1  0  0  0  0
 23 43  1  0  0  0  0
 23 44  1  0  0  0  0
M  CHG  1  12   1
M  CHG  1  14  -1
M  END
> <s_m_source_file>
AV-unprocessed.smi

> <i_m_source_file_index>
1512

> <i_lp_mmshare_version>
43012

> <i_f3d_flags>
0

> <s_epik_input>
W0NIMl0xW0NIMl1bQ0BIXShbQ0gyXTIpW0NAQEhdKFtDSDJdW0NAQEhdMTIpW0NASF0oW0NIM10pW05IXUMoPU8pW0NIMl1uM1tjSF1bY0hdW2NIXWMoW04rXSg9TylbTy1dKWMzPU8=

> <s_epik_cmdline>
J2VwaWtfcHl0aG9uJywgJy1waCcsICc3LjAnLCAnLXRuJywgJzgnLCAnLW1hJywgJzIwMCcsICctbWV0YWxfYmluZGluZycsICctaW1hZScsICc8aW5maWxlLm1hZT4nLCAnLW9tYWUnLCAnPG91dGZpbGUubWFlPic=

> <r_lp_tautomer_probability>
1

> <r_epik_Ionization_Penalty>
2.17697e-08

> <r_epik_Ionization_Penalty_Charging>
1.42735e-10

> <r_epik_Ionization_Penalty_Neutral>
2.16269e-08

> <r_epik_State_Penalty>
-0

> <r_epik_Charging_Adjusted_Penalty>
1.42735e-10

> <i_epik_Tot_Q>
0

> <i_epik_Tot_abs_Q>
2

> <r_epik_Metal_State_Penalty>
-0

> <b_epik_Metal_Only>
0

> <s_lp_Force_Field>
OPLS_2005

> <r_lp_Energy>
64.3974

> <b_lp_Chiralities_Consistent>
1

> <s_lp_Variant>
AV-unprocessed.smi:1512-1

> <Gold.Version>
5.8.1

> <Gold.Id.Protein>
6NUR|6NUR_protein|mol2

> <Gold.PLP.Fitness>
38.9181

> <Gold.PLP.PLP>
-28.7667

> <Gold.PLP.part.hbond>
-4.0000

> <Gold.PLP.part.metal>
0.0000

> <Gold.PLP.part.buried>
-3.5008

> <Gold.PLP.part.nonpolar>
-22.2170

> <Gold.PLP.part.repulsive>
0.0132

> <Gold.PLP.ligand.clash>
0.0000

> <Gold.PLP.ligand.torsion>
0.5471

> <Gold.PLP.Chemscore.Hbond>
3.7280

> <Gold.PLP.Chemscore.CHOScore>
0.0000

> <Gold.PLP.Chemscore.Metal>
0.0000

> <Gold.Chemscore.Hbonds>
donor molecule, donor type, donor heavy atom, donor atom, acceptor molecule, acceptor atom, score
      L1  H     3    28       P1  7948  1.00
      P1  H  6931  6943       L1    14  0.19

> <Gold.PLP.Chemscore.Internal.Correction>
0.0617

> <Gold.Rescore>
     Score         DG    S(hbond)    S(metal)    S(lipo)     H(rot)  DE(clash)    DE(int)     intcor
     16.62     -20.16       3.31        0.00      69.16       1.75       0.02       3.52       ----

> <Gold.Chemscore.Fitness>
16.6160

> <Gold.Chemscore.DG>
-20.1613

> <Gold.Chemscore.ZeroCoef>
-5.4800

> <Gold.Chemscore.Hbond>
3.3123

> <Gold.Chemscore.Metal>
0.0000

> <Gold.Chemscore.Lipo>
69.1594

> <Gold.Chemscore.Internal_Hbond>
0.0000

> <Gold.Chemscore.DEClash>
0.0230

> <Gold.Chemscore.DEInternal>
3.5223

> <Gold.Chemscore.Rot>
1.7474

> <Gold.Chemscore.Internal.Correction>
   9.000000E+99

> <Gold.Chemscore.Hbonds>
donor molecule, donor type, donor heavy atom, donor atom, acceptor molecule, acceptor atom, score
      L1  H     3    28       P1  7948  0.55
      P1  H  6931  6943       L1    14  0.20

> <Gold.Chemscore.Hbond.Weighted>
-11.0629

> <Gold.Chemscore.Metal.Weighted>
-0.0000

> <Gold.Chemscore.Lipo.Weighted>
-8.0916

> <Gold.Chemscore.Internal_Hbond.Weighted>
0.0000

> <Gold.Chemscore.DEClash.Weighted>
0.0230

> <Gold.Chemscore.DEInternal.Weighted>
3.5223

> <Gold.Chemscore.Rot.Weighted>
4.4733

> <Gold.Chemscore.Internal.Correction.Weighted>
   9.000000E+99

> <Gold.Protein.RotatedTorsions>
[ 6907 6896 6895 6894 ] final  -42.39 input  -60.11 | X-H torsion
[ 7974 7965 7964 7962 ] final   97.18 input  175.53 | X-H torsion
[ 8008 7997 7996 7995 ] final  -38.50 input   59.86 | X-H torsion
[ 10167 10162 10161 10158 ] final   45.66 input  -65.29 | X-H torsion
[ 10718 10713 10712 10709 ] final   38.77 input   66.30 | X-H torsion
[ 10763 10752 10751 10750 ] final  170.25 input  -60.55 | X-H torsion
[ 11005 11000 10999 10996 ] final  141.80 input  -57.11 | X-H torsion

> <Gold.Protein.ActiveResidues>
 VAL166  LYS551  ARG553  GLY616  TRP617  ASP618  TYR619  PRO620  LYS621  CYS622 
 ASP623  PHE694  ASN695  SER759  ASP760  ASP761  ALA762  ILE779  LEU786  VAL792 
 PHE793  MET794  SER795  GLU796  ALA797  LYS798  CYS799  TRP800  GLU811  SER814 

> <Gold.Protein.RotatedAtoms>
  150.9558  134.8952  159.7699 H   0  0  0  0  0  0  0  0  0  0  0  0  # atno 6907 bound_to 6896
  152.5137  134.3742  159.9338 H   0  0  0  0  0  0  0  0  0  0  0  0  # atno 6908 bound_to 6896
  151.3756  133.3799  159.2739 H   0  0  0  0  0  0  0  0  0  0  0  0  # atno 6909 bound_to 6896
  145.4289  139.2313  143.3155 H   0  0  0  0  0  0  0  0  0  0  0  0  # atno 7974 bound_to 7965
  154.4036  140.1576  156.2711 H   0  0  0  0  0  0  0  0  0  0  0  0  # atno 8008 bound_to 7997
  155.8953  140.3436  155.5964 H   0  0  0  0  0  0  0  0  0  0  0  0  # atno 8009 bound_to 7997
  155.7511  140.0805  157.2191 H   0  0  0  0  0  0  0  0  0  0  0  0  # atno 8010 bound_to 7997
  140.3219  144.2695  150.6181 H   0  0  0  0  0  0  0  0  0  0  0  0  # atno 10167 bound_to 10162
  157.3627  130.7658  149.7060 H   0  0  0  0  0  0  0  0  0  0  0  0  # atno 10718 bound_to 10713
  154.3949  135.2754  155.2132 H   0  0  0  0  0  0  0  0  0  0  0  0  # atno 10763 bound_to 10752
  154.4182  135.6006  153.5997 H   0  0  0  0  0  0  0  0  0  0  0  0  # atno 10764 bound_to 10752
  152.9831  135.5966  154.4209 H   0  0  0  0  0  0  0  0  0  0  0  0  # atno 10765 bound_to 10752
  140.0429  134.9296  157.0876 H   0  0  0  0  0  0  0  0  0  0  0  0  # atno 11005 bound_to 11000
  146.2617  140.5023  142.8850 LP  0  0  0  0  0  0  0  0  0  0  0  0  # atno 17320 bound_to 7965
  144.8196  140.6527  143.6362 LP  0  0  0  0  0  0  0  0  0  0  0  0  # atno 17321 bound_to 7965
  140.5476  143.2212  151.7982 LP  0  0  0  0  0  0  0  0  0  0  0  0  # atno 17342 bound_to 10162
  139.4872  144.4519  151.9643 LP  0  0  0  0  0  0  0  0  0  0  0  0  # atno 17343 bound_to 10162
  155.9740  130.4109  150.3954 LP  0  0  0  0  0  0  0  0  0  0  0  0  # atno 17370 bound_to 10713
  157.2034  131.0443  151.2638 LP  0  0  0  0  0  0  0  0  0  0  0  0  # atno 17371 bound_to 10713
  140.4040  134.2052  155.7163 LP  0  0  0  0  0  0  0  0  0  0  0  0  # atno 17394 bound_to 11000
  141.1892  133.8243  157.0966 LP  0  0  0  0  0  0  0  0  0  0  0  0  # atno 17395 bound_to 11000

$$$$
