AV-unprocessed.smi:3311|AV-procd|sdf|12720|dock6
  -GOLD-   2272019 63D 1   1.00000     0.00000
 Structure written by MMmdl.
 44 45  0  0  0  0  0  0  0  0  2 V2000
  144.2244  135.8969  152.6316 C   0  0  0  0  0  0  0  0  0  0  0  0
  145.6728  135.5200  152.2710 C   0  0  1  0  0  0  0  0  0  0  0  0
  146.5935  136.2462  153.1731 N   0  3  0  0  0  0  0  0  0  0  0  0
  146.1749  137.6228  153.5161 C   0  0  0  0  0  0  0  0  0  0  0  0
  147.3360  138.6349  153.4023 C   0  0  0  0  0  0  0  0  0  0  0  0
  147.8129  138.5749  152.0692 O   0  0  0  0  0  0  0  0  0  0  0  0
  146.8096  140.0673  153.6564 C   0  0  0  0  0  0  0  0  0  0  0  0
  147.9256  141.1277  153.6573 C   0  0  0  0  0  0  0  0  0  0  0  0
  149.0309  140.7729  154.6613 C   0  0  0  0  0  0  0  0  0  0  0  0
  149.5989  139.3744  154.3821 C   0  0  0  0  0  0  0  0  0  0  0  0
  148.4910  138.3055  154.3805 C   0  0  0  0  0  0  0  0  0  0  0  0
  145.9475  133.9951  152.3414 C   0  0  2  0  0  0  0  0  0  0  0  0
  147.4503  133.6582  152.3401 C   0  0  0  0  0  0  0  0  0  0  0  0
  145.2767  133.2732  151.2674 N   0  0  0  0  0  0  0  0  0  0  0  0
  145.8319  132.5107  150.2585 C   0  0  0  0  0  0  0  0  0  0  0  0
  144.8066  132.0473  149.4852 C   0  0  0  0  0  0  0  0  0  0  0  0
  143.6456  132.5880  150.1040 C   0  0  0  0  0  0  0  0  0  0  0  0
  143.9301  133.3227  151.1672 N   0  0  0  0  0  0  0  0  0  0  0  0
  143.5068  135.4731  151.9287 H   0  0  0  0  0  0  0  0  0  0  0  0
  144.0861  136.9784  152.6144 H   0  0  0  0  0  0  0  0  0  0  0  0
  143.9607  135.5443  153.6292 H   0  0  0  0  0  0  0  0  0  0  0  0
  145.8413  135.8507  151.2444 H   0  0  0  0  0  0  0  0  0  0  0  0
  146.6855  135.7202  154.0300 H   0  0  0  0  0  0  0  0  0  0  0  0
  145.3579  137.9192  152.8562 H   0  0  0  0  0  0  0  0  0  0  0  0
  145.7760  137.6234  154.5315 H   0  0  0  0  0  0  0  0  0  0  0  0
  148.5534  139.1576  151.9898 H   0  0  0  0  0  0  0  0  0  0  0  0
  146.0549  140.3314  152.9140 H   0  0  0  0  0  0  0  0  0  0  0  0
  146.3032  140.0977  154.6223 H   0  0  0  0  0  0  0  0  0  0  0  0
  148.3529  141.2192  152.6580 H   0  0  0  0  0  0  0  0  0  0  0  0
  147.5065  142.1048  153.8998 H   0  0  0  0  0  0  0  0  0  0  0  0
  149.8289  141.5148  154.6137 H   0  0  0  0  0  0  0  0  0  0  0  0
  148.6319  140.8118  155.6758 H   0  0  0  0  0  0  0  0  0  0  0  0
  150.1146  139.3740  153.4212 H   0  0  0  0  0  0  0  0  0  0  0  0
  150.3506  139.1257  155.1320 H   0  0  0  0  0  0  0  0  0  0  0  0
  148.0903  138.2186  155.3915 H   0  0  0  0  0  0  0  0  0  0  0  0
  148.9304  137.3354  154.1451 H   0  0  0  0  0  0  0  0  0  0  0  0
  145.5358  133.6269  153.2834 H   0  0  0  0  0  0  0  0  0  0  0  0
  147.9557  134.0801  153.2089 H   0  0  0  0  0  0  0  0  0  0  0  0
  147.9476  134.0431  151.4491 H   0  0  0  0  0  0  0  0  0  0  0  0
  147.6088  132.5795  152.3690 H   0  0  0  0  0  0  0  0  0  0  0  0
  146.8986  132.3626  150.1747 H   0  0  0  0  0  0  0  0  0  0  0  0
  144.8753  131.4182  148.6100 H   0  0  0  0  0  0  0  0  0  0  0  0
  142.6118  132.4708  149.8140 H   0  0  0  0  0  0  0  0  0  0  0  0
  147.5008  136.2942  152.7309 H   0  0  0  0  0  0  0  0  0  0  0  0
  1  2  1  0  0  0  0
  1 19  1  0  0  0  0
  1 20  1  0  0  0  0
  1 21  1  0  0  0  0
  2  3  1  0  0  0  0
  2 12  1  0  0  0  0
  2 22  1  0  0  0  0
  3  4  1  0  0  0  0
  3 23  1  0  0  0  0
  3 44  1  0  0  0  0
  4  5  1  0  0  0  0
  4 24  1  0  0  0  0
  4 25  1  0  0  0  0
  5 11  1  0  0  0  0
  5  6  1  0  0  0  0
  5  7  1  0  0  0  0
  6 26  1  0  0  0  0
  7  8  1  0  0  0  0
  7 27  1  0  0  0  0
  7 28  1  0  0  0  0
  8  9  1  0  0  0  0
  8 29  1  0  0  0  0
  8 30  1  0  0  0  0
  9 10  1  0  0  0  0
  9 31  1  0  0  0  0
  9 32  1  0  0  0  0
 10 11  1  0  0  0  0
 10 33  1  0  0  0  0
 10 34  1  0  0  0  0
 11 35  1  0  0  0  0
 11 36  1  0  0  0  0
 12 13  1  0  0  0  0
 12 14  1  0  0  0  0
 12 37  1  0  0  0  0
 13 38  1  0  0  0  0
 13 39  1  0  0  0  0
 13 40  1  0  0  0  0
 14 18  1  0  0  0  0
 14 15  1  0  0  0  0
 15 16  2  0  0  0  0
 15 41  1  0  0  0  0
 16 17  1  0  0  0  0
 16 42  1  0  0  0  0
 17 18  2  0  0  0  0
 17 43  1  0  0  0  0
M  CHG  1   3   1
M  END
> <s_m_source_file>
AV-unprocessed.smi

> <i_m_source_file_index>
3311

> <i_lp_mmshare_version>
43012

> <i_f3d_flags>
0

> <s_epik_input>
bjFbY0hdW2NIXVtjSF1uMVtDQEBIXShbQ0gzXSlbQ0BIXShbQ0gzXSlbTkhdW0NIMl1DMihbT0hdKVtDSDJdW0NIMl1bQ0gyXVtDSDJdW0NIMl0y

> <s_epik_cmdline>
J2VwaWtfcHl0aG9uJywgJy1waCcsICc3LjAnLCAnLXRuJywgJzgnLCAnLW1hJywgJzIwMCcsICctbWV0YWxfYmluZGluZycsICctaW1hZScsICc8aW5maWxlLm1hZT4nLCAnLW9tYWUnLCAnPG91dGZpbGUubWFlPic=

> <r_lp_tautomer_probability>
1

> <r_epik_Ionization_Penalty>
0.0141403

> <r_epik_Ionization_Penalty_Charging>
0.0141276

> <r_epik_Ionization_Penalty_Neutral>
1.27139e-05

> <r_epik_State_Penalty>
0.0110334

> <r_epik_Charging_Adjusted_Penalty>
0.025161

> <i_epik_Tot_Q>
1

> <i_epik_Tot_abs_Q>
1

> <r_epik_Metal_State_Penalty>
0.0110573

> <b_epik_Metal_Only>
0

> <s_lp_Force_Field>
OPLS_2005

> <r_lp_Energy>
23.6471

> <b_lp_Chiralities_Consistent>
1

> <s_lp_Variant>
AV-unprocessed.smi:3311-2

> <Gold.Version>
5.8.1

> <Gold.Id.Protein>
6NUR|6NUR_protein|mol2

> <Gold.PLP.Fitness>
46.9980

> <Gold.PLP.PLP>
-32.2142

> <Gold.PLP.part.hbond>
-3.3183

> <Gold.PLP.part.metal>
0.0000

> <Gold.PLP.part.buried>
-1.7711

> <Gold.PLP.part.nonpolar>
-28.6325

> <Gold.PLP.part.repulsive>
0.1748

> <Gold.PLP.ligand.clash>
0.0000

> <Gold.PLP.ligand.torsion>
0.7663

> <Gold.PLP.Chemscore.Hbond>
3.1867

> <Gold.PLP.Chemscore.CHOScore>
2.2298

> <Gold.PLP.Chemscore.Metal>
0.0000

> <Gold.Chemscore.Hbonds>
donor molecule, donor type, donor heavy atom, donor atom, acceptor molecule, acceptor atom, score
      L1  H     3    44       P1  7948  2.00
      L1  H     6    26       P1  7957  1.00
      P1  H  7954  7966       L1     6  0.12
      L1  C    15    41       P1 10747  0.93
      L1  C    17    43       P1 10186  0.87
      L1  C    17    43       P1 10952  0.38

> <Gold.PLP.Chemscore.Internal.Correction>
0.0667

> <Gold.Rescore>
     Score         DG    S(hbond)    S(metal)    S(lipo)     H(rot)  DE(clash)    DE(int)     intcor
     15.77     -17.16       1.97        0.00      90.59       2.14       0.20       1.19       ----

> <Gold.Chemscore.Fitness>
15.7730

> <Gold.Chemscore.DG>
-17.1603

> <Gold.Chemscore.ZeroCoef>
-5.4800

> <Gold.Chemscore.Hbond>
1.9659

> <Gold.Chemscore.Metal>
0.0000

> <Gold.Chemscore.Lipo>
90.5876

> <Gold.Chemscore.Internal_Hbond>
0.0000

> <Gold.Chemscore.DEClash>
0.2018

> <Gold.Chemscore.DEInternal>
1.1855

> <Gold.Chemscore.Rot>
2.1424

> <Gold.Chemscore.Internal.Correction>
   9.000000E+99

> <Gold.Chemscore.Hbonds>
donor molecule, donor type, donor heavy atom, donor atom, acceptor molecule, acceptor atom, score
      L1  H     3    44       P1  7948  1.00
      L1  H     6    26       P1  7957  0.93

> <Gold.Chemscore.Hbond.Weighted>
-6.5662

> <Gold.Chemscore.Metal.Weighted>
-0.0000

> <Gold.Chemscore.Lipo.Weighted>
-10.5988

> <Gold.Chemscore.Internal_Hbond.Weighted>
0.0000

> <Gold.Chemscore.DEClash.Weighted>
0.2018

> <Gold.Chemscore.DEInternal.Weighted>
1.1855

> <Gold.Chemscore.Rot.Weighted>
5.4846

> <Gold.Chemscore.Internal.Correction.Weighted>
   9.000000E+99

> <Gold.Protein.RotatedTorsions>
[ 6907 6896 6895 6894 ] final  174.49 input  -60.11 | X-H torsion
[ 7974 7965 7964 7962 ] final  -60.00 input  175.53 | X-H torsion
[ 8008 7997 7996 7995 ] final  167.56 input   59.86 | X-H torsion
[ 10167 10162 10161 10158 ] final  -34.36 input  -65.29 | X-H torsion
[ 10718 10713 10712 10709 ] final  122.56 input   66.30 | X-H torsion
[ 10763 10752 10751 10750 ] final -167.48 input  -60.55 | X-H torsion
[ 11005 11000 10999 10996 ] final -122.21 input  -57.11 | X-H torsion

> <Gold.Protein.ActiveResidues>
 VAL166  LYS551  ARG553  GLY616  TRP617  ASP618  TYR619  PRO620  LYS621  CYS622 
 ASP623  PHE694  ASN695  SER759  ASP760  ASP761  ALA762  ILE779  LEU786  VAL792 
 PHE793  MET794  SER795  GLU796  ALA797  LYS798  CYS799  TRP800  GLU811  SER814 

> <Gold.Protein.RotatedAtoms>
  151.7515  133.3327  159.3392 H   0  0  0  0  0  0  0  0  0  0  0  0  # atno 6907 bound_to 6896
  150.7533  134.6188  159.6134 H   0  0  0  0  0  0  0  0  0  0  0  0  # atno 6908 bound_to 6896
  152.3465  134.7066  160.0300 H   0  0  0  0  0  0  0  0  0  0  0  0  # atno 6909 bound_to 6896
  145.8207  140.8542  143.0134 H   0  0  0  0  0  0  0  0  0  0  0  0  # atno 7974 bound_to 7965
  156.1623  140.1613  156.8591 H   0  0  0  0  0  0  0  0  0  0  0  0  # atno 8008 bound_to 7997
  154.5173  140.0786  156.8140 H   0  0  0  0  0  0  0  0  0  0  0  0  # atno 8009 bound_to 7997
  155.3683  140.3399  155.4245 H   0  0  0  0  0  0  0  0  0  0  0  0  # atno 8010 bound_to 7997
  140.7187  143.3553  151.2071 H   0  0  0  0  0  0  0  0  0  0  0  0  # atno 10167 bound_to 10162
  157.5732  131.1081  150.8327 H   0  0  0  0  0  0  0  0  0  0  0  0  # atno 10718 bound_to 10713
  154.6728  135.2942  154.9719 H   0  0  0  0  0  0  0  0  0  0  0  0  # atno 10763 bound_to 10752
  154.0740  135.6614  153.4832 H   0  0  0  0  0  0  0  0  0  0  0  0  # atno 10764 bound_to 10752
  153.0497  135.5181  154.7732 H   0  0  0  0  0  0  0  0  0  0  0  0  # atno 10765 bound_to 10752
  141.0012  134.0399  157.3534 H   0  0  0  0  0  0  0  0  0  0  0  0  # atno 11005 bound_to 11000
  144.6748  140.0530  143.7478 LP  0  0  0  0  0  0  0  0  0  0  0  0  # atno 17320 bound_to 7965
  145.9677  139.2847  143.1117 LP  0  0  0  0  0  0  0  0  0  0  0  0  # atno 17321 bound_to 7965
  139.7094  143.9402  152.2941 LP  0  0  0  0  0  0  0  0  0  0  0  0  # atno 17342 bound_to 10162
  139.9122  144.6850  150.8550 LP  0  0  0  0  0  0  0  0  0  0  0  0  # atno 17343 bound_to 10162
  156.8793  130.5174  149.5292 LP  0  0  0  0  0  0  0  0  0  0  0  0  # atno 17370 bound_to 10713
  156.0777  130.5795  150.9505 LP  0  0  0  0  0  0  0  0  0  0  0  0  # atno 17371 bound_to 10713
  139.9040  135.0174  156.7400 LP  0  0  0  0  0  0  0  0  0  0  0  0  # atno 17394 bound_to 11000
  140.6885  133.9411  155.7952 LP  0  0  0  0  0  0  0  0  0  0  0  0  # atno 17395 bound_to 11000

$$$$
