AV-unprocessed.smi:1745|AV-procd|sdf|7029|dock2
  -GOLD-   22720 8243D 1   1.00000     0.00000
 Structure written by MMmdl.
 47 49  0  0  0  0  0  0  0  0  1 V2000
  144.3734  137.1150  152.9333 C   0  0  0  0  0  0  0  0  0  0  0  0
  145.3867  135.9599  152.9622 C   0  0  2  0  0  0  0  0  0  0  0  0
  146.7131  136.5076  153.2391 N   0  0  0  0  0  0  0  0  0  0  0  0
  146.9968  137.4677  154.1310 C   0  0  0  0  0  0  0  0  0  0  0  0
  146.1504  138.0233  154.8308 O   0  0  0  0  0  0  0  0  0  0  0  0
  148.3117  137.7459  154.1357 N   0  0  0  0  0  0  0  0  0  0  0  0
  149.0138  138.6901  154.9325 C   0  0  0  0  0  0  0  0  0  0  0  0
  148.6618  139.0319  156.2599 C   0  0  0  0  0  0  0  0  0  0  0  0
  149.4462  139.9752  156.9504 C   0  0  0  0  0  0  0  0  0  0  0  0
  150.5617  140.5406  156.2994 C   0  0  0  0  0  0  0  0  0  0  0  0
  151.3411  141.4849  156.9827 N   0  0  0  0  0  0  0  0  0  0  0  0
  151.8453  141.0029  158.2625 C   0  0  0  0  0  0  0  0  0  0  0  0
  152.7919  142.0459  158.8813 C   0  0  0  0  0  0  0  0  0  0  0  0
  152.1142  143.2935  159.0022 O   0  0  0  0  0  0  0  0  0  0  0  0
  151.6864  143.7947  157.7387 C   0  0  0  0  0  0  0  0  0  0  0  0
  150.7128  142.7959  157.0892 C   0  0  0  0  0  0  0  0  0  0  0  0
  150.9145  140.2061  155.0356 N   0  0  0  0  0  0  0  0  0  0  0  0
  150.1580  139.3011  154.3792 C   0  0  0  0  0  0  0  0  0  0  0  0
  145.4254  135.1735  151.6371 C   0  0  2  0  0  0  0  0  0  0  0  0
  144.1187  134.4634  151.2777 C   0  0  0  0  0  0  0  0  0  0  0  0
  144.6090  133.3579  150.3720 C   0  0  0  0  0  0  0  0  0  0  0  0
  145.9102  132.9532  151.0566 C   0  0  0  0  0  0  0  0  0  0  0  0
  146.3939  134.1271  151.7047 O   0  0  0  0  0  0  0  0  0  0  0  0
  143.3570  136.7492  152.7876 H   0  0  0  0  0  0  0  0  0  0  0  0
  144.5938  137.8170  152.1285 H   0  0  0  0  0  0  0  0  0  0  0  0
  144.3857  137.6698  153.8722 H   0  0  0  0  0  0  0  0  0  0  0  0
  145.0876  135.2737  153.7564 H   0  0  0  0  0  0  0  0  0  0  0  0
  147.4792  136.1137  152.7133 H   0  0  0  0  0  0  0  0  0  0  0  0
  148.8685  137.2648  153.4448 H   0  0  0  0  0  0  0  0  0  0  0  0
  147.8200  138.5847  156.7648 H   0  0  0  0  0  0  0  0  0  0  0  0
  149.1954  140.2554  157.9631 H   0  0  0  0  0  0  0  0  0  0  0  0
  151.0113  140.8131  158.9397 H   0  0  0  0  0  0  0  0  0  0  0  0
  152.3692  140.0568  158.1213 H   0  0  0  0  0  0  0  0  0  0  0  0
  153.1162  141.7199  159.8696 H   0  0  0  0  0  0  0  0  0  0  0  0
  153.6903  142.1654  158.2735 H   0  0  0  0  0  0  0  0  0  0  0  0
  151.1952  144.7567  157.8860 H   0  0  0  0  0  0  0  0  0  0  0  0
  152.5498  143.9719  157.0952 H   0  0  0  0  0  0  0  0  0  0  0  0
  150.4201  143.1467  156.0988 H   0  0  0  0  0  0  0  0  0  0  0  0
  149.8042  142.7233  157.6886 H   0  0  0  0  0  0  0  0  0  0  0  0
  150.4752  139.0620  153.3745 H   0  0  0  0  0  0  0  0  0  0  0  0
  145.7095  135.8326  150.8149 H   0  0  0  0  0  0  0  0  0  0  0  0
  143.6528  134.0365  152.1671 H   0  0  0  0  0  0  0  0  0  0  0  0
  143.3953  135.1202  150.7934 H   0  0  0  0  0  0  0  0  0  0  0  0
  143.9020  132.5336  150.2755 H   0  0  0  0  0  0  0  0  0  0  0  0
  144.8140  133.7527  149.3760 H   0  0  0  0  0  0  0  0  0  0  0  0
  145.7202  132.1937  151.8158 H   0  0  0  0  0  0  0  0  0  0  0  0
  146.6429  132.5551  150.3541 H   0  0  0  0  0  0  0  0  0  0  0  0
  1  2  1  0  0  0  0
  1 24  1  0  0  0  0
  1 25  1  0  0  0  0
  1 26  1  0  0  0  0
  2  3  1  0  0  0  0
  2 19  1  0  0  0  0
  2 27  1  0  0  0  0
  3  4  1  0  0  0  0
  3 28  1  0  0  0  0
  4  5  2  0  0  0  0
  4  6  1  0  0  0  0
  6  7  1  0  0  0  0
  6 29  1  0  0  0  0
  7 18  1  0  0  0  0
  7  8  2  0  0  0  0
  8  9  1  0  0  0  0
  8 30  1  0  0  0  0
  9 10  2  0  0  0  0
  9 31  1  0  0  0  0
 10 11  1  0  0  0  0
 10 17  1  0  0  0  0
 11 16  1  0  0  0  0
 11 12  1  0  0  0  0
 12 13  1  0  0  0  0
 12 32  1  0  0  0  0
 12 33  1  0  0  0  0
 13 14  1  0  0  0  0
 13 34  1  0  0  0  0
 13 35  1  0  0  0  0
 14 15  1  0  0  0  0
 15 16  1  0  0  0  0
 15 36  1  0  0  0  0
 15 37  1  0  0  0  0
 16 38  1  0  0  0  0
 16 39  1  0  0  0  0
 17 18  2  0  0  0  0
 18 40  1  0  0  0  0
 19 23  1  0  0  0  0
 19 20  1  0  0  0  0
 19 41  1  0  0  0  0
 20 21  1  0  0  0  0
 20 42  1  0  0  0  0
 20 43  1  0  0  0  0
 21 22  1  0  0  0  0
 21 44  1  0  0  0  0
 21 45  1  0  0  0  0
 22 23  1  0  0  0  0
 22 46  1  0  0  0  0
 22 47  1  0  0  0  0
M  END
> <s_m_source_file>
AV-unprocessed.smi

> <i_m_source_file_index>
1745

> <i_lp_mmshare_version>
43012

> <i_f3d_flags>
0

> <s_epik_input>
TzFbQ0gyXVtDSDJdW0NIMl1bQ0BIXTFbQ0BIXShbQ0gzXSlbTkhdQyg9TylbTkhdYzJbY0hdW2NIXWMobltjSF0yKU4zW0NIMl1bQ0gyXU9bQ0gyXVtDSDJdMw==

> <s_epik_cmdline>
J2VwaWtfcHl0aG9uJywgJy1waCcsICc3LjAnLCAnLXRuJywgJzgnLCAnLW1hJywgJzIwMCcsICctbWV0YWxfYmluZGluZycsICctaW1hZScsICc8aW5maWxlLm1hZT4nLCAnLW9tYWUnLCAnPG91dGZpbGUubWFlPic=

> <r_lp_tautomer_probability>
1

> <r_epik_Ionization_Penalty>
0.00206005

> <r_epik_Ionization_Penalty_Charging>
0

> <r_epik_Ionization_Penalty_Neutral>
0.00206005

> <r_epik_State_Penalty>
0.00138459

> <r_epik_Charging_Adjusted_Penalty>
0.00138459

> <i_epik_Tot_Q>
0

> <i_epik_Tot_abs_Q>
0

> <r_epik_Metal_State_Penalty>
-0

> <b_epik_Metal_Only>
0

> <s_lp_Force_Field>
OPLS_2005

> <r_lp_Energy>
36.624

> <b_lp_Chiralities_Consistent>
1

> <s_lp_Variant>
AV-unprocessed.smi:1745-1

> <Gold.Version>
5.8.1

> <Gold.Id.Protein>
6NUR|6NUR_protein|mol2

> <Gold.PLP.Fitness>
42.9058

> <Gold.PLP.PLP>
-33.1357

> <Gold.PLP.part.hbond>
-3.0000

> <Gold.PLP.part.metal>
0.0000

> <Gold.PLP.part.buried>
-4.9662

> <Gold.PLP.part.nonpolar>
-25.7022

> <Gold.PLP.part.repulsive>
0.3338

> <Gold.PLP.ligand.clash>
0.0000

> <Gold.PLP.ligand.torsion>
0.6495

> <Gold.PLP.Chemscore.Hbond>
2.6500

> <Gold.PLP.Chemscore.CHOScore>
1.0000

> <Gold.PLP.Chemscore.Metal>
0.0000

> <Gold.Chemscore.Hbonds>
donor molecule, donor type, donor heavy atom, donor atom, acceptor molecule, acceptor atom, score
      L1  H     3    28       P1  7948  1.00
      L1  H     6    29       P1  7948  1.00
      P1  H  7989  7998       L1    17  0.70
      L1  C    18    40       P1  7957  0.92

> <Gold.PLP.Chemscore.Internal.Correction>
0.1192

> <Gold.Rescore>
     Score         DG    S(hbond)    S(metal)    S(lipo)     H(rot)  DE(clash)    DE(int)     intcor
     16.56     -18.53       1.98        0.00      85.38       1.40       0.06       1.91       ----

> <Gold.Chemscore.Fitness>
16.5566

> <Gold.Chemscore.DG>
-18.5269

> <Gold.Chemscore.ZeroCoef>
-5.4800

> <Gold.Chemscore.Hbond>
1.9847

> <Gold.Chemscore.Metal>
0.0000

> <Gold.Chemscore.Lipo>
85.3761

> <Gold.Chemscore.Internal_Hbond>
0.0000

> <Gold.Chemscore.DEClash>
0.0607

> <Gold.Chemscore.DEInternal>
1.9096

> <Gold.Chemscore.Rot>
1.3950

> <Gold.Chemscore.Internal.Correction>
   9.000000E+99

> <Gold.Chemscore.Hbonds>
donor molecule, donor type, donor heavy atom, donor atom, acceptor molecule, acceptor atom, score
      L1  H     3    28       P1  7948  0.97
      L1  H     6    29       P1  7948  0.94
      P1  H  7989  7998       L1    17  0.07

> <Gold.Chemscore.Hbond.Weighted>
-6.6291

> <Gold.Chemscore.Metal.Weighted>
-0.0000

> <Gold.Chemscore.Lipo.Weighted>
-9.9890

> <Gold.Chemscore.Internal_Hbond.Weighted>
0.0000

> <Gold.Chemscore.DEClash.Weighted>
0.0607

> <Gold.Chemscore.DEInternal.Weighted>
1.9096

> <Gold.Chemscore.Rot.Weighted>
3.5712

> <Gold.Chemscore.Internal.Correction.Weighted>
   9.000000E+99

> <Gold.Protein.RotatedTorsions>
[ 6907 6896 6895 6894 ] final  124.64 input  -60.11 | X-H torsion
[ 7974 7965 7964 7962 ] final  -49.10 input  175.53 | X-H torsion
[ 8008 7997 7996 7995 ] final  -87.64 input   59.86 | X-H torsion
[ 10167 10162 10161 10158 ] final -165.46 input  -65.29 | X-H torsion
[ 10718 10713 10712 10709 ] final -109.38 input   66.30 | X-H torsion
[ 10763 10752 10751 10750 ] final   91.60 input  -60.55 | X-H torsion
[ 11005 11000 10999 10996 ] final -117.81 input  -57.11 | X-H torsion

> <Gold.Protein.ActiveResidues>
 VAL166  LYS551  ARG553  GLY616  TRP617  ASP618  TYR619  PRO620  LYS621  CYS622 
 ASP623  PHE694  ASN695  SER759  ASP760  ASP761  ALA762  ILE779  LEU786  VAL792 
 PHE793  MET794  SER795  GLU796  ALA797  LYS798  CYS799  TRP800  GLU811  SER814 

> <Gold.Protein.RotatedAtoms>
  152.4060  133.6890  159.6356 H   0  0  0  0  0  0  0  0  0  0  0  0  # atno 6907 bound_to 6896
  150.7945  133.8708  159.3267 H   0  0  0  0  0  0  0  0  0  0  0  0  # atno 6908 bound_to 6896
  151.6462  135.1009  160.0203 H   0  0  0  0  0  0  0  0  0  0  0  0  # atno 6909 bound_to 6896
  145.9442  140.7634  142.9537 H   0  0  0  0  0  0  0  0  0  0  0  0  # atno 7974 bound_to 7965
  154.6656  140.0563  157.0110 H   0  0  0  0  0  0  0  0  0  0  0  0  # atno 8008 bound_to 7997
  155.1164  140.3243  155.4490 H   0  0  0  0  0  0  0  0  0  0  0  0  # atno 8009 bound_to 7997
  156.2636  140.2005  156.6287 H   0  0  0  0  0  0  0  0  0  0  0  0  # atno 8010 bound_to 7997
  139.6180  144.0680  152.1906 H   0  0  0  0  0  0  0  0  0  0  0  0  # atno 10167 bound_to 10162
  156.0534  130.5761  150.8092 H   0  0  0  0  0  0  0  0  0  0  0  0  # atno 10718 bound_to 10713
  153.2100  135.4392  155.0368 H   0  0  0  0  0  0  0  0  0  0  0  0  # atno 10763 bound_to 10752
  154.8194  135.3330  154.7084 H   0  0  0  0  0  0  0  0  0  0  0  0  # atno 10764 bound_to 10752
  153.7522  135.6997  153.4999 H   0  0  0  0  0  0  0  0  0  0  0  0  # atno 10765 bound_to 10752
  141.0329  133.9953  157.3115 H   0  0  0  0  0  0  0  0  0  0  0  0  # atno 11005 bound_to 11000
  144.6784  140.2329  143.7353 LP  0  0  0  0  0  0  0  0  0  0  0  0  # atno 17320 bound_to 7965
  145.8259  139.2064  143.1911 LP  0  0  0  0  0  0  0  0  0  0  0  0  # atno 17321 bound_to 7965
  140.0315  144.6077  150.7484 LP  0  0  0  0  0  0  0  0  0  0  0  0  # atno 17342 bound_to 10162
  140.7364  143.2752  151.3763 LP  0  0  0  0  0  0  0  0  0  0  0  0  # atno 17343 bound_to 10162
  157.5482  131.0943  150.9733 LP  0  0  0  0  0  0  0  0  0  0  0  0  # atno 17370 bound_to 10713
  156.9999  130.5596  149.5310 LP  0  0  0  0  0  0  0  0  0  0  0  0  # atno 17371 bound_to 10713
  139.9220  135.0201  156.8100 LP  0  0  0  0  0  0  0  0  0  0  0  0  # atno 17394 bound_to 11000
  140.6374  133.9850  155.7691 LP  0  0  0  0  0  0  0  0  0  0  0  0  # atno 17395 bound_to 11000

$$$$
