AV-unprocessed.smi:2825|AV-procd|sdf|10891|dock2
  -GOLD-   2272015333D 1   1.00000     0.00000
 Structure written by MMmdl.
 49 50  0  0  0  0  0  0  0  0  2 V2000
  147.8173  135.7804  161.3677 C   0  0  0  0  0  0  0  0  0  0  0  0
  148.7349  135.8211  160.1414 C   0  0  0  0  0  0  0  0  0  0  0  0
  148.4560  137.0332  159.2412 C   0  0  0  0  0  0  0  0  0  0  0  0
  149.9049  137.4377  158.1710 S   0  0  0  0  0  0  0  0  0  0  0  0
  150.2990  138.8352  158.4055 O   0  0  0  0  0  0  0  0  0  0  0  0
  150.8976  136.3609  158.3107 O   0  0  0  0  0  0  0  0  0  0  0  0
  149.2371  137.3492  156.5708 N   0  0  0  0  0  0  0  0  0  0  0  0
  148.0802  136.4755  156.3470 C   0  0  0  0  0  0  0  0  0  0  0  0
  149.2748  138.5492  155.7216 C   0  0  0  0  0  0  0  0  0  0  0  0
  150.6493  138.6997  155.0311 C   0  0  1  0  0  0  0  0  0  0  0  0
  150.4695  139.4276  153.8340 O   0  0  0  0  0  0  0  0  0  0  0  0
  151.6919  139.4609  155.8745 C   0  0  0  0  0  0  0  0  0  0  0  0
  151.1556  140.7049  156.4451 N   0  0  0  0  0  0  0  0  0  0  0  0
  150.1852  141.5259  155.9594 C   0  0  0  0  0  0  0  0  0  0  0  0
  150.0471  142.5617  156.8318 N   0  3  0  0  0  0  0  0  0  0  0  0
  150.9382  142.3978  157.8938 C   0  0  0  0  0  0  0  0  0  0  0  0
  151.1692  143.1854  159.0153 C   0  0  0  0  0  0  0  0  0  0  0  0
  152.1593  142.7433  159.9211 C   0  0  0  0  0  0  0  0  0  0  0  0
  152.4384  143.5823  161.1567 C   0  0  0  0  0  0  0  0  0  0  0  0
  152.8807  141.5444  159.6859 C   0  0  0  0  0  0  0  0  0  0  0  0
  153.9464  141.0802  160.6640 C   0  0  0  0  0  0  0  0  0  0  0  0
  152.6287  140.7559  158.5405 C   0  0  0  0  0  0  0  0  0  0  0  0
  151.6504  141.2057  157.6560 C   0  0  0  0  0  0  0  0  0  0  0  0
  148.0360  134.9112  161.9884 H   0  0  0  0  0  0  0  0  0  0  0  0
  146.7692  135.7227  161.0726 H   0  0  0  0  0  0  0  0  0  0  0  0
  147.9447  136.6700  161.9850 H   0  0  0  0  0  0  0  0  0  0  0  0
  149.7737  135.8354  160.4719 H   0  0  0  0  0  0  0  0  0  0  0  0
  148.6040  134.9031  159.5681 H   0  0  0  0  0  0  0  0  0  0  0  0
  147.5840  136.8692  158.6092 H   0  0  0  0  0  0  0  0  0  0  0  0
  148.2495  137.9102  159.8547 H   0  0  0  0  0  0  0  0  0  0  0  0
  147.9738  136.2459  155.2863 H   0  0  0  0  0  0  0  0  0  0  0  0
  147.1686  136.9622  156.6952 H   0  0  0  0  0  0  0  0  0  0  0  0
  148.1952  135.5359  156.8856 H   0  0  0  0  0  0  0  0  0  0  0  0
  148.4724  138.5350  154.9818 H   0  0  0  0  0  0  0  0  0  0  0  0
  149.0609  139.4012  156.3642 H   0  0  0  0  0  0  0  0  0  0  0  0
  151.0627  137.7255  154.7700 H   0  0  0  0  0  0  0  0  0  0  0  0
  149.8163  138.9901  153.3097 H   0  0  0  0  0  0  0  0  0  0  0  0
  152.0068  138.8440  156.7174 H   0  0  0  0  0  0  0  0  0  0  0  0
  152.5931  139.6730  155.3000 H   0  0  0  0  0  0  0  0  0  0  0  0
  149.6342  141.3870  155.0403 H   0  0  0  0  0  0  0  0  0  0  0  0
  150.6172  144.0983  159.1865 H   0  0  0  0  0  0  0  0  0  0  0  0
  153.4712  143.9317  161.1566 H   0  0  0  0  0  0  0  0  0  0  0  0
  152.2691  142.9993  162.0624 H   0  0  0  0  0  0  0  0  0  0  0  0
  151.7902  144.4580  161.1991 H   0  0  0  0  0  0  0  0  0  0  0  0
  154.4201  140.1565  160.3302 H   0  0  0  0  0  0  0  0  0  0  0  0
  153.5100  140.8945  161.6455 H   0  0  0  0  0  0  0  0  0  0  0  0
  154.7266  141.8347  160.7680 H   0  0  0  0  0  0  0  0  0  0  0  0
  153.1840  139.8472  158.3633 H   0  0  0  0  0  0  0  0  0  0  0  0
  149.3952  143.3253  156.7061 H   0  0  0  0  0  0  0  0  0  0  0  0
  1  2  1  0  0  0  0
  1 24  1  0  0  0  0
  1 25  1  0  0  0  0
  1 26  1  0  0  0  0
  2  3  1  0  0  0  0
  2 27  1  0  0  0  0
  2 28  1  0  0  0  0
  3  4  1  0  0  0  0
  3 29  1  0  0  0  0
  3 30  1  0  0  0  0
  4  5  2  0  0  0  0
  4  6  2  0  0  0  0
  4  7  1  0  0  0  0
  7  8  1  0  0  0  0
  7  9  1  0  0  0  0
  8 31  1  0  0  0  0
  8 32  1  0  0  0  0
  8 33  1  0  0  0  0
  9 10  1  0  0  0  0
  9 34  1  0  0  0  0
  9 35  1  0  0  0  0
 10 11  1  0  0  0  0
 10 12  1  0  0  0  0
 10 36  1  0  0  0  0
 11 37  1  0  0  0  0
 12 13  1  0  0  0  0
 12 38  1  0  0  0  0
 12 39  1  0  0  0  0
 13 23  1  0  0  0  0
 13 14  1  0  0  0  0
 14 15  2  0  0  0  0
 14 40  1  0  0  0  0
 15 16  1  0  0  0  0
 15 49  1  0  0  0  0
 16 23  2  0  0  0  0
 16 17  1  0  0  0  0
 17 18  2  0  0  0  0
 17 41  1  0  0  0  0
 18 19  1  0  0  0  0
 18 20  1  0  0  0  0
 19 42  1  0  0  0  0
 19 43  1  0  0  0  0
 19 44  1  0  0  0  0
 20 21  1  0  0  0  0
 20 22  2  0  0  0  0
 21 45  1  0  0  0  0
 21 46  1  0  0  0  0
 21 47  1  0  0  0  0
 22 23  1  0  0  0  0
 22 48  1  0  0  0  0
M  CHG  1  15   1
M  END
> <s_m_source_file>
AV-unprocessed.smi

> <i_m_source_file_index>
2825

> <i_lp_mmshare_version>
43012

> <i_f3d_flags>
0

> <s_epik_input>
W0NIM11bQ0gyXVtDSDJdUyg9TykoPU8pTihbQ0gzXSlbQ0gyXVtDQEhdKFtPSF0pW0NIMl1uKFtjSF1uMSljKGMxMilbY0hdYyhbQ0gzXSljKFtjSF0yKVtDSDNd

> <s_epik_cmdline>
J2VwaWtfcHl0aG9uJywgJy1waCcsICc3LjAnLCAnLXRuJywgJzgnLCAnLW1hJywgJzIwMCcsICctbWV0YWxfYmluZGluZycsICctaW1hZScsICc8aW5maWxlLm1hZT4nLCAnLW9tYWUnLCAnPG91dGZpbGUubWFlPic=

> <r_epik_Ionization_Penalty>
1.0773

> <r_epik_Ionization_Penalty_Charging>
1.0773

> <r_epik_Ionization_Penalty_Neutral>
1.44651e-06

> <r_epik_State_Penalty>
1.13242

> <r_epik_Charging_Adjusted_Penalty>
2.20972

> <i_epik_Tot_Q>
1

> <i_epik_Tot_abs_Q>
1

> <r_epik_Metal_State_Penalty>
5.13045

> <b_epik_Metal_Only>
0

> <s_lp_Force_Field>
OPLS_2005

> <r_lp_Energy>
14.1853

> <b_lp_Chiralities_Consistent>
1

> <s_lp_Variant>
AV-unprocessed.smi:2825-4

> <Gold.Version>
5.8.1

> <Gold.Id.Protein>
6NUR|6NUR_protein|mol2

> <Gold.PLP.Fitness>
53.2182

> <Gold.PLP.PLP>
-43.6004

> <Gold.PLP.part.hbond>
-4.0000

> <Gold.PLP.part.metal>
0.0000

> <Gold.PLP.part.buried>
-5.2304

> <Gold.PLP.part.nonpolar>
-35.2008

> <Gold.PLP.part.repulsive>
0.0410

> <Gold.PLP.ligand.clash>
0.0000

> <Gold.PLP.ligand.torsion>
2.2447

> <Gold.PLP.Chemscore.Hbond>
3.8415

> <Gold.PLP.Chemscore.CHOScore>
0.0000

> <Gold.PLP.Chemscore.Metal>
0.0000

> <Gold.Chemscore.Hbonds>
donor molecule, donor type, donor heavy atom, donor atom, acceptor molecule, acceptor atom, score
      L1  H    11    37       P1  7957  0.02
      L1  H    15    49       P1  8028  1.89
      P1  H  6896  6909       L1     6  0.72
      P1  H  7989  7998       L1    11  1.00

> <Gold.PLP.Chemscore.Internal.Correction>
2.5827

> <Gold.Rescore>
     Score         DG    S(hbond)    S(metal)    S(lipo)     H(rot)  DE(clash)    DE(int)     intcor
     17.78     -21.21       2.89        0.00     106.83       2.51       0.07       3.36       ----

> <Gold.Chemscore.Fitness>
17.7844

> <Gold.Chemscore.DG>
-21.2129

> <Gold.Chemscore.ZeroCoef>
-5.4800

> <Gold.Chemscore.Hbond>
2.8926

> <Gold.Chemscore.Metal>
0.0000

> <Gold.Chemscore.Lipo>
106.8253

> <Gold.Chemscore.Internal_Hbond>
0.0000

> <Gold.Chemscore.DEClash>
0.0696

> <Gold.Chemscore.DEInternal>
3.3588

> <Gold.Chemscore.Rot>
2.5106

> <Gold.Chemscore.Internal.Correction>
   9.000000E+99

> <Gold.Chemscore.Hbonds>
donor molecule, donor type, donor heavy atom, donor atom, acceptor molecule, acceptor atom, score
      L1  H    11    37       P1  7957  0.03
      L1  H    15    49       P1  8028  0.90
      P1  H  6896  6909       L1     6  0.70
      P1  H  7989  7998       L1    11  0.93

> <Gold.Chemscore.Hbond.Weighted>
-9.6614

> <Gold.Chemscore.Metal.Weighted>
-0.0000

> <Gold.Chemscore.Lipo.Weighted>
-12.4986

> <Gold.Chemscore.Internal_Hbond.Weighted>
0.0000

> <Gold.Chemscore.DEClash.Weighted>
0.0696

> <Gold.Chemscore.DEInternal.Weighted>
3.3588

> <Gold.Chemscore.Rot.Weighted>
6.4271

> <Gold.Chemscore.Internal.Correction.Weighted>
   9.000000E+99

> <Gold.Protein.RotatedTorsions>
[ 6907 6896 6895 6894 ] final   88.97 input  -60.11 | X-H torsion
[ 7974 7965 7964 7962 ] final  -66.22 input  175.53 | X-H torsion
[ 8008 7997 7996 7995 ] final  -24.07 input   59.86 | X-H torsion
[ 10167 10162 10161 10158 ] final  -97.12 input  -65.29 | X-H torsion
[ 10718 10713 10712 10709 ] final -158.37 input   66.30 | X-H torsion
[ 10763 10752 10751 10750 ] final  -55.05 input  -60.55 | X-H torsion
[ 11005 11000 10999 10996 ] final  142.40 input  -57.11 | X-H torsion

> <Gold.Protein.ActiveResidues>
 VAL166  LYS551  ARG553  GLY616  TRP617  ASP618  TYR619  PRO620  LYS621  CYS622 
 ASP623  PHE694  ASN695  SER759  ASP760  ASP761  ALA762  ILE779  LEU786  VAL792 
 PHE793  MET794  SER795  GLU796  ALA797  LYS798  CYS799  TRP800  GLU811  SER814 

> <Gold.Protein.RotatedAtoms>
  152.5431  134.2038  159.8722 H   0  0  0  0  0  0  0  0  0  0  0  0  # atno 6907 bound_to 6896
  151.2025  133.4595  159.2604 H   0  0  0  0  0  0  0  0  0  0  0  0  # atno 6908 bound_to 6896
  151.0975  134.9965  159.8488 H   0  0  0  0  0  0  0  0  0  0  0  0  # atno 6909 bound_to 6896
  145.7444  140.8938  143.0512 H   0  0  0  0  0  0  0  0  0  0  0  0  # atno 7974 bound_to 7965
  154.4550  140.1963  156.0407 H   0  0  0  0  0  0  0  0  0  0  0  0  # atno 8008 bound_to 7997
  156.0726  140.3282  155.7567 H   0  0  0  0  0  0  0  0  0  0  0  0  # atno 8009 bound_to 7997
  155.5238  140.0572  157.2892 H   0  0  0  0  0  0  0  0  0  0  0  0  # atno 8010 bound_to 7997
  140.2867  143.3247  152.0387 H   0  0  0  0  0  0  0  0  0  0  0  0  # atno 10167 bound_to 10162
  156.5532  130.8614  151.2786 H   0  0  0  0  0  0  0  0  0  0  0  0  # atno 10718 bound_to 10713
  154.1847  135.6437  153.5043 H   0  0  0  0  0  0  0  0  0  0  0  0  # atno 10763 bound_to 10752
  153.0050  135.5414  154.6478 H   0  0  0  0  0  0  0  0  0  0  0  0  # atno 10764 bound_to 10752
  154.5851  135.2929  155.0666 H   0  0  0  0  0  0  0  0  0  0  0  0  # atno 10765 bound_to 10752
  140.0474  134.9273  157.0955 H   0  0  0  0  0  0  0  0  0  0  0  0  # atno 11005 bound_to 11000
  144.6863  139.9505  143.7478 LP  0  0  0  0  0  0  0  0  0  0  0  0  # atno 17320 bound_to 7965
  146.0416  139.3427  143.0693 LP  0  0  0  0  0  0  0  0  0  0  0  0  # atno 17321 bound_to 7965
  139.4948  144.6554  151.6585 LP  0  0  0  0  0  0  0  0  0  0  0  0  # atno 17342 bound_to 10162
  140.5766  144.0017  150.6245 LP  0  0  0  0  0  0  0  0  0  0  0  0  # atno 17343 bound_to 10162
  157.7383  130.9811  150.2246 LP  0  0  0  0  0  0  0  0  0  0  0  0  # atno 17370 bound_to 10713
  156.2866  130.3740  149.7883 LP  0  0  0  0  0  0  0  0  0  0  0  0  # atno 17371 bound_to 10713
  140.3972  134.2122  155.7164 LP  0  0  0  0  0  0  0  0  0  0  0  0  # atno 17394 bound_to 11000
  141.1914  133.8197  157.0882 LP  0  0  0  0  0  0  0  0  0  0  0  0  # atno 17395 bound_to 11000

$$$$
