AV-unprocessed.smi:671|AV-procd|sdf|3275|dock6
  -GOLD-   22720 0233D 1   1.00000     0.00000
 Structure written by MMmdl.
 49 50  0  0  0  0  0  0  0  0  1 V2000
  152.8911  138.4230  154.8028 C   0  0  0  0  0  0  0  0  0  0  0  0
  151.9565  139.4051  155.4499 C   0  0  0  0  0  0  0  0  0  0  0  0
  152.4077  140.1622  156.4356 N   0  0  0  0  0  0  0  0  0  0  0  0
  151.3539  140.9201  156.7980 N   0  0  0  0  0  0  0  0  0  0  0  0
  151.5054  141.8817  157.8728 C   0  0  0  0  0  0  0  0  0  0  0  0
  150.2330  140.6402  156.0411 C   0  0  0  0  0  0  0  0  0  0  0  0
  148.9369  141.3546  156.2519 C   0  0  0  0  0  0  0  0  0  0  0  0
  150.5850  139.6598  155.1513 C   0  0  0  0  0  0  0  0  0  0  0  0
  149.7404  138.9922  154.0950 C   0  0  0  0  0  0  0  0  0  0  0  0
  148.4140  138.4452  154.6573 C   0  0  2  0  0  0  0  0  0  0  0  0
  148.6025  137.6392  155.9557 C   0  0  0  0  0  0  0  0  0  0  0  0
  147.7745  137.6091  153.6380 N   0  0  0  0  0  0  0  0  0  0  0  0
  146.4612  137.4467  153.3945 C   0  0  0  0  0  0  0  0  0  0  0  0
  145.6039  138.0312  154.0539 O   0  0  0  0  0  0  0  0  0  0  0  0
  146.1809  136.6066  152.3842 N   0  0  0  0  0  0  0  0  0  0  0  0
  144.8484  136.1980  151.9413 C   0  0  1  0  0  0  0  0  0  0  0  0
  144.9371  135.4796  150.5787 C   0  0  0  0  0  0  0  0  0  0  0  0
  144.3541  134.0772  150.7840 C   0  0  0  0  0  0  0  0  0  0  0  0
  144.4731  133.8162  152.2826 C   0  0  0  0  0  0  0  0  0  0  0  0
  144.2021  135.1828  152.9131 C   0  0  1  0  0  0  0  0  0  0  0  0
  144.6198  135.2775  154.3918 C   0  0  0  0  0  0  0  0  0  0  0  0
  152.4651  138.0022  153.8923 H   0  0  0  0  0  0  0  0  0  0  0  0
  153.1136  137.5949  155.4759 H   0  0  0  0  0  0  0  0  0  0  0  0
  153.8353  138.8972  154.5337 H   0  0  0  0  0  0  0  0  0  0  0  0
  151.2376  142.8763  157.5161 H   0  0  0  0  0  0  0  0  0  0  0  0
  152.5356  141.9023  158.2307 H   0  0  0  0  0  0  0  0  0  0  0  0
  150.8501  141.6109  158.7009 H   0  0  0  0  0  0  0  0  0  0  0  0
  148.1639  140.9862  155.5785 H   0  0  0  0  0  0  0  0  0  0  0  0
  149.0517  142.4235  156.0718 H   0  0  0  0  0  0  0  0  0  0  0  0
  148.5821  141.2193  157.2738 H   0  0  0  0  0  0  0  0  0  0  0  0
  149.5195  139.7037  153.2983 H   0  0  0  0  0  0  0  0  0  0  0  0
  150.2888  138.1853  153.6082 H   0  0  0  0  0  0  0  0  0  0  0  0
  147.7760  139.3042  154.8712 H   0  0  0  0  0  0  0  0  0  0  0  0
  149.0221  138.2558  156.7505 H   0  0  0  0  0  0  0  0  0  0  0  0
  149.2729  136.7930  155.8018 H   0  0  0  0  0  0  0  0  0  0  0  0
  147.6531  137.2477  156.3218 H   0  0  0  0  0  0  0  0  0  0  0  0
  148.4049  137.1231  153.0165 H   0  0  0  0  0  0  0  0  0  0  0  0
  146.9605  136.1871  151.8991 H   0  0  0  0  0  0  0  0  0  0  0  0
  144.1944  137.0673  151.8534 H   0  0  0  0  0  0  0  0  0  0  0  0
  144.3954  136.0204  149.8020 H   0  0  0  0  0  0  0  0  0  0  0  0
  145.9731  135.3993  150.2445 H   0  0  0  0  0  0  0  0  0  0  0  0
  143.3016  134.0734  150.4972 H   0  0  0  0  0  0  0  0  0  0  0  0
  144.8620  133.3205  150.1857 H   0  0  0  0  0  0  0  0  0  0  0  0
  143.7802  133.0491  152.6296 H   0  0  0  0  0  0  0  0  0  0  0  0
  145.4855  133.4858  152.5195 H   0  0  0  0  0  0  0  0  0  0  0  0
  143.1238  135.3450  152.8695 H   0  0  0  0  0  0  0  0  0  0  0  0
  145.6781  135.0553  154.5315 H   0  0  0  0  0  0  0  0  0  0  0  0
  144.0555  134.5692  154.9986 H   0  0  0  0  0  0  0  0  0  0  0  0
  144.4304  136.2756  154.7876 H   0  0  0  0  0  0  0  0  0  0  0  0
  1  2  1  0  0  0  0
  1 22  1  0  0  0  0
  1 23  1  0  0  0  0
  1 24  1  0  0  0  0
  2  8  1  0  0  0  0
  2  3  2  0  0  0  0
  3  4  1  0  0  0  0
  4  5  1  0  0  0  0
  4  6  1  0  0  0  0
  5 25  1  0  0  0  0
  5 26  1  0  0  0  0
  5 27  1  0  0  0  0
  6  7  1  0  0  0  0
  6  8  2  0  0  0  0
  7 28  1  0  0  0  0
  7 29  1  0  0  0  0
  7 30  1  0  0  0  0
  8  9  1  0  0  0  0
  9 10  1  0  0  0  0
  9 31  1  0  0  0  0
  9 32  1  0  0  0  0
 10 11  1  0  0  0  0
 10 12  1  0  0  0  0
 10 33  1  0  0  0  0
 11 34  1  0  0  0  0
 11 35  1  0  0  0  0
 11 36  1  0  0  0  0
 12 13  1  0  0  0  0
 12 37  1  0  0  0  0
 13 14  2  0  0  0  0
 13 15  1  0  0  0  0
 15 16  1  0  0  0  0
 15 38  1  0  0  0  0
 16 20  1  0  0  0  0
 16 17  1  0  0  0  0
 16 39  1  0  0  0  0
 17 18  1  0  0  0  0
 17 40  1  0  0  0  0
 17 41  1  0  0  0  0
 18 19  1  0  0  0  0
 18 42  1  0  0  0  0
 18 43  1  0  0  0  0
 19 20  1  0  0  0  0
 19 44  1  0  0  0  0
 19 45  1  0  0  0  0
 20 21  1  0  0  0  0
 20 46  1  0  0  0  0
 21 47  1  0  0  0  0
 21 48  1  0  0  0  0
 21 49  1  0  0  0  0
M  END
> <s_m_source_file>
AV-unprocessed.smi

> <i_m_source_file_index>
671

> <i_lp_mmshare_version>
43012

> <i_f3d_flags>
0

> <s_epik_input>
W0NIM11jMW5uKFtDSDNdKWMoW0NIM10pYzFbQ0gyXVtDQEhdKFtDSDNdKVtOSF1DKD1PKVtOSF1bQ0BASF0yW0NIMl1bQ0gyXVtDSDJdW0NASF0yW0NIM10=

> <s_epik_cmdline>
J2VwaWtfcHl0aG9uJywgJy1waCcsICc3LjAnLCAnLXRuJywgJzgnLCAnLW1hJywgJzIwMCcsICctbWV0YWxfYmluZGluZycsICctaW1hZScsICc8aW5maWxlLm1hZT4nLCAnLW9tYWUnLCAnPG91dGZpbGUubWFlPic=

> <r_lp_tautomer_probability>
1

> <r_epik_Ionization_Penalty>
0.0126855

> <r_epik_Ionization_Penalty_Charging>
0

> <r_epik_Ionization_Penalty_Neutral>
0.0126855

> <r_epik_State_Penalty>
0.00977547

> <r_epik_Charging_Adjusted_Penalty>
0.00977547

> <i_epik_Tot_Q>
0

> <i_epik_Tot_abs_Q>
0

> <r_epik_Metal_State_Penalty>
0.00957132

> <b_epik_Metal_Only>
0

> <s_lp_Force_Field>
OPLS_2005

> <r_lp_Energy>
23.5654

> <b_lp_Chiralities_Consistent>
1

> <s_lp_Variant>
AV-unprocessed.smi:671-3

> <Gold.Version>
5.8.1

> <Gold.Id.Protein>
6NUR|6NUR_protein|mol2

> <Gold.PLP.Fitness>
39.7625

> <Gold.PLP.PLP>
-32.5156

> <Gold.PLP.part.hbond>
-3.0000

> <Gold.PLP.part.metal>
0.0000

> <Gold.PLP.part.buried>
-2.0053

> <Gold.PLP.part.nonpolar>
-28.0945

> <Gold.PLP.part.repulsive>
0.1736

> <Gold.PLP.ligand.clash>
0.0000

> <Gold.PLP.ligand.torsion>
0.6599

> <Gold.PLP.Chemscore.Hbond>
2.8480

> <Gold.PLP.Chemscore.CHOScore>
0.0000

> <Gold.PLP.Chemscore.Metal>
0.0000

> <Gold.Chemscore.Hbonds>
donor molecule, donor type, donor heavy atom, donor atom, acceptor molecule, acceptor atom, score
      L1  H    12    37       P1  7948  1.00
      L1  H    15    38       P1  7948  0.83
      P1  H  7997  8008       L1     3  1.00

> <Gold.PLP.Chemscore.Internal.Correction>
0.0227

> <Gold.Rescore>
     Score         DG    S(hbond)    S(metal)    S(lipo)     H(rot)  DE(clash)    DE(int)     intcor
     19.56     -20.41       2.71        0.00      81.87       1.45       0.07       0.78       ----

> <Gold.Chemscore.Fitness>
19.5579

> <Gold.Chemscore.DG>
-20.4051

> <Gold.Chemscore.ZeroCoef>
-5.4800

> <Gold.Chemscore.Hbond>
2.7122

> <Gold.Chemscore.Metal>
0.0000

> <Gold.Chemscore.Lipo>
81.8665

> <Gold.Chemscore.Internal_Hbond>
0.0000

> <Gold.Chemscore.DEClash>
0.0674

> <Gold.Chemscore.DEInternal>
0.7798

> <Gold.Chemscore.Rot>
1.4499

> <Gold.Chemscore.Internal.Correction>
   9.000000E+99

> <Gold.Chemscore.Hbonds>
donor molecule, donor type, donor heavy atom, donor atom, acceptor molecule, acceptor atom, score
      L1  H    12    37       P1  7948  0.95
      L1  H    15    38       P1  7948  0.82
      P1  H  7997  8008       L1     3  0.75

> <Gold.Chemscore.Hbond.Weighted>
-9.0586

> <Gold.Chemscore.Metal.Weighted>
-0.0000

> <Gold.Chemscore.Lipo.Weighted>
-9.5784

> <Gold.Chemscore.Internal_Hbond.Weighted>
0.0000

> <Gold.Chemscore.DEClash.Weighted>
0.0674

> <Gold.Chemscore.DEInternal.Weighted>
0.7798

> <Gold.Chemscore.Rot.Weighted>
3.7118

> <Gold.Chemscore.Internal.Correction.Weighted>
   9.000000E+99

> <Gold.Protein.RotatedTorsions>
[ 6907 6896 6895 6894 ] final  -14.65 input  -60.11 | X-H torsion
[ 7974 7965 7964 7962 ] final  -80.31 input  175.53 | X-H torsion
[ 8008 7997 7996 7995 ] final  -54.08 input   59.86 | X-H torsion
[ 10167 10162 10161 10158 ] final  -83.67 input  -65.29 | X-H torsion
[ 10718 10713 10712 10709 ] final   52.57 input   66.30 | X-H torsion
[ 10763 10752 10751 10750 ] final   33.37 input  -60.55 | X-H torsion
[ 11005 11000 10999 10996 ] final  -59.24 input  -57.11 | X-H torsion

> <Gold.Protein.ActiveResidues>
 VAL166  LYS551  ARG553  GLY616  TRP617  ASP618  TYR619  PRO620  LYS621  CYS622 
 ASP623  PHE694  ASN695  SER759  ASP760  ASP761  ALA762  ILE779  LEU786  VAL792 
 PHE793  MET794  SER795  GLU796  ALA797  LYS798  CYS799  TRP800  GLU811  SER814 

> <Gold.Protein.RotatedAtoms>
  151.3361  135.0853  159.9354 H   0  0  0  0  0  0  0  0  0  0  0  0  # atno 6907 bound_to 6896
  152.5223  133.9494  159.7675 H   0  0  0  0  0  0  0  0  0  0  0  0  # atno 6908 bound_to 6896
  150.9842  133.6162  159.2748 H   0  0  0  0  0  0  0  0  0  0  0  0  # atno 6909 bound_to 6896
  145.5616  140.9481  143.1444 H   0  0  0  0  0  0  0  0  0  0  0  0  # atno 7974 bound_to 7965
  154.4152  140.1184  156.5258 H   0  0  0  0  0  0  0  0  0  0  0  0  # atno 8008 bound_to 7997
  155.6656  140.3496  155.4779 H   0  0  0  0  0  0  0  0  0  0  0  0  # atno 8009 bound_to 7997
  155.9677  140.1135  157.0830 H   0  0  0  0  0  0  0  0  0  0  0  0  # atno 8010 bound_to 7997
  140.4205  143.2586  151.8897 H   0  0  0  0  0  0  0  0  0  0  0  0  # atno 10167 bound_to 10162
  157.5087  130.8486  149.8407 H   0  0  0  0  0  0  0  0  0  0  0  0  # atno 10718 bound_to 10713
  153.0215  135.6389  154.1500 H   0  0  0  0  0  0  0  0  0  0  0  0  # atno 10763 bound_to 10752
  154.1234  135.2845  155.3204 H   0  0  0  0  0  0  0  0  0  0  0  0  # atno 10764 bound_to 10752
  154.6247  135.5513  153.7675 H   0  0  0  0  0  0  0  0  0  0  0  0  # atno 10765 bound_to 10752
  141.1240  133.6615  156.5041 H   0  0  0  0  0  0  0  0  0  0  0  0  # atno 11005 bound_to 11000
  144.7480  139.7268  143.7284 LP  0  0  0  0  0  0  0  0  0  0  0  0  # atno 17320 bound_to 7965
  146.1847  139.5057  142.9844 LP  0  0  0  0  0  0  0  0  0  0  0  0  # atno 17321 bound_to 7965
  139.4782  144.5442  151.8482 LP  0  0  0  0  0  0  0  0  0  0  0  0  # atno 17342 bound_to 10162
  140.4539  144.1817  150.5900 LP  0  0  0  0  0  0  0  0  0  0  0  0  # atno 17343 bound_to 10162
  156.0275  130.3775  150.1782 LP  0  0  0  0  0  0  0  0  0  0  0  0  # atno 17370 bound_to 10713
  156.9972  130.9911  151.3400 LP  0  0  0  0  0  0  0  0  0  0  0  0  # atno 17371 bound_to 10713
  140.4422  134.7005  157.4997 LP  0  0  0  0  0  0  0  0  0  0  0  0  # atno 17394 bound_to 11000
  140.0222  134.6531  155.9224 LP  0  0  0  0  0  0  0  0  0  0  0  0  # atno 17395 bound_to 11000

$$$$
