AV-unprocessed.smi:527|AV-procd|sdf|2815|dock8
  -GOLD-   2262023293D 1   1.00000     0.00000
 Structure written by MMmdl.
 42 43  0  0  0  0  0  0  0  0  1 V2000
  151.5318  136.0495  156.5496 C   0  0  0  0  0  0  0  0  0  0  0  0
  150.6149  137.1936  156.0810 C   0  0  2  0  0  0  0  0  0  0  0  0
  149.1879  136.6553  155.8493 C   0  0  0  0  0  0  0  0  0  0  0  0
  148.2205  137.7549  155.3920 C   0  0  0  0  0  0  0  0  0  0  0  0
  148.7406  138.4511  154.1266 C   0  0  0  0  0  0  0  0  0  0  0  0
  150.1624  139.0140  154.3261 C   0  0  1  0  0  0  0  0  0  0  0  0
  150.1501  140.1508  155.2484 N   0  0  0  0  0  0  0  0  0  0  0  0
  149.4705  141.2932  155.0734 C   0  0  0  0  0  0  0  0  0  0  0  0
  149.0391  141.6662  153.9802 O   0  0  0  0  0  0  0  0  0  0  0  0
  149.3297  141.9500  156.2401 N   0  0  0  0  0  0  0  0  0  0  0  0
  150.0374  141.7744  157.3755 C   0  0  0  0  0  0  0  0  0  0  0  0
  150.9389  140.9485  157.5294 O   0  0  0  0  0  0  0  0  0  0  0  0
  149.6553  142.6860  158.5449 C   0  0  0  0  0  0  0  0  0  0  0  0
  150.7894  143.4649  159.0097 N   0  0  0  0  0  0  0  0  0  0  0  0
  150.9054  144.8493  159.0280 C   0  0  0  0  0  0  0  0  0  0  0  0
  152.1502  145.1328  159.5430 C   0  0  0  0  0  0  0  0  0  0  0  0
  152.8128  143.9461  159.8476 N   0  0  0  0  0  0  0  0  0  0  0  0
  151.9452  143.0019  159.5070 C   0  0  0  0  0  0  0  0  0  0  0  0
  151.1440  137.9139  154.8088 C   0  0  1  0  0  0  0  0  0  0  0  0
  152.5703  138.4748  154.9820 C   0  0  0  0  0  0  0  0  0  0  0  0
  151.6827  135.3130  155.7599 H   0  0  0  0  0  0  0  0  0  0  0  0
  151.1021  135.5310  157.4073 H   0  0  0  0  0  0  0  0  0  0  0  0
  152.5102  136.4151  156.8603 H   0  0  0  0  0  0  0  0  0  0  0  0
  150.5670  137.9216  156.8920 H   0  0  0  0  0  0  0  0  0  0  0  0
  149.2118  135.8623  155.1005 H   0  0  0  0  0  0  0  0  0  0  0  0
  148.8079  136.2003  156.7647 H   0  0  0  0  0  0  0  0  0  0  0  0
  147.2367  137.3259  155.2000 H   0  0  0  0  0  0  0  0  0  0  0  0
  148.0869  138.4849  156.1913 H   0  0  0  0  0  0  0  0  0  0  0  0
  148.7519  137.7346  153.3043 H   0  0  0  0  0  0  0  0  0  0  0  0
  148.0525  139.2423  153.8262 H   0  0  0  0  0  0  0  0  0  0  0  0
  150.5188  139.3723  153.3585 H   0  0  0  0  0  0  0  0  0  0  0  0
  150.7009  140.0515  156.0885 H   0  0  0  0  0  0  0  0  0  0  0  0
  148.6209  142.6679  156.2660 H   0  0  0  0  0  0  0  0  0  0  0  0
  148.8572  143.3628  158.2372 H   0  0  0  0  0  0  0  0  0  0  0  0
  149.2735  142.0927  159.3770 H   0  0  0  0  0  0  0  0  0  0  0  0
  150.1163  145.5003  158.6814 H   0  0  0  0  0  0  0  0  0  0  0  0
  152.6160  146.0917  159.7162 H   0  0  0  0  0  0  0  0  0  0  0  0
  152.1567  141.9482  159.6170 H   0  0  0  0  0  0  0  0  0  0  0  0
  151.1961  137.1693  154.0128 H   0  0  0  0  0  0  0  0  0  0  0  0
  152.6432  139.1307  155.8499 H   0  0  0  0  0  0  0  0  0  0  0  0
  152.8736  139.0482  154.1057 H   0  0  0  0  0  0  0  0  0  0  0  0
  153.3025  137.6776  155.1057 H   0  0  0  0  0  0  0  0  0  0  0  0
  1  2  1  0  0  0  0
  1 21  1  0  0  0  0
  1 22  1  0  0  0  0
  1 23  1  0  0  0  0
  2 19  1  0  0  0  0
  2  3  1  0  0  0  0
  2 24  1  0  0  0  0
  3  4  1  0  0  0  0
  3 25  1  0  0  0  0
  3 26  1  0  0  0  0
  4  5  1  0  0  0  0
  4 27  1  0  0  0  0
  4 28  1  0  0  0  0
  5  6  1  0  0  0  0
  5 29  1  0  0  0  0
  5 30  1  0  0  0  0
  6  7  1  0  0  0  0
  6 19  1  0  0  0  0
  6 31  1  0  0  0  0
  7  8  1  0  0  0  0
  7 32  1  0  0  0  0
  8  9  2  0  0  0  0
  8 10  1  0  0  0  0
 10 11  1  0  0  0  0
 10 33  1  0  0  0  0
 11 12  2  0  0  0  0
 11 13  1  0  0  0  0
 13 14  1  0  0  0  0
 13 34  1  0  0  0  0
 13 35  1  0  0  0  0
 14 18  1  0  0  0  0
 14 15  1  0  0  0  0
 15 16  2  0  0  0  0
 15 36  1  0  0  0  0
 16 17  1  0  0  0  0
 16 37  1  0  0  0  0
 17 18  2  0  0  0  0
 18 38  1  0  0  0  0
 19 20  1  0  0  0  0
 19 39  1  0  0  0  0
 20 40  1  0  0  0  0
 20 41  1  0  0  0  0
 20 42  1  0  0  0  0
M  END
> <s_m_source_file>
AV-unprocessed.smi

> <i_m_source_file_index>
527

> <i_lp_mmshare_version>
43012

> <i_f3d_flags>
0

> <s_epik_input>
W0NIM11bQ0BASF0xW0NIMl1bQ0gyXVtDSDJdW0NASF0oW0NASF0xW0NIM10pW05IXUMoPU8pW05IXUMoPU8pW0NIMl1uMltjSF1bY0hdbltjSF0y

> <s_epik_cmdline>
J2VwaWtfcHl0aG9uJywgJy1waCcsICc3LjAnLCAnLXRuJywgJzgnLCAnLW1hJywgJzIwMCcsICctbWV0YWxfYmluZGluZycsICctaW1hZScsICc8aW5maWxlLm1hZT4nLCAnLW9tYWUnLCAnPG91dGZpbGUubWFlPic=

> <r_lp_tautomer_probability>
1

> <r_epik_Ionization_Penalty>
0.172132

> <r_epik_Ionization_Penalty_Charging>
0.172105

> <r_epik_Ionization_Penalty_Neutral>
2.71747e-05

> <r_epik_State_Penalty>
0.161503

> <r_epik_Charging_Adjusted_Penalty>
0.333607

> <i_epik_Tot_Q>
0

> <i_epik_Tot_abs_Q>
0

> <r_epik_Metal_State_Penalty>
0.124763

> <b_epik_Metal_Only>
0

> <s_lp_Force_Field>
OPLS_2005

> <r_lp_Energy>
14.2901

> <b_lp_Chiralities_Consistent>
1

> <s_lp_Variant>
AV-unprocessed.smi:527-1

> <Gold.Version>
5.8.1

> <Gold.Id.Protein>
6NUR|6NUR_protein|mol2

> <Gold.PLP.Fitness>
39.5754

> <Gold.PLP.PLP>
-35.7638

> <Gold.PLP.part.hbond>
-3.0000

> <Gold.PLP.part.metal>
0.0000

> <Gold.PLP.part.buried>
-3.1278

> <Gold.PLP.part.nonpolar>
-29.3791

> <Gold.PLP.part.repulsive>
0.4584

> <Gold.PLP.ligand.clash>
2.5739

> <Gold.PLP.ligand.torsion>
0.1630

> <Gold.PLP.Chemscore.Hbond>
1.2320

> <Gold.PLP.Chemscore.CHOScore>
1.0000

> <Gold.PLP.Chemscore.Metal>
0.0000

> <Gold.Chemscore.Hbonds>
donor molecule, donor type, donor heavy atom, donor atom, acceptor molecule, acceptor atom, score
      L1  H    10    33       P1  8028  0.37
      P1  H  8011  8017       L1     9  0.61
      L1  C    15    36       P1  8029  0.70

> <Gold.PLP.Chemscore.Internal.Correction>
0.0154

> <Gold.Rescore>
     Score         DG    S(hbond)    S(metal)    S(lipo)     H(rot)  DE(clash)    DE(int)     intcor
     12.81     -14.90       1.61        0.00      71.02       1.66       0.17       1.92       ----

> <Gold.Chemscore.Fitness>
12.8124

> <Gold.Chemscore.DG>
-14.9041

> <Gold.Chemscore.ZeroCoef>
-5.4800

> <Gold.Chemscore.Hbond>
1.6084

> <Gold.Chemscore.Metal>
0.0000

> <Gold.Chemscore.Lipo>
71.0170

> <Gold.Chemscore.Internal_Hbond>
0.0000

> <Gold.Chemscore.DEClash>
0.1671

> <Gold.Chemscore.DEInternal>
1.9247

> <Gold.Chemscore.Rot>
1.6629

> <Gold.Chemscore.Internal.Correction>
   9.000000E+99

> <Gold.Chemscore.Hbonds>
donor molecule, donor type, donor heavy atom, donor atom, acceptor molecule, acceptor atom, score
      L1  H    10    33       P1  8028  0.36
      P1  H  8011  8017       L1     9  0.59

> <Gold.Chemscore.Hbond.Weighted>
-5.3721

> <Gold.Chemscore.Metal.Weighted>
-0.0000

> <Gold.Chemscore.Lipo.Weighted>
-8.3090

> <Gold.Chemscore.Internal_Hbond.Weighted>
0.0000

> <Gold.Chemscore.DEClash.Weighted>
0.1671

> <Gold.Chemscore.DEInternal.Weighted>
1.9247

> <Gold.Chemscore.Rot.Weighted>
4.2569

> <Gold.Chemscore.Internal.Correction.Weighted>
   9.000000E+99

> <Gold.Protein.RotatedTorsions>
[ 6907 6896 6895 6894 ] final   85.90 input  -60.11 | X-H torsion
[ 7974 7965 7964 7962 ] final -179.93 input  175.53 | X-H torsion
[ 8008 7997 7996 7995 ] final   -5.21 input   59.86 | X-H torsion
[ 10167 10162 10161 10158 ] final   -5.52 input  -65.29 | X-H torsion
[ 10718 10713 10712 10709 ] final  -79.65 input   66.30 | X-H torsion
[ 10763 10752 10751 10750 ] final   50.00 input  -60.55 | X-H torsion
[ 11005 11000 10999 10996 ] final   29.53 input  -57.11 | X-H torsion

> <Gold.Protein.ActiveResidues>
 VAL166  LYS551  ARG553  GLY616  TRP617  ASP618  TYR619  PRO620  LYS621  CYS622 
 ASP623  PHE694  ASN695  SER759  ASP760  ASP761  ALA762  ILE779  LEU786  VAL792 
 PHE793  MET794  SER795  GLU796  ALA797  LYS798  CYS799  TRP800  GLU811  SER814 

> <Gold.Protein.RotatedAtoms>
  152.5384  134.2515  159.8900 H   0  0  0  0  0  0  0  0  0  0  0  0  # atno 6907 bound_to 6896
  151.2478  133.4359  159.2617 H   0  0  0  0  0  0  0  0  0  0  0  0  # atno 6908 bound_to 6896
  151.0567  134.9723  159.8295 H   0  0  0  0  0  0  0  0  0  0  0  0  # atno 6909 bound_to 6896
  144.7140  140.0643  143.6431 H   0  0  0  0  0  0  0  0  0  0  0  0  # atno 7974 bound_to 7965
  154.6063  140.2464  155.7727 H   0  0  0  0  0  0  0  0  0  0  0  0  # atno 8008 bound_to 7997
  156.2343  140.2956  156.0221 H   0  0  0  0  0  0  0  0  0  0  0  0  # atno 8009 bound_to 7997
  155.2127  140.0398  157.2926 H   0  0  0  0  0  0  0  0  0  0  0  0  # atno 8010 bound_to 7997
  140.6966  143.6299  150.8532 H   0  0  0  0  0  0  0  0  0  0  0  0  # atno 10167 bound_to 10162
  156.0088  130.4551  150.3680 H   0  0  0  0  0  0  0  0  0  0  0  0  # atno 10718 bound_to 10713
  152.9785  135.5893  154.4181 H   0  0  0  0  0  0  0  0  0  0  0  0  # atno 10763 bound_to 10752
  154.3809  135.2767  155.2214 H   0  0  0  0  0  0  0  0  0  0  0  0  # atno 10764 bound_to 10752
  154.4128  135.6077  153.6017 H   0  0  0  0  0  0  0  0  0  0  0  0  # atno 10765 bound_to 10752
  140.3040  134.2725  155.7748 H   0  0  0  0  0  0  0  0  0  0  0  0  # atno 11005 bound_to 11000
  145.9838  139.2961  143.1026 LP  0  0  0  0  0  0  0  0  0  0  0  0  # atno 17320 bound_to 7965
  145.8981  140.9261  143.0517 LP  0  0  0  0  0  0  0  0  0  0  0  0  # atno 17321 bound_to 7965
  140.0018  143.5736  152.2872 LP  0  0  0  0  0  0  0  0  0  0  0  0  # atno 17342 bound_to 10162
  139.6428  144.7656  151.2304 LP  0  0  0  0  0  0  0  0  0  0  0  0  # atno 17343 bound_to 10162
  157.1766  131.0382  151.2769 LP  0  0  0  0  0  0  0  0  0  0  0  0  # atno 17370 bound_to 10713
  157.4183  130.7423  149.6893 LP  0  0  0  0  0  0  0  0  0  0  0  0  # atno 17371 bound_to 10713
  141.2122  133.7664  156.9808 LP  0  0  0  0  0  0  0  0  0  0  0  0  # atno 17394 bound_to 11000
  140.1084  134.9492  157.2029 LP  0  0  0  0  0  0  0  0  0  0  0  0  # atno 17395 bound_to 11000

$$$$
