AV-unprocessed.smi:2802|AV-procd|sdf|10805|dock3
  -GOLD-   2272015243D 1   1.00000     0.00000
 Structure written by MMmdl.
 47 48  0  0  0  0  0  0  0  0  1 V2000
  145.7041  143.0606  153.6388 C   0  0  0  0  0  0  0  0  0  0  0  0
  146.4849  142.0416  154.4819 C   0  0  2  0  0  0  0  0  0  0  0  0
  145.7559  141.7408  155.8025 C   0  0  0  0  0  0  0  0  0  0  0  0
  146.4819  140.6980  156.6816 C   0  0  0  0  0  0  0  0  0  0  0  0
  145.8256  140.6996  158.0788 C   0  0  0  0  0  0  0  0  0  0  0  0
  146.3029  139.2731  156.1115 C   0  0  0  0  0  0  0  0  0  0  0  0
  147.9804  141.0789  156.8536 C   0  0  0  0  0  0  0  0  0  0  0  0
  148.7758  141.5434  155.5914 C   0  0  2  0  0  0  0  0  0  0  0  0
  149.2485  140.3495  154.7105 C   0  0  0  0  0  0  0  0  0  0  0  0
  149.8304  140.7788  153.4940 O   0  0  0  0  0  0  0  0  0  0  0  0
  149.9456  142.3138  156.0476 N   0  0  0  0  0  0  0  0  0  0  0  0
  150.9294  141.9285  156.8803 C   0  0  0  0  0  0  0  0  0  0  0  0
  150.9914  140.8109  157.3945 O   0  0  0  0  0  0  0  0  0  0  0  0
  152.0082  142.9803  157.1633 C   0  0  0  0  0  0  0  0  0  0  0  0
  152.0221  143.3954  158.6252 C   0  0  0  0  0  0  0  0  0  0  0  0
  151.8495  144.7449  158.9963 C   0  0  0  0  0  0  0  0  0  0  0  0
  151.8814  145.0821  160.3631 C   0  0  0  0  0  0  0  0  0  0  0  0
  152.0854  144.0523  161.3033 C   0  0  0  0  0  0  0  0  0  0  0  0
  152.2492  142.7564  160.9602 N   0  0  0  0  0  0  0  0  0  0  0  0
  152.2175  142.4417  159.6473 C   0  0  0  0  0  0  0  0  0  0  0  0
  147.9124  142.5375  154.7722 C   0  0  0  0  0  0  0  0  0  0  0  0
  145.6000  144.0128  154.1597 H   0  0  0  0  0  0  0  0  0  0  0  0
  144.7026  142.6950  153.4098 H   0  0  0  0  0  0  0  0  0  0  0  0
  146.2072  143.2529  152.6906 H   0  0  0  0  0  0  0  0  0  0  0  0
  146.5424  141.1290  153.8907 H   0  0  0  0  0  0  0  0  0  0  0  0
  145.6541  142.6740  156.3588 H   0  0  0  0  0  0  0  0  0  0  0  0
  144.7386  141.4051  155.5961 H   0  0  0  0  0  0  0  0  0  0  0  0
  146.3041  139.9790  158.7433 H   0  0  0  0  0  0  0  0  0  0  0  0
  144.7669  140.4427  158.0238 H   0  0  0  0  0  0  0  0  0  0  0  0
  145.8947  141.6777  158.5564 H   0  0  0  0  0  0  0  0  0  0  0  0
  146.8886  138.5449  156.6736 H   0  0  0  0  0  0  0  0  0  0  0  0
  146.5860  139.1865  155.0669 H   0  0  0  0  0  0  0  0  0  0  0  0
  145.2601  138.9587  156.1670 H   0  0  0  0  0  0  0  0  0  0  0  0
  148.0139  141.9032  157.5687 H   0  0  0  0  0  0  0  0  0  0  0  0
  148.5032  140.2599  157.3489 H   0  0  0  0  0  0  0  0  0  0  0  0
  149.9734  139.7313  155.2397 H   0  0  0  0  0  0  0  0  0  0  0  0
  148.4268  139.6921  154.4444 H   0  0  0  0  0  0  0  0  0  0  0  0
  149.6983  140.1053  152.8445 H   0  0  0  0  0  0  0  0  0  0  0  0
  150.0110  143.2522  155.6812 H   0  0  0  0  0  0  0  0  0  0  0  0
  152.9811  142.5756  156.8823 H   0  0  0  0  0  0  0  0  0  0  0  0
  151.8396  143.8621  156.5433 H   0  0  0  0  0  0  0  0  0  0  0  0
  151.6999  145.5096  158.2483 H   0  0  0  0  0  0  0  0  0  0  0  0
  151.7547  146.1056  160.6830 H   0  0  0  0  0  0  0  0  0  0  0  0
  152.1177  144.2761  162.3594 H   0  0  0  0  0  0  0  0  0  0  0  0
  152.3572  141.3984  159.4045 H   0  0  0  0  0  0  0  0  0  0  0  0
  148.4130  142.7889  153.8362 H   0  0  0  0  0  0  0  0  0  0  0  0
  147.8333  143.4782  155.3205 H   0  0  0  0  0  0  0  0  0  0  0  0
  1  2  1  0  0  0  0
  1 22  1  0  0  0  0
  1 23  1  0  0  0  0
  1 24  1  0  0  0  0
  2 21  1  0  0  0  0
  2  3  1  0  0  0  0
  2 25  1  0  0  0  0
  3  4  1  0  0  0  0
  3 26  1  0  0  0  0
  3 27  1  0  0  0  0
  4  5  1  0  0  0  0
  4  6  1  0  0  0  0
  4  7  1  0  0  0  0
  5 28  1  0  0  0  0
  5 29  1  0  0  0  0
  5 30  1  0  0  0  0
  6 31  1  0  0  0  0
  6 32  1  0  0  0  0
  6 33  1  0  0  0  0
  7  8  1  0  0  0  0
  7 34  1  0  0  0  0
  7 35  1  0  0  0  0
  8  9  1  0  0  0  0
  8 11  1  0  0  0  0
  8 21  1  0  0  0  0
  9 10  1  0  0  0  0
  9 36  1  0  0  0  0
  9 37  1  0  0  0  0
 10 38  1  0  0  0  0
 11 12  1  0  0  0  0
 11 39  1  0  0  0  0
 12 13  2  0  0  0  0
 12 14  1  0  0  0  0
 14 15  1  0  0  0  0
 14 40  1  0  0  0  0
 14 41  1  0  0  0  0
 15 20  1  0  0  0  0
 15 16  2  0  0  0  0
 16 17  1  0  0  0  0
 16 42  1  0  0  0  0
 17 18  2  0  0  0  0
 17 43  1  0  0  0  0
 18 19  1  0  0  0  0
 18 44  1  0  0  0  0
 19 20  2  0  0  0  0
 20 45  1  0  0  0  0
 21 46  1  0  0  0  0
 21 47  1  0  0  0  0
M  END
> <s_m_source_file>
AV-unprocessed.smi

> <i_m_source_file_index>
2802

> <i_lp_mmshare_version>
43012

> <i_f3d_flags>
0

> <s_epik_input>
W0NIM11DMShbQ0gzXSlbQ0gyXVtDQEBIXShbQ0gzXSlbQ0gyXVtDQF0oW0NIMl0xKShbQ0gyXVtPSF0pW05IXUMoPU8pW0NIMl1jMltjSF1bY0hdW2NIXW5bY0hdMg==

> <s_epik_cmdline>
J2VwaWtfcHl0aG9uJywgJy1waCcsICc3LjAnLCAnLXRuJywgJzgnLCAnLW1hJywgJzIwMCcsICctbWV0YWxfYmluZGluZycsICctaW1hZScsICc8aW5maWxlLm1hZT4nLCAnLW9tYWUnLCAnPG91dGZpbGUubWFlPic=

> <r_epik_Ionization_Penalty>
0.004793

> <r_epik_Ionization_Penalty_Charging>
0

> <r_epik_Ionization_Penalty_Neutral>
0.004793

> <r_epik_State_Penalty>
0.00347421

> <r_epik_Charging_Adjusted_Penalty>
0.00347421

> <i_epik_Tot_Q>
0

> <i_epik_Tot_abs_Q>
0

> <r_epik_Metal_State_Penalty>
-0

> <b_epik_Metal_Only>
0

> <s_lp_Force_Field>
OPLS_2005

> <r_lp_Energy>
22.6418

> <b_lp_Chiralities_Consistent>
1

> <s_lp_Variant>
AV-unprocessed.smi:2802-3

> <Gold.Version>
5.8.1

> <Gold.Id.Protein>
6NUR|6NUR_protein|mol2

> <Gold.PLP.Fitness>
46.1085

> <Gold.PLP.PLP>
-37.8544

> <Gold.PLP.part.hbond>
-3.3770

> <Gold.PLP.part.metal>
0.0000

> <Gold.PLP.part.buried>
-1.7330

> <Gold.PLP.part.nonpolar>
-32.5098

> <Gold.PLP.part.repulsive>
0.1795

> <Gold.PLP.ligand.clash>
0.0000

> <Gold.PLP.ligand.torsion>
0.1157

> <Gold.PLP.Chemscore.Hbond>
2.8240

> <Gold.PLP.Chemscore.CHOScore>
0.0000

> <Gold.PLP.Chemscore.Metal>
0.0000

> <Gold.Chemscore.Hbonds>
donor molecule, donor type, donor heavy atom, donor atom, acceptor molecule, acceptor atom, score
      L1  H    10    38       P1  7957  0.72
      L1  H    11    39       P1  8028  0.70
      P1  H  7989  7998       L1    10  0.35
      P1  H  8011  8017       L1    10  1.00

> <Gold.PLP.Chemscore.Internal.Correction>
0.0135

> <Gold.Rescore>
     Score         DG    S(hbond)    S(metal)    S(lipo)     H(rot)  DE(clash)    DE(int)     intcor
     17.08     -20.53       2.22        0.00     109.10       2.00       3.19       0.25       ----

> <Gold.Chemscore.Fitness>
17.0825

> <Gold.Chemscore.DG>
-20.5285

> <Gold.Chemscore.ZeroCoef>
-5.4800

> <Gold.Chemscore.Hbond>
2.2188

> <Gold.Chemscore.Metal>
0.0000

> <Gold.Chemscore.Lipo>
109.0967

> <Gold.Chemscore.Internal_Hbond>
0.0000

> <Gold.Chemscore.DEClash>
3.1944

> <Gold.Chemscore.DEInternal>
0.2516

> <Gold.Chemscore.Rot>
2.0026

> <Gold.Chemscore.Internal.Correction>
   9.000000E+99

> <Gold.Chemscore.Hbonds>
donor molecule, donor type, donor heavy atom, donor atom, acceptor molecule, acceptor atom, score
      L1  H    10    38       P1  7957  0.72
      L1  H    11    39       P1  8028  0.70
      P1  H  7989  7998       L1    10  0.09
      P1  H  8011  8017       L1    10  0.24

> <Gold.Chemscore.Hbond.Weighted>
-7.4109

> <Gold.Chemscore.Metal.Weighted>
-0.0000

> <Gold.Chemscore.Lipo.Weighted>
-12.7643

> <Gold.Chemscore.Internal_Hbond.Weighted>
0.0000

> <Gold.Chemscore.DEClash.Weighted>
3.1944

> <Gold.Chemscore.DEInternal.Weighted>
0.2516

> <Gold.Chemscore.Rot.Weighted>
5.1267

> <Gold.Chemscore.Internal.Correction.Weighted>
   9.000000E+99

> <Gold.Protein.RotatedTorsions>
[ 6907 6896 6895 6894 ] final -176.61 input  -60.11 | X-H torsion
[ 7974 7965 7964 7962 ] final -117.38 input  175.53 | X-H torsion
[ 8008 7997 7996 7995 ] final   -9.43 input   59.86 | X-H torsion
[ 10167 10162 10161 10158 ] final   20.01 input  -65.29 | X-H torsion
[ 10718 10713 10712 10709 ] final  119.29 input   66.30 | X-H torsion
[ 10763 10752 10751 10750 ] final  -31.77 input  -60.55 | X-H torsion
[ 11005 11000 10999 10996 ] final  107.99 input  -57.11 | X-H torsion

> <Gold.Protein.ActiveResidues>
 VAL166  LYS551  ARG553  GLY616  TRP617  ASP618  TYR619  PRO620  LYS621  CYS622 
 ASP623  PHE694  ASN695  SER759  ASP760  ASP761  ALA762  ILE779  LEU786  VAL792 
 PHE793  MET794  SER795  GLU796  ALA797  LYS798  CYS799  TRP800  GLU811  SER814 

> <Gold.Protein.RotatedAtoms>
  151.6076  133.3350  159.3060 H   0  0  0  0  0  0  0  0  0  0  0  0  # atno 6907 bound_to 6896
  150.8174  134.7366  159.6753 H   0  0  0  0  0  0  0  0  0  0  0  0  # atno 6908 bound_to 6896
  152.4269  134.5857  160.0011 H   0  0  0  0  0  0  0  0  0  0  0  0  # atno 6909 bound_to 6896
  145.0859  140.8457  143.4011 H   0  0  0  0  0  0  0  0  0  0  0  0  # atno 7974 bound_to 7965
  154.5648  140.2355  155.8281 H   0  0  0  0  0  0  0  0  0  0  0  0  # atno 8008 bound_to 7997
  156.2059  140.3040  155.9584 H   0  0  0  0  0  0  0  0  0  0  0  0  # atno 8009 bound_to 7997
  155.2822  140.0423  157.3007 H   0  0  0  0  0  0  0  0  0  0  0  0  # atno 8010 bound_to 7997
  140.5536  143.9465  150.6594 H   0  0  0  0  0  0  0  0  0  0  0  0  # atno 10167 bound_to 10162
  157.5972  131.1056  150.7875 H   0  0  0  0  0  0  0  0  0  0  0  0  # atno 10718 bound_to 10713
  153.8028  135.6889  153.4853 H   0  0  0  0  0  0  0  0  0  0  0  0  # atno 10763 bound_to 10752
  153.1677  135.4555  154.9859 H   0  0  0  0  0  0  0  0  0  0  0  0  # atno 10764 bound_to 10752
  154.7999  135.3334  154.7515 H   0  0  0  0  0  0  0  0  0  0  0  0  # atno 10765 bound_to 10752
  139.8837  134.9417  156.5903 H   0  0  0  0  0  0  0  0  0  0  0  0  # atno 11005 bound_to 11000
  145.1123  139.2749  143.5631 LP  0  0  0  0  0  0  0  0  0  0  0  0  # atno 17320 bound_to 7965
  146.3531  140.0722  142.8622 LP  0  0  0  0  0  0  0  0  0  0  0  0  # atno 17321 bound_to 7965
  140.2897  143.3333  152.1074 LP  0  0  0  0  0  0  0  0  0  0  0  0  # atno 17342 bound_to 10162
  139.5038  144.6763  151.6121 LP  0  0  0  0  0  0  0  0  0  0  0  0  # atno 17343 bound_to 10162
  156.8283  130.5007  149.5334 LP  0  0  0  0  0  0  0  0  0  0  0  0  # atno 17370 bound_to 10713
  156.1037  130.5988  150.9936 LP  0  0  0  0  0  0  0  0  0  0  0  0  # atno 17371 bound_to 10713
  140.7960  133.8544  155.8686 LP  0  0  0  0  0  0  0  0  0  0  0  0  # atno 17394 bound_to 11000
  140.9635  134.1625  157.4635 LP  0  0  0  0  0  0  0  0  0  0  0  0  # atno 17395 bound_to 11000

$$$$
