AV-unprocessed.smi:244|AV-procd|sdf|1865|dock4
  -GOLD-   2262020503D 1   1.00000     0.00000
 Structure written by MMmdl.
 57 61  0  0  0  0  0  0  0  0  2 V2000
  146.7850  138.7119  152.1705 C   0  0  0  0  0  0  0  0  0  0  0  0
  146.6101  137.3866  152.8086 N   0  3  2  0  0  0  0  0  0  0  0  0
  145.2584  136.8032  152.6068 C   0  0  0  0  0  0  0  0  0  0  0  0
  144.2029  137.4550  153.5191 C   0  0  0  0  0  0  0  0  0  0  0  0
  144.6382  137.3747  154.9873 C   0  0  2  0  0  0  0  0  0  0  0  0
  143.6784  138.0328  155.8064 O   0  0  0  0  0  0  0  0  0  0  0  0
  144.0024  137.9234  157.1885 C   0  0  0  0  0  0  0  0  0  0  0  0
  145.3656  138.5851  157.4454 C   0  0  0  0  0  0  0  0  0  0  0  0
  146.3894  137.9950  156.5858 N   0  0  0  0  0  0  0  0  0  0  0  0
  147.6355  138.4427  156.8630 C   0  0  0  0  0  0  0  0  0  0  0  0
  148.5077  137.6588  157.5499 N   0  0  0  0  0  0  0  0  0  0  0  0
  149.7302  138.1166  157.8378 C   0  0  0  0  0  0  0  0  0  0  0  0
  150.2671  139.3039  157.5472 N   0  0  0  0  0  0  0  0  0  0  0  0
  149.3889  140.0928  156.8633 C   0  0  0  0  0  0  0  0  0  0  0  0
  148.0630  139.7427  156.4869 C   0  0  0  0  0  0  0  0  0  0  0  0
  147.4587  140.7992  155.8189 N   0  0  0  0  0  0  0  0  0  0  0  0
  148.3798  141.7240  155.7965 C   0  0  0  0  0  0  0  0  0  0  0  0
  149.5736  141.3809  156.3924 N   0  0  0  0  0  0  0  0  0  0  0  0
  150.7620  142.2124  156.5067 C   0  0  0  0  0  0  0  0  0  0  0  0
  151.0581  142.6950  157.9489 C   0  0  0  0  0  0  0  0  0  0  0  0
  149.8224  142.7901  158.6358 O   0  0  0  0  0  0  0  0  0  0  0  0
  151.9739  141.7233  158.7255 C   0  0  0  0  0  0  0  0  0  0  0  0
  152.4342  142.3104  160.0714 C   0  0  0  0  0  0  0  0  0  0  0  0
  153.0632  143.5695  159.8670 O   0  0  0  0  0  0  0  0  0  0  0  0
  152.1810  144.5405  159.3177 C   0  0  0  0  0  0  0  0  0  0  0  0
  151.7085  144.0928  157.9229 C   0  0  0  0  0  0  0  0  0  0  0  0
  146.0197  138.0406  155.1687 C   0  0  1  0  0  0  0  0  0  0  0  0
  147.0436  137.3505  154.2300 C   0  0  0  0  0  0  0  0  0  0  0  0
  146.1445  139.4693  152.6221 H   0  0  0  0  0  0  0  0  0  0  0  0
  146.5480  138.6586  151.1076 H   0  0  0  0  0  0  0  0  0  0  0  0
  147.8191  139.0462  152.2600 H   0  0  0  0  0  0  0  0  0  0  0  0
  144.9654  136.8887  151.5597 H   0  0  0  0  0  0  0  0  0  0  0  0
  145.3123  135.7354  152.8231 H   0  0  0  0  0  0  0  0  0  0  0  0
  144.0467  138.4955  153.2327 H   0  0  0  0  0  0  0  0  0  0  0  0
  143.2433  136.9539  153.3892 H   0  0  0  0  0  0  0  0  0  0  0  0
  144.6908  136.3233  155.2783 H   0  0  0  0  0  0  0  0  0  0  0  0
  143.2279  138.4164  157.7760 H   0  0  0  0  0  0  0  0  0  0  0  0
  144.0141  136.8753  157.4920 H   0  0  0  0  0  0  0  0  0  0  0  0
  145.2887  139.6563  157.2523 H   0  0  0  0  0  0  0  0  0  0  0  0
  145.6461  138.4652  158.4930 H   0  0  0  0  0  0  0  0  0  0  0  0
  150.3699  137.4354  158.3795 H   0  0  0  0  0  0  0  0  0  0  0  0
  148.2158  142.6872  155.3353 H   0  0  0  0  0  0  0  0  0  0  0  0
  151.6080  141.6398  156.1242 H   0  0  0  0  0  0  0  0  0  0  0  0
  150.6484  143.0666  155.8372 H   0  0  0  0  0  0  0  0  0  0  0  0
  149.7503  143.6561  159.0073 H   0  0  0  0  0  0  0  0  0  0  0  0
  151.4735  140.7698  158.8977 H   0  0  0  0  0  0  0  0  0  0  0  0
  152.8564  141.5032  158.1232 H   0  0  0  0  0  0  0  0  0  0  0  0
  151.5955  142.4173  160.7611 H   0  0  0  0  0  0  0  0  0  0  0  0
  153.1467  141.6357  160.5463 H   0  0  0  0  0  0  0  0  0  0  0  0
  151.3352  144.7012  159.9881 H   0  0  0  0  0  0  0  0  0  0  0  0
  152.7090  145.4912  159.2442 H   0  0  0  0  0  0  0  0  0  0  0  0
  152.5723  144.0763  157.2568 H   0  0  0  0  0  0  0  0  0  0  0  0
  151.0181  144.8285  157.5079 H   0  0  0  0  0  0  0  0  0  0  0  0
  145.9390  139.0923  154.8895 H   0  0  0  0  0  0  0  0  0  0  0  0
  147.1692  136.3080  154.5258 H   0  0  0  0  0  0  0  0  0  0  0  0
  148.0292  137.8115  154.3043 H   0  0  0  0  0  0  0  0  0  0  0  0
  147.2461  136.7774  152.3137 H   0  0  0  0  0  0  0  0  0  0  0  0
  1  2  1  0  0  0  0
  1 29  1  0  0  0  0
  1 30  1  0  0  0  0
  1 31  1  0  0  0  0
  2 28  1  0  0  0  0
  2  3  1  0  0  0  0
  2 57  1  0  0  0  0
  3  4  1  0  0  0  0
  3 32  1  0  0  0  0
  3 33  1  0  0  0  0
  4  5  1  0  0  0  0
  4 34  1  0  0  0  0
  4 35  1  0  0  0  0
  5 27  1  0  0  0  0
  5  6  1  0  0  0  0
  5 36  1  0  0  0  0
  6  7  1  0  0  0  0
  7  8  1  0  0  0  0
  7 37  1  0  0  0  0
  7 38  1  0  0  0  0
  8  9  1  0  0  0  0
  8 39  1  0  0  0  0
  8 40  1  0  0  0  0
  9 10  1  0  0  0  0
  9 27  1  0  0  0  0
 10 15  1  0  0  0  0
 10 11  2  0  0  0  0
 11 12  1  0  0  0  0
 12 13  2  0  0  0  0
 12 41  1  0  0  0  0
 13 14  1  0  0  0  0
 14 18  1  0  0  0  0
 14 15  2  0  0  0  0
 15 16  1  0  0  0  0
 16 17  2  0  0  0  0
 17 18  1  0  0  0  0
 17 42  1  0  0  0  0
 18 19  1  0  0  0  0
 19 20  1  0  0  0  0
 19 43  1  0  0  0  0
 19 44  1  0  0  0  0
 20 26  1  0  0  0  0
 20 21  1  0  0  0  0
 20 22  1  0  0  0  0
 21 45  1  0  0  0  0
 22 23  1  0  0  0  0
 22 46  1  0  0  0  0
 22 47  1  0  0  0  0
 23 24  1  0  0  0  0
 23 48  1  0  0  0  0
 23 49  1  0  0  0  0
 24 25  1  0  0  0  0
 25 26  1  0  0  0  0
 25 50  1  0  0  0  0
 25 51  1  0  0  0  0
 26 52  1  0  0  0  0
 26 53  1  0  0  0  0
 27 28  1  0  0  0  0
 27 54  1  0  0  0  0
 28 55  1  0  0  0  0
 28 56  1  0  0  0  0
M  CHG  1   2   1
M  END
> <s_m_source_file>
AV-unprocessed.smi

> <i_m_source_file_index>
244

> <i_lp_mmshare_version>
43012

> <i_f3d_flags>
0

> <s_epik_input>
W0NIMl0xW0NIMl1OKFtDSDNdKVtDSDJdW0NAQEhdKFtDQEhdMTIpTihbQ0gyXVtDSDJdTzIpYyhuW2NIXW4zKWMoYzM0KW5bY0hdbjRbQ0gyXUM1KFtPSF0pW0NIMl1bQ0gyXU9bQ0gyXVtDSDJdNQ==

> <s_epik_cmdline>
J2VwaWtfcHl0aG9uJywgJy1waCcsICc3LjAnLCAnLXRuJywgJzgnLCAnLW1hJywgJzIwMCcsICctbWV0YWxfYmluZGluZycsICctaW1hZScsICc8aW5maWxlLm1hZT4nLCAnLW9tYWUnLCAnPG91dGZpbGUubWFlPic=

> <r_lp_tautomer_probability>
1

> <r_epik_Ionization_Penalty>
0.0136215

> <r_epik_Ionization_Penalty_Charging>
0.0131385

> <r_epik_Ionization_Penalty_Neutral>
0.000483022

> <r_epik_State_Penalty>
0.0104001

> <r_epik_Charging_Adjusted_Penalty>
0.0235387

> <i_epik_Tot_Q>
1

> <i_epik_Tot_abs_Q>
1

> <r_epik_Metal_State_Penalty>
0.0104469

> <b_epik_Metal_Only>
0

> <s_lp_Force_Field>
OPLS_2005

> <r_lp_Energy>
43.138

> <b_lp_Chiralities_Consistent>
1

> <s_lp_Variant>
AV-unprocessed.smi:244-2

> <Gold.Version>
5.8.1

> <Gold.Id.Protein>
6NUR|6NUR_protein|mol2

> <Gold.PLP.Fitness>
39.6807

> <Gold.PLP.PLP>
-32.3745

> <Gold.PLP.part.hbond>
-1.0000

> <Gold.PLP.part.metal>
0.0000

> <Gold.PLP.part.buried>
-2.5590

> <Gold.PLP.part.nonpolar>
-28.9766

> <Gold.PLP.part.repulsive>
0.1220

> <Gold.PLP.ligand.clash>
0.0000

> <Gold.PLP.ligand.torsion>
0.9134

> <Gold.PLP.Chemscore.Hbond>
2.0000

> <Gold.PLP.Chemscore.CHOScore>
1.0000

> <Gold.PLP.Chemscore.Metal>
0.0000

> <Gold.Chemscore.Hbonds>
donor molecule, donor type, donor heavy atom, donor atom, acceptor molecule, acceptor atom, score
      L1  H     2    57       P1  7948  2.00
      L1  C    17    42       P1  8028  1.00

> <Gold.PLP.Chemscore.Internal.Correction>
0.1329

> <Gold.Rescore>
     Score         DG    S(hbond)    S(metal)    S(lipo)     H(rot)  DE(clash)    DE(int)     intcor
     12.01     -12.89       0.97        0.00      81.43       2.09       0.04       0.84       ----

> <Gold.Chemscore.Fitness>
12.0095

> <Gold.Chemscore.DG>
-12.8908

> <Gold.Chemscore.ZeroCoef>
-5.4800

> <Gold.Chemscore.Hbond>
0.9692

> <Gold.Chemscore.Metal>
0.0000

> <Gold.Chemscore.Lipo>
81.4255

> <Gold.Chemscore.Internal_Hbond>
0.0000

> <Gold.Chemscore.DEClash>
0.0440

> <Gold.Chemscore.DEInternal>
0.8373

> <Gold.Chemscore.Rot>
2.0911

> <Gold.Chemscore.Internal.Correction>
   9.000000E+99

> <Gold.Chemscore.Hbonds>
donor molecule, donor type, donor heavy atom, donor atom, acceptor molecule, acceptor atom, score
      L1  H     2    57       P1  7948  0.96

> <Gold.Chemscore.Hbond.Weighted>
-3.2371

> <Gold.Chemscore.Metal.Weighted>
-0.0000

> <Gold.Chemscore.Lipo.Weighted>
-9.5268

> <Gold.Chemscore.Internal_Hbond.Weighted>
0.0000

> <Gold.Chemscore.DEClash.Weighted>
0.0440

> <Gold.Chemscore.DEInternal.Weighted>
0.8373

> <Gold.Chemscore.Rot.Weighted>
5.3531

> <Gold.Chemscore.Internal.Correction.Weighted>
   9.000000E+99

> <Gold.Protein.RotatedTorsions>
[ 6907 6896 6895 6894 ] final  -51.61 input  -60.11 | X-H torsion
[ 7974 7965 7964 7962 ] final  104.72 input  175.53 | X-H torsion
[ 8008 7997 7996 7995 ] final  146.03 input   59.86 | X-H torsion
[ 10167 10162 10161 10158 ] final  169.54 input  -65.29 | X-H torsion
[ 10718 10713 10712 10709 ] final   73.58 input   66.30 | X-H torsion
[ 10763 10752 10751 10750 ] final   70.31 input  -60.55 | X-H torsion
[ 11005 11000 10999 10996 ] final  -65.09 input  -57.11 | X-H torsion

> <Gold.Protein.ActiveResidues>
 VAL166  LYS551  ARG553  GLY616  TRP617  ASP618  TYR619  PRO620  LYS621  CYS622 
 ASP623  PHE694  ASN695  SER759  ASP760  ASP761  ALA762  ILE779  LEU786  VAL792 
 PHE793  MET794  SER795  GLU796  ALA797  LYS798  CYS799  TRP800  GLU811  SER814 

> <Gold.Protein.RotatedAtoms>
  150.8595  134.7943  159.7071 H   0  0  0  0  0  0  0  0  0  0  0  0  # atno 6907 bound_to 6896
  152.4636  134.5124  159.9767 H   0  0  0  0  0  0  0  0  0  0  0  0  # atno 6908 bound_to 6896
  151.5230  133.3425  159.2940 H   0  0  0  0  0  0  0  0  0  0  0  0  # atno 6909 bound_to 6896
  145.3290  139.2492  143.3671 H   0  0  0  0  0  0  0  0  0  0  0  0  # atno 7974 bound_to 7965
  156.2867  140.2193  156.5310 H   0  0  0  0  0  0  0  0  0  0  0  0  # atno 8008 bound_to 7997
  154.7449  140.0485  157.0865 H   0  0  0  0  0  0  0  0  0  0  0  0  # atno 8009 bound_to 7997
  155.0184  140.3121  155.4806 H   0  0  0  0  0  0  0  0  0  0  0  0  # atno 8010 bound_to 7997
  139.4995  144.3695  151.9739 H   0  0  0  0  0  0  0  0  0  0  0  0  # atno 10167 bound_to 10162
  157.6554  130.9635  150.1089 H   0  0  0  0  0  0  0  0  0  0  0  0  # atno 10718 bound_to 10713
  153.0335  135.5178  154.7422 H   0  0  0  0  0  0  0  0  0  0  0  0  # atno 10763 bound_to 10752
  154.6418  135.2913  155.0097 H   0  0  0  0  0  0  0  0  0  0  0  0  # atno 10764 bound_to 10752
  154.1012  135.6636  153.4921 H   0  0  0  0  0  0  0  0  0  0  0  0  # atno 10765 bound_to 10752
  141.1444  133.6676  156.5932 H   0  0  0  0  0  0  0  0  0  0  0  0  # atno 11005 bound_to 11000
  146.3053  140.3864  142.8689 LP  0  0  0  0  0  0  0  0  0  0  0  0  # atno 17320 bound_to 7965
  144.8879  140.7485  143.5945 LP  0  0  0  0  0  0  0  0  0  0  0  0  # atno 17321 bound_to 7965
  140.3131  144.3514  150.6028 LP  0  0  0  0  0  0  0  0  0  0  0  0  # atno 17342 bound_to 10162
  140.5783  143.2174  151.7476 LP  0  0  0  0  0  0  0  0  0  0  0  0  # atno 17343 bound_to 10162
  156.1991  130.3659  149.8811 LP  0  0  0  0  0  0  0  0  0  0  0  0  # atno 17370 bound_to 10713
  156.6719  130.8824  151.3563 LP  0  0  0  0  0  0  0  0  0  0  0  0  # atno 17371 bound_to 10713
  140.3746  134.7576  157.4621 LP  0  0  0  0  0  0  0  0  0  0  0  0  # atno 17394 bound_to 11000
  140.0684  134.5897  155.8669 LP  0  0  0  0  0  0  0  0  0  0  0  0  # atno 17395 bound_to 11000

$$$$
