AV-unprocessed.smi:10|AV-procd|sdf|53|dock2
  -GOLD-   2262015173D 1   1.00000     0.00000
 Structure written by MMmdl.
 34 36  0  0  0  0  0  0  0  0  1 V2000
  150.9351  136.0584  155.3077 C   0  0  0  0  0  0  0  0  0  0  0  0
  150.8997  137.5032  155.2109 N   0  0  0  0  0  0  0  0  0  0  0  0
  150.7223  138.2440  154.1007 C   0  0  0  0  0  0  0  0  0  0  0  0
  150.7295  139.5617  154.2932 N   0  0  0  0  0  0  0  0  0  0  0  0
  150.9326  139.6603  155.6650 C   0  0  0  0  0  0  0  0  0  0  0  0
  151.0399  140.8499  156.5404 C   0  0  0  0  0  0  0  0  0  0  0  0
  150.9414  141.9981  156.1071 O   0  0  0  0  0  0  0  0  0  0  0  0
  151.2507  140.5317  157.8520 N   0  0  0  0  0  0  0  0  0  0  0  0
  151.3749  141.5858  158.8700 C   0  0  0  0  0  0  0  0  0  0  0  0
  152.8116  142.1526  158.9369 C   0  0  2  0  0  0  0  0  0  0  0  0
  153.4717  141.5875  160.0513 O   0  0  0  0  0  0  0  0  0  0  0  0
  152.8355  143.6678  159.1330 C   0  0  0  0  0  0  0  0  0  0  0  0
  152.0038  144.3036  160.2589 C   0  0  0  0  0  0  0  0  0  0  0  0
  151.7553  145.5023  159.3403 C   0  0  0  0  0  0  0  0  0  0  0  0
  152.0634  144.5758  158.1619 C   0  0  0  0  0  0  0  0  0  0  0  0
  151.3326  139.1832  158.3150 C   0  0  0  0  0  0  0  0  0  0  0  0
  151.2378  138.1145  157.5675 N   0  0  0  0  0  0  0  0  0  0  0  0
  151.0381  138.4251  156.2413 C   0  0  0  0  0  0  0  0  0  0  0  0
  150.9114  135.6123  154.3129 H   0  0  0  0  0  0  0  0  0  0  0  0
  150.0728  135.7083  155.8753 H   0  0  0  0  0  0  0  0  0  0  0  0
  151.8483  135.7459  155.8148 H   0  0  0  0  0  0  0  0  0  0  0  0
  150.5832  137.8052  153.1235 H   0  0  0  0  0  0  0  0  0  0  0  0
  150.6723  142.3872  158.6347 H   0  0  0  0  0  0  0  0  0  0  0  0
  151.0475  141.2343  159.8509 H   0  0  0  0  0  0  0  0  0  0  0  0
  153.3672  141.8931  158.0343 H   0  0  0  0  0  0  0  0  0  0  0  0
  154.3112  142.0107  160.1516 H   0  0  0  0  0  0  0  0  0  0  0  0
  153.8613  144.0343  159.2177 H   0  0  0  0  0  0  0  0  0  0  0  0
  151.0925  143.7450  160.4787 H   0  0  0  0  0  0  0  0  0  0  0  0
  152.5633  144.5321  161.1664 H   0  0  0  0  0  0  0  0  0  0  0  0
  150.7373  145.8924  159.3624 H   0  0  0  0  0  0  0  0  0  0  0  0
  152.4977  146.2924  159.4632 H   0  0  0  0  0  0  0  0  0  0  0  0
  152.6724  145.0222  157.3755 H   0  0  0  0  0  0  0  0  0  0  0  0
  151.1689  144.1005  157.7557 H   0  0  0  0  0  0  0  0  0  0  0  0
  151.4823  139.0992  159.3928 H   0  0  0  0  0  0  0  0  0  0  0  0
  1  2  1  0  0  0  0
  1 19  1  0  0  0  0
  1 20  1  0  0  0  0
  1 21  1  0  0  0  0
  2 18  1  0  0  0  0
  2  3  1  0  0  0  0
  3  4  2  0  0  0  0
  3 22  1  0  0  0  0
  4  5  1  0  0  0  0
  5 18  2  0  0  0  0
  5  6  1  0  0  0  0
  6  7  2  0  0  0  0
  6  8  1  0  0  0  0
  8  9  1  0  0  0  0
  8 16  1  0  0  0  0
  9 10  1  0  0  0  0
  9 23  1  0  0  0  0
  9 24  1  0  0  0  0
 10 11  1  0  0  0  0
 10 12  1  0  0  0  0
 10 25  1  0  0  0  0
 11 26  1  0  0  0  0
 12 15  1  0  0  0  0
 12 13  1  0  0  0  0
 12 27  1  0  0  0  0
 13 14  1  0  0  0  0
 13 28  1  0  0  0  0
 13 29  1  0  0  0  0
 14 15  1  0  0  0  0
 14 30  1  0  0  0  0
 14 31  1  0  0  0  0
 15 32  1  0  0  0  0
 15 33  1  0  0  0  0
 16 17  2  0  0  0  0
 16 34  1  0  0  0  0
 17 18  1  0  0  0  0
M  END
> <s_m_source_file>
AV-unprocessed.smi

> <i_m_source_file_index>
10

> <i_lp_mmshare_version>
43012

> <i_f3d_flags>
0

> <s_epik_input>
bjFbY0hdbihbQ0gzXSljKGMxMiluW2NIXW4oYzI9TylbQ0gyXVtDQEhdKFtPSF0pW0NIXTNbQ0gyXVtDSDJdW0NIMl0z

> <s_epik_cmdline>
J2VwaWtfcHl0aG9uJywgJy1waCcsICc3LjAnLCAnLXRuJywgJzgnLCAnLW1hJywgJzIwMCcsICctbWV0YWxfYmluZGluZycsICctaW1hZScsICc8aW5maWxlLm1hZT4nLCAnLW9tYWUnLCAnPG91dGZpbGUubWFlPic=

> <r_lp_tautomer_probability>
1

> <r_epik_Ionization_Penalty>
0.0003743

> <r_epik_Ionization_Penalty_Charging>
2.98177e-12

> <r_epik_Ionization_Penalty_Neutral>
0.000374299

> <r_epik_State_Penalty>
0.000224514

> <r_epik_Charging_Adjusted_Penalty>
0.000224514

> <i_epik_Tot_Q>
0

> <i_epik_Tot_abs_Q>
0

> <r_epik_Metal_State_Penalty>
-0

> <b_epik_Metal_Only>
0

> <s_lp_Force_Field>
OPLS_2005

> <r_lp_Energy>
32.1402

> <b_lp_Chiralities_Consistent>
1

> <s_lp_Variant>
AV-unprocessed.smi:10-1

> <Gold.Version>
5.8.1

> <Gold.Id.Protein>
6NUR|6NUR_protein|mol2

> <Gold.PLP.Fitness>
43.0061

> <Gold.PLP.PLP>
-38.6064

> <Gold.PLP.part.hbond>
-1.0000

> <Gold.PLP.part.metal>
0.0000

> <Gold.PLP.part.buried>
-4.9747

> <Gold.PLP.part.nonpolar>
-33.1630

> <Gold.PLP.part.repulsive>
0.2191

> <Gold.PLP.ligand.clash>
0.0000

> <Gold.PLP.ligand.torsion>
0.9629

> <Gold.PLP.Chemscore.Hbond>
1.0000

> <Gold.PLP.Chemscore.CHOScore>
1.0679

> <Gold.PLP.Chemscore.Metal>
0.0000

> <Gold.Chemscore.Hbonds>
donor molecule, donor type, donor heavy atom, donor atom, acceptor molecule, acceptor atom, score
      P1  H  7989  7998       L1     4  1.00
      L1  C     3    22       P1  7948  0.53
      L1  C     3    22       P1  7949  0.60

> <Gold.PLP.Chemscore.Internal.Correction>
0.1218

> <Gold.Rescore>
     Score         DG    S(hbond)    S(metal)    S(lipo)     H(rot)  DE(clash)    DE(int)     intcor
     11.40     -12.30       0.98        0.00      80.35       2.28       0.00       0.90       ----

> <Gold.Chemscore.Fitness>
11.3965

> <Gold.Chemscore.DG>
-12.2969

> <Gold.Chemscore.ZeroCoef>
-5.4800

> <Gold.Chemscore.Hbond>
0.9759

> <Gold.Chemscore.Metal>
0.0000

> <Gold.Chemscore.Lipo>
80.3456

> <Gold.Chemscore.Internal_Hbond>
0.0000

> <Gold.Chemscore.DEClash>
0.0048

> <Gold.Chemscore.DEInternal>
0.8957

> <Gold.Chemscore.Rot>
2.2824

> <Gold.Chemscore.Internal.Correction>
   9.000000E+99

> <Gold.Chemscore.Hbonds>
donor molecule, donor type, donor heavy atom, donor atom, acceptor molecule, acceptor atom, score
      P1  H  7989  7998       L1     4  0.70

> <Gold.Chemscore.Hbond.Weighted>
-3.2596

> <Gold.Chemscore.Metal.Weighted>
-0.0000

> <Gold.Chemscore.Lipo.Weighted>
-9.4004

> <Gold.Chemscore.Internal_Hbond.Weighted>
0.0000

> <Gold.Chemscore.DEClash.Weighted>
0.0048

> <Gold.Chemscore.DEInternal.Weighted>
0.8957

> <Gold.Chemscore.Rot.Weighted>
5.8431

> <Gold.Chemscore.Internal.Correction.Weighted>
   9.000000E+99

> <Gold.Protein.RotatedTorsions>
[ 6907 6896 6895 6894 ] final   48.04 input  -60.11 | X-H torsion
[ 7974 7965 7964 7962 ] final   43.91 input  175.53 | X-H torsion
[ 8008 7997 7996 7995 ] final   14.28 input   59.86 | X-H torsion
[ 10167 10162 10161 10158 ] final -146.05 input  -65.29 | X-H torsion
[ 10718 10713 10712 10709 ] final   77.26 input   66.30 | X-H torsion
[ 10763 10752 10751 10750 ] final  -67.37 input  -60.55 | X-H torsion
[ 11005 11000 10999 10996 ] final  -79.12 input  -57.11 | X-H torsion

> <Gold.Protein.ActiveResidues>
 VAL166  LYS551  ARG553  GLY616  TRP617  ASP618  TYR619  PRO620  LYS621  CYS622 
 ASP623  PHE694  ASN695  SER759  ASP760  ASP761  ALA762  ILE779  LEU786  VAL792 
 PHE793  MET794  SER795  GLU796  ALA797  LYS798  CYS799  TRP800  GLU811  SER814 

> <Gold.Protein.RotatedAtoms>
  152.2750  134.7891  160.0407 H   0  0  0  0  0  0  0  0  0  0  0  0  # atno 6907 bound_to 6896
  151.8491  133.3431  159.3675 H   0  0  0  0  0  0  0  0  0  0  0  0  # atno 6908 bound_to 6896
  150.7166  134.5245  159.5714 H   0  0  0  0  0  0  0  0  0  0  0  0  # atno 6909 bound_to 6896
  146.0614  139.5133  142.9656 H   0  0  0  0  0  0  0  0  0  0  0  0  # atno 7974 bound_to 7965
  154.8463  140.2922  155.5627 H   0  0  0  0  0  0  0  0  0  0  0  0  # atno 8008 bound_to 7997
  156.3014  140.2504  156.3346 H   0  0  0  0  0  0  0  0  0  0  0  0  # atno 8009 bound_to 7997
  154.9070  140.0389  157.1914 H   0  0  0  0  0  0  0  0  0  0  0  0  # atno 8010 bound_to 7997
  139.7749  143.8184  152.2630 H   0  0  0  0  0  0  0  0  0  0  0  0  # atno 10167 bound_to 10162
  157.6704  130.9813  150.1616 H   0  0  0  0  0  0  0  0  0  0  0  0  # atno 10718 bound_to 10713
  154.3735  135.6090  153.5753 H   0  0  0  0  0  0  0  0  0  0  0  0  # atno 10763 bound_to 10752
  152.9789  135.5844  154.4494 H   0  0  0  0  0  0  0  0  0  0  0  0  # atno 10764 bound_to 10752
  154.4251  135.2846  155.1927 H   0  0  0  0  0  0  0  0  0  0  0  0  # atno 10765 bound_to 10752
  141.1666  133.7092  156.8075 H   0  0  0  0  0  0  0  0  0  0  0  0  # atno 11005 bound_to 11000
  145.6553  141.0253  143.1738 LP  0  0  0  0  0  0  0  0  0  0  0  0  # atno 17320 bound_to 7965
  144.7177  139.8138  143.7393 LP  0  0  0  0  0  0  0  0  0  0  0  0  # atno 17321 bound_to 7965
  139.8230  144.7287  150.9548 LP  0  0  0  0  0  0  0  0  0  0  0  0  # atno 17342 bound_to 10162
  140.7816  143.4141  151.0945 LP  0  0  0  0  0  0  0  0  0  0  0  0  # atno 17343 bound_to 10162
  156.2391  130.3689  149.8358 LP  0  0  0  0  0  0  0  0  0  0  0  0  # atno 17370 bound_to 10713
  156.6163  130.8607  151.3465 LP  0  0  0  0  0  0  0  0  0  0  0  0  # atno 17371 bound_to 10713
  140.2211  134.8756  157.3378 LP  0  0  0  0  0  0  0  0  0  0  0  0  # atno 17394 bound_to 11000
  140.1986  134.4282  155.7675 LP  0  0  0  0  0  0  0  0  0  0  0  0  # atno 17395 bound_to 11000

$$$$
