AV-unprocessed.smi:2510|AV-procd|sdf|9885|dock10
  -GOLD-   2272013523D 1   1.00000     0.00000
 Structure written by MMmdl.
 48 49  0  0  0  0  0  0  0  0  1 V2000
  147.8626  136.4604  160.3923 C   0  0  0  0  0  0  0  0  0  0  0  0
  149.2146  136.5258  159.6620 C   0  0  0  0  0  0  0  0  0  0  0  0
  149.1274  136.5799  158.1174 C   0  0  0  0  0  0  0  0  0  0  0  0
  148.5035  137.9409  157.7076 C   0  0  0  0  0  0  0  0  0  0  0  0
  149.3154  139.1814  158.1124 C   0  0  0  0  0  0  0  0  0  0  0  0
  150.4363  136.1263  157.4010 C   0  0  2  0  0  0  0  0  0  0  0  0
  150.6209  136.7289  156.0816 N   0  0  0  0  0  0  0  0  0  0  0  0
  151.6978  137.4307  155.6994 C   0  0  0  0  0  0  0  0  0  0  0  0
  152.7161  137.5422  156.3813 O   0  0  0  0  0  0  0  0  0  0  0  0
  151.5883  138.1512  154.3558 C   0  0  0  0  0  0  0  0  0  0  0  0
  150.3381  138.9711  154.3132 C   0  0  0  0  0  0  0  0  0  0  0  0
  150.0144  140.1556  154.9142 C   0  0  0  0  0  0  0  0  0  0  0  0
  148.7031  140.4461  154.4364 C   0  0  0  0  0  0  0  0  0  0  0  0
  147.8497  141.6417  154.7411 C   0  0  0  0  0  0  0  0  0  0  0  0
  148.2435  139.5109  153.6186 N   0  0  0  0  0  0  0  0  0  0  0  0
  149.2465  138.6160  153.5537 N   0  0  0  0  0  0  0  0  0  0  0  0
  149.8670  134.7003  157.3045 C   0  0  2  0  0  0  0  0  0  0  0  0
  150.1834  133.7988  156.1126 C   0  0  0  0  0  0  0  0  0  0  0  0
  148.4699  135.3212  157.4877 C   0  0  2  0  0  0  0  0  0  0  0  0
  147.8395  135.6135  156.2447 O   0  0  0  0  0  0  0  0  0  0  0  0
  147.2842  134.4700  155.6185 C   0  0  0  0  0  0  0  0  0  0  0  0
  149.1789  137.7851  152.9830 H   0  0  0  0  0  0  0  0  0  0  0  0
  148.0054  136.5605  161.4683 H   0  0  0  0  0  0  0  0  0  0  0  0
  147.3563  135.5101  160.2259 H   0  0  0  0  0  0  0  0  0  0  0  0
  147.1928  137.2594  160.0742 H   0  0  0  0  0  0  0  0  0  0  0  0
  149.7349  137.4091  160.0323 H   0  0  0  0  0  0  0  0  0  0  0  0
  149.8392  135.6943  159.9866 H   0  0  0  0  0  0  0  0  0  0  0  0
  148.3000  137.9707  156.6378 H   0  0  0  0  0  0  0  0  0  0  0  0
  147.5240  138.0614  158.1676 H   0  0  0  0  0  0  0  0  0  0  0  0
  148.7461  140.0889  157.9110 H   0  0  0  0  0  0  0  0  0  0  0  0
  150.2489  139.2586  157.5560 H   0  0  0  0  0  0  0  0  0  0  0  0
  149.5523  139.1723  159.1766 H   0  0  0  0  0  0  0  0  0  0  0  0
  151.3269  136.1680  158.0299 H   0  0  0  0  0  0  0  0  0  0  0  0
  149.8304  136.6944  155.4541 H   0  0  0  0  0  0  0  0  0  0  0  0
  152.4630  138.7851  154.2037 H   0  0  0  0  0  0  0  0  0  0  0  0
  151.5864  137.4167  153.5498 H   0  0  0  0  0  0  0  0  0  0  0  0
  150.6323  140.7407  155.5791 H   0  0  0  0  0  0  0  0  0  0  0  0
  148.2624  142.2195  155.5679 H   0  0  0  0  0  0  0  0  0  0  0  0
  146.8373  141.3450  155.0167 H   0  0  0  0  0  0  0  0  0  0  0  0
  147.7814  142.3021  153.8764 H   0  0  0  0  0  0  0  0  0  0  0  0
  150.1267  134.1736  158.2242 H   0  0  0  0  0  0  0  0  0  0  0  0
  149.8714  134.2434  155.1674 H   0  0  0  0  0  0  0  0  0  0  0  0
  149.6790  132.8369  156.2037 H   0  0  0  0  0  0  0  0  0  0  0  0
  151.2530  133.6015  156.0443 H   0  0  0  0  0  0  0  0  0  0  0  0
  147.8249  134.7844  158.1861 H   0  0  0  0  0  0  0  0  0  0  0  0
  146.8622  134.7513  154.6539 H   0  0  0  0  0  0  0  0  0  0  0  0
  146.4832  134.0450  156.2247 H   0  0  0  0  0  0  0  0  0  0  0  0
  148.0360  133.6999  155.4462 H   0  0  0  0  0  0  0  0  0  0  0  0
  1  2  1  0  0  0  0
  1 23  1  0  0  0  0
  1 24  1  0  0  0  0
  1 25  1  0  0  0  0
  2  3  1  0  0  0  0
  2 26  1  0  0  0  0
  2 27  1  0  0  0  0
  3 19  1  0  0  0  0
  3  4  1  0  0  0  0
  3  6  1  0  0  0  0
  4  5  1  0  0  0  0
  4 28  1  0  0  0  0
  4 29  1  0  0  0  0
  5 30  1  0  0  0  0
  5 31  1  0  0  0  0
  5 32  1  0  0  0  0
  6  7  1  0  0  0  0
  6 17  1  0  0  0  0
  6 33  1  0  0  0  0
  7  8  1  0  0  0  0
  7 34  1  0  0  0  0
  8  9  2  0  0  0  0
  8 10  1  0  0  0  0
 10 35  1  0  0  0  0
 10 36  1  0  0  0  0
 10 11  1  0  0  0  0
 11 16  1  0  0  0  0
 11 12  2  0  0  0  0
 12 13  1  0  0  0  0
 12 37  1  0  0  0  0
 13 14  1  0  0  0  0
 13 15  2  0  0  0  0
 14 38  1  0  0  0  0
 14 39  1  0  0  0  0
 14 40  1  0  0  0  0
 15 16  1  0  0  0  0
 16 22  1  0  0  0  0
 17 18  1  0  0  0  0
 17 19  1  0  0  0  0
 17 41  1  0  0  0  0
 18 42  1  0  0  0  0
 18 43  1  0  0  0  0
 18 44  1  0  0  0  0
 19 20  1  0  0  0  0
 19 45  1  0  0  0  0
 20 21  1  0  0  0  0
 21 46  1  0  0  0  0
 21 47  1  0  0  0  0
 21 48  1  0  0  0  0
M  END
> <s_m_source_file>
AV-unprocessed.smi

> <i_m_source_file_index>
2510

> <i_lp_mmshare_version>
43012

> <i_f3d_flags>
0

> <s_epik_input>
W0NIM11PW0NAQEhdMVtDQEhdKFtDSDNdKVtDQEBIXShDMShbQ0gyXVtDSDNdKVtDSDJdW0NIM10pW05IXUMoPU8pW0NIMl1jMltjSF1jKFtDSDNdKVtuSF1uMg==

> <s_epik_cmdline>
J2VwaWtfcHl0aG9uJywgJy1waCcsICc3LjAnLCAnLXRuJywgJzgnLCAnLW1hJywgJzIwMCcsICctbWV0YWxfYmluZGluZycsICctaW1hZScsICc8aW5maWxlLm1hZT4nLCAnLW9tYWUnLCAnPG91dGZpbGUubWFlPic=

> <r_lp_tautomer_probability>
0.5

> <r_epik_Ionization_Penalty>
0.000134763

> <r_epik_Ionization_Penalty_Charging>
0

> <r_epik_Ionization_Penalty_Neutral>
0.000134763

> <r_epik_State_Penalty>
0.41068

> <r_epik_Charging_Adjusted_Penalty>
0.41068

> <i_epik_Tot_Q>
0

> <i_epik_Tot_abs_Q>
0

> <r_epik_Metal_State_Penalty>
0.410661

> <b_epik_Metal_Only>
0

> <s_lp_Force_Field>
OPLS_2005

> <r_lp_Energy>
25.7229

> <b_lp_Chiralities_Consistent>
1

> <s_lp_Variant>
AV-unprocessed.smi:2510-16

> <Gold.Version>
5.8.1

> <Gold.Id.Protein>
6NUR|6NUR_protein|mol2

> <Gold.PLP.Fitness>
31.3024

> <Gold.PLP.PLP>
-26.5176

> <Gold.PLP.part.hbond>
-3.0000

> <Gold.PLP.part.metal>
0.0000

> <Gold.PLP.part.buried>
-3.0250

> <Gold.PLP.part.nonpolar>
-22.1707

> <Gold.PLP.part.repulsive>
1.3973

> <Gold.PLP.ligand.clash>
0.0000

> <Gold.PLP.ligand.torsion>
0.5912

> <Gold.PLP.Chemscore.Hbond>
1.7771

> <Gold.PLP.Chemscore.CHOScore>
0.0000

> <Gold.PLP.Chemscore.Metal>
0.0000

> <Gold.Chemscore.Hbonds>
donor molecule, donor type, donor heavy atom, donor atom, acceptor molecule, acceptor atom, score
      L1  H    16    22       P1  7948  1.00

> <Gold.PLP.Chemscore.Internal.Correction>
0.6357

> <Gold.Rescore>
     Score         DG    S(hbond)    S(metal)    S(lipo)     H(rot)  DE(clash)    DE(int)     intcor
     11.52     -12.22       1.06        0.00      66.83       1.81       0.04       0.66       ----

> <Gold.Chemscore.Fitness>
11.5165

> <Gold.Chemscore.DG>
-12.2209

> <Gold.Chemscore.ZeroCoef>
-5.4800

> <Gold.Chemscore.Hbond>
1.0646

> <Gold.Chemscore.Metal>
0.0000

> <Gold.Chemscore.Lipo>
66.8317

> <Gold.Chemscore.Internal_Hbond>
0.0000

> <Gold.Chemscore.DEClash>
0.0440

> <Gold.Chemscore.DEInternal>
0.6604

> <Gold.Chemscore.Rot>
1.8102

> <Gold.Chemscore.Internal.Correction>
   9.000000E+99

> <Gold.Chemscore.Hbonds>
donor molecule, donor type, donor heavy atom, donor atom, acceptor molecule, acceptor atom, score
      L1  H    16    22       P1  7948  0.99

> <Gold.Chemscore.Hbond.Weighted>
-3.5557

> <Gold.Chemscore.Metal.Weighted>
-0.0000

> <Gold.Chemscore.Lipo.Weighted>
-7.8193

> <Gold.Chemscore.Internal_Hbond.Weighted>
0.0000

> <Gold.Chemscore.DEClash.Weighted>
0.0440

> <Gold.Chemscore.DEInternal.Weighted>
0.6604

> <Gold.Chemscore.Rot.Weighted>
4.6341

> <Gold.Chemscore.Internal.Correction.Weighted>
   9.000000E+99

> <Gold.Protein.RotatedTorsions>
[ 6907 6896 6895 6894 ] final  131.41 input  -60.11 | X-H torsion
[ 7974 7965 7964 7962 ] final   24.29 input  175.53 | X-H torsion
[ 8008 7997 7996 7995 ] final -160.54 input   59.86 | X-H torsion
[ 10167 10162 10161 10158 ] final  160.78 input  -65.29 | X-H torsion
[ 10718 10713 10712 10709 ] final  -84.07 input   66.30 | X-H torsion
[ 10763 10752 10751 10750 ] final -136.12 input  -60.55 | X-H torsion
[ 11005 11000 10999 10996 ] final   32.99 input  -57.11 | X-H torsion

> <Gold.Protein.ActiveResidues>
 VAL166  LYS551  ARG553  GLY616  TRP617  ASP618  TYR619  PRO620  LYS621  CYS622 
 ASP623  PHE694  ASN695  SER759  ASP760  ASP761  ALA762  ILE779  LEU786  VAL792 
 PHE793  MET794  SER795  GLU796  ALA797  LYS798  CYS799  TRP800  GLU811  SER814 

> <Gold.Protein.RotatedAtoms>
  152.3429  133.6088  159.5889 H   0  0  0  0  0  0  0  0  0  0  0  0  # atno 6907 bound_to 6896
  150.7490  133.9694  159.3550 H   0  0  0  0  0  0  0  0  0  0  0  0  # atno 6908 bound_to 6896
  151.7556  135.0823  160.0388 H   0  0  0  0  0  0  0  0  0  0  0  0  # atno 6909 bound_to 6896
  146.1944  139.7626  142.8808 H   0  0  0  0  0  0  0  0  0  0  0  0  # atno 7974 bound_to 7965
  155.7790  140.0862  157.2069 H   0  0  0  0  0  0  0  0  0  0  0  0  # atno 8008 bound_to 7997
  154.3991  140.1511  156.3087 H   0  0  0  0  0  0  0  0  0  0  0  0  # atno 8009 bound_to 7997
  155.8672  140.3427  155.5799 H   0  0  0  0  0  0  0  0  0  0  0  0  # atno 8010 bound_to 7997
  139.4843  144.4601  151.8716 H   0  0  0  0  0  0  0  0  0  0  0  0  # atno 10167 bound_to 10162
  156.0010  130.4686  150.4353 H   0  0  0  0  0  0  0  0  0  0  0  0  # atno 10718 bound_to 10713
  154.8690  135.3682  154.5009 H   0  0  0  0  0  0  0  0  0  0  0  0  # atno 10763 bound_to 10752
  153.5650  135.7022  153.5535 H   0  0  0  0  0  0  0  0  0  0  0  0  # atno 10764 bound_to 10752
  153.3594  135.4050  155.1670 H   0  0  0  0  0  0  0  0  0  0  0  0  # atno 10765 bound_to 10752
  140.2678  134.3117  155.7837 H   0  0  0  0  0  0  0  0  0  0  0  0  # atno 11005 bound_to 11000
  145.3689  141.0339  143.3242 LP  0  0  0  0  0  0  0  0  0  0  0  0  # atno 17320 bound_to 7965
  144.8551  139.5261  143.6838 LP  0  0  0  0  0  0  0  0  0  0  0  0  # atno 17321 bound_to 7965
  140.4062  144.2428  150.5890 LP  0  0  0  0  0  0  0  0  0  0  0  0  # atno 17342 bound_to 10162
  140.5010  143.2318  151.8679 LP  0  0  0  0  0  0  0  0  0  0  0  0  # atno 17343 bound_to 10162
  157.2399  131.0523  151.2443 LP  0  0  0  0  0  0  0  0  0  0  0  0  # atno 17370 bound_to 10713
  157.3630  130.7141  149.6514 LP  0  0  0  0  0  0  0  0  0  0  0  0  # atno 17371 bound_to 10713
  141.2182  133.7448  156.9287 LP  0  0  0  0  0  0  0  0  0  0  0  0  # atno 17394 bound_to 11000
  140.1402  134.9298  157.2457 LP  0  0  0  0  0  0  0  0  0  0  0  0  # atno 17395 bound_to 11000

$$$$
