AV-unprocessed.smi:247|AV-procd|sdf|1891|dock8
  -GOLD-   2262020553D 1   1.00000     0.00000
 Structure written by MMmdl.
 61 65  0  0  0  0  0  0  0  0  1 V2000
  143.9516  134.7845  149.2436 O   0  0  0  0  0  0  0  0  0  0  0  0
  144.0375  135.0842  150.6231 C   0  0  0  0  0  0  0  0  0  0  0  0
  144.5842  133.9076  151.4787 C   0  0  0  0  0  0  0  0  0  0  0  0
  144.2978  134.2118  152.9833 C   0  0  0  0  0  0  0  0  0  0  0  0
  143.0283  134.8734  153.2512 N   0  0  0  0  0  0  0  0  0  0  0  0
  141.7847  134.2853  153.2928 C   0  0  0  0  0  0  0  0  0  0  0  0
  140.7956  135.0931  153.5578 N   0  0  0  0  0  0  0  0  0  0  0  0
  141.4014  136.3316  153.7396 C   0  0  0  0  0  0  0  0  0  0  0  0
  140.9235  137.6395  154.0467 C   0  0  0  0  0  0  0  0  0  0  0  0
  139.6082  137.9290  154.2397 N   0  0  0  0  0  0  0  0  0  0  0  0
  138.6938  136.8576  154.6167 C   0  0  0  0  0  0  0  0  0  0  0  0
  137.5970  137.5169  155.4523 C   0  0  0  0  0  0  0  0  0  0  0  0
  138.2374  138.8270  155.9039 C   0  0  0  0  0  0  0  0  0  0  0  0
  139.1303  139.2306  154.7162 C   0  0  2  0  0  0  0  0  0  0  0  0
  138.3779  140.0342  153.6013 C   0  0  1  0  0  0  0  0  0  0  0  0
  136.8578  140.1237  153.8855 C   0  0  0  0  0  0  0  0  0  0  0  0
  136.6204  140.8914  155.0631 O   0  0  0  0  0  0  0  0  0  0  0  0
  137.0062  142.2562  154.9307 C   0  0  0  0  0  0  0  0  0  0  0  0
  138.5060  142.3643  154.6115 C   0  0  0  0  0  0  0  0  0  0  0  0
  138.8416  141.5009  153.3880 C   0  0  1  0  0  0  0  0  0  0  0  0
  140.2023  141.6331  153.0311 O   0  0  0  0  0  0  0  0  0  0  0  0
  141.8486  138.6315  154.1298 N   0  0  0  0  0  0  0  0  0  0  0  0
  143.1446  138.3725  153.9385 C   0  0  0  0  0  0  0  0  0  0  0  0
  143.7282  137.2087  153.6515 N   0  0  0  0  0  0  0  0  0  0  0  0
  142.8084  136.2068  153.5540 C   0  0  0  0  0  0  0  0  0  0  0  0
  143.9317  132.5776  151.0198 C   0  0  0  0  0  0  0  0  0  0  0  0
  144.5958  131.3469  151.6620 C   0  0  0  0  0  0  0  0  0  0  0  0
  145.9863  131.3380  151.3630 O   0  0  0  0  0  0  0  0  0  0  0  0
  146.6771  132.4662  151.8866 C   0  0  0  0  0  0  0  0  0  0  0  0
  146.1152  133.7651  151.2771 C   0  0  0  0  0  0  0  0  0  0  0  0
  144.8263  134.6634  148.9073 H   0  0  0  0  0  0  0  0  0  0  0  0
  144.6727  135.9631  150.7377 H   0  0  0  0  0  0  0  0  0  0  0  0
  143.0385  135.3704  150.9516 H   0  0  0  0  0  0  0  0  0  0  0  0
  144.3186  133.3042  153.5845 H   0  0  0  0  0  0  0  0  0  0  0  0
  145.0920  134.8409  153.3880 H   0  0  0  0  0  0  0  0  0  0  0  0
  141.6306  133.2318  153.1107 H   0  0  0  0  0  0  0  0  0  0  0  0
  138.2818  136.3619  153.7374 H   0  0  0  0  0  0  0  0  0  0  0  0
  139.2202  136.1127  155.2150 H   0  0  0  0  0  0  0  0  0  0  0  0
  136.7275  137.7245  154.8279 H   0  0  0  0  0  0  0  0  0  0  0  0
  137.2707  136.8945  156.2859 H   0  0  0  0  0  0  0  0  0  0  0  0
  137.5027  139.5659  156.2143 H   0  0  0  0  0  0  0  0  0  0  0  0
  138.8691  138.6312  156.7715 H   0  0  0  0  0  0  0  0  0  0  0  0
  139.9366  139.8509  155.1056 H   0  0  0  0  0  0  0  0  0  0  0  0
  138.5117  139.5060  152.6565 H   0  0  0  0  0  0  0  0  0  0  0  0
  136.3370  140.5812  153.0426 H   0  0  0  0  0  0  0  0  0  0  0  0
  136.4001  139.1447  154.0053 H   0  0  0  0  0  0  0  0  0  0  0  0
  136.4115  142.7316  154.1491 H   0  0  0  0  0  0  0  0  0  0  0  0
  136.7821  142.7789  155.8606 H   0  0  0  0  0  0  0  0  0  0  0  0
  138.7702  143.4059  154.4265 H   0  0  0  0  0  0  0  0  0  0  0  0
  139.0890  142.0467  155.4750 H   0  0  0  0  0  0  0  0  0  0  0  0
  138.2894  141.9049  152.5381 H   0  0  0  0  0  0  0  0  0  0  0  0
  140.3149  141.3105  152.1502 H   0  0  0  0  0  0  0  0  0  0  0  0
  143.8079  139.2203  154.0279 H   0  0  0  0  0  0  0  0  0  0  0  0
  142.8597  132.5751  151.2136 H   0  0  0  0  0  0  0  0  0  0  0  0
  144.0296  132.4715  149.9391 H   0  0  0  0  0  0  0  0  0  0  0  0
  144.4403  131.3209  152.7407 H   0  0  0  0  0  0  0  0  0  0  0  0
  144.1500  130.4363  151.2615 H   0  0  0  0  0  0  0  0  0  0  0  0
  146.6193  132.4709  152.9751 H   0  0  0  0  0  0  0  0  0  0  0  0
  147.7337  132.3701  151.6361 H   0  0  0  0  0  0  0  0  0  0  0  0
  146.3564  133.7542  150.2139 H   0  0  0  0  0  0  0  0  0  0  0  0
  146.6368  134.6282  151.6923 H   0  0  0  0  0  0  0  0  0  0  0  0
  1  2  1  0  0  0  0
  1 31  1  0  0  0  0
  2  3  1  0  0  0  0
  2 32  1  0  0  0  0
  2 33  1  0  0  0  0
  3 30  1  0  0  0  0
  3  4  1  0  0  0  0
  3 26  1  0  0  0  0
  4  5  1  0  0  0  0
  4 34  1  0  0  0  0
  4 35  1  0  0  0  0
  5 25  1  0  0  0  0
  5  6  1  0  0  0  0
  6  7  2  0  0  0  0
  6 36  1  0  0  0  0
  7  8  1  0  0  0  0
  8 25  2  0  0  0  0
  8  9  1  0  0  0  0
  9 10  1  0  0  0  0
  9 22  2  0  0  0  0
 10 14  1  0  0  0  0
 10 11  1  0  0  0  0
 11 12  1  0  0  0  0
 11 37  1  0  0  0  0
 11 38  1  0  0  0  0
 12 13  1  0  0  0  0
 12 39  1  0  0  0  0
 12 40  1  0  0  0  0
 13 14  1  0  0  0  0
 13 41  1  0  0  0  0
 13 42  1  0  0  0  0
 14 15  1  0  0  0  0
 14 43  1  0  0  0  0
 15 20  1  0  0  0  0
 15 16  1  0  0  0  0
 15 44  1  0  0  0  0
 16 17  1  0  0  0  0
 16 45  1  0  0  0  0
 16 46  1  0  0  0  0
 17 18  1  0  0  0  0
 18 19  1  0  0  0  0
 18 47  1  0  0  0  0
 18 48  1  0  0  0  0
 19 20  1  0  0  0  0
 19 49  1  0  0  0  0
 19 50  1  0  0  0  0
 20 21  1  0  0  0  0
 20 51  1  0  0  0  0
 21 52  1  0  0  0  0
 22 23  1  0  0  0  0
 23 24  2  0  0  0  0
 23 53  1  0  0  0  0
 24 25  1  0  0  0  0
 26 27  1  0  0  0  0
 26 54  1  0  0  0  0
 26 55  1  0  0  0  0
 27 28  1  0  0  0  0
 27 56  1  0  0  0  0
 27 57  1  0  0  0  0
 28 29  1  0  0  0  0
 29 30  1  0  0  0  0
 29 58  1  0  0  0  0
 29 59  1  0  0  0  0
 30 60  1  0  0  0  0
 30 61  1  0  0  0  0
M  END
> <s_m_source_file>
AV-unprocessed.smi

> <i_m_source_file_index>
247

> <i_lp_mmshare_version>
43012

> <i_f3d_flags>
0

> <s_epik_input>
W0NIMl0xW0NIMl1PW0NIMl1bQ0gyXUMxKFtDSDJdW09IXSlbQ0gyXW4oW2NIXW4yKWMoYzIzKW5bY0hdbmMzTjRbQ0gyXVtDSDJdW0NIMl1bQ0BIXTRbQ0BASF01W0NIMl1PW0NIMl1bQ0gyXVtDQEhdNVtPSF0=

> <s_epik_cmdline>
J2VwaWtfcHl0aG9uJywgJy1waCcsICc3LjAnLCAnLXRuJywgJzgnLCAnLW1hJywgJzIwMCcsICctbWV0YWxfYmluZGluZycsICctaW1hZScsICc8aW5maWxlLm1hZT4nLCAnLW9tYWUnLCAnPG91dGZpbGUubWFlPic=

> <r_lp_tautomer_probability>
1

> <r_epik_Ionization_Penalty>
0.00362597

> <r_epik_Ionization_Penalty_Charging>
0

> <r_epik_Ionization_Penalty_Neutral>
0.00362597

> <r_epik_State_Penalty>
0.00241433

> <r_epik_Charging_Adjusted_Penalty>
0.00241433

> <i_epik_Tot_Q>
0

> <i_epik_Tot_abs_Q>
0

> <r_epik_Metal_State_Penalty>
-0

> <b_epik_Metal_Only>
0

> <s_lp_Force_Field>
OPLS_2005

> <r_lp_Energy>
63.0173

> <b_lp_Chiralities_Consistent>
1

> <s_lp_Variant>
AV-unprocessed.smi:247-4

> <Gold.Version>
5.8.1

> <Gold.Id.Protein>
6NUR|6NUR_protein|mol2

> <Gold.PLP.Fitness>
48.2555

> <Gold.PLP.PLP>
-42.9145

> <Gold.PLP.part.hbond>
-4.8095

> <Gold.PLP.part.metal>
0.0000

> <Gold.PLP.part.buried>
-5.0322

> <Gold.PLP.part.nonpolar>
-34.6547

> <Gold.PLP.part.repulsive>
0.8878

> <Gold.PLP.ligand.clash>
0.0000

> <Gold.PLP.ligand.torsion>
2.3411

> <Gold.PLP.Chemscore.Hbond>
2.1309

> <Gold.PLP.Chemscore.CHOScore>
1.1074

> <Gold.PLP.Chemscore.Metal>
0.0000

> <Gold.Chemscore.Hbonds>
donor molecule, donor type, donor heavy atom, donor atom, acceptor molecule, acceptor atom, score
      L1  H     1    31       P1  7921  1.00
      L1  H    21    52       P1 10160  0.91
      P1  H 11000 11005       L1     7  0.17
      L1  C     6    36       P1 10957  0.70
      L1  C    23    53       P1 10175  0.55

> <Gold.PLP.Chemscore.Internal.Correction>
0.3082

> <Gold.Rescore>
     Score         DG    S(hbond)    S(metal)    S(lipo)     H(rot)  DE(clash)    DE(int)     intcor
      9.98     -16.06       1.98        0.00      98.26       2.94       1.49       4.60       ----

> <Gold.Chemscore.Fitness>
9.9758

> <Gold.Chemscore.DG>
-16.0605

> <Gold.Chemscore.ZeroCoef>
-5.4800

> <Gold.Chemscore.Hbond>
1.9809

> <Gold.Chemscore.Metal>
0.0000

> <Gold.Chemscore.Lipo>
98.2601

> <Gold.Chemscore.Internal_Hbond>
0.0000

> <Gold.Chemscore.DEClash>
1.4871

> <Gold.Chemscore.DEInternal>
4.5976

> <Gold.Chemscore.Rot>
2.9423

> <Gold.Chemscore.Internal.Correction>
   9.000000E+99

> <Gold.Chemscore.Hbonds>
donor molecule, donor type, donor heavy atom, donor atom, acceptor molecule, acceptor atom, score
      L1  H     1    31       P1  7921  0.97
      L1  H    21    52       P1 10160  0.65
      P1  H 11000 11005       L1     7  0.01

> <Gold.Chemscore.Hbond.Weighted>
-6.6163

> <Gold.Chemscore.Metal.Weighted>
-0.0000

> <Gold.Chemscore.Lipo.Weighted>
-11.4964

> <Gold.Chemscore.Internal_Hbond.Weighted>
0.0000

> <Gold.Chemscore.DEClash.Weighted>
1.4871

> <Gold.Chemscore.DEInternal.Weighted>
4.5976

> <Gold.Chemscore.Rot.Weighted>
7.5323

> <Gold.Chemscore.Internal.Correction.Weighted>
   9.000000E+99

> <Gold.Protein.RotatedTorsions>
[ 6907 6896 6895 6894 ] final  -45.27 input  -60.11 | X-H torsion
[ 7974 7965 7964 7962 ] final  -25.30 input  175.53 | X-H torsion
[ 8008 7997 7996 7995 ] final -136.59 input   59.86 | X-H torsion
[ 10167 10162 10161 10158 ] final   90.40 input  -65.29 | X-H torsion
[ 10718 10713 10712 10709 ] final   19.73 input   66.30 | X-H torsion
[ 10763 10752 10751 10750 ] final -138.08 input  -60.55 | X-H torsion
[ 11005 11000 10999 10996 ] final   25.38 input  -57.11 | X-H torsion

> <Gold.Protein.ActiveResidues>
 VAL166  LYS551  ARG553  GLY616  TRP617  ASP618  TYR619  PRO620  LYS621  CYS622 
 ASP623  PHE694  ASN695  SER759  ASP760  ASP761  ALA762  ILE779  LEU786  VAL792 
 PHE793  MET794  SER795  GLU796  ALA797  LYS798  CYS799  TRP800  GLU811  SER814 

> <Gold.Protein.RotatedAtoms>
  150.9237  134.8654  159.7505 H   0  0  0  0  0  0  0  0  0  0  0  0  # atno 6907 bound_to 6896
  152.5005  134.4180  159.9481 H   0  0  0  0  0  0  0  0  0  0  0  0  # atno 6908 bound_to 6896
  151.4212  133.3658  159.2791 H   0  0  0  0  0  0  0  0  0  0  0  0  # atno 6909 bound_to 6896
  146.1500  140.4867  142.8615 H   0  0  0  0  0  0  0  0  0  0  0  0  # atno 7974 bound_to 7965
  155.3978  140.0504  157.3038 H   0  0  0  0  0  0  0  0  0  0  0  0  # atno 8008 bound_to 7997
  154.5005  140.2155  155.9317 H   0  0  0  0  0  0  0  0  0  0  0  0  # atno 8009 bound_to 7997
  156.1461  140.3145  155.8578 H   0  0  0  0  0  0  0  0  0  0  0  0  # atno 8010 bound_to 7997
  139.8477  144.6609  150.9207 H   0  0  0  0  0  0  0  0  0  0  0  0  # atno 10167 bound_to 10162
  157.1146  130.6523  149.5907 H   0  0  0  0  0  0  0  0  0  0  0  0  # atno 10718 bound_to 10713
  154.8646  135.3623  154.5326 H   0  0  0  0  0  0  0  0  0  0  0  0  # atno 10763 bound_to 10752
  153.5951  135.7014  153.5412 H   0  0  0  0  0  0  0  0  0  0  0  0  # atno 10764 bound_to 10752
  153.3339  135.4116  155.1479 H   0  0  0  0  0  0  0  0  0  0  0  0  # atno 10765 bound_to 10752
  140.3484  134.2256  155.7682 H   0  0  0  0  0  0  0  0  0  0  0  0  # atno 11005 bound_to 11000
  144.7892  140.5998  143.6553 LP  0  0  0  0  0  0  0  0  0  0  0  0  # atno 17320 bound_to 7965
  145.4846  139.1493  143.3743 LP  0  0  0  0  0  0  0  0  0  0  0  0  # atno 17321 bound_to 7965
  140.7791  143.3855  151.1401 LP  0  0  0  0  0  0  0  0  0  0  0  0  # atno 17342 bound_to 10162
  139.7496  143.8799  152.3073 LP  0  0  0  0  0  0  0  0  0  0  0  0  # atno 17343 bound_to 10162
  155.9842  130.4866  150.6973 LP  0  0  0  0  0  0  0  0  0  0  0  0  # atno 17370 bound_to 10713
  157.4530  131.0874  151.0826 LP  0  0  0  0  0  0  0  0  0  0  0  0  # atno 17371 bound_to 10713
  141.2019  133.7951  157.0418 LP  0  0  0  0  0  0  0  0  0  0  0  0  # atno 17394 bound_to 11000
  140.0723  134.9695  157.1488 LP  0  0  0  0  0  0  0  0  0  0  0  0  # atno 17395 bound_to 11000

$$$$
