AV-unprocessed.smi:2451|AV-procd|sdf|9672|dock6
  -GOLD-   2272013313D 1   1.00000     0.00000
 Structure written by MMmdl.
 38 39  0  0  0  0  0  0  0  0  1 V2000
  149.9970  144.7752  160.0244 C   0  0  0  0  0  0  0  0  0  0  0  0
  151.5263  144.9425  159.9062 C   0  0  1  0  0  0  0  0  0  0  0  0
  152.2123  144.8509  161.2840 C   0  0  0  0  0  0  0  0  0  0  0  0
  152.2235  143.4151  161.8311 C   0  0  0  0  0  0  0  0  0  0  0  0
  152.8941  142.4544  160.8402 C   0  0  0  0  0  0  0  0  0  0  0  0
  152.2460  142.5210  159.4440 C   0  0  2  0  0  0  0  0  0  0  0  0
  153.0105  141.6639  158.5328 N   0  0  0  0  0  0  0  0  0  0  0  0
  152.3063  140.1827  158.0002 S   0  0  0  0  0  0  0  0  0  0  0  0
  153.3544  139.1520  158.0483 O   0  0  0  0  0  0  0  0  0  0  0  0
  151.0532  139.9914  158.7471 O   0  0  0  0  0  0  0  0  0  0  0  0
  151.8927  140.5476  156.2426 C   0  0  0  0  0  0  0  0  0  0  0  0
  151.5982  139.2656  155.5180 C   0  0  0  0  0  0  0  0  0  0  0  0
  150.3905  138.8690  154.8794 C   0  0  0  0  0  0  0  0  0  0  0  0
  150.6816  137.6287  154.3894 C   0  0  0  0  0  0  0  0  0  0  0  0
  151.9592  137.2862  154.6925 O   0  0  0  0  0  0  0  0  0  0  0  0
  152.5369  138.3385  155.4120 N   0  0  0  0  0  0  0  0  0  0  0  0
  152.1975  143.9706  158.8978 C   0  0  1  0  0  0  0  0  0  0  0  0
  151.5564  144.0547  157.4982 C   0  0  0  0  0  0  0  0  0  0  0  0
  149.7145  143.7642  160.3163 H   0  0  0  0  0  0  0  0  0  0  0  0
  149.4947  144.9999  159.0838 H   0  0  0  0  0  0  0  0  0  0  0  0
  149.5884  145.4572  160.7703 H   0  0  0  0  0  0  0  0  0  0  0  0
  151.6927  145.9563  159.5396 H   0  0  0  0  0  0  0  0  0  0  0  0
  153.2400  145.2063  161.1978 H   0  0  0  0  0  0  0  0  0  0  0  0
  151.7227  145.5174  161.9950 H   0  0  0  0  0  0  0  0  0  0  0  0
  152.7510  143.3882  162.7850 H   0  0  0  0  0  0  0  0  0  0  0  0
  151.2056  143.0832  162.0371 H   0  0  0  0  0  0  0  0  0  0  0  0
  153.9535  142.7051  160.7660 H   0  0  0  0  0  0  0  0  0  0  0  0
  152.8462  141.4356  161.2271 H   0  0  0  0  0  0  0  0  0  0  0  0
  151.2277  142.1373  159.5160 H   0  0  0  0  0  0  0  0  0  0  0  0
  153.9631  141.5235  158.8682 H   0  0  0  0  0  0  0  0  0  0  0  0
  151.0277  141.2103  156.2251 H   0  0  0  0  0  0  0  0  0  0  0  0
  152.7308  141.0806  155.7930 H   0  0  0  0  0  0  0  0  0  0  0  0
  149.4580  139.4077  154.7986 H   0  0  0  0  0  0  0  0  0  0  0  0
  150.1141  136.8994  153.8301 H   0  0  0  0  0  0  0  0  0  0  0  0
  153.2299  144.3065  158.7860 H   0  0  0  0  0  0  0  0  0  0  0  0
  150.5550  143.6238  157.4874 H   0  0  0  0  0  0  0  0  0  0  0  0
  152.1472  143.5165  156.7567 H   0  0  0  0  0  0  0  0  0  0  0  0
  151.4815  145.0887  157.1610 H   0  0  0  0  0  0  0  0  0  0  0  0
  1  2  1  0  0  0  0
  1 19  1  0  0  0  0
  1 20  1  0  0  0  0
  1 21  1  0  0  0  0
  2 17  1  0  0  0  0
  2  3  1  0  0  0  0
  2 22  1  0  0  0  0
  3  4  1  0  0  0  0
  3 23  1  0  0  0  0
  3 24  1  0  0  0  0
  4  5  1  0  0  0  0
  4 25  1  0  0  0  0
  4 26  1  0  0  0  0
  5  6  1  0  0  0  0
  5 27  1  0  0  0  0
  5 28  1  0  0  0  0
  6  7  1  0  0  0  0
  6 17  1  0  0  0  0
  6 29  1  0  0  0  0
  7  8  1  0  0  0  0
  7 30  1  0  0  0  0
  8  9  2  0  0  0  0
  8 10  2  0  0  0  0
  8 11  1  0  0  0  0
 11 12  1  0  0  0  0
 11 31  1  0  0  0  0
 11 32  1  0  0  0  0
 12 16  2  0  0  0  0
 12 13  1  0  0  0  0
 13 14  2  0  0  0  0
 13 33  1  0  0  0  0
 14 15  1  0  0  0  0
 14 34  1  0  0  0  0
 15 16  1  0  0  0  0
 17 18  1  0  0  0  0
 17 35  1  0  0  0  0
 18 36  1  0  0  0  0
 18 37  1  0  0  0  0
 18 38  1  0  0  0  0
M  END
> <s_m_source_file>
AV-unprocessed.smi

> <i_m_source_file_index>
2451

> <i_lp_mmshare_version>
43012

> <i_f3d_flags>
0

> <s_epik_input>
W0NIM11bQ0BASF0xW0NIMl1bQ0gyXVtDSDJdW0NASF0oW0NASF0xW0NIM10pW05IXVMoPU8pKD1PKVtDSDJdYzJbY0hdW2NIXW9uMg==

> <s_epik_cmdline>
J2VwaWtfcHl0aG9uJywgJy1waCcsICc3LjAnLCAnLXRuJywgJzgnLCAnLW1hJywgJzIwMCcsICctbWV0YWxfYmluZGluZycsICctaW1hZScsICc8aW5maWxlLm1hZT4nLCAnLW9tYWUnLCAnPG91dGZpbGUubWFlPic=

> <r_lp_tautomer_probability>
1

> <r_epik_Ionization_Penalty>
8.73668e-05

> <r_epik_Ionization_Penalty_Charging>
0

> <r_epik_Ionization_Penalty_Neutral>
8.73668e-05

> <r_epik_State_Penalty>
-0

> <r_epik_Charging_Adjusted_Penalty>
0

> <i_epik_Tot_Q>
0

> <i_epik_Tot_abs_Q>
0

> <r_epik_Metal_State_Penalty>
0.0716439

> <b_epik_Metal_Only>
0

> <s_lp_Force_Field>
OPLS_2005

> <r_lp_Energy>
8.38809

> <b_lp_Chiralities_Consistent>
1

> <s_lp_Variant>
AV-unprocessed.smi:2451-4

> <Gold.Version>
5.8.1

> <Gold.Id.Protein>
6NUR|6NUR_protein|mol2

> <Gold.PLP.Fitness>
46.0838

> <Gold.PLP.PLP>
-39.3531

> <Gold.PLP.part.hbond>
-2.1962

> <Gold.PLP.part.metal>
0.0000

> <Gold.PLP.part.buried>
-1.3994

> <Gold.PLP.part.nonpolar>
-36.1417

> <Gold.PLP.part.repulsive>
0.1245

> <Gold.PLP.ligand.clash>
0.0000

> <Gold.PLP.ligand.torsion>
1.1866

> <Gold.PLP.Chemscore.Hbond>
1.9280

> <Gold.PLP.Chemscore.CHOScore>
1.0611

> <Gold.PLP.Chemscore.Metal>
0.0000

> <Gold.Chemscore.Hbonds>
donor molecule, donor type, donor heavy atom, donor atom, acceptor molecule, acceptor atom, score
      P1  H  7997  8009       L1     9  1.00
      P1  H 10752 10765       L1    15  0.93
      L1  C    14    34       P1  7948  1.00
      L1  C    14    34       P1  7949  0.06

> <Gold.PLP.Chemscore.Internal.Correction>
0.1368

> <Gold.Rescore>
     Score         DG    S(hbond)    S(metal)    S(lipo)     H(rot)  DE(clash)    DE(int)     intcor
     16.55     -19.60       1.56        0.00     112.53       1.66       0.59       2.46       ----

> <Gold.Chemscore.Fitness>
16.5451

> <Gold.Chemscore.DG>
-19.5992

> <Gold.Chemscore.ZeroCoef>
-5.4800

> <Gold.Chemscore.Hbond>
1.5568

> <Gold.Chemscore.Metal>
0.0000

> <Gold.Chemscore.Lipo>
112.5303

> <Gold.Chemscore.Internal_Hbond>
0.0000

> <Gold.Chemscore.DEClash>
0.5944

> <Gold.Chemscore.DEInternal>
2.4597

> <Gold.Chemscore.Rot>
1.6588

> <Gold.Chemscore.Internal.Correction>
   9.000000E+99

> <Gold.Chemscore.Hbonds>
donor molecule, donor type, donor heavy atom, donor atom, acceptor molecule, acceptor atom, score
      P1  H  7997  8009       L1     9  0.26
      P1  H 10752 10765       L1    15  0.88

> <Gold.Chemscore.Hbond.Weighted>
-5.1997

> <Gold.Chemscore.Metal.Weighted>
-0.0000

> <Gold.Chemscore.Lipo.Weighted>
-13.1660

> <Gold.Chemscore.Internal_Hbond.Weighted>
0.0000

> <Gold.Chemscore.DEClash.Weighted>
0.5944

> <Gold.Chemscore.DEInternal.Weighted>
2.4597

> <Gold.Chemscore.Rot.Weighted>
4.2466

> <Gold.Chemscore.Internal.Correction.Weighted>
   9.000000E+99

> <Gold.Protein.RotatedTorsions>
[ 6907 6896 6895 6894 ] final   -2.54 input  -60.11 | X-H torsion
[ 7974 7965 7964 7962 ] final   75.88 input  175.53 | X-H torsion
[ 8008 7997 7996 7995 ] final  145.27 input   59.86 | X-H torsion
[ 10167 10162 10161 10158 ] final  118.65 input  -65.29 | X-H torsion
[ 10718 10713 10712 10709 ] final   96.78 input   66.30 | X-H torsion
[ 10763 10752 10751 10750 ] final  170.01 input  -60.55 | X-H torsion
[ 11005 11000 10999 10996 ] final  -48.90 input  -57.11 | X-H torsion

> <Gold.Protein.ActiveResidues>
 VAL166  LYS551  ARG553  GLY616  TRP617  ASP618  TYR619  PRO620  LYS621  CYS622 
 ASP623  PHE694  ASN695  SER759  ASP760  ASP761  ALA762  ILE779  LEU786  VAL792 
 PHE793  MET794  SER795  GLU796  ALA797  LYS798  CYS799  TRP800  GLU811  SER814 

> <Gold.Protein.RotatedAtoms>
  151.5282  135.1068  159.9895 H   0  0  0  0  0  0  0  0  0  0  0  0  # atno 6907 bound_to 6896
  152.4590  133.7779  159.6845 H   0  0  0  0  0  0  0  0  0  0  0  0  # atno 6908 bound_to 6896
  150.8545  133.7672  159.3039 H   0  0  0  0  0  0  0  0  0  0  0  0  # atno 6909 bound_to 6896
  145.7100  139.2611  143.1656 H   0  0  0  0  0  0  0  0  0  0  0  0  # atno 7974 bound_to 7965
  156.2887  140.2213  156.5188 H   0  0  0  0  0  0  0  0  0  0  0  0  # atno 8008 bound_to 7997
  154.7546  140.0478  157.0944 H   0  0  0  0  0  0  0  0  0  0  0  0  # atno 8009 bound_to 7997
  155.0067  140.3108  155.4849 H   0  0  0  0  0  0  0  0  0  0  0  0  # atno 8010 bound_to 7997
  139.6098  144.7079  151.2871 H   0  0  0  0  0  0  0  0  0  0  0  0  # atno 10167 bound_to 10162
  157.6922  131.0589  150.4544 H   0  0  0  0  0  0  0  0  0  0  0  0  # atno 10718 bound_to 10713
  154.3915  135.2754  155.2152 H   0  0  0  0  0  0  0  0  0  0  0  0  # atno 10763 bound_to 10752
  154.4216  135.5998  153.6017 H   0  0  0  0  0  0  0  0  0  0  0  0  # atno 10764 bound_to 10752
  152.9832  135.5974  154.4170 H   0  0  0  0  0  0  0  0  0  0  0  0  # atno 10765 bound_to 10752
  141.0728  133.6674  156.3508 H   0  0  0  0  0  0  0  0  0  0  0  0  # atno 11005 bound_to 11000
  146.0721  140.7858  142.9683 LP  0  0  0  0  0  0  0  0  0  0  0  0  # atno 17320 bound_to 7965
  144.6944  140.3358  143.7208 LP  0  0  0  0  0  0  0  0  0  0  0  0  # atno 17321 bound_to 7965
  140.7311  143.6862  150.7960 LP  0  0  0  0  0  0  0  0  0  0  0  0  # atno 17342 bound_to 10162
  140.0454  143.5303  152.2698 LP  0  0  0  0  0  0  0  0  0  0  0  0  # atno 17343 bound_to 10162
  156.4892  130.4091  149.6416 LP  0  0  0  0  0  0  0  0  0  0  0  0  # atno 17370 bound_to 10713
  156.3433  130.7393  151.2342 LP  0  0  0  0  0  0  0  0  0  0  0  0  # atno 17371 bound_to 10713
  140.5637  134.5909  157.5440 LP  0  0  0  0  0  0  0  0  0  0  0  0  # atno 17394 bound_to 11000
  139.9541  134.7566  156.0382 LP  0  0  0  0  0  0  0  0  0  0  0  0  # atno 17395 bound_to 11000

$$$$
