AV-unprocessed.smi:2270|AV-procd|sdf|9156|dock2
  -GOLD-   2272012363D 1   1.00000     0.00000
 Structure written by MMmdl.
 53 54  0  0  0  0  0  0  0  0  2 V2000
  151.4077  144.1685  160.7836 C   0  0  0  0  0  0  0  0  0  0  0  0
  152.1278  142.8521  160.5798 C   0  0  0  0  0  0  0  0  0  0  0  0
  153.3470  142.5848  161.2328 C   0  0  0  0  0  0  0  0  0  0  0  0
  153.9625  141.3411  161.0046 C   0  0  0  0  0  0  0  0  0  0  0  0
  153.3371  140.4215  160.1405 C   0  0  0  0  0  0  0  0  0  0  0  0
  152.1128  140.7680  159.5258 C   0  0  0  0  0  0  0  0  0  0  0  0
  151.5636  139.7728  158.6746 N   0  0  0  0  0  0  0  0  0  0  0  0
  150.4010  139.8075  158.0000 C   0  0  0  0  0  0  0  0  0  0  0  0
  149.5948  140.7378  158.0110 O   0  0  0  0  0  0  0  0  0  0  0  0
  150.2232  138.6896  157.2815 N   0  0  0  0  0  0  0  0  0  0  0  0
  149.0551  138.4077  156.4521 C   0  0  0  0  0  0  0  0  0  0  0  0
  149.3905  137.9289  155.0069 C   0  0  2  0  0  0  0  0  0  0  0  0
  150.2833  138.9427  154.2341 C   0  0  0  0  0  0  0  0  0  0  0  0
  151.7747  138.7892  154.5952 C   0  0  0  0  0  0  0  0  0  0  0  0
  149.8665  140.4083  154.4636 C   0  0  0  0  0  0  0  0  0  0  0  0
  148.1889  137.5857  154.1827 N   0  3  0  0  0  0  0  0  0  0  0  0
  147.3955  138.7271  153.6608 C   0  0  0  0  0  0  0  0  0  0  0  0
  146.3719  138.2274  152.6203 C   0  0  0  0  0  0  0  0  0  0  0  0
  145.4899  137.1920  153.1648 N   0  0  0  0  0  0  0  0  0  0  0  0
  144.5251  137.7082  154.1301 C   0  0  0  0  0  0  0  0  0  0  0  0
  146.2848  136.0778  153.6864 C   0  0  0  0  0  0  0  0  0  0  0  0
  147.3035  136.5384  154.7494 C   0  0  0  0  0  0  0  0  0  0  0  0
  151.5281  141.9708  159.7505 N   0  0  0  0  0  0  0  0  0  0  0  0
  152.0503  144.8967  161.2791 H   0  0  0  0  0  0  0  0  0  0  0  0
  150.5205  144.0205  161.3995 H   0  0  0  0  0  0  0  0  0  0  0  0
  151.0962  144.5884  159.8266 H   0  0  0  0  0  0  0  0  0  0  0  0
  153.7997  143.3108  161.8921 H   0  0  0  0  0  0  0  0  0  0  0  0
  154.8981  141.0950  161.4848 H   0  0  0  0  0  0  0  0  0  0  0  0
  153.7966  139.4613  159.9564 H   0  0  0  0  0  0  0  0  0  0  0  0
  152.1226  138.9396  158.5675 H   0  0  0  0  0  0  0  0  0  0  0  0
  150.9324  137.9725  157.3315 H   0  0  0  0  0  0  0  0  0  0  0  0
  148.4457  137.6647  156.9670 H   0  0  0  0  0  0  0  0  0  0  0  0
  148.4520  139.3151  156.4254 H   0  0  0  0  0  0  0  0  0  0  0  0
  149.9871  137.0201  155.0987 H   0  0  0  0  0  0  0  0  0  0  0  0
  150.1854  138.7460  153.1660 H   0  0  0  0  0  0  0  0  0  0  0  0
  151.9403  138.9339  155.6634 H   0  0  0  0  0  0  0  0  0  0  0  0
  152.3843  139.5216  154.0650 H   0  0  0  0  0  0  0  0  0  0  0  0
  152.1630  137.8065  154.3272 H   0  0  0  0  0  0  0  0  0  0  0  0
  149.8405  140.6524  155.5262 H   0  0  0  0  0  0  0  0  0  0  0  0
  148.8858  140.6261  154.0424 H   0  0  0  0  0  0  0  0  0  0  0  0
  150.5655  141.0954  153.9857 H   0  0  0  0  0  0  0  0  0  0  0  0
  146.8876  139.2521  154.4692 H   0  0  0  0  0  0  0  0  0  0  0  0
  148.0602  139.4497  153.1876 H   0  0  0  0  0  0  0  0  0  0  0  0
  145.7739  139.0583  152.2447 H   0  0  0  0  0  0  0  0  0  0  0  0
  146.9004  137.8142  151.7600 H   0  0  0  0  0  0  0  0  0  0  0  0
  143.8519  136.9130  154.4513 H   0  0  0  0  0  0  0  0  0  0  0  0
  143.9175  138.4904  153.6742 H   0  0  0  0  0  0  0  0  0  0  0  0
  145.0000  138.1252  155.0174 H   0  0  0  0  0  0  0  0  0  0  0  0
  145.6231  135.3146  154.0978 H   0  0  0  0  0  0  0  0  0  0  0  0
  146.8139  135.6114  152.8542 H   0  0  0  0  0  0  0  0  0  0  0  0
  147.9016  135.6811  155.0596 H   0  0  0  0  0  0  0  0  0  0  0  0
  146.7877  136.8971  155.6378 H   0  0  0  0  0  0  0  0  0  0  0  0
  148.5810  137.1463  153.3623 H   0  0  0  0  0  0  0  0  0  0  0  0
  1  2  1  0  0  0  0
  1 24  1  0  0  0  0
  1 25  1  0  0  0  0
  1 26  1  0  0  0  0
  2 23  1  0  0  0  0
  2  3  2  0  0  0  0
  3  4  1  0  0  0  0
  3 27  1  0  0  0  0
  4  5  2  0  0  0  0
  4 28  1  0  0  0  0
  5  6  1  0  0  0  0
  5 29  1  0  0  0  0
  6  7  1  0  0  0  0
  6 23  2  0  0  0  0
  7  8  1  0  0  0  0
  7 30  1  0  0  0  0
  8  9  2  0  0  0  0
  8 10  1  0  0  0  0
 10 11  1  0  0  0  0
 10 31  1  0  0  0  0
 11 12  1  0  0  0  0
 11 32  1  0  0  0  0
 11 33  1  0  0  0  0
 12 13  1  0  0  0  0
 12 16  1  0  0  0  0
 12 34  1  0  0  0  0
 13 14  1  0  0  0  0
 13 15  1  0  0  0  0
 13 35  1  0  0  0  0
 14 36  1  0  0  0  0
 14 37  1  0  0  0  0
 14 38  1  0  0  0  0
 15 39  1  0  0  0  0
 15 40  1  0  0  0  0
 15 41  1  0  0  0  0
 16 22  1  0  0  0  0
 16 17  1  0  0  0  0
 16 53  1  0  0  0  0
 17 18  1  0  0  0  0
 17 42  1  0  0  0  0
 17 43  1  0  0  0  0
 18 19  1  0  0  0  0
 18 44  1  0  0  0  0
 18 45  1  0  0  0  0
 19 20  1  0  0  0  0
 19 21  1  0  0  0  0
 20 46  1  0  0  0  0
 20 47  1  0  0  0  0
 20 48  1  0  0  0  0
 21 22  1  0  0  0  0
 21 49  1  0  0  0  0
 21 50  1  0  0  0  0
 22 51  1  0  0  0  0
 22 52  1  0  0  0  0
M  CHG  1  16   1
M  END
> <s_m_source_file>
AV-unprocessed.smi

> <i_m_source_file_index>
2270

> <i_lp_mmshare_version>
43012

> <i_f3d_flags>
0

> <s_epik_input>
W0NIM11jMVtjSF1bY0hdW2NIXWMobjEpW05IXUMoPU8pW05IXVtDSDJdW0NASF0oW0NIXShbQ0gzXSlbQ0gzXSlOMltDSDJdW0NIMl1OKFtDSDNdKVtDSDJdW0NIMl0y

> <s_epik_cmdline>
J2VwaWtfcHl0aG9uJywgJy1waCcsICc3LjAnLCAnLXRuJywgJzgnLCAnLW1hJywgJzIwMCcsICctbWV0YWxfYmluZGluZycsICctaW1hZScsICc8aW5maWxlLm1hZT4nLCAnLW9tYWUnLCAnPG91dGZpbGUubWFlPic=

> <r_epik_Ionization_Penalty>
0.201855

> <r_epik_Ionization_Penalty_Charging>
0.20006

> <r_epik_Ionization_Penalty_Neutral>
0.00179462

> <r_epik_State_Penalty>
1.43207

> <r_epik_Charging_Adjusted_Penalty>
1.63213

> <i_epik_Tot_Q>
1

> <i_epik_Tot_abs_Q>
1

> <r_epik_Metal_State_Penalty>
1.43208

> <b_epik_Metal_Only>
0

> <s_lp_Force_Field>
OPLS_2005

> <r_lp_Energy>
33.4642

> <b_lp_Chiralities_Consistent>
1

> <s_lp_Variant>
AV-unprocessed.smi:2270-3

> <Gold.Version>
5.8.1

> <Gold.Id.Protein>
6NUR|6NUR_protein|mol2

> <Gold.PLP.Fitness>
40.2184

> <Gold.PLP.PLP>
-35.2268

> <Gold.PLP.part.hbond>
-1.3785

> <Gold.PLP.part.metal>
0.0000

> <Gold.PLP.part.buried>
-2.1134

> <Gold.PLP.part.nonpolar>
-31.2685

> <Gold.PLP.part.repulsive>
0.3537

> <Gold.PLP.ligand.clash>
0.0000

> <Gold.PLP.ligand.torsion>
0.6735

> <Gold.PLP.Chemscore.Hbond>
2.0000

> <Gold.PLP.Chemscore.CHOScore>
0.0000

> <Gold.PLP.Chemscore.Metal>
0.0000

> <Gold.Chemscore.Hbonds>
donor molecule, donor type, donor heavy atom, donor atom, acceptor molecule, acceptor atom, score
      L1  H    16    53       P1  7948  2.00

> <Gold.PLP.Chemscore.Internal.Correction>
0.3385

> <Gold.Rescore>
     Score         DG    S(hbond)    S(metal)    S(lipo)     H(rot)  DE(clash)    DE(int)     intcor
     14.21     -16.33       1.00        0.00      99.39       1.61       0.10       2.03       ----

> <Gold.Chemscore.Fitness>
14.2063

> <Gold.Chemscore.DG>
-16.3341

> <Gold.Chemscore.ZeroCoef>
-5.4800

> <Gold.Chemscore.Hbond>
0.9998

> <Gold.Chemscore.Metal>
0.0000

> <Gold.Chemscore.Lipo>
99.3917

> <Gold.Chemscore.Internal_Hbond>
0.0000

> <Gold.Chemscore.DEClash>
0.1027

> <Gold.Chemscore.DEInternal>
2.0251

> <Gold.Chemscore.Rot>
1.6070

> <Gold.Chemscore.Internal.Correction>
   9.000000E+99

> <Gold.Chemscore.Hbonds>
donor molecule, donor type, donor heavy atom, donor atom, acceptor molecule, acceptor atom, score
      L1  H    16    53       P1  7948  1.00

> <Gold.Chemscore.Hbond.Weighted>
-3.3393

> <Gold.Chemscore.Metal.Weighted>
-0.0000

> <Gold.Chemscore.Lipo.Weighted>
-11.6288

> <Gold.Chemscore.Internal_Hbond.Weighted>
0.0000

> <Gold.Chemscore.DEClash.Weighted>
0.1027

> <Gold.Chemscore.DEInternal.Weighted>
2.0251

> <Gold.Chemscore.Rot.Weighted>
4.1140

> <Gold.Chemscore.Internal.Correction.Weighted>
   9.000000E+99

> <Gold.Protein.RotatedTorsions>
[ 6907 6896 6895 6894 ] final  -95.73 input  -60.11 | X-H torsion
[ 7974 7965 7964 7962 ] final -176.72 input  175.53 | X-H torsion
[ 8008 7997 7996 7995 ] final  -87.58 input   59.86 | X-H torsion
[ 10167 10162 10161 10158 ] final -176.46 input  -65.29 | X-H torsion
[ 10718 10713 10712 10709 ] final   66.50 input   66.30 | X-H torsion
[ 10763 10752 10751 10750 ] final    6.40 input  -60.55 | X-H torsion
[ 11005 11000 10999 10996 ] final -109.85 input  -57.11 | X-H torsion

> <Gold.Protein.ActiveResidues>
 VAL166  LYS551  ARG553  GLY616  TRP617  ASP618  TYR619  PRO620  LYS621  CYS622 
 ASP623  PHE694  ASN695  SER759  ASP760  ASP761  ALA762  ILE779  LEU786  VAL792 
 PHE793  MET794  SER795  GLU796  ALA797  LYS798  CYS799  TRP800  GLU811  SER814 

> <Gold.Protein.RotatedAtoms>
  150.6971  134.1612  159.4176 H   0  0  0  0  0  0  0  0  0  0  0  0  # atno 6907 bound_to 6896
  151.9593  135.0129  160.0556 H   0  0  0  0  0  0  0  0  0  0  0  0  # atno 6908 bound_to 6896
  152.1941  133.4759  159.5060 H   0  0  0  0  0  0  0  0  0  0  0  0  # atno 6909 bound_to 6896
  144.7127  140.1128  143.6410 H   0  0  0  0  0  0  0  0  0  0  0  0  # atno 7974 bound_to 7965
  154.6649  140.0564  157.0102 H   0  0  0  0  0  0  0  0  0  0  0  0  # atno 8008 bound_to 7997
  155.1174  140.3244  155.4487 H   0  0  0  0  0  0  0  0  0  0  0  0  # atno 8009 bound_to 7997
  156.2633  140.2003  156.6297 H   0  0  0  0  0  0  0  0  0  0  0  0  # atno 8010 bound_to 7997
  139.5528  144.2065  152.1108 H   0  0  0  0  0  0  0  0  0  0  0  0  # atno 10167 bound_to 10162
  157.6173  130.9271  150.0117 H   0  0  0  0  0  0  0  0  0  0  0  0  # atno 10718 bound_to 10713
  153.2482  135.6911  153.7708 H   0  0  0  0  0  0  0  0  0  0  0  0  # atno 10763 bound_to 10752
  153.6812  135.3328  155.3179 H   0  0  0  0  0  0  0  0  0  0  0  0  # atno 10764 bound_to 10752
  154.8383  135.4523  154.1429 H   0  0  0  0  0  0  0  0  0  0  0  0  # atno 10765 bound_to 10752
  141.0825  133.9196  157.2258 H   0  0  0  0  0  0  0  0  0  0  0  0  # atno 11005 bound_to 11000
  145.9440  139.2688  143.1252 LP  0  0  0  0  0  0  0  0  0  0  0  0  # atno 17320 bound_to 7965
  145.9394  140.8991  143.0315 LP  0  0  0  0  0  0  0  0  0  0  0  0  # atno 17321 bound_to 7965
  140.1563  144.5067  150.6658 LP  0  0  0  0  0  0  0  0  0  0  0  0  # atno 17342 bound_to 10162
  140.6795  143.2320  151.5421 LP  0  0  0  0  0  0  0  0  0  0  0  0  # atno 17343 bound_to 10162
  156.1300  130.3643  149.9746 LP  0  0  0  0  0  0  0  0  0  0  0  0  # atno 17370 bound_to 10713
  156.7809  130.9221  151.3646 LP  0  0  0  0  0  0  0  0  0  0  0  0  # atno 17371 bound_to 10713
  139.9640  135.0147  156.9337 LP  0  0  0  0  0  0  0  0  0  0  0  0  # atno 17394 bound_to 11000
  140.5437  134.0695  155.7349 LP  0  0  0  0  0  0  0  0  0  0  0  0  # atno 17395 bound_to 11000

$$$$
