AV-unprocessed.smi:2237|AV-procd|sdf|9050|dock1
  -GOLD-   2272012253D 1   1.00000     0.00000
 Structure written by MMmdl.
 54 56  0  0  0  0  0  0  0  0  2 V2000
  153.5893  141.3858  160.3409 C   0  0  0  0  0  0  0  0  0  0  0  0
  152.7842  142.5348  159.7712 C   0  0  0  0  0  0  0  0  0  0  0  0
  152.8570  143.8230  160.3367 C   0  0  0  0  0  0  0  0  0  0  0  0
  152.0843  144.8455  159.7580 C   0  0  0  0  0  0  0  0  0  0  0  0
  151.2766  144.5405  158.6455 C   0  0  0  0  0  0  0  0  0  0  0  0
  151.2593  143.2209  158.1400 C   0  0  0  0  0  0  0  0  0  0  0  0
  150.4134  143.0172  157.0177 N   0  0  0  0  0  0  0  0  0  0  0  0
  150.1375  141.8641  156.3831 C   0  0  0  0  0  0  0  0  0  0  0  0
  150.5872  140.7583  156.6859 O   0  0  0  0  0  0  0  0  0  0  0  0
  149.2920  142.0634  155.3615 N   0  0  0  0  0  0  0  0  0  0  0  0
  148.7725  141.0181  154.4849 C   0  0  0  0  0  0  0  0  0  0  0  0
  147.5036  141.4801  153.7596 C   0  0  0  0  0  0  0  0  0  0  0  0
  146.8899  140.3341  152.9370 C   0  0  0  0  0  0  0  0  0  0  0  0
  146.5404  139.1752  153.7775 N   0  0  0  0  0  0  0  0  0  0  0  0
  145.8794  138.1172  152.9793 C   0  0  2  0  0  0  0  0  0  0  0  0
  145.9388  136.7450  153.7057 C   0  0  0  0  0  0  0  0  0  0  0  0
  145.3740  135.5951  152.8567 C   0  0  0  0  0  0  0  0  0  0  0  0
  146.0749  135.4983  151.5576 N   0  3  1  0  0  0  0  0  0  0  0  0
  145.6511  134.3193  150.7722 C   0  0  0  0  0  0  0  0  0  0  0  0
  145.9560  136.7593  150.7931 C   0  0  0  0  0  0  0  0  0  0  0  0
  146.5379  137.9422  151.5832 C   0  0  0  0  0  0  0  0  0  0  0  0
  147.7753  138.6921  154.4198 C   0  0  0  0  0  0  0  0  0  0  0  0
  148.4246  139.7720  155.3025 C   0  0  0  0  0  0  0  0  0  0  0  0
  152.0089  142.2418  158.7050 N   0  0  0  0  0  0  0  0  0  0  0  0
  154.2013  141.7103  161.1830 H   0  0  0  0  0  0  0  0  0  0  0  0
  154.2507  140.9717  159.5792 H   0  0  0  0  0  0  0  0  0  0  0  0
  152.9256  140.5933  160.6875 H   0  0  0  0  0  0  0  0  0  0  0  0
  153.4871  144.0251  161.1904 H   0  0  0  0  0  0  0  0  0  0  0  0
  152.1096  145.8476  160.1601 H   0  0  0  0  0  0  0  0  0  0  0  0
  150.6765  145.3146  158.1894 H   0  0  0  0  0  0  0  0  0  0  0  0
  149.9602  143.8451  156.6605 H   0  0  0  0  0  0  0  0  0  0  0  0
  148.9750  143.0049  155.1826 H   0  0  0  0  0  0  0  0  0  0  0  0
  149.5343  140.7508  153.7496 H   0  0  0  0  0  0  0  0  0  0  0  0
  146.7697  141.8447  154.4801 H   0  0  0  0  0  0  0  0  0  0  0  0
  147.7321  142.3185  153.1008 H   0  0  0  0  0  0  0  0  0  0  0  0
  146.0109  140.7497  152.4515 H   0  0  0  0  0  0  0  0  0  0  0  0
  147.5766  140.0277  152.1463 H   0  0  0  0  0  0  0  0  0  0  0  0
  144.8336  138.3931  152.8335 H   0  0  0  0  0  0  0  0  0  0  0  0
  146.9697  136.5178  153.9817 H   0  0  0  0  0  0  0  0  0  0  0  0
  145.3630  136.7536  154.6292 H   0  0  0  0  0  0  0  0  0  0  0  0
  145.4839  134.6561  153.4008 H   0  0  0  0  0  0  0  0  0  0  0  0
  144.3056  135.7409  152.6886 H   0  0  0  0  0  0  0  0  0  0  0  0
  144.5945  134.3831  150.5089 H   0  0  0  0  0  0  0  0  0  0  0  0
  145.8077  133.4017  151.3401 H   0  0  0  0  0  0  0  0  0  0  0  0
  146.2295  134.2423  149.8510 H   0  0  0  0  0  0  0  0  0  0  0  0
  146.4857  136.6619  149.8446 H   0  0  0  0  0  0  0  0  0  0  0  0
  144.9078  136.9462  150.5533 H   0  0  0  0  0  0  0  0  0  0  0  0
  146.3920  138.8251  150.9627 H   0  0  0  0  0  0  0  0  0  0  0  0
  147.6152  137.8085  151.6952 H   0  0  0  0  0  0  0  0  0  0  0  0
  147.5695  137.8525  155.0796 H   0  0  0  0  0  0  0  0  0  0  0  0
  148.4808  138.3445  153.6633 H   0  0  0  0  0  0  0  0  0  0  0  0
  149.3243  139.3713  155.7708 H   0  0  0  0  0  0  0  0  0  0  0  0
  147.7431  140.0327  156.1140 H   0  0  0  0  0  0  0  0  0  0  0  0
  147.0559  135.3718  151.7631 H   0  0  0  0  0  0  0  0  0  0  0  0
  1  2  1  0  0  0  0
  1 25  1  0  0  0  0
  1 26  1  0  0  0  0
  1 27  1  0  0  0  0
  2 24  1  0  0  0  0
  2  3  2  0  0  0  0
  3  4  1  0  0  0  0
  3 28  1  0  0  0  0
  4  5  2  0  0  0  0
  4 29  1  0  0  0  0
  5  6  1  0  0  0  0
  5 30  1  0  0  0  0
  6  7  1  0  0  0  0
  6 24  2  0  0  0  0
  7  8  1  0  0  0  0
  7 31  1  0  0  0  0
  8  9  2  0  0  0  0
  8 10  1  0  0  0  0
 10 11  1  0  0  0  0
 10 32  1  0  0  0  0
 11 23  1  0  0  0  0
 11 12  1  0  0  0  0
 11 33  1  0  0  0  0
 12 13  1  0  0  0  0
 12 34  1  0  0  0  0
 12 35  1  0  0  0  0
 13 14  1  0  0  0  0
 13 36  1  0  0  0  0
 13 37  1  0  0  0  0
 14 15  1  0  0  0  0
 14 22  1  0  0  0  0
 15 21  1  0  0  0  0
 15 16  1  0  0  0  0
 15 38  1  0  0  0  0
 16 17  1  0  0  0  0
 16 39  1  0  0  0  0
 16 40  1  0  0  0  0
 17 18  1  0  0  0  0
 17 41  1  0  0  0  0
 17 42  1  0  0  0  0
 18 19  1  0  0  0  0
 18 20  1  0  0  0  0
 18 54  1  0  0  0  0
 19 43  1  0  0  0  0
 19 44  1  0  0  0  0
 19 45  1  0  0  0  0
 20 21  1  0  0  0  0
 20 46  1  0  0  0  0
 20 47  1  0  0  0  0
 21 48  1  0  0  0  0
 21 49  1  0  0  0  0
 22 23  1  0  0  0  0
 22 50  1  0  0  0  0
 22 51  1  0  0  0  0
 23 52  1  0  0  0  0
 23 53  1  0  0  0  0
M  CHG  1  18   1
M  END
> <s_m_source_file>
AV-unprocessed.smi

> <i_m_source_file_index>
2237

> <i_lp_mmshare_version>
43012

> <i_f3d_flags>
0

> <s_epik_input>
W0NIM11jMVtjSF1bY0hdW2NIXWMobjEpW05IXUMoPU8pW05IXVtDSF0yW0NIMl1bQ0gyXU4oW0NIMl1bQ0gyXTIpW0NIXTNbQ0gyXVtDSDJdTihbQ0gzXSlbQ0gyXVtDSDJdMw==

> <s_epik_cmdline>
J2VwaWtfcHl0aG9uJywgJy1waCcsICc3LjAnLCAnLXRuJywgJzgnLCAnLW1hJywgJzIwMCcsICctbWV0YWxfYmluZGluZycsICctaW1hZScsICc8aW5maWxlLm1hZT4nLCAnLW9tYWUnLCAnPG91dGZpbGUubWFlPic=

> <r_epik_Ionization_Penalty>
1.00983

> <r_epik_Ionization_Penalty_Charging>
0.000974969

> <r_epik_Ionization_Penalty_Neutral>
1.00886

> <r_epik_State_Penalty>
1.10286

> <r_epik_Charging_Adjusted_Penalty>
1.10383

> <i_epik_Tot_Q>
1

> <i_epik_Tot_abs_Q>
1

> <r_epik_Metal_State_Penalty>
1.10284

> <b_epik_Metal_Only>
0

> <s_lp_Force_Field>
OPLS_2005

> <r_lp_Energy>
33.8519

> <b_lp_Chiralities_Consistent>
1

> <s_lp_Variant>
AV-unprocessed.smi:2237-5

> <Gold.Version>
5.8.1

> <Gold.Id.Protein>
6NUR|6NUR_protein|mol2

> <Gold.PLP.Fitness>
53.7817

> <Gold.PLP.PLP>
-43.2093

> <Gold.PLP.part.hbond>
-3.0000

> <Gold.PLP.part.metal>
0.0000

> <Gold.PLP.part.buried>
-0.6075

> <Gold.PLP.part.nonpolar>
-40.7928

> <Gold.PLP.part.repulsive>
0.4602

> <Gold.PLP.ligand.clash>
0.0000

> <Gold.PLP.ligand.torsion>
0.6438

> <Gold.PLP.Chemscore.Hbond>
3.9520

> <Gold.PLP.Chemscore.CHOScore>
0.0000

> <Gold.PLP.Chemscore.Metal>
0.0000

> <Gold.Chemscore.Hbonds>
donor molecule, donor type, donor heavy atom, donor atom, acceptor molecule, acceptor atom, score
      L1  H     7    31       P1  8028  1.00
      L1  H    10    32       P1  8028  1.00
      L1  H    18    54       P1  7948  1.84

> <Gold.PLP.Chemscore.Internal.Correction>
0.0040

> <Gold.Rescore>
     Score         DG    S(hbond)    S(metal)    S(lipo)     H(rot)  DE(clash)    DE(int)     intcor
     21.40     -26.52       2.86        0.00     124.97       1.22       1.82       3.30       ----

> <Gold.Chemscore.Fitness>
21.3975

> <Gold.Chemscore.DG>
-26.5226

> <Gold.Chemscore.ZeroCoef>
-5.4800

> <Gold.Chemscore.Hbond>
2.8558

> <Gold.Chemscore.Metal>
0.0000

> <Gold.Chemscore.Lipo>
124.9747

> <Gold.Chemscore.Internal_Hbond>
0.0000

> <Gold.Chemscore.DEClash>
1.8205

> <Gold.Chemscore.DEInternal>
3.3046

> <Gold.Chemscore.Rot>
1.2179

> <Gold.Chemscore.Internal.Correction>
   9.000000E+99

> <Gold.Chemscore.Hbonds>
donor molecule, donor type, donor heavy atom, donor atom, acceptor molecule, acceptor atom, score
      L1  H     7    31       P1  8028  0.99
      L1  H    10    32       P1  8028  0.95
      L1  H    18    54       P1  7948  0.84

> <Gold.Chemscore.Hbond.Weighted>
-9.5383

> <Gold.Chemscore.Metal.Weighted>
-0.0000

> <Gold.Chemscore.Lipo.Weighted>
-14.6220

> <Gold.Chemscore.Internal_Hbond.Weighted>
0.0000

> <Gold.Chemscore.DEClash.Weighted>
1.8205

> <Gold.Chemscore.DEInternal.Weighted>
3.3046

> <Gold.Chemscore.Rot.Weighted>
3.1177

> <Gold.Chemscore.Internal.Correction.Weighted>
   9.000000E+99

> <Gold.Protein.RotatedTorsions>
[ 6907 6896 6895 6894 ] final  135.65 input  -60.11 | X-H torsion
[ 7974 7965 7964 7962 ] final  -23.31 input  175.53 | X-H torsion
[ 8008 7997 7996 7995 ] final  140.57 input   59.86 | X-H torsion
[ 10167 10162 10161 10158 ] final   98.89 input  -65.29 | X-H torsion
[ 10718 10713 10712 10709 ] final  -11.46 input   66.30 | X-H torsion
[ 10763 10752 10751 10750 ] final -144.17 input  -60.55 | X-H torsion
[ 11005 11000 10999 10996 ] final -167.38 input  -57.11 | X-H torsion

> <Gold.Protein.ActiveResidues>
 VAL166  LYS551  ARG553  GLY616  TRP617  ASP618  TYR619  PRO620  LYS621  CYS622 
 ASP623  PHE694  ASN695  SER759  ASP760  ASP761  ALA762  ILE779  LEU786  VAL792 
 PHE793  MET794  SER795  GLU796  ALA797  LYS798  CYS799  TRP800  GLU811  SER814 

> <Gold.Protein.RotatedAtoms>
  152.2981  133.5627  159.5600 H   0  0  0  0  0  0  0  0  0  0  0  0  # atno 6907 bound_to 6896
  150.7265  134.0332  159.3749 H   0  0  0  0  0  0  0  0  0  0  0  0  # atno 6908 bound_to 6896
  151.8233  135.0645  160.0478 H   0  0  0  0  0  0  0  0  0  0  0  0  # atno 6909 bound_to 6896
  146.1624  140.4598  142.8566 H   0  0  0  0  0  0  0  0  0  0  0  0  # atno 7974 bound_to 7965
  156.2977  140.2338  156.4423 H   0  0  0  0  0  0  0  0  0  0  0  0  # atno 8008 bound_to 7997
  154.8175  140.0439  157.1407 H   0  0  0  0  0  0  0  0  0  0  0  0  # atno 8009 bound_to 7997
  154.9353  140.3022  155.5151 H   0  0  0  0  0  0  0  0  0  0  0  0  # atno 8010 bound_to 7997
  139.7667  144.6936  151.0214 H   0  0  0  0  0  0  0  0  0  0  0  0  # atno 10167 bound_to 10162
  156.6587  130.4975  149.6038 H   0  0  0  0  0  0  0  0  0  0  0  0  # atno 10718 bound_to 10713
  154.8439  135.3447  154.6304 H   0  0  0  0  0  0  0  0  0  0  0  0  # atno 10763 bound_to 10752
  153.6914  135.6974  153.5093 H   0  0  0  0  0  0  0  0  0  0  0  0  # atno 10764 bound_to 10752
  153.2592  135.4328  155.0832 H   0  0  0  0  0  0  0  0  0  0  0  0  # atno 10765 bound_to 10752
  140.5539  134.5401  157.5128 H   0  0  0  0  0  0  0  0  0  0  0  0  # atno 11005 bound_to 11000
  144.8045  140.6274  143.6456 LP  0  0  0  0  0  0  0  0  0  0  0  0  # atno 17320 bound_to 7965
  145.4554  139.1518  143.3895 LP  0  0  0  0  0  0  0  0  0  0  0  0  # atno 17321 bound_to 7965
  140.7811  143.4634  151.0246 LP  0  0  0  0  0  0  0  0  0  0  0  0  # atno 17342 bound_to 10162
  139.8319  143.7679  152.3180 LP  0  0  0  0  0  0  0  0  0  0  0  0  # atno 17343 bound_to 10162
  156.2028  130.6630  151.1186 LP  0  0  0  0  0  0  0  0  0  0  0  0  # atno 17370 bound_to 10713
  157.7117  131.0731  150.6477 LP  0  0  0  0  0  0  0  0  0  0  0  0  # atno 17371 bound_to 10713
  139.9441  134.7733  156.0605 LP  0  0  0  0  0  0  0  0  0  0  0  0  # atno 17394 bound_to 11000
  141.1155  133.6629  156.3083 LP  0  0  0  0  0  0  0  0  0  0  0  0  # atno 17395 bound_to 11000

$$$$
