AV-unprocessed.smi:1269|AV-procd|sdf|5330|dock4
  -GOLD-   22720 4463D 1   1.00000     0.00000
 Structure written by MMmdl.
 44 45  0  0  0  0  0  0  0  0  2 V2000
  153.1342  138.7786  158.7165 C   0  0  0  0  0  0  0  0  0  0  0  0
  153.1668  138.7969  157.2937 O   0  0  0  0  0  0  0  0  0  0  0  0
  152.2883  137.9834  156.6079 C   0  0  0  0  0  0  0  0  0  0  0  0
  151.6737  136.9208  157.2990 C   0  0  0  0  0  0  0  0  0  0  0  0
  150.7785  136.0832  156.6068 C   0  0  0  0  0  0  0  0  0  0  0  0
  150.5195  136.3391  155.2381 C   0  0  0  0  0  0  0  0  0  0  0  0
  149.6511  135.5690  154.4151 N   0  0  0  0  0  0  0  0  0  0  0  0
  149.1231  134.3531  154.6366 C   0  0  0  0  0  0  0  0  0  0  0  0
  149.2793  133.6784  155.6532 O   0  0  0  0  0  0  0  0  0  0  0  0
  148.3905  133.9461  153.5891 N   0  0  0  0  0  0  0  0  0  0  0  0
  147.6588  132.6817  153.4893 C   0  0  1  0  0  0  0  0  0  0  0  0
  147.0008  132.5935  152.1055 C   0  0  0  0  0  0  0  0  0  0  0  0
  148.5857  131.4707  153.7466 C   0  0  0  0  0  0  0  0  0  0  0  0
  148.0334  130.1932  153.2289 N   0  3  0  0  0  0  0  0  0  0  0  0
  148.8549  129.0084  153.5756 C   0  0  0  0  0  0  0  0  0  0  0  0
  148.2615  127.7462  152.9287 C   0  0  0  0  0  0  0  0  0  0  0  0
  146.9150  127.5809  153.3573 O   0  0  0  0  0  0  0  0  0  0  0  0
  146.0932  128.6757  152.9709 C   0  0  0  0  0  0  0  0  0  0  0  0
  146.6196  129.9716  153.6111 C   0  0  0  0  0  0  0  0  0  0  0  0
  151.1906  137.4259  154.6393 C   0  0  0  0  0  0  0  0  0  0  0  0
  152.0509  138.2312  155.2965 N   0  0  0  0  0  0  0  0  0  0  0  0
  153.8829  139.4700  159.1031 H   0  0  0  0  0  0  0  0  0  0  0  0
  153.3661  137.7873  159.1086 H   0  0  0  0  0  0  0  0  0  0  0  0
  152.1627  139.0969  159.0973 H   0  0  0  0  0  0  0  0  0  0  0  0
  151.8883  136.7486  158.3434 H   0  0  0  0  0  0  0  0  0  0  0  0
  150.3252  135.2649  157.1422 H   0  0  0  0  0  0  0  0  0  0  0  0
  149.3852  136.0119  153.5475 H   0  0  0  0  0  0  0  0  0  0  0  0
  148.3159  134.5704  152.7989 H   0  0  0  0  0  0  0  0  0  0  0  0
  146.8507  132.6774  154.2221 H   0  0  0  0  0  0  0  0  0  0  0  0
  146.4160  131.6784  152.0071 H   0  0  0  0  0  0  0  0  0  0  0  0
  147.7452  132.5993  151.3083 H   0  0  0  0  0  0  0  0  0  0  0  0
  146.3255  133.4330  151.9364 H   0  0  0  0  0  0  0  0  0  0  0  0
  149.5742  131.6415  153.3177 H   0  0  0  0  0  0  0  0  0  0  0  0
  148.7352  131.3833  154.8239 H   0  0  0  0  0  0  0  0  0  0  0  0
  149.8809  129.1427  153.2342 H   0  0  0  0  0  0  0  0  0  0  0  0
  148.8919  128.8900  154.6595 H   0  0  0  0  0  0  0  0  0  0  0  0
  148.3060  127.8085  151.8400 H   0  0  0  0  0  0  0  0  0  0  0  0
  148.8362  126.8674  153.2215 H   0  0  0  0  0  0  0  0  0  0  0  0
  146.0698  128.7609  151.8831 H   0  0  0  0  0  0  0  0  0  0  0  0
  145.0710  128.4832  153.2974 H   0  0  0  0  0  0  0  0  0  0  0  0
  146.5371  129.9160  154.6977 H   0  0  0  0  0  0  0  0  0  0  0  0
  146.0094  130.8141  153.2837 H   0  0  0  0  0  0  0  0  0  0  0  0
  151.0335  137.6590  153.5962 H   0  0  0  0  0  0  0  0  0  0  0  0
  148.0430  130.2695  152.2215 H   0  0  0  0  0  0  0  0  0  0  0  0
  1  2  1  0  0  0  0
  1 22  1  0  0  0  0
  1 23  1  0  0  0  0
  1 24  1  0  0  0  0
  2  3  1  0  0  0  0
  3 21  1  0  0  0  0
  3  4  2  0  0  0  0
  4  5  1  0  0  0  0
  4 25  1  0  0  0  0
  5  6  2  0  0  0  0
  5 26  1  0  0  0  0
  6  7  1  0  0  0  0
  6 20  1  0  0  0  0
  7  8  1  0  0  0  0
  7 27  1  0  0  0  0
  8  9  2  0  0  0  0
  8 10  1  0  0  0  0
 10 11  1  0  0  0  0
 10 28  1  0  0  0  0
 11 12  1  0  0  0  0
 11 13  1  0  0  0  0
 11 29  1  0  0  0  0
 12 30  1  0  0  0  0
 12 31  1  0  0  0  0
 12 32  1  0  0  0  0
 13 14  1  0  0  0  0
 13 33  1  0  0  0  0
 13 34  1  0  0  0  0
 14 19  1  0  0  0  0
 14 15  1  0  0  0  0
 14 44  1  0  0  0  0
 15 16  1  0  0  0  0
 15 35  1  0  0  0  0
 15 36  1  0  0  0  0
 16 17  1  0  0  0  0
 16 37  1  0  0  0  0
 16 38  1  0  0  0  0
 17 18  1  0  0  0  0
 18 19  1  0  0  0  0
 18 39  1  0  0  0  0
 18 40  1  0  0  0  0
 19 41  1  0  0  0  0
 19 42  1  0  0  0  0
 20 21  2  0  0  0  0
 20 43  1  0  0  0  0
M  CHG  1  14   1
M  END
> <s_m_source_file>
AV-unprocessed.smi

> <i_m_source_file_index>
1269

> <i_lp_mmshare_version>
43012

> <i_f3d_flags>
0

> <s_epik_input>
W0NIM11PYzFbY0hdW2NIXWMoW2NIXW4xKVtOSF1DKD1PKVtOSF1bQ0BIXShbQ0gzXSlbQ0gyXU4yW0NIMl1bQ0gyXU9bQ0gyXVtDSDJdMg==

> <s_epik_cmdline>
J2VwaWtfcHl0aG9uJywgJy1waCcsICc3LjAnLCAnLXRuJywgJzgnLCAnLW1hJywgJzIwMCcsICctbWV0YWxfYmluZGluZycsICctaW1hZScsICc8aW5maWxlLm1hZT4nLCAnLW9tYWUnLCAnPG91dGZpbGUubWFlPic=

> <r_lp_tautomer_probability>
1

> <r_epik_Ionization_Penalty>
0.602604

> <r_epik_Ionization_Penalty_Charging>
0.602531

> <r_epik_Ionization_Penalty_Neutral>
7.37831e-05

> <r_epik_State_Penalty>
0.617039

> <r_epik_Charging_Adjusted_Penalty>
1.21957

> <i_epik_Tot_Q>
1

> <i_epik_Tot_abs_Q>
1

> <r_epik_Metal_State_Penalty>
0.617045

> <b_epik_Metal_Only>
0

> <s_lp_Force_Field>
OPLS_2005

> <r_lp_Energy>
25.4329

> <b_lp_Chiralities_Consistent>
1

> <s_lp_Variant>
AV-unprocessed.smi:1269-4

> <Gold.Version>
5.8.1

> <Gold.Id.Protein>
6NUR|6NUR_protein|mol2

> <Gold.PLP.Fitness>
42.9725

> <Gold.PLP.PLP>
-30.1014

> <Gold.PLP.part.hbond>
-4.5108

> <Gold.PLP.part.metal>
0.0000

> <Gold.PLP.part.buried>
-2.6570

> <Gold.PLP.part.nonpolar>
-22.8435

> <Gold.PLP.part.repulsive>
0.1519

> <Gold.PLP.ligand.clash>
0.0000

> <Gold.PLP.ligand.torsion>
0.5253

> <Gold.PLP.Chemscore.Hbond>
3.9920

> <Gold.PLP.Chemscore.CHOScore>
0.6221

> <Gold.PLP.Chemscore.Metal>
0.0000

> <Gold.Chemscore.Hbonds>
donor molecule, donor type, donor heavy atom, donor atom, acceptor molecule, acceptor atom, score
      L1  H     7    27       P1  7948  1.00
      L1  H    10    28       P1  7948  0.98
      L1  H    14    44       P1 10747  0.54
      P1  H  7997  8010       L1     2  1.00
      L1  C    20    43       P1  7949  0.58

> <Gold.PLP.Chemscore.Internal.Correction>
0.0796

> <Gold.Rescore>
     Score         DG    S(hbond)    S(metal)    S(lipo)     H(rot)  DE(clash)    DE(int)     intcor
     16.89     -19.64       3.30        0.00      65.78       1.78       0.10       2.65       ----

> <Gold.Chemscore.Fitness>
16.8853

> <Gold.Chemscore.DG>
-19.6371

> <Gold.Chemscore.ZeroCoef>
-5.4800

> <Gold.Chemscore.Hbond>
3.2987

> <Gold.Chemscore.Metal>
0.0000

> <Gold.Chemscore.Lipo>
65.7825

> <Gold.Chemscore.Internal_Hbond>
0.0000

> <Gold.Chemscore.DEClash>
0.1001

> <Gold.Chemscore.DEInternal>
2.6516

> <Gold.Chemscore.Rot>
1.7801

> <Gold.Chemscore.Internal.Correction>
   9.000000E+99

> <Gold.Chemscore.Hbonds>
donor molecule, donor type, donor heavy atom, donor atom, acceptor molecule, acceptor atom, score
      L1  H     7    27       P1  7948  0.60
      L1  H    10    28       P1  7948  0.32
      L1  H    14    44       P1 10747  0.51
      P1  H  7997  8010       L1     2  0.30

> <Gold.Chemscore.Hbond.Weighted>
-11.0175

> <Gold.Chemscore.Metal.Weighted>
-0.0000

> <Gold.Chemscore.Lipo.Weighted>
-7.6965

> <Gold.Chemscore.Internal_Hbond.Weighted>
0.0000

> <Gold.Chemscore.DEClash.Weighted>
0.1001

> <Gold.Chemscore.DEInternal.Weighted>
2.6516

> <Gold.Chemscore.Rot.Weighted>
4.5570

> <Gold.Chemscore.Internal.Correction.Weighted>
   9.000000E+99

> <Gold.Protein.RotatedTorsions>
[ 6907 6896 6895 6894 ] final  -56.35 input  -60.11 | X-H torsion
[ 7974 7965 7964 7962 ] final   59.60 input  175.53 | X-H torsion
[ 8008 7997 7996 7995 ] final   36.11 input   59.86 | X-H torsion
[ 10167 10162 10161 10158 ] final  141.38 input  -65.29 | X-H torsion
[ 10718 10713 10712 10709 ] final -149.75 input   66.30 | X-H torsion
[ 10763 10752 10751 10750 ] final   46.13 input  -60.55 | X-H torsion
[ 11005 11000 10999 10996 ] final   31.97 input  -57.11 | X-H torsion

> <Gold.Protein.ActiveResidues>
 VAL166  LYS551  ARG553  GLY616  TRP617  ASP618  TYR619  PRO620  LYS621  CYS622 
 ASP623  PHE694  ASN695  SER759  ASP760  ASP761  ALA762  ILE779  LEU786  VAL792 
 PHE793  MET794  SER795  GLU796  ALA797  LYS798  CYS799  TRP800  GLU811  SER814 

> <Gold.Protein.RotatedAtoms>
  150.8175  134.7365  159.6742 H   0  0  0  0  0  0  0  0  0  0  0  0  # atno 6907 bound_to 6896
  152.4293  134.5805  159.9956 H   0  0  0  0  0  0  0  0  0  0  0  0  # atno 6908 bound_to 6896
  151.5998  133.3320  159.3081 H   0  0  0  0  0  0  0  0  0  0  0  0  # atno 6909 bound_to 6896
  145.9054  139.3613  143.0567 H   0  0  0  0  0  0  0  0  0  0  0  0  # atno 7974 bound_to 7965
  155.1820  140.3301  155.4373 H   0  0  0  0  0  0  0  0  0  0  0  0  # atno 8008 bound_to 7997
  156.2473  140.1925  156.6868 H   0  0  0  0  0  0  0  0  0  0  0  0  # atno 8009 bound_to 7997
  154.6264  140.0588  156.9665 H   0  0  0  0  0  0  0  0  0  0  0  0  # atno 8010 bound_to 7997
  139.5022  144.6175  151.6129 H   0  0  0  0  0  0  0  0  0  0  0  0  # atno 10167 bound_to 10162
  156.4371  130.8104  151.2332 H   0  0  0  0  0  0  0  0  0  0  0  0  # atno 10718 bound_to 10713
  152.9815  135.6018  154.3549 H   0  0  0  0  0  0  0  0  0  0  0  0  # atno 10763 bound_to 10752
  154.3236  135.2769  155.2509 H   0  0  0  0  0  0  0  0  0  0  0  0  # atno 10764 bound_to 10752
  154.4665  135.5953  153.6347 H   0  0  0  0  0  0  0  0  0  0  0  0  # atno 10765 bound_to 10752
  140.2783  134.3002  155.7808 H   0  0  0  0  0  0  0  0  0  0  0  0  # atno 11005 bound_to 11000
  145.8739  140.9403  143.0636 LP  0  0  0  0  0  0  0  0  0  0  0  0  # atno 17320 bound_to 7965
  144.6739  140.0690  143.7473 LP  0  0  0  0  0  0  0  0  0  0  0  0  # atno 17321 bound_to 7965
  140.5868  143.9850  150.6300 LP  0  0  0  0  0  0  0  0  0  0  0  0  # atno 17342 bound_to 10162
  140.3018  143.3256  152.0964 LP  0  0  0  0  0  0  0  0  0  0  0  0  # atno 17343 bound_to 10162
  157.7507  131.0180  150.3607 LP  0  0  0  0  0  0  0  0  0  0  0  0  # atno 17370 bound_to 10713
  156.3957  130.3906  149.6996 LP  0  0  0  0  0  0  0  0  0  0  0  0  # atno 17371 bound_to 10713
  141.2167  133.7509  156.9441 LP  0  0  0  0  0  0  0  0  0  0  0  0  # atno 17394 bound_to 11000
  140.1307  134.9357  157.2333 LP  0  0  0  0  0  0  0  0  0  0  0  0  # atno 17395 bound_to 11000

$$$$
