AV-unprocessed.smi:2743|AV-procd|sdf|10567|dock2
  -GOLD-   2272015 23D 1   1.00000     0.00000
 Structure written by MMmdl.
 39 40  0  0  0  0  0  0  0  0  2 V2000
  153.8187  135.3620  157.2770 N   0  0  0  0  0  0  0  0  0  0  0  0
  153.7097  136.2689  157.9878 C   0  0  0  0  0  0  0  0  0  0  0  0
  153.5688  137.4193  158.8940 C   0  0  0  0  0  0  0  0  0  0  0  0
  152.1179  137.8792  158.9891 C   0  0  0  0  0  0  0  0  0  0  0  0
  151.2455  137.0924  159.3556 O   0  0  0  0  0  0  0  0  0  0  0  0
  151.8715  139.1471  158.6235 N   0  0  0  0  0  0  0  0  0  0  0  0
  150.5510  139.7685  158.5191 C   0  0  0  0  0  0  0  0  0  0  0  0
  150.4251  140.7131  157.2851 C   0  0  0  0  0  0  0  0  0  0  0  0
  150.3103  139.8461  156.0093 C   0  0  0  0  0  0  0  0  0  0  0  0
  151.4097  139.0537  155.5904 C   0  0  0  0  0  0  0  0  0  0  0  0
  151.3245  138.2926  154.4078 C   0  0  0  0  0  0  0  0  0  0  0  0
  150.1960  138.3213  153.6705 N   0  3  0  0  0  0  0  0  0  0  0  0
  149.1216  139.0594  154.0160 C   0  0  0  0  0  0  0  0  0  0  0  0
  149.1504  139.8396  155.1893 C   0  0  0  0  0  0  0  0  0  0  0  0
  149.1454  141.5926  157.4146 C   0  0  0  0  0  0  0  0  0  0  0  0
  149.2010  142.6372  158.5449 C   0  0  0  0  0  0  0  0  0  0  0  0
  150.4267  143.5464  158.4112 C   0  0  0  0  0  0  0  0  0  0  0  0
  151.7129  142.7168  158.3489 C   0  0  0  0  0  0  0  0  0  0  0  0
  151.6508  141.6790  157.2136 C   0  0  0  0  0  0  0  0  0  0  0  0
  153.9382  137.1306  159.8787 H   0  0  0  0  0  0  0  0  0  0  0  0
  154.2000  138.2301  158.5291 H   0  0  0  0  0  0  0  0  0  0  0  0
  152.6587  139.7174  158.3491 H   0  0  0  0  0  0  0  0  0  0  0  0
  149.7740  139.0030  158.4885 H   0  0  0  0  0  0  0  0  0  0  0  0
  150.3780  140.3069  159.4493 H   0  0  0  0  0  0  0  0  0  0  0  0
  152.3302  139.0361  156.1543 H   0  0  0  0  0  0  0  0  0  0  0  0
  152.1241  137.6732  154.0282 H   0  0  0  0  0  0  0  0  0  0  0  0
  148.2770  139.0115  153.3439 H   0  0  0  0  0  0  0  0  0  0  0  0
  148.2779  140.4291  155.4225 H   0  0  0  0  0  0  0  0  0  0  0  0
  148.9825  142.1212  156.4740 H   0  0  0  0  0  0  0  0  0  0  0  0
  148.2599  140.9763  157.5679 H   0  0  0  0  0  0  0  0  0  0  0  0
  148.2946  143.2430  158.5272 H   0  0  0  0  0  0  0  0  0  0  0  0
  149.2118  142.1423  159.5160 H   0  0  0  0  0  0  0  0  0  0  0  0
  150.3372  144.1523  157.5084 H   0  0  0  0  0  0  0  0  0  0  0  0
  150.4699  144.2428  159.2490 H   0  0  0  0  0  0  0  0  0  0  0  0
  152.5654  143.3786  158.1929 H   0  0  0  0  0  0  0  0  0  0  0  0
  151.8866  142.2257  159.3062 H   0  0  0  0  0  0  0  0  0  0  0  0
  152.5884  141.1224  157.2009 H   0  0  0  0  0  0  0  0  0  0  0  0
  151.6139  142.2345  156.2753 H   0  0  0  0  0  0  0  0  0  0  0  0
  150.1554  137.7670  152.8147 H   0  0  0  0  0  0  0  0  0  0  0  0
  1  2  3  0  0  0  0
  2  3  1  0  0  0  0
  3  4  1  0  0  0  0
  3 20  1  0  0  0  0
  3 21  1  0  0  0  0
  4  5  2  0  0  0  0
  4  6  1  0  0  0  0
  6  7  1  0  0  0  0
  6 22  1  0  0  0  0
  7  8  1  0  0  0  0
  7 23  1  0  0  0  0
  7 24  1  0  0  0  0
  8 19  1  0  0  0  0
  8  9  1  0  0  0  0
  8 15  1  0  0  0  0
  9 14  1  0  0  0  0
  9 10  2  0  0  0  0
 10 11  1  0  0  0  0
 10 25  1  0  0  0  0
 11 12  2  0  0  0  0
 11 26  1  0  0  0  0
 12 13  1  0  0  0  0
 12 39  1  0  0  0  0
 13 14  2  0  0  0  0
 13 27  1  0  0  0  0
 14 28  1  0  0  0  0
 15 16  1  0  0  0  0
 15 29  1  0  0  0  0
 15 30  1  0  0  0  0
 16 17  1  0  0  0  0
 16 31  1  0  0  0  0
 16 32  1  0  0  0  0
 17 18  1  0  0  0  0
 17 33  1  0  0  0  0
 17 34  1  0  0  0  0
 18 19  1  0  0  0  0
 18 35  1  0  0  0  0
 18 36  1  0  0  0  0
 19 37  1  0  0  0  0
 19 38  1  0  0  0  0
M  CHG  1  12   1
M  END
> <s_m_source_file>
AV-unprocessed.smi

> <i_m_source_file_index>
2743

> <i_lp_mmshare_version>
43012

> <i_f3d_flags>
0

> <s_epik_input>
TiNDW0NIMl1DKD1PKVtOSF1bQ0gyXUMxKFtDSDJdW0NIMl1bQ0gyXVtDSDJdW0NIMl0xKWMyW2NIXVtjSF1uW2NIXVtjSF0y

> <s_epik_cmdline>
J2VwaWtfcHl0aG9uJywgJy1waCcsICc3LjAnLCAnLXRuJywgJzgnLCAnLW1hJywgJzIwMCcsICctbWV0YWxfYmluZGluZycsICctaW1hZScsICc8aW5maWxlLm1hZT4nLCAnLW9tYWUnLCAnPG91dGZpbGUubWFlPic=

> <r_epik_Ionization_Penalty>
1.44483

> <r_epik_Ionization_Penalty_Charging>
1.44483

> <r_epik_Ionization_Penalty_Neutral>
8.95364e-07

> <r_epik_State_Penalty>
1.53054

> <r_epik_Charging_Adjusted_Penalty>
2.97537

> <i_epik_Tot_Q>
1

> <i_epik_Tot_abs_Q>
1

> <r_epik_Metal_State_Penalty>
1.58148

> <b_epik_Metal_Only>
0

> <s_lp_Force_Field>
OPLS_2005

> <r_lp_Energy>
24.9332

> <b_lp_Chiralities_Consistent>
1

> <s_lp_Variant>
AV-unprocessed.smi:2743-2

> <Gold.Version>
5.8.1

> <Gold.Id.Protein>
6NUR|6NUR_protein|mol2

> <Gold.PLP.Fitness>
36.8666

> <Gold.PLP.PLP>
-25.5740

> <Gold.PLP.part.hbond>
-3.8742

> <Gold.PLP.part.metal>
0.0000

> <Gold.PLP.part.buried>
-5.5981

> <Gold.PLP.part.nonpolar>
-17.5229

> <Gold.PLP.part.repulsive>
0.1545

> <Gold.PLP.ligand.clash>
0.0000

> <Gold.PLP.ligand.torsion>
0.3509

> <Gold.PLP.Chemscore.Hbond>
3.9840

> <Gold.PLP.Chemscore.CHOScore>
0.0000

> <Gold.PLP.Chemscore.Metal>
0.0000

> <Gold.Chemscore.Hbonds>
donor molecule, donor type, donor heavy atom, donor atom, acceptor molecule, acceptor atom, score
      L1  H    12    39       P1  7948  1.01
      P1  H  6896  6907       L1     5  1.00
      P1  H 10752 10764       L1     1  1.00

> <Gold.PLP.Chemscore.Internal.Correction>
0.0423

> <Gold.Rescore>
     Score         DG    S(hbond)    S(metal)    S(lipo)     H(rot)  DE(clash)    DE(int)     intcor
     18.18     -18.85       2.91        0.00      71.69       1.85       0.24       0.43       ----

> <Gold.Chemscore.Fitness>
18.1762

> <Gold.Chemscore.DG>
-18.8467

> <Gold.Chemscore.ZeroCoef>
-5.4800

> <Gold.Chemscore.Hbond>
2.9124

> <Gold.Chemscore.Metal>
0.0000

> <Gold.Chemscore.Lipo>
71.6931

> <Gold.Chemscore.Internal_Hbond>
0.0000

> <Gold.Chemscore.DEClash>
0.2431

> <Gold.Chemscore.DEInternal>
0.4274

> <Gold.Chemscore.Rot>
1.8550

> <Gold.Chemscore.Internal.Correction>
   9.000000E+99

> <Gold.Chemscore.Hbonds>
donor molecule, donor type, donor heavy atom, donor atom, acceptor molecule, acceptor atom, score
      L1  H    12    39       P1  7948  0.06
      P1  H  6896  6907       L1     5  0.93
      P1  H 10752 10764       L1     1  1.00

> <Gold.Chemscore.Hbond.Weighted>
-9.7274

> <Gold.Chemscore.Metal.Weighted>
-0.0000

> <Gold.Chemscore.Lipo.Weighted>
-8.3881

> <Gold.Chemscore.Internal_Hbond.Weighted>
0.0000

> <Gold.Chemscore.DEClash.Weighted>
0.2431

> <Gold.Chemscore.DEInternal.Weighted>
0.4274

> <Gold.Chemscore.Rot.Weighted>
4.7488

> <Gold.Chemscore.Internal.Correction.Weighted>
   9.000000E+99

> <Gold.Protein.RotatedTorsions>
[ 6907 6896 6895 6894 ] final  -17.36 input  -60.11 | X-H torsion
[ 7974 7965 7964 7962 ] final  118.37 input  175.53 | X-H torsion
[ 8008 7997 7996 7995 ] final   75.12 input   59.86 | X-H torsion
[ 10167 10162 10161 10158 ] final  -36.74 input  -65.29 | X-H torsion
[ 10718 10713 10712 10709 ] final  -54.30 input   66.30 | X-H torsion
[ 10763 10752 10751 10750 ] final    8.14 input  -60.55 | X-H torsion
[ 11005 11000 10999 10996 ] final  128.75 input  -57.11 | X-H torsion

> <Gold.Protein.ActiveResidues>
 VAL166  LYS551  ARG553  GLY616  TRP617  ASP618  TYR619  PRO620  LYS621  CYS622 
 ASP623  PHE694  ASN695  SER759  ASP760  ASP761  ALA762  ILE779  LEU786  VAL792 
 PHE793  MET794  SER795  GLU796  ALA797  LYS798  CYS799  TRP800  GLU811  SER814 

> <Gold.Protein.RotatedAtoms>
  151.2946  135.0751  159.9216 H   0  0  0  0  0  0  0  0  0  0  0  0  # atno 6907 bound_to 6896
  152.5310  133.9897  159.7855 H   0  0  0  0  0  0  0  0  0  0  0  0  # atno 6908 bound_to 6896
  151.0173  133.5858  159.2706 H   0  0  0  0  0  0  0  0  0  0  0  0  # atno 6909 bound_to 6896
  145.1560  139.3182  143.4542 H   0  0  0  0  0  0  0  0  0  0  0  0  # atno 7974 bound_to 7965
  155.8083  140.3474  155.5443 H   0  0  0  0  0  0  0  0  0  0  0  0  # atno 8008 bound_to 7997
  155.8467  140.0950  157.1721 H   0  0  0  0  0  0  0  0  0  0  0  0  # atno 8009 bound_to 7997
  154.4006  140.1384  156.3782 H   0  0  0  0  0  0  0  0  0  0  0  0  # atno 8010 bound_to 7997
  140.7135  143.3388  151.2403 H   0  0  0  0  0  0  0  0  0  0  0  0  # atno 10167 bound_to 10162
  156.1462  130.4152  150.0020 H   0  0  0  0  0  0  0  0  0  0  0  0  # atno 10718 bound_to 10713
  153.2284  135.6889  153.7918 H   0  0  0  0  0  0  0  0  0  0  0  0  # atno 10763 bound_to 10752
  153.7092  135.3285  155.3243 H   0  0  0  0  0  0  0  0  0  0  0  0  # atno 10764 bound_to 10752
  154.8302  135.4586  154.1160 H   0  0  0  0  0  0  0  0  0  0  0  0  # atno 10765 bound_to 10752
  139.9578  134.9609  156.9048 H   0  0  0  0  0  0  0  0  0  0  0  0  # atno 11005 bound_to 11000
  146.3488  140.1652  142.8590 LP  0  0  0  0  0  0  0  0  0  0  0  0  # atno 17320 bound_to 7965
  145.0381  140.8923  143.5069 LP  0  0  0  0  0  0  0  0  0  0  0  0  # atno 17321 bound_to 7965
  139.6890  143.9724  152.2849 LP  0  0  0  0  0  0  0  0  0  0  0  0  # atno 17342 bound_to 10162
  139.9379  144.6700  150.8296 LP  0  0  0  0  0  0  0  0  0  0  0  0  # atno 17343 bound_to 10162
  156.7891  130.9249  151.3646 LP  0  0  0  0  0  0  0  0  0  0  0  0  # atno 17370 bound_to 10713
  157.6619  130.8973  149.9847 LP  0  0  0  0  0  0  0  0  0  0  0  0  # atno 17371 bound_to 10713
  140.5570  134.0572  155.7387 LP  0  0  0  0  0  0  0  0  0  0  0  0  # atno 17394 bound_to 11000
  141.1251  133.9396  157.2651 LP  0  0  0  0  0  0  0  0  0  0  0  0  # atno 17395 bound_to 11000

$$$$
