AV-unprocessed.smi:542|AV-procd|sdf|2873|dock2
  -GOLD-   2262023363D 1   1.00000     0.00000
 Structure written by MMmdl.
 46 48  0  0  0  0  0  0  0  0  1 V2000
  153.4535  137.8341  159.1817 C   0  0  0  0  0  0  0  0  0  0  0  0
  153.4371  138.3856  157.8768 O   0  0  0  0  0  0  0  0  0  0  0  0
  152.1908  138.9783  157.5547 C   0  0  0  0  0  0  0  0  0  0  0  0
  152.2956  139.6211  156.1619 C   0  0  0  0  0  0  0  0  0  0  0  0
  151.1112  140.4031  155.8203 N   0  0  0  0  0  0  0  0  0  0  0  0
  150.7480  141.6576  156.2216 C   0  0  0  0  0  0  0  0  0  0  0  0
  151.4999  142.4402  157.1098 N   0  0  0  0  0  0  0  0  0  0  0  0
  151.9790  143.8118  156.9183 C   0  0  0  0  0  0  0  0  0  0  0  0
  151.6246  144.7211  158.1096 C   0  0  0  0  0  0  0  0  0  0  0  0
  152.2156  144.1650  159.4151 C   0  0  0  0  0  0  0  0  0  0  0  0
  151.8084  145.0051  160.6336 C   0  0  0  0  0  0  0  0  0  0  0  0
  151.7991  142.6931  159.5658 C   0  0  0  0  0  0  0  0  0  0  0  0
  152.1509  141.8900  158.3013 C   0  0  0  0  0  0  0  0  0  0  0  0
  149.6157  142.1012  155.6640 N   0  0  0  0  0  0  0  0  0  0  0  0
  149.2172  141.0487  154.8587 C   0  0  0  0  0  0  0  0  0  0  0  0
  150.1027  140.0253  154.9300 C   0  0  0  0  0  0  0  0  0  0  0  0
  149.9380  138.7919  154.1477 C   0  0  0  0  0  0  0  0  0  0  0  0
  150.7373  137.8587  154.1736 O   0  0  0  0  0  0  0  0  0  0  0  0
  148.8137  138.7883  153.3910 N   0  0  0  0  0  0  0  0  0  0  0  0
  147.8775  139.7804  153.2851 C   0  0  0  0  0  0  0  0  0  0  0  0
  146.8993  139.6202  152.5559 O   0  0  0  0  0  0  0  0  0  0  0  0
  148.0808  140.9269  154.0121 N   0  0  0  0  0  0  0  0  0  0  0  0
  147.1446  142.0517  153.9620 C   0  0  0  0  0  0  0  0  0  0  0  0
  148.6485  137.9585  152.8401 H   0  0  0  0  0  0  0  0  0  0  0  0
  154.4290  137.3900  159.3794 H   0  0  0  0  0  0  0  0  0  0  0  0
  152.6999  137.0529  159.2894 H   0  0  0  0  0  0  0  0  0  0  0  0
  153.2737  138.6012  159.9363 H   0  0  0  0  0  0  0  0  0  0  0  0
  151.4072  138.2206  157.5689 H   0  0  0  0  0  0  0  0  0  0  0  0
  151.9255  139.7195  158.3085 H   0  0  0  0  0  0  0  0  0  0  0  0
  153.1825  140.2448  156.0871 H   0  0  0  0  0  0  0  0  0  0  0  0
  152.4331  138.8498  155.4043 H   0  0  0  0  0  0  0  0  0  0  0  0
  153.0620  143.7860  156.7899 H   0  0  0  0  0  0  0  0  0  0  0  0
  151.5927  144.2352  155.9964 H   0  0  0  0  0  0  0  0  0  0  0  0
  152.0017  145.7279  157.9286 H   0  0  0  0  0  0  0  0  0  0  0  0
  150.5417  144.8095  158.2018 H   0  0  0  0  0  0  0  0  0  0  0  0
  153.3032  144.2001  159.3347 H   0  0  0  0  0  0  0  0  0  0  0  0
  150.7264  145.0088  160.7694 H   0  0  0  0  0  0  0  0  0  0  0  0
  152.1337  146.0399  160.5229 H   0  0  0  0  0  0  0  0  0  0  0  0
  152.2575  144.6141  161.5470 H   0  0  0  0  0  0  0  0  0  0  0  0
  152.2931  142.2510  160.4318 H   0  0  0  0  0  0  0  0  0  0  0  0
  150.7260  142.6252  159.7519 H   0  0  0  0  0  0  0  0  0  0  0  0
  151.8482  140.8528  158.4477 H   0  0  0  0  0  0  0  0  0  0  0  0
  153.2311  141.8747  158.1493 H   0  0  0  0  0  0  0  0  0  0  0  0
  146.3660  141.9466  153.2057 H   0  0  0  0  0  0  0  0  0  0  0  0
  147.6808  142.9762  153.7439 H   0  0  0  0  0  0  0  0  0  0  0  0
  146.6541  142.1691  154.9287 H   0  0  0  0  0  0  0  0  0  0  0  0
  1  2  1  0  0  0  0
  1 25  1  0  0  0  0
  1 26  1  0  0  0  0
  1 27  1  0  0  0  0
  2  3  1  0  0  0  0
  3  4  1  0  0  0  0
  3 28  1  0  0  0  0
  3 29  1  0  0  0  0
  4  5  1  0  0  0  0
  4 30  1  0  0  0  0
  4 31  1  0  0  0  0
  5 16  1  0  0  0  0
  5  6  1  0  0  0  0
  6  7  1  0  0  0  0
  6 14  2  0  0  0  0
  7 13  1  0  0  0  0
  7  8  1  0  0  0  0
  8  9  1  0  0  0  0
  8 32  1  0  0  0  0
  8 33  1  0  0  0  0
  9 10  1  0  0  0  0
  9 34  1  0  0  0  0
  9 35  1  0  0  0  0
 10 11  1  0  0  0  0
 10 12  1  0  0  0  0
 10 36  1  0  0  0  0
 11 37  1  0  0  0  0
 11 38  1  0  0  0  0
 11 39  1  0  0  0  0
 12 13  1  0  0  0  0
 12 40  1  0  0  0  0
 12 41  1  0  0  0  0
 13 42  1  0  0  0  0
 13 43  1  0  0  0  0
 14 15  1  0  0  0  0
 15 22  1  0  0  0  0
 15 16  2  0  0  0  0
 16 17  1  0  0  0  0
 17 18  2  0  0  0  0
 17 19  1  0  0  0  0
 19 24  1  0  0  0  0
 19 20  1  0  0  0  0
 20 21  2  0  0  0  0
 20 22  1  0  0  0  0
 22 23  1  0  0  0  0
 23 44  1  0  0  0  0
 23 45  1  0  0  0  0
 23 46  1  0  0  0  0
M  END
> <s_m_source_file>
AV-unprocessed.smi

> <i_m_source_file_index>
542

> <i_lp_mmshare_version>
43012

> <i_f3d_flags>
0

> <s_epik_input>
W0NIM11uMWMoPU8pW25IXWMoPU8pYyhjMTIpbihbQ0gyXVtDSDJdT1tDSDNdKWMobjIpTjNbQ0gyXVtDSDJdW0NIXShbQ0gzXSlbQ0gyXVtDSDJdMw==

> <s_epik_cmdline>
J2VwaWtfcHl0aG9uJywgJy1waCcsICc3LjAnLCAnLXRuJywgJzgnLCAnLW1hJywgJzIwMCcsICctbWV0YWxfYmluZGluZycsICctaW1hZScsICc8aW5maWxlLm1hZT4nLCAnLW9tYWUnLCAnPG91dGZpbGUubWFlPic=

> <r_lp_tautomer_probability>
1

> <r_epik_Ionization_Penalty>
0.000855395

> <r_epik_Ionization_Penalty_Charging>
0.000124032

> <r_epik_Ionization_Penalty_Neutral>
0.000731363

> <r_epik_State_Penalty>
-0

> <r_epik_Charging_Adjusted_Penalty>
0.000124032

> <i_epik_Tot_Q>
0

> <i_epik_Tot_abs_Q>
0

> <r_epik_Metal_State_Penalty>
0.0946135

> <b_epik_Metal_Only>
0

> <s_lp_Force_Field>
OPLS_2005

> <r_lp_Energy>
39.151

> <b_lp_Chiralities_Consistent>
1

> <s_lp_Variant>
AV-unprocessed.smi:542-1

> <Gold.Version>
5.8.1

> <Gold.Id.Protein>
6NUR|6NUR_protein|mol2

> <Gold.PLP.Fitness>
49.0369

> <Gold.PLP.PLP>
-45.0097

> <Gold.PLP.part.hbond>
-3.0000

> <Gold.PLP.part.metal>
0.0000

> <Gold.PLP.part.buried>
-3.6227

> <Gold.PLP.part.nonpolar>
-40.5254

> <Gold.PLP.part.repulsive>
3.0331

> <Gold.PLP.ligand.clash>
0.0000

> <Gold.PLP.ligand.torsion>
1.0222

> <Gold.PLP.Chemscore.Hbond>
1.9920

> <Gold.PLP.Chemscore.CHOScore>
0.0000

> <Gold.PLP.Chemscore.Metal>
0.0000

> <Gold.Chemscore.Hbonds>
donor molecule, donor type, donor heavy atom, donor atom, acceptor molecule, acceptor atom, score
      L1  H    19    24       P1  7948  1.00
      P1  H  7997  8010       L1     2  0.54

> <Gold.PLP.Chemscore.Internal.Correction>
0.0956

> <Gold.Rescore>
     Score         DG    S(hbond)    S(metal)    S(lipo)     H(rot)  DE(clash)    DE(int)     intcor
     14.72     -17.42       1.51        0.00      90.68       1.46       0.57       2.13       ----

> <Gold.Chemscore.Fitness>
14.7234

> <Gold.Chemscore.DG>
-17.4170

> <Gold.Chemscore.ZeroCoef>
-5.4800

> <Gold.Chemscore.Hbond>
1.5134

> <Gold.Chemscore.Metal>
0.0000

> <Gold.Chemscore.Lipo>
90.6756

> <Gold.Chemscore.Internal_Hbond>
0.0000

> <Gold.Chemscore.DEClash>
0.5664

> <Gold.Chemscore.DEInternal>
2.1272

> <Gold.Chemscore.Rot>
1.4557

> <Gold.Chemscore.Internal.Correction>
   9.000000E+99

> <Gold.Chemscore.Hbonds>
donor molecule, donor type, donor heavy atom, donor atom, acceptor molecule, acceptor atom, score
      L1  H    19    24       P1  7948  0.97
      P1  H  7997  8010       L1     2  0.12

> <Gold.Chemscore.Hbond.Weighted>
-5.0547

> <Gold.Chemscore.Metal.Weighted>
-0.0000

> <Gold.Chemscore.Lipo.Weighted>
-10.6090

> <Gold.Chemscore.Internal_Hbond.Weighted>
0.0000

> <Gold.Chemscore.DEClash.Weighted>
0.5664

> <Gold.Chemscore.DEInternal.Weighted>
2.1272

> <Gold.Chemscore.Rot.Weighted>
3.7267

> <Gold.Chemscore.Internal.Correction.Weighted>
   9.000000E+99

> <Gold.Protein.RotatedTorsions>
[ 6907 6896 6895 6894 ] final -168.60 input  -60.11 | X-H torsion
[ 7974 7965 7964 7962 ] final   73.44 input  175.53 | X-H torsion
[ 8008 7997 7996 7995 ] final   21.65 input   59.86 | X-H torsion
[ 10167 10162 10161 10158 ] final  157.30 input  -65.29 | X-H torsion
[ 10718 10713 10712 10709 ] final  -46.28 input   66.30 | X-H torsion
[ 10763 10752 10751 10750 ] final -134.07 input  -60.55 | X-H torsion
[ 11005 11000 10999 10996 ] final -141.07 input  -57.11 | X-H torsion

> <Gold.Protein.ActiveResidues>
 VAL166  LYS551  ARG553  GLY616  TRP617  ASP618  TYR619  PRO620  LYS621  CYS622 
 ASP623  PHE694  ASN695  SER759  ASP760  ASP761  ALA762  ILE779  LEU786  VAL792 
 PHE793  MET794  SER795  GLU796  ALA797  LYS798  CYS799  TRP800  GLU811  SER814 

> <Gold.Protein.RotatedAtoms>
  151.4782  133.3553  159.2833 H   0  0  0  0  0  0  0  0  0  0  0  0  # atno 6907 bound_to 6896
  150.8915  134.8321  159.7307 H   0  0  0  0  0  0  0  0  0  0  0  0  # atno 6908 bound_to 6896
  152.4826  134.4692  159.9682 H   0  0  0  0  0  0  0  0  0  0  0  0  # atno 6909 bound_to 6896
  145.7408  139.2720  143.1487 H   0  0  0  0  0  0  0  0  0  0  0  0  # atno 7974 bound_to 7965
  154.9538  140.3069  155.5062 H   0  0  0  0  0  0  0  0  0  0  0  0  # atno 8008 bound_to 7997
  156.2984  140.2314  156.4556 H   0  0  0  0  0  0  0  0  0  0  0  0  # atno 8009 bound_to 7997
  154.8029  140.0433  157.1275 H   0  0  0  0  0  0  0  0  0  0  0  0  # atno 8010 bound_to 7997
  139.4823  144.4930  151.8280 H   0  0  0  0  0  0  0  0  0  0  0  0  # atno 10167 bound_to 10162
  156.2199  130.4165  149.9006 H   0  0  0  0  0  0  0  0  0  0  0  0  # atno 10718 bound_to 10713
  154.8724  135.3746  154.4676 H   0  0  0  0  0  0  0  0  0  0  0  0  # atno 10763 bound_to 10752
  153.5339  135.7027  153.5674 H   0  0  0  0  0  0  0  0  0  0  0  0  # atno 10764 bound_to 10752
  153.3867  135.3983  155.1859 H   0  0  0  0  0  0  0  0  0  0  0  0  # atno 10765 bound_to 10752
  140.8360  134.2459  157.4833 H   0  0  0  0  0  0  0  0  0  0  0  0  # atno 11005 bound_to 11000
  146.0450  140.8127  142.9810 LP  0  0  0  0  0  0  0  0  0  0  0  0  # atno 17320 bound_to 7965
  144.6871  140.2967  143.7270 LP  0  0  0  0  0  0  0  0  0  0  0  0  # atno 17321 bound_to 7965
  140.4416  144.1978  150.5891 LP  0  0  0  0  0  0  0  0  0  0  0  0  # atno 17342 bound_to 10162
  140.4677  143.2424  151.9132 LP  0  0  0  0  0  0  0  0  0  0  0  0  # atno 17343 bound_to 10162
  156.6656  130.8799  151.3554 LP  0  0  0  0  0  0  0  0  0  0  0  0  # atno 17370 bound_to 10713
  157.7082  130.9409  150.1001 LP  0  0  0  0  0  0  0  0  0  0  0  0  # atno 17371 bound_to 10713
  139.8704  134.9611  156.4385 LP  0  0  0  0  0  0  0  0  0  0  0  0  # atno 17394 bound_to 11000
  140.8946  133.7823  155.9611 LP  0  0  0  0  0  0  0  0  0  0  0  0  # atno 17395 bound_to 11000

$$$$
