AV-unprocessed.smi:1537|AV-procd|sdf|6190|dock3
  -GOLD-   22720 6353D 1   1.00000     0.00000
 Structure written by MMmdl.
 43 43  0  0  0  0  0  0  0  0  1 V2000
  151.1857  141.0062  158.6439 C   0  0  0  0  0  0  0  0  0  0  0  0
  151.3215  141.7628  157.3181 C   0  0  0  0  0  0  0  0  0  0  0  0
  150.7631  140.9998  156.1642 C   0  0  0  0  0  0  0  0  0  0  0  0
  151.1832  139.7814  155.8137 N   0  0  0  0  0  0  0  0  0  0  0  0
  150.5363  139.2949  154.6724 C   0  0  0  0  0  0  0  0  0  0  0  0
  150.8853  137.9378  154.1252 C   0  0  0  0  0  0  0  0  0  0  0  0
  150.4142  136.8038  155.0455 C   0  0  0  0  0  0  0  0  0  0  0  0
  150.6632  136.8557  156.2499 O   0  0  0  0  0  0  0  0  0  0  0  0
  149.7194  135.7989  154.4849 N   0  0  0  0  0  0  0  0  0  0  0  0
  149.1635  134.6497  155.1953 C   0  0  2  0  0  0  0  0  0  0  0  0
  150.0475  133.4305  154.8842 C   0  0  0  0  0  0  0  0  0  0  0  0
  147.7437  134.3435  154.6927 C   0  0  0  0  0  0  0  0  0  0  0  0
  147.0373  133.5243  155.2825 O   0  0  0  0  0  0  0  0  0  0  0  0
  147.3451  135.0327  153.6086 N   0  0  0  0  0  0  0  0  0  0  0  0
  146.0557  134.9697  152.9102 C   0  0  0  0  0  0  0  0  0  0  0  0
  146.1717  133.8566  151.8544 C   0  0  0  0  0  0  0  0  0  0  0  0
  145.7561  136.3053  152.1971 C   0  0  0  0  0  0  0  0  0  0  0  0
  144.9216  134.6114  153.8937 C   0  0  0  0  0  0  0  0  0  0  0  0
  149.6113  140.1723  154.1615 C   0  0  0  0  0  0  0  0  0  0  0  0
  149.5337  141.6473  155.0845 S   0  0  0  0  0  0  0  0  0  0  0  0
  151.6046  141.5856  159.4668 H   0  0  0  0  0  0  0  0  0  0  0  0
  151.7104  140.0512  158.6073 H   0  0  0  0  0  0  0  0  0  0  0  0
  150.1393  140.8053  158.8762 H   0  0  0  0  0  0  0  0  0  0  0  0
  150.8125  142.7252  157.3840 H   0  0  0  0  0  0  0  0  0  0  0  0
  152.3716  141.9778  157.1187 H   0  0  0  0  0  0  0  0  0  0  0  0
  150.4417  137.8033  153.1378 H   0  0  0  0  0  0  0  0  0  0  0  0
  151.9635  137.8441  153.9919 H   0  0  0  0  0  0  0  0  0  0  0  0
  149.5528  135.8402  153.4899 H   0  0  0  0  0  0  0  0  0  0  0  0
  149.1565  134.8352  156.2715 H   0  0  0  0  0  0  0  0  0  0  0  0
  149.6812  132.5353  155.3885 H   0  0  0  0  0  0  0  0  0  0  0  0
  151.0707  133.5967  155.2232 H   0  0  0  0  0  0  0  0  0  0  0  0
  150.0864  133.2182  153.8146 H   0  0  0  0  0  0  0  0  0  0  0  0
  148.0176  135.6757  153.2164 H   0  0  0  0  0  0  0  0  0  0  0  0
  145.2441  133.7452  151.2915 H   0  0  0  0  0  0  0  0  0  0  0  0
  146.3928  132.8923  152.3141 H   0  0  0  0  0  0  0  0  0  0  0  0
  146.9655  134.0689  151.1373 H   0  0  0  0  0  0  0  0  0  0  0  0
  146.5682  136.5881  151.5263 H   0  0  0  0  0  0  0  0  0  0  0  0
  145.6102  137.1240  152.9018 H   0  0  0  0  0  0  0  0  0  0  0  0
  144.8472  136.2350  151.5987 H   0  0  0  0  0  0  0  0  0  0  0  0
  143.9766  134.4724  153.3677 H   0  0  0  0  0  0  0  0  0  0  0  0
  144.7601  135.3920  154.6372 H   0  0  0  0  0  0  0  0  0  0  0  0
  145.1380  133.6859  154.4287 H   0  0  0  0  0  0  0  0  0  0  0  0
  148.9803  140.0444  153.2945 H   0  0  0  0  0  0  0  0  0  0  0  0
  1  2  1  0  0  0  0
  1 21  1  0  0  0  0
  1 22  1  0  0  0  0
  1 23  1  0  0  0  0
  2  3  1  0  0  0  0
  2 24  1  0  0  0  0
  2 25  1  0  0  0  0
  3 20  1  0  0  0  0
  3  4  2  0  0  0  0
  4  5  1  0  0  0  0
  5  6  1  0  0  0  0
  5 19  2  0  0  0  0
  6  7  1  0  0  0  0
  6 26  1  0  0  0  0
  6 27  1  0  0  0  0
  7  8  2  0  0  0  0
  7  9  1  0  0  0  0
  9 10  1  0  0  0  0
  9 28  1  0  0  0  0
 10 11  1  0  0  0  0
 10 12  1  0  0  0  0
 10 29  1  0  0  0  0
 11 30  1  0  0  0  0
 11 31  1  0  0  0  0
 11 32  1  0  0  0  0
 12 13  2  0  0  0  0
 12 14  1  0  0  0  0
 14 15  1  0  0  0  0
 14 33  1  0  0  0  0
 15 16  1  0  0  0  0
 15 17  1  0  0  0  0
 15 18  1  0  0  0  0
 16 34  1  0  0  0  0
 16 35  1  0  0  0  0
 16 36  1  0  0  0  0
 17 37  1  0  0  0  0
 17 38  1  0  0  0  0
 17 39  1  0  0  0  0
 18 40  1  0  0  0  0
 18 41  1  0  0  0  0
 18 42  1  0  0  0  0
 19 20  1  0  0  0  0
 19 43  1  0  0  0  0
M  END
> <s_m_source_file>
AV-unprocessed.smi

> <i_m_source_file_index>
1537

> <i_lp_mmshare_version>
43012

> <i_f3d_flags>
0

> <s_epik_input>
W0NIM11bQ0gyXWMxbmMoW2NIXXMxKVtDSDJdQyg9TylbTkhdW0NASF0oW0NIM10pQyg9TylbTkhdQyhbQ0gzXSkoW0NIM10pW0NIM10=

> <s_epik_cmdline>
J2VwaWtfcHl0aG9uJywgJy1waCcsICc3LjAnLCAnLXRuJywgJzgnLCAnLW1hJywgJzIwMCcsICctbWV0YWxfYmluZGluZycsICctaW1hZScsICc8aW5maWxlLm1hZT4nLCAnLW9tYWUnLCAnPG91dGZpbGUubWFlPic=

> <r_lp_tautomer_probability>
1

> <r_epik_Ionization_Penalty>
4.05444e-05

> <r_epik_Ionization_Penalty_Charging>
0

> <r_epik_Ionization_Penalty_Neutral>
4.05444e-05

> <r_epik_State_Penalty>
-0

> <r_epik_Charging_Adjusted_Penalty>
0

> <i_epik_Tot_Q>
0

> <i_epik_Tot_abs_Q>
0

> <r_epik_Metal_State_Penalty>
-0

> <b_epik_Metal_Only>
0

> <s_lp_Force_Field>
OPLS_2005

> <r_lp_Energy>
-1.93446

> <b_lp_Chiralities_Consistent>
1

> <s_lp_Variant>
AV-unprocessed.smi:1537-1

> <Gold.Version>
5.8.1

> <Gold.Id.Protein>
6NUR|6NUR_protein|mol2

> <Gold.PLP.Fitness>
36.4204

> <Gold.PLP.PLP>
-29.9985

> <Gold.PLP.part.hbond>
-2.1204

> <Gold.PLP.part.metal>
0.0000

> <Gold.PLP.part.buried>
-0.5906

> <Gold.PLP.part.nonpolar>
-26.7914

> <Gold.PLP.part.repulsive>
0.0835

> <Gold.PLP.ligand.clash>
0.0000

> <Gold.PLP.ligand.torsion>
1.1685

> <Gold.PLP.Chemscore.Hbond>
1.9920

> <Gold.PLP.Chemscore.CHOScore>
0.8870

> <Gold.PLP.Chemscore.Metal>
0.0000

> <Gold.Chemscore.Hbonds>
donor molecule, donor type, donor heavy atom, donor atom, acceptor molecule, acceptor atom, score
      L1  H     9    28       P1  7948  1.00
      L1  H    14    33       P1  7948  0.98
      L1  C    19    43       P1  7957  0.95

> <Gold.PLP.Chemscore.Internal.Correction>
0.1219

> <Gold.Rescore>
     Score         DG    S(hbond)    S(metal)    S(lipo)     H(rot)  DE(clash)    DE(int)     intcor
     12.34     -15.04       1.71        0.00      73.84       1.88       0.05       2.65       ----

> <Gold.Chemscore.Fitness>
12.3405

> <Gold.Chemscore.DG>
-15.0401

> <Gold.Chemscore.ZeroCoef>
-5.4800

> <Gold.Chemscore.Hbond>
1.7141

> <Gold.Chemscore.Metal>
0.0000

> <Gold.Chemscore.Lipo>
73.8383

> <Gold.Chemscore.Internal_Hbond>
0.0000

> <Gold.Chemscore.DEClash>
0.0516

> <Gold.Chemscore.DEInternal>
2.6480

> <Gold.Chemscore.Rot>
1.8766

> <Gold.Chemscore.Internal.Correction>
   9.000000E+99

> <Gold.Chemscore.Hbonds>
donor molecule, donor type, donor heavy atom, donor atom, acceptor molecule, acceptor atom, score
      L1  H     9    28       P1  7948  0.26
      L1  H    14    33       P1  7948  0.93

> <Gold.Chemscore.Hbond.Weighted>
-5.7252

> <Gold.Chemscore.Metal.Weighted>
-0.0000

> <Gold.Chemscore.Lipo.Weighted>
-8.6391

> <Gold.Chemscore.Internal_Hbond.Weighted>
0.0000

> <Gold.Chemscore.DEClash.Weighted>
0.0516

> <Gold.Chemscore.DEInternal.Weighted>
2.6480

> <Gold.Chemscore.Rot.Weighted>
4.8042

> <Gold.Chemscore.Internal.Correction.Weighted>
   9.000000E+99

> <Gold.Protein.RotatedTorsions>
[ 6907 6896 6895 6894 ] final  172.13 input  -60.11 | X-H torsion
[ 7974 7965 7964 7962 ] final  122.25 input  175.53 | X-H torsion
[ 8008 7997 7996 7995 ] final  -54.65 input   59.86 | X-H torsion
[ 10167 10162 10161 10158 ] final  106.06 input  -65.29 | X-H torsion
[ 10718 10713 10712 10709 ] final  -47.90 input   66.30 | X-H torsion
[ 10763 10752 10751 10750 ] final  137.88 input  -60.55 | X-H torsion
[ 11005 11000 10999 10996 ] final   65.19 input  -57.11 | X-H torsion

> <Gold.Protein.ActiveResidues>
 VAL166  LYS551  ARG553  GLY616  TRP617  ASP618  TYR619  PRO620  LYS621  CYS622 
 ASP623  PHE694  ASN695  SER759  ASP760  ASP761  ALA762  ILE779  LEU786  VAL792 
 PHE793  MET794  SER795  GLU796  ALA797  LYS798  CYS799  TRP800  GLU811  SER814 

> <Gold.Protein.RotatedAtoms>
  151.7892  133.3357  159.3493 H   0  0  0  0  0  0  0  0  0  0  0  0  # atno 6907 bound_to 6896
  150.7398  134.5858  159.5971 H   0  0  0  0  0  0  0  0  0  0  0  0  # atno 6908 bound_to 6896
  152.3222  134.7367  160.0362 H   0  0  0  0  0  0  0  0  0  0  0  0  # atno 6909 bound_to 6896
  145.1098  139.3460  143.4769 H   0  0  0  0  0  0  0  0  0  0  0  0  # atno 7974 bound_to 7965
  154.4169  140.1171  156.5350 H   0  0  0  0  0  0  0  0  0  0  0  0  # atno 8008 bound_to 7997
  155.6567  140.3496  155.4748 H   0  0  0  0  0  0  0  0  0  0  0  0  # atno 8009 bound_to 7997
  155.9748  140.1148  157.0770 H   0  0  0  0  0  0  0  0  0  0  0  0  # atno 8010 bound_to 7997
  139.7040  144.7089  151.1137 H   0  0  0  0  0  0  0  0  0  0  0  0  # atno 10167 bound_to 10162
  156.2039  130.4157  149.9204 H   0  0  0  0  0  0  0  0  0  0  0  0  # atno 10718 bound_to 10713
  153.8803  135.3045  155.3445 H   0  0  0  0  0  0  0  0  0  0  0  0  # atno 10763 bound_to 10752
  154.7764  135.4859  153.9757 H   0  0  0  0  0  0  0  0  0  0  0  0  # atno 10764 bound_to 10752
  153.1355  135.6813  153.9207 H   0  0  0  0  0  0  0  0  0  0  0  0  # atno 10765 bound_to 10752
  139.9910  134.6591  156.0090 H   0  0  0  0  0  0  0  0  0  0  0  0  # atno 11005 bound_to 11000
  146.3527  140.1012  142.8608 LP  0  0  0  0  0  0  0  0  0  0  0  0  # atno 17320 bound_to 7965
  145.0860  140.9253  143.4797 LP  0  0  0  0  0  0  0  0  0  0  0  0  # atno 17321 bound_to 7965
  140.7717  143.5384  150.9341 LP  0  0  0  0  0  0  0  0  0  0  0  0  # atno 17342 bound_to 10162
  139.9067  143.6770  152.3122 LP  0  0  0  0  0  0  0  0  0  0  0  0  # atno 17343 bound_to 10162
  156.6904  130.8893  151.3587 LP  0  0  0  0  0  0  0  0  0  0  0  0  # atno 17370 bound_to 10713
  157.7001  130.9324  150.0761 LP  0  0  0  0  0  0  0  0  0  0  0  0  # atno 17371 bound_to 10713
  141.1566  133.6542  156.4181 LP  0  0  0  0  0  0  0  0  0  0  0  0  # atno 17394 bound_to 11000
  140.4908  134.6577  157.5210 LP  0  0  0  0  0  0  0  0  0  0  0  0  # atno 17395 bound_to 11000

$$$$
