AV-unprocessed.smi:1933|AV-procd|sdf|7816|dock6
  -GOLD-   22720 9563D 1   1.00000     0.00000
 Structure written by MMmdl.
 47 49  0  0  0  0  0  0  0  0  1 V2000
  144.6014  136.8243  152.5305 O   0  0  0  0  0  0  0  0  0  0  0  0
  145.8057  136.5923  152.4216 C   0  0  0  0  0  0  0  0  0  0  0  0
  146.7634  137.4496  152.8025 N   0  0  0  0  0  0  0  0  0  0  0  0
  146.5382  138.7735  153.3761 C   0  0  0  0  0  0  0  0  0  0  0  0
  147.8730  139.5326  153.6035 C   0  0  1  0  0  0  0  0  0  0  0  0
  147.6765  140.8485  154.4207 C   0  0  2  0  0  0  0  0  0  0  0  0
  147.1538  140.7015  155.8534 C   0  0  0  0  0  0  0  0  0  0  0  0
  145.9907  141.6896  155.9240 C   0  0  0  0  0  0  0  0  0  0  0  0
  146.2957  142.6538  154.9306 O   0  0  0  0  0  0  0  0  0  0  0  0
  146.7913  141.9461  153.8058 C   0  0  0  0  0  0  0  0  0  0  0  0
  149.0044  138.6852  154.0341 N   0  0  0  0  0  0  0  0  0  0  0  0
  148.6673  137.7837  155.1341 C   0  0  0  0  0  0  0  0  0  0  0  0
  149.8197  136.8182  155.4540 C   0  0  0  0  0  0  0  0  0  0  0  0
  150.9905  137.5680  155.7589 O   0  0  0  0  0  0  0  0  0  0  0  0
  151.3874  138.4208  154.6903 C   0  0  0  0  0  0  0  0  0  0  0  0
  150.2469  139.3924  154.3376 C   0  0  0  0  0  0  0  0  0  0  0  0
  146.3377  135.4680  151.9103 N   0  0  0  0  0  0  0  0  0  0  0  0
  145.6603  134.3388  151.3779 C   0  0  0  0  0  0  0  0  0  0  0  0
  146.4974  133.3527  150.8081 C   0  0  0  0  0  0  0  0  0  0  0  0
  145.9230  132.1936  150.2510 C   0  0  0  0  0  0  0  0  0  0  0  0
  144.5243  132.0505  150.2774 C   0  0  0  0  0  0  0  0  0  0  0  0
  143.7635  133.0789  150.8633 C   0  0  0  0  0  0  0  0  0  0  0  0
  144.3119  134.1904  151.3981 N   0  0  0  0  0  0  0  0  0  0  0  0
  147.7254  137.1709  152.6760 H   0  0  0  0  0  0  0  0  0  0  0  0
  145.8726  139.3653  152.7466 H   0  0  0  0  0  0  0  0  0  0  0  0
  146.0100  138.6171  154.3155 H   0  0  0  0  0  0  0  0  0  0  0  0
  148.1597  139.8963  152.6156 H   0  0  0  0  0  0  0  0  0  0  0  0
  148.6649  141.3009  154.5182 H   0  0  0  0  0  0  0  0  0  0  0  0
  146.8344  139.6957  156.1240 H   0  0  0  0  0  0  0  0  0  0  0  0
  147.9333  140.9896  156.5598 H   0  0  0  0  0  0  0  0  0  0  0  0
  145.0498  141.1981  155.6729 H   0  0  0  0  0  0  0  0  0  0  0  0
  145.8851  142.1453  156.9086 H   0  0  0  0  0  0  0  0  0  0  0  0
  147.3516  142.6126  153.1502 H   0  0  0  0  0  0  0  0  0  0  0  0
  145.9567  141.5509  153.2307 H   0  0  0  0  0  0  0  0  0  0  0  0
  148.4370  138.3526  156.0346 H   0  0  0  0  0  0  0  0  0  0  0  0
  147.7743  137.2094  154.8858 H   0  0  0  0  0  0  0  0  0  0  0  0
  149.5644  136.1925  156.3092 H   0  0  0  0  0  0  0  0  0  0  0  0
  150.0118  136.1505  154.6126 H   0  0  0  0  0  0  0  0  0  0  0  0
  152.2780  138.9745  154.9874 H   0  0  0  0  0  0  0  0  0  0  0  0
  151.6604  137.8193  153.8217 H   0  0  0  0  0  0  0  0  0  0  0  0
  150.5694  139.9773  153.4806 H   0  0  0  0  0  0  0  0  0  0  0  0
  150.0946  140.0850  155.1657 H   0  0  0  0  0  0  0  0  0  0  0  0
  147.3453  135.4173  151.8912 H   0  0  0  0  0  0  0  0  0  0  0  0
  147.5703  133.4788  150.7959 H   0  0  0  0  0  0  0  0  0  0  0  0
  146.5456  131.4285  149.8112 H   0  0  0  0  0  0  0  0  0  0  0  0
  144.0471  131.1761  149.8602 H   0  0  0  0  0  0  0  0  0  0  0  0
  142.6867  133.0080  150.9046 H   0  0  0  0  0  0  0  0  0  0  0  0
  1  2  2  0  0  0  0
  2  3  1  0  0  0  0
  2 17  1  0  0  0  0
  3  4  1  0  0  0  0
  3 24  1  0  0  0  0
  4  5  1  0  0  0  0
  4 25  1  0  0  0  0
  4 26  1  0  0  0  0
  5  6  1  0  0  0  0
  5 11  1  0  0  0  0
  5 27  1  0  0  0  0
  6 10  1  0  0  0  0
  6  7  1  0  0  0  0
  6 28  1  0  0  0  0
  7  8  1  0  0  0  0
  7 29  1  0  0  0  0
  7 30  1  0  0  0  0
  8  9  1  0  0  0  0
  8 31  1  0  0  0  0
  8 32  1  0  0  0  0
  9 10  1  0  0  0  0
 10 33  1  0  0  0  0
 10 34  1  0  0  0  0
 11 16  1  0  0  0  0
 11 12  1  0  0  0  0
 12 13  1  0  0  0  0
 12 35  1  0  0  0  0
 12 36  1  0  0  0  0
 13 14  1  0  0  0  0
 13 37  1  0  0  0  0
 13 38  1  0  0  0  0
 14 15  1  0  0  0  0
 15 16  1  0  0  0  0
 15 39  1  0  0  0  0
 15 40  1  0  0  0  0
 16 41  1  0  0  0  0
 16 42  1  0  0  0  0
 17 18  1  0  0  0  0
 17 43  1  0  0  0  0
 18 23  1  0  0  0  0
 18 19  2  0  0  0  0
 19 20  1  0  0  0  0
 19 44  1  0  0  0  0
 20 21  2  0  0  0  0
 20 45  1  0  0  0  0
 21 22  1  0  0  0  0
 21 46  1  0  0  0  0
 22 23  2  0  0  0  0
 22 47  1  0  0  0  0
M  END
> <s_m_source_file>
AV-unprocessed.smi

> <i_m_source_file_index>
1933

> <i_lp_mmshare_version>
43012

> <i_f3d_flags>
0

> <s_epik_input>
bjFbY0hdW2NIXVtjSF1bY0hdYzFbTkhdQyg9TylbTkhdW0NIMl1bQ0BIXShbQ0BASF0yW0NIMl1bQ0gyXU9bQ0gyXTIpTjNbQ0gyXVtDSDJdT1tDSDJdW0NIMl0z

> <s_epik_cmdline>
J2VwaWtfcHl0aG9uJywgJy1waCcsICc3LjAnLCAnLXRuJywgJzgnLCAnLW1hJywgJzIwMCcsICctbWV0YWxfYmluZGluZycsICctaW1hZScsICc8aW5maWxlLm1hZT4nLCAnLW9tYWUnLCAnPG91dGZpbGUubWFlPic=

> <r_epik_Ionization_Penalty>
0.125062

> <r_epik_Ionization_Penalty_Charging>
0

> <r_epik_Ionization_Penalty_Neutral>
0.125062

> <r_epik_State_Penalty>
0.114484

> <r_epik_Charging_Adjusted_Penalty>
0.114484

> <i_epik_Tot_Q>
0

> <i_epik_Tot_abs_Q>
0

> <r_epik_Metal_State_Penalty>
0.114484

> <b_epik_Metal_Only>
0

> <s_lp_Force_Field>
OPLS_2005

> <r_lp_Energy>
56.3046

> <b_lp_Chiralities_Consistent>
1

> <s_lp_Variant>
AV-unprocessed.smi:1933-2

> <Gold.Version>
5.8.1

> <Gold.Id.Protein>
6NUR|6NUR_protein|mol2

> <Gold.PLP.Fitness>
43.5097

> <Gold.PLP.PLP>
-35.1649

> <Gold.PLP.part.hbond>
-2.0000

> <Gold.PLP.part.metal>
0.0000

> <Gold.PLP.part.buried>
-6.0048

> <Gold.PLP.part.nonpolar>
-28.5013

> <Gold.PLP.part.repulsive>
0.8794

> <Gold.PLP.ligand.clash>
0.0000

> <Gold.PLP.ligand.torsion>
0.5076

> <Gold.PLP.Chemscore.Hbond>
2.0000

> <Gold.PLP.Chemscore.CHOScore>
0.9939

> <Gold.PLP.Chemscore.Metal>
0.0000

> <Gold.Chemscore.Hbonds>
donor molecule, donor type, donor heavy atom, donor atom, acceptor molecule, acceptor atom, score
      L1  H     3    24       P1  7948  1.00
      L1  H    17    43       P1  7948  1.00
      L1  C    22    47       P1 10186  0.84

> <Gold.PLP.Chemscore.Internal.Correction>
0.3782

> <Gold.Rescore>
     Score         DG    S(hbond)    S(metal)    S(lipo)     H(rot)  DE(clash)    DE(int)     intcor
     15.91     -17.55       1.95        0.00      85.08       1.72       0.01       1.63       ----

> <Gold.Chemscore.Fitness>
15.9101

> <Gold.Chemscore.DG>
-17.5452

> <Gold.Chemscore.ZeroCoef>
-5.4800

> <Gold.Chemscore.Hbond>
1.9472

> <Gold.Chemscore.Metal>
0.0000

> <Gold.Chemscore.Lipo>
85.0838

> <Gold.Chemscore.Internal_Hbond>
0.0000

> <Gold.Chemscore.DEClash>
0.0090

> <Gold.Chemscore.DEInternal>
1.6261

> <Gold.Chemscore.Rot>
1.7161

> <Gold.Chemscore.Internal.Correction>
   9.000000E+99

> <Gold.Chemscore.Hbonds>
donor molecule, donor type, donor heavy atom, donor atom, acceptor molecule, acceptor atom, score
      L1  H     3    24       P1  7948  0.95
      L1  H    17    43       P1  7948  0.95

> <Gold.Chemscore.Hbond.Weighted>
-6.5036

> <Gold.Chemscore.Metal.Weighted>
-0.0000

> <Gold.Chemscore.Lipo.Weighted>
-9.9548

> <Gold.Chemscore.Internal_Hbond.Weighted>
0.0000

> <Gold.Chemscore.DEClash.Weighted>
0.0090

> <Gold.Chemscore.DEInternal.Weighted>
1.6261

> <Gold.Chemscore.Rot.Weighted>
4.3932

> <Gold.Chemscore.Internal.Correction.Weighted>
   9.000000E+99

> <Gold.Protein.RotatedTorsions>
[ 6907 6896 6895 6894 ] final  -33.93 input  -60.11 | X-H torsion
[ 7974 7965 7964 7962 ] final   33.63 input  175.53 | X-H torsion
[ 8008 7997 7996 7995 ] final  141.96 input   59.86 | X-H torsion
[ 10167 10162 10161 10158 ] final  149.56 input  -65.29 | X-H torsion
[ 10718 10713 10712 10709 ] final  -97.00 input   66.30 | X-H torsion
[ 10763 10752 10751 10750 ] final  127.44 input  -60.55 | X-H torsion
[ 11005 11000 10999 10996 ] final  145.83 input  -57.11 | X-H torsion

> <Gold.Protein.ActiveResidues>
 VAL166  LYS551  ARG553  GLY616  TRP617  ASP618  TYR619  PRO620  LYS621  CYS622 
 ASP623  PHE694  ASN695  SER759  ASP760  ASP761  ALA762  ILE779  LEU786  VAL792 
 PHE793  MET794  SER795  GLU796  ALA797  LYS798  CYS799  TRP800  GLU811  SER814 

> <Gold.Protein.RotatedAtoms>
  151.0592  134.9725  159.8251 H   0  0  0  0  0  0  0  0  0  0  0  0  # atno 6907 bound_to 6896
  152.5393  134.2439  159.8882 H   0  0  0  0  0  0  0  0  0  0  0  0  # atno 6908 bound_to 6896
  151.2458  133.4333  159.2643 H   0  0  0  0  0  0  0  0  0  0  0  0  # atno 6909 bound_to 6896
  146.1407  139.6372  142.9165 H   0  0  0  0  0  0  0  0  0  0  0  0  # atno 7974 bound_to 7965
  156.2957  140.2301  156.4649 H   0  0  0  0  0  0  0  0  0  0  0  0  # atno 8008 bound_to 7997
  154.7986  140.0450  157.1276 H   0  0  0  0  0  0  0  0  0  0  0  0  # atno 8009 bound_to 7997
  154.9561  140.3048  155.5056 H   0  0  0  0  0  0  0  0  0  0  0  0  # atno 8010 bound_to 7997
  139.4860  144.5592  151.7262 H   0  0  0  0  0  0  0  0  0  0  0  0  # atno 10167 bound_to 10162
  156.0074  130.5175  150.6309 H   0  0  0  0  0  0  0  0  0  0  0  0  # atno 10718 bound_to 10713
  153.7095  135.3270  155.3243 H   0  0  0  0  0  0  0  0  0  0  0  0  # atno 10763 bound_to 10752
  154.8389  135.4473  154.1329 H   0  0  0  0  0  0  0  0  0  0  0  0  # atno 10764 bound_to 10752
  153.2418  135.6972  153.7853 H   0  0  0  0  0  0  0  0  0  0  0  0  # atno 10765 bound_to 10752
  140.0744  134.9133  157.1398 H   0  0  0  0  0  0  0  0  0  0  0  0  # atno 11005 bound_to 11000
  145.5053  141.0437  143.2518 LP  0  0  0  0  0  0  0  0  0  0  0  0  # atno 17320 bound_to 7965
  144.7789  139.6568  143.7163 LP  0  0  0  0  0  0  0  0  0  0  0  0  # atno 17321 bound_to 7965
  140.5159  144.0954  150.6008 LP  0  0  0  0  0  0  0  0  0  0  0  0  # atno 17342 bound_to 10162
  140.3895  143.2760  152.0077 LP  0  0  0  0  0  0  0  0  0  0  0  0  # atno 17343 bound_to 10162
  157.4107  131.0823  151.1223 LP  0  0  0  0  0  0  0  0  0  0  0  0  # atno 17370 bound_to 10713
  157.1856  130.6329  149.5686 LP  0  0  0  0  0  0  0  0  0  0  0  0  # atno 17371 bound_to 10713
  140.3579  134.2526  155.7190 LP  0  0  0  0  0  0  0  0  0  0  0  0  # atno 17394 bound_to 11000
  141.2024  133.7939  157.0393 LP  0  0  0  0  0  0  0  0  0  0  0  0  # atno 17395 bound_to 11000

$$$$
