AV-unprocessed.smi:47|AV-procd|sdf|441|dock3
  -GOLD-   2262016313D 1   1.00000     0.00000
 Structure written by MMmdl.
 32 34  0  0  0  0  0  0  0  0  2 V2000
  146.5236  139.7108  153.0825 O   0  0  0  0  0  0  0  0  0  0  0  0
  147.3171  140.8384  153.3849 C   0  0  1  0  0  0  0  0  0  0  0  0
  146.7133  141.6847  154.5118 C   0  0  0  0  0  0  0  0  0  0  0  0
  147.8533  142.3086  155.2140 N   0  3  0  0  0  0  0  0  0  0  0  0
  149.1008  141.7093  154.6941 C   0  0  1  0  0  0  0  0  0  0  0  0
  149.9623  141.4698  155.8981 C   0  0  0  0  0  0  0  0  0  0  0  0
  150.6102  140.3371  156.1816 N   0  0  0  0  0  0  0  0  0  0  0  0
  151.2763  140.5846  157.3669 N   0  0  0  0  0  0  0  0  0  0  0  0
  150.9864  141.8477  157.7110 C   0  0  0  0  0  0  0  0  0  0  0  0
  151.4985  142.5110  158.9123 C   0  0  0  0  0  0  0  0  0  0  0  0
  151.1745  143.8617  159.1787 C   0  0  0  0  0  0  0  0  0  0  0  0
  151.6695  144.5013  160.3318 C   0  0  0  0  0  0  0  0  0  0  0  0
  152.4948  143.7985  161.2292 C   0  0  0  0  0  0  0  0  0  0  0  0
  152.8246  142.4548  160.9725 C   0  0  0  0  0  0  0  0  0  0  0  0
  152.3293  141.8138  159.8203 C   0  0  0  0  0  0  0  0  0  0  0  0
  150.1680  142.4262  156.8137 N   0  0  0  0  0  0  0  0  0  0  0  0
  148.6852  140.4472  153.9350 C   0  0  0  0  0  0  0  0  0  0  0  0
  147.4414  141.4486  152.4891 H   0  0  0  0  0  0  0  0  0  0  0  0
  149.5756  142.4231  154.0190 H   0  0  0  0  0  0  0  0  0  0  0  0
  149.8015  143.3671  156.8280 H   0  0  0  0  0  0  0  0  0  0  0  0
  145.6130  139.9646  153.1016 H   0  0  0  0  0  0  0  0  0  0  0  0
  146.0104  142.4313  154.1417 H   0  0  0  0  0  0  0  0  0  0  0  0
  146.1868  141.0538  155.2296 H   0  0  0  0  0  0  0  0  0  0  0  0
  147.8639  143.3071  155.0642 H   0  0  0  0  0  0  0  0  0  0  0  0
  150.5427  144.4210  158.5046 H   0  0  0  0  0  0  0  0  0  0  0  0
  151.4157  145.5326  160.5282 H   0  0  0  0  0  0  0  0  0  0  0  0
  152.8746  144.2896  162.1133 H   0  0  0  0  0  0  0  0  0  0  0  0
  153.4589  141.9144  161.6597 H   0  0  0  0  0  0  0  0  0  0  0  0
  152.5968  140.7826  159.6419 H   0  0  0  0  0  0  0  0  0  0  0  0
  148.5725  139.6120  154.6293 H   0  0  0  0  0  0  0  0  0  0  0  0
  149.4007  140.1515  153.1671 H   0  0  0  0  0  0  0  0  0  0  0  0
  147.7754  142.1123  156.2022 H   0  0  0  0  0  0  0  0  0  0  0  0
  1  2  1  0  0  0  0
  1 21  1  0  0  0  0
  2 18  1  0  0  0  0
  2 17  1  0  0  0  0
  2  3  1  0  0  0  0
  3  4  1  0  0  0  0
  3 22  1  0  0  0  0
  3 23  1  0  0  0  0
  4  5  1  0  0  0  0
  4 24  1  0  0  0  0
  4 32  1  0  0  0  0
  5 19  1  0  0  0  0
  5 17  1  0  0  0  0
  5  6  1  0  0  0  0
  6  7  2  0  0  0  0
  6 16  1  0  0  0  0
  7  8  1  0  0  0  0
  8  9  2  0  0  0  0
  9 16  1  0  0  0  0
  9 10  1  0  0  0  0
 10 15  1  0  0  0  0
 10 11  2  0  0  0  0
 11 12  1  0  0  0  0
 11 25  1  0  0  0  0
 12 13  2  0  0  0  0
 12 26  1  0  0  0  0
 13 14  1  0  0  0  0
 13 27  1  0  0  0  0
 14 15  2  0  0  0  0
 14 28  1  0  0  0  0
 15 29  1  0  0  0  0
 16 20  1  0  0  0  0
 17 30  1  0  0  0  0
 17 31  1  0  0  0  0
M  CHG  1   4   1
M  END
> <s_m_source_file>
AV-unprocessed.smi

> <i_m_source_file_index>
47

> <i_lp_mmshare_version>
43012

> <i_f3d_flags>
0

> <s_epik_input>
W09IXVtDQEhdMVtDSDJdW05IXVtDQEBIXShbQ0gyXTEpYzJuW25IXWMobjIpLWMzW2NIXVtjSF1bY0hdW2NIXVtjSF0z

> <s_epik_cmdline>
J2VwaWtfcHl0aG9uJywgJy1waCcsICc3LjAnLCAnLXRuJywgJzgnLCAnLW1hJywgJzIwMCcsICctbWV0YWxfYmluZGluZycsICctaW1hZScsICc8aW5maWxlLm1hZT4nLCAnLW9tYWUnLCAnPG91dGZpbGUubWFlPic=

> <r_lp_tautomer_probability>
0.0517155

> <r_epik_Ionization_Penalty>
2.45729

> <r_epik_Ionization_Penalty_Charging>
0.0688988

> <r_epik_Ionization_Penalty_Neutral>
2.3884

> <r_epik_State_Penalty>
2.69236

> <r_epik_Charging_Adjusted_Penalty>
2.76126

> <i_epik_Tot_Q>
1

> <i_epik_Tot_abs_Q>
1

> <r_epik_Metal_State_Penalty>
3.18974

> <b_epik_Metal_Only>
0

> <s_lp_Force_Field>
OPLS_2005

> <r_lp_Energy>
28.8935

> <b_lp_Chiralities_Consistent>
1

> <s_lp_Variant>
AV-unprocessed.smi:47-19

> <Gold.Version>
5.8.1

> <Gold.Id.Protein>
6NUR|6NUR_protein|mol2

> <Gold.PLP.Fitness>
47.3332

> <Gold.PLP.PLP>
-37.5889

> <Gold.PLP.part.hbond>
-3.0000

> <Gold.PLP.part.metal>
0.0000

> <Gold.PLP.part.buried>
-4.1833

> <Gold.PLP.part.nonpolar>
-31.2655

> <Gold.PLP.part.repulsive>
0.1726

> <Gold.PLP.ligand.clash>
0.0000

> <Gold.PLP.ligand.torsion>
0.3060

> <Gold.PLP.Chemscore.Hbond>
3.4480

> <Gold.PLP.Chemscore.CHOScore>
0.0000

> <Gold.PLP.Chemscore.Metal>
0.0000

> <Gold.Chemscore.Hbonds>
donor molecule, donor type, donor heavy atom, donor atom, acceptor molecule, acceptor atom, score
      L1  H     1    21       P1 10175  0.84
      L1  H     4    24       P1  8028  1.50
      L1  H    16    20       P1  8028  0.85

> <Gold.PLP.Chemscore.Internal.Correction>
0.0122

> <Gold.Rescore>
     Score         DG    S(hbond)    S(metal)    S(lipo)     H(rot)  DE(clash)    DE(int)     intcor
     20.32     -20.84       2.47        0.00      93.39       1.50       0.14       0.38       ----

> <Gold.Chemscore.Fitness>
20.3197

> <Gold.Chemscore.DG>
-20.8355

> <Gold.Chemscore.ZeroCoef>
-5.4800

> <Gold.Chemscore.Hbond>
2.4732

> <Gold.Chemscore.Metal>
0.0000

> <Gold.Chemscore.Lipo>
93.3851

> <Gold.Chemscore.Internal_Hbond>
0.0000

> <Gold.Chemscore.DEClash>
0.1376

> <Gold.Chemscore.DEInternal>
0.3782

> <Gold.Chemscore.Rot>
1.4966

> <Gold.Chemscore.Internal.Correction>
   9.000000E+99

> <Gold.Chemscore.Hbonds>
donor molecule, donor type, donor heavy atom, donor atom, acceptor molecule, acceptor atom, score
      L1  H     1    21       P1 10175  0.82
      L1  H     4    24       P1  8028  0.49
      L1  H    16    20       P1  8028  0.81

> <Gold.Chemscore.Hbond.Weighted>
-8.2606

> <Gold.Chemscore.Metal.Weighted>
-0.0000

> <Gold.Chemscore.Lipo.Weighted>
-10.9261

> <Gold.Chemscore.Internal_Hbond.Weighted>
0.0000

> <Gold.Chemscore.DEClash.Weighted>
0.1376

> <Gold.Chemscore.DEInternal.Weighted>
0.3782

> <Gold.Chemscore.Rot.Weighted>
3.8312

> <Gold.Chemscore.Internal.Correction.Weighted>
   9.000000E+99

> <Gold.Protein.RotatedTorsions>
[ 6907 6896 6895 6894 ] final  -96.76 input  -60.11 | X-H torsion
[ 7974 7965 7964 7962 ] final  -23.74 input  175.53 | X-H torsion
[ 8008 7997 7996 7995 ] final  170.66 input   59.86 | X-H torsion
[ 10167 10162 10161 10158 ] final  140.29 input  -65.29 | X-H torsion
[ 10718 10713 10712 10709 ] final  -76.65 input   66.30 | X-H torsion
[ 10763 10752 10751 10750 ] final  141.89 input  -60.55 | X-H torsion
[ 11005 11000 10999 10996 ] final   24.81 input  -57.11 | X-H torsion

> <Gold.Protein.ActiveResidues>
 VAL166  LYS551  ARG553  GLY616  TRP617  ASP618  TYR619  PRO620  LYS621  CYS622 
 ASP623  PHE694  ASN695  SER759  ASP760  ASP761  ALA762  ILE779  LEU786  VAL792 
 PHE793  MET794  SER795  GLU796  ALA797  LYS798  CYS799  TRP800  GLU811  SER814 

> <Gold.Protein.RotatedAtoms>
  150.6997  134.1454  159.4120 H   0  0  0  0  0  0  0  0  0  0  0  0  # atno 6907 bound_to 6896
  151.9437  135.0199  160.0547 H   0  0  0  0  0  0  0  0  0  0  0  0  # atno 6908 bound_to 6896
  152.2071  133.4848  159.5126 H   0  0  0  0  0  0  0  0  0  0  0  0  # atno 6909 bound_to 6896
  146.1597  140.4657  142.8576 H   0  0  0  0  0  0  0  0  0  0  0  0  # atno 7974 bound_to 7965
  156.1344  140.1532  156.9016 H   0  0  0  0  0  0  0  0  0  0  0  0  # atno 8008 bound_to 7997
  154.4935  140.0844  156.7686 H   0  0  0  0  0  0  0  0  0  0  0  0  # atno 8009 bound_to 7997
  155.4195  140.3422  155.4272 H   0  0  0  0  0  0  0  0  0  0  0  0  # atno 8010 bound_to 7997
  139.5053  144.6243  151.5975 H   0  0  0  0  0  0  0  0  0  0  0  0  # atno 10167 bound_to 10162
  156.0169  130.4471  150.3225 H   0  0  0  0  0  0  0  0  0  0  0  0  # atno 10718 bound_to 10713
  153.9468  135.2974  155.3440 H   0  0  0  0  0  0  0  0  0  0  0  0  # atno 10763 bound_to 10752
  154.7448  135.5008  153.9187 H   0  0  0  0  0  0  0  0  0  0  0  0  # atno 10764 bound_to 10752
  153.1014  135.6735  153.9773 H   0  0  0  0  0  0  0  0  0  0  0  0  # atno 10765 bound_to 10752
  140.3547  134.2191  155.7677 H   0  0  0  0  0  0  0  0  0  0  0  0  # atno 11005 bound_to 11000
  144.8011  140.6214  143.6477 LP  0  0  0  0  0  0  0  0  0  0  0  0  # atno 17320 bound_to 7965
  145.4618  139.1512  143.3862 LP  0  0  0  0  0  0  0  0  0  0  0  0  # atno 17321 bound_to 7965
  140.5955  143.9704  150.6352 LP  0  0  0  0  0  0  0  0  0  0  0  0  # atno 17342 bound_to 10162
  140.2898  143.3332  152.1073 LP  0  0  0  0  0  0  0  0  0  0  0  0  # atno 17343 bound_to 10162
  157.1325  131.0275  151.2963 LP  0  0  0  0  0  0  0  0  0  0  0  0  # atno 17370 bound_to 10713
  157.4539  130.7614  149.7175 LP  0  0  0  0  0  0  0  0  0  0  0  0  # atno 17371 bound_to 10713
  141.2002  133.7993  157.0501 LP  0  0  0  0  0  0  0  0  0  0  0  0  # atno 17394 bound_to 11000
  140.0675  134.9721  157.1411 LP  0  0  0  0  0  0  0  0  0  0  0  0  # atno 17395 bound_to 11000

$$$$
