AV-unprocessed.smi:1076|AV-procd|sdf|4700|dock8
  -GOLD-   22720 3223D 1   1.00000     0.00000
 Structure written by MMmdl.
 44 45  0  0  0  0  0  0  0  0  1 V2000
  144.5354  131.3306  150.8651 C   0  0  0  0  0  0  0  0  0  0  0  0
  144.8209  132.7452  151.2795 C   0  0  0  0  0  0  0  0  0  0  0  0
  144.7863  133.2925  152.5936 C   0  0  0  0  0  0  0  0  0  0  0  0
  145.0951  134.5785  152.6236 N   0  0  0  0  0  0  0  0  0  0  0  0
  145.3301  134.8991  151.3334 N   0  0  0  0  0  0  0  0  0  0  0  0
  145.7101  136.2568  150.9826 C   0  0  0  0  0  0  0  0  0  0  0  0
  145.7267  137.2066  152.1977 C   0  0  1  0  0  0  0  0  0  0  0  0
  144.3410  137.2670  152.8649 C   0  0  0  0  0  0  0  0  0  0  0  0
  146.7202  136.7303  153.1546 N   0  0  0  0  0  0  0  0  0  0  0  0
  146.9306  137.6813  154.2403 C   0  0  0  0  0  0  0  0  0  0  0  0
  147.7746  137.0628  155.3743 C   0  0  0  0  0  0  0  0  0  0  0  0
  149.2704  136.8713  155.0506 C   0  0  0  0  0  0  0  0  0  0  0  0
  149.7892  135.7706  155.2450 O   0  0  0  0  0  0  0  0  0  0  0  0
  149.9771  137.9206  154.5646 N   0  0  0  0  0  0  0  0  0  0  0  0
  151.3999  137.8365  154.2213 C   0  0  0  0  0  0  0  0  0  0  0  0
  152.1880  138.7546  155.1717 C   0  0  0  0  0  0  0  0  0  0  0  0
  151.6999  140.0888  155.0589 O   0  0  0  0  0  0  0  0  0  0  0  0
  150.3127  140.2018  155.3657 C   0  0  0  0  0  0  0  0  0  0  0  0
  149.4940  139.2989  154.4247 C   0  0  0  0  0  0  0  0  0  0  0  0
  145.1778  133.8101  150.5015 C   0  0  0  0  0  0  0  0  0  0  0  0
  143.6093  130.9615  151.3056 H   0  0  0  0  0  0  0  0  0  0  0  0
  145.3314  130.6540  151.1758 H   0  0  0  0  0  0  0  0  0  0  0  0
  144.4363  131.2359  149.7836 H   0  0  0  0  0  0  0  0  0  0  0  0
  144.5493  132.7942  153.5221 H   0  0  0  0  0  0  0  0  0  0  0  0
  146.6995  136.2177  150.5246 H   0  0  0  0  0  0  0  0  0  0  0  0
  145.0285  136.6253  150.2143 H   0  0  0  0  0  0  0  0  0  0  0  0
  146.0021  138.2041  151.8518 H   0  0  0  0  0  0  0  0  0  0  0  0
  143.5794  137.5752  152.1483 H   0  0  0  0  0  0  0  0  0  0  0  0
  144.3114  137.9812  153.6871 H   0  0  0  0  0  0  0  0  0  0  0  0
  144.0479  136.2931  153.2592 H   0  0  0  0  0  0  0  0  0  0  0  0
  147.5983  136.5916  152.6752 H   0  0  0  0  0  0  0  0  0  0  0  0
  147.4416  138.5604  153.8462 H   0  0  0  0  0  0  0  0  0  0  0  0
  145.9773  138.0239  154.6421 H   0  0  0  0  0  0  0  0  0  0  0  0
  147.6769  137.6942  156.2585 H   0  0  0  0  0  0  0  0  0  0  0  0
  147.3567  136.0888  155.6308 H   0  0  0  0  0  0  0  0  0  0  0  0
  151.7940  136.8212  154.2791 H   0  0  0  0  0  0  0  0  0  0  0  0
  151.5407  138.1554  153.1876 H   0  0  0  0  0  0  0  0  0  0  0  0
  152.1032  138.4110  156.2039 H   0  0  0  0  0  0  0  0  0  0  0  0
  153.2475  138.7431  154.9164 H   0  0  0  0  0  0  0  0  0  0  0  0
  150.1392  139.9344  156.4092 H   0  0  0  0  0  0  0  0  0  0  0  0
  150.0104  141.2425  155.2481 H   0  0  0  0  0  0  0  0  0  0  0  0
  149.6240  139.6202  153.3905 H   0  0  0  0  0  0  0  0  0  0  0  0
  148.4352  139.4218  154.6451 H   0  0  0  0  0  0  0  0  0  0  0  0
  145.3336  133.8829  149.4349 H   0  0  0  0  0  0  0  0  0  0  0  0
  1  2  1  0  0  0  0
  1 21  1  0  0  0  0
  1 22  1  0  0  0  0
  1 23  1  0  0  0  0
  2 20  2  0  0  0  0
  2  3  1  0  0  0  0
  3  4  2  0  0  0  0
  3 24  1  0  0  0  0
  4  5  1  0  0  0  0
  5  6  1  0  0  0  0
  5 20  1  0  0  0  0
  6  7  1  0  0  0  0
  6 25  1  0  0  0  0
  6 26  1  0  0  0  0
  7  8  1  0  0  0  0
  7  9  1  0  0  0  0
  7 27  1  0  0  0  0
  8 28  1  0  0  0  0
  8 29  1  0  0  0  0
  8 30  1  0  0  0  0
  9 10  1  0  0  0  0
  9 31  1  0  0  0  0
 10 11  1  0  0  0  0
 10 32  1  0  0  0  0
 10 33  1  0  0  0  0
 11 12  1  0  0  0  0
 11 34  1  0  0  0  0
 11 35  1  0  0  0  0
 12 13  2  0  0  0  0
 12 14  1  0  0  0  0
 14 19  1  0  0  0  0
 14 15  1  0  0  0  0
 15 16  1  0  0  0  0
 15 36  1  0  0  0  0
 15 37  1  0  0  0  0
 16 17  1  0  0  0  0
 16 38  1  0  0  0  0
 16 39  1  0  0  0  0
 17 18  1  0  0  0  0
 18 19  1  0  0  0  0
 18 40  1  0  0  0  0
 18 41  1  0  0  0  0
 19 42  1  0  0  0  0
 19 43  1  0  0  0  0
 20 44  1  0  0  0  0
M  END
> <s_m_source_file>
AV-unprocessed.smi

> <i_m_source_file_index>
1076

> <i_lp_mmshare_version>
43012

> <i_f3d_flags>
0

> <s_epik_input>
W0NIM11jMVtjSF1ubihbY0hdMSlbQ0gyXVtDQEhdKFtDSDNdKVtOSF1bQ0gyXVtDSDJdQyg9TylOMltDSDJdW0NIMl1PW0NIMl1bQ0gyXTI=

> <s_epik_cmdline>
J2VwaWtfcHl0aG9uJywgJy1waCcsICc3LjAnLCAnLXRuJywgJzgnLCAnLW1hJywgJzIwMCcsICctbWV0YWxfYmluZGluZycsICctaW1hZScsICc8aW5maWxlLm1hZT4nLCAnLW9tYWUnLCAnPG91dGZpbGUubWFlPic=

> <r_lp_tautomer_probability>
1

> <r_epik_Ionization_Penalty>
2.55707

> <r_epik_Ionization_Penalty_Charging>
0

> <r_epik_Ionization_Penalty_Neutral>
2.55707

> <r_epik_State_Penalty>
2.726

> <r_epik_Charging_Adjusted_Penalty>
2.726

> <i_epik_Tot_Q>
0

> <i_epik_Tot_abs_Q>
0

> <r_epik_Metal_State_Penalty>
2.72594

> <b_epik_Metal_Only>
0

> <s_lp_Force_Field>
OPLS_2005

> <r_lp_Energy>
22.7086

> <b_lp_Chiralities_Consistent>
1

> <s_lp_Variant>
AV-unprocessed.smi:1076-4

> <Gold.Version>
5.8.1

> <Gold.Id.Protein>
6NUR|6NUR_protein|mol2

> <Gold.PLP.Fitness>
44.9929

> <Gold.PLP.PLP>
-33.3907

> <Gold.PLP.part.hbond>
-2.0000

> <Gold.PLP.part.metal>
0.0000

> <Gold.PLP.part.buried>
-3.9046

> <Gold.PLP.part.nonpolar>
-29.0999

> <Gold.PLP.part.repulsive>
0.2615

> <Gold.PLP.ligand.clash>
0.0000

> <Gold.PLP.ligand.torsion>
0.1868

> <Gold.PLP.Chemscore.Hbond>
1.9760

> <Gold.PLP.Chemscore.CHOScore>
1.9897

> <Gold.PLP.Chemscore.Metal>
0.0000

> <Gold.Chemscore.Hbonds>
donor molecule, donor type, donor heavy atom, donor atom, acceptor molecule, acceptor atom, score
      L1  H     9    31       P1  7948  1.00
      P1  H  7989  7998       L1    17  0.88
      L1  C     3    24       P1 10957  1.00
      L1  C    20    44       P1  7921  1.00

> <Gold.PLP.Chemscore.Internal.Correction>
0.0785

> <Gold.Rescore>
     Score         DG    S(hbond)    S(metal)    S(lipo)     H(rot)  DE(clash)    DE(int)     intcor
     12.97     -15.26       1.73        0.00      76.10       1.91       0.07       2.22       ----

> <Gold.Chemscore.Fitness>
12.9652

> <Gold.Chemscore.DG>
-15.2564

> <Gold.Chemscore.ZeroCoef>
-5.4800

> <Gold.Chemscore.Hbond>
1.7252

> <Gold.Chemscore.Metal>
0.0000

> <Gold.Chemscore.Lipo>
76.0967

> <Gold.Chemscore.Internal_Hbond>
0.0000

> <Gold.Chemscore.DEClash>
0.0670

> <Gold.Chemscore.DEInternal>
2.2242

> <Gold.Chemscore.Rot>
1.9098

> <Gold.Chemscore.Internal.Correction>
   9.000000E+99

> <Gold.Chemscore.Hbonds>
donor molecule, donor type, donor heavy atom, donor atom, acceptor molecule, acceptor atom, score
      L1  H     9    31       P1  7948  0.99
      P1  H  7989  7998       L1    17  0.16

> <Gold.Chemscore.Hbond.Weighted>
-5.7622

> <Gold.Chemscore.Metal.Weighted>
-0.0000

> <Gold.Chemscore.Lipo.Weighted>
-8.9033

> <Gold.Chemscore.Internal_Hbond.Weighted>
0.0000

> <Gold.Chemscore.DEClash.Weighted>
0.0670

> <Gold.Chemscore.DEInternal.Weighted>
2.2242

> <Gold.Chemscore.Rot.Weighted>
4.8891

> <Gold.Chemscore.Internal.Correction.Weighted>
   9.000000E+99

> <Gold.Protein.RotatedTorsions>
[ 6907 6896 6895 6894 ] final  -28.24 input  -60.11 | X-H torsion
[ 7974 7965 7964 7962 ] final    5.85 input  175.53 | X-H torsion
[ 8008 7997 7996 7995 ] final  -58.00 input   59.86 | X-H torsion
[ 10167 10162 10161 10158 ] final -115.16 input  -65.29 | X-H torsion
[ 10718 10713 10712 10709 ] final  -22.02 input   66.30 | X-H torsion
[ 10763 10752 10751 10750 ] final  -54.04 input  -60.55 | X-H torsion
[ 11005 11000 10999 10996 ] final  -25.11 input  -57.11 | X-H torsion

> <Gold.Protein.ActiveResidues>
 VAL166  LYS551  ARG553  GLY616  TRP617  ASP618  TYR619  PRO620  LYS621  CYS622 
 ASP623  PHE694  ASN695  SER759  ASP760  ASP761  ALA762  ILE779  LEU786  VAL792 
 PHE793  MET794  SER795  GLU796  ALA797  LYS798  CYS799  TRP800  GLU811  SER814 

> <Gold.Protein.RotatedAtoms>
  151.1357  135.0153  159.8602 H   0  0  0  0  0  0  0  0  0  0  0  0  # atno 6907 bound_to 6896
  152.5452  134.1558  159.8547 H   0  0  0  0  0  0  0  0  0  0  0  0  # atno 6908 bound_to 6896
  151.1629  133.4788  159.2627 H   0  0  0  0  0  0  0  0  0  0  0  0  # atno 6909 bound_to 6896
  146.2438  140.0322  142.8389 H   0  0  0  0  0  0  0  0  0  0  0  0  # atno 7974 bound_to 7965
  154.4291  140.1094  156.5887 H   0  0  0  0  0  0  0  0  0  0  0  0  # atno 8008 bound_to 7997
  155.6035  140.3493  155.4582 H   0  0  0  0  0  0  0  0  0  0  0  0  # atno 8009 bound_to 7997
  156.0155  140.1228  157.0400 H   0  0  0  0  0  0  0  0  0  0  0  0  # atno 8010 bound_to 7997
  140.0931  143.4681  152.1858 H   0  0  0  0  0  0  0  0  0  0  0  0  # atno 10167 bound_to 10162
  156.5103  130.4608  149.6652 H   0  0  0  0  0  0  0  0  0  0  0  0  # atno 10718 bound_to 10713
  154.1684  135.6463  153.5003 H   0  0  0  0  0  0  0  0  0  0  0  0  # atno 10763 bound_to 10752
  153.0091  135.5377  154.6638 H   0  0  0  0  0  0  0  0  0  0  0  0  # atno 10764 bound_to 10752
  154.5971  135.2940  155.0547 H   0  0  0  0  0  0  0  0  0  0  0  0  # atno 10765 bound_to 10752
  140.8907  133.7590  156.0418 H   0  0  0  0  0  0  0  0  0  0  0  0  # atno 11005 bound_to 11000
  145.1144  140.9425  143.4637 LP  0  0  0  0  0  0  0  0  0  0  0  0  # atno 17320 bound_to 7965
  145.0543  139.3156  143.5912 LP  0  0  0  0  0  0  0  0  0  0  0  0  # atno 17321 bound_to 7965
  139.5713  144.7464  151.3883 LP  0  0  0  0  0  0  0  0  0  0  0  0  # atno 17342 bound_to 10162
  140.7018  143.7613  150.7415 LP  0  0  0  0  0  0  0  0  0  0  0  0  # atno 17343 bound_to 10162
  156.3247  130.7299  151.2218 LP  0  0  0  0  0  0  0  0  0  0  0  0  # atno 17370 bound_to 10713
  157.7451  131.0446  150.4801 LP  0  0  0  0  0  0  0  0  0  0  0  0  # atno 17371 bound_to 10713
  140.8350  134.3134  157.5335 LP  0  0  0  0  0  0  0  0  0  0  0  0  # atno 17394 bound_to 11000
  139.8729  134.9384  156.3714 LP  0  0  0  0  0  0  0  0  0  0  0  0  # atno 17395 bound_to 11000

$$$$
