AV-unprocessed.smi:276|AV-procd|sdf|2074|dock8
  -GOLD-   2262021333D 1   1.00000     0.00000
 Structure written by MMmdl.
 57 61  0  0  0  0  0  0  0  0  1 V2000
  144.6533  134.4147  162.2932 C   0  0  0  0  0  0  0  0  0  0  0  0
  145.5133  133.5257  161.6029 O   0  0  0  0  0  0  0  0  0  0  0  0
  146.2611  134.1706  160.5842 C   0  0  2  0  0  0  0  0  0  0  0  0
  147.3664  133.3082  159.9611 C   0  0  0  0  0  0  0  0  0  0  0  0
  148.2788  134.5511  159.9692 C   0  0  1  0  0  0  0  0  0  0  0  0
  148.2002  135.2845  158.6972 N   0  0  0  0  0  0  0  0  0  0  0  0
  148.4891  134.5100  157.4943 C   0  0  0  0  0  0  0  0  0  0  0  0
  148.8816  136.4503  158.6563 C   0  0  0  0  0  0  0  0  0  0  0  0
  150.1788  136.4210  159.0507 N   0  0  0  0  0  0  0  0  0  0  0  0
  150.9093  137.5397  159.0247 C   0  0  0  0  0  0  0  0  0  0  0  0
  150.5419  138.7689  158.6563 N   0  0  0  0  0  0  0  0  0  0  0  0
  149.2321  138.8033  158.2776 C   0  0  0  0  0  0  0  0  0  0  0  0
  148.3342  137.6999  158.2477 C   0  0  0  0  0  0  0  0  0  0  0  0
  147.0831  138.1189  157.8107 N   0  0  0  0  0  0  0  0  0  0  0  0
  147.2326  139.3972  157.5956 C   0  0  0  0  0  0  0  0  0  0  0  0
  148.4891  139.8930  157.8602 N   0  0  0  0  0  0  0  0  0  0  0  0
  148.9275  141.2699  157.7223 C   0  0  0  0  0  0  0  0  0  0  0  0
  150.3719  141.5049  158.2164 C   0  0  1  0  0  0  0  0  0  0  0  0
  151.2372  140.9710  157.2343 O   0  0  0  0  0  0  0  0  0  0  0  0
  150.7417  142.9861  158.4611 C   0  0  2  0  0  0  0  0  0  0  0  0
  152.2318  143.2207  158.7315 C   0  0  0  0  0  0  0  0  0  0  0  0
  152.2125  144.4934  159.5449 C   0  0  0  0  0  0  0  0  0  0  0  0
  150.9823  144.2734  160.4148 C   0  0  0  0  0  0  0  0  0  0  0  0
  150.0874  143.5003  159.6222 O   0  0  0  0  0  0  0  0  0  0  0  0
  147.3774  135.0882  161.1148 C   0  0  0  0  0  0  0  0  0  0  0  0
  147.8489  134.9531  162.5750 C   0  0  0  0  0  0  0  0  0  0  0  0
  147.0023  136.1853  162.9060 C   0  0  0  0  0  0  0  0  0  0  0  0
  147.1094  136.5723  161.4293 C   0  0  0  0  0  0  0  0  0  0  0  0
  144.1134  133.8717  163.0687 H   0  0  0  0  0  0  0  0  0  0  0  0
  143.9185  134.8590  161.6208 H   0  0  0  0  0  0  0  0  0  0  0  0
  145.2175  135.2150  162.7734 H   0  0  0  0  0  0  0  0  0  0  0  0
  145.6413  134.6740  159.8390 H   0  0  0  0  0  0  0  0  0  0  0  0
  147.7203  132.5294  160.6389 H   0  0  0  0  0  0  0  0  0  0  0  0
  147.1120  132.8913  158.9870 H   0  0  0  0  0  0  0  0  0  0  0  0
  149.2952  134.3157  160.2858 H   0  0  0  0  0  0  0  0  0  0  0  0
  148.6349  135.1504  156.6224 H   0  0  0  0  0  0  0  0  0  0  0  0
  147.6648  133.8367  157.2626 H   0  0  0  0  0  0  0  0  0  0  0  0
  149.3910  133.9116  157.6298 H   0  0  0  0  0  0  0  0  0  0  0  0
  151.9352  137.4351  159.3452 H   0  0  0  0  0  0  0  0  0  0  0  0
  146.4212  140.0188  157.2463 H   0  0  0  0  0  0  0  0  0  0  0  0
  148.8400  141.5455  156.6704 H   0  0  0  0  0  0  0  0  0  0  0  0
  148.2337  141.9085  158.2710 H   0  0  0  0  0  0  0  0  0  0  0  0
  150.5373  140.9411  159.1349 H   0  0  0  0  0  0  0  0  0  0  0  0
  151.2713  140.0330  157.3428 H   0  0  0  0  0  0  0  0  0  0  0  0
  150.4343  143.5968  157.6105 H   0  0  0  0  0  0  0  0  0  0  0  0
  152.6472  142.4077  159.3288 H   0  0  0  0  0  0  0  0  0  0  0  0
  152.8215  143.3079  157.8185 H   0  0  0  0  0  0  0  0  0  0  0  0
  153.1232  144.6485  160.1241 H   0  0  0  0  0  0  0  0  0  0  0  0
  152.0665  145.3554  158.8926 H   0  0  0  0  0  0  0  0  0  0  0  0
  151.2414  143.6968  161.3036 H   0  0  0  0  0  0  0  0  0  0  0  0
  150.5244  145.2088  160.7370 H   0  0  0  0  0  0  0  0  0  0  0  0
  147.5481  134.0385  163.0867 H   0  0  0  0  0  0  0  0  0  0  0  0
  148.9184  135.1383  162.6893 H   0  0  0  0  0  0  0  0  0  0  0  0
  145.9834  135.9324  163.2040 H   0  0  0  0  0  0  0  0  0  0  0  0
  147.4667  136.8877  163.5984 H   0  0  0  0  0  0  0  0  0  0  0  0
  147.9651  137.2248  161.2546 H   0  0  0  0  0  0  0  0  0  0  0  0
  146.1959  136.9782  160.9940 H   0  0  0  0  0  0  0  0  0  0  0  0
  1  2  1  0  0  0  0
  1 29  1  0  0  0  0
  1 30  1  0  0  0  0
  1 31  1  0  0  0  0
  2  3  1  0  0  0  0
  3 25  1  0  0  0  0
  3  4  1  0  0  0  0
  3 32  1  0  0  0  0
  4  5  1  0  0  0  0
  4 33  1  0  0  0  0
  4 34  1  0  0  0  0
  5  6  1  0  0  0  0
  5 25  1  0  0  0  0
  5 35  1  0  0  0  0
  6  7  1  0  0  0  0
  6  8  1  0  0  0  0
  7 36  1  0  0  0  0
  7 37  1  0  0  0  0
  7 38  1  0  0  0  0
  8 13  1  0  0  0  0
  8  9  2  0  0  0  0
  9 10  1  0  0  0  0
 10 11  2  0  0  0  0
 10 39  1  0  0  0  0
 11 12  1  0  0  0  0
 12 16  1  0  0  0  0
 12 13  2  0  0  0  0
 13 14  1  0  0  0  0
 14 15  2  0  0  0  0
 15 16  1  0  0  0  0
 15 40  1  0  0  0  0
 16 17  1  0  0  0  0
 17 18  1  0  0  0  0
 17 41  1  0  0  0  0
 17 42  1  0  0  0  0
 18 19  1  0  0  0  0
 18 20  1  0  0  0  0
 18 43  1  0  0  0  0
 19 44  1  0  0  0  0
 20 24  1  0  0  0  0
 20 21  1  0  0  0  0
 20 45  1  0  0  0  0
 21 22  1  0  0  0  0
 21 46  1  0  0  0  0
 21 47  1  0  0  0  0
 22 23  1  0  0  0  0
 22 48  1  0  0  0  0
 22 49  1  0  0  0  0
 23 24  1  0  0  0  0
 23 50  1  0  0  0  0
 23 51  1  0  0  0  0
 25 28  1  0  0  0  0
 25 26  1  0  0  0  0
 26 27  1  0  0  0  0
 26 52  1  0  0  0  0
 26 53  1  0  0  0  0
 27 28  1  0  0  0  0
 27 54  1  0  0  0  0
 27 55  1  0  0  0  0
 28 56  1  0  0  0  0
 28 57  1  0  0  0  0
M  END
> <s_m_source_file>
AV-unprocessed.smi

> <i_m_source_file_index>
276

> <i_lp_mmshare_version>
43012

> <i_f3d_flags>
0

> <s_epik_input>
W0NIMl0xW0NIMl1bQ0gyXUMxMltDQEhdKE9bQ0gzXSlbQ0gyXVtDQEhdMk4oW0NIM10pYyhuW2NIXW4zKWMoYzM0KW5bY0hdbjRbQ0gyXVtDQEhdKFtPSF0pW0NAQEhdNVtDSDJdW0NIMl1bQ0gyXU81

> <s_epik_cmdline>
J2VwaWtfcHl0aG9uJywgJy1waCcsICc3LjAnLCAnLXRuJywgJzgnLCAnLW1hJywgJzIwMCcsICctbWV0YWxfYmluZGluZycsICctaW1hZScsICc8aW5maWxlLm1hZT4nLCAnLW9tYWUnLCAnPG91dGZpbGUubWFlPic=

> <r_lp_tautomer_probability>
1

> <r_epik_Ionization_Penalty>
0.00204117

> <r_epik_Ionization_Penalty_Charging>
0

> <r_epik_Ionization_Penalty_Neutral>
0.00204117

> <r_epik_State_Penalty>
0.00127401

> <r_epik_Charging_Adjusted_Penalty>
0.00127401

> <i_epik_Tot_Q>
0

> <i_epik_Tot_abs_Q>
0

> <r_epik_Metal_State_Penalty>
-0

> <b_epik_Metal_Only>
0

> <s_lp_Force_Field>
OPLS_2005

> <r_lp_Energy>
56.3497

> <b_lp_Chiralities_Consistent>
1

> <s_lp_Variant>
AV-unprocessed.smi:276-5

> <Gold.Version>
5.8.1

> <Gold.Id.Protein>
6NUR|6NUR_protein|mol2

> <Gold.PLP.Fitness>
42.9215

> <Gold.PLP.PLP>
-41.1449

> <Gold.PLP.part.hbond>
-1.0000

> <Gold.PLP.part.metal>
0.0000

> <Gold.PLP.part.buried>
-6.6712

> <Gold.PLP.part.nonpolar>
-33.2441

> <Gold.PLP.part.repulsive>
0.1500

> <Gold.PLP.ligand.clash>
0.0000

> <Gold.PLP.ligand.torsion>
0.9571

> <Gold.PLP.Chemscore.Hbond>
1.0000

> <Gold.PLP.Chemscore.CHOScore>
0.0000

> <Gold.PLP.Chemscore.Metal>
0.0000

> <Gold.Chemscore.Hbonds>
donor molecule, donor type, donor heavy atom, donor atom, acceptor molecule, acceptor atom, score
      P1  H  6896  6907       L1     9  1.00

> <Gold.PLP.Chemscore.Internal.Correction>
0.6906

> <Gold.Rescore>
     Score         DG    S(hbond)    S(metal)    S(lipo)     H(rot)  DE(clash)    DE(int)     intcor
     11.77     -14.91       0.95        0.00     112.84       2.72       0.02       3.11       ----

> <Gold.Chemscore.Fitness>
11.7730

> <Gold.Chemscore.DG>
-14.9077

> <Gold.Chemscore.ZeroCoef>
-5.4800

> <Gold.Chemscore.Hbond>
0.9525

> <Gold.Chemscore.Metal>
0.0000

> <Gold.Chemscore.Lipo>
112.8405

> <Gold.Chemscore.Internal_Hbond>
0.0000

> <Gold.Chemscore.DEClash>
0.0218

> <Gold.Chemscore.DEInternal>
3.1129

> <Gold.Chemscore.Rot>
2.7172

> <Gold.Chemscore.Internal.Correction>
   9.000000E+99

> <Gold.Chemscore.Hbonds>
donor molecule, donor type, donor heavy atom, donor atom, acceptor molecule, acceptor atom, score
      P1  H  6896  6907       L1     9  0.93

> <Gold.Chemscore.Hbond.Weighted>
-3.1814

> <Gold.Chemscore.Metal.Weighted>
-0.0000

> <Gold.Chemscore.Lipo.Weighted>
-13.2023

> <Gold.Chemscore.Internal_Hbond.Weighted>
0.0000

> <Gold.Chemscore.DEClash.Weighted>
0.0218

> <Gold.Chemscore.DEInternal.Weighted>
3.1129

> <Gold.Chemscore.Rot.Weighted>
6.9560

> <Gold.Chemscore.Internal.Correction.Weighted>
   9.000000E+99

> <Gold.Protein.RotatedTorsions>
[ 6907 6896 6895 6894 ] final  -53.59 input  -60.11 | X-H torsion
[ 7974 7965 7964 7962 ] final   66.70 input  175.53 | X-H torsion
[ 8008 7997 7996 7995 ] final  -43.87 input   59.86 | X-H torsion
[ 10167 10162 10161 10158 ] final  116.28 input  -65.29 | X-H torsion
[ 10718 10713 10712 10709 ] final   72.20 input   66.30 | X-H torsion
[ 10763 10752 10751 10750 ] final -143.09 input  -60.55 | X-H torsion
[ 11005 11000 10999 10996 ] final  -12.66 input  -57.11 | X-H torsion

> <Gold.Protein.ActiveResidues>
 VAL166  LYS551  ARG553  GLY616  TRP617  ASP618  TYR619  PRO620  LYS621  CYS622 
 ASP623  PHE694  ASN695  SER759  ASP760  ASP761  ALA762  ILE779  LEU786  VAL792 
 PHE793  MET794  SER795  GLU796  ALA797  LYS798  CYS799  TRP800  GLU811  SER814 

> <Gold.Protein.RotatedAtoms>
  150.8413  134.7706  159.6934 H   0  0  0  0  0  0  0  0  0  0  0  0  # atno 6907 bound_to 6896
  152.4500  134.5411  159.9849 H   0  0  0  0  0  0  0  0  0  0  0  0  # atno 6908 bound_to 6896
  151.5550  133.3374  159.2996 H   0  0  0  0  0  0  0  0  0  0  0  0  # atno 6909 bound_to 6896
  145.8234  139.3098  143.1030 H   0  0  0  0  0  0  0  0  0  0  0  0  # atno 7974 bound_to 7965
  154.3997  140.1436  156.3590 H   0  0  0  0  0  0  0  0  0  0  0  0  # atno 8008 bound_to 7997
  155.8199  140.3470  155.5487 H   0  0  0  0  0  0  0  0  0  0  0  0  # atno 8009 bound_to 7997
  155.8299  140.0910  157.1789 H   0  0  0  0  0  0  0  0  0  0  0  0  # atno 8010 bound_to 7997
  139.6258  144.7108  151.2537 H   0  0  0  0  0  0  0  0  0  0  0  0  # atno 10167 bound_to 10162
  157.6489  130.9566  150.0895 H   0  0  0  0  0  0  0  0  0  0  0  0  # atno 10718 bound_to 10713
  154.8484  135.3478  154.6131 H   0  0  0  0  0  0  0  0  0  0  0  0  # atno 10763 bound_to 10752
  153.6740  135.6983  153.5143 H   0  0  0  0  0  0  0  0  0  0  0  0  # atno 10764 bound_to 10752
  153.2720  135.4290  155.0953 H   0  0  0  0  0  0  0  0  0  0  0  0  # atno 10765 bound_to 10752
  140.7680  133.8461  155.9182 H   0  0  0  0  0  0  0  0  0  0  0  0  # atno 11005 bound_to 11000
  145.9650  140.8806  143.0191 LP  0  0  0  0  0  0  0  0  0  0  0  0  # atno 17320 bound_to 7965
  144.6745  140.1865  143.7401 LP  0  0  0  0  0  0  0  0  0  0  0  0  # atno 17321 bound_to 7965
  140.7410  143.6571  150.8197 LP  0  0  0  0  0  0  0  0  0  0  0  0  # atno 17342 bound_to 10162
  140.0189  143.5563  152.2809 LP  0  0  0  0  0  0  0  0  0  0  0  0  # atno 17343 bound_to 10162
  156.1848  130.3652  149.8987 LP  0  0  0  0  0  0  0  0  0  0  0  0  # atno 17370 bound_to 10713
  156.6930  130.8903  151.3590 LP  0  0  0  0  0  0  0  0  0  0  0  0  # atno 17371 bound_to 10713
  140.9600  134.1668  157.4661 LP  0  0  0  0  0  0  0  0  0  0  0  0  # atno 17394 bound_to 11000
  139.8760  134.9941  156.5678 LP  0  0  0  0  0  0  0  0  0  0  0  0  # atno 17395 bound_to 11000

$$$$
