AV-unprocessed.smi:2226|AV-procd|sdf|9011|dock2
  -GOLD-   2272012213D 1   1.00000     0.00000
 Structure written by MMmdl.
 40 42  0  0  0  0  0  0  0  0  2 V2000
  147.4994  142.3365  157.7557 C   0  0  0  0  0  0  0  0  0  0  0  0
  147.5019  142.2773  156.2745 N   0  3  1  0  0  0  0  0  0  0  0  0
  148.1565  141.0779  155.6999 C   0  0  2  0  0  0  0  0  0  0  0  0
  148.4648  141.3351  154.2064 C   0  0  0  0  0  0  0  0  0  0  0  0
  147.2475  141.8051  153.3864 C   0  0  0  0  0  0  0  0  0  0  0  0
  146.3833  142.8287  154.1469 C   0  0  0  0  0  0  0  0  0  0  0  0
  146.1786  142.4872  155.6408 C   0  0  1  0  0  0  0  0  0  0  0  0
  145.2199  141.3024  155.9202 C   0  0  0  0  0  0  0  0  0  0  0  0
  145.8190  139.8827  155.7306 C   0  0  1  0  0  0  0  0  0  0  0  0
  145.4639  139.2810  154.4475 N   0  0  0  0  0  0  0  0  0  0  0  0
  145.5916  137.9881  154.1124 C   0  0  0  0  0  0  0  0  0  0  0  0
  146.0455  137.1564  154.9046 O   0  0  0  0  0  0  0  0  0  0  0  0
  145.1310  137.7895  152.8196 N   0  0  0  0  0  0  0  0  0  0  0  0
  145.3854  136.6713  152.2135 C   0  0  0  0  0  0  0  0  0  0  0  0
  145.0150  136.3022  150.9303 N   0  0  0  0  0  0  0  0  0  0  0  0
  145.4850  135.0390  150.6985 C   0  0  0  0  0  0  0  0  0  0  0  0
  146.1247  134.6286  151.7898 C   0  0  0  0  0  0  0  0  0  0  0  0
  146.0806  135.6059  152.7377 O   0  0  0  0  0  0  0  0  0  0  0  0
  147.3424  139.7928  155.9934 C   0  0  0  0  0  0  0  0  0  0  0  0
  146.9037  141.5396  158.2004 H   0  0  0  0  0  0  0  0  0  0  0  0
  147.0954  143.2899  158.0968 H   0  0  0  0  0  0  0  0  0  0  0  0
  148.5160  142.2527  158.1408 H   0  0  0  0  0  0  0  0  0  0  0  0
  149.1233  140.9625  156.1922 H   0  0  0  0  0  0  0  0  0  0  0  0
  149.2309  142.1094  154.1472 H   0  0  0  0  0  0  0  0  0  0  0  0
  148.9039  140.4480  153.7490 H   0  0  0  0  0  0  0  0  0  0  0  0
  147.5896  142.2444  152.4488 H   0  0  0  0  0  0  0  0  0  0  0  0
  146.6444  140.9567  153.0819 H   0  0  0  0  0  0  0  0  0  0  0  0
  146.8760  143.7999  154.0850 H   0  0  0  0  0  0  0  0  0  0  0  0
  145.4216  142.9514  153.6475 H   0  0  0  0  0  0  0  0  0  0  0  0
  145.7322  143.3735  156.0945 H   0  0  0  0  0  0  0  0  0  0  0  0
  144.8994  141.3806  156.9596 H   0  0  0  0  0  0  0  0  0  0  0  0
  144.3016  141.4227  155.3445 H   0  0  0  0  0  0  0  0  0  0  0  0
  145.3510  139.2397  156.4789 H   0  0  0  0  0  0  0  0  0  0  0  0
  145.0845  139.9028  153.7481 H   0  0  0  0  0  0  0  0  0  0  0  0
  144.4900  136.8355  150.2523 H   0  0  0  0  0  0  0  0  0  0  0  0
  145.3069  134.5555  149.7493 H   0  0  0  0  0  0  0  0  0  0  0  0
  146.6405  133.7127  152.0378 H   0  0  0  0  0  0  0  0  0  0  0  0
  147.7762  138.9432  155.4642 H   0  0  0  0  0  0  0  0  0  0  0  0
  147.4778  139.5540  157.0489 H   0  0  0  0  0  0  0  0  0  0  0  0
  148.0693  143.0617  155.9863 H   0  0  0  0  0  0  0  0  0  0  0  0
  1  2  1  0  0  0  0
  1 20  1  0  0  0  0
  1 21  1  0  0  0  0
  1 22  1  0  0  0  0
  2  7  1  0  0  0  0
  2  3  1  0  0  0  0
  2 40  1  0  0  0  0
  3 19  1  0  0  0  0
  3  4  1  0  0  0  0
  3 23  1  0  0  0  0
  4  5  1  0  0  0  0
  4 24  1  0  0  0  0
  4 25  1  0  0  0  0
  5  6  1  0  0  0  0
  5 26  1  0  0  0  0
  5 27  1  0  0  0  0
  6  7  1  0  0  0  0
  6 28  1  0  0  0  0
  6 29  1  0  0  0  0
  7  8  1  0  0  0  0
  7 30  1  0  0  0  0
  8  9  1  0  0  0  0
  8 31  1  0  0  0  0
  8 32  1  0  0  0  0
  9 10  1  0  0  0  0
  9 19  1  0  0  0  0
  9 33  1  0  0  0  0
 10 34  1  0  0  0  0
 10 11  1  0  0  0  0
 11 13  1  0  0  0  0
 11 12  2  0  0  0  0
 13 14  2  0  0  0  0
 14 18  1  0  0  0  0
 14 15  1  0  0  0  0
 15 35  1  0  0  0  0
 15 16  1  0  0  0  0
 16 36  1  0  0  0  0
 16 17  2  0  0  0  0
 17 37  1  0  0  0  0
 17 18  1  0  0  0  0
 19 38  1  0  0  0  0
 19 39  1  0  0  0  0
M  CHG  1   2   1
M  END
> <s_m_source_file>
AV-unprocessed.smi

> <i_m_source_file_index>
2226

> <i_lp_mmshare_version>
43012

> <i_f3d_flags>
0

> <s_epik_input>
W0NIMl0xW0NIMl1bQ0gyXVtDQEhdKE4oW0NIM10pW0NIXTEyKVtDSDJdW0NASF0oW0NIMl0yKVtOSF1DKD1PKVtOSF1jM25bY0hdW2NIXW8z

> <s_epik_cmdline>
J2VwaWtfcHl0aG9uJywgJy1waCcsICc3LjAnLCAnLXRuJywgJzgnLCAnLW1hJywgJzIwMCcsICctbWV0YWxfYmluZGluZycsICctaW1hZScsICc8aW5maWxlLm1hZT4nLCAnLW9tYWUnLCAnPG91dGZpbGUubWFlPic=

> <r_lp_tautomer_probability>
0.107061

> <r_epik_Ionization_Penalty>
1.08307

> <r_epik_Ionization_Penalty_Charging>
1.08272

> <r_epik_Ionization_Penalty_Neutral>
0.000345913

> <r_epik_State_Penalty>
2.5744

> <r_epik_Charging_Adjusted_Penalty>
3.65713

> <i_epik_Tot_Q>
1

> <i_epik_Tot_abs_Q>
1

> <r_epik_Metal_State_Penalty>
3.72133

> <b_epik_Metal_Only>
0

> <s_lp_Force_Field>
OPLS_2005

> <r_lp_Energy>
58.9845

> <b_lp_Chiralities_Consistent>
1

> <s_lp_Variant>
AV-unprocessed.smi:2226-11

> <Gold.Version>
5.8.1

> <Gold.Id.Protein>
6NUR|6NUR_protein|mol2

> <Gold.PLP.Fitness>
38.6825

> <Gold.PLP.PLP>
-24.2183

> <Gold.PLP.part.hbond>
-3.0000

> <Gold.PLP.part.metal>
0.0000

> <Gold.PLP.part.buried>
-5.8403

> <Gold.PLP.part.nonpolar>
-16.6939

> <Gold.PLP.part.repulsive>
1.3187

> <Gold.PLP.ligand.clash>
0.0000

> <Gold.PLP.ligand.torsion>
0.1384

> <Gold.PLP.Chemscore.Hbond>
3.8960

> <Gold.PLP.Chemscore.CHOScore>
1.0000

> <Gold.PLP.Chemscore.Metal>
0.0000

> <Gold.Chemscore.Hbonds>
donor molecule, donor type, donor heavy atom, donor atom, acceptor molecule, acceptor atom, score
      L1  H     2    40       P1  8028  2.00
      L1  H    10    34       P1 10175  1.00
      L1  H    15    35       P1 10171  0.90
      L1  C    16    36       P1  7921  1.00

> <Gold.PLP.Chemscore.Internal.Correction>
0.0529

> <Gold.Rescore>
     Score         DG    S(hbond)    S(metal)    S(lipo)     H(rot)  DE(clash)    DE(int)     intcor
     13.66     -16.91       2.50        0.00      48.32       1.00       1.53       1.73       ----

> <Gold.Chemscore.Fitness>
13.6600

> <Gold.Chemscore.DG>
-16.9117

> <Gold.Chemscore.ZeroCoef>
-5.4800

> <Gold.Chemscore.Hbond>
2.4966

> <Gold.Chemscore.Metal>
0.0000

> <Gold.Chemscore.Lipo>
48.3172

> <Gold.Chemscore.Internal_Hbond>
0.0000

> <Gold.Chemscore.DEClash>
1.5250

> <Gold.Chemscore.DEInternal>
1.7267

> <Gold.Chemscore.Rot>
1.0000

> <Gold.Chemscore.Internal.Correction>
   9.000000E+99

> <Gold.Chemscore.Hbonds>
donor molecule, donor type, donor heavy atom, donor atom, acceptor molecule, acceptor atom, score
      L1  H     2    40       P1  8028  0.65
      L1  H    10    34       P1 10175  0.95
      L1  H    15    35       P1 10171  0.88

> <Gold.Chemscore.Hbond.Weighted>
-8.3386

> <Gold.Chemscore.Metal.Weighted>
-0.0000

> <Gold.Chemscore.Lipo.Weighted>
-5.6531

> <Gold.Chemscore.Internal_Hbond.Weighted>
0.0000

> <Gold.Chemscore.DEClash.Weighted>
1.5250

> <Gold.Chemscore.DEInternal.Weighted>
1.7267

> <Gold.Chemscore.Rot.Weighted>
2.5600

> <Gold.Chemscore.Internal.Correction.Weighted>
   9.000000E+99

> <Gold.Protein.RotatedTorsions>
[ 6907 6896 6895 6894 ] final  -98.42 input  -60.11 | X-H torsion
[ 7974 7965 7964 7962 ] final  175.07 input  175.53 | X-H torsion
[ 8008 7997 7996 7995 ] final  -12.98 input   59.86 | X-H torsion
[ 10167 10162 10161 10158 ] final -138.65 input  -65.29 | X-H torsion
[ 10718 10713 10712 10709 ] final   -0.02 input   66.30 | X-H torsion
[ 10763 10752 10751 10750 ] final  118.11 input  -60.55 | X-H torsion
[ 11005 11000 10999 10996 ] final  128.54 input  -57.11 | X-H torsion

> <Gold.Protein.ActiveResidues>
 VAL166  LYS551  ARG553  GLY616  TRP617  ASP618  TYR619  PRO620  LYS621  CYS622 
 ASP623  PHE694  ASN695  SER759  ASP760  ASP761  ALA762  ILE779  LEU786  VAL792 
 PHE793  MET794  SER795  GLU796  ALA797  LYS798  CYS799  TRP800  GLU811  SER814 

> <Gold.Protein.RotatedAtoms>
  150.7046  134.1197  159.4030 H   0  0  0  0  0  0  0  0  0  0  0  0  # atno 6907 bound_to 6896
  151.9184  135.0307  160.0529 H   0  0  0  0  0  0  0  0  0  0  0  0  # atno 6908 bound_to 6896
  152.2277  133.4998  159.5235 H   0  0  0  0  0  0  0  0  0  0  0  0  # atno 6909 bound_to 6896
  144.7209  139.9891  143.6439 H   0  0  0  0  0  0  0  0  0  0  0  0  # atno 7974 bound_to 7965
  154.5331  140.2261  155.8770 H   0  0  0  0  0  0  0  0  0  0  0  0  # atno 8008 bound_to 7997
  156.1784  140.3106  155.9065 H   0  0  0  0  0  0  0  0  0  0  0  0  # atno 8009 bound_to 7997
  155.3411  140.0450  157.3035 H   0  0  0  0  0  0  0  0  0  0  0  0  # atno 8010 bound_to 7997
  139.8457  143.7264  152.2661 H   0  0  0  0  0  0  0  0  0  0  0  0  # atno 10167 bound_to 10162
  156.8266  130.5474  149.5691 H   0  0  0  0  0  0  0  0  0  0  0  0  # atno 10718 bound_to 10713
  153.5627  135.3517  155.2806 H   0  0  0  0  0  0  0  0  0  0  0  0  # atno 10763 bound_to 10752
  154.8693  135.4140  154.2813 H   0  0  0  0  0  0  0  0  0  0  0  0  # atno 10764 bound_to 10752
  153.3562  135.7057  153.6818 H   0  0  0  0  0  0  0  0  0  0  0  0  # atno 10765 bound_to 10752
  139.9566  134.9611  156.9016 H   0  0  0  0  0  0  0  0  0  0  0  0  # atno 11005 bound_to 11000
  146.0426  139.3436  143.0688 LP  0  0  0  0  0  0  0  0  0  0  0  0  # atno 17320 bound_to 7965
  145.8315  140.9628  143.0846 LP  0  0  0  0  0  0  0  0  0  0  0  0  # atno 17321 bound_to 7965
  139.7515  144.7533  151.0500 LP  0  0  0  0  0  0  0  0  0  0  0  0  # atno 17342 bound_to 10162
  140.7793  143.4855  150.9962 LP  0  0  0  0  0  0  0  0  0  0  0  0  # atno 17343 bound_to 10162
  156.0958  130.5931  150.9810 LP  0  0  0  0  0  0  0  0  0  0  0  0  # atno 17370 bound_to 10713
  157.6429  131.0908  150.8215 LP  0  0  0  0  0  0  0  0  0  0  0  0  # atno 17371 bound_to 10713
  140.5595  134.0548  155.7394 LP  0  0  0  0  0  0  0  0  0  0  0  0  # atno 17394 bound_to 11000
  141.1238  133.9417  157.2676 LP  0  0  0  0  0  0  0  0  0  0  0  0  # atno 17395 bound_to 11000

$$$$
