AV-unprocessed.smi:1161|AV-procd|sdf|4917|dock3
  -GOLD-   22720 3493D 1   1.00000     0.00000
 Structure written by MMmdl.
 46 47  0  0  0  0  0  0  0  0  1 V2000
  143.6145  134.6335  152.0083 C   0  0  0  0  0  0  0  0  0  0  0  0
  144.1457  136.0473  151.7200 C   0  0  0  0  0  0  0  0  0  0  0  0
  145.5911  136.3311  152.2089 C   0  0  1  0  0  0  0  0  0  0  0  0
  145.7735  135.9940  153.7017 C   0  0  0  0  0  0  0  0  0  0  0  0
  146.4919  135.5028  151.4974 O   0  0  0  0  0  0  0  0  0  0  0  0
  146.0365  137.7960  151.9677 C   0  0  0  0  0  0  0  0  0  0  0  0
  147.3753  138.0864  152.4793 N   0  0  0  0  0  0  0  0  0  0  0  0
  147.6664  138.9448  153.4674 C   0  0  0  0  0  0  0  0  0  0  0  0
  146.8163  139.5891  154.0809 O   0  0  0  0  0  0  0  0  0  0  0  0
  148.9907  138.9916  153.6921 N   0  0  0  0  0  0  0  0  0  0  0  0
  149.7021  139.7629  154.6511 C   0  0  0  0  0  0  0  0  0  0  0  0
  149.0862  140.9297  155.1466 C   0  0  0  0  0  0  0  0  0  0  0  0
  149.7612  141.7118  156.1025 C   0  0  0  0  0  0  0  0  0  0  0  0
  151.0379  141.2929  156.5410 C   0  0  0  0  0  0  0  0  0  0  0  0
  151.7707  142.0293  157.4811 N   0  0  0  0  0  0  0  0  0  0  0  0
  151.3037  143.4006  157.6381 C   0  0  0  0  0  0  0  0  0  0  0  0
  152.2429  144.1692  158.5833 C   0  0  0  0  0  0  0  0  0  0  0  0
  152.3336  143.4809  159.8279 O   0  0  0  0  0  0  0  0  0  0  0  0
  152.8613  142.1660  159.6746 C   0  0  0  0  0  0  0  0  0  0  0  0
  151.9413  141.3435  158.7556 C   0  0  0  0  0  0  0  0  0  0  0  0
  151.6276  140.1666  156.0867 N   0  0  0  0  0  0  0  0  0  0  0  0
  150.9751  139.4209  155.1695 C   0  0  0  0  0  0  0  0  0  0  0  0
  142.6268  134.4999  151.5666 H   0  0  0  0  0  0  0  0  0  0  0  0
  143.5161  134.4482  153.0776 H   0  0  0  0  0  0  0  0  0  0  0  0
  144.2668  133.8671  151.5896 H   0  0  0  0  0  0  0  0  0  0  0  0
  144.0815  136.2075  150.6433 H   0  0  0  0  0  0  0  0  0  0  0  0
  143.4666  136.7727  152.1700 H   0  0  0  0  0  0  0  0  0  0  0  0
  145.0723  136.5559  154.3197 H   0  0  0  0  0  0  0  0  0  0  0  0
  146.7799  136.2393  154.0434 H   0  0  0  0  0  0  0  0  0  0  0  0
  145.6189  134.9345  153.9059 H   0  0  0  0  0  0  0  0  0  0  0  0
  147.3733  135.7385  151.7427 H   0  0  0  0  0  0  0  0  0  0  0  0
  145.9902  138.0168  150.8998 H   0  0  0  0  0  0  0  0  0  0  0  0
  145.3362  138.4886  152.4367 H   0  0  0  0  0  0  0  0  0  0  0  0
  148.1407  137.6047  152.0307 H   0  0  0  0  0  0  0  0  0  0  0  0
  149.5532  138.3541  153.1481 H   0  0  0  0  0  0  0  0  0  0  0  0
  148.1096  141.2287  154.7946 H   0  0  0  0  0  0  0  0  0  0  0  0
  149.3064  142.6136  156.4855 H   0  0  0  0  0  0  0  0  0  0  0  0
  151.2662  143.8919  156.6651 H   0  0  0  0  0  0  0  0  0  0  0  0
  150.2906  143.4041  158.0423 H   0  0  0  0  0  0  0  0  0  0  0  0
  153.2349  144.2779  158.1419 H   0  0  0  0  0  0  0  0  0  0  0  0
  151.8598  145.1743  158.7591 H   0  0  0  0  0  0  0  0  0  0  0  0
  153.8734  142.2143  159.2693 H   0  0  0  0  0  0  0  0  0  0  0  0
  152.9329  141.6952  160.6549 H   0  0  0  0  0  0  0  0  0  0  0  0
  150.9713  141.2026  159.2338 H   0  0  0  0  0  0  0  0  0  0  0  0
  152.3670  140.3533  158.5882 H   0  0  0  0  0  0  0  0  0  0  0  0
  151.4954  138.5248  154.8710 H   0  0  0  0  0  0  0  0  0  0  0  0
  1  2  1  0  0  0  0
  1 23  1  0  0  0  0
  1 24  1  0  0  0  0
  1 25  1  0  0  0  0
  2  3  1  0  0  0  0
  2 26  1  0  0  0  0
  2 27  1  0  0  0  0
  3  4  1  0  0  0  0
  3  5  1  0  0  0  0
  3  6  1  0  0  0  0
  4 28  1  0  0  0  0
  4 29  1  0  0  0  0
  4 30  1  0  0  0  0
  5 31  1  0  0  0  0
  6  7  1  0  0  0  0
  6 32  1  0  0  0  0
  6 33  1  0  0  0  0
  7  8  1  0  0  0  0
  7 34  1  0  0  0  0
  8  9  2  0  0  0  0
  8 10  1  0  0  0  0
 10 11  1  0  0  0  0
 10 35  1  0  0  0  0
 11 22  1  0  0  0  0
 11 12  2  0  0  0  0
 12 13  1  0  0  0  0
 12 36  1  0  0  0  0
 13 14  2  0  0  0  0
 13 37  1  0  0  0  0
 14 15  1  0  0  0  0
 14 21  1  0  0  0  0
 15 20  1  0  0  0  0
 15 16  1  0  0  0  0
 16 17  1  0  0  0  0
 16 38  1  0  0  0  0
 16 39  1  0  0  0  0
 17 18  1  0  0  0  0
 17 40  1  0  0  0  0
 17 41  1  0  0  0  0
 18 19  1  0  0  0  0
 19 20  1  0  0  0  0
 19 42  1  0  0  0  0
 19 43  1  0  0  0  0
 20 44  1  0  0  0  0
 20 45  1  0  0  0  0
 21 22  2  0  0  0  0
 22 46  1  0  0  0  0
M  END
> <s_m_source_file>
AV-unprocessed.smi

> <i_m_source_file_index>
1161

> <i_lp_mmshare_version>
43012

> <i_f3d_flags>
0

> <s_epik_input>
W0NIM11bQ0gyXVtDQEBdKFtDSDNdKShbT0hdKVtDSDJdW05IXUMoPU8pW05IXWMxW2NIXVtjSF1jKG5bY0hdMSlOMltDSDJdW0NIMl1PW0NIMl1bQ0gyXTI=

> <s_epik_cmdline>
J2VwaWtfcHl0aG9uJywgJy1waCcsICc3LjAnLCAnLXRuJywgJzgnLCAnLW1hJywgJzIwMCcsICctbWV0YWxfYmluZGluZycsICctaW1hZScsICc8aW5maWxlLm1hZT4nLCAnLW9tYWUnLCAnPG91dGZpbGUubWFlPic=

> <r_lp_tautomer_probability>
1

> <r_epik_Ionization_Penalty>
0.00208949

> <r_epik_Ionization_Penalty_Charging>
0

> <r_epik_Ionization_Penalty_Neutral>
0.00208949

> <r_epik_State_Penalty>
0.00140033

> <r_epik_Charging_Adjusted_Penalty>
0.00140033

> <i_epik_Tot_Q>
0

> <i_epik_Tot_abs_Q>
0

> <r_epik_Metal_State_Penalty>
-0

> <b_epik_Metal_Only>
0

> <s_lp_Force_Field>
OPLS_2005

> <r_lp_Energy>
26.851

> <b_lp_Chiralities_Consistent>
1

> <s_lp_Variant>
AV-unprocessed.smi:1161-1

> <Gold.Version>
5.8.1

> <Gold.Id.Protein>
6NUR|6NUR_protein|mol2

> <Gold.PLP.Fitness>
44.2059

> <Gold.PLP.PLP>
-38.9846

> <Gold.PLP.part.hbond>
-3.4069

> <Gold.PLP.part.metal>
0.0000

> <Gold.PLP.part.buried>
-2.2658

> <Gold.PLP.part.nonpolar>
-33.9636

> <Gold.PLP.part.repulsive>
0.3182

> <Gold.PLP.ligand.clash>
0.0000

> <Gold.PLP.ligand.torsion>
0.4562

> <Gold.PLP.Chemscore.Hbond>
1.9920

> <Gold.PLP.Chemscore.CHOScore>
0.0000

> <Gold.PLP.Chemscore.Metal>
0.0000

> <Gold.Chemscore.Hbonds>
donor molecule, donor type, donor heavy atom, donor atom, acceptor molecule, acceptor atom, score
      L1  H     5    31       P1  7948  1.00
      L1  H     7    34       P1  7948  0.98

> <Gold.PLP.Chemscore.Internal.Correction>
0.1576

> <Gold.Rescore>
     Score         DG    S(hbond)    S(metal)    S(lipo)     H(rot)  DE(clash)    DE(int)     intcor
     15.32     -17.12       1.97        0.00      90.65       2.16       0.09       1.71       ----

> <Gold.Chemscore.Fitness>
15.3200

> <Gold.Chemscore.DG>
-17.1203

> <Gold.Chemscore.ZeroCoef>
-5.4800

> <Gold.Chemscore.Hbond>
1.9676

> <Gold.Chemscore.Metal>
0.0000

> <Gold.Chemscore.Lipo>
90.6549

> <Gold.Chemscore.Internal_Hbond>
0.0000

> <Gold.Chemscore.DEClash>
0.0912

> <Gold.Chemscore.DEInternal>
1.7091

> <Gold.Chemscore.Rot>
2.1633

> <Gold.Chemscore.Internal.Correction>
   9.000000E+99

> <Gold.Chemscore.Hbonds>
donor molecule, donor type, donor heavy atom, donor atom, acceptor molecule, acceptor atom, score
      L1  H     5    31       P1  7948  0.99
      L1  H     7    34       P1  7948  0.91
      L1  H    10    35       P1  7948  0.01

> <Gold.Chemscore.Hbond.Weighted>
-6.5717

> <Gold.Chemscore.Metal.Weighted>
-0.0000

> <Gold.Chemscore.Lipo.Weighted>
-10.6066

> <Gold.Chemscore.Internal_Hbond.Weighted>
0.0000

> <Gold.Chemscore.DEClash.Weighted>
0.0912

> <Gold.Chemscore.DEInternal.Weighted>
1.7091

> <Gold.Chemscore.Rot.Weighted>
5.5379

> <Gold.Chemscore.Internal.Correction.Weighted>
   9.000000E+99

> <Gold.Protein.RotatedTorsions>
[ 6907 6896 6895 6894 ] final  -12.88 input  -60.11 | X-H torsion
[ 7974 7965 7964 7962 ] final   50.74 input  175.53 | X-H torsion
[ 8008 7997 7996 7995 ] final  133.95 input   59.86 | X-H torsion
[ 10167 10162 10161 10158 ] final   30.25 input  -65.29 | X-H torsion
[ 10718 10713 10712 10709 ] final    1.48 input   66.30 | X-H torsion
[ 10763 10752 10751 10750 ] final   71.32 input  -60.55 | X-H torsion
[ 11005 11000 10999 10996 ] final  119.83 input  -57.11 | X-H torsion

> <Gold.Protein.ActiveResidues>
 VAL166  LYS551  ARG553  GLY616  TRP617  ASP618  TYR619  PRO620  LYS621  CYS622 
 ASP623  PHE694  ASN695  SER759  ASP760  ASP761  ALA762  ILE779  LEU786  VAL792 
 PHE793  MET794  SER795  GLU796  ALA797  LYS798  CYS799  TRP800  GLU811  SER814 

> <Gold.Protein.RotatedAtoms>
  151.3636  135.0909  159.9442 H   0  0  0  0  0  0  0  0  0  0  0  0  # atno 6907 bound_to 6896
  152.5155  133.9234  159.7556 H   0  0  0  0  0  0  0  0  0  0  0  0  # atno 6908 bound_to 6896
  150.9633  133.6367  159.2780 H   0  0  0  0  0  0  0  0  0  0  0  0  # atno 6909 bound_to 6896
  145.9982  139.4411  143.0031 H   0  0  0  0  0  0  0  0  0  0  0  0  # atno 7974 bound_to 7965
  156.2996  140.2508  156.3338 H   0  0  0  0  0  0  0  0  0  0  0  0  # atno 8008 bound_to 7997
  154.9120  140.0403  157.1970 H   0  0  0  0  0  0  0  0  0  0  0  0  # atno 8009 bound_to 7997
  154.8396  140.2889  155.5672 H   0  0  0  0  0  0  0  0  0  0  0  0  # atno 8010 bound_to 7997
  140.4694  144.0786  150.6233 H   0  0  0  0  0  0  0  0  0  0  0  0  # atno 10167 bound_to 10162
  156.8488  130.5546  149.5671 H   0  0  0  0  0  0  0  0  0  0  0  0  # atno 10718 bound_to 10713
  153.0392  135.5141  154.7575 H   0  0  0  0  0  0  0  0  0  0  0  0  # atno 10763 bound_to 10752
  154.6526  135.2927  154.9970 H   0  0  0  0  0  0  0  0  0  0  0  0  # atno 10764 bound_to 10752
  154.0848  135.6659  153.4896 H   0  0  0  0  0  0  0  0  0  0  0  0  # atno 10765 bound_to 10752
  139.9161  134.9631  156.7715 H   0  0  0  0  0  0  0  0  0  0  0  0  # atno 11005 bound_to 11000
  145.7528  140.9966  143.1241 LP  0  0  0  0  0  0  0  0  0  0  0  0  # atno 17320 bound_to 7965
  144.6910  139.9235  143.7469 LP  0  0  0  0  0  0  0  0  0  0  0  0  # atno 17321 bound_to 7965
  140.3996  143.2710  151.9964 LP  0  0  0  0  0  0  0  0  0  0  0  0  # atno 17342 bound_to 10162
  139.4816  144.6009  151.7608 LP  0  0  0  0  0  0  0  0  0  0  0  0  # atno 17343 bound_to 10162
  156.0839  130.5843  150.9614 LP  0  0  0  0  0  0  0  0  0  0  0  0  # atno 17370 bound_to 10713
  157.6315  131.0920  150.8432 LP  0  0  0  0  0  0  0  0  0  0  0  0  # atno 17371 bound_to 10713
  140.6617  133.9639  155.7808 LP  0  0  0  0  0  0  0  0  0  0  0  0  # atno 17394 bound_to 11000
  141.0639  134.0306  157.3621 LP  0  0  0  0  0  0  0  0  0  0  0  0  # atno 17395 bound_to 11000

$$$$
