AV-unprocessed.smi:2075|AV-procd|sdf|8456|dock10
  -GOLD-   2272011153D 1   1.00000     0.00000
 Structure written by MMmdl.
 37 38  0  0  0  0  0  0  0  0  1 V2000
  151.6322  135.7402  156.0659 O   0  0  0  0  0  0  0  0  0  0  0  0
  150.6060  135.7376  155.3857 C   0  0  0  0  0  0  0  0  0  0  0  0
  149.4920  134.7151  155.6421 C   0  0  0  0  0  0  0  0  0  0  0  0
  149.7411  133.3239  155.0252 C   0  0  0  0  0  0  0  0  0  0  0  0
  149.6885  133.4202  153.6970 F   0  0  0  0  0  0  0  0  0  0  0  0
  150.9416  132.8552  155.3685 F   0  0  0  0  0  0  0  0  0  0  0  0
  148.8088  132.4587  155.4268 F   0  0  0  0  0  0  0  0  0  0  0  0
  150.3859  136.6108  154.3902 N   0  0  0  0  0  0  0  0  0  0  0  0
  151.3057  137.6718  153.9914 C   0  0  0  0  0  0  0  0  0  0  0  0
  151.4616  138.7828  155.0201 C   0  0  0  0  0  0  0  0  0  0  0  0
  150.4918  139.7982  155.1230 C   0  0  0  0  0  0  0  0  0  0  0  0
  150.6584  140.8126  156.0851 C   0  0  0  0  0  0  0  0  0  0  0  0
  151.7981  140.7874  156.9296 C   0  0  0  0  0  0  0  0  0  0  0  0
  152.0252  141.7718  157.9196 N   0  0  0  0  0  0  0  0  0  0  0  0
  152.2480  141.3414  159.2979 C   0  0  0  0  0  0  0  0  0  0  0  0
  152.7942  142.5007  160.1486 C   0  0  0  0  0  0  0  0  0  0  0  0
  151.9255  143.6228  160.0495 O   0  0  0  0  0  0  0  0  0  0  0  0
  151.8417  144.1031  158.7128 C   0  0  0  0  0  0  0  0  0  0  0  0
  151.2564  143.0111  157.8013 C   0  0  0  0  0  0  0  0  0  0  0  0
  152.7219  139.8004  156.8307 N   0  0  0  0  0  0  0  0  0  0  0  0
  152.5573  138.8310  155.9070 C   0  0  0  0  0  0  0  0  0  0  0  0
  149.3632  134.6071  156.7203 H   0  0  0  0  0  0  0  0  0  0  0  0
  148.5566  135.1248  155.2591 H   0  0  0  0  0  0  0  0  0  0  0  0
  149.5196  136.5400  153.8763 H   0  0  0  0  0  0  0  0  0  0  0  0
  152.2813  137.2420  153.7569 H   0  0  0  0  0  0  0  0  0  0  0  0
  150.9338  138.1138  153.0670 H   0  0  0  0  0  0  0  0  0  0  0  0
  149.6308  139.8061  154.4708 H   0  0  0  0  0  0  0  0  0  0  0  0
  149.9133  141.5909  156.1444 H   0  0  0  0  0  0  0  0  0  0  0  0
  151.3093  140.9770  159.7172 H   0  0  0  0  0  0  0  0  0  0  0  0
  152.9662  140.5215  159.3292 H   0  0  0  0  0  0  0  0  0  0  0  0
  152.8654  142.1974  161.1931 H   0  0  0  0  0  0  0  0  0  0  0  0
  153.8006  142.7765  159.8289 H   0  0  0  0  0  0  0  0  0  0  0  0
  151.2048  144.9875  158.6929 H   0  0  0  0  0  0  0  0  0  0  0  0
  152.8275  144.4140  158.3628 H   0  0  0  0  0  0  0  0  0  0  0  0
  151.2457  143.3850  156.7776 H   0  0  0  0  0  0  0  0  0  0  0  0
  150.2209  142.8087  158.0780 H   0  0  0  0  0  0  0  0  0  0  0  0
  153.3258  138.0727  155.8813 H   0  0  0  0  0  0  0  0  0  0  0  0
  1  2  2  0  0  0  0
  2  3  1  0  0  0  0
  2  8  1  0  0  0  0
  3  4  1  0  0  0  0
  3 22  1  0  0  0  0
  3 23  1  0  0  0  0
  4  5  1  0  0  0  0
  4  6  1  0  0  0  0
  4  7  1  0  0  0  0
  8  9  1  0  0  0  0
  8 24  1  0  0  0  0
  9 10  1  0  0  0  0
  9 25  1  0  0  0  0
  9 26  1  0  0  0  0
 10 21  1  0  0  0  0
 10 11  2  0  0  0  0
 11 12  1  0  0  0  0
 11 27  1  0  0  0  0
 12 13  2  0  0  0  0
 12 28  1  0  0  0  0
 13 14  1  0  0  0  0
 13 20  1  0  0  0  0
 14 19  1  0  0  0  0
 14 15  1  0  0  0  0
 15 16  1  0  0  0  0
 15 29  1  0  0  0  0
 15 30  1  0  0  0  0
 16 17  1  0  0  0  0
 16 31  1  0  0  0  0
 16 32  1  0  0  0  0
 17 18  1  0  0  0  0
 18 19  1  0  0  0  0
 18 33  1  0  0  0  0
 18 34  1  0  0  0  0
 19 35  1  0  0  0  0
 19 36  1  0  0  0  0
 20 21  2  0  0  0  0
 21 37  1  0  0  0  0
M  END
> <s_m_source_file>
AV-unprocessed.smi

> <i_m_source_file_index>
2075

> <i_lp_mmshare_version>
43012

> <i_f3d_flags>
0

> <s_epik_input>
RkMoRikoRilbQ0gyXUMoPU8pW05IXVtDSDJdYzFbY0hdW2NIXWMobltjSF0xKU4yW0NIMl1bQ0gyXU9bQ0gyXVtDSDJdMg==

> <s_epik_cmdline>
J2VwaWtfcHl0aG9uJywgJy1waCcsICc3LjAnLCAnLXRuJywgJzgnLCAnLW1hJywgJzIwMCcsICctbWV0YWxfYmluZGluZycsICctaW1hZScsICc8aW5maWxlLm1hZT4nLCAnLW9tYWUnLCAnPG91dGZpbGUubWFlPic=

> <r_lp_tautomer_probability>
1

> <r_epik_Ionization_Penalty>
0.00347018

> <r_epik_Ionization_Penalty_Charging>
0

> <r_epik_Ionization_Penalty_Neutral>
0.00347018

> <r_epik_State_Penalty>
0.00246037

> <r_epik_Charging_Adjusted_Penalty>
0.00246037

> <i_epik_Tot_Q>
0

> <i_epik_Tot_abs_Q>
0

> <r_epik_Metal_State_Penalty>
-0

> <b_epik_Metal_Only>
0

> <s_lp_Force_Field>
OPLS_2005

> <r_lp_Energy>
11.9442

> <b_lp_Chiralities_Consistent>
1

> <s_lp_Variant>
AV-unprocessed.smi:2075-1

> <Gold.Version>
5.8.1

> <Gold.Id.Protein>
6NUR|6NUR_protein|mol2

> <Gold.PLP.Fitness>
47.4460

> <Gold.PLP.PLP>
-40.7195

> <Gold.PLP.part.hbond>
-3.8129

> <Gold.PLP.part.metal>
0.0000

> <Gold.PLP.part.buried>
-2.5942

> <Gold.PLP.part.nonpolar>
-34.3826

> <Gold.PLP.part.repulsive>
0.1181

> <Gold.PLP.ligand.clash>
0.0000

> <Gold.PLP.ligand.torsion>
0.9077

> <Gold.PLP.Chemscore.Hbond>
2.6903

> <Gold.PLP.Chemscore.CHOScore>
0.0000

> <Gold.PLP.Chemscore.Metal>
0.0000

> <Gold.Chemscore.Hbonds>
donor molecule, donor type, donor heavy atom, donor atom, acceptor molecule, acceptor atom, score
      L1  H     8    24       P1  7948  0.61
      P1  H  7997  8008       L1    20  1.00
      P1  H 10752 10763       L1     1  1.00

> <Gold.PLP.Chemscore.Internal.Correction>
0.4710

> <Gold.Rescore>
     Score         DG    S(hbond)    S(metal)    S(lipo)     H(rot)  DE(clash)    DE(int)     intcor
     15.16     -16.13       1.80        0.00      83.76       2.01       0.01       0.96       ----

> <Gold.Chemscore.Fitness>
15.1606

> <Gold.Chemscore.DG>
-16.1315

> <Gold.Chemscore.ZeroCoef>
-5.4800

> <Gold.Chemscore.Hbond>
1.7955

> <Gold.Chemscore.Metal>
0.0000

> <Gold.Chemscore.Lipo>
83.7644

> <Gold.Chemscore.Internal_Hbond>
0.0000

> <Gold.Chemscore.DEClash>
0.0145

> <Gold.Chemscore.DEInternal>
0.9563

> <Gold.Chemscore.Rot>
2.0101

> <Gold.Chemscore.Internal.Correction>
   9.000000E+99

> <Gold.Chemscore.Hbonds>
donor molecule, donor type, donor heavy atom, donor atom, acceptor molecule, acceptor atom, score
      L1  H     8    24       P1  7948  0.46
      P1  H  7997  8008       L1    20  0.25
      P1  H 10752 10763       L1     1  0.85

> <Gold.Chemscore.Hbond.Weighted>
-5.9968

> <Gold.Chemscore.Metal.Weighted>
-0.0000

> <Gold.Chemscore.Lipo.Weighted>
-9.8004

> <Gold.Chemscore.Internal_Hbond.Weighted>
0.0000

> <Gold.Chemscore.DEClash.Weighted>
0.0145

> <Gold.Chemscore.DEInternal.Weighted>
0.9563

> <Gold.Chemscore.Rot.Weighted>
5.1458

> <Gold.Chemscore.Internal.Correction.Weighted>
   9.000000E+99

> <Gold.Protein.RotatedTorsions>
[ 6907 6896 6895 6894 ] final -135.61 input  -60.11 | X-H torsion
[ 7974 7965 7964 7962 ] final  124.95 input  175.53 | X-H torsion
[ 8008 7997 7996 7995 ] final  -63.06 input   59.86 | X-H torsion
[ 10167 10162 10161 10158 ] final  -11.48 input  -65.29 | X-H torsion
[ 10718 10713 10712 10709 ] final  -39.55 input   66.30 | X-H torsion
[ 10763 10752 10751 10750 ] final   92.29 input  -60.55 | X-H torsion
[ 11005 11000 10999 10996 ] final  -89.29 input  -57.11 | X-H torsion

> <Gold.Protein.ActiveResidues>
 VAL166  LYS551  ARG553  GLY616  TRP617  ASP618  TYR619  PRO620  LYS621  CYS622 
 ASP623  PHE694  ASN695  SER759  ASP760  ASP761  ALA762  ILE779  LEU786  VAL792 
 PHE793  MET794  SER795  GLU796  ALA797  LYS798  CYS799  TRP800  GLU811  SER814 

> <Gold.Protein.RotatedAtoms>
  151.0000  133.6065  159.2696 H   0  0  0  0  0  0  0  0  0  0  0  0  # atno 6907 bound_to 6896
  151.3255  135.0828  159.9330 H   0  0  0  0  0  0  0  0  0  0  0  0  # atno 6908 bound_to 6896
  152.5271  133.9639  159.7784 H   0  0  0  0  0  0  0  0  0  0  0  0  # atno 6909 bound_to 6896
  145.0785  139.3675  143.4921 H   0  0  0  0  0  0  0  0  0  0  0  0  # atno 7974 bound_to 7965
  154.4533  140.0983  156.6683 H   0  0  0  0  0  0  0  0  0  0  0  0  # atno 8008 bound_to 7997
  155.5216  140.3479  155.4389 H   0  0  0  0  0  0  0  0  0  0  0  0  # atno 8009 bound_to 7997
  156.0726  140.1353  156.9799 H   0  0  0  0  0  0  0  0  0  0  0  0  # atno 8010 bound_to 7997
  140.7139  143.5635  150.9170 H   0  0  0  0  0  0  0  0  0  0  0  0  # atno 10167 bound_to 10162
  156.2912  130.4228  149.8237 H   0  0  0  0  0  0  0  0  0  0  0  0  # atno 10718 bound_to 10713
  153.2176  135.4366  155.0452 H   0  0  0  0  0  0  0  0  0  0  0  0  # atno 10763 bound_to 10752
  154.8233  135.3348  154.6975 H   0  0  0  0  0  0  0  0  0  0  0  0  # atno 10764 bound_to 10752
  153.7409  135.7005  153.5023 H   0  0  0  0  0  0  0  0  0  0  0  0  # atno 10765 bound_to 10752
  141.1587  133.7621  156.9573 H   0  0  0  0  0  0  0  0  0  0  0  0  # atno 11005 bound_to 11000
  146.3530  140.0564  142.8632 LP  0  0  0  0  0  0  0  0  0  0  0  0  # atno 17320 bound_to 7965
  145.1206  140.9460  143.4602 LP  0  0  0  0  0  0  0  0  0  0  0  0  # atno 17321 bound_to 7965
  139.9360  143.6437  152.3065 LP  0  0  0  0  0  0  0  0  0  0  0  0  # atno 17342 bound_to 10162
  139.6905  144.7647  151.1447 LP  0  0  0  0  0  0  0  0  0  0  0  0  # atno 17343 bound_to 10162
  156.5649  130.8399  151.3339 LP  0  0  0  0  0  0  0  0  0  0  0  0  # atno 17370 bound_to 10713
  157.7343  130.9744  150.2021 LP  0  0  0  0  0  0  0  0  0  0  0  0  # atno 17371 bound_to 10713
  140.1216  134.9413  157.2212 LP  0  0  0  0  0  0  0  0  0  0  0  0  # atno 17394 bound_to 11000
  140.3064  134.3073  155.7277 LP  0  0  0  0  0  0  0  0  0  0  0  0  # atno 17395 bound_to 11000

$$$$
