AV-unprocessed.smi:515|AV-procd|sdf|2782|dock8
  -GOLD-   2262023253D 1   1.00000     0.00000
 Structure written by MMmdl.
 46 48  0  0  0  0  0  0  0  0  2 V2000
  151.0705  138.9243  156.0824 C   0  0  0  0  0  0  0  0  0  0  0  0
  151.2219  137.6060  155.3199 C   0  0  0  0  0  0  0  0  0  0  0  0
  150.3327  136.6504  155.8725 O   0  0  0  0  0  0  0  0  0  0  0  0
  150.5640  135.3409  155.3811 C   0  0  0  0  0  0  0  0  0  0  0  0
  149.2913  134.5068  155.5707 C   0  0  0  0  0  0  0  0  0  0  0  0
  149.4433  133.1659  155.0156 N   0  0  0  0  0  0  0  0  0  0  0  0
  148.8211  132.6484  153.9233 C   0  0  0  0  0  0  0  0  0  0  0  0
  147.8322  133.4352  153.1028 C   0  0  0  0  0  0  0  0  0  0  0  0
  147.2148  132.6964  152.0003 N   0  0  0  0  0  0  0  0  0  0  0  0
  146.1984  131.7716  152.4880 C   0  0  0  0  0  0  0  0  0  0  0  0
  145.5442  130.9836  151.3398 C   0  0  0  0  0  0  0  0  0  0  0  0
  144.9911  131.8913  150.3920 O   0  0  0  0  0  0  0  0  0  0  0  0
  145.9595  132.7896  149.8596 C   0  0  0  0  0  0  0  0  0  0  0  0
  146.6112  133.5819  151.0055 C   0  0  0  0  0  0  0  0  0  0  0  0
  149.1377  131.3725  153.6748 N   0  0  0  0  0  0  0  0  0  0  0  0
  150.0411  131.0631  154.6791 C   0  0  0  0  0  0  0  0  0  0  0  0
  150.2352  132.1237  155.5054 C   0  0  0  0  0  0  0  0  0  0  0  0
  151.1219  132.0944  156.6891 C   0  0  0  0  0  0  0  0  0  0  0  0
  151.2401  133.0771  157.4184 O   0  0  0  0  0  0  0  0  0  0  0  0
  151.7434  130.8817  156.8386 N   0  5  0  0  0  0  0  0  0  0  0  0
  151.5830  129.7830  156.0212 C   0  0  0  0  0  0  0  0  0  0  0  0
  152.1833  128.7270  156.2262 O   0  0  0  0  0  0  0  0  0  0  0  0
  150.7357  129.8520  154.9462 N   0  0  0  0  0  0  0  0  0  0  0  0
  150.5415  128.6993  154.0622 C   0  0  0  0  0  0  0  0  0  0  0  0
  151.7385  139.6860  155.6800 H   0  0  0  0  0  0  0  0  0  0  0  0
  151.3080  138.7944  157.1384 H   0  0  0  0  0  0  0  0  0  0  0  0
  150.0503  139.3025  156.0115 H   0  0  0  0  0  0  0  0  0  0  0  0
  151.0001  137.7599  154.2627 H   0  0  0  0  0  0  0  0  0  0  0  0
  152.2505  137.2500  155.3938 H   0  0  0  0  0  0  0  0  0  0  0  0
  150.8357  135.3786  154.3252 H   0  0  0  0  0  0  0  0  0  0  0  0
  151.3956  134.8835  155.9197 H   0  0  0  0  0  0  0  0  0  0  0  0
  149.0400  134.4450  156.6275 H   0  0  0  0  0  0  0  0  0  0  0  0
  148.4366  134.9954  155.1049 H   0  0  0  0  0  0  0  0  0  0  0  0
  147.0572  133.7823  153.7873 H   0  0  0  0  0  0  0  0  0  0  0  0
  148.3140  134.3261  152.7020 H   0  0  0  0  0  0  0  0  0  0  0  0
  146.6436  131.0722  153.1964 H   0  0  0  0  0  0  0  0  0  0  0  0
  145.4291  132.3206  153.0333 H   0  0  0  0  0  0  0  0  0  0  0  0
  146.2739  130.3366  150.8504 H   0  0  0  0  0  0  0  0  0  0  0  0
  144.7521  130.3405  151.7236 H   0  0  0  0  0  0  0  0  0  0  0  0
  146.7123  132.2341  149.2982 H   0  0  0  0  0  0  0  0  0  0  0  0
  145.4718  133.4669  149.1587 H   0  0  0  0  0  0  0  0  0  0  0  0
  145.8580  134.2125  151.4800 H   0  0  0  0  0  0  0  0  0  0  0  0
  147.3596  134.2556  150.5890 H   0  0  0  0  0  0  0  0  0  0  0  0
  151.4835  128.4204  153.5877 H   0  0  0  0  0  0  0  0  0  0  0  0
  149.8213  128.8950  153.2679 H   0  0  0  0  0  0  0  0  0  0  0  0
  150.1759  127.8407  154.6272 H   0  0  0  0  0  0  0  0  0  0  0  0
  1  2  1  0  0  0  0
  1 25  1  0  0  0  0
  1 26  1  0  0  0  0
  1 27  1  0  0  0  0
  2  3  1  0  0  0  0
  2 28  1  0  0  0  0
  2 29  1  0  0  0  0
  3  4  1  0  0  0  0
  4  5  1  0  0  0  0
  4 30  1  0  0  0  0
  4 31  1  0  0  0  0
  5  6  1  0  0  0  0
  5 32  1  0  0  0  0
  5 33  1  0  0  0  0
  6 17  1  0  0  0  0
  6  7  1  0  0  0  0
  7  8  1  0  0  0  0
  7 15  2  0  0  0  0
  8  9  1  0  0  0  0
  8 34  1  0  0  0  0
  8 35  1  0  0  0  0
  9 14  1  0  0  0  0
  9 10  1  0  0  0  0
 10 11  1  0  0  0  0
 10 36  1  0  0  0  0
 10 37  1  0  0  0  0
 11 12  1  0  0  0  0
 11 38  1  0  0  0  0
 11 39  1  0  0  0  0
 12 13  1  0  0  0  0
 13 14  1  0  0  0  0
 13 40  1  0  0  0  0
 13 41  1  0  0  0  0
 14 42  1  0  0  0  0
 14 43  1  0  0  0  0
 15 16  1  0  0  0  0
 16 23  1  0  0  0  0
 16 17  2  0  0  0  0
 17 18  1  0  0  0  0
 18 19  2  0  0  0  0
 18 20  1  0  0  0  0
 20 21  1  0  0  0  0
 21 22  2  0  0  0  0
 21 23  1  0  0  0  0
 23 24  1  0  0  0  0
 24 44  1  0  0  0  0
 24 45  1  0  0  0  0
 24 46  1  0  0  0  0
M  CHG  1  20  -1
M  END
> <s_m_source_file>
AV-unprocessed.smi

> <i_m_source_file_index>
515

> <i_lp_mmshare_version>
43012

> <i_f3d_flags>
0

> <s_epik_input>
W0NIM11uMWMoPU8pW25IXWMoPU8pYyhjMTIpbihbQ0gyXVtDSDJdT1tDSDJdW0NIM10pYyhuMilbQ0gyXU4zW0NIMl1bQ0gyXU9bQ0gyXVtDSDJdMw==

> <s_epik_cmdline>
J2VwaWtfcHl0aG9uJywgJy1waCcsICc3LjAnLCAnLXRuJywgJzgnLCAnLW1hJywgJzIwMCcsICctbWV0YWxfYmluZGluZycsICctaW1hZScsICc8aW5maWxlLm1hZT4nLCAnLW9tYWUnLCAnPG91dGZpbGUubWFlPic=

> <r_epik_Ionization_Penalty>
4.8833

> <r_epik_Ionization_Penalty_Charging>
0.035962

> <r_epik_Ionization_Penalty_Neutral>
4.84734

> <r_epik_State_Penalty>
4.83718

> <r_epik_Charging_Adjusted_Penalty>
4.87314

> <i_epik_Tot_Q>
-1

> <i_epik_Tot_abs_Q>
1

> <r_epik_Metal_State_Penalty>
1.06056

> <b_epik_Metal_Only>
1

> <s_lp_Force_Field>
OPLS_2005

> <r_lp_Energy>
45.1348

> <b_lp_Chiralities_Consistent>
1

> <s_lp_Variant>
AV-unprocessed.smi:515-3

> <Gold.Version>
5.8.1

> <Gold.Id.Protein>
6NUR|6NUR_protein|mol2

> <Gold.PLP.Fitness>
42.5985

> <Gold.PLP.PLP>
-41.7450

> <Gold.PLP.part.hbond>
-1.0000

> <Gold.PLP.part.metal>
0.0000

> <Gold.PLP.part.buried>
-5.7737

> <Gold.PLP.part.nonpolar>
-36.8993

> <Gold.PLP.part.repulsive>
1.4972

> <Gold.PLP.ligand.clash>
0.0000

> <Gold.PLP.ligand.torsion>
0.3698

> <Gold.PLP.Chemscore.Hbond>
0.5171

> <Gold.PLP.Chemscore.CHOScore>
0.0000

> <Gold.PLP.Chemscore.Metal>
0.0000

> <Gold.Chemscore.Hbonds>
donor molecule, donor type, donor heavy atom, donor atom, acceptor molecule, acceptor atom, score
      P1  H  6896  6907       L1    19  0.86

> <Gold.PLP.Chemscore.Internal.Correction>
0.0418

> <Gold.Rescore>
     Score         DG    S(hbond)    S(metal)    S(lipo)     H(rot)  DE(clash)    DE(int)     intcor
     10.20     -10.89       0.90        0.00      66.56       2.10       0.04       0.65       ----

> <Gold.Chemscore.Fitness>
10.2009

> <Gold.Chemscore.DG>
-10.8887

> <Gold.Chemscore.ZeroCoef>
-5.4800

> <Gold.Chemscore.Hbond>
0.8968

> <Gold.Chemscore.Metal>
0.0000

> <Gold.Chemscore.Lipo>
66.5557

> <Gold.Chemscore.Internal_Hbond>
0.0000

> <Gold.Chemscore.DEClash>
0.0402

> <Gold.Chemscore.DEInternal>
0.6476

> <Gold.Chemscore.Rot>
2.0991

> <Gold.Chemscore.Internal.Correction>
   9.000000E+99

> <Gold.Chemscore.Hbonds>
donor molecule, donor type, donor heavy atom, donor atom, acceptor molecule, acceptor atom, score
      P1  H  6896  6907       L1    19  0.85

> <Gold.Chemscore.Hbond.Weighted>
-2.9954

> <Gold.Chemscore.Metal.Weighted>
-0.0000

> <Gold.Chemscore.Lipo.Weighted>
-7.7870

> <Gold.Chemscore.Internal_Hbond.Weighted>
0.0000

> <Gold.Chemscore.DEClash.Weighted>
0.0402

> <Gold.Chemscore.DEInternal.Weighted>
0.6476

> <Gold.Chemscore.Rot.Weighted>
5.3737

> <Gold.Chemscore.Internal.Correction.Weighted>
   9.000000E+99

> <Gold.Protein.RotatedTorsions>
[ 6907 6896 6895 6894 ] final -162.79 input  -60.11 | X-H torsion
[ 7974 7965 7964 7962 ] final   59.37 input  175.53 | X-H torsion
[ 8008 7997 7996 7995 ] final  161.41 input   59.86 | X-H torsion
[ 10167 10162 10161 10158 ] final   29.22 input  -65.29 | X-H torsion
[ 10718 10713 10712 10709 ] final   -2.20 input   66.30 | X-H torsion
[ 10763 10752 10751 10750 ] final  -39.43 input  -60.55 | X-H torsion
[ 11005 11000 10999 10996 ] final   96.63 input  -57.11 | X-H torsion

> <Gold.Protein.ActiveResidues>
 VAL166  LYS551  ARG553  GLY616  TRP617  ASP618  TYR619  PRO620  LYS621  CYS622 
 ASP623  PHE694  ASN695  SER759  ASP760  ASP761  ALA762  ILE779  LEU786  VAL792 
 PHE793  MET794  SER795  GLU796  ALA797  LYS798  CYS799  TRP800  GLU811  SER814 

> <Gold.Protein.RotatedAtoms>
  151.3859  133.3805  159.2715 H   0  0  0  0  0  0  0  0  0  0  0  0  # atno 6907 bound_to 6896
  150.9542  134.8939  159.7701 H   0  0  0  0  0  0  0  0  0  0  0  0  # atno 6908 bound_to 6896
  152.5124  134.3816  159.9405 H   0  0  0  0  0  0  0  0  0  0  0  0  # atno 6909 bound_to 6896
  145.9079  139.3631  143.0553 H   0  0  0  0  0  0  0  0  0  0  0  0  # atno 7974 bound_to 7965
  156.2105  140.1778  156.7705 H   0  0  0  0  0  0  0  0  0  0  0  0  # atno 8008 bound_to 7997
  154.5716  140.0681  156.9002 H   0  0  0  0  0  0  0  0  0  0  0  0  # atno 8009 bound_to 7997
  155.2663  140.3339  155.4271 H   0  0  0  0  0  0  0  0  0  0  0  0  # atno 8010 bound_to 7997
  140.4784  144.0654  150.6258 H   0  0  0  0  0  0  0  0  0  0  0  0  # atno 10167 bound_to 10162
  156.7943  130.5372  149.5731 H   0  0  0  0  0  0  0  0  0  0  0  0  # atno 10718 bound_to 10713
  153.9292  135.6774  153.4746 H   0  0  0  0  0  0  0  0  0  0  0  0  # atno 10763 bound_to 10752
  153.0988  135.4838  154.8826 H   0  0  0  0  0  0  0  0  0  0  0  0  # atno 10764 bound_to 10752
  154.7437  135.3167  154.8640 H   0  0  0  0  0  0  0  0  0  0  0  0  # atno 10765 bound_to 10752
  139.8780  134.8960  156.4188 H   0  0  0  0  0  0  0  0  0  0  0  0  # atno 11005 bound_to 11000
  145.8709  140.9420  143.0651 LP  0  0  0  0  0  0  0  0  0  0  0  0  # atno 17320 bound_to 7965
  144.6741  140.0653  143.7475 LP  0  0  0  0  0  0  0  0  0  0  0  0  # atno 17321 bound_to 7965
  140.3889  143.2763  152.0084 LP  0  0  0  0  0  0  0  0  0  0  0  0  # atno 17342 bound_to 10162
  139.4829  144.6094  151.7462 LP  0  0  0  0  0  0  0  0  0  0  0  0  # atno 17343 bound_to 10162
  156.1140  130.6061  151.0091 LP  0  0  0  0  0  0  0  0  0  0  0  0  # atno 17370 bound_to 10713
  157.6585  131.0885  150.7893 LP  0  0  0  0  0  0  0  0  0  0  0  0  # atno 17371 bound_to 10713
  140.9148  133.7686  155.9835 LP  0  0  0  0  0  0  0  0  0  0  0  0  # atno 17394 bound_to 11000
  140.8505  134.2959  157.5277 LP  0  0  0  0  0  0  0  0  0  0  0  0  # atno 17395 bound_to 11000

$$$$
