AV-unprocessed.smi:1269|AV-procd|sdf|5330|dock1
  -GOLD-   22720 4463D 1   1.00000     0.00000
 Structure written by MMmdl.
 44 45  0  0  0  0  0  0  0  0  2 V2000
  151.2889  142.8698  157.1961 C   0  0  0  0  0  0  0  0  0  0  0  0
  151.7605  141.6503  156.6338 O   0  0  0  0  0  0  0  0  0  0  0  0
  150.8834  140.8911  155.8867 C   0  0  0  0  0  0  0  0  0  0  0  0
  149.5045  141.1626  155.9843 C   0  0  0  0  0  0  0  0  0  0  0  0
  148.6016  140.3910  155.2285 C   0  0  0  0  0  0  0  0  0  0  0  0
  149.1087  139.3692  154.3891 C   0  0  0  0  0  0  0  0  0  0  0  0
  148.3139  138.5073  153.5829 N   0  0  0  0  0  0  0  0  0  0  0  0
  146.9759  138.4125  153.4993 C   0  0  0  0  0  0  0  0  0  0  0  0
  146.1684  139.1120  154.1090 O   0  0  0  0  0  0  0  0  0  0  0  0
  146.6123  137.4356  152.6549 N   0  0  0  0  0  0  0  0  0  0  0  0
  145.2391  137.0622  152.3101 C   0  0  1  0  0  0  0  0  0  0  0  0
  145.2711  135.8243  151.4033 C   0  0  0  0  0  0  0  0  0  0  0  0
  144.3882  136.8070  153.5760 C   0  0  0  0  0  0  0  0  0  0  0  0
  143.0248  136.3040  153.2706 N   0  3  0  0  0  0  0  0  0  0  0  0
  142.9259  134.8244  153.2658 C   0  0  0  0  0  0  0  0  0  0  0  0
  141.5090  134.3908  152.8558 C   0  0  0  0  0  0  0  0  0  0  0  0
  140.5599  134.9661  153.7460 O   0  0  0  0  0  0  0  0  0  0  0  0
  140.5892  136.3878  153.7122 C   0  0  0  0  0  0  0  0  0  0  0  0
  141.9789  136.8890  154.1413 C   0  0  0  0  0  0  0  0  0  0  0  0
  150.5060  139.1760  154.3677 C   0  0  0  0  0  0  0  0  0  0  0  0
  151.3765  139.9108  155.0908 N   0  0  0  0  0  0  0  0  0  0  0  0
  152.0962  143.3463  157.7522 H   0  0  0  0  0  0  0  0  0  0  0  0
  150.4658  142.6972  157.8911 H   0  0  0  0  0  0  0  0  0  0  0  0
  150.9647  143.5668  156.4221 H   0  0  0  0  0  0  0  0  0  0  0  0
  149.1446  141.9487  156.6317 H   0  0  0  0  0  0  0  0  0  0  0  0
  147.5480  140.5984  155.3220 H   0  0  0  0  0  0  0  0  0  0  0  0
  148.8366  137.8907  152.9778 H   0  0  0  0  0  0  0  0  0  0  0  0
  147.3465  136.9160  152.1958 H   0  0  0  0  0  0  0  0  0  0  0  0
  144.7853  137.8658  151.7285 H   0  0  0  0  0  0  0  0  0  0  0  0
  144.2648  135.5372  151.0963 H   0  0  0  0  0  0  0  0  0  0  0  0
  145.7202  134.9694  151.9103 H   0  0  0  0  0  0  0  0  0  0  0  0
  145.8476  136.0146  150.4973 H   0  0  0  0  0  0  0  0  0  0  0  0
  144.8923  136.1104  154.2476 H   0  0  0  0  0  0  0  0  0  0  0  0
  144.3065  137.7476  154.1228 H   0  0  0  0  0  0  0  0  0  0  0  0
  143.6507  134.3962  152.5739 H   0  0  0  0  0  0  0  0  0  0  0  0
  143.1628  134.4360  154.2574 H   0  0  0  0  0  0  0  0  0  0  0  0
  141.2921  134.6890  151.8286 H   0  0  0  0  0  0  0  0  0  0  0  0
  141.4206  133.3052  152.8981 H   0  0  0  0  0  0  0  0  0  0  0  0
  140.3393  136.7439  152.7113 H   0  0  0  0  0  0  0  0  0  0  0  0
  139.8253  136.7735  154.3875 H   0  0  0  0  0  0  0  0  0  0  0  0
  142.1727  136.6193  155.1806 H   0  0  0  0  0  0  0  0  0  0  0  0
  142.0092  137.9774  154.0791 H   0  0  0  0  0  0  0  0  0  0  0  0
  150.9428  138.4051  153.7498 H   0  0  0  0  0  0  0  0  0  0  0  0
  142.8138  136.6130  152.3322 H   0  0  0  0  0  0  0  0  0  0  0  0
  1  2  1  0  0  0  0
  1 22  1  0  0  0  0
  1 23  1  0  0  0  0
  1 24  1  0  0  0  0
  2  3  1  0  0  0  0
  3 21  1  0  0  0  0
  3  4  2  0  0  0  0
  4  5  1  0  0  0  0
  4 25  1  0  0  0  0
  5  6  2  0  0  0  0
  5 26  1  0  0  0  0
  6  7  1  0  0  0  0
  6 20  1  0  0  0  0
  7  8  1  0  0  0  0
  7 27  1  0  0  0  0
  8  9  2  0  0  0  0
  8 10  1  0  0  0  0
 10 11  1  0  0  0  0
 10 28  1  0  0  0  0
 11 12  1  0  0  0  0
 11 13  1  0  0  0  0
 11 29  1  0  0  0  0
 12 30  1  0  0  0  0
 12 31  1  0  0  0  0
 12 32  1  0  0  0  0
 13 14  1  0  0  0  0
 13 33  1  0  0  0  0
 13 34  1  0  0  0  0
 14 19  1  0  0  0  0
 14 15  1  0  0  0  0
 14 44  1  0  0  0  0
 15 16  1  0  0  0  0
 15 35  1  0  0  0  0
 15 36  1  0  0  0  0
 16 17  1  0  0  0  0
 16 37  1  0  0  0  0
 16 38  1  0  0  0  0
 17 18  1  0  0  0  0
 18 19  1  0  0  0  0
 18 39  1  0  0  0  0
 18 40  1  0  0  0  0
 19 41  1  0  0  0  0
 19 42  1  0  0  0  0
 20 21  2  0  0  0  0
 20 43  1  0  0  0  0
M  CHG  1  14   1
M  END
> <s_m_source_file>
AV-unprocessed.smi

> <i_m_source_file_index>
1269

> <i_lp_mmshare_version>
43012

> <i_f3d_flags>
0

> <s_epik_input>
W0NIM11PYzFbY0hdW2NIXWMoW2NIXW4xKVtOSF1DKD1PKVtOSF1bQ0BIXShbQ0gzXSlbQ0gyXU4yW0NIMl1bQ0gyXU9bQ0gyXVtDSDJdMg==

> <s_epik_cmdline>
J2VwaWtfcHl0aG9uJywgJy1waCcsICc3LjAnLCAnLXRuJywgJzgnLCAnLW1hJywgJzIwMCcsICctbWV0YWxfYmluZGluZycsICctaW1hZScsICc8aW5maWxlLm1hZT4nLCAnLW9tYWUnLCAnPG91dGZpbGUubWFlPic=

> <r_lp_tautomer_probability>
1

> <r_epik_Ionization_Penalty>
0.602604

> <r_epik_Ionization_Penalty_Charging>
0.602531

> <r_epik_Ionization_Penalty_Neutral>
7.37831e-05

> <r_epik_State_Penalty>
0.617039

> <r_epik_Charging_Adjusted_Penalty>
1.21957

> <i_epik_Tot_Q>
1

> <i_epik_Tot_abs_Q>
1

> <r_epik_Metal_State_Penalty>
0.617045

> <b_epik_Metal_Only>
0

> <s_lp_Force_Field>
OPLS_2005

> <r_lp_Energy>
25.4329

> <b_lp_Chiralities_Consistent>
1

> <s_lp_Variant>
AV-unprocessed.smi:1269-4

> <Gold.Version>
5.8.1

> <Gold.Id.Protein>
6NUR|6NUR_protein|mol2

> <Gold.PLP.Fitness>
40.8452

> <Gold.PLP.PLP>
-32.2429

> <Gold.PLP.part.hbond>
-5.6204

> <Gold.PLP.part.metal>
0.0000

> <Gold.PLP.part.buried>
-3.4086

> <Gold.PLP.part.nonpolar>
-24.2810

> <Gold.PLP.part.repulsive>
0.4721

> <Gold.PLP.ligand.clash>
0.0000

> <Gold.PLP.ligand.torsion>
0.7573

> <Gold.PLP.Chemscore.Hbond>
3.3000

> <Gold.PLP.Chemscore.CHOScore>
0.0000

> <Gold.PLP.Chemscore.Metal>
0.0000

> <Gold.Chemscore.Hbonds>
donor molecule, donor type, donor heavy atom, donor atom, acceptor molecule, acceptor atom, score
      L1  H     7    27       P1  7948  1.00
      L1  H    10    28       P1  7948  1.00
      P1  H  7989  7998       L1    21  0.25
      P1  H 11000 11005       L1    17  0.84

> <Gold.PLP.Chemscore.Internal.Correction>
0.2170

> <Gold.Rescore>
     Score         DG    S(hbond)    S(metal)    S(lipo)     H(rot)  DE(clash)    DE(int)     intcor
     14.06     -18.75       2.84        0.00      71.19       1.78       1.70       2.99       ----

> <Gold.Chemscore.Fitness>
14.0585

> <Gold.Chemscore.DG>
-18.7453

> <Gold.Chemscore.ZeroCoef>
-5.4800

> <Gold.Chemscore.Hbond>
2.8422

> <Gold.Chemscore.Metal>
0.0000

> <Gold.Chemscore.Lipo>
71.1912

> <Gold.Chemscore.Internal_Hbond>
0.0000

> <Gold.Chemscore.DEClash>
1.7006

> <Gold.Chemscore.DEInternal>
2.9862

> <Gold.Chemscore.Rot>
1.7801

> <Gold.Chemscore.Internal.Correction>
   9.000000E+99

> <Gold.Chemscore.Hbonds>
donor molecule, donor type, donor heavy atom, donor atom, acceptor molecule, acceptor atom, score
      L1  H     7    27       P1  7948  0.94
      L1  H    10    28       P1  7948  1.00
      P1  H 11000 11005       L1    17  0.63

> <Gold.Chemscore.Hbond.Weighted>
-9.4929

> <Gold.Chemscore.Metal.Weighted>
-0.0000

> <Gold.Chemscore.Lipo.Weighted>
-8.3294

> <Gold.Chemscore.Internal_Hbond.Weighted>
0.0000

> <Gold.Chemscore.DEClash.Weighted>
1.7006

> <Gold.Chemscore.DEInternal.Weighted>
2.9862

> <Gold.Chemscore.Rot.Weighted>
4.5570

> <Gold.Chemscore.Internal.Correction.Weighted>
   9.000000E+99

> <Gold.Protein.RotatedTorsions>
[ 6907 6896 6895 6894 ] final  -86.28 input  -60.11 | X-H torsion
[ 7974 7965 7964 7962 ] final -118.08 input  175.53 | X-H torsion
[ 8008 7997 7996 7995 ] final  -60.71 input   59.86 | X-H torsion
[ 10167 10162 10161 10158 ] final   97.87 input  -65.29 | X-H torsion
[ 10718 10713 10712 10709 ] final  -23.83 input   66.30 | X-H torsion
[ 10763 10752 10751 10750 ] final  -21.66 input  -60.55 | X-H torsion
[ 11005 11000 10999 10996 ] final   25.49 input  -57.11 | X-H torsion

> <Gold.Protein.ActiveResidues>
 VAL166  LYS551  ARG553  GLY616  TRP617  ASP618  TYR619  PRO620  LYS621  CYS622 
 ASP623  PHE694  ASN695  SER759  ASP760  ASP761  ALA762  ILE779  LEU786  VAL792 
 PHE793  MET794  SER795  GLU796  ALA797  LYS798  CYS799  TRP800  GLU811  SER814 

> <Gold.Protein.RotatedAtoms>
  150.6867  134.3075  159.4731 H   0  0  0  0  0  0  0  0  0  0  0  0  # atno 6907 bound_to 6896
  152.0964  134.9369  160.0580 H   0  0  0  0  0  0  0  0  0  0  0  0  # atno 6908 bound_to 6896
  152.0665  133.4052  159.4477 H   0  0  0  0  0  0  0  0  0  0  0  0  # atno 6909 bound_to 6896
  145.0779  140.8405  143.4056 H   0  0  0  0  0  0  0  0  0  0  0  0  # atno 7974 bound_to 7965
  154.4412  140.1033  156.6316 H   0  0  0  0  0  0  0  0  0  0  0  0  # atno 8008 bound_to 7997
  155.5598  140.3487  155.4470 H   0  0  0  0  0  0  0  0  0  0  0  0  # atno 8009 bound_to 7997
  156.0468  140.1294  157.0084 H   0  0  0  0  0  0  0  0  0  0  0  0  # atno 8010 bound_to 7997
  139.7761  144.6905  151.0088 H   0  0  0  0  0  0  0  0  0  0  0  0  # atno 10167 bound_to 10162
  156.4858  130.4555  149.6784 H   0  0  0  0  0  0  0  0  0  0  0  0  # atno 10718 bound_to 10713
  153.6397  135.6985  153.5246 H   0  0  0  0  0  0  0  0  0  0  0  0  # atno 10763 bound_to 10752
  153.2792  135.4191  155.1062 H   0  0  0  0  0  0  0  0  0  0  0  0  # atno 10764 bound_to 10752
  154.8502  135.3598  154.5941 H   0  0  0  0  0  0  0  0  0  0  0  0  # atno 10765 bound_to 10752
  140.3473  134.2267  155.7683 H   0  0  0  0  0  0  0  0  0  0  0  0  # atno 11005 bound_to 11000
  145.1214  139.2691  143.5587 LP  0  0  0  0  0  0  0  0  0  0  0  0  # atno 17320 bound_to 7965
  146.3530  140.0838  142.8616 LP  0  0  0  0  0  0  0  0  0  0  0  0  # atno 17321 bound_to 7965
  140.7816  143.4534  151.0380 LP  0  0  0  0  0  0  0  0  0  0  0  0  # atno 17342 bound_to 10162
  139.8217  143.7811  152.3177 LP  0  0  0  0  0  0  0  0  0  0  0  0  # atno 17343 bound_to 10162
  156.3476  130.7415  151.2370 LP  0  0  0  0  0  0  0  0  0  0  0  0  # atno 17370 bound_to 10713
  157.7479  131.0386  150.4511 LP  0  0  0  0  0  0  0  0  0  0  0  0  # atno 17371 bound_to 10713
  141.2022  133.7944  157.0403 LP  0  0  0  0  0  0  0  0  0  0  0  0  # atno 17394 bound_to 11000
  140.0732  134.9690  157.1502 LP  0  0  0  0  0  0  0  0  0  0  0  0  # atno 17395 bound_to 11000

$$$$
