AV-unprocessed.smi:3278|AV-procd|sdf|12542|dock4
  -GOLD-   2272018453D 1   1.00000     0.00000
 Structure written by MMmdl.
 39 40  0  0  0  0  0  0  0  0  2 V2000
  144.5232  141.8773  157.5160 C   0  0  0  0  0  0  0  0  0  0  0  0
  145.8324  141.4086  157.1154 N   0  0  0  0  0  0  0  0  0  0  0  0
  146.6493  141.8869  156.1143 C   0  0  0  0  0  0  0  0  0  0  0  0
  147.7887  141.1293  156.1102 C   0  0  0  0  0  0  0  0  0  0  0  0
  148.9932  141.2395  155.1991 C   0  0  1  0  0  0  0  0  0  0  0  0
  149.1956  139.9243  154.4262 C   0  0  0  0  0  0  0  0  0  0  0  0
  148.8206  142.2429  154.2155 O   0  0  0  0  0  0  0  0  0  0  0  0
  150.2638  141.5968  156.0002 C   0  0  0  0  0  0  0  0  0  0  0  0
  150.0329  142.7373  156.9162 N   0  3  0  0  0  0  0  0  0  0  0  0
  151.2018  143.1580  157.7192 C   0  0  1  0  0  0  0  0  0  0  0  0
  150.8936  144.4441  158.5178 C   0  0  0  0  0  0  0  0  0  0  0  0
  152.0981  144.9451  159.3317 C   0  0  0  0  0  0  0  0  0  0  0  0
  152.5721  143.9207  160.3709 C   0  0  0  0  0  0  0  0  0  0  0  0
  153.1286  142.3935  159.5702 S   0  0  0  0  0  0  0  0  0  0  0  0
  151.6126  142.0057  158.6537 C   0  0  0  0  0  0  0  0  0  0  0  0
  147.5624  140.2016  157.1702 C   0  0  0  0  0  0  0  0  0  0  0  0
  146.3925  140.3681  157.7636 N   0  0  0  0  0  0  0  0  0  0  0  0
  144.2109  142.7059  156.8795 H   0  0  0  0  0  0  0  0  0  0  0  0
  144.5540  142.2179  158.5515 H   0  0  0  0  0  0  0  0  0  0  0  0
  143.7974  141.0683  157.4258 H   0  0  0  0  0  0  0  0  0  0  0  0
  146.3554  142.7196  155.4919 H   0  0  0  0  0  0  0  0  0  0  0  0
  149.3727  139.0873  155.1022 H   0  0  0  0  0  0  0  0  0  0  0  0
  150.0515  139.9837  153.7524 H   0  0  0  0  0  0  0  0  0  0  0  0
  148.3193  139.6796  153.8242 H   0  0  0  0  0  0  0  0  0  0  0  0
  148.6116  143.0581  154.6463 H   0  0  0  0  0  0  0  0  0  0  0  0
  150.5784  140.7362  156.5924 H   0  0  0  0  0  0  0  0  0  0  0  0
  151.0829  141.8241  155.3177 H   0  0  0  0  0  0  0  0  0  0  0  0
  149.6961  143.5267  156.3835 H   0  0  0  0  0  0  0  0  0  0  0  0
  152.0310  143.3476  157.0353 H   0  0  0  0  0  0  0  0  0  0  0  0
  150.5859  145.2424  157.8433 H   0  0  0  0  0  0  0  0  0  0  0  0
  150.0497  144.2708  159.1871 H   0  0  0  0  0  0  0  0  0  0  0  0
  152.9204  145.1955  158.6600 H   0  0  0  0  0  0  0  0  0  0  0  0
  151.8275  145.8713  159.8399 H   0  0  0  0  0  0  0  0  0  0  0  0
  153.3955  144.3299  160.9568 H   0  0  0  0  0  0  0  0  0  0  0  0
  151.7679  143.6854  161.0689 H   0  0  0  0  0  0  0  0  0  0  0  0
  150.8163  141.7850  159.3658 H   0  0  0  0  0  0  0  0  0  0  0  0
  151.7884  141.0946  158.0805 H   0  0  0  0  0  0  0  0  0  0  0  0
  148.2094  139.4108  157.5204 H   0  0  0  0  0  0  0  0  0  0  0  0
  149.3049  142.4556  157.5574 H   0  0  0  0  0  0  0  0  0  0  0  0
  1  2  1  0  0  0  0
  1 18  1  0  0  0  0
  1 19  1  0  0  0  0
  1 20  1  0  0  0  0
  2 17  1  0  0  0  0
  2  3  1  0  0  0  0
  3  4  2  0  0  0  0
  3 21  1  0  0  0  0
  4  5  1  0  0  0  0
  4 16  1  0  0  0  0
  5  6  1  0  0  0  0
  5  7  1  0  0  0  0
  5  8  1  0  0  0  0
  6 22  1  0  0  0  0
  6 23  1  0  0  0  0
  6 24  1  0  0  0  0
  7 25  1  0  0  0  0
  8  9  1  0  0  0  0
  8 26  1  0  0  0  0
  8 27  1  0  0  0  0
  9 10  1  0  0  0  0
  9 28  1  0  0  0  0
  9 39  1  0  0  0  0
 10 15  1  0  0  0  0
 10 11  1  0  0  0  0
 10 29  1  0  0  0  0
 11 12  1  0  0  0  0
 11 30  1  0  0  0  0
 11 31  1  0  0  0  0
 12 13  1  0  0  0  0
 12 32  1  0  0  0  0
 12 33  1  0  0  0  0
 13 14  1  0  0  0  0
 13 34  1  0  0  0  0
 13 35  1  0  0  0  0
 14 15  1  0  0  0  0
 15 36  1  0  0  0  0
 15 37  1  0  0  0  0
 16 17  2  0  0  0  0
 16 38  1  0  0  0  0
M  CHG  1   9   1
M  END
> <s_m_source_file>
AV-unprocessed.smi

> <i_m_source_file_index>
3278

> <i_lp_mmshare_version>
43012

> <i_f3d_flags>
0

> <s_epik_input>
W0NIM11uMVtjSF1jKFtjSF1uMSlbQ0BAXShbQ0gzXSkoW09IXSlbQ0gyXVtOSF1bQ0BASF0yW0NIMl1bQ0gyXVtDSDJdU1tDSDJdMg==

> <s_epik_cmdline>
J2VwaWtfcHl0aG9uJywgJy1waCcsICc3LjAnLCAnLXRuJywgJzgnLCAnLW1hJywgJzIwMCcsICctbWV0YWxfYmluZGluZycsICctaW1hZScsICc8aW5maWxlLm1hZT4nLCAnLW9tYWUnLCAnPG91dGZpbGUubWFlPic=

> <r_lp_tautomer_probability>
1

> <r_epik_Ionization_Penalty>
0.0185703

> <r_epik_Ionization_Penalty_Charging>
0.0185619

> <r_epik_Ionization_Penalty_Neutral>
8.47286e-06

> <r_epik_State_Penalty>
0.0147768

> <r_epik_Charging_Adjusted_Penalty>
0.0333386

> <i_epik_Tot_Q>
1

> <i_epik_Tot_abs_Q>
1

> <r_epik_Metal_State_Penalty>
0.0147782

> <b_epik_Metal_Only>
0

> <s_lp_Force_Field>
OPLS_2005

> <r_lp_Energy>
8.69556

> <b_lp_Chiralities_Consistent>
1

> <s_lp_Variant>
AV-unprocessed.smi:3278-3

> <Gold.Version>
5.8.1

> <Gold.Id.Protein>
6NUR|6NUR_protein|mol2

> <Gold.PLP.Fitness>
44.7495

> <Gold.PLP.PLP>
-35.0606

> <Gold.PLP.part.hbond>
-2.8581

> <Gold.PLP.part.metal>
0.0000

> <Gold.PLP.part.buried>
-3.1803

> <Gold.PLP.part.nonpolar>
-28.5183

> <Gold.PLP.part.repulsive>
0.0327

> <Gold.PLP.ligand.clash>
0.0000

> <Gold.PLP.ligand.torsion>
0.1308

> <Gold.PLP.Chemscore.Hbond>
3.2720

> <Gold.PLP.Chemscore.CHOScore>
0.0369

> <Gold.PLP.Chemscore.Metal>
0.0000

> <Gold.Chemscore.Hbonds>
donor molecule, donor type, donor heavy atom, donor atom, acceptor molecule, acceptor atom, score
      L1  H     7    25       P1  8028  1.00
      L1  H     9    28       P1  8028  2.00
      P1  H  8011  8017       L1     7  0.22

> <Gold.PLP.Chemscore.Internal.Correction>
0.0237

> <Gold.Rescore>
     Score         DG    S(hbond)    S(metal)    S(lipo)     H(rot)  DE(clash)    DE(int)     intcor
     18.46     -18.66       2.15        0.00      94.96       2.00       0.03       0.17       ----

> <Gold.Chemscore.Fitness>
18.4558

> <Gold.Chemscore.DG>
-18.6555

> <Gold.Chemscore.ZeroCoef>
-5.4800

> <Gold.Chemscore.Hbond>
2.1543

> <Gold.Chemscore.Metal>
0.0000

> <Gold.Chemscore.Lipo>
94.9553

> <Gold.Chemscore.Internal_Hbond>
0.0000

> <Gold.Chemscore.DEClash>
0.0323

> <Gold.Chemscore.DEInternal>
0.1674

> <Gold.Chemscore.Rot>
2.0038

> <Gold.Chemscore.Internal.Correction>
   9.000000E+99

> <Gold.Chemscore.Hbonds>
donor molecule, donor type, donor heavy atom, donor atom, acceptor molecule, acceptor atom, score
      L1  H     7    25       P1  8028  0.99
      L1  H     9    28       P1  8028  0.99
      P1  H  8011  8017       L1     7  0.19

> <Gold.Chemscore.Hbond.Weighted>
-7.1953

> <Gold.Chemscore.Metal.Weighted>
-0.0000

> <Gold.Chemscore.Lipo.Weighted>
-11.1098

> <Gold.Chemscore.Internal_Hbond.Weighted>
0.0000

> <Gold.Chemscore.DEClash.Weighted>
0.0323

> <Gold.Chemscore.DEInternal.Weighted>
0.1674

> <Gold.Chemscore.Rot.Weighted>
5.1296

> <Gold.Chemscore.Internal.Correction.Weighted>
   9.000000E+99

> <Gold.Protein.RotatedTorsions>
[ 6907 6896 6895 6894 ] final   12.83 input  -60.11 | X-H torsion
[ 7974 7965 7964 7962 ] final  -80.68 input  175.53 | X-H torsion
[ 8008 7997 7996 7995 ] final    1.26 input   59.86 | X-H torsion
[ 10167 10162 10161 10158 ] final  -36.20 input  -65.29 | X-H torsion
[ 10718 10713 10712 10709 ] final -117.25 input   66.30 | X-H torsion
[ 10763 10752 10751 10750 ] final   33.16 input  -60.55 | X-H torsion
[ 11005 11000 10999 10996 ] final -113.70 input  -57.11 | X-H torsion

> <Gold.Protein.ActiveResidues>
 VAL166  LYS551  ARG553  GLY616  TRP617  ASP618  TYR619  PRO620  LYS621  CYS622 
 ASP623  PHE694  ASN695  SER759  ASP760  ASP761  ALA762  ILE779  LEU786  VAL792 
 PHE793  MET794  SER795  GLU796  ALA797  LYS798  CYS799  TRP800  GLU811  SER814 

> <Gold.Protein.RotatedAtoms>
  151.7766  135.0772  160.0367 H   0  0  0  0  0  0  0  0  0  0  0  0  # atno 6907 bound_to 6896
  152.3252  133.5893  159.5780 H   0  0  0  0  0  0  0  0  0  0  0  0  # atno 6908 bound_to 6896
  150.7391  133.9867  159.3635 H   0  0  0  0  0  0  0  0  0  0  0  0  # atno 6909 bound_to 6896
  145.5567  140.9488  143.1470 H   0  0  0  0  0  0  0  0  0  0  0  0  # atno 7974 bound_to 7965
  154.6777  140.2626  155.6941 H   0  0  0  0  0  0  0  0  0  0  0  0  # atno 8008 bound_to 7997
  156.2684  140.2816  156.1232 H   0  0  0  0  0  0  0  0  0  0  0  0  # atno 8009 bound_to 7997
  155.1077  140.0375  157.2705 H   0  0  0  0  0  0  0  0  0  0  0  0  # atno 8010 bound_to 7997
  140.7148  143.3425  151.2327 H   0  0  0  0  0  0  0  0  0  0  0  0  # atno 10167 bound_to 10162
  156.1021  130.6180  150.9141 H   0  0  0  0  0  0  0  0  0  0  0  0  # atno 10718 bound_to 10713
  153.0226  135.6394  154.1467 H   0  0  0  0  0  0  0  0  0  0  0  0  # atno 10763 bound_to 10752
  154.1200  135.2847  155.3212 H   0  0  0  0  0  0  0  0  0  0  0  0  # atno 10764 bound_to 10752
  154.6270  135.5505  153.7700 H   0  0  0  0  0  0  0  0  0  0  0  0  # atno 10765 bound_to 10752
  141.0598  133.9554  157.2688 H   0  0  0  0  0  0  0  0  0  0  0  0  # atno 11005 bound_to 11000
  144.7503  139.7212  143.7276 LP  0  0  0  0  0  0  0  0  0  0  0  0  # atno 17320 bound_to 7965
  146.1879  139.5105  142.9824 LP  0  0  0  0  0  0  0  0  0  0  0  0  # atno 17321 bound_to 7965
  139.6936  143.9651  152.2871 LP  0  0  0  0  0  0  0  0  0  0  0  0  # atno 17342 bound_to 10162
  139.9320  144.6735  150.8353 LP  0  0  0  0  0  0  0  0  0  0  0  0  # atno 17343 bound_to 10162
  157.6192  131.0931  150.8653 LP  0  0  0  0  0  0  0  0  0  0  0  0  # atno 17370 bound_to 10713
  156.8779  130.5169  149.5292 LP  0  0  0  0  0  0  0  0  0  0  0  0  # atno 17371 bound_to 10713
  139.9422  135.0189  156.8743 LP  0  0  0  0  0  0  0  0  0  0  0  0  # atno 17394 bound_to 11000
  140.5892  134.0278  155.7493 LP  0  0  0  0  0  0  0  0  0  0  0  0  # atno 17395 bound_to 11000

$$$$
