AV-unprocessed.smi:144|AV-procd|sdf|1195|dock4
  -GOLD-   2262018353D 1   1.00000     0.00000
 Structure written by MMmdl.
 46 48  0  0  0  0  0  0  0  0  1 V2000
  149.5304  131.9590  155.1404 O   0  0  0  0  0  0  0  0  0  0  0  0
  149.5839  133.0632  154.6015 C   0  0  0  0  0  0  0  0  0  0  0  0
  150.5703  134.1051  155.1622 C   0  0  0  0  0  0  0  0  0  0  0  0
  149.9741  135.4234  155.4832 N   0  0  0  0  0  0  0  0  0  0  0  0
  148.7645  135.4638  156.2204 C   0  0  0  0  0  0  0  0  0  0  0  0
  148.2078  134.4295  156.5907 O   0  0  0  0  0  0  0  0  0  0  0  0
  148.2494  136.7967  156.5134 C   0  0  0  0  0  0  0  0  0  0  0  0
  147.1012  136.9299  157.1984 F   0  0  0  0  0  0  0  0  0  0  0  0
  148.9114  137.9018  156.1130 C   0  0  0  0  0  0  0  0  0  0  0  0
  150.1012  137.8473  155.4094 N   0  0  0  0  0  0  0  0  0  0  0  0
  150.8449  139.0971  154.9890 C   0  0  2  0  0  0  0  0  0  0  0  0
  151.4552  139.7996  156.2161 C   0  0  0  0  0  0  0  0  0  0  0  0
  151.0030  141.2345  156.0348 C   0  0  0  0  0  0  0  0  0  0  0  0
  149.6790  141.0553  155.3073 C   0  0  0  0  0  0  0  0  0  0  0  0
  149.9577  140.0013  154.3947 O   0  0  0  0  0  0  0  0  0  0  0  0
  150.6559  136.5941  155.0729 C   0  0  0  0  0  0  0  0  0  0  0  0
  151.7187  136.5241  154.4517 O   0  0  0  0  0  0  0  0  0  0  0  0
  148.8168  133.4336  153.5569 N   0  0  0  0  0  0  0  0  0  0  0  0
  147.8075  132.7006  152.8790 C   0  0  0  0  0  0  0  0  0  0  0  0
  147.8825  131.2954  152.9532 C   0  0  0  0  0  0  0  0  0  0  0  0
  146.9190  130.4875  152.3130 C   0  0  0  0  0  0  0  0  0  0  0  0
  147.0034  128.9704  152.3866 C   0  0  0  0  0  0  0  0  0  0  0  0
  145.8594  128.4914  152.8733 F   0  0  0  0  0  0  0  0  0  0  0  0
  147.2019  128.4591  151.1716 F   0  0  0  0  0  0  0  0  0  0  0  0
  148.0035  128.5737  153.1747 F   0  0  0  0  0  0  0  0  0  0  0  0
  145.8584  131.0991  151.6129 C   0  0  0  0  0  0  0  0  0  0  0  0
  145.7538  132.5052  151.5517 C   0  0  0  0  0  0  0  0  0  0  0  0
  144.6068  133.1662  150.8012 C   0  0  0  0  0  0  0  0  0  0  0  0
  144.5453  132.7106  149.5496 F   0  0  0  0  0  0  0  0  0  0  0  0
  143.4599  132.8845  151.4178 F   0  0  0  0  0  0  0  0  0  0  0  0
  144.7539  134.4907  150.7552 F   0  0  0  0  0  0  0  0  0  0  0  0
  146.7317  133.3021  152.1841 C   0  0  0  0  0  0  0  0  0  0  0  0
  151.0463  133.6780  156.0464 H   0  0  0  0  0  0  0  0  0  0  0  0
  151.3918  134.2070  154.4515 H   0  0  0  0  0  0  0  0  0  0  0  0
  148.4775  138.8576  156.3634 H   0  0  0  0  0  0  0  0  0  0  0  0
  151.5778  138.7743  154.2473 H   0  0  0  0  0  0  0  0  0  0  0  0
  151.0391  139.3835  157.1353 H   0  0  0  0  0  0  0  0  0  0  0  0
  152.5394  139.6868  156.2342 H   0  0  0  0  0  0  0  0  0  0  0  0
  150.9040  141.7747  156.9766 H   0  0  0  0  0  0  0  0  0  0  0  0
  151.7080  141.7742  155.4009 H   0  0  0  0  0  0  0  0  0  0  0  0
  148.8936  140.7544  156.0018 H   0  0  0  0  0  0  0  0  0  0  0  0
  149.3551  141.9586  154.7899 H   0  0  0  0  0  0  0  0  0  0  0  0
  148.9154  134.3961  153.2686 H   0  0  0  0  0  0  0  0  0  0  0  0
  148.6928  130.8367  153.5012 H   0  0  0  0  0  0  0  0  0  0  0  0
  145.1192  130.4801  151.1264 H   0  0  0  0  0  0  0  0  0  0  0  0
  146.6305  134.3752  152.1361 H   0  0  0  0  0  0  0  0  0  0  0  0
  1  2  2  0  0  0  0
  2  3  1  0  0  0  0
  2 18  1  0  0  0  0
  3  4  1  0  0  0  0
  3 33  1  0  0  0  0
  3 34  1  0  0  0  0
  4 16  1  0  0  0  0
  4  5  1  0  0  0  0
  5  6  2  0  0  0  0
  5  7  1  0  0  0  0
  7  8  1  0  0  0  0
  7  9  2  0  0  0  0
  9 10  1  0  0  0  0
  9 35  1  0  0  0  0
 10 11  1  0  0  0  0
 10 16  1  0  0  0  0
 11 15  1  0  0  0  0
 11 12  1  0  0  0  0
 11 36  1  0  0  0  0
 12 13  1  0  0  0  0
 12 37  1  0  0  0  0
 12 38  1  0  0  0  0
 13 14  1  0  0  0  0
 13 39  1  0  0  0  0
 13 40  1  0  0  0  0
 14 15  1  0  0  0  0
 14 41  1  0  0  0  0
 14 42  1  0  0  0  0
 16 17  2  0  0  0  0
 18 19  1  0  0  0  0
 18 43  1  0  0  0  0
 19 32  1  0  0  0  0
 19 20  2  0  0  0  0
 20 21  1  0  0  0  0
 20 44  1  0  0  0  0
 21 22  1  0  0  0  0
 21 26  2  0  0  0  0
 22 23  1  0  0  0  0
 22 24  1  0  0  0  0
 22 25  1  0  0  0  0
 26 27  1  0  0  0  0
 26 45  1  0  0  0  0
 27 28  1  0  0  0  0
 27 32  2  0  0  0  0
 28 29  1  0  0  0  0
 28 30  1  0  0  0  0
 28 31  1  0  0  0  0
 32 46  1  0  0  0  0
M  END
> <s_m_source_file>
AV-unprocessed.smi

> <i_m_source_file_index>
144

> <i_lp_mmshare_version>
43012

> <i_f3d_flags>
0

> <s_epik_input>
RkMoRikoRiljKFtjSF0xKVtjSF1jKEMoRikoRilGKVtjSF1jMVtOSF1DKD1PKVtDSDJdbjJjKD1PKWMoRilbY0hdbihjMj1PKVtDQEBIXTNbQ0gyXVtDSDJdW0NIMl1PMw==

> <s_epik_cmdline>
J2VwaWtfcHl0aG9uJywgJy1waCcsICc3LjAnLCAnLXRuJywgJzgnLCAnLW1hJywgJzIwMCcsICctbWV0YWxfYmluZGluZycsICctaW1hZScsICc8aW5maWxlLm1hZT4nLCAnLW9tYWUnLCAnPG91dGZpbGUubWFlPic=

> <r_lp_tautomer_probability>
1

> <r_epik_Ionization_Penalty>
3.68082e-06

> <r_epik_Ionization_Penalty_Charging>
3.88729e-08

> <r_epik_Ionization_Penalty_Neutral>
3.64194e-06

> <r_epik_State_Penalty>
-0

> <r_epik_Charging_Adjusted_Penalty>
3.88729e-08

> <i_epik_Tot_Q>
0

> <i_epik_Tot_abs_Q>
0

> <r_epik_Metal_State_Penalty>
-0

> <b_epik_Metal_Only>
0

> <s_epik_Chemistry_Notes>
This compound contains an acetal/aminal-like group ( X-CH(R)-Y where X, Y are N, S, or O) that may be acid/base labile, releasing an aldehyde.

> <s_lp_Force_Field>
OPLS_2005

> <r_lp_Energy>
34.4133

> <b_lp_Chiralities_Consistent>
1

> <s_lp_Variant>
AV-unprocessed.smi:144-1

> <Gold.Version>
5.8.1

> <Gold.Id.Protein>
6NUR|6NUR_protein|mol2

> <Gold.PLP.Fitness>
56.5374

> <Gold.PLP.PLP>
-53.8868

> <Gold.PLP.part.hbond>
-2.1546

> <Gold.PLP.part.metal>
0.0000

> <Gold.PLP.part.buried>
-4.5587

> <Gold.PLP.part.nonpolar>
-47.7439

> <Gold.PLP.part.repulsive>
0.4574

> <Gold.PLP.ligand.clash>
1.8996

> <Gold.PLP.ligand.torsion>
0.7514

> <Gold.PLP.Chemscore.Hbond>
1.5197

> <Gold.PLP.Chemscore.CHOScore>
0.0000

> <Gold.PLP.Chemscore.Metal>
0.0000

> <Gold.Chemscore.Hbonds>
donor molecule, donor type, donor heavy atom, donor atom, acceptor molecule, acceptor atom, score
      L1  H    18    43       P1  7948  0.28
      P1  H  7989  7998       L1    15  0.26
      P1  H 10752 10764       L1    17  0.94

> <Gold.PLP.Chemscore.Internal.Correction>
1.4939

> <Gold.Rescore>
     Score         DG    S(hbond)    S(metal)    S(lipo)     H(rot)  DE(clash)    DE(int)     intcor
      9.94     -13.56       1.01        0.00      80.39       1.83       0.01       3.62       ----

> <Gold.Chemscore.Fitness>
9.9383

> <Gold.Chemscore.DG>
-13.5643

> <Gold.Chemscore.ZeroCoef>
-5.4800

> <Gold.Chemscore.Hbond>
1.0090

> <Gold.Chemscore.Metal>
0.0000

> <Gold.Chemscore.Lipo>
80.3891

> <Gold.Chemscore.Internal_Hbond>
0.0000

> <Gold.Chemscore.DEClash>
0.0073

> <Gold.Chemscore.DEInternal>
3.6187

> <Gold.Chemscore.Rot>
1.8325

> <Gold.Chemscore.Internal.Correction>
   9.000000E+99

> <Gold.Chemscore.Hbonds>
donor molecule, donor type, donor heavy atom, donor atom, acceptor molecule, acceptor atom, score
      L1  H    18    43       P1  7948  0.03
      P1  H 10752 10764       L1    17  0.90

> <Gold.Chemscore.Hbond.Weighted>
-3.3699

> <Gold.Chemscore.Metal.Weighted>
-0.0000

> <Gold.Chemscore.Lipo.Weighted>
-9.4055

> <Gold.Chemscore.Internal_Hbond.Weighted>
0.0000

> <Gold.Chemscore.DEClash.Weighted>
0.0073

> <Gold.Chemscore.DEInternal.Weighted>
3.6187

> <Gold.Chemscore.Rot.Weighted>
4.6911

> <Gold.Chemscore.Internal.Correction.Weighted>
   9.000000E+99

> <Gold.Protein.RotatedTorsions>
[ 6907 6896 6895 6894 ] final   92.83 input  -60.11 | X-H torsion
[ 7974 7965 7964 7962 ] final -115.59 input  175.53 | X-H torsion
[ 8008 7997 7996 7995 ] final   -8.44 input   59.86 | X-H torsion
[ 10167 10162 10161 10158 ] final  -77.55 input  -65.29 | X-H torsion
[ 10718 10713 10712 10709 ] final  -18.99 input   66.30 | X-H torsion
[ 10763 10752 10751 10750 ] final  -80.76 input  -60.55 | X-H torsion
[ 11005 11000 10999 10996 ] final  -54.12 input  -57.11 | X-H torsion

> <Gold.Protein.ActiveResidues>
 VAL166  LYS551  ARG553  GLY616  TRP617  ASP618  TYR619  PRO620  LYS621  CYS622 
 ASP623  PHE694  ASN695  SER759  ASP760  ASP761  ALA762  ILE779  LEU786  VAL792 
 PHE793  MET794  SER795  GLU796  ALA797  LYS798  CYS799  TRP800  GLU811  SER814 

> <Gold.Protein.RotatedAtoms>
  152.5453  134.1442  159.8491 H   0  0  0  0  0  0  0  0  0  0  0  0  # atno 6907 bound_to 6896
  151.1475  133.4922  159.2603 H   0  0  0  0  0  0  0  0  0  0  0  0  # atno 6908 bound_to 6896
  151.1507  135.0236  159.8722 H   0  0  0  0  0  0  0  0  0  0  0  0  # atno 6909 bound_to 6896
  145.1066  140.8585  143.3894 H   0  0  0  0  0  0  0  0  0  0  0  0  # atno 7974 bound_to 7965
  154.5741  140.2381  155.8148 H   0  0  0  0  0  0  0  0  0  0  0  0  # atno 8008 bound_to 7997
  156.2129  140.3020  155.9731 H   0  0  0  0  0  0  0  0  0  0  0  0  # atno 8009 bound_to 7997
  155.2659  140.0416  157.2992 H   0  0  0  0  0  0  0  0  0  0  0  0  # atno 8010 bound_to 7997
  140.4760  143.2414  151.8132 H   0  0  0  0  0  0  0  0  0  0  0  0  # atno 10167 bound_to 10162
  156.5519  130.4704  149.6448 H   0  0  0  0  0  0  0  0  0  0  0  0  # atno 10718 bound_to 10713
  154.5552  135.5650  153.6957 H   0  0  0  0  0  0  0  0  0  0  0  0  # atno 10763 bound_to 10752
  153.0001  135.6260  154.2320 H   0  0  0  0  0  0  0  0  0  0  0  0  # atno 10764 bound_to 10752
  154.2256  135.2868  155.2888 H   0  0  0  0  0  0  0  0  0  0  0  0  # atno 10765 bound_to 10752
  141.1010  133.6618  156.4272 H   0  0  0  0  0  0  0  0  0  0  0  0  # atno 11005 bound_to 11000
  145.0894  139.2901  143.5742 LP  0  0  0  0  0  0  0  0  0  0  0  0  # atno 17320 bound_to 7965
  146.3528  140.0427  142.8642 LP  0  0  0  0  0  0  0  0  0  0  0  0  # atno 17321 bound_to 7965
  139.4825  144.4832  151.9279 LP  0  0  0  0  0  0  0  0  0  0  0  0  # atno 17342 bound_to 10162
  140.3918  144.2606  150.5899 LP  0  0  0  0  0  0  0  0  0  0  0  0  # atno 17343 bound_to 10162
  156.2877  130.7106  151.1947 LP  0  0  0  0  0  0  0  0  0  0  0  0  # atno 17370 bound_to 10713
  157.7386  131.0539  150.5286 LP  0  0  0  0  0  0  0  0  0  0  0  0  # atno 17371 bound_to 10713
  140.5022  134.6474  157.5253 LP  0  0  0  0  0  0  0  0  0  0  0  0  # atno 17394 bound_to 11000
  139.9861  134.7059  155.9771 LP  0  0  0  0  0  0  0  0  0  0  0  0  # atno 17395 bound_to 11000

$$$$
