AV-unprocessed.smi:1033|AV-procd|sdf|4501|dock2
  -GOLD-   22720 2493D 1   1.00000     0.00000
 Structure written by MMmdl.
 57 59  0  0  0  0  0  0  0  0  3 V2000
  151.9097  144.3867  160.8081 C   0  0  0  0  0  0  0  0  0  0  0  0
  151.7900  143.3267  159.7261 C   0  0  0  0  0  0  0  0  0  0  0  0
  150.9345  143.5766  158.6293 C   0  0  0  0  0  0  0  0  0  0  0  0
  150.8472  142.5890  157.6553 C   0  0  0  0  0  0  0  0  0  0  0  0
  150.1028  142.5298  156.4752 N   0  3  0  0  0  0  0  0  0  0  0  0
  150.3446  141.3476  155.8438 C   0  0  0  0  0  0  0  0  0  0  0  0
  151.2428  140.6563  156.5979 N   0  0  0  0  0  0  0  0  0  0  0  0
  151.8396  139.3318  156.3826 C   0  0  0  0  0  0  0  0  0  0  0  0
  151.0723  138.4761  155.3533 C   0  0  1  0  0  0  0  0  0  0  0  0
  151.8602  137.3321  155.0930 O   0  0  0  0  0  0  0  0  0  0  0  0
  149.6780  138.0308  155.8483 C   0  0  0  0  0  0  0  0  0  0  0  0
  149.7409  137.0016  156.9175 N   0  3  0  0  0  0  0  0  0  0  0  0
  148.8403  135.8407  156.6815 C   0  0  0  0  0  0  0  0  0  0  0  0
  148.9984  134.8012  157.8102 C   0  0  0  0  0  0  0  0  0  0  0  0
  148.7535  135.3513  159.1461 N   0  0  0  0  0  0  0  0  0  0  0  0
  147.3507  135.6780  159.4279 C   0  0  0  0  0  0  0  0  0  0  0  0
  146.9288  135.5729  160.9068 C   0  0  1  0  0  0  0  0  0  0  0  0
  147.3230  134.2354  161.5496 C   0  0  0  0  0  0  0  0  0  0  0  0
  147.5700  136.6087  161.6202 O   0  0  0  0  0  0  0  0  0  0  0  0
  149.6507  136.4878  159.3502 C   0  0  0  0  0  0  0  0  0  0  0  0
  149.5093  137.5772  158.2677 C   0  0  0  0  0  0  0  0  0  0  0  0
  151.5754  141.3869  157.7435 C   0  0  0  0  0  0  0  0  0  0  0  0
  152.4188  141.1220  158.8197 C   0  0  0  0  0  0  0  0  0  0  0  0
  152.5212  142.1141  159.8211 C   0  0  0  0  0  0  0  0  0  0  0  0
  153.4340  141.8543  161.0074 C   0  0  0  0  0  0  0  0  0  0  0  0
  151.3149  145.2692  160.5699 H   0  0  0  0  0  0  0  0  0  0  0  0
  152.9463  144.7052  160.9203 H   0  0  0  0  0  0  0  0  0  0  0  0
  151.5605  143.9977  161.7648 H   0  0  0  0  0  0  0  0  0  0  0  0
  150.3714  144.4956  158.5536 H   0  0  0  0  0  0  0  0  0  0  0  0
  149.9057  141.0206  154.9119 H   0  0  0  0  0  0  0  0  0  0  0  0
  152.8779  139.4727  156.0784 H   0  0  0  0  0  0  0  0  0  0  0  0
  151.8666  138.8269  157.3496 H   0  0  0  0  0  0  0  0  0  0  0  0
  150.9874  139.0413  154.4264 H   0  0  0  0  0  0  0  0  0  0  0  0
  152.7194  137.4562  155.4660 H   0  0  0  0  0  0  0  0  0  0  0  0
  149.1472  138.9105  156.2161 H   0  0  0  0  0  0  0  0  0  0  0  0
  149.0775  137.6386  155.0270 H   0  0  0  0  0  0  0  0  0  0  0  0
  147.8056  136.1773  156.6063 H   0  0  0  0  0  0  0  0  0  0  0  0
  149.0805  135.3643  155.7318 H   0  0  0  0  0  0  0  0  0  0  0  0
  148.3512  133.9456  157.6224 H   0  0  0  0  0  0  0  0  0  0  0  0
  150.0139  134.4039  157.7759 H   0  0  0  0  0  0  0  0  0  0  0  0
  147.1552  136.6995  159.0984 H   0  0  0  0  0  0  0  0  0  0  0  0
  146.6936  135.0487  158.8282 H   0  0  0  0  0  0  0  0  0  0  0  0
  145.8566  135.7310  161.0152 H   0  0  0  0  0  0  0  0  0  0  0  0
  146.8269  133.4004  161.0545 H   0  0  0  0  0  0  0  0  0  0  0  0
  147.0394  134.2062  162.6020 H   0  0  0  0  0  0  0  0  0  0  0  0
  148.3985  134.0653  161.4894 H   0  0  0  0  0  0  0  0  0  0  0  0
  147.1908  136.6603  162.4845 H   0  0  0  0  0  0  0  0  0  0  0  0
  149.4816  136.9209  160.3366 H   0  0  0  0  0  0  0  0  0  0  0  0
  150.6811  136.1296  159.3580 H   0  0  0  0  0  0  0  0  0  0  0  0
  150.2385  138.3658  158.4577 H   0  0  0  0  0  0  0  0  0  0  0  0
  148.5245  138.0444  158.3098 H   0  0  0  0  0  0  0  0  0  0  0  0
  152.9723  140.1975  158.8938 H   0  0  0  0  0  0  0  0  0  0  0  0
  153.8941  140.8674  160.9493 H   0  0  0  0  0  0  0  0  0  0  0  0
  152.8731  141.9046  161.9409 H   0  0  0  0  0  0  0  0  0  0  0  0
  154.2348  142.5934  161.0428 H   0  0  0  0  0  0  0  0  0  0  0  0
  150.6866  136.6472  156.9259 H   0  0  0  0  0  0  0  0  0  0  0  0
  149.4709  143.2400  156.1274 H   0  0  0  0  0  0  0  0  0  0  0  0
  1  2  1  0  0  0  0
  1 26  1  0  0  0  0
  1 27  1  0  0  0  0
  1 28  1  0  0  0  0
  2 24  1  0  0  0  0
  2  3  2  0  0  0  0
  3  4  1  0  0  0  0
  3 29  1  0  0  0  0
  4 22  2  0  0  0  0
  4  5  1  0  0  0  0
  5  6  2  0  0  0  0
  5 57  1  0  0  0  0
  6  7  1  0  0  0  0
  6 30  1  0  0  0  0
  7  8  1  0  0  0  0
  7 22  1  0  0  0  0
  8  9  1  0  0  0  0
  8 31  1  0  0  0  0
  8 32  1  0  0  0  0
  9 10  1  0  0  0  0
  9 11  1  0  0  0  0
  9 33  1  0  0  0  0
 10 34  1  0  0  0  0
 11 12  1  0  0  0  0
 11 35  1  0  0  0  0
 11 36  1  0  0  0  0
 12 21  1  0  0  0  0
 12 13  1  0  0  0  0
 12 56  1  0  0  0  0
 13 14  1  0  0  0  0
 13 37  1  0  0  0  0
 13 38  1  0  0  0  0
 14 15  1  0  0  0  0
 14 39  1  0  0  0  0
 14 40  1  0  0  0  0
 15 16  1  0  0  0  0
 15 20  1  0  0  0  0
 16 17  1  0  0  0  0
 16 41  1  0  0  0  0
 16 42  1  0  0  0  0
 17 18  1  0  0  0  0
 17 19  1  0  0  0  0
 17 43  1  0  0  0  0
 18 44  1  0  0  0  0
 18 45  1  0  0  0  0
 18 46  1  0  0  0  0
 19 47  1  0  0  0  0
 20 21  1  0  0  0  0
 20 48  1  0  0  0  0
 20 49  1  0  0  0  0
 21 50  1  0  0  0  0
 21 51  1  0  0  0  0
 22 23  1  0  0  0  0
 23 24  2  0  0  0  0
 23 52  1  0  0  0  0
 24 25  1  0  0  0  0
 25 53  1  0  0  0  0
 25 54  1  0  0  0  0
 25 55  1  0  0  0  0
M  CHG  1   5   1
M  CHG  1  12   1
M  END
> <s_m_source_file>
AV-unprocessed.smi

> <i_m_source_file_index>
1033

> <i_lp_mmshare_version>
43012

> <i_f3d_flags>
0

> <s_epik_input>
W0NIM11jKFtjSF0xKWMoW0NIM10pW2NIXWMoYzEyKW4oW2NIXW4yKVtDSDJdW0NASF0oW09IXSlbQ0gyXU4zW0NIMl1bQ0gyXU4oW0NIMl1bQ0gyXTMpW0NIMl1bQ0BIXShbQ0gzXSlbT0hd

> <s_epik_cmdline>
J2VwaWtfcHl0aG9uJywgJy1waCcsICc3LjAnLCAnLXRuJywgJzgnLCAnLW1hJywgJzIwMCcsICctbWV0YWxfYmluZGluZycsICctaW1hZScsICc8aW5maWxlLm1hZT4nLCAnLW9tYWUnLCAnPG91dGZpbGUubWFlPic=

> <r_epik_Ionization_Penalty>
1.22049

> <r_epik_Ionization_Penalty_Charging>
1.17952

> <r_epik_Ionization_Penalty_Neutral>
0.0409743

> <r_epik_State_Penalty>
1.61468

> <r_epik_Charging_Adjusted_Penalty>
2.7942

> <i_epik_Tot_Q>
2

> <i_epik_Tot_abs_Q>
2

> <r_epik_Metal_State_Penalty>
5.63169

> <b_epik_Metal_Only>
0

> <s_lp_Force_Field>
OPLS_2005

> <r_lp_Energy>
46.1755

> <b_lp_Chiralities_Consistent>
1

> <s_lp_Variant>
AV-unprocessed.smi:1033-12

> <Gold.Version>
5.8.1

> <Gold.Id.Protein>
6NUR|6NUR_protein|mol2

> <Gold.PLP.Fitness>
56.5349

> <Gold.PLP.PLP>
-47.7916

> <Gold.PLP.part.hbond>
-4.2041

> <Gold.PLP.part.metal>
0.0000

> <Gold.PLP.part.buried>
-5.7456

> <Gold.PLP.part.nonpolar>
-37.6018

> <Gold.PLP.part.repulsive>
0.1401

> <Gold.PLP.ligand.clash>
0.0000

> <Gold.PLP.ligand.torsion>
1.3315

> <Gold.PLP.Chemscore.Hbond>
3.7120

> <Gold.PLP.Chemscore.CHOScore>
0.0000

> <Gold.PLP.Chemscore.Metal>
0.0000

> <Gold.Chemscore.Hbonds>
donor molecule, donor type, donor heavy atom, donor atom, acceptor molecule, acceptor atom, score
      L1  H     5    57       P1  8028  2.00
      P1  H  6931  6943       L1    19  0.43

> <Gold.PLP.Chemscore.Internal.Correction>
0.2704

> <Gold.Rescore>
     Score         DG    S(hbond)    S(metal)    S(lipo)     H(rot)  DE(clash)    DE(int)     intcor
     17.96     -19.58       2.20        0.00     126.48       3.15       0.07       1.55       ----

> <Gold.Chemscore.Fitness>
17.9641

> <Gold.Chemscore.DG>
-19.5802

> <Gold.Chemscore.ZeroCoef>
-5.4800

> <Gold.Chemscore.Hbond>
2.2041

> <Gold.Chemscore.Metal>
0.0000

> <Gold.Chemscore.Lipo>
126.4811

> <Gold.Chemscore.Internal_Hbond>
0.0000

> <Gold.Chemscore.DEClash>
0.0673

> <Gold.Chemscore.DEInternal>
1.5488

> <Gold.Chemscore.Rot>
3.1483

> <Gold.Chemscore.Internal.Correction>
   9.000000E+99

> <Gold.Chemscore.Hbonds>
donor molecule, donor type, donor heavy atom, donor atom, acceptor molecule, acceptor atom, score
      L1  H     5    57       P1  8028  0.99
      P1  H  6931  6943       L1    19  0.06

> <Gold.Chemscore.Hbond.Weighted>
-7.3616

> <Gold.Chemscore.Metal.Weighted>
-0.0000

> <Gold.Chemscore.Lipo.Weighted>
-14.7983

> <Gold.Chemscore.Internal_Hbond.Weighted>
0.0000

> <Gold.Chemscore.DEClash.Weighted>
0.0673

> <Gold.Chemscore.DEInternal.Weighted>
1.5488

> <Gold.Chemscore.Rot.Weighted>
8.0597

> <Gold.Chemscore.Internal.Correction.Weighted>
   9.000000E+99

> <Gold.Protein.RotatedTorsions>
[ 6907 6896 6895 6894 ] final   80.53 input  -60.11 | X-H torsion
[ 7974 7965 7964 7962 ] final  -95.02 input  175.53 | X-H torsion
[ 8008 7997 7996 7995 ] final   33.37 input   59.86 | X-H torsion
[ 10167 10162 10161 10158 ] final -157.29 input  -65.29 | X-H torsion
[ 10718 10713 10712 10709 ] final   29.32 input   66.30 | X-H torsion
[ 10763 10752 10751 10750 ] final  111.89 input  -60.55 | X-H torsion
[ 11005 11000 10999 10996 ] final  112.54 input  -57.11 | X-H torsion

> <Gold.Protein.ActiveResidues>
 VAL166  LYS551  ARG553  GLY616  TRP617  ASP618  TYR619  PRO620  LYS621  CYS622 
 ASP623  PHE694  ASN695  SER759  ASP760  ASP761  ALA762  ILE779  LEU786  VAL792 
 PHE793  MET794  SER795  GLU796  ALA797  LYS798  CYS799  TRP800  GLU811  SER814 

> <Gold.Protein.RotatedAtoms>
  152.5238  134.3344  159.9194 H   0  0  0  0  0  0  0  0  0  0  0  0  # atno 6907 bound_to 6896
  151.3293  133.4001  159.2669 H   0  0  0  0  0  0  0  0  0  0  0  0  # atno 6908 bound_to 6896
  150.9894  134.9249  159.7948 H   0  0  0  0  0  0  0  0  0  0  0  0  # atno 6909 bound_to 6896
  145.3655  140.9498  143.2476 H   0  0  0  0  0  0  0  0  0  0  0  0  # atno 7974 bound_to 7965
  155.1375  140.3263  155.4460 H   0  0  0  0  0  0  0  0  0  0  0  0  # atno 8008 bound_to 7997
  156.2615  140.1999  156.6441 H   0  0  0  0  0  0  0  0  0  0  0  0  # atno 8009 bound_to 7997
  154.6567  140.0552  157.0003 H   0  0  0  0  0  0  0  0  0  0  0  0  # atno 8010 bound_to 7997
  139.6782  143.9627  152.2322 H   0  0  0  0  0  0  0  0  0  0  0  0  # atno 10167 bound_to 10162
  157.2450  130.7087  149.6377 H   0  0  0  0  0  0  0  0  0  0  0  0  # atno 10718 bound_to 10713
  153.4698  135.3703  155.2385 H   0  0  0  0  0  0  0  0  0  0  0  0  # atno 10763 bound_to 10752
  154.8757  135.3929  154.3825 H   0  0  0  0  0  0  0  0  0  0  0  0  # atno 10764 bound_to 10752
  153.4412  135.7084  153.6233 H   0  0  0  0  0  0  0  0  0  0  0  0  # atno 10765 bound_to 10752
  139.8930  134.9532  156.6601 H   0  0  0  0  0  0  0  0  0  0  0  0  # atno 11005 bound_to 11000
  144.8614  139.5171  143.6810 LP  0  0  0  0  0  0  0  0  0  0  0  0  # atno 17320 bound_to 7965
  146.2908  139.7135  142.9162 LP  0  0  0  0  0  0  0  0  0  0  0  0  # atno 17321 bound_to 7965
  139.9409  144.6682  150.8267 LP  0  0  0  0  0  0  0  0  0  0  0  0  # atno 17342 bound_to 10162
  140.7643  143.3245  151.2547 LP  0  0  0  0  0  0  0  0  0  0  0  0  # atno 17343 bound_to 10162
  155.9668  130.4446  150.5467 LP  0  0  0  0  0  0  0  0  0  0  0  0  # atno 17370 bound_to 10713
  157.3338  131.0704  151.1840 LP  0  0  0  0  0  0  0  0  0  0  0  0  # atno 17371 bound_to 10713
  140.7454  133.8942  155.8308 LP  0  0  0  0  0  0  0  0  0  0  0  0  # atno 17394 bound_to 11000
  141.0044  134.1106  157.4285 LP  0  0  0  0  0  0  0  0  0  0  0  0  # atno 17395 bound_to 11000

$$$$
