AV-unprocessed.smi:512|AV-procd|sdf|2770|dock3
  -GOLD-   2262023233D 1   1.00000     0.00000
 Structure written by MMmdl.
 48 50  0  0  0  0  0  0  0  0  3 V2000
  150.8498  142.1962  158.5085 C   0  0  0  0  0  0  0  0  0  0  0  0
  150.2121  140.9070  157.9854 C   0  0  0  0  0  0  0  0  0  0  0  0
  149.4260  141.2125  156.8462 O   0  0  0  0  0  0  0  0  0  0  0  0
  150.2087  141.6003  155.7299 C   0  0  0  0  0  0  0  0  0  0  0  0
  149.7372  140.8162  154.4990 C   0  0  0  0  0  0  0  0  0  0  0  0
  149.6803  139.3809  154.7679 N   0  0  0  0  0  0  0  0  0  0  0  0
  148.6142  138.5428  154.6633 C   0  0  0  0  0  0  0  0  0  0  0  0
  147.3745  138.9745  154.1916 N   0  0  0  0  0  0  0  0  0  0  0  0
  146.1317  138.9309  154.9595 C   0  0  0  0  0  0  0  0  0  0  0  0
  145.7719  140.3187  155.5224 C   0  0  0  0  0  0  0  0  0  0  0  0
  145.6853  141.3272  154.4391 N   0  3  0  0  0  0  0  0  0  0  0  0
  145.3325  142.6728  154.9392 C   0  0  0  0  0  0  0  0  0  0  0  0
  146.9027  141.3330  153.5938 C   0  0  0  0  0  0  0  0  0  0  0  0
  147.2156  139.9146  153.0864 C   0  0  0  0  0  0  0  0  0  0  0  0
  148.8457  137.2908  155.0622 N   0  0  0  0  0  0  0  0  0  0  0  0
  150.1847  137.3236  155.4215 C   0  0  0  0  0  0  0  0  0  0  0  0
  150.7089  138.5673  155.2533 C   0  0  0  0  0  0  0  0  0  0  0  0
  152.1103  138.9193  155.5703 C   0  0  0  0  0  0  0  0  0  0  0  0
  152.5304  140.0623  155.4027 O   0  0  0  0  0  0  0  0  0  0  0  0
  152.8168  137.8466  156.0488 N   0  5  0  0  0  0  0  0  0  0  0  0
  152.3275  136.5713  156.2343 C   0  0  0  0  0  0  0  0  0  0  0  0
  153.0321  135.6622  156.6748 O   0  0  0  0  0  0  0  0  0  0  0  0
  151.0219  136.2915  155.9256 N   0  0  0  0  0  0  0  0  0  0  0  0
  150.4736  134.9454  156.1138 C   0  0  0  0  0  0  0  0  0  0  0  0
  151.4645  141.9980  159.3864 H   0  0  0  0  0  0  0  0  0  0  0  0
  150.0879  142.9232  158.7900 H   0  0  0  0  0  0  0  0  0  0  0  0
  151.4862  142.6530  157.7505 H   0  0  0  0  0  0  0  0  0  0  0  0
  150.9897  140.1877  157.7243 H   0  0  0  0  0  0  0  0  0  0  0  0
  149.5919  140.4568  158.7618 H   0  0  0  0  0  0  0  0  0  0  0  0
  150.1123  142.6732  155.5588 H   0  0  0  0  0  0  0  0  0  0  0  0
  151.2618  141.3918  155.9249 H   0  0  0  0  0  0  0  0  0  0  0  0
  148.7607  141.1859  154.1988 H   0  0  0  0  0  0  0  0  0  0  0  0
  150.3919  140.9966  153.6472 H   0  0  0  0  0  0  0  0  0  0  0  0
  145.3280  138.5526  154.3265 H   0  0  0  0  0  0  0  0  0  0  0  0
  146.2322  138.2352  155.7922 H   0  0  0  0  0  0  0  0  0  0  0  0
  144.8208  140.2677  156.0534 H   0  0  0  0  0  0  0  0  0  0  0  0
  146.5262  140.6295  156.2475 H   0  0  0  0  0  0  0  0  0  0  0  0
  146.1094  143.0624  155.5984 H   0  0  0  0  0  0  0  0  0  0  0  0
  144.3949  142.6424  155.4954 H   0  0  0  0  0  0  0  0  0  0  0  0
  145.2058  143.3698  154.1101 H   0  0  0  0  0  0  0  0  0  0  0  0
  146.7590  142.0060  152.7478 H   0  0  0  0  0  0  0  0  0  0  0  0
  147.7468  141.7171  154.1691 H   0  0  0  0  0  0  0  0  0  0  0  0
  148.1262  139.9271  152.4864 H   0  0  0  0  0  0  0  0  0  0  0  0
  146.4189  139.5631  152.4293 H   0  0  0  0  0  0  0  0  0  0  0  0
  150.4968  134.6697  157.1688 H   0  0  0  0  0  0  0  0  0  0  0  0
  151.0573  134.2117  155.5568 H   0  0  0  0  0  0  0  0  0  0  0  0
  149.4416  134.8604  155.7759 H   0  0  0  0  0  0  0  0  0  0  0  0
  144.9271  141.0336  153.8399 H   0  0  0  0  0  0  0  0  0  0  0  0
  1  2  1  0  0  0  0
  1 25  1  0  0  0  0
  1 26  1  0  0  0  0
  1 27  1  0  0  0  0
  2  3  1  0  0  0  0
  2 28  1  0  0  0  0
  2 29  1  0  0  0  0
  3  4  1  0  0  0  0
  4  5  1  0  0  0  0
  4 30  1  0  0  0  0
  4 31  1  0  0  0  0
  5  6  1  0  0  0  0
  5 32  1  0  0  0  0
  5 33  1  0  0  0  0
  6 17  1  0  0  0  0
  6  7  1  0  0  0  0
  7  8  1  0  0  0  0
  7 15  2  0  0  0  0
  8 14  1  0  0  0  0
  8  9  1  0  0  0  0
  9 10  1  0  0  0  0
  9 34  1  0  0  0  0
  9 35  1  0  0  0  0
 10 11  1  0  0  0  0
 10 36  1  0  0  0  0
 10 37  1  0  0  0  0
 11 12  1  0  0  0  0
 11 13  1  0  0  0  0
 11 48  1  0  0  0  0
 12 38  1  0  0  0  0
 12 39  1  0  0  0  0
 12 40  1  0  0  0  0
 13 14  1  0  0  0  0
 13 41  1  0  0  0  0
 13 42  1  0  0  0  0
 14 43  1  0  0  0  0
 14 44  1  0  0  0  0
 15 16  1  0  0  0  0
 16 23  1  0  0  0  0
 16 17  2  0  0  0  0
 17 18  1  0  0  0  0
 18 19  2  0  0  0  0
 18 20  1  0  0  0  0
 20 21  1  0  0  0  0
 21 22  2  0  0  0  0
 21 23  1  0  0  0  0
 23 24  1  0  0  0  0
 24 45  1  0  0  0  0
 24 46  1  0  0  0  0
 24 47  1  0  0  0  0
M  CHG  1  11   1
M  CHG  1  20  -1
M  END
> <s_m_source_file>
AV-unprocessed.smi

> <i_m_source_file_index>
512

> <i_lp_mmshare_version>
43012

> <i_f3d_flags>
0

> <s_epik_input>
W0NIM11uMWMoPU8pW25IXWMoPU8pYyhjMTIpbihbQ0gyXVtDSDJdT1tDSDJdW0NIM10pYyhuMilOM1tDSDJdW0NIMl1OKFtDSDNdKVtDSDJdW0NIMl0z

> <s_epik_cmdline>
J2VwaWtfcHl0aG9uJywgJy1waCcsICc3LjAnLCAnLXRuJywgJzgnLCAnLW1hJywgJzIwMCcsICctbWV0YWxfYmluZGluZycsICctaW1hZScsICc8aW5maWxlLm1hZT4nLCAnLW9tYWUnLCAnPG91dGZpbGUubWFlPic=

> <r_epik_Ionization_Penalty>
5.9926

> <r_epik_Ionization_Penalty_Charging>
0.122107

> <r_epik_Ionization_Penalty_Neutral>
5.87049

> <r_epik_State_Penalty>
5.92685

> <r_epik_Charging_Adjusted_Penalty>
6.04896

> <i_epik_Tot_Q>
0

> <i_epik_Tot_abs_Q>
2

> <r_epik_Metal_State_Penalty>
1.88919

> <b_epik_Metal_Only>
1

> <s_lp_Force_Field>
OPLS_2005

> <r_lp_Energy>
50.2729

> <b_lp_Chiralities_Consistent>
1

> <s_lp_Variant>
AV-unprocessed.smi:512-3

> <Gold.Version>
5.8.1

> <Gold.Id.Protein>
6NUR|6NUR_protein|mol2

> <Gold.PLP.Fitness>
41.2138

> <Gold.PLP.PLP>
-30.3939

> <Gold.PLP.part.hbond>
-4.3747

> <Gold.PLP.part.metal>
0.0000

> <Gold.PLP.part.buried>
0.3974

> <Gold.PLP.part.nonpolar>
-26.1076

> <Gold.PLP.part.repulsive>
0.1825

> <Gold.PLP.ligand.clash>
0.0000

> <Gold.PLP.ligand.torsion>
1.2548

> <Gold.PLP.Chemscore.Hbond>
4.2422

> <Gold.PLP.Chemscore.CHOScore>
0.0000

> <Gold.PLP.Chemscore.Metal>
0.0000

> <Gold.Chemscore.Hbonds>
donor molecule, donor type, donor heavy atom, donor atom, acceptor molecule, acceptor atom, score
      L1  H    11    48       P1 10175  2.00
      P1  H  7989  7998       L1    19  0.29
      P1  H  7997  8010       L1    19  1.00
      P1  H 10752 10764       L1    22  0.88

> <Gold.PLP.Chemscore.Internal.Correction>
0.6027

> <Gold.Rescore>
     Score         DG    S(hbond)    S(metal)    S(lipo)     H(rot)  DE(clash)    DE(int)     intcor
     10.25     -14.65       1.87        0.00      60.70       1.63       0.71       3.69       ----

> <Gold.Chemscore.Fitness>
10.2469

> <Gold.Chemscore.DG>
-14.6490

> <Gold.Chemscore.ZeroCoef>
-5.4800

> <Gold.Chemscore.Hbond>
1.8705

> <Gold.Chemscore.Metal>
0.0000

> <Gold.Chemscore.Lipo>
60.6975

> <Gold.Chemscore.Internal_Hbond>
0.0000

> <Gold.Chemscore.DEClash>
0.7113

> <Gold.Chemscore.DEInternal>
3.6908

> <Gold.Chemscore.Rot>
1.6328

> <Gold.Chemscore.Internal.Correction>
   9.000000E+99

> <Gold.Chemscore.Hbonds>
donor molecule, donor type, donor heavy atom, donor atom, acceptor molecule, acceptor atom, score
      L1  H    11    48       P1 10175  0.78
      P1  H  7989  7998       L1    19  0.20
      P1  H  7997  8010       L1    19  0.69
      P1  H 10752 10764       L1    22  0.16

> <Gold.Chemscore.Hbond.Weighted>
-6.2474

> <Gold.Chemscore.Metal.Weighted>
-0.0000

> <Gold.Chemscore.Lipo.Weighted>
-7.1016

> <Gold.Chemscore.Internal_Hbond.Weighted>
0.0000

> <Gold.Chemscore.DEClash.Weighted>
0.7113

> <Gold.Chemscore.DEInternal.Weighted>
3.6908

> <Gold.Chemscore.Rot.Weighted>
4.1800

> <Gold.Chemscore.Internal.Correction.Weighted>
   9.000000E+99

> <Gold.Protein.RotatedTorsions>
[ 6907 6896 6895 6894 ] final  -49.13 input  -60.11 | X-H torsion
[ 7974 7965 7964 7962 ] final  -40.96 input  175.53 | X-H torsion
[ 8008 7997 7996 7995 ] final   89.14 input   59.86 | X-H torsion
[ 10167 10162 10161 10158 ] final    5.15 input  -65.29 | X-H torsion
[ 10718 10713 10712 10709 ] final   35.88 input   66.30 | X-H torsion
[ 10763 10752 10751 10750 ] final   14.93 input  -60.55 | X-H torsion
[ 11005 11000 10999 10996 ] final   91.89 input  -57.11 | X-H torsion

> <Gold.Protein.ActiveResidues>
 VAL166  LYS551  ARG553  GLY616  TRP617  ASP618  TYR619  PRO620  LYS621  CYS622 
 ASP623  PHE694  ASN695  SER759  ASP760  ASP761  ALA762  ILE779  LEU786  VAL792 
 PHE793  MET794  SER795  GLU796  ALA797  LYS798  CYS799  TRP800  GLU811  SER814 

> <Gold.Protein.RotatedAtoms>
  150.8836  134.8231  159.7242 H   0  0  0  0  0  0  0  0  0  0  0  0  # atno 6907 bound_to 6896
  152.4793  134.4757  159.9659 H   0  0  0  0  0  0  0  0  0  0  0  0  # atno 6908 bound_to 6896
  151.4829  133.3503  159.2876 H   0  0  0  0  0  0  0  0  0  0  0  0  # atno 6909 bound_to 6896
  146.0256  140.6796  142.9157 H   0  0  0  0  0  0  0  0  0  0  0  0  # atno 7974 bound_to 7965
  155.9964  140.3364  155.6802 H   0  0  0  0  0  0  0  0  0  0  0  0  # atno 8008 bound_to 7997
  155.6351  140.0689  157.2654 H   0  0  0  0  0  0  0  0  0  0  0  0  # atno 8009 bound_to 7997
  154.4235  140.1753  156.1500 H   0  0  0  0  0  0  0  0  0  0  0  0  # atno 8010 bound_to 7997
  140.6497  143.7575  150.7555 H   0  0  0  0  0  0  0  0  0  0  0  0  # atno 10167 bound_to 10162
  157.3281  130.7483  149.6829 H   0  0  0  0  0  0  0  0  0  0  0  0  # atno 10718 bound_to 10713
  153.1575  135.6790  153.8791 H   0  0  0  0  0  0  0  0  0  0  0  0  # atno 10763 bound_to 10752
  153.8198  135.3131  155.3410 H   0  0  0  0  0  0  0  0  0  0  0  0  # atno 10764 bound_to 10752
  154.7908  135.4836  154.0136 H   0  0  0  0  0  0  0  0  0  0  0  0  # atno 10765 bound_to 10752
  139.8831  134.8701  156.3493 H   0  0  0  0  0  0  0  0  0  0  0  0  # atno 11005 bound_to 11000
  144.7008  140.3643  143.7158 LP  0  0  0  0  0  0  0  0  0  0  0  0  # atno 17320 bound_to 7965
  145.7124  139.1688  143.2531 LP  0  0  0  0  0  0  0  0  0  0  0  0  # atno 17321 bound_to 7965
  140.1223  143.4601  152.2305 LP  0  0  0  0  0  0  0  0  0  0  0  0  # atno 17342 bound_to 10162
  139.5711  144.7463  151.3888 LP  0  0  0  0  0  0  0  0  0  0  0  0  # atno 17343 bound_to 10162
  155.9692  130.4203  150.4418 LP  0  0  0  0  0  0  0  0  0  0  0  0  # atno 17370 bound_to 10713
  157.2445  131.0532  151.2417 LP  0  0  0  0  0  0  0  0  0  0  0  0  # atno 17371 bound_to 10713
  140.9605  133.7392  156.0394 LP  0  0  0  0  0  0  0  0  0  0  0  0  # atno 17394 bound_to 11000
  140.7995  134.3525  157.5443 LP  0  0  0  0  0  0  0  0  0  0  0  0  # atno 17395 bound_to 11000

$$$$
