AV-unprocessed.smi:671|AV-procd|sdf|3278|dock9
  -GOLD-   22720 0233D 1   1.00000     0.00000
 Structure written by MMmdl.
 49 50  0  0  0  0  0  0  0  0  1 V2000
  152.8781  138.3569  154.7214 C   0  0  0  0  0  0  0  0  0  0  0  0
  151.9749  139.3053  155.4572 C   0  0  0  0  0  0  0  0  0  0  0  0
  152.4670  139.9907  156.4753 N   0  0  0  0  0  0  0  0  0  0  0  0
  151.4362  140.7349  156.9216 N   0  0  0  0  0  0  0  0  0  0  0  0
  151.6366  141.6201  158.0524 C   0  0  0  0  0  0  0  0  0  0  0  0
  150.2886  140.5187  156.1847 C   0  0  0  0  0  0  0  0  0  0  0  0
  149.0068  141.2271  156.4861 C   0  0  0  0  0  0  0  0  0  0  0  0
  150.5961  139.5925  155.2243 C   0  0  0  0  0  0  0  0  0  0  0  0
  149.6892  139.0131  154.1666 C   0  0  0  0  0  0  0  0  0  0  0  0
  148.4484  138.3200  154.7638 C   0  0  1  0  0  0  0  0  0  0  0  0
  147.2769  139.2994  154.9188 C   0  0  0  0  0  0  0  0  0  0  0  0
  148.0253  137.2036  153.9116 N   0  0  0  0  0  0  0  0  0  0  0  0
  146.9839  136.3631  154.0517 C   0  0  0  0  0  0  0  0  0  0  0  0
  146.2021  136.4603  154.9955 O   0  0  0  0  0  0  0  0  0  0  0  0
  146.8657  135.4340  153.0894 N   0  0  0  0  0  0  0  0  0  0  0  0
  145.8338  134.3980  153.0432 C   0  0  2  0  0  0  0  0  0  0  0  0
  146.4433  133.0018  153.2987 C   0  0  0  0  0  0  0  0  0  0  0  0
  146.1822  132.1677  152.0389 C   0  0  0  0  0  0  0  0  0  0  0  0
  145.9021  133.1855  150.9363 C   0  0  0  0  0  0  0  0  0  0  0  0
  145.1567  134.3083  151.6583 C   0  0  2  0  0  0  0  0  0  0  0  0
  145.0650  135.6144  150.8542 C   0  0  0  0  0  0  0  0  0  0  0  0
  153.0487  137.4516  155.3043 H   0  0  0  0  0  0  0  0  0  0  0  0
  153.8487  138.8114  154.5204 H   0  0  0  0  0  0  0  0  0  0  0  0
  152.4522  138.0574  153.7642 H   0  0  0  0  0  0  0  0  0  0  0  0
  150.8301  141.4863  158.7738 H   0  0  0  0  0  0  0  0  0  0  0  0
  151.6410  142.6549  157.7095 H   0  0  0  0  0  0  0  0  0  0  0  0
  152.5851  141.4042  158.5462 H   0  0  0  0  0  0  0  0  0  0  0  0
  148.2193  140.9385  155.7904 H   0  0  0  0  0  0  0  0  0  0  0  0
  149.1360  142.3073  156.4157 H   0  0  0  0  0  0  0  0  0  0  0  0
  148.6610  140.9935  157.4930 H   0  0  0  0  0  0  0  0  0  0  0  0
  149.3614  139.8018  153.4890 H   0  0  0  0  0  0  0  0  0  0  0  0
  150.2292  138.3097  153.5321 H   0  0  0  0  0  0  0  0  0  0  0  0
  148.7031  137.9829  155.7694 H   0  0  0  0  0  0  0  0  0  0  0  0
  147.5446  140.1326  155.5693 H   0  0  0  0  0  0  0  0  0  0  0  0
  146.4091  138.8065  155.3589 H   0  0  0  0  0  0  0  0  0  0  0  0
  146.9732  139.7128  153.9563 H   0  0  0  0  0  0  0  0  0  0  0  0
  148.5807  137.0710  153.0788 H   0  0  0  0  0  0  0  0  0  0  0  0
  147.5445  135.4347  152.3422 H   0  0  0  0  0  0  0  0  0  0  0  0
  145.0729  134.6249  153.7927 H   0  0  0  0  0  0  0  0  0  0  0  0
  147.5169  133.0656  153.4828 H   0  0  0  0  0  0  0  0  0  0  0  0
  146.0008  132.5293  154.1762 H   0  0  0  0  0  0  0  0  0  0  0  0
  147.0146  131.5069  151.7951 H   0  0  0  0  0  0  0  0  0  0  0  0
  145.3000  131.5443  152.1908 H   0  0  0  0  0  0  0  0  0  0  0  0
  146.8435  133.5587  150.5301 H   0  0  0  0  0  0  0  0  0  0  0  0
  145.3268  132.7609  150.1129 H   0  0  0  0  0  0  0  0  0  0  0  0
  144.1367  133.9578  151.8255 H   0  0  0  0  0  0  0  0  0  0  0  0
  146.0511  135.9913  150.5842 H   0  0  0  0  0  0  0  0  0  0  0  0
  144.5522  136.3865  151.4278 H   0  0  0  0  0  0  0  0  0  0  0  0
  144.5076  135.4648  149.9294 H   0  0  0  0  0  0  0  0  0  0  0  0
  1  2  1  0  0  0  0
  1 22  1  0  0  0  0
  1 23  1  0  0  0  0
  1 24  1  0  0  0  0
  2  8  1  0  0  0  0
  2  3  2  0  0  0  0
  3  4  1  0  0  0  0
  4  5  1  0  0  0  0
  4  6  1  0  0  0  0
  5 25  1  0  0  0  0
  5 26  1  0  0  0  0
  5 27  1  0  0  0  0
  6  7  1  0  0  0  0
  6  8  2  0  0  0  0
  7 28  1  0  0  0  0
  7 29  1  0  0  0  0
  7 30  1  0  0  0  0
  8  9  1  0  0  0  0
  9 10  1  0  0  0  0
  9 31  1  0  0  0  0
  9 32  1  0  0  0  0
 10 11  1  0  0  0  0
 10 12  1  0  0  0  0
 10 33  1  0  0  0  0
 11 34  1  0  0  0  0
 11 35  1  0  0  0  0
 11 36  1  0  0  0  0
 12 13  1  0  0  0  0
 12 37  1  0  0  0  0
 13 14  2  0  0  0  0
 13 15  1  0  0  0  0
 15 16  1  0  0  0  0
 15 38  1  0  0  0  0
 16 20  1  0  0  0  0
 16 17  1  0  0  0  0
 16 39  1  0  0  0  0
 17 18  1  0  0  0  0
 17 40  1  0  0  0  0
 17 41  1  0  0  0  0
 18 19  1  0  0  0  0
 18 42  1  0  0  0  0
 18 43  1  0  0  0  0
 19 20  1  0  0  0  0
 19 44  1  0  0  0  0
 19 45  1  0  0  0  0
 20 21  1  0  0  0  0
 20 46  1  0  0  0  0
 21 47  1  0  0  0  0
 21 48  1  0  0  0  0
 21 49  1  0  0  0  0
M  END
> <s_m_source_file>
AV-unprocessed.smi

> <i_m_source_file_index>
671

> <i_lp_mmshare_version>
43012

> <i_f3d_flags>
0

> <s_epik_input>
W0NIM11jMW5uKFtDSDNdKWMoW0NIM10pYzFbQ0gyXVtDQEhdKFtDSDNdKVtOSF1DKD1PKVtOSF1bQ0BASF0yW0NIMl1bQ0gyXVtDSDJdW0NASF0yW0NIM10=

> <s_epik_cmdline>
J2VwaWtfcHl0aG9uJywgJy1waCcsICc3LjAnLCAnLXRuJywgJzgnLCAnLW1hJywgJzIwMCcsICctbWV0YWxfYmluZGluZycsICctaW1hZScsICc8aW5maWxlLm1hZT4nLCAnLW9tYWUnLCAnPG91dGZpbGUubWFlPic=

> <r_lp_tautomer_probability>
1

> <r_epik_Ionization_Penalty>
0.0126855

> <r_epik_Ionization_Penalty_Charging>
0

> <r_epik_Ionization_Penalty_Neutral>
0.0126855

> <r_epik_State_Penalty>
0.00977547

> <r_epik_Charging_Adjusted_Penalty>
0.00977547

> <i_epik_Tot_Q>
0

> <i_epik_Tot_abs_Q>
0

> <r_epik_Metal_State_Penalty>
0.00957132

> <b_epik_Metal_Only>
0

> <s_lp_Force_Field>
OPLS_2005

> <r_lp_Energy>
22.0359

> <b_lp_Chiralities_Consistent>
1

> <s_lp_Variant>
AV-unprocessed.smi:671-6

> <Gold.Version>
5.8.1

> <Gold.Id.Protein>
6NUR|6NUR_protein|mol2

> <Gold.PLP.Fitness>
40.0463

> <Gold.PLP.PLP>
-32.4517

> <Gold.PLP.part.hbond>
-2.8070

> <Gold.PLP.part.metal>
0.0000

> <Gold.PLP.part.buried>
-1.6943

> <Gold.PLP.part.nonpolar>
-28.2514

> <Gold.PLP.part.repulsive>
0.0433

> <Gold.PLP.ligand.clash>
0.0000

> <Gold.PLP.ligand.torsion>
0.5085

> <Gold.PLP.Chemscore.Hbond>
2.8640

> <Gold.PLP.Chemscore.CHOScore>
0.0000

> <Gold.PLP.Chemscore.Metal>
0.0000

> <Gold.Chemscore.Hbonds>
donor molecule, donor type, donor heavy atom, donor atom, acceptor molecule, acceptor atom, score
      L1  H    12    37       P1  7948  0.96
      L1  H    15    38       P1  7948  0.85
      P1  H  7997  8008       L1     3  1.00

> <Gold.PLP.Chemscore.Internal.Correction>
0.0196

> <Gold.Rescore>
     Score         DG    S(hbond)    S(metal)    S(lipo)     H(rot)  DE(clash)    DE(int)     intcor
     19.43     -20.80       2.85        0.00      81.37       1.45       0.07       1.30       ----

> <Gold.Chemscore.Fitness>
19.4300

> <Gold.Chemscore.DG>
-20.8032

> <Gold.Chemscore.ZeroCoef>
-5.4800

> <Gold.Chemscore.Hbond>
2.8488

> <Gold.Chemscore.Metal>
0.0000

> <Gold.Chemscore.Lipo>
81.3669

> <Gold.Chemscore.Internal_Hbond>
0.0000

> <Gold.Chemscore.DEClash>
0.0697

> <Gold.Chemscore.DEInternal>
1.3035

> <Gold.Chemscore.Rot>
1.4499

> <Gold.Chemscore.Internal.Correction>
   9.000000E+99

> <Gold.Chemscore.Hbonds>
donor molecule, donor type, donor heavy atom, donor atom, acceptor molecule, acceptor atom, score
      L1  H    12    37       P1  7948  0.87
      L1  H    15    38       P1  7948  0.83
      P1  H  7997  8008       L1     3  0.74

> <Gold.Chemscore.Hbond.Weighted>
-9.5151

> <Gold.Chemscore.Metal.Weighted>
-0.0000

> <Gold.Chemscore.Lipo.Weighted>
-9.5199

> <Gold.Chemscore.Internal_Hbond.Weighted>
0.0000

> <Gold.Chemscore.DEClash.Weighted>
0.0697

> <Gold.Chemscore.DEInternal.Weighted>
1.3035

> <Gold.Chemscore.Rot.Weighted>
3.7118

> <Gold.Chemscore.Internal.Correction.Weighted>
   9.000000E+99

> <Gold.Protein.RotatedTorsions>
[ 6907 6896 6895 6894 ] final  172.43 input  -60.11 | X-H torsion
[ 7974 7965 7964 7962 ] final  139.43 input  175.53 | X-H torsion
[ 8008 7997 7996 7995 ] final  -41.40 input   59.86 | X-H torsion
[ 10167 10162 10161 10158 ] final  116.86 input  -65.29 | X-H torsion
[ 10718 10713 10712 10709 ] final  139.67 input   66.30 | X-H torsion
[ 10763 10752 10751 10750 ] final   -9.78 input  -60.55 | X-H torsion
[ 11005 11000 10999 10996 ] final -110.54 input  -57.11 | X-H torsion

> <Gold.Protein.ActiveResidues>
 VAL166  LYS551  ARG553  GLY616  TRP617  ASP618  TYR619  PRO620  LYS621  CYS622 
 ASP623  PHE694  ASN695  SER759  ASP760  ASP761  ALA762  ILE779  LEU786  VAL792 
 PHE793  MET794  SER795  GLU796  ALA797  LYS798  CYS799  TRP800  GLU811  SER814 

> <Gold.Protein.RotatedAtoms>
  151.7844  133.3353  159.3480 H   0  0  0  0  0  0  0  0  0  0  0  0  # atno 6907 bound_to 6896
  150.7414  134.5900  159.5992 H   0  0  0  0  0  0  0  0  0  0  0  0  # atno 6908 bound_to 6896
  152.3253  134.7330  160.0355 H   0  0  0  0  0  0  0  0  0  0  0  0  # atno 6909 bound_to 6896
  144.9279  139.5084  143.5632 H   0  0  0  0  0  0  0  0  0  0  0  0  # atno 7974 bound_to 7965
  154.4004  140.1500  156.3185 H   0  0  0  0  0  0  0  0  0  0  0  0  # atno 8008 bound_to 7997
  155.8551  140.3456  155.5698 H   0  0  0  0  0  0  0  0  0  0  0  0  # atno 8009 bound_to 7997
  155.7941  140.0861  157.1983 H   0  0  0  0  0  0  0  0  0  0  0  0  # atno 8010 bound_to 7997
  139.6218  144.7102  151.2618 H   0  0  0  0  0  0  0  0  0  0  0  0  # atno 10167 bound_to 10162
  157.4118  131.1029  151.0446 H   0  0  0  0  0  0  0  0  0  0  0  0  # atno 10718 bound_to 10713
  153.4597  135.7016  153.6058 H   0  0  0  0  0  0  0  0  0  0  0  0  # atno 10763 bound_to 10752
  153.4358  135.3792  155.2198 H   0  0  0  0  0  0  0  0  0  0  0  0  # atno 10764 bound_to 10752
  154.8727  135.3962  154.4021 H   0  0  0  0  0  0  0  0  0  0  0  0  # atno 10765 bound_to 10752
  141.0786  133.9259  157.2338 H   0  0  0  0  0  0  0  0  0  0  0  0  # atno 11005 bound_to 11000
  146.3234  139.8208  142.8927 LP  0  0  0  0  0  0  0  0  0  0  0  0  # atno 17320 bound_to 7965
  145.3189  141.0239  143.3512 LP  0  0  0  0  0  0  0  0  0  0  0  0  # atno 17321 bound_to 7965
  140.7386  143.6641  150.8138 LP  0  0  0  0  0  0  0  0  0  0  0  0  # atno 17342 bound_to 10162
  140.0253  143.5499  152.2783 LP  0  0  0  0  0  0  0  0  0  0  0  0  # atno 17343 bound_to 10162
  157.1407  130.6142  149.5554 LP  0  0  0  0  0  0  0  0  0  0  0  0  # atno 17370 bound_to 10713
  155.9853  130.4882  150.7025 LP  0  0  0  0  0  0  0  0  0  0  0  0  # atno 17371 bound_to 10713
  139.9598  135.0157  156.9230 LP  0  0  0  0  0  0  0  0  0  0  0  0  # atno 17394 bound_to 11000
  140.5519  134.0618  155.7372 LP  0  0  0  0  0  0  0  0  0  0  0  0  # atno 17395 bound_to 11000

$$$$
