AV-unprocessed.smi:598|AV-procd|sdf|3022|dock10
  -GOLD-   2262023533D 1   1.00000     0.00000
 Structure written by MMmdl.
 43 44  0  0  0  0  0  0  0  0  3 V2000
  151.8526  145.7556  160.0734 C   0  0  0  0  0  0  0  0  0  0  0  0
  152.3094  144.3367  159.6951 C   0  0  1  0  0  0  0  0  0  0  0  0
  152.3282  143.3980  160.9188 C   0  0  0  0  0  0  0  0  0  0  0  0
  152.8788  142.0100  160.5560 C   0  0  0  0  0  0  0  0  0  0  0  0
  152.1078  141.3879  159.3822 C   0  0  0  0  0  0  0  0  0  0  0  0
  152.0995  142.3267  158.1603 C   0  0  1  0  0  0  0  0  0  0  0  0
  151.3912  141.6903  157.0519 N   0  0  0  0  0  0  0  0  0  0  0  0
  151.6278  140.4550  156.5849 C   0  0  0  0  0  0  0  0  0  0  0  0
  152.4667  139.6966  157.0730 O   0  0  0  0  0  0  0  0  0  0  0  0
  150.7718  140.0105  155.3910 C   0  0  0  0  0  0  0  0  0  0  0  0
  149.3308  140.2243  155.6063 N   0  0  0  0  0  0  0  0  0  0  0  0
  148.7287  139.5243  156.6708 C   0  0  0  0  0  0  0  0  0  0  0  0
  147.4164  139.6420  156.9534 C   0  0  0  0  0  0  0  0  0  0  0  0
  146.8135  138.9119  158.0471 N   0  3  0  0  0  0  0  0  0  0  0  0
  145.5896  138.8590  158.1152 O   0  0  0  0  0  0  0  0  0  0  0  0
  147.5407  138.3691  158.8738 O   0  5  0  0  0  0  0  0  0  0  0  0
  146.6235  140.5242  156.1188 C   0  0  0  0  0  0  0  0  0  0  0  0
  147.1930  141.1942  155.0977 C   0  0  0  0  0  0  0  0  0  0  0  0
  148.6210  141.0637  154.7912 C   0  0  0  0  0  0  0  0  0  0  0  0
  149.1471  141.6715  153.8585 O   0  0  0  0  0  0  0  0  0  0  0  0
  151.5125  143.7219  158.5132 C   0  0  1  0  0  0  0  0  0  0  0  0
  149.9827  143.6990  158.7417 C   0  0  0  0  0  0  0  0  0  0  0  0
  150.8609  145.7550  160.5262 H   0  0  0  0  0  0  0  0  0  0  0  0
  151.8246  146.4072  159.1997 H   0  0  0  0  0  0  0  0  0  0  0  0
  152.5367  146.2039  160.7943 H   0  0  0  0  0  0  0  0  0  0  0  0
  153.3421  144.4345  159.3564 H   0  0  0  0  0  0  0  0  0  0  0  0
  152.9412  143.8318  161.7096 H   0  0  0  0  0  0  0  0  0  0  0  0
  151.3246  143.2991  161.3330 H   0  0  0  0  0  0  0  0  0  0  0  0
  153.9339  142.0949  160.2930 H   0  0  0  0  0  0  0  0  0  0  0  0
  152.8304  141.3517  161.4239 H   0  0  0  0  0  0  0  0  0  0  0  0
  152.5639  140.4337  159.1157 H   0  0  0  0  0  0  0  0  0  0  0  0
  151.0873  141.1615  159.6935 H   0  0  0  0  0  0  0  0  0  0  0  0
  153.1389  142.4629  157.8547 H   0  0  0  0  0  0  0  0  0  0  0  0
  150.6812  142.2414  156.5917 H   0  0  0  0  0  0  0  0  0  0  0  0
  151.1159  140.5514  154.5085 H   0  0  0  0  0  0  0  0  0  0  0  0
  150.9628  138.9577  155.1736 H   0  0  0  0  0  0  0  0  0  0  0  0
  149.4020  138.8878  157.2270 H   0  0  0  0  0  0  0  0  0  0  0  0
  145.5674  140.6530  156.3051 H   0  0  0  0  0  0  0  0  0  0  0  0
  146.5838  141.8448  154.4875 H   0  0  0  0  0  0  0  0  0  0  0  0
  151.6794  144.3688  157.6507 H   0  0  0  0  0  0  0  0  0  0  0  0
  149.7054  143.0945  159.6044 H   0  0  0  0  0  0  0  0  0  0  0  0
  149.4541  143.2988  157.8765 H   0  0  0  0  0  0  0  0  0  0  0  0
  149.5877  144.7015  158.9012 H   0  0  0  0  0  0  0  0  0  0  0  0
  1  2  1  0  0  0  0
  1 23  1  0  0  0  0
  1 24  1  0  0  0  0
  1 25  1  0  0  0  0
  2 21  1  0  0  0  0
  2  3  1  0  0  0  0
  2 26  1  0  0  0  0
  3  4  1  0  0  0  0
  3 27  1  0  0  0  0
  3 28  1  0  0  0  0
  4  5  1  0  0  0  0
  4 29  1  0  0  0  0
  4 30  1  0  0  0  0
  5  6  1  0  0  0  0
  5 31  1  0  0  0  0
  5 32  1  0  0  0  0
  6  7  1  0  0  0  0
  6 21  1  0  0  0  0
  6 33  1  0  0  0  0
  7  8  1  0  0  0  0
  7 34  1  0  0  0  0
  8  9  2  0  0  0  0
  8 10  1  0  0  0  0
 10 11  1  0  0  0  0
 10 35  1  0  0  0  0
 10 36  1  0  0  0  0
 11 19  1  0  0  0  0
 11 12  1  0  0  0  0
 12 13  2  0  0  0  0
 12 37  1  0  0  0  0
 13 14  1  0  0  0  0
 13 17  1  0  0  0  0
 14 15  2  0  0  0  0
 14 16  1  0  0  0  0
 17 18  2  0  0  0  0
 17 38  1  0  0  0  0
 18 19  1  0  0  0  0
 18 39  1  0  0  0  0
 19 20  2  0  0  0  0
 21 22  1  0  0  0  0
 21 40  1  0  0  0  0
 22 41  1  0  0  0  0
 22 42  1  0  0  0  0
 22 43  1  0  0  0  0
M  CHG  1  14   1
M  CHG  1  16  -1
M  END
> <s_m_source_file>
AV-unprocessed.smi

> <i_m_source_file_index>
598

> <i_lp_mmshare_version>
43012

> <i_f3d_flags>
0

> <s_epik_input>
W0NIM11bQ0BASF0xW0NIMl1bQ0gyXVtDSDJdW0NASF0oW0NASF0xW0NIM10pW05IXUMoPU8pW0NIMl1uMltjSF1jKFtOK10oPU8pW08tXSlbY0hdW2NIXWMyPU8=

> <s_epik_cmdline>
J2VwaWtfcHl0aG9uJywgJy1waCcsICc3LjAnLCAnLXRuJywgJzgnLCAnLW1hJywgJzIwMCcsICctbWV0YWxfYmluZGluZycsICctaW1hZScsICc8aW5maWxlLm1hZT4nLCAnLW9tYWUnLCAnPG91dGZpbGUubWFlPic=

> <r_lp_tautomer_probability>
1

> <r_epik_Ionization_Penalty>
1.91291e-08

> <r_epik_Ionization_Penalty_Charging>
8.21931e-11

> <r_epik_Ionization_Penalty_Neutral>
1.90469e-08

> <r_epik_State_Penalty>
-0

> <r_epik_Charging_Adjusted_Penalty>
8.21931e-11

> <i_epik_Tot_Q>
0

> <i_epik_Tot_abs_Q>
2

> <r_epik_Metal_State_Penalty>
-0

> <b_epik_Metal_Only>
0

> <s_lp_Force_Field>
OPLS_2005

> <r_lp_Energy>
25.1906

> <b_lp_Chiralities_Consistent>
1

> <s_lp_Variant>
AV-unprocessed.smi:598-2

> <Gold.Version>
5.8.1

> <Gold.Id.Protein>
6NUR|6NUR_protein|mol2

> <Gold.PLP.Fitness>
43.8497

> <Gold.PLP.PLP>
-38.9269

> <Gold.PLP.part.hbond>
-4.0000

> <Gold.PLP.part.metal>
0.0000

> <Gold.PLP.part.buried>
-2.9736

> <Gold.PLP.part.nonpolar>
-31.4799

> <Gold.PLP.part.repulsive>
0.3040

> <Gold.PLP.ligand.clash>
0.0000

> <Gold.PLP.ligand.torsion>
0.2085

> <Gold.PLP.Chemscore.Hbond>
1.7747

> <Gold.PLP.Chemscore.CHOScore>
0.0000

> <Gold.PLP.Chemscore.Metal>
0.0000

> <Gold.Chemscore.Hbonds>
donor molecule, donor type, donor heavy atom, donor atom, acceptor molecule, acceptor atom, score
      P1  H  6934  6947       L1    16  0.17
      P1  H  7997  8010       L1     9  1.00
      P1  H  8011  8017       L1    20  0.64

> <Gold.PLP.Chemscore.Internal.Correction>
0.0158

> <Gold.Rescore>
     Score         DG    S(hbond)    S(metal)    S(lipo)     H(rot)  DE(clash)    DE(int)     intcor
     17.26     -19.04       1.83        0.00      97.47       1.54       0.23       1.55       ----

> <Gold.Chemscore.Fitness>
17.2614

> <Gold.Chemscore.DG>
-19.0392

> <Gold.Chemscore.ZeroCoef>
-5.4800

> <Gold.Chemscore.Hbond>
1.8250

> <Gold.Chemscore.Metal>
0.0000

> <Gold.Chemscore.Lipo>
97.4740

> <Gold.Chemscore.Internal_Hbond>
0.0000

> <Gold.Chemscore.DEClash>
0.2305

> <Gold.Chemscore.DEInternal>
1.5473

> <Gold.Chemscore.Rot>
1.5393

> <Gold.Chemscore.Internal.Correction>
   9.000000E+99

> <Gold.Chemscore.Hbonds>
donor molecule, donor type, donor heavy atom, donor atom, acceptor molecule, acceptor atom, score
      P1  H  6934  6947       L1    16  0.15
      P1  H  7997  8010       L1     9  0.88
      P1  H  8011  8017       L1    20  0.64

> <Gold.Chemscore.Hbond.Weighted>
-6.0955

> <Gold.Chemscore.Metal.Weighted>
-0.0000

> <Gold.Chemscore.Lipo.Weighted>
-11.4045

> <Gold.Chemscore.Internal_Hbond.Weighted>
0.0000

> <Gold.Chemscore.DEClash.Weighted>
0.2305

> <Gold.Chemscore.DEInternal.Weighted>
1.5473

> <Gold.Chemscore.Rot.Weighted>
3.9407

> <Gold.Chemscore.Internal.Correction.Weighted>
   9.000000E+99

> <Gold.Protein.RotatedTorsions>
[ 6907 6896 6895 6894 ] final   69.74 input  -60.11 | X-H torsion
[ 7974 7965 7964 7962 ] final  -89.09 input  175.53 | X-H torsion
[ 8008 7997 7996 7995 ] final   63.21 input   59.86 | X-H torsion
[ 10167 10162 10161 10158 ] final  151.83 input  -65.29 | X-H torsion
[ 10718 10713 10712 10709 ] final   26.46 input   66.30 | X-H torsion
[ 10763 10752 10751 10750 ] final   38.70 input  -60.55 | X-H torsion
[ 11005 11000 10999 10996 ] final -124.13 input  -57.11 | X-H torsion

> <Gold.Protein.ActiveResidues>
 VAL166  LYS551  ARG553  GLY616  TRP617  ASP618  TYR619  PRO620  LYS621  CYS622 
 ASP623  PHE694  ASN695  SER759  ASP760  ASP761  ALA762  ILE779  LEU786  VAL792 
 PHE793  MET794  SER795  GLU796  ALA797  LYS798  CYS799  TRP800  GLU811  SER814 

> <Gold.Protein.RotatedAtoms>
  152.4705  134.4971  159.9713 H   0  0  0  0  0  0  0  0  0  0  0  0  # atno 6907 bound_to 6896
  151.4999  133.3500  159.2875 H   0  0  0  0  0  0  0  0  0  0  0  0  # atno 6908 bound_to 6896
  150.8713  134.8114  159.7218 H   0  0  0  0  0  0  0  0  0  0  0  0  # atno 6909 bound_to 6896
  145.4444  140.9559  143.2057 H   0  0  0  0  0  0  0  0  0  0  0  0  # atno 7974 bound_to 7965
  155.6265  140.3496  155.4669 H   0  0  0  0  0  0  0  0  0  0  0  0  # atno 8008 bound_to 7997
  156.0037  140.1218  157.0546 H   0  0  0  0  0  0  0  0  0  0  0  0  # atno 8009 bound_to 7997
  154.4257  140.1095  156.5719 H   0  0  0  0  0  0  0  0  0  0  0  0  # atno 8010 bound_to 7997
  139.4837  144.5409  151.7567 H   0  0  0  0  0  0  0  0  0  0  0  0  # atno 10167 bound_to 10162
  157.2072  130.6917  149.6213 H   0  0  0  0  0  0  0  0  0  0  0  0  # atno 10718 bound_to 10713
  152.9992  135.6242  154.2347 H   0  0  0  0  0  0  0  0  0  0  0  0  # atno 10763 bound_to 10752
  154.2088  135.2801  155.2967 H   0  0  0  0  0  0  0  0  0  0  0  0  # atno 10764 bound_to 10752
  154.5623  135.5701  153.7078 H   0  0  0  0  0  0  0  0  0  0  0  0  # atno 10765 bound_to 10752
  140.9865  134.0599  157.3704 H   0  0  0  0  0  0  0  0  0  0  0  0  # atno 11005 bound_to 11000
  144.8101  139.5978  143.7033 LP  0  0  0  0  0  0  0  0  0  0  0  0  # atno 17320 bound_to 7965
  146.2539  139.6259  142.9408 LP  0  0  0  0  0  0  0  0  0  0  0  0  # atno 17321 bound_to 7965
  140.4948  144.1257  150.5958 LP  0  0  0  0  0  0  0  0  0  0  0  0  # atno 17342 bound_to 10162
  140.4130  143.2648  151.9809 LP  0  0  0  0  0  0  0  0  0  0  0  0  # atno 17343 bound_to 10162
  155.9694  130.4563  150.5920 LP  0  0  0  0  0  0  0  0  0  0  0  0  # atno 17370 bound_to 10713
  157.3709  131.0765  151.1559 LP  0  0  0  0  0  0  0  0  0  0  0  0  # atno 17371 bound_to 10713
  139.8973  135.0150  156.7094 LP  0  0  0  0  0  0  0  0  0  0  0  0  # atno 17394 bound_to 11000
  140.7106  133.9227  155.8082 LP  0  0  0  0  0  0  0  0  0  0  0  0  # atno 17395 bound_to 11000

$$$$
