AV-unprocessed.smi:2522|AV-procd|sdf|9919|dock6
  -GOLD-   2272013553D 1   1.00000     0.00000
 Structure written by MMmdl.
 41 42  0  0  0  0  0  0  0  0  1 V2000
  145.6134  136.7201  161.1136 C   0  0  0  0  0  0  0  0  0  0  0  0
  146.5999  135.7202  161.7526 C   0  0  0  0  0  0  0  0  0  0  0  0
  147.3837  136.4384  162.8667 C   0  0  0  0  0  0  0  0  0  0  0  0
  145.8030  134.5573  162.3790 C   0  0  0  0  0  0  0  0  0  0  0  0
  147.6109  135.1968  160.6984 C   0  0  0  0  0  0  0  0  0  0  0  0
  148.1548  136.2598  159.8581 N   0  0  0  0  0  0  0  0  0  0  0  0
  148.9348  136.0933  158.7781 C   0  0  0  0  0  0  0  0  0  0  0  0
  149.3799  135.0038  158.4182 O   0  0  0  0  0  0  0  0  0  0  0  0
  149.2285  137.3512  157.9580 C   0  0  0  0  0  0  0  0  0  0  0  0
  150.4273  138.0560  158.5262 C   0  0  0  0  0  0  0  0  0  0  0  0
  151.4926  137.4825  159.1764 C   0  0  0  0  0  0  0  0  0  0  0  0
  152.6960  138.6614  159.6247 S   0  0  0  0  0  0  0  0  0  0  0  0
  151.6902  139.9153  158.9021 C   0  0  0  0  0  0  0  0  0  0  0  0
  152.0623  141.2919  158.8455 N   0  0  0  0  0  0  0  0  0  0  0  0
  153.0754  141.8386  159.7398 C   0  0  0  0  0  0  0  0  0  0  0  0
  153.3558  143.2611  159.2425 C   0  0  0  0  0  0  0  0  0  0  0  0
  152.2184  143.5871  158.2768 C   0  0  0  0  0  0  0  0  0  0  0  0
  151.5659  142.2381  158.0258 C   0  0  0  0  0  0  0  0  0  0  0  0
  150.6974  142.0940  157.1655 O   0  0  0  0  0  0  0  0  0  0  0  0
  150.5442  139.4442  158.3992 N   0  0  0  0  0  0  0  0  0  0  0  0
  144.9396  137.1433  161.8593 H   0  0  0  0  0  0  0  0  0  0  0  0
  144.9915  136.2462  160.3541 H   0  0  0  0  0  0  0  0  0  0  0  0
  146.1389  137.5487  160.6380 H   0  0  0  0  0  0  0  0  0  0  0  0
  147.9546  137.2796  162.4721 H   0  0  0  0  0  0  0  0  0  0  0  0
  148.0880  135.7639  163.3550 H   0  0  0  0  0  0  0  0  0  0  0  0
  146.7166  136.8283  163.6364 H   0  0  0  0  0  0  0  0  0  0  0  0
  145.1494  134.9102  163.1773 H   0  0  0  0  0  0  0  0  0  0  0  0
  146.4681  133.8067  162.8073 H   0  0  0  0  0  0  0  0  0  0  0  0
  145.1699  134.0570  161.6456 H   0  0  0  0  0  0  0  0  0  0  0  0
  148.4533  134.7206  161.2010 H   0  0  0  0  0  0  0  0  0  0  0  0
  147.1518  134.4179  160.0872 H   0  0  0  0  0  0  0  0  0  0  0  0
  147.8440  137.1980  160.0664 H   0  0  0  0  0  0  0  0  0  0  0  0
  149.3959  137.0742  156.9163 H   0  0  0  0  0  0  0  0  0  0  0  0
  148.3548  138.0040  157.9691 H   0  0  0  0  0  0  0  0  0  0  0  0
  151.6486  136.4383  159.4041 H   0  0  0  0  0  0  0  0  0  0  0  0
  152.6846  141.8536  160.7582 H   0  0  0  0  0  0  0  0  0  0  0  0
  153.9840  141.2350  159.7323 H   0  0  0  0  0  0  0  0  0  0  0  0
  153.4107  143.9740  160.0659 H   0  0  0  0  0  0  0  0  0  0  0  0
  154.3101  143.2937  158.7151 H   0  0  0  0  0  0  0  0  0  0  0  0
  151.4919  144.2621  158.7303 H   0  0  0  0  0  0  0  0  0  0  0  0
  152.5807  144.0331  157.3501 H   0  0  0  0  0  0  0  0  0  0  0  0
  1  2  1  0  0  0  0
  1 21  1  0  0  0  0
  1 22  1  0  0  0  0
  1 23  1  0  0  0  0
  2  3  1  0  0  0  0
  2  4  1  0  0  0  0
  2  5  1  0  0  0  0
  3 24  1  0  0  0  0
  3 25  1  0  0  0  0
  3 26  1  0  0  0  0
  4 27  1  0  0  0  0
  4 28  1  0  0  0  0
  4 29  1  0  0  0  0
  5  6  1  0  0  0  0
  5 30  1  0  0  0  0
  5 31  1  0  0  0  0
  6  7  1  0  0  0  0
  6 32  1  0  0  0  0
  7  8  2  0  0  0  0
  7  9  1  0  0  0  0
  9 10  1  0  0  0  0
  9 33  1  0  0  0  0
  9 34  1  0  0  0  0
 10 20  1  0  0  0  0
 10 11  2  0  0  0  0
 11 12  1  0  0  0  0
 11 35  1  0  0  0  0
 12 13  1  0  0  0  0
 13 14  1  0  0  0  0
 13 20  2  0  0  0  0
 14 18  1  0  0  0  0
 14 15  1  0  0  0  0
 15 16  1  0  0  0  0
 15 36  1  0  0  0  0
 15 37  1  0  0  0  0
 16 17  1  0  0  0  0
 16 38  1  0  0  0  0
 16 39  1  0  0  0  0
 17 18  1  0  0  0  0
 17 40  1  0  0  0  0
 17 41  1  0  0  0  0
 18 19  2  0  0  0  0
M  END
> <s_m_source_file>
AV-unprocessed.smi

> <i_m_source_file_index>
2522

> <i_lp_mmshare_version>
43012

> <i_f3d_flags>
0

> <s_epik_input>
W0NIM11DKFtDSDNdKShbQ0gzXSlbQ0gyXVtOSF1DKD1PKVtDSDJdYzFbY0hdc2MobjEpTjJbQ0gyXVtDSDJdW0NIMl1DMj1P

> <s_epik_cmdline>
J2VwaWtfcHl0aG9uJywgJy1waCcsICc3LjAnLCAnLXRuJywgJzgnLCAnLW1hJywgJzIwMCcsICctbWV0YWxfYmluZGluZycsICctaW1hZScsICc8aW5maWxlLm1hZT4nLCAnLW9tYWUnLCAnPG91dGZpbGUubWFlPic=

> <r_lp_tautomer_probability>
1

> <r_epik_Ionization_Penalty>
2.986e-05

> <r_epik_Ionization_Penalty_Charging>
0

> <r_epik_Ionization_Penalty_Neutral>
2.986e-05

> <r_epik_State_Penalty>
-0

> <r_epik_Charging_Adjusted_Penalty>
0

> <i_epik_Tot_Q>
0

> <i_epik_Tot_abs_Q>
0

> <r_epik_Metal_State_Penalty>
-0

> <b_epik_Metal_Only>
0

> <s_lp_Force_Field>
OPLS_2005

> <r_lp_Energy>
19.1404

> <b_lp_Chiralities_Consistent>
1

> <s_lp_Variant>
AV-unprocessed.smi:2522-1

> <Gold.Version>
5.8.1

> <Gold.Id.Protein>
6NUR|6NUR_protein|mol2

> <Gold.PLP.Fitness>
41.7629

> <Gold.PLP.PLP>
-40.9131

> <Gold.PLP.part.hbond>
-1.0000

> <Gold.PLP.part.metal>
0.0000

> <Gold.PLP.part.buried>
-6.2322

> <Gold.PLP.part.nonpolar>
-33.5061

> <Gold.PLP.part.repulsive>
0.3103

> <Gold.PLP.ligand.clash>
0.0000

> <Gold.PLP.ligand.torsion>
1.0786

> <Gold.PLP.Chemscore.Hbond>
1.0000

> <Gold.PLP.Chemscore.CHOScore>
0.0000

> <Gold.PLP.Chemscore.Metal>
0.0000

> <Gold.Chemscore.Hbonds>
donor molecule, donor type, donor heavy atom, donor atom, acceptor molecule, acceptor atom, score
      P1  H  6896  6908       L1     8  1.00

> <Gold.PLP.Chemscore.Internal.Correction>
0.0070

> <Gold.Rescore>
     Score         DG    S(hbond)    S(metal)    S(lipo)     H(rot)  DE(clash)    DE(int)     intcor
     13.93     -16.24       0.99        0.00      98.56       1.59       0.04       2.27       ----

> <Gold.Chemscore.Fitness>
13.9259

> <Gold.Chemscore.DG>
-16.2430

> <Gold.Chemscore.ZeroCoef>
-5.4800

> <Gold.Chemscore.Hbond>
0.9879

> <Gold.Chemscore.Metal>
0.0000

> <Gold.Chemscore.Lipo>
98.5620

> <Gold.Chemscore.Internal_Hbond>
0.0000

> <Gold.Chemscore.DEClash>
0.0432

> <Gold.Chemscore.DEInternal>
2.2740

> <Gold.Chemscore.Rot>
1.5892

> <Gold.Chemscore.Internal.Correction>
   9.000000E+99

> <Gold.Chemscore.Hbonds>
donor molecule, donor type, donor heavy atom, donor atom, acceptor molecule, acceptor atom, score
      P1  H  6896  6908       L1     8  0.78

> <Gold.Chemscore.Hbond.Weighted>
-3.2996

> <Gold.Chemscore.Metal.Weighted>
-0.0000

> <Gold.Chemscore.Lipo.Weighted>
-11.5318

> <Gold.Chemscore.Internal_Hbond.Weighted>
0.0000

> <Gold.Chemscore.DEClash.Weighted>
0.0432

> <Gold.Chemscore.DEInternal.Weighted>
2.2740

> <Gold.Chemscore.Rot.Weighted>
4.0684

> <Gold.Chemscore.Internal.Correction.Weighted>
   9.000000E+99

> <Gold.Protein.RotatedTorsions>
[ 6907 6896 6895 6894 ] final  161.53 input  -60.11 | X-H torsion
[ 7974 7965 7964 7962 ] final  -99.33 input  175.53 | X-H torsion
[ 8008 7997 7996 7995 ] final   43.94 input   59.86 | X-H torsion
[ 10167 10162 10161 10158 ] final  -14.20 input  -65.29 | X-H torsion
[ 10718 10713 10712 10709 ] final   64.35 input   66.30 | X-H torsion
[ 10763 10752 10751 10750 ] final   51.22 input  -60.55 | X-H torsion
[ 11005 11000 10999 10996 ] final  -47.06 input  -57.11 | X-H torsion

> <Gold.Protein.ActiveResidues>
 VAL166  LYS551  ARG553  GLY616  TRP617  ASP618  TYR619  PRO620  LYS621  CYS622 
 ASP623  PHE694  ASN695  SER759  ASP760  ASP761  ALA762  ILE779  LEU786  VAL792 
 PHE793  MET794  SER795  GLU796  ALA797  LYS798  CYS799  TRP800  GLU811  SER814 

> <Gold.Protein.RotatedAtoms>
  151.9541  133.3675  159.4010 H   0  0  0  0  0  0  0  0  0  0  0  0  # atno 6907 bound_to 6896
  150.6975  134.4309  159.5257 H   0  0  0  0  0  0  0  0  0  0  0  0  # atno 6908 bound_to 6896
  152.1987  134.8607  160.0561 H   0  0  0  0  0  0  0  0  0  0  0  0  # atno 6909 bound_to 6896
  145.3089  140.9395  143.2781 H   0  0  0  0  0  0  0  0  0  0  0  0  # atno 7974 bound_to 7965
  155.3110  140.3391  155.4244 H   0  0  0  0  0  0  0  0  0  0  0  0  # atno 8008 bound_to 7997
  156.1955  140.1713  156.8044 H   0  0  0  0  0  0  0  0  0  0  0  0  # atno 8009 bound_to 7997
  154.5494  140.0708  156.8626 H   0  0  0  0  0  0  0  0  0  0  0  0  # atno 8010 bound_to 7997
  140.7197  143.5346  150.9479 H   0  0  0  0  0  0  0  0  0  0  0  0  # atno 10167 bound_to 10162
  157.6034  130.9155  149.9835 H   0  0  0  0  0  0  0  0  0  0  0  0  # atno 10718 bound_to 10713
  152.9785  135.5853  154.4380 H   0  0  0  0  0  0  0  0  0  0  0  0  # atno 10763 bound_to 10752
  154.3985  135.2768  155.2113 H   0  0  0  0  0  0  0  0  0  0  0  0  # atno 10764 bound_to 10752
  154.3954  135.6116  153.5921 H   0  0  0  0  0  0  0  0  0  0  0  0  # atno 10765 bound_to 10752
  141.0617  133.6707  156.3243 H   0  0  0  0  0  0  0  0  0  0  0  0  # atno 11005 bound_to 11000
  144.9032  139.4623  143.6622 LP  0  0  0  0  0  0  0  0  0  0  0  0  # atno 17320 bound_to 7965
  146.3125  139.7798  142.9009 LP  0  0  0  0  0  0  0  0  0  0  0  0  # atno 17321 bound_to 7965
  139.9067  143.6769  152.3122 LP  0  0  0  0  0  0  0  0  0  0  0  0  # atno 17342 bound_to 10162
  139.7138  144.7615  151.1068 LP  0  0  0  0  0  0  0  0  0  0  0  0  # atno 17343 bound_to 10162
  156.1113  130.3650  150.0044 LP  0  0  0  0  0  0  0  0  0  0  0  0  # atno 17370 bound_to 10713
  156.8142  130.9335  151.3643 LP  0  0  0  0  0  0  0  0  0  0  0  0  # atno 17371 bound_to 10713
  140.5855  134.5703  157.5488 LP  0  0  0  0  0  0  0  0  0  0  0  0  # atno 17394 bound_to 11000
  139.9439  134.7737  156.0610 LP  0  0  0  0  0  0  0  0  0  0  0  0  # atno 17395 bound_to 11000

$$$$
