AV-unprocessed.smi:3254|AV-procd|sdf|12456|dock10
  -GOLD-   2272018353D 1   1.00000     0.00000
 Structure written by MMmdl.
 36 37  0  0  0  0  0  0  0  0  1 V2000
  148.8025  141.1054  154.6459 C   0  0  0  0  0  0  0  0  0  0  0  0
  150.0860  140.9604  155.4751 C   0  0  0  0  0  0  0  0  0  0  0  0
  150.7505  139.6838  155.2246 N   0  0  0  0  0  0  0  0  0  0  0  0
  150.1654  138.7079  154.3207 C   0  0  0  0  0  0  0  0  0  0  0  0
  151.0253  137.4334  154.4678 C   0  0  2  0  0  0  0  0  0  0  0  0
  150.2641  136.2948  155.1648 C   0  0  0  0  0  0  0  0  0  0  0  0
  150.4790  136.0395  156.3504 O   0  0  0  0  0  0  0  0  0  0  0  0
  149.3736  135.6236  154.4185 N   0  0  0  0  0  0  0  0  0  0  0  0
  148.5493  134.5194  154.8943 C   0  0  0  0  0  0  0  0  0  0  0  0
  148.5101  133.3640  153.8804 C   0  0  0  0  0  0  0  0  0  0  0  0
  147.3504  133.4549  153.0173 N   0  0  0  0  0  0  0  0  0  0  0  0
  147.0064  132.5925  151.9848 C   0  0  0  0  0  0  0  0  0  0  0  0
  145.8334  133.0726  151.4469 C   0  0  0  0  0  0  0  0  0  0  0  0
  145.4414  134.2228  152.1279 N   0  0  0  0  0  0  0  0  0  0  0  0
  146.3878  134.3868  153.0433 C   0  0  0  0  0  0  0  0  0  0  0  0
  152.2585  137.8728  155.2823 C   0  0  0  0  0  0  0  0  0  0  0  0
  151.9062  139.2723  155.7576 C   0  0  0  0  0  0  0  0  0  0  0  0
  152.6118  139.9077  156.5396 O   0  0  0  0  0  0  0  0  0  0  0  0
  148.3071  142.0518  154.8633 H   0  0  0  0  0  0  0  0  0  0  0  0
  148.0983  140.3030  154.8679 H   0  0  0  0  0  0  0  0  0  0  0  0
  149.0129  141.0816  153.5764 H   0  0  0  0  0  0  0  0  0  0  0  0
  150.7722  141.7777  155.2483 H   0  0  0  0  0  0  0  0  0  0  0  0
  149.8478  141.0457  156.5358 H   0  0  0  0  0  0  0  0  0  0  0  0
  149.1137  138.5428  154.5620 H   0  0  0  0  0  0  0  0  0  0  0  0
  150.2117  139.0904  153.3003 H   0  0  0  0  0  0  0  0  0  0  0  0
  151.3426  137.0953  153.4799 H   0  0  0  0  0  0  0  0  0  0  0  0
  149.2591  135.8970  153.4531 H   0  0  0  0  0  0  0  0  0  0  0  0
  148.9648  134.1707  155.8401 H   0  0  0  0  0  0  0  0  0  0  0  0
  147.5403  134.8751  155.1107 H   0  0  0  0  0  0  0  0  0  0  0  0
  149.4027  133.3671  153.2536 H   0  0  0  0  0  0  0  0  0  0  0  0
  148.4880  132.4032  154.3964 H   0  0  0  0  0  0  0  0  0  0  0  0
  147.6083  131.7339  151.7250 H   0  0  0  0  0  0  0  0  0  0  0  0
  145.2471  132.6822  150.6281 H   0  0  0  0  0  0  0  0  0  0  0  0
  146.3813  135.2051  153.7482 H   0  0  0  0  0  0  0  0  0  0  0  0
  152.4790  137.2252  156.1325 H   0  0  0  0  0  0  0  0  0  0  0  0
  153.1484  137.9168  154.6537 H   0  0  0  0  0  0  0  0  0  0  0  0
  1  2  1  0  0  0  0
  1 19  1  0  0  0  0
  1 20  1  0  0  0  0
  1 21  1  0  0  0  0
  2  3  1  0  0  0  0
  2 22  1  0  0  0  0
  2 23  1  0  0  0  0
  3 17  1  0  0  0  0
  3  4  1  0  0  0  0
  4  5  1  0  0  0  0
  4 24  1  0  0  0  0
  4 25  1  0  0  0  0
  5  6  1  0  0  0  0
  5 16  1  0  0  0  0
  5 26  1  0  0  0  0
  6  7  2  0  0  0  0
  6  8  1  0  0  0  0
  8  9  1  0  0  0  0
  8 27  1  0  0  0  0
  9 10  1  0  0  0  0
  9 28  1  0  0  0  0
  9 29  1  0  0  0  0
 10 11  1  0  0  0  0
 10 30  1  0  0  0  0
 10 31  1  0  0  0  0
 11 15  1  0  0  0  0
 11 12  1  0  0  0  0
 12 13  2  0  0  0  0
 12 32  1  0  0  0  0
 13 14  1  0  0  0  0
 13 33  1  0  0  0  0
 14 15  2  0  0  0  0
 15 34  1  0  0  0  0
 16 17  1  0  0  0  0
 16 35  1  0  0  0  0
 16 36  1  0  0  0  0
 17 18  2  0  0  0  0
M  END
> <s_m_source_file>
AV-unprocessed.smi

> <i_m_source_file_index>
3254

> <i_lp_mmshare_version>
43012

> <i_f3d_flags>
0

> <s_epik_input>
W0NIM11bQ0gyXU4xW0NIMl1bQ0BIXShbQ0gyXUMxPU8pQyg9TylbTkhdW0NIMl1bQ0gyXW4yW2NIXVtjSF1uW2NIXTI=

> <s_epik_cmdline>
J2VwaWtfcHl0aG9uJywgJy1waCcsICc3LjAnLCAnLXRuJywgJzgnLCAnLW1hJywgJzIwMCcsICctbWV0YWxfYmluZGluZycsICctaW1hZScsICc8aW5maWxlLm1hZT4nLCAnLW9tYWUnLCAnPG91dGZpbGUubWFlPic=

> <r_lp_tautomer_probability>
1

> <r_epik_Ionization_Penalty>
0.587394

> <r_epik_Ionization_Penalty_Charging>
0.587394

> <r_epik_Ionization_Penalty_Neutral>
3.11583e-08

> <r_epik_State_Penalty>
0.600671

> <r_epik_Charging_Adjusted_Penalty>
1.18807

> <i_epik_Tot_Q>
0

> <i_epik_Tot_abs_Q>
0

> <r_epik_Metal_State_Penalty>
0.297665

> <b_epik_Metal_Only>
0

> <s_lp_Force_Field>
OPLS_2005

> <r_lp_Energy>
13.3235

> <b_lp_Chiralities_Consistent>
1

> <s_lp_Variant>
AV-unprocessed.smi:3254-4

> <Gold.Version>
5.8.1

> <Gold.Id.Protein>
6NUR|6NUR_protein|mol2

> <Gold.PLP.Fitness>
40.0916

> <Gold.PLP.PLP>
-32.6355

> <Gold.PLP.part.hbond>
-2.0000

> <Gold.PLP.part.metal>
0.0000

> <Gold.PLP.part.buried>
-0.2323

> <Gold.PLP.part.nonpolar>
-30.1971

> <Gold.PLP.part.repulsive>
0.1305

> <Gold.PLP.ligand.clash>
0.0000

> <Gold.PLP.ligand.torsion>
0.7794

> <Gold.PLP.Chemscore.Hbond>
2.0000

> <Gold.PLP.Chemscore.CHOScore>
1.0000

> <Gold.PLP.Chemscore.Metal>
0.0000

> <Gold.Chemscore.Hbonds>
donor molecule, donor type, donor heavy atom, donor atom, acceptor molecule, acceptor atom, score
      L1  H     8    27       P1  7948  1.00
      P1  H  7997  8010       L1    18  1.00
      L1  C    12    32       P1 10747  1.00

> <Gold.PLP.Chemscore.Internal.Correction>
0.0149

> <Gold.Rescore>
     Score         DG    S(hbond)    S(metal)    S(lipo)     H(rot)  DE(clash)    DE(int)     intcor
     12.42     -13.12       1.94        0.00      58.08       2.20       0.00       0.70       ----

> <Gold.Chemscore.Fitness>
12.4243

> <Gold.Chemscore.DG>
-13.1195

> <Gold.Chemscore.ZeroCoef>
-5.4800

> <Gold.Chemscore.Hbond>
1.9354

> <Gold.Chemscore.Metal>
0.0000

> <Gold.Chemscore.Lipo>
58.0768

> <Gold.Chemscore.Internal_Hbond>
0.0000

> <Gold.Chemscore.DEClash>
0.0000

> <Gold.Chemscore.DEInternal>
0.6952

> <Gold.Chemscore.Rot>
2.1952

> <Gold.Chemscore.Internal.Correction>
   9.000000E+99

> <Gold.Chemscore.Hbonds>
donor molecule, donor type, donor heavy atom, donor atom, acceptor molecule, acceptor atom, score
      L1  H     8    27       P1  7948  0.65
      P1  H  7997  8010       L1    18  1.00

> <Gold.Chemscore.Hbond.Weighted>
-6.4641

> <Gold.Chemscore.Metal.Weighted>
-0.0000

> <Gold.Chemscore.Lipo.Weighted>
-6.7950

> <Gold.Chemscore.Internal_Hbond.Weighted>
0.0000

> <Gold.Chemscore.DEClash.Weighted>
0.0000

> <Gold.Chemscore.DEInternal.Weighted>
0.6952

> <Gold.Chemscore.Rot.Weighted>
5.6197

> <Gold.Chemscore.Internal.Correction.Weighted>
   9.000000E+99

> <Gold.Protein.RotatedTorsions>
[ 6907 6896 6895 6894 ] final -133.50 input  -60.11 | X-H torsion
[ 7974 7965 7964 7962 ] final  121.11 input  175.53 | X-H torsion
[ 8008 7997 7996 7995 ] final   75.14 input   59.86 | X-H torsion
[ 10167 10162 10161 10158 ] final    7.29 input  -65.29 | X-H torsion
[ 10718 10713 10712 10709 ] final -176.17 input   66.30 | X-H torsion
[ 10763 10752 10751 10750 ] final   -4.78 input  -60.55 | X-H torsion
[ 11005 11000 10999 10996 ] final   68.88 input  -57.11 | X-H torsion

> <Gold.Protein.ActiveResidues>
 VAL166  LYS551  ARG553  GLY616  TRP617  ASP618  TYR619  PRO620  LYS621  CYS622 
 ASP623  PHE694  ASN695  SER759  ASP760  ASP761  ALA762  ILE779  LEU786  VAL792 
 PHE793  MET794  SER795  GLU796  ALA797  LYS798  CYS799  TRP800  GLU811  SER814 

> <Gold.Protein.RotatedAtoms>
  150.9747  133.6307  159.2731 H   0  0  0  0  0  0  0  0  0  0  0  0  # atno 6907 bound_to 6896
  151.3583  135.0898  159.9436 H   0  0  0  0  0  0  0  0  0  0  0  0  # atno 6908 bound_to 6896
  152.5195  133.9326  159.7642 H   0  0  0  0  0  0  0  0  0  0  0  0  # atno 6909 bound_to 6896
  145.1232  139.3375  143.4703 H   0  0  0  0  0  0  0  0  0  0  0  0  # atno 7974 bound_to 7965
  155.8086  140.3474  155.5444 H   0  0  0  0  0  0  0  0  0  0  0  0  # atno 8008 bound_to 7997
  155.8464  140.0949  157.1723 H   0  0  0  0  0  0  0  0  0  0  0  0  # atno 8009 bound_to 7997
  154.4006  140.1385  156.3778 H   0  0  0  0  0  0  0  0  0  0  0  0  # atno 8010 bound_to 7997
  140.6380  143.7841  150.7387 H   0  0  0  0  0  0  0  0  0  0  0  0  # atno 10167 bound_to 10162
  156.8107  130.9585  151.3116 H   0  0  0  0  0  0  0  0  0  0  0  0  # atno 10718 bound_to 10713
  153.3896  135.7001  153.6505 H   0  0  0  0  0  0  0  0  0  0  0  0  # atno 10763 bound_to 10752
  153.5083  135.3637  155.2574 H   0  0  0  0  0  0  0  0  0  0  0  0  # atno 10764 bound_to 10752
  154.8701  135.4128  154.3210 H   0  0  0  0  0  0  0  0  0  0  0  0  # atno 10765 bound_to 10752
  139.9686  134.6939  156.0494 H   0  0  0  0  0  0  0  0  0  0  0  0  # atno 11005 bound_to 11000
  146.3519  140.1200  142.8600 LP  0  0  0  0  0  0  0  0  0  0  0  0  # atno 17320 bound_to 7965
  145.0717  140.9160  143.4878 LP  0  0  0  0  0  0  0  0  0  0  0  0  # atno 17321 bound_to 7965
  140.1467  143.4394  152.2158 LP  0  0  0  0  0  0  0  0  0  0  0  0  # atno 17342 bound_to 10162
  139.5590  144.7392  151.4211 LP  0  0  0  0  0  0  0  0  0  0  0  0  # atno 17343 bound_to 10162
  157.6507  130.8882  149.9628 LP  0  0  0  0  0  0  0  0  0  0  0  0  # atno 17370 bound_to 10713
  156.1046  130.3653  150.0156 LP  0  0  0  0  0  0  0  0  0  0  0  0  # atno 17371 bound_to 10713
  141.1365  133.6574  156.3610 LP  0  0  0  0  0  0  0  0  0  0  0  0  # atno 17394 bound_to 11000
  140.5343  134.6182  157.5360 LP  0  0  0  0  0  0  0  0  0  0  0  0  # atno 17395 bound_to 11000

$$$$
