AV-unprocessed.smi:143|AV-procd|sdf|1193|dock3
  -GOLD-   2262018353D 1   1.00000     0.00000
 Structure written by MMmdl.
 38 40  0  0  0  0  0  0  0  0  1 V2000
  152.9546  138.2394  159.7852 O   0  0  0  0  0  0  0  0  0  0  0  0
  153.6039  139.2552  160.0424 C   0  0  0  0  0  0  0  0  0  0  0  0
  154.9567  139.1416  160.7775 C   0  0  0  0  0  0  0  0  0  0  0  0
  154.8143  138.8455  162.1989 N   0  0  0  0  0  0  0  0  0  0  0  0
  154.2041  137.6178  162.5598 C   0  0  0  0  0  0  0  0  0  0  0  0
  153.7961  136.8165  161.7171 O   0  0  0  0  0  0  0  0  0  0  0  0
  154.1193  137.3828  163.9969 C   0  0  0  0  0  0  0  0  0  0  0  0
  153.5698  136.2445  164.4532 F   0  0  0  0  0  0  0  0  0  0  0  0
  154.5894  138.2895  164.8805 C   0  0  0  0  0  0  0  0  0  0  0  0
  155.1659  139.4882  164.5018 N   0  0  0  0  0  0  0  0  0  0  0  0
  155.7098  140.4132  165.5662 C   0  0  2  0  0  0  0  0  0  0  0  0
  155.5872  139.8508  166.9953 C   0  0  0  0  0  0  0  0  0  0  0  0
  154.7606  140.9092  167.7073 C   0  0  0  0  0  0  0  0  0  0  0  0
  154.9654  142.1431  166.8353 C   0  0  0  0  0  0  0  0  0  0  0  0
  154.9989  141.6118  165.5201 O   0  0  0  0  0  0  0  0  0  0  0  0
  155.3245  139.7849  163.1280 C   0  0  0  0  0  0  0  0  0  0  0  0
  155.8945  140.8135  162.7597 O   0  0  0  0  0  0  0  0  0  0  0  0
  153.1334  140.6239  159.6790 C   0  0  0  0  0  0  0  0  0  0  0  0
  152.0843  140.7686  158.7406 C   0  0  0  0  0  0  0  0  0  0  0  0
  151.6188  142.0465  158.3746 C   0  0  0  0  0  0  0  0  0  0  0  0
  152.2001  143.1967  158.9390 C   0  0  0  0  0  0  0  0  0  0  0  0
  151.5729  144.9239  158.4437 Br  0  0  0  0  0  0  0  0  0  0  0  0
  153.2469  143.0668  159.8700 C   0  0  0  0  0  0  0  0  0  0  0  0
  153.7122  141.7892  160.2383 C   0  0  0  0  0  0  0  0  0  0  0  0
  155.5812  138.3651  160.3337 H   0  0  0  0  0  0  0  0  0  0  0  0
  155.5315  140.0647  160.6867 H   0  0  0  0  0  0  0  0  0  0  0  0
  154.5054  138.0594  165.9327 H   0  0  0  0  0  0  0  0  0  0  0  0
  156.7499  140.6034  165.2973 H   0  0  0  0  0  0  0  0  0  0  0  0
  155.1280  138.8622  167.0202 H   0  0  0  0  0  0  0  0  0  0  0  0
  156.5863  139.7781  167.4260 H   0  0  0  0  0  0  0  0  0  0  0  0
  153.7078  140.6258  167.7092 H   0  0  0  0  0  0  0  0  0  0  0  0
  155.0696  141.0659  168.7410 H   0  0  0  0  0  0  0  0  0  0  0  0
  154.1704  142.8797  166.9523 H   0  0  0  0  0  0  0  0  0  0  0  0
  155.9190  142.6241  167.0592 H   0  0  0  0  0  0  0  0  0  0  0  0
  151.6217  139.9007  158.2931 H   0  0  0  0  0  0  0  0  0  0  0  0
  150.8150  142.1426  157.6596 H   0  0  0  0  0  0  0  0  0  0  0  0
  153.6958  143.9483  160.3033 H   0  0  0  0  0  0  0  0  0  0  0  0
  154.5189  141.7310  160.9533 H   0  0  0  0  0  0  0  0  0  0  0  0
  1  2  2  0  0  0  0
  2  3  1  0  0  0  0
  2 18  1  0  0  0  0
  3  4  1  0  0  0  0
  3 25  1  0  0  0  0
  3 26  1  0  0  0  0
  4 16  1  0  0  0  0
  4  5  1  0  0  0  0
  5  6  2  0  0  0  0
  5  7  1  0  0  0  0
  7  8  1  0  0  0  0
  7  9  2  0  0  0  0
  9 10  1  0  0  0  0
  9 27  1  0  0  0  0
 10 11  1  0  0  0  0
 10 16  1  0  0  0  0
 11 15  1  0  0  0  0
 11 12  1  0  0  0  0
 11 28  1  0  0  0  0
 12 13  1  0  0  0  0
 12 29  1  0  0  0  0
 12 30  1  0  0  0  0
 13 14  1  0  0  0  0
 13 31  1  0  0  0  0
 13 32  1  0  0  0  0
 14 15  1  0  0  0  0
 14 33  1  0  0  0  0
 14 34  1  0  0  0  0
 16 17  2  0  0  0  0
 18 24  1  0  0  0  0
 18 19  2  0  0  0  0
 19 20  1  0  0  0  0
 19 35  1  0  0  0  0
 20 21  2  0  0  0  0
 20 36  1  0  0  0  0
 21 22  1  0  0  0  0
 21 23  1  0  0  0  0
 23 24  2  0  0  0  0
 23 37  1  0  0  0  0
 24 38  1  0  0  0  0
M  END
> <s_m_source_file>
AV-unprocessed.smi

> <i_m_source_file_index>
143

> <i_lp_mmshare_version>
43012

> <i_f3d_flags>
0

> <s_epik_input>
W2NIXTFbY0hdYyhCcilbY0hdW2NIXWMxQyg9TylbQ0gyXW4yYyg9TyljKEYpW2NIXW4oYzI9TylbQ0BASF0zW0NIMl1bQ0gyXVtDSDJdTzM=

> <s_epik_cmdline>
J2VwaWtfcHl0aG9uJywgJy1waCcsICc3LjAnLCAnLXRuJywgJzgnLCAnLW1hJywgJzIwMCcsICctbWV0YWxfYmluZGluZycsICctaW1hZScsICc8aW5maWxlLm1hZT4nLCAnLW9tYWUnLCAnPG91dGZpbGUubWFlPic=

> <r_lp_tautomer_probability>
1

> <r_epik_Ionization_Penalty>
4.7008e-09

> <r_epik_Ionization_Penalty_Charging>
4.69459e-09

> <r_epik_Ionization_Penalty_Neutral>
6.21034e-12

> <r_epik_State_Penalty>
-0

> <r_epik_Charging_Adjusted_Penalty>
4.69459e-09

> <i_epik_Tot_Q>
0

> <i_epik_Tot_abs_Q>
0

> <r_epik_Metal_State_Penalty>
-0

> <b_epik_Metal_Only>
0

> <s_epik_Chemistry_Notes>
This compound contains an acetal/aminal-like group ( X-CH(R)-Y where X, Y are N, S, or O) that may be acid/base labile, releasing an aldehyde.

> <s_lp_Force_Field>
OPLS_2005

> <r_lp_Energy>
36.1645

> <b_lp_Chiralities_Consistent>
1

> <s_lp_Variant>
AV-unprocessed.smi:143-1

> <Gold.Version>
5.8.1

> <Gold.Id.Protein>
6NUR|6NUR_protein|mol2

> <Gold.PLP.Fitness>
50.9832

> <Gold.PLP.PLP>
-51.6205

> <Gold.PLP.part.hbond>
-0.6253

> <Gold.PLP.part.metal>
0.0000

> <Gold.PLP.part.buried>
-7.5765

> <Gold.PLP.part.nonpolar>
-43.2772

> <Gold.PLP.part.repulsive>
0.0000

> <Gold.PLP.ligand.clash>
0.0000

> <Gold.PLP.ligand.torsion>
0.3357

> <Gold.PLP.Chemscore.Hbond>
0.0000

> <Gold.PLP.Chemscore.CHOScore>
0.0000

> <Gold.PLP.Chemscore.Metal>
0.0000

> <Gold.PLP.Chemscore.Internal.Correction>
0.0341

> <Gold.Rescore>
     Score         DG    S(hbond)    S(metal)    S(lipo)     H(rot)  DE(clash)    DE(int)     intcor
     10.68     -14.52       0.00        0.00     111.76       1.58       1.83       2.01       ----

> <Gold.Chemscore.Fitness>
10.6782

> <Gold.Chemscore.DG>
-14.5198

> <Gold.Chemscore.ZeroCoef>
-5.4800

> <Gold.Chemscore.Hbond>
0.0000

> <Gold.Chemscore.Metal>
0.0000

> <Gold.Chemscore.Lipo>
111.7583

> <Gold.Chemscore.Internal_Hbond>
0.0000

> <Gold.Chemscore.DEClash>
1.8287

> <Gold.Chemscore.DEInternal>
2.0130

> <Gold.Chemscore.Rot>
1.5765

> <Gold.Chemscore.Internal.Correction>
   9.000000E+99

> <Gold.Chemscore.Hbond.Weighted>
-0.0000

> <Gold.Chemscore.Metal.Weighted>
-0.0000

> <Gold.Chemscore.Lipo.Weighted>
-13.0757

> <Gold.Chemscore.Internal_Hbond.Weighted>
0.0000

> <Gold.Chemscore.DEClash.Weighted>
1.8287

> <Gold.Chemscore.DEInternal.Weighted>
2.0130

> <Gold.Chemscore.Rot.Weighted>
4.0359

> <Gold.Chemscore.Internal.Correction.Weighted>
   9.000000E+99

> <Gold.Protein.RotatedTorsions>
[ 6907 6896 6895 6894 ] final   69.21 input  -60.11 | X-H torsion
[ 7974 7965 7964 7962 ] final  151.75 input  175.53 | X-H torsion
[ 8008 7997 7996 7995 ] final  -57.13 input   59.86 | X-H torsion
[ 10167 10162 10161 10158 ] final  -60.01 input  -65.29 | X-H torsion
[ 10718 10713 10712 10709 ] final  -56.89 input   66.30 | X-H torsion
[ 10763 10752 10751 10750 ] final   40.58 input  -60.55 | X-H torsion
[ 11005 11000 10999 10996 ] final    8.08 input  -57.11 | X-H torsion

> <Gold.Protein.ActiveResidues>
 VAL166  LYS551  ARG553  GLY616  TRP617  ASP618  TYR619  PRO620  LYS621  CYS622 
 ASP623  PHE694  ASN695  SER759  ASP760  ASP761  ALA762  ILE779  LEU786  VAL792 
 PHE793  MET794  SER795  GLU796  ALA797  LYS798  CYS799  TRP800  GLU811  SER814 

> <Gold.Protein.RotatedAtoms>
  152.4671  134.5049  159.9735 H   0  0  0  0  0  0  0  0  0  0  0  0  # atno 6907 bound_to 6896
  151.5084  133.3484  159.2888 H   0  0  0  0  0  0  0  0  0  0  0  0  # atno 6908 bound_to 6896
  150.8661  134.8053  159.7181 H   0  0  0  0  0  0  0  0  0  0  0  0  # atno 6909 bound_to 6896
  144.8270  139.6578  143.6075 H   0  0  0  0  0  0  0  0  0  0  0  0  # atno 7974 bound_to 7965
  154.4256  140.1114  156.5748 H   0  0  0  0  0  0  0  0  0  0  0  0  # atno 8008 bound_to 7997
  155.6174  140.3495  155.4622 H   0  0  0  0  0  0  0  0  0  0  0  0  # atno 8009 bound_to 7997
  156.0051  140.1207  157.0499 H   0  0  0  0  0  0  0  0  0  0  0  0  # atno 8010 bound_to 7997
  140.6098  143.2384  151.5735 H   0  0  0  0  0  0  0  0  0  0  0  0  # atno 10167 bound_to 10162
  156.1253  130.4163  150.0367 H   0  0  0  0  0  0  0  0  0  0  0  0  # atno 10718 bound_to 10713
  152.9932  135.6187  154.2650 H   0  0  0  0  0  0  0  0  0  0  0  0  # atno 10763 bound_to 10752
  154.2384  135.2789  155.2865 H   0  0  0  0  0  0  0  0  0  0  0  0  # atno 10764 bound_to 10752
  154.5390  135.5766  153.6881 H   0  0  0  0  0  0  0  0  0  0  0  0  # atno 10765 bound_to 10752
  140.5410  134.0374  155.7904 H   0  0  0  0  0  0  0  0  0  0  0  0  # atno 11005 bound_to 11000
  146.2575  139.6336  142.9385 LP  0  0  0  0  0  0  0  0  0  0  0  0  # atno 17320 bound_to 7965
  145.4978  141.0438  143.2557 LP  0  0  0  0  0  0  0  0  0  0  0  0  # atno 17321 bound_to 7965
  139.5353  144.2800  152.1237 LP  0  0  0  0  0  0  0  0  0  0  0  0  # atno 17342 bound_to 10162
  140.1997  144.4670  150.6437 LP  0  0  0  0  0  0  0  0  0  0  0  0  # atno 17343 bound_to 10162
  156.8294  130.9387  151.3638 LP  0  0  0  0  0  0  0  0  0  0  0  0  # atno 17370 bound_to 10713
  157.6435  130.8825  149.9493 LP  0  0  0  0  0  0  0  0  0  0  0  0  # atno 17371 bound_to 10713
  141.1227  133.9434  157.2697 LP  0  0  0  0  0  0  0  0  0  0  0  0  # atno 17394 bound_to 11000
  139.9504  135.0176  156.8977 LP  0  0  0  0  0  0  0  0  0  0  0  0  # atno 17395 bound_to 11000

$$$$
