AV-unprocessed.smi:21|AV-procd|sdf|137|dock2
  -GOLD-   2262015333D 1   1.00000     0.00000
 Structure written by MMmdl.
 62 65  0  0  0  0  0  0  0  0  2 V2000
  144.9514  132.4375  151.4779 C   0  0  0  0  0  0  0  0  0  0  0  0
  146.2950  132.8530  151.6610 O   0  0  0  0  0  0  0  0  0  0  0  0
  146.7513  132.7284  152.9999 C   0  0  1  0  0  0  0  0  0  0  0  0
  148.2148  133.1199  153.1762 C   0  0  0  0  0  0  0  0  0  0  0  0
  148.3174  133.4907  154.6629 C   0  0  1  0  0  0  0  0  0  0  0  0
  149.4796  134.4630  154.9834 C   0  0  0  0  0  0  0  0  0  0  0  0
  149.8891  134.4024  156.3896 N   0  0  0  0  0  0  0  0  0  0  0  0
  150.4352  133.1455  156.8869 C   0  0  0  0  0  0  0  0  0  0  0  0
  150.0063  135.5416  157.1329 C   0  0  0  0  0  0  0  0  0  0  0  0
  149.2775  135.6400  158.2769 N   0  0  0  0  0  0  0  0  0  0  0  0
  149.3453  136.7293  159.0450 C   0  0  0  0  0  0  0  0  0  0  0  0
  150.0729  137.8295  158.8627 N   0  0  0  0  0  0  0  0  0  0  0  0
  150.8166  137.7490  157.7242 C   0  0  0  0  0  0  0  0  0  0  0  0
  150.8403  136.6571  156.8058 C   0  0  0  0  0  0  0  0  0  0  0  0
  151.7006  136.9621  155.7557 N   0  0  0  0  0  0  0  0  0  0  0  0
  152.1620  138.1476  156.0409 C   0  0  0  0  0  0  0  0  0  0  0  0
  151.6980  138.6894  157.2168 N   0  0  0  0  0  0  0  0  0  0  0  0
  152.0544  139.9886  157.7708 C   0  0  0  0  0  0  0  0  0  0  0  0
  151.0573  141.1302  157.4259 C   0  0  2  0  0  0  0  0  0  0  0  0
  151.1292  141.5491  155.9380 C   0  0  0  0  0  0  0  0  0  0  0  0
  150.5594  140.5619  155.1035 O   0  0  0  0  0  0  0  0  0  0  0  0
  151.2205  142.3551  158.3635 C   0  0  2  0  0  0  0  0  0  0  0  0
  151.6088  143.6450  157.6588 C   0  0  0  0  0  0  0  0  0  0  0  0
  152.1180  144.5021  158.8116 C   0  0  0  0  0  0  0  0  0  0  0  0
  152.6998  143.5908  159.7367 O   0  0  0  0  0  0  0  0  0  0  0  0
  152.3704  142.2544  159.3722 C   0  0  0  0  0  0  0  0  0  0  0  0
  146.9528  133.9523  155.0568 N   0  3  1  0  0  0  0  0  0  0  0  0
  146.8245  135.3012  155.6575 C   0  0  0  0  0  0  0  0  0  0  0  0
  146.0492  133.7395  153.9031 C   0  0  0  0  0  0  0  0  0  0  0  0
  146.5781  131.7202  153.3812 H   0  0  0  0  0  0  0  0  0  0  0  0
  148.4768  132.5698  155.2257 H   0  0  0  0  0  0  0  0  0  0  0  0
  144.6593  132.6002  150.4403 H   0  0  0  0  0  0  0  0  0  0  0  0
  144.2711  133.0079  152.1111 H   0  0  0  0  0  0  0  0  0  0  0  0
  144.8261  131.3765  151.6954 H   0  0  0  0  0  0  0  0  0  0  0  0
  148.9059  132.3254  152.8927 H   0  0  0  0  0  0  0  0  0  0  0  0
  148.4316  133.9906  152.5557 H   0  0  0  0  0  0  0  0  0  0  0  0
  150.3189  134.2956  154.3091 H   0  0  0  0  0  0  0  0  0  0  0  0
  149.1598  135.4878  154.7943 H   0  0  0  0  0  0  0  0  0  0  0  0
  151.5252  133.1688  156.8808 H   0  0  0  0  0  0  0  0  0  0  0  0
  150.1167  132.3090  156.2646 H   0  0  0  0  0  0  0  0  0  0  0  0
  150.0902  132.9466  157.9020 H   0  0  0  0  0  0  0  0  0  0  0  0
  148.7296  136.7172  159.9324 H   0  0  0  0  0  0  0  0  0  0  0  0
  152.8649  138.6595  155.3996 H   0  0  0  0  0  0  0  0  0  0  0  0
  152.1244  139.8791  158.8536 H   0  0  0  0  0  0  0  0  0  0  0  0
  153.0628  140.2405  157.4432 H   0  0  0  0  0  0  0  0  0  0  0  0
  150.0550  140.7335  157.5950 H   0  0  0  0  0  0  0  0  0  0  0  0
  150.5709  142.4686  155.7657 H   0  0  0  0  0  0  0  0  0  0  0  0
  152.1557  141.7446  155.6273 H   0  0  0  0  0  0  0  0  0  0  0  0
  149.6226  140.6870  155.0866 H   0  0  0  0  0  0  0  0  0  0  0  0
  150.2973  142.5188  158.9209 H   0  0  0  0  0  0  0  0  0  0  0  0
  152.4157  143.4619  156.9477 H   0  0  0  0  0  0  0  0  0  0  0  0
  150.7897  144.1209  157.1214 H   0  0  0  0  0  0  0  0  0  0  0  0
  152.8353  145.2556  158.4859 H   0  0  0  0  0  0  0  0  0  0  0  0
  151.2875  145.0122  159.3013 H   0  0  0  0  0  0  0  0  0  0  0  0
  152.1068  141.6669  160.2517 H   0  0  0  0  0  0  0  0  0  0  0  0
  153.2491  141.7997  158.9125 H   0  0  0  0  0  0  0  0  0  0  0  0
  147.1592  136.0797  154.9709 H   0  0  0  0  0  0  0  0  0  0  0  0
  147.3955  135.3765  156.5828 H   0  0  0  0  0  0  0  0  0  0  0  0
  145.7813  135.5008  155.9056 H   0  0  0  0  0  0  0  0  0  0  0  0
  145.9236  134.6794  153.3621 H   0  0  0  0  0  0  0  0  0  0  0  0
  145.0616  133.4036  154.2203 H   0  0  0  0  0  0  0  0  0  0  0  0
  146.6509  133.3022  155.7686 H   0  0  0  0  0  0  0  0  0  0  0  0
  1  2  1  0  0  0  0
  1 32  1  0  0  0  0
  1 33  1  0  0  0  0
  1 34  1  0  0  0  0
  2  3  1  0  0  0  0
  3 30  1  0  0  0  0
  3 29  1  0  0  0  0
  3  4  1  0  0  0  0
  4  5  1  0  0  0  0
  4 35  1  0  0  0  0
  4 36  1  0  0  0  0
  5 31  1  0  0  0  0
  5  6  1  0  0  0  0
  5 27  1  0  0  0  0
  6  7  1  0  0  0  0
  6 37  1  0  0  0  0
  6 38  1  0  0  0  0
  7  8  1  0  0  0  0
  7  9  1  0  0  0  0
  8 39  1  0  0  0  0
  8 40  1  0  0  0  0
  8 41  1  0  0  0  0
  9 14  1  0  0  0  0
  9 10  2  0  0  0  0
 10 11  1  0  0  0  0
 11 12  2  0  0  0  0
 11 42  1  0  0  0  0
 12 13  1  0  0  0  0
 13 17  1  0  0  0  0
 13 14  2  0  0  0  0
 14 15  1  0  0  0  0
 15 16  2  0  0  0  0
 16 17  1  0  0  0  0
 16 43  1  0  0  0  0
 17 18  1  0  0  0  0
 18 19  1  0  0  0  0
 18 44  1  0  0  0  0
 18 45  1  0  0  0  0
 19 20  1  0  0  0  0
 19 22  1  0  0  0  0
 19 46  1  0  0  0  0
 20 21  1  0  0  0  0
 20 47  1  0  0  0  0
 20 48  1  0  0  0  0
 21 49  1  0  0  0  0
 22 26  1  0  0  0  0
 22 23  1  0  0  0  0
 22 50  1  0  0  0  0
 23 24  1  0  0  0  0
 23 51  1  0  0  0  0
 23 52  1  0  0  0  0
 24 25  1  0  0  0  0
 24 53  1  0  0  0  0
 24 54  1  0  0  0  0
 25 26  1  0  0  0  0
 26 55  1  0  0  0  0
 26 56  1  0  0  0  0
 27 28  1  0  0  0  0
 27 29  1  0  0  0  0
 27 62  1  0  0  0  0
 28 57  1  0  0  0  0
 28 58  1  0  0  0  0
 28 59  1  0  0  0  0
 29 60  1  0  0  0  0
 29 61  1  0  0  0  0
M  CHG  1  27   1
M  END
> <s_m_source_file>
AV-unprocessed.smi

> <i_m_source_file_index>
21

> <i_lp_mmshare_version>
43012

> <i_f3d_flags>
0

> <s_epik_input>
W0NIM11PW0NASF0xW0NIMl1bQ0BIXShOKFtDSDNdKVtDSDJdMSlbQ0gyXU4oW0NIM10pYyhuW2NIXW4yKWMoYzIzKW5bY0hdbjNbQ0gyXVtDQEhdKFtDSDJdW09IXSlbQ0BASF00W0NIMl1bQ0gyXU9bQ0gyXTQ=

> <s_epik_cmdline>
J2VwaWtfcHl0aG9uJywgJy1waCcsICc3LjAnLCAnLXRuJywgJzgnLCAnLW1hJywgJzIwMCcsICctbWV0YWxfYmluZGluZycsICctaW1hZScsICc8aW5maWxlLm1hZT4nLCAnLW9tYWUnLCAnPG91dGZpbGUubWFlPic=

> <r_lp_tautomer_probability>
1

> <r_epik_Ionization_Penalty>
0.0157465

> <r_epik_Ionization_Penalty_Charging>
0.015354

> <r_epik_Ionization_Penalty_Neutral>
0.000392529

> <r_epik_State_Penalty>
0.0120612

> <r_epik_Charging_Adjusted_Penalty>
0.0274152

> <i_epik_Tot_Q>
1

> <i_epik_Tot_abs_Q>
1

> <r_epik_Metal_State_Penalty>
0.0121253

> <b_epik_Metal_Only>
0

> <s_lp_Force_Field>
OPLS_2005

> <r_lp_Energy>
60.1072

> <b_lp_Chiralities_Consistent>
1

> <s_lp_Variant>
AV-unprocessed.smi:21-17

> <Gold.Version>
5.8.1

> <Gold.Id.Protein>
6NUR|6NUR_protein|mol2

> <Gold.PLP.Fitness>
45.7281

> <Gold.PLP.PLP>
-44.4911

> <Gold.PLP.part.hbond>
-3.0000

> <Gold.PLP.part.metal>
0.0000

> <Gold.PLP.part.buried>
-7.9053

> <Gold.PLP.part.nonpolar>
-35.2068

> <Gold.PLP.part.repulsive>
0.4985

> <Gold.PLP.ligand.clash>
0.0000

> <Gold.PLP.ligand.torsion>
3.5024

> <Gold.PLP.Chemscore.Hbond>
2.5114

> <Gold.PLP.Chemscore.CHOScore>
0.0000

> <Gold.PLP.Chemscore.Metal>
0.0000

> <Gold.Chemscore.Hbonds>
donor molecule, donor type, donor heavy atom, donor atom, acceptor molecule, acceptor atom, score
      P1  H  6896  6907       L1    10  0.12
      P1  H  7989  7998       L1    21  0.88
      P1  H 10752 10764       L1    15  0.70

> <Gold.PLP.Chemscore.Internal.Correction>
0.7077

> <Gold.Rescore>
     Score         DG    S(hbond)    S(metal)    S(lipo)     H(rot)  DE(clash)    DE(int)     intcor
     11.14     -14.70       1.65        0.00      99.00       3.08       0.03       3.53       ----

> <Gold.Chemscore.Fitness>
11.1444

> <Gold.Chemscore.DG>
-14.6998

> <Gold.Chemscore.ZeroCoef>
-5.4800

> <Gold.Chemscore.Hbond>
1.6499

> <Gold.Chemscore.Metal>
0.0000

> <Gold.Chemscore.Lipo>
99.0035

> <Gold.Chemscore.Internal_Hbond>
0.0000

> <Gold.Chemscore.DEClash>
0.0282

> <Gold.Chemscore.DEInternal>
3.5271

> <Gold.Chemscore.Rot>
3.0758

> <Gold.Chemscore.Internal.Correction>
   9.000000E+99

> <Gold.Chemscore.Hbonds>
donor molecule, donor type, donor heavy atom, donor atom, acceptor molecule, acceptor atom, score
      P1  H  7989  7998       L1    21  0.16
      P1  H 10752 10764       L1    15  0.65

> <Gold.Chemscore.Hbond.Weighted>
-5.5105

> <Gold.Chemscore.Metal.Weighted>
-0.0000

> <Gold.Chemscore.Lipo.Weighted>
-11.5834

> <Gold.Chemscore.Internal_Hbond.Weighted>
0.0000

> <Gold.Chemscore.DEClash.Weighted>
0.0282

> <Gold.Chemscore.DEInternal.Weighted>
3.5271

> <Gold.Chemscore.Rot.Weighted>
7.8741

> <Gold.Chemscore.Internal.Correction.Weighted>
   9.000000E+99

> <Gold.Protein.RotatedTorsions>
[ 6907 6896 6895 6894 ] final -100.36 input  -60.11 | X-H torsion
[ 7974 7965 7964 7962 ] final  -81.67 input  175.53 | X-H torsion
[ 8008 7997 7996 7995 ] final  146.49 input   59.86 | X-H torsion
[ 10167 10162 10161 10158 ] final   67.50 input  -65.29 | X-H torsion
[ 10718 10713 10712 10709 ] final -106.22 input   66.30 | X-H torsion
[ 10763 10752 10751 10750 ] final  -53.79 input  -60.55 | X-H torsion
[ 11005 11000 10999 10996 ] final  -64.72 input  -57.11 | X-H torsion

> <Gold.Protein.ActiveResidues>
 VAL166  LYS551  ARG553  GLY616  TRP617  ASP618  TYR619  PRO620  LYS621  CYS622 
 ASP623  PHE694  ASN695  SER759  ASP760  ASP761  ALA762  ILE779  LEU786  VAL792 
 PHE793  MET794  SER795  GLU796  ALA797  LYS798  CYS799  TRP800  GLU811  SER814 

> <Gold.Protein.RotatedAtoms>
  150.7113  134.0899  159.3927 H   0  0  0  0  0  0  0  0  0  0  0  0  # atno 6907 bound_to 6896
  151.8885  135.0424  160.0505 H   0  0  0  0  0  0  0  0  0  0  0  0  # atno 6908 bound_to 6896
  152.2511  133.5180  159.5362 H   0  0  0  0  0  0  0  0  0  0  0  0  # atno 6909 bound_to 6896
  145.5436  140.9506  143.1537 H   0  0  0  0  0  0  0  0  0  0  0  0  # atno 7974 bound_to 7965
  156.2854  140.2181  156.5385 H   0  0  0  0  0  0  0  0  0  0  0  0  # atno 8008 bound_to 7997
  154.7389  140.0489  157.0816 H   0  0  0  0  0  0  0  0  0  0  0  0  # atno 8009 bound_to 7997
  155.0256  140.3129  155.4780 H   0  0  0  0  0  0  0  0  0  0  0  0  # atno 8010 bound_to 7997
  140.0888  144.5006  150.7112 H   0  0  0  0  0  0  0  0  0  0  0  0  # atno 10167 bound_to 10162
  156.0380  130.5602  150.7650 H   0  0  0  0  0  0  0  0  0  0  0  0  # atno 10718 bound_to 10713
  154.1645  135.6469  153.4994 H   0  0  0  0  0  0  0  0  0  0  0  0  # atno 10763 bound_to 10752
  153.0101  135.5368  154.6676 H   0  0  0  0  0  0  0  0  0  0  0  0  # atno 10764 bound_to 10752
  154.5999  135.2942  155.0518 H   0  0  0  0  0  0  0  0  0  0  0  0  # atno 10765 bound_to 10752
  141.1433  133.6670  156.5877 H   0  0  0  0  0  0  0  0  0  0  0  0  # atno 11005 bound_to 11000
  144.7564  139.7063  143.7252 LP  0  0  0  0  0  0  0  0  0  0  0  0  # atno 17320 bound_to 7965
  146.1964  139.5233  142.9771 LP  0  0  0  0  0  0  0  0  0  0  0  0  # atno 17321 bound_to 7965
  140.7039  143.2454  151.4783 LP  0  0  0  0  0  0  0  0  0  0  0  0  # atno 17342 bound_to 10162
  139.5736  144.1870  152.1872 LP  0  0  0  0  0  0  0  0  0  0  0  0  # atno 17343 bound_to 10162
  157.5159  131.0928  151.0139 LP  0  0  0  0  0  0  0  0  0  0  0  0  # atno 17370 bound_to 10713
  157.0482  130.5776  149.5366 LP  0  0  0  0  0  0  0  0  0  0  0  0  # atno 17371 bound_to 10713
  140.3788  134.7542  157.4647 LP  0  0  0  0  0  0  0  0  0  0  0  0  # atno 17394 bound_to 11000
  140.0654  134.5937  155.8701 LP  0  0  0  0  0  0  0  0  0  0  0  0  # atno 17395 bound_to 11000

$$$$
