AV-unprocessed.smi:3303|AV-procd|sdf|12663|dock5
  -GOLD-   2272019 03D 1   1.00000     0.00000
 Structure written by MMmdl.
 45 46  0  0  0  0  0  0  0  0  3 V2000
  147.1413  140.2710  152.9976 C   0  0  0  0  0  0  0  0  0  0  0  0
  147.3845  140.4673  154.5048 C   0  0  2  0  0  0  0  0  0  0  0  0
  146.2223  139.8980  155.3448 C   0  0  0  0  0  0  0  0  0  0  0  0
  144.9912  140.7257  155.2416 N   0  3  1  0  0  0  0  0  0  0  0  0
  143.8524  140.0676  155.9276 C   0  0  0  0  0  0  0  0  0  0  0  0
  145.2273  142.1374  155.6698 C   0  0  2  0  0  0  0  0  0  0  0  0
  143.9657  143.0142  155.5475 C   0  0  0  0  0  0  0  0  0  0  0  0
  146.3720  142.7687  154.8464 C   0  0  0  0  0  0  0  0  0  0  0  0
  147.6687  141.9397  154.8692 C   0  0  1  0  0  0  0  0  0  0  0  0
  148.3387  142.0423  156.1878 N   0  3  0  0  0  0  0  0  0  0  0  0
  149.4800  141.1238  156.3739 C   0  0  0  0  0  0  0  0  0  0  0  0
  150.8145  141.8372  156.1192 C   0  0  0  0  0  0  0  0  0  0  0  0
  151.4511  142.3266  157.4059 C   0  0  0  0  0  0  0  0  0  0  0  0
  151.6569  143.7041  157.6331 C   0  0  0  0  0  0  0  0  0  0  0  0
  152.2414  144.1020  158.8515 C   0  0  0  0  0  0  0  0  0  0  0  0
  152.5928  143.1127  159.7901 C   0  0  0  0  0  0  0  0  0  0  0  0
  152.3442  141.7637  159.4678 C   0  0  0  0  0  0  0  0  0  0  0  0
  151.7841  141.3715  158.3028 N   0  0  0  0  0  0  0  0  0  0  0  0
  146.2520  140.7994  152.6538 H   0  0  0  0  0  0  0  0  0  0  0  0
  147.0095  139.2155  152.7578 H   0  0  0  0  0  0  0  0  0  0  0  0
  147.9880  140.6320  152.4128 H   0  0  0  0  0  0  0  0  0  0  0  0
  148.2777  139.8860  154.7399 H   0  0  0  0  0  0  0  0  0  0  0  0
  146.0100  138.8778  155.0213 H   0  0  0  0  0  0  0  0  0  0  0  0
  146.5180  139.8309  156.3929 H   0  0  0  0  0  0  0  0  0  0  0  0
  143.9778  140.0939  157.0108 H   0  0  0  0  0  0  0  0  0  0  0  0
  143.7670  139.0241  155.6223 H   0  0  0  0  0  0  0  0  0  0  0  0
  142.9048  140.5424  155.6758 H   0  0  0  0  0  0  0  0  0  0  0  0
  145.5233  142.1239  156.7201 H   0  0  0  0  0  0  0  0  0  0  0  0
  144.1935  144.0574  155.7695 H   0  0  0  0  0  0  0  0  0  0  0  0
  143.1867  142.7129  156.2477 H   0  0  0  0  0  0  0  0  0  0  0  0
  143.5500  142.9763  154.5398 H   0  0  0  0  0  0  0  0  0  0  0  0
  146.0435  142.8845  153.8125 H   0  0  0  0  0  0  0  0  0  0  0  0
  146.5777  143.7795  155.2021 H   0  0  0  0  0  0  0  0  0  0  0  0
  148.3403  142.3568  154.1163 H   0  0  0  0  0  0  0  0  0  0  0  0
  148.6757  142.9874  156.3055 H   0  0  0  0  0  0  0  0  0  0  0  0
  149.4605  140.7252  157.3894 H   0  0  0  0  0  0  0  0  0  0  0  0
  149.3708  140.2801  155.6909 H   0  0  0  0  0  0  0  0  0  0  0  0
  151.5104  141.1646  155.6151 H   0  0  0  0  0  0  0  0  0  0  0  0
  150.6642  142.6838  155.4477 H   0  0  0  0  0  0  0  0  0  0  0  0
  151.3744  144.4410  156.8954 H   0  0  0  0  0  0  0  0  0  0  0  0
  152.4154  145.1468  159.0629 H   0  0  0  0  0  0  0  0  0  0  0  0
  153.0421  143.3808  160.7349 H   0  0  0  0  0  0  0  0  0  0  0  0
  152.6002  140.9789  160.1642 H   0  0  0  0  0  0  0  0  0  0  0  0
  147.6586  141.8517  156.9098 H   0  0  0  0  0  0  0  0  0  0  0  0
  144.7496  140.7555  154.2609 H   0  0  0  0  0  0  0  0  0  0  0  0
  1  2  1  0  0  0  0
  1 19  1  0  0  0  0
  1 20  1  0  0  0  0
  1 21  1  0  0  0  0
  2  9  1  0  0  0  0
  2  3  1  0  0  0  0
  2 22  1  0  0  0  0
  3  4  1  0  0  0  0
  3 23  1  0  0  0  0
  3 24  1  0  0  0  0
  4  5  1  0  0  0  0
  4  6  1  0  0  0  0
  4 45  1  0  0  0  0
  5 25  1  0  0  0  0
  5 26  1  0  0  0  0
  5 27  1  0  0  0  0
  6  7  1  0  0  0  0
  6  8  1  0  0  0  0
  6 28  1  0  0  0  0
  7 29  1  0  0  0  0
  7 30  1  0  0  0  0
  7 31  1  0  0  0  0
  8  9  1  0  0  0  0
  8 32  1  0  0  0  0
  8 33  1  0  0  0  0
  9 10  1  0  0  0  0
  9 34  1  0  0  0  0
 10 11  1  0  0  0  0
 10 35  1  0  0  0  0
 10 44  1  0  0  0  0
 11 12  1  0  0  0  0
 11 36  1  0  0  0  0
 11 37  1  0  0  0  0
 12 13  1  0  0  0  0
 12 38  1  0  0  0  0
 12 39  1  0  0  0  0
 13 18  1  0  0  0  0
 13 14  2  0  0  0  0
 14 15  1  0  0  0  0
 14 40  1  0  0  0  0
 15 16  2  0  0  0  0
 15 41  1  0  0  0  0
 16 17  1  0  0  0  0
 16 42  1  0  0  0  0
 17 18  2  0  0  0  0
 17 43  1  0  0  0  0
M  CHG  1   4   1
M  CHG  1  10   1
M  END
> <s_m_source_file>
AV-unprocessed.smi

> <i_m_source_file_index>
3303

> <i_lp_mmshare_version>
43012

> <i_f3d_flags>
0

> <s_epik_input>
W0NIM11bQ0BASF0xW0NIMl1OKFtDSDNdKVtDQEBIXShbQ0gzXSlbQ0gyXVtDQEhdMVtOSF1bQ0gyXVtDSDJdYzJbY0hdW2NIXVtjSF1bY0hdbjI=

> <s_epik_cmdline>
J2VwaWtfcHl0aG9uJywgJy1waCcsICc3LjAnLCAnLXRuJywgJzgnLCAnLW1hJywgJzIwMCcsICctbWV0YWxfYmluZGluZycsICctaW1hZScsICc8aW5maWxlLm1hZT4nLCAnLW9tYWUnLCAnPG91dGZpbGUubWFlPic=

> <r_epik_Ionization_Penalty>
0.0769462

> <r_epik_Ionization_Penalty_Charging>
0.0759813

> <r_epik_Ionization_Penalty_Neutral>
0.000964829

> <r_epik_State_Penalty>
0.0654373

> <r_epik_Charging_Adjusted_Penalty>
0.141419

> <i_epik_Tot_Q>
2

> <i_epik_Tot_abs_Q>
2

> <r_epik_Metal_State_Penalty>
0.0656439

> <b_epik_Metal_Only>
0

> <s_lp_Force_Field>
OPLS_2005

> <r_lp_Energy>
35.1377

> <b_lp_Chiralities_Consistent>
1

> <s_lp_Variant>
AV-unprocessed.smi:3303-7

> <Gold.Version>
5.8.1

> <Gold.Id.Protein>
6NUR|6NUR_protein|mol2

> <Gold.PLP.Fitness>
48.1519

> <Gold.PLP.PLP>
-37.2938

> <Gold.PLP.part.hbond>
-1.9770

> <Gold.PLP.part.metal>
0.0000

> <Gold.PLP.part.buried>
-2.4017

> <Gold.PLP.part.nonpolar>
-33.1167

> <Gold.PLP.part.repulsive>
0.0581

> <Gold.PLP.ligand.clash>
0.0000

> <Gold.PLP.ligand.torsion>
0.5810

> <Gold.PLP.Chemscore.Hbond>
4.0000

> <Gold.PLP.Chemscore.CHOScore>
0.0000

> <Gold.PLP.Chemscore.Metal>
0.0000

> <Gold.Chemscore.Hbonds>
donor molecule, donor type, donor heavy atom, donor atom, acceptor molecule, acceptor atom, score
      L1  H     4    45       P1 10175  1.72
      L1  H    10    35       P1  8028  1.98

> <Gold.PLP.Chemscore.Internal.Correction>
0.0202

> <Gold.Rescore>
     Score         DG    S(hbond)    S(metal)    S(lipo)     H(rot)  DE(clash)    DE(int)     intcor
     20.27     -20.93       1.93        0.00     107.04       1.37       0.12       0.53       ----

> <Gold.Chemscore.Fitness>
20.2697

> <Gold.Chemscore.DG>
-20.9260

> <Gold.Chemscore.ZeroCoef>
-5.4800

> <Gold.Chemscore.Hbond>
1.9283

> <Gold.Chemscore.Metal>
0.0000

> <Gold.Chemscore.Lipo>
107.0421

> <Gold.Chemscore.Internal_Hbond>
0.0000

> <Gold.Chemscore.DEClash>
0.1214

> <Gold.Chemscore.DEInternal>
0.5350

> <Gold.Chemscore.Rot>
1.3744

> <Gold.Chemscore.Internal.Correction>
   9.000000E+99

> <Gold.Chemscore.Hbonds>
donor molecule, donor type, donor heavy atom, donor atom, acceptor molecule, acceptor atom, score
      L1  H     4    45       P1 10175  0.82
      L1  H    10    35       P1  8028  0.91

> <Gold.Chemscore.Hbond.Weighted>
-6.4405

> <Gold.Chemscore.Metal.Weighted>
-0.0000

> <Gold.Chemscore.Lipo.Weighted>
-12.5239

> <Gold.Chemscore.Internal_Hbond.Weighted>
0.0000

> <Gold.Chemscore.DEClash.Weighted>
0.1214

> <Gold.Chemscore.DEInternal.Weighted>
0.5350

> <Gold.Chemscore.Rot.Weighted>
3.5185

> <Gold.Chemscore.Internal.Correction.Weighted>
   9.000000E+99

> <Gold.Protein.RotatedTorsions>
[ 6907 6896 6895 6894 ] final   32.53 input  -60.11 | X-H torsion
[ 7974 7965 7964 7962 ] final -130.70 input  175.53 | X-H torsion
[ 8008 7997 7996 7995 ] final  -45.64 input   59.86 | X-H torsion
[ 10167 10162 10161 10158 ] final  -55.02 input  -65.29 | X-H torsion
[ 10718 10713 10712 10709 ] final -161.82 input   66.30 | X-H torsion
[ 10763 10752 10751 10750 ] final  153.24 input  -60.55 | X-H torsion
[ 11005 11000 10999 10996 ] final  159.20 input  -57.11 | X-H torsion

> <Gold.Protein.ActiveResidues>
 VAL166  LYS551  ARG553  GLY616  TRP617  ASP618  TYR619  PRO620  LYS621  CYS622 
 ASP623  PHE694  ASN695  SER759  ASP760  ASP761  ALA762  ILE779  LEU786  VAL792 
 PHE793  MET794  SER795  GLU796  ALA797  LYS798  CYS799  TRP800  GLU811  SER814 

> <Gold.Protein.RotatedAtoms>
  152.0758  134.9504  160.0573 H   0  0  0  0  0  0  0  0  0  0  0  0  # atno 6907 bound_to 6896
  152.0812  133.4149  159.4510 H   0  0  0  0  0  0  0  0  0  0  0  0  # atno 6908 bound_to 6896
  150.6836  134.2900  159.4706 H   0  0  0  0  0  0  0  0  0  0  0  0  # atno 6909 bound_to 6896
  144.9449  140.7280  143.4823 H   0  0  0  0  0  0  0  0  0  0  0  0  # atno 7974 bound_to 7965
  154.4002  140.1391  156.3881 H   0  0  0  0  0  0  0  0  0  0  0  0  # atno 8008 bound_to 7997
  155.7940  140.3478  155.5345 H   0  0  0  0  0  0  0  0  0  0  0  0  # atno 8009 bound_to 7997
  155.8550  140.0947  157.1640 H   0  0  0  0  0  0  0  0  0  0  0  0  # atno 8010 bound_to 7997
  140.6398  143.2501  151.5019 H   0  0  0  0  0  0  0  0  0  0  0  0  # atno 10167 bound_to 10162
  156.6017  130.8813  151.2915 H   0  0  0  0  0  0  0  0  0  0  0  0  # atno 10718 bound_to 10713
  154.1331  135.2825  155.3180 H   0  0  0  0  0  0  0  0  0  0  0  0  # atno 10763 bound_to 10752
  154.6341  135.5425  153.7717 H   0  0  0  0  0  0  0  0  0  0  0  0  # atno 10764 bound_to 10752
  153.0275  135.6470  154.1480 H   0  0  0  0  0  0  0  0  0  0  0  0  # atno 10765 bound_to 10752
  140.1939  134.8387  157.2943 H   0  0  0  0  0  0  0  0  0  0  0  0  # atno 11005 bound_to 11000
  145.2933  139.1876  143.4728 LP  0  0  0  0  0  0  0  0  0  0  0  0  # atno 17320 bound_to 7965
  146.3300  140.2913  142.8615 LP  0  0  0  0  0  0  0  0  0  0  0  0  # atno 17321 bound_to 7965
  139.5608  144.2162  152.1687 LP  0  0  0  0  0  0  0  0  0  0  0  0  # atno 17342 bound_to 10162
  140.1429  144.5185  150.6733 LP  0  0  0  0  0  0  0  0  0  0  0  0  # atno 17343 bound_to 10162
  157.7278  130.9648  150.1714 LP  0  0  0  0  0  0  0  0  0  0  0  0  # atno 17370 bound_to 10713
  156.2464  130.3696  149.8280 LP  0  0  0  0  0  0  0  0  0  0  0  0  # atno 17371 bound_to 10713
  140.2129  134.4117  155.7604 LP  0  0  0  0  0  0  0  0  0  0  0  0  # atno 17394 bound_to 11000
  141.2227  133.7127  156.8366 LP  0  0  0  0  0  0  0  0  0  0  0  0  # atno 17395 bound_to 11000

$$$$
