AV-unprocessed.smi:1521|AV-procd|sdf|6131|dock8
  -GOLD-   22720 6273D 1   1.00000     0.00000
 Structure written by MMmdl.
 36 37  0  0  0  0  0  0  0  0  1 V2000
  150.7008  136.9337  159.9775 O   0  0  0  0  0  0  0  0  0  0  0  0
  149.8059  137.2397  159.1900 C   0  0  0  0  0  0  0  0  0  0  0  0
  149.9689  138.1283  158.1996 N   0  0  0  0  0  0  0  0  0  0  0  0
  151.2123  138.8277  157.8920 C   0  0  0  0  0  0  0  0  0  0  0  0
  151.0251  139.8300  156.7402 C   0  0  1  0  0  0  0  0  0  0  0  0
  150.4811  139.1507  155.4674 C   0  0  0  0  0  0  0  0  0  0  0  0
  150.3020  140.1303  154.4525 O   0  0  0  0  0  0  0  0  0  0  0  0
  149.3796  141.1322  154.8586 C   0  0  0  0  0  0  0  0  0  0  0  0
  149.9070  141.8126  156.1322 C   0  0  0  0  0  0  0  0  0  0  0  0
  150.0894  140.8266  157.1391 O   0  0  0  0  0  0  0  0  0  0  0  0
  148.5597  136.7321  159.1770 N   0  0  0  0  0  0  0  0  0  0  0  0
  147.9743  135.7856  160.0352 C   0  0  0  0  0  0  0  0  0  0  0  0
  148.0581  134.4381  159.8811 C   0  0  0  0  0  0  0  0  0  0  0  0
  147.4362  133.5143  160.8147 C   0  0  0  0  0  0  0  0  0  0  0  0
  147.4717  132.0114  160.5857 C   0  0  0  0  0  0  0  0  0  0  0  0
  146.2298  131.5323  160.5310 F   0  0  0  0  0  0  0  0  0  0  0  0
  148.0852  131.7077  159.4411 F   0  0  0  0  0  0  0  0  0  0  0  0
  148.1102  131.3936  161.5793 F   0  0  0  0  0  0  0  0  0  0  0  0
  146.7615  134.0626  161.8421 C   0  0  0  0  0  0  0  0  0  0  0  0
  146.6881  135.4459  162.0195 N   0  0  0  0  0  0  0  0  0  0  0  0
  147.2511  136.3500  161.1869 C   0  0  0  0  0  0  0  0  0  0  0  0
  147.1415  137.5547  161.4129 O   0  0  0  0  0  0  0  0  0  0  0  0
  146.1754  135.7790  162.8232 H   0  0  0  0  0  0  0  0  0  0  0  0
  149.1814  138.3174  157.5972 H   0  0  0  0  0  0  0  0  0  0  0  0
  151.5185  139.3594  158.7930 H   0  0  0  0  0  0  0  0  0  0  0  0
  152.0141  138.1229  157.6644 H   0  0  0  0  0  0  0  0  0  0  0  0
  151.9854  140.2995  156.5175 H   0  0  0  0  0  0  0  0  0  0  0  0
  151.1831  138.3980  155.1079 H   0  0  0  0  0  0  0  0  0  0  0  0
  149.5375  138.6398  155.6671 H   0  0  0  0  0  0  0  0  0  0  0  0
  149.2686  141.8622  154.0566 H   0  0  0  0  0  0  0  0  0  0  0  0
  148.3964  140.6918  155.0319 H   0  0  0  0  0  0  0  0  0  0  0  0
  150.8467  142.3317  155.9374 H   0  0  0  0  0  0  0  0  0  0  0  0
  149.1949  142.5576  156.4876 H   0  0  0  0  0  0  0  0  0  0  0  0
  147.9619  137.0372  158.4228 H   0  0  0  0  0  0  0  0  0  0  0  0
  148.6117  134.0043  159.0646 H   0  0  0  0  0  0  0  0  0  0  0  0
  146.2298  133.4968  162.5928 H   0  0  0  0  0  0  0  0  0  0  0  0
  1  2  2  0  0  0  0
  2  3  1  0  0  0  0
  2 11  1  0  0  0  0
  3  4  1  0  0  0  0
  3 24  1  0  0  0  0
  4  5  1  0  0  0  0
  4 25  1  0  0  0  0
  4 26  1  0  0  0  0
  5 10  1  0  0  0  0
  5  6  1  0  0  0  0
  5 27  1  0  0  0  0
  6  7  1  0  0  0  0
  6 28  1  0  0  0  0
  6 29  1  0  0  0  0
  7  8  1  0  0  0  0
  8  9  1  0  0  0  0
  8 30  1  0  0  0  0
  8 31  1  0  0  0  0
  9 10  1  0  0  0  0
  9 32  1  0  0  0  0
  9 33  1  0  0  0  0
 11 12  1  0  0  0  0
 11 34  1  0  0  0  0
 12 21  1  0  0  0  0
 12 13  2  0  0  0  0
 13 14  1  0  0  0  0
 13 35  1  0  0  0  0
 14 15  1  0  0  0  0
 14 19  2  0  0  0  0
 15 16  1  0  0  0  0
 15 17  1  0  0  0  0
 15 18  1  0  0  0  0
 19 20  1  0  0  0  0
 19 36  1  0  0  0  0
 20 23  1  0  0  0  0
 20 21  1  0  0  0  0
 21 22  2  0  0  0  0
M  END
> <s_m_source_file>
AV-unprocessed.smi

> <i_m_source_file_index>
1521

> <i_lp_mmshare_version>
43012

> <i_f3d_flags>
0

> <s_epik_input>
Tz1jMVtuSF1bY0hdYyhDKEYpKEYpRilbY0hdYzFbTkhdQyg9TylbTkhdW0NIMl1bQ0BASF0yW0NIMl1PW0NIMl1bQ0gyXU8y

> <s_epik_cmdline>
J2VwaWtfcHl0aG9uJywgJy1waCcsICc3LjAnLCAnLXRuJywgJzgnLCAnLW1hJywgJzIwMCcsICctbWV0YWxfYmluZGluZycsICctaW1hZScsICc8aW5maWxlLm1hZT4nLCAnLW9tYWUnLCAnPG91dGZpbGUubWFlPic=

> <r_lp_tautomer_probability>
1

> <r_epik_Ionization_Penalty>
0.00396636

> <r_epik_Ionization_Penalty_Charging>
0.00394789

> <r_epik_Ionization_Penalty_Neutral>
1.84676e-05

> <r_epik_State_Penalty>
-0

> <r_epik_Charging_Adjusted_Penalty>
0.00394789

> <i_epik_Tot_Q>
0

> <i_epik_Tot_abs_Q>
0

> <r_epik_Metal_State_Penalty>
0.372669

> <b_epik_Metal_Only>
0

> <s_lp_Force_Field>
OPLS_2005

> <r_lp_Energy>
19.2224

> <b_lp_Chiralities_Consistent>
1

> <s_lp_Variant>
AV-unprocessed.smi:1521-2

> <Gold.Version>
5.8.1

> <Gold.Id.Protein>
6NUR|6NUR_protein|mol2

> <Gold.PLP.Fitness>
39.6824

> <Gold.PLP.PLP>
-30.1922

> <Gold.PLP.part.hbond>
-4.0788

> <Gold.PLP.part.metal>
0.0000

> <Gold.PLP.part.buried>
-2.2890

> <Gold.PLP.part.nonpolar>
-24.2765

> <Gold.PLP.part.repulsive>
0.5121

> <Gold.PLP.ligand.clash>
0.0000

> <Gold.PLP.ligand.torsion>
0.8142

> <Gold.PLP.Chemscore.Hbond>
3.6960

> <Gold.PLP.Chemscore.CHOScore>
0.0000

> <Gold.PLP.Chemscore.Metal>
0.0000

> <Gold.Chemscore.Hbonds>
donor molecule, donor type, donor heavy atom, donor atom, acceptor molecule, acceptor atom, score
      P1  H  6896  6907       L1     1  1.00
      P1  H  6931  6943       L1    22  0.61
      P1  H  6934  6947       L1    22  0.99
      P1  H  7989  7998       L1     7  1.00

> <Gold.PLP.Chemscore.Internal.Correction>
0.0305

> <Gold.Rescore>
     Score         DG    S(hbond)    S(metal)    S(lipo)     H(rot)  DE(clash)    DE(int)     intcor
     19.31     -20.40       3.65        0.00      53.45       1.37       0.28       0.80       ----

> <Gold.Chemscore.Fitness>
19.3134

> <Gold.Chemscore.DG>
-20.4002

> <Gold.Chemscore.ZeroCoef>
-5.4800

> <Gold.Chemscore.Hbond>
3.6474

> <Gold.Chemscore.Metal>
0.0000

> <Gold.Chemscore.Lipo>
53.4548

> <Gold.Chemscore.Internal_Hbond>
0.0000

> <Gold.Chemscore.DEClash>
0.2836

> <Gold.Chemscore.DEInternal>
0.8031

> <Gold.Chemscore.Rot>
1.3735

> <Gold.Chemscore.Internal.Correction>
   9.000000E+99

> <Gold.Chemscore.Hbonds>
donor molecule, donor type, donor heavy atom, donor atom, acceptor molecule, acceptor atom, score
      P1  H  6896  6907       L1     1  0.97
      P1  H  6931  6943       L1    22  0.38
      P1  H  6934  6947       L1    22  0.89
      P1  H  7989  7998       L1     7  0.73

> <Gold.Chemscore.Hbond.Weighted>
-12.1822

> <Gold.Chemscore.Metal.Weighted>
-0.0000

> <Gold.Chemscore.Lipo.Weighted>
-6.2542

> <Gold.Chemscore.Internal_Hbond.Weighted>
0.0000

> <Gold.Chemscore.DEClash.Weighted>
0.2836

> <Gold.Chemscore.DEInternal.Weighted>
0.8031

> <Gold.Chemscore.Rot.Weighted>
3.5162

> <Gold.Chemscore.Internal.Correction.Weighted>
   9.000000E+99

> <Gold.Protein.RotatedTorsions>
[ 6907 6896 6895 6894 ] final  -10.63 input  -60.11 | X-H torsion
[ 7974 7965 7964 7962 ] final  -93.27 input  175.53 | X-H torsion
[ 8008 7997 7996 7995 ] final   17.10 input   59.86 | X-H torsion
[ 10167 10162 10161 10158 ] final  -23.39 input  -65.29 | X-H torsion
[ 10718 10713 10712 10709 ] final   96.84 input   66.30 | X-H torsion
[ 10763 10752 10751 10750 ] final   92.94 input  -60.55 | X-H torsion
[ 11005 11000 10999 10996 ] final  136.10 input  -57.11 | X-H torsion

> <Gold.Protein.ActiveResidues>
 VAL166  LYS551  ARG553  GLY616  TRP617  ASP618  TYR619  PRO620  LYS621  CYS622 
 ASP623  PHE694  ASN695  SER759  ASP760  ASP761  ALA762  ILE779  LEU786  VAL792 
 PHE793  MET794  SER795  GLU796  ALA797  LYS798  CYS799  TRP800  GLU811  SER814 

> <Gold.Protein.RotatedAtoms>
  151.3988  135.0968  159.9549 H   0  0  0  0  0  0  0  0  0  0  0  0  # atno 6907 bound_to 6896
  152.5057  133.8908  159.7403 H   0  0  0  0  0  0  0  0  0  0  0  0  # atno 6908 bound_to 6896
  150.9377  133.6636  159.2825 H   0  0  0  0  0  0  0  0  0  0  0  0  # atno 6909 bound_to 6896
  145.3888  140.9526  143.2352 H   0  0  0  0  0  0  0  0  0  0  0  0  # atno 7974 bound_to 7965
  154.8865  140.2980  155.5395 H   0  0  0  0  0  0  0  0  0  0  0  0  # atno 8008 bound_to 7997
  156.3021  140.2432  156.3809 H   0  0  0  0  0  0  0  0  0  0  0  0  # atno 8009 bound_to 7997
  154.8662  140.0403  157.1685 H   0  0  0  0  0  0  0  0  0  0  0  0  # atno 8010 bound_to 7997
  140.7288  143.4447  151.0605 H   0  0  0  0  0  0  0  0  0  0  0  0  # atno 10167 bound_to 10162
  157.6921  131.0590  150.4552 H   0  0  0  0  0  0  0  0  0  0  0  0  # atno 10718 bound_to 10713
  153.2247  135.4343  155.0529 H   0  0  0  0  0  0  0  0  0  0  0  0  # atno 10763 bound_to 10752
  154.8267  135.3365  154.6875 H   0  0  0  0  0  0  0  0  0  0  0  0  # atno 10764 bound_to 10752
  153.7305  135.7011  153.5046 H   0  0  0  0  0  0  0  0  0  0  0  0  # atno 10765 bound_to 10752
  140.0024  134.9473  157.0100 H   0  0  0  0  0  0  0  0  0  0  0  0  # atno 11005 bound_to 11000
  144.8455  139.5404  143.6880 LP  0  0  0  0  0  0  0  0  0  0  0  0  # atno 17320 bound_to 7965
  146.2807  139.6871  142.9231 LP  0  0  0  0  0  0  0  0  0  0  0  0  # atno 17321 bound_to 7965
  139.8117  143.7941  152.3171 LP  0  0  0  0  0  0  0  0  0  0  0  0  # atno 17342 bound_to 10162
  139.7993  144.7380  150.9847 LP  0  0  0  0  0  0  0  0  0  0  0  0  # atno 17343 bound_to 10162
  156.4900  130.4093  149.6412 LP  0  0  0  0  0  0  0  0  0  0  0  0  # atno 17370 bound_to 10713
  156.3426  130.7390  151.2337 LP  0  0  0  0  0  0  0  0  0  0  0  0  # atno 17371 bound_to 10713
  140.4704  134.1392  155.7202 LP  0  0  0  0  0  0  0  0  0  0  0  0  # atno 17394 bound_to 11000
  141.1651  133.8717  157.1736 LP  0  0  0  0  0  0  0  0  0  0  0  0  # atno 17395 bound_to 11000

$$$$
