AV-unprocessed.smi:95|AV-procd|sdf|857|dock8
  -GOLD-   2262017303D 1   1.00000     0.00000
 Structure written by MMmdl.
 42 45  0  0  0  0  0  0  0  0  2 V2000
  147.9942  142.4595  153.7298 O   0  0  0  0  0  0  0  0  0  0  0  0
  147.3593  142.1167  154.7286 C   0  0  0  0  0  0  0  0  0  0  0  0
  145.9990  142.5646  155.0074 C   0  0  0  0  0  0  0  0  0  0  0  0
  145.3911  143.4107  154.1591 F   0  0  0  0  0  0  0  0  0  0  0  0
  145.3356  142.1370  156.1032 C   0  0  0  0  0  0  0  0  0  0  0  0
  145.8830  141.2604  157.0239 N   0  0  0  0  0  0  0  0  0  0  0  0
  145.0830  140.8086  158.2228 C   0  0  2  0  0  0  0  0  0  0  0  0
  143.6388  141.3176  158.1273 C   0  0  0  0  0  0  0  0  0  0  0  0
  143.6421  142.4837  159.0943 C   0  0  0  0  0  0  0  0  0  0  0  0
  144.6587  142.0233  160.1314 C   0  0  0  0  0  0  0  0  0  0  0  0
  145.6594  141.3546  159.3733 O   0  0  0  0  0  0  0  0  0  0  0  0
  147.1900  140.7636  156.8291 C   0  0  0  0  0  0  0  0  0  0  0  0
  147.6841  139.9436  157.6066 O   0  0  0  0  0  0  0  0  0  0  0  0
  147.8951  141.2286  155.6942 N   0  0  0  0  0  0  0  0  0  0  0  0
  149.2421  140.7219  155.4860 C   0  0  0  0  0  0  0  0  0  0  0  0
  150.2445  141.0068  156.5983 C   0  0  0  0  0  0  0  0  0  0  0  0
  150.9976  140.0078  157.2589 C   0  0  0  0  0  0  0  0  0  0  0  0
  151.9002  140.3807  158.2757 C   0  0  0  0  0  0  0  0  0  0  0  0
  152.0350  141.7439  158.6130 C   0  0  0  0  0  0  0  0  0  0  0  0
  152.9264  142.1582  159.6240 C   0  0  0  0  0  0  0  0  0  0  0  0
  153.0430  143.5266  159.9404 C   0  0  0  0  0  0  0  0  0  0  0  0
  152.2717  144.4830  159.2496 C   0  0  0  0  0  0  0  0  0  0  0  0
  151.3788  144.0754  158.2386 C   0  0  0  0  0  0  0  0  0  0  0  0
  151.2601  142.7080  157.9212 C   0  0  0  0  0  0  0  0  0  0  0  0
  150.4082  142.3010  156.9545 N   0  3  0  0  0  0  0  0  0  0  0  0
  144.3294  142.4975  156.2570 H   0  0  0  0  0  0  0  0  0  0  0  0
  145.1579  139.7216  158.2698 H   0  0  0  0  0  0  0  0  0  0  0  0
  143.3594  141.5881  157.1082 H   0  0  0  0  0  0  0  0  0  0  0  0
  142.9701  140.5312  158.4795 H   0  0  0  0  0  0  0  0  0  0  0  0
  143.9926  143.3881  158.5959 H   0  0  0  0  0  0  0  0  0  0  0  0
  142.6601  142.6882  159.5216 H   0  0  0  0  0  0  0  0  0  0  0  0
  145.0769  142.8478  160.7090 H   0  0  0  0  0  0  0  0  0  0  0  0
  144.2038  141.3144  160.8248 H   0  0  0  0  0  0  0  0  0  0  0  0
  149.1793  139.6480  155.3058 H   0  0  0  0  0  0  0  0  0  0  0  0
  149.5967  141.1342  154.5392 H   0  0  0  0  0  0  0  0  0  0  0  0
  150.8935  138.9651  156.9980 H   0  0  0  0  0  0  0  0  0  0  0  0
  152.4806  139.6260  158.7865 H   0  0  0  0  0  0  0  0  0  0  0  0
  153.5223  141.4331  160.1591 H   0  0  0  0  0  0  0  0  0  0  0  0
  153.7263  143.8443  160.7146 H   0  0  0  0  0  0  0  0  0  0  0  0
  152.3660  145.5305  159.4957 H   0  0  0  0  0  0  0  0  0  0  0  0
  150.7914  144.8144  157.7130 H   0  0  0  0  0  0  0  0  0  0  0  0
  149.8586  143.0083  156.4669 H   0  0  0  0  0  0  0  0  0  0  0  0
  1  2  2  0  0  0  0
  2 14  1  0  0  0  0
  2  3  1  0  0  0  0
  3  4  1  0  0  0  0
  3  5  2  0  0  0  0
  5  6  1  0  0  0  0
  5 26  1  0  0  0  0
  6  7  1  0  0  0  0
  6 12  1  0  0  0  0
  7 11  1  0  0  0  0
  7  8  1  0  0  0  0
  7 27  1  0  0  0  0
  8  9  1  0  0  0  0
  8 28  1  0  0  0  0
  8 29  1  0  0  0  0
  9 10  1  0  0  0  0
  9 30  1  0  0  0  0
  9 31  1  0  0  0  0
 10 11  1  0  0  0  0
 10 32  1  0  0  0  0
 10 33  1  0  0  0  0
 12 13  2  0  0  0  0
 12 14  1  0  0  0  0
 14 15  1  0  0  0  0
 15 16  1  0  0  0  0
 15 34  1  0  0  0  0
 15 35  1  0  0  0  0
 16 25  1  0  0  0  0
 16 17  2  0  0  0  0
 17 18  1  0  0  0  0
 17 36  1  0  0  0  0
 18 19  2  0  0  0  0
 18 37  1  0  0  0  0
 19 24  1  0  0  0  0
 19 20  1  0  0  0  0
 20 21  2  0  0  0  0
 20 38  1  0  0  0  0
 21 22  1  0  0  0  0
 21 39  1  0  0  0  0
 22 23  2  0  0  0  0
 22 40  1  0  0  0  0
 23 24  1  0  0  0  0
 23 41  1  0  0  0  0
 24 25  2  0  0  0  0
 25 42  1  0  0  0  0
M  CHG  1  25   1
M  END
> <s_m_source_file>
AV-unprocessed.smi

> <i_m_source_file_index>
95

> <i_lp_mmshare_version>
43012

> <i_f3d_flags>
0

> <s_epik_input>
TzFbQ0gyXVtDSDJdW0NIMl1bQ0BIXTFuKFtjSF1jKEYpYzI9TyljKD1PKW4yW0NIMl1jKFtjSF1bY0hdMyluYyhjMzQpW2NIXVtjSF1bY0hdW2NIXTQ=

> <s_epik_cmdline>
J2VwaWtfcHl0aG9uJywgJy1waCcsICc3LjAnLCAnLXRuJywgJzgnLCAnLW1hJywgJzIwMCcsICctbWV0YWxfYmluZGluZycsICctaW1hZScsICc8aW5maWxlLm1hZT4nLCAnLW9tYWUnLCAnPG91dGZpbGUubWFlPic=

> <r_lp_tautomer_probability>
1

> <r_epik_Ionization_Penalty>
1.83445

> <r_epik_Ionization_Penalty_Charging>
1.83445

> <r_epik_Ionization_Penalty_Neutral>
6.33322e-12

> <r_epik_State_Penalty>
1.95069

> <r_epik_Charging_Adjusted_Penalty>
3.78513

> <i_epik_Tot_Q>
1

> <i_epik_Tot_abs_Q>
1

> <r_epik_Metal_State_Penalty>
6.02102

> <b_epik_Metal_Only>
0

> <s_epik_Chemistry_Notes>
This compound contains an acetal/aminal-like group ( X-CH(R)-Y where X, Y are N, S, or O) that may be acid/base labile, releasing an aldehyde.

> <s_lp_Force_Field>
OPLS_2005

> <r_lp_Energy>
36.4977

> <b_lp_Chiralities_Consistent>
1

> <s_lp_Variant>
AV-unprocessed.smi:95-3

> <Gold.Version>
5.8.1

> <Gold.Id.Protein>
6NUR|6NUR_protein|mol2

> <Gold.PLP.Fitness>
49.6290

> <Gold.PLP.PLP>
-40.7265

> <Gold.PLP.part.hbond>
-3.1073

> <Gold.PLP.part.metal>
0.0000

> <Gold.PLP.part.buried>
-3.4583

> <Gold.PLP.part.nonpolar>
-34.4584

> <Gold.PLP.part.repulsive>
0.2207

> <Gold.PLP.ligand.clash>
0.0000

> <Gold.PLP.ligand.torsion>
0.1533

> <Gold.PLP.Chemscore.Hbond>
3.0670

> <Gold.PLP.Chemscore.CHOScore>
0.0000

> <Gold.PLP.Chemscore.Metal>
0.0000

> <Gold.Chemscore.Hbonds>
donor molecule, donor type, donor heavy atom, donor atom, acceptor molecule, acceptor atom, score
      L1  H    25    42       P1  8028  1.53
      P1  H  6934  6946       L1    11  0.88
      P1  H  8011  8017       L1     1  0.07
      P1  H  8022  8030       L1     1  0.11

> <Gold.PLP.Chemscore.Internal.Correction>
0.0080

> <Gold.Rescore>
     Score         DG    S(hbond)    S(metal)    S(lipo)     H(rot)  DE(clash)    DE(int)     intcor
     16.78     -19.72       1.83        0.00     103.26       1.54       1.34       1.60       ----

> <Gold.Chemscore.Fitness>
16.7779

> <Gold.Chemscore.DG>
-19.7206

> <Gold.Chemscore.ZeroCoef>
-5.4800

> <Gold.Chemscore.Hbond>
1.8276

> <Gold.Chemscore.Metal>
0.0000

> <Gold.Chemscore.Lipo>
103.2552

> <Gold.Chemscore.Internal_Hbond>
0.0000

> <Gold.Chemscore.DEClash>
1.3423

> <Gold.Chemscore.DEInternal>
1.6003

> <Gold.Chemscore.Rot>
1.5407

> <Gold.Chemscore.Internal.Correction>
   9.000000E+99

> <Gold.Chemscore.Hbonds>
donor molecule, donor type, donor heavy atom, donor atom, acceptor molecule, acceptor atom, score
      L1  H    25    42       P1  8028  0.75
      P1  H  6934  6946       L1    11  0.34
      P1  H  8011  8017       L1     1  0.07
      P1  H  8022  8030       L1     1  0.13

> <Gold.Chemscore.Hbond.Weighted>
-6.1040

> <Gold.Chemscore.Metal.Weighted>
-0.0000

> <Gold.Chemscore.Lipo.Weighted>
-12.0809

> <Gold.Chemscore.Internal_Hbond.Weighted>
0.0000

> <Gold.Chemscore.DEClash.Weighted>
1.3423

> <Gold.Chemscore.DEInternal.Weighted>
1.6003

> <Gold.Chemscore.Rot.Weighted>
3.9443

> <Gold.Chemscore.Internal.Correction.Weighted>
   9.000000E+99

> <Gold.Protein.RotatedTorsions>
[ 6907 6896 6895 6894 ] final   76.29 input  -60.11 | X-H torsion
[ 7974 7965 7964 7962 ] final  173.06 input  175.53 | X-H torsion
[ 8008 7997 7996 7995 ] final  116.30 input   59.86 | X-H torsion
[ 10167 10162 10161 10158 ] final   61.21 input  -65.29 | X-H torsion
[ 10718 10713 10712 10709 ] final -140.12 input   66.30 | X-H torsion
[ 10763 10752 10751 10750 ] final  -46.06 input  -60.55 | X-H torsion
[ 11005 11000 10999 10996 ] final  -54.61 input  -57.11 | X-H torsion

> <Gold.Protein.ActiveResidues>
 VAL166  LYS551  ARG553  GLY616  TRP617  ASP618  TYR619  PRO620  LYS621  CYS622 
 ASP623  PHE694  ASN695  SER759  ASP760  ASP761  ALA762  ILE779  LEU786  VAL792 
 PHE793  MET794  SER795  GLU796  ALA797  LYS798  CYS799  TRP800  GLU811  SER814 

> <Gold.Protein.RotatedAtoms>
  152.5066  134.3992  159.9410 H   0  0  0  0  0  0  0  0  0  0  0  0  # atno 6907 bound_to 6896
  151.3955  133.3768  159.2733 H   0  0  0  0  0  0  0  0  0  0  0  0  # atno 6908 bound_to 6896
  150.9401  134.8831  159.7665 H   0  0  0  0  0  0  0  0  0  0  0  0  # atno 6909 bound_to 6896
  144.7253  139.9591  143.6434 H   0  0  0  0  0  0  0  0  0  0  0  0  # atno 7974 bound_to 7965
  156.2431  140.2920  156.0502 H   0  0  0  0  0  0  0  0  0  0  0  0  # atno 8008 bound_to 7997
  155.1890  140.0406  157.2914 H   0  0  0  0  0  0  0  0  0  0  0  0  # atno 8009 bound_to 7997
  154.6208  140.2475  155.7559 H   0  0  0  0  0  0  0  0  0  0  0  0  # atno 8010 bound_to 7997
  140.1572  144.4405  150.6728 H   0  0  0  0  0  0  0  0  0  0  0  0  # atno 10167 bound_to 10162
  156.3187  130.7522  151.1614 H   0  0  0  0  0  0  0  0  0  0  0  0  # atno 10718 bound_to 10713
  154.0387  135.6647  153.4788 H   0  0  0  0  0  0  0  0  0  0  0  0  # atno 10763 bound_to 10752
  153.0510  135.5084  154.7863 H   0  0  0  0  0  0  0  0  0  0  0  0  # atno 10764 bound_to 10752
  154.6832  135.3048  154.9550 H   0  0  0  0  0  0  0  0  0  0  0  0  # atno 10765 bound_to 10752
  141.1034  133.6615  156.4346 H   0  0  0  0  0  0  0  0  0  0  0  0  # atno 11005 bound_to 11000
  146.0651  139.3642  143.0557 LP  0  0  0  0  0  0  0  0  0  0  0  0  # atno 17320 bound_to 7965
  145.8041  140.9757  143.0983 LP  0  0  0  0  0  0  0  0  0  0  0  0  # atno 17321 bound_to 7965
  140.6666  143.2270  151.5729 LP  0  0  0  0  0  0  0  0  0  0  0  0  # atno 17342 bound_to 10162
  139.5398  144.2679  152.1327 LP  0  0  0  0  0  0  0  0  0  0  0  0  # atno 17343 bound_to 10162
  157.7407  131.0513  150.5148 LP  0  0  0  0  0  0  0  0  0  0  0  0  # atno 17370 bound_to 10713
  156.5297  130.4182  149.6208 LP  0  0  0  0  0  0  0  0  0  0  0  0  # atno 17371 bound_to 10713
  140.4964  134.6527  157.5231 LP  0  0  0  0  0  0  0  0  0  0  0  0  # atno 17394 bound_to 11000
  139.9894  134.7009  155.9716 LP  0  0  0  0  0  0  0  0  0  0  0  0  # atno 17395 bound_to 11000

$$$$
