AV-unprocessed.smi:2941|AV-procd|sdf|11264|dock7
  -GOLD-   2272016153D 1   1.00000     0.00000
 Structure written by MMmdl.
 36 37  0  0  0  0  0  0  0  0  1 V2000
  152.7194  143.2392  159.7471 C   0  0  0  0  0  0  0  0  0  0  0  0
  152.1744  143.4361  158.4542 O   0  0  0  0  0  0  0  0  0  0  0  0
  151.4833  142.2949  157.9757 C   0  0  0  0  0  0  0  0  0  0  0  0
  151.1929  142.4849  156.4794 C   0  0  0  0  0  0  0  0  0  0  0  0
  150.7349  141.2360  155.8559 N   0  0  0  0  0  0  0  0  0  0  0  0
  149.5085  141.2818  155.1649 C   0  0  0  0  0  0  0  0  0  0  0  0
  148.9947  140.2035  154.5442 C   0  0  0  0  0  0  0  0  0  0  0  0
  147.7020  140.2941  153.8239 C   0  0  0  0  0  0  0  0  0  0  0  0
  147.2242  141.3861  153.5132 O   0  0  0  0  0  0  0  0  0  0  0  0
  146.9754  139.0319  153.4980 C   0  0  0  0  0  0  0  0  0  0  0  0
  146.7416  138.1155  154.5483 C   0  0  0  0  0  0  0  0  0  0  0  0
  146.0699  136.9021  154.3077 C   0  0  0  0  0  0  0  0  0  0  0  0
  145.8600  136.0316  155.3233 F   0  0  0  0  0  0  0  0  0  0  0  0
  145.6179  136.5935  153.0124 C   0  0  0  0  0  0  0  0  0  0  0  0
  145.8313  137.5031  151.9604 C   0  0  0  0  0  0  0  0  0  0  0  0
  146.5016  138.7212  152.1938 C   0  0  0  0  0  0  0  0  0  0  0  0
  146.6467  139.5863  151.1449 O   0  0  0  0  0  0  0  0  0  0  0  0
  149.7405  138.9626  154.6211 C   0  0  0  0  0  0  0  0  0  0  0  0
  150.9099  138.9102  155.2887 C   0  0  0  0  0  0  0  0  0  0  0  0
  151.6589  137.7006  155.3766 C   0  0  0  0  0  0  0  0  0  0  0  0
  152.2567  136.7143  155.4719 N   0  0  0  0  0  0  0  0  0  0  0  0
  151.4734  140.0895  155.9609 C   0  0  0  0  0  0  0  0  0  0  0  0
  152.5370  140.0556  156.5820 O   0  0  0  0  0  0  0  0  0  0  0  0
  153.2290  144.1464  160.0718 H   0  0  0  0  0  0  0  0  0  0  0  0
  153.4468  142.4265  159.7483 H   0  0  0  0  0  0  0  0  0  0  0  0
  151.9391  143.0126  160.4748 H   0  0  0  0  0  0  0  0  0  0  0  0
  152.0873  141.4003  158.1354 H   0  0  0  0  0  0  0  0  0  0  0  0
  150.5502  142.1665  158.5268 H   0  0  0  0  0  0  0  0  0  0  0  0
  150.4425  143.2664  156.3513 H   0  0  0  0  0  0  0  0  0  0  0  0
  152.0826  142.8637  155.9734 H   0  0  0  0  0  0  0  0  0  0  0  0
  149.0238  142.2482  155.1720 H   0  0  0  0  0  0  0  0  0  0  0  0
  147.0860  138.3332  155.5493 H   0  0  0  0  0  0  0  0  0  0  0  0
  145.1021  135.6629  152.8264 H   0  0  0  0  0  0  0  0  0  0  0  0
  145.4689  137.2650  150.9709 H   0  0  0  0  0  0  0  0  0  0  0  0
  147.5450  139.8371  150.9918 H   0  0  0  0  0  0  0  0  0  0  0  0
  149.3633  138.0669  154.1488 H   0  0  0  0  0  0  0  0  0  0  0  0
  1  2  1  0  0  0  0
  1 24  1  0  0  0  0
  1 25  1  0  0  0  0
  1 26  1  0  0  0  0
  2  3  1  0  0  0  0
  3  4  1  0  0  0  0
  3 27  1  0  0  0  0
  3 28  1  0  0  0  0
  4  5  1  0  0  0  0
  4 29  1  0  0  0  0
  4 30  1  0  0  0  0
  5 22  1  0  0  0  0
  5  6  1  0  0  0  0
  6  7  2  0  0  0  0
  6 31  1  0  0  0  0
  7  8  1  0  0  0  0
  7 18  1  0  0  0  0
  8  9  2  0  0  0  0
  8 10  1  0  0  0  0
 10 16  1  0  0  0  0
 10 11  2  0  0  0  0
 11 12  1  0  0  0  0
 11 32  1  0  0  0  0
 12 13  1  0  0  0  0
 12 14  2  0  0  0  0
 14 15  1  0  0  0  0
 14 33  1  0  0  0  0
 15 16  2  0  0  0  0
 15 34  1  0  0  0  0
 16 17  1  0  0  0  0
 17 35  1  0  0  0  0
 18 19  2  0  0  0  0
 18 36  1  0  0  0  0
 19 20  1  0  0  0  0
 19 22  1  0  0  0  0
 20 21  3  0  0  0  0
 22 23  2  0  0  0  0
M  END
> <s_m_source_file>
AV-unprocessed.smi

> <i_m_source_file_index>
2941

> <i_lp_mmshare_version>
43012

> <i_f3d_flags>
0

> <s_epik_input>
W0NIM11PW0NIMl1bQ0gyXW4xW2NIXWMoW2NIXWMoQyNOKWMxPU8pQyg9TyljMltjSF1jKEYpW2NIXVtjSF1jMltPSF0=

> <s_epik_cmdline>
J2VwaWtfcHl0aG9uJywgJy1waCcsICc3LjAnLCAnLXRuJywgJzgnLCAnLW1hJywgJzIwMCcsICctbWV0YWxfYmluZGluZycsICctaW1hZScsICc8aW5maWxlLm1hZT4nLCAnLW9tYWUnLCAnPG91dGZpbGUubWFlPic=

> <r_epik_Ionization_Penalty>
0.27579

> <r_epik_Ionization_Penalty_Charging>
5.62591e-11

> <r_epik_Ionization_Penalty_Neutral>
0.27579

> <r_epik_State_Penalty>
0.26814

> <r_epik_Charging_Adjusted_Penalty>
0.26814

> <i_epik_Tot_Q>
0

> <i_epik_Tot_abs_Q>
0

> <r_epik_Metal_State_Penalty>
0.26814

> <b_epik_Metal_Only>
0

> <s_lp_Force_Field>
OPLS_2005

> <r_lp_Energy>
22.041

> <b_lp_Chiralities_Consistent>
1

> <s_lp_Variant>
AV-unprocessed.smi:2941-1

> <Gold.Version>
5.8.1

> <Gold.Id.Protein>
6NUR|6NUR_protein|mol2

> <Gold.PLP.Fitness>
51.5293

> <Gold.PLP.PLP>
-40.7009

> <Gold.PLP.part.hbond>
-3.1984

> <Gold.PLP.part.metal>
0.0000

> <Gold.PLP.part.buried>
-1.6370

> <Gold.PLP.part.nonpolar>
-35.5172

> <Gold.PLP.part.repulsive>
0.2696

> <Gold.PLP.ligand.clash>
0.0000

> <Gold.PLP.ligand.torsion>
1.1583

> <Gold.PLP.Chemscore.Hbond>
2.8068

> <Gold.PLP.Chemscore.CHOScore>
1.0000

> <Gold.PLP.Chemscore.Metal>
0.0000

> <Gold.Chemscore.Hbonds>
donor molecule, donor type, donor heavy atom, donor atom, acceptor molecule, acceptor atom, score
      L1  H    17    35       P1  7957  1.00
      P1  H  7997  8008       L1    23  1.00
      P1  H 10752 10763       L1    21  0.94
      L1  C     6    31       P1  8028  1.00

> <Gold.PLP.Chemscore.Internal.Correction>
1.7248

> <Gold.Rescore>
     Score         DG    S(hbond)    S(metal)    S(lipo)     H(rot)  DE(clash)    DE(int)     intcor
     16.57     -19.26       2.71        0.00      84.83       2.04       0.15       2.54       ----

> <Gold.Chemscore.Fitness>
16.5663

> <Gold.Chemscore.DG>
-19.2579

> <Gold.Chemscore.ZeroCoef>
-5.4800

> <Gold.Chemscore.Hbond>
2.7133

> <Gold.Chemscore.Metal>
0.0000

> <Gold.Chemscore.Lipo>
84.8329

> <Gold.Chemscore.Internal_Hbond>
0.0000

> <Gold.Chemscore.DEClash>
0.1515

> <Gold.Chemscore.DEInternal>
2.5402

> <Gold.Chemscore.Rot>
2.0351

> <Gold.Chemscore.Internal.Correction>
   9.000000E+99

> <Gold.Chemscore.Hbonds>
donor molecule, donor type, donor heavy atom, donor atom, acceptor molecule, acceptor atom, score
      L1  H    17    35       P1  7957  0.86
      P1  H  7997  8008       L1    23  0.99
      P1  H 10752 10763       L1    21  0.86

> <Gold.Chemscore.Hbond.Weighted>
-9.0624

> <Gold.Chemscore.Metal.Weighted>
-0.0000

> <Gold.Chemscore.Lipo.Weighted>
-9.9254

> <Gold.Chemscore.Internal_Hbond.Weighted>
0.0000

> <Gold.Chemscore.DEClash.Weighted>
0.1515

> <Gold.Chemscore.DEInternal.Weighted>
2.5402

> <Gold.Chemscore.Rot.Weighted>
5.2099

> <Gold.Chemscore.Internal.Correction.Weighted>
   9.000000E+99

> <Gold.Protein.RotatedTorsions>
[ 6907 6896 6895 6894 ] final   68.07 input  -60.11 | X-H torsion
[ 7974 7965 7964 7962 ] final  154.59 input  175.53 | X-H torsion
[ 8008 7997 7996 7995 ] final  -40.22 input   59.86 | X-H torsion
[ 10167 10162 10161 10158 ] final  -92.40 input  -65.29 | X-H torsion
[ 10718 10713 10712 10709 ] final   16.87 input   66.30 | X-H torsion
[ 10763 10752 10751 10750 ] final   66.30 input  -60.55 | X-H torsion
[ 11005 11000 10999 10996 ] final  148.97 input  -57.11 | X-H torsion

> <Gold.Protein.ActiveResidues>
 VAL166  LYS551  ARG553  GLY616  TRP617  ASP618  TYR619  PRO620  LYS621  CYS622 
 ASP623  PHE694  ASN695  SER759  ASP760  ASP761  ALA762  ILE779  LEU786  VAL792 
 PHE793  MET794  SER795  GLU796  ALA797  LYS798  CYS799  TRP800  GLU811  SER814 

> <Gold.Protein.RotatedAtoms>
  152.4595  134.5215  159.9783 H   0  0  0  0  0  0  0  0  0  0  0  0  # atno 6907 bound_to 6896
  151.5268  133.3450  159.2919 H   0  0  0  0  0  0  0  0  0  0  0  0  # atno 6908 bound_to 6896
  150.8553  134.7919  159.7103 H   0  0  0  0  0  0  0  0  0  0  0  0  # atno 6909 bound_to 6896
  144.8079  139.6954  143.6154 H   0  0  0  0  0  0  0  0  0  0  0  0  # atno 7974 bound_to 7965
  154.4014  140.1531  156.2991 H   0  0  0  0  0  0  0  0  0  0  0  0  # atno 8008 bound_to 7997
  155.8717  140.3448  155.5804 H   0  0  0  0  0  0  0  0  0  0  0  0  # atno 8009 bound_to 7997
  155.7767  140.0838  157.2071 H   0  0  0  0  0  0  0  0  0  0  0  0  # atno 8010 bound_to 7997
  140.3352  143.2973  151.9898 H   0  0  0  0  0  0  0  0  0  0  0  0  # atno 10167 bound_to 10162
  157.0740  130.6360  149.5812 H   0  0  0  0  0  0  0  0  0  0  0  0  # atno 10718 bound_to 10713
  153.0134  135.5325  154.6801 H   0  0  0  0  0  0  0  0  0  0  0  0  # atno 10763 bound_to 10752
  154.5963  135.2864  155.0584 H   0  0  0  0  0  0  0  0  0  0  0  0  # atno 10764 bound_to 10752
  154.1658  135.6540  153.5049 H   0  0  0  0  0  0  0  0  0  0  0  0  # atno 10765 bound_to 10752
  140.1005  134.8986  157.1788 H   0  0  0  0  0  0  0  0  0  0  0  0  # atno 11005 bound_to 11000
  146.2373  139.5931  142.9515 LP  0  0  0  0  0  0  0  0  0  0  0  0  # atno 17320 bound_to 7965
  145.5394  141.0422  143.2339 LP  0  0  0  0  0  0  0  0  0  0  0  0  # atno 17321 bound_to 7965
  139.4849  144.6203  151.7269 LP  0  0  0  0  0  0  0  0  0  0  0  0  # atno 17342 bound_to 10162
  140.5361  144.0654  150.6071 LP  0  0  0  0  0  0  0  0  0  0  0  0  # atno 17343 bound_to 10162
  155.9942  130.5005  150.7411 LP  0  0  0  0  0  0  0  0  0  0  0  0  # atno 17370 bound_to 10713
  157.4854  131.0906  151.0488 LP  0  0  0  0  0  0  0  0  0  0  0  0  # atno 17371 bound_to 10713
  140.3227  134.2898  155.7243 LP  0  0  0  0  0  0  0  0  0  0  0  0  # atno 17394 bound_to 11000
  141.2104  133.7720  156.9933 LP  0  0  0  0  0  0  0  0  0  0  0  0  # atno 17395 bound_to 11000

$$$$
