AV-unprocessed.smi:2576|AV-procd|sdf|10119|dock3
  -GOLD-   2272014133D 1   1.00000     0.00000
 Structure written by MMmdl.
 27 28  0  0  0  0  0  0  0  0  1 V2000
  149.5663  140.9169  153.6668 O   0  0  0  0  0  0  0  0  0  0  0  0
  149.4139  141.1263  155.0581 C   0  0  1  0  0  0  0  0  0  0  0  0
  150.5659  142.0181  155.5627 C   0  0  0  0  0  0  0  0  0  0  0  0
  151.3716  141.3691  156.5827 N   0  0  0  0  0  0  0  0  0  0  0  0
  151.8741  140.1244  156.3458 N   0  0  0  0  0  0  0  0  0  0  0  0
  152.5555  139.7457  157.3857 N   0  0  0  0  0  0  0  0  0  0  0  0
  152.5027  140.7615  158.3256 C   0  0  0  0  0  0  0  0  0  0  0  0
  153.0608  140.8793  159.6182 C   0  0  0  0  0  0  0  0  0  0  0  0
  152.8516  142.0483  160.3825 C   0  0  0  0  0  0  0  0  0  0  0  0
  153.5509  142.1554  161.9590 Cl  0  0  0  0  0  0  0  0  0  0  0  0
  152.0798  143.1146  159.8606 C   0  0  0  0  0  0  0  0  0  0  0  0
  151.8162  144.5527  160.7810 Cl  0  0  0  0  0  0  0  0  0  0  0  0
  151.5157  143.0099  158.5736 C   0  0  0  0  0  0  0  0  0  0  0  0
  151.7354  141.8380  157.8301 C   0  0  0  0  0  0  0  0  0  0  0  0
  148.0361  141.7586  155.3409 C   0  0  0  0  0  0  0  0  0  0  0  0
  146.8666  141.1260  154.5651 C   0  0  0  0  0  0  0  0  0  0  0  0
  145.7597  141.8300  154.7984 F   0  0  0  0  0  0  0  0  0  0  0  0
  147.1009  141.1311  153.2531 F   0  0  0  0  0  0  0  0  0  0  0  0
  146.6654  139.8723  154.9705 F   0  0  0  0  0  0  0  0  0  0  0  0
  148.8041  140.4591  153.3452 H   0  0  0  0  0  0  0  0  0  0  0  0
  149.4746  140.1577  155.5554 H   0  0  0  0  0  0  0  0  0  0  0  0
  151.2172  142.3029  154.7353 H   0  0  0  0  0  0  0  0  0  0  0  0
  150.1713  142.9466  155.9781 H   0  0  0  0  0  0  0  0  0  0  0  0
  153.6508  140.0695  160.0216 H   0  0  0  0  0  0  0  0  0  0  0  0
  150.9259  143.8164  158.1635 H   0  0  0  0  0  0  0  0  0  0  0  0
  147.8208  141.6627  156.4061 H   0  0  0  0  0  0  0  0  0  0  0  0
  148.0741  142.8302  155.1402 H   0  0  0  0  0  0  0  0  0  0  0  0
  1  2  1  0  0  0  0
  1 20  1  0  0  0  0
  2  3  1  0  0  0  0
  2 15  1  0  0  0  0
  2 21  1  0  0  0  0
  3  4  1  0  0  0  0
  3 22  1  0  0  0  0
  3 23  1  0  0  0  0
  4 14  1  0  0  0  0
  4  5  1  0  0  0  0
  5  6  2  0  0  0  0
  6  7  1  0  0  0  0
  7 14  2  0  0  0  0
  7  8  1  0  0  0  0
  8  9  2  0  0  0  0
  8 24  1  0  0  0  0
  9 10  1  0  0  0  0
  9 11  1  0  0  0  0
 11 12  1  0  0  0  0
 11 13  2  0  0  0  0
 13 14  1  0  0  0  0
 13 25  1  0  0  0  0
 15 16  1  0  0  0  0
 15 26  1  0  0  0  0
 15 27  1  0  0  0  0
 16 17  1  0  0  0  0
 16 18  1  0  0  0  0
 16 19  1  0  0  0  0
M  END
> <s_m_source_file>
AV-unprocessed.smi

> <i_m_source_file_index>
2576

> <i_lp_mmshare_version>
43012

> <i_f3d_flags>
0

> <s_epik_input>
RkMoRikoRilbQ0gyXVtDQEhdKFtPSF0pW0NIMl1uKG5uMSljKGMxMilbY0hdYyhDbCljKENsKVtjSF0y

> <s_epik_cmdline>
J2VwaWtfcHl0aG9uJywgJy1waCcsICc3LjAnLCAnLXRuJywgJzgnLCAnLW1hJywgJzIwMCcsICctbWV0YWxfYmluZGluZycsICctaW1hZScsICc8aW5maWxlLm1hZT4nLCAnLW9tYWUnLCAnPG91dGZpbGUubWFlPic=

> <r_lp_tautomer_probability>
1

> <r_epik_Ionization_Penalty>
1.57739e-05

> <r_epik_Ionization_Penalty_Charging>
0

> <r_epik_Ionization_Penalty_Neutral>
1.57739e-05

> <r_epik_State_Penalty>
-0

> <r_epik_Charging_Adjusted_Penalty>
0

> <i_epik_Tot_Q>
0

> <i_epik_Tot_abs_Q>
0

> <r_epik_Metal_State_Penalty>
-0

> <b_epik_Metal_Only>
0

> <s_lp_Force_Field>
OPLS_2005

> <r_lp_Energy>
8.87224

> <b_lp_Chiralities_Consistent>
1

> <s_lp_Variant>
AV-unprocessed.smi:2576-2

> <Gold.Version>
5.8.1

> <Gold.Id.Protein>
6NUR|6NUR_protein|mol2

> <Gold.PLP.Fitness>
44.8873

> <Gold.PLP.PLP>
-39.7237

> <Gold.PLP.part.hbond>
-4.0000

> <Gold.PLP.part.metal>
0.0000

> <Gold.PLP.part.buried>
-3.5934

> <Gold.PLP.part.nonpolar>
-30.8892

> <Gold.PLP.part.repulsive>
0.0000

> <Gold.PLP.ligand.clash>
0.0000

> <Gold.PLP.ligand.torsion>
0.9598

> <Gold.PLP.Chemscore.Hbond>
2.3588

> <Gold.PLP.Chemscore.CHOScore>
0.0000

> <Gold.PLP.Chemscore.Metal>
0.0000

> <Gold.Chemscore.Hbonds>
donor molecule, donor type, donor heavy atom, donor atom, acceptor molecule, acceptor atom, score
      P1  H  7989  7998       L1     1  0.34
      P1  H  7997  8009       L1     6  0.86
      P1  H  8011  8017       L1     1  1.00

> <Gold.PLP.Chemscore.Internal.Correction>
0.0069

> <Gold.Rescore>
     Score         DG    S(hbond)    S(metal)    S(lipo)     H(rot)  DE(clash)    DE(int)     intcor
     12.10     -14.69       0.89        0.00     101.17       2.18       0.03       2.56       ----

> <Gold.Chemscore.Fitness>
12.0966

> <Gold.Chemscore.DG>
-14.6930

> <Gold.Chemscore.ZeroCoef>
-5.4800

> <Gold.Chemscore.Hbond>
0.8858

> <Gold.Chemscore.Metal>
0.0000

> <Gold.Chemscore.Lipo>
101.1724

> <Gold.Chemscore.Internal_Hbond>
0.0000

> <Gold.Chemscore.DEClash>
0.0341

> <Gold.Chemscore.DEInternal>
2.5623

> <Gold.Chemscore.Rot>
2.1807

> <Gold.Chemscore.Internal.Correction>
   9.000000E+99

> <Gold.Chemscore.Hbonds>
donor molecule, donor type, donor heavy atom, donor atom, acceptor molecule, acceptor atom, score
      L1  H     1    20       P1  7957  0.01
      P1  H  7989  7998       L1     1  0.11
      P1  H  7997  8009       L1     6  0.04
      P1  H  8011  8017       L1     1  0.36

> <Gold.Chemscore.Hbond.Weighted>
-2.9584

> <Gold.Chemscore.Metal.Weighted>
-0.0000

> <Gold.Chemscore.Lipo.Weighted>
-11.8372

> <Gold.Chemscore.Internal_Hbond.Weighted>
0.0000

> <Gold.Chemscore.DEClash.Weighted>
0.0341

> <Gold.Chemscore.DEInternal.Weighted>
2.5623

> <Gold.Chemscore.Rot.Weighted>
5.5826

> <Gold.Chemscore.Internal.Correction.Weighted>
   9.000000E+99

> <Gold.Protein.RotatedTorsions>
[ 6907 6896 6895 6894 ] final  146.83 input  -60.11 | X-H torsion
[ 7974 7965 7964 7962 ] final -107.70 input  175.53 | X-H torsion
[ 8008 7997 7996 7995 ] final  176.02 input   59.86 | X-H torsion
[ 10167 10162 10161 10158 ] final  -48.91 input  -65.29 | X-H torsion
[ 10718 10713 10712 10709 ] final   21.58 input   66.30 | X-H torsion
[ 10763 10752 10751 10750 ] final  -36.25 input  -60.55 | X-H torsion
[ 11005 11000 10999 10996 ] final   33.65 input  -57.11 | X-H torsion

> <Gold.Protein.ActiveResidues>
 VAL166  LYS551  ARG553  GLY616  TRP617  ASP618  TYR619  PRO620  LYS621  CYS622 
 ASP623  PHE694  ASN695  SER759  ASP760  ASP761  ALA762  ILE779  LEU786  VAL792 
 PHE793  MET794  SER795  GLU796  ALA797  LYS798  CYS799  TRP800  GLU811  SER814 

> <Gold.Protein.RotatedAtoms>
  152.1628  133.4592  159.4869 H   0  0  0  0  0  0  0  0  0  0  0  0  # atno 6907 bound_to 6896
  150.6909  134.2051  159.4346 H   0  0  0  0  0  0  0  0  0  0  0  0  # atno 6908 bound_to 6896
  151.9954  134.9957  160.0614 H   0  0  0  0  0  0  0  0  0  0  0  0  # atno 6909 bound_to 6896
  145.2020  140.9060  143.3364 H   0  0  0  0  0  0  0  0  0  0  0  0  # atno 7974 bound_to 7965
  156.0809  140.1394  156.9713 H   0  0  0  0  0  0  0  0  0  0  0  0  # atno 8008 bound_to 7997
  154.4584  140.0952  156.6874 H   0  0  0  0  0  0  0  0  0  0  0  0  # atno 8009 bound_to 7997
  155.5077  140.3453  155.4385 H   0  0  0  0  0  0  0  0  0  0  0  0  # atno 8010 bound_to 7997
  140.6709  143.2720  151.4138 H   0  0  0  0  0  0  0  0  0  0  0  0  # atno 10167 bound_to 10162
  157.1404  130.6630  149.5979 H   0  0  0  0  0  0  0  0  0  0  0  0  # atno 10718 bound_to 10713
  153.8767  135.6825  153.4770 H   0  0  0  0  0  0  0  0  0  0  0  0  # atno 10763 bound_to 10752
  153.1257  135.4720  154.9266 H   0  0  0  0  0  0  0  0  0  0  0  0  # atno 10764 bound_to 10752
  154.7688  135.3232  154.8182 H   0  0  0  0  0  0  0  0  0  0  0  0  # atno 10765 bound_to 10752
  140.2609  134.3193  155.7858 H   0  0  0  0  0  0  0  0  0  0  0  0  # atno 11005 bound_to 11000
  144.9938  139.3663  143.6201 LP  0  0  0  0  0  0  0  0  0  0  0  0  # atno 17320 bound_to 7965
  146.3415  139.9132  142.8777 LP  0  0  0  0  0  0  0  0  0  0  0  0  # atno 17321 bound_to 7965
  139.5978  144.1360  152.2163 LP  0  0  0  0  0  0  0  0  0  0  0  0  # atno 17342 bound_to 10162
  140.0735  144.5760  150.7174 LP  0  0  0  0  0  0  0  0  0  0  0  0  # atno 17343 bound_to 10162
  155.9790  130.4779  150.6687 LP  0  0  0  0  0  0  0  0  0  0  0  0  # atno 17370 bound_to 10713
  157.4312  131.0849  151.1037 LP  0  0  0  0  0  0  0  0  0  0  0  0  # atno 17371 bound_to 10713
  141.2190  133.7409  156.9185 LP  0  0  0  0  0  0  0  0  0  0  0  0  # atno 17394 bound_to 11000
  140.1465  134.9258  157.2537 LP  0  0  0  0  0  0  0  0  0  0  0  0  # atno 17395 bound_to 11000

$$$$
