AV-unprocessed.smi:1791|AV-procd|sdf|7219|dock2
  -GOLD-   22720 8463D 1   1.00000     0.00000
 Structure written by MMmdl.
 38 39  0  0  0  0  0  0  0  0  1 V2000
  151.5236  141.3089  158.0572 C   0  0  0  0  0  0  0  0  0  0  0  0
  151.5717  141.1191  156.6471 O   0  0  0  0  0  0  0  0  0  0  0  0
  151.0751  139.9409  156.1279 C   0  0  0  0  0  0  0  0  0  0  0  0
  150.8460  138.8606  157.0032 C   0  0  0  0  0  0  0  0  0  0  0  0
  150.3364  137.6558  156.4815 C   0  0  0  0  0  0  0  0  0  0  0  0
  150.0642  137.5720  155.0949 C   0  0  0  0  0  0  0  0  0  0  0  0
  149.5623  136.4149  154.4390 N   0  0  0  0  0  0  0  0  0  0  0  0
  149.1698  135.2454  154.9728 C   0  0  0  0  0  0  0  0  0  0  0  0
  149.1880  134.9676  156.1715 O   0  0  0  0  0  0  0  0  0  0  0  0
  148.7311  134.4084  154.0214 N   0  0  0  0  0  0  0  0  0  0  0  0
  148.2251  133.0543  154.2370 C   0  0  1  0  0  0  0  0  0  0  0  0
  147.1163  133.1058  155.2996 C   0  0  0  0  0  0  0  0  0  0  0  0
  147.7285  132.4733  152.8987 C   0  0  2  0  0  0  0  0  0  0  0  0
  146.7519  133.3700  152.1346 C   0  0  0  0  0  0  0  0  0  0  0  0
  145.9330  132.3933  151.3042 C   0  0  0  0  0  0  0  0  0  0  0  0
  146.2666  131.0239  151.9004 C   0  0  0  0  0  0  0  0  0  0  0  0
  146.9469  131.3079  153.1139 O   0  0  0  0  0  0  0  0  0  0  0  0
  150.3416  138.7056  154.3034 C   0  0  0  0  0  0  0  0  0  0  0  0
  150.8291  139.8633  154.7969 N   0  0  0  0  0  0  0  0  0  0  0  0
  151.9508  142.2801  158.3060 H   0  0  0  0  0  0  0  0  0  0  0  0
  152.1044  140.5487  158.5816 H   0  0  0  0  0  0  0  0  0  0  0  0
  150.4977  141.2948  158.4276 H   0  0  0  0  0  0  0  0  0  0  0  0
  151.0604  138.9532  158.0577 H   0  0  0  0  0  0  0  0  0  0  0  0
  150.1786  136.8262  157.1523 H   0  0  0  0  0  0  0  0  0  0  0  0
  149.4286  136.5106  153.4431 H   0  0  0  0  0  0  0  0  0  0  0  0
  148.7557  134.7300  153.0650 H   0  0  0  0  0  0  0  0  0  0  0  0
  149.0195  132.4103  154.6180 H   0  0  0  0  0  0  0  0  0  0  0  0
  146.7401  132.1089  155.5302 H   0  0  0  0  0  0  0  0  0  0  0  0
  146.2727  133.7109  154.9659 H   0  0  0  0  0  0  0  0  0  0  0  0
  147.4867  133.5356  156.2308 H   0  0  0  0  0  0  0  0  0  0  0  0
  148.5735  132.2152  152.2568 H   0  0  0  0  0  0  0  0  0  0  0  0
  146.0952  133.8931  152.8311 H   0  0  0  0  0  0  0  0  0  0  0  0
  147.2595  134.1189  151.5257 H   0  0  0  0  0  0  0  0  0  0  0  0
  144.8686  132.6172  151.3839 H   0  0  0  0  0  0  0  0  0  0  0  0
  146.2061  132.4325  150.2494 H   0  0  0  0  0  0  0  0  0  0  0  0
  145.3796  130.4157  152.0788 H   0  0  0  0  0  0  0  0  0  0  0  0
  146.9325  130.4693  151.2377 H   0  0  0  0  0  0  0  0  0  0  0  0
  150.1620  138.6874  153.2384 H   0  0  0  0  0  0  0  0  0  0  0  0
  1  2  1  0  0  0  0
  1 20  1  0  0  0  0
  1 21  1  0  0  0  0
  1 22  1  0  0  0  0
  2  3  1  0  0  0  0
  3 19  1  0  0  0  0
  3  4  2  0  0  0  0
  4  5  1  0  0  0  0
  4 23  1  0  0  0  0
  5  6  2  0  0  0  0
  5 24  1  0  0  0  0
  6  7  1  0  0  0  0
  6 18  1  0  0  0  0
  7  8  1  0  0  0  0
  7 25  1  0  0  0  0
  8  9  2  0  0  0  0
  8 10  1  0  0  0  0
 10 11  1  0  0  0  0
 10 26  1  0  0  0  0
 11 12  1  0  0  0  0
 11 13  1  0  0  0  0
 11 27  1  0  0  0  0
 12 28  1  0  0  0  0
 12 29  1  0  0  0  0
 12 30  1  0  0  0  0
 13 17  1  0  0  0  0
 13 14  1  0  0  0  0
 13 31  1  0  0  0  0
 14 15  1  0  0  0  0
 14 32  1  0  0  0  0
 14 33  1  0  0  0  0
 15 16  1  0  0  0  0
 15 34  1  0  0  0  0
 15 35  1  0  0  0  0
 16 17  1  0  0  0  0
 16 36  1  0  0  0  0
 16 37  1  0  0  0  0
 18 19  2  0  0  0  0
 18 38  1  0  0  0  0
M  END
> <s_m_source_file>
AV-unprocessed.smi

> <i_m_source_file_index>
1791

> <i_lp_mmshare_version>
43012

> <i_f3d_flags>
0

> <s_epik_input>
W0NIM11PYzFbY0hdW2NIXWMoW2NIXW4xKVtOSF1DKD1PKVtOSF1bQ0BIXShbQ0gzXSlbQ0BASF0yW0NIMl1bQ0gyXVtDSDJdTzI=

> <s_epik_cmdline>
J2VwaWtfcHl0aG9uJywgJy1waCcsICc3LjAnLCAnLXRuJywgJzgnLCAnLW1hJywgJzIwMCcsICctbWV0YWxfYmluZGluZycsICctaW1hZScsICc8aW5maWxlLm1hZT4nLCAnLW9tYWUnLCAnPG91dGZpbGUubWFlPic=

> <r_lp_tautomer_probability>
1

> <r_epik_Ionization_Penalty>
9.18737e-05

> <r_epik_Ionization_Penalty_Charging>
0

> <r_epik_Ionization_Penalty_Neutral>
9.18737e-05

> <r_epik_State_Penalty>
-0

> <r_epik_Charging_Adjusted_Penalty>
0

> <i_epik_Tot_Q>
0

> <i_epik_Tot_abs_Q>
0

> <r_epik_Metal_State_Penalty>
-0

> <b_epik_Metal_Only>
0

> <s_lp_Force_Field>
OPLS_2005

> <r_lp_Energy>
20.9022

> <b_lp_Chiralities_Consistent>
1

> <s_lp_Variant>
AV-unprocessed.smi:1791-2

> <Gold.Version>
5.8.1

> <Gold.Id.Protein>
6NUR|6NUR_protein|mol2

> <Gold.PLP.Fitness>
36.1425

> <Gold.PLP.PLP>
-24.8879

> <Gold.PLP.part.hbond>
-3.0000

> <Gold.PLP.part.metal>
0.0000

> <Gold.PLP.part.buried>
-3.3351

> <Gold.PLP.part.nonpolar>
-18.7107

> <Gold.PLP.part.repulsive>
0.2640

> <Gold.PLP.ligand.clash>
0.0000

> <Gold.PLP.ligand.torsion>
0.3676

> <Gold.PLP.Chemscore.Hbond>
2.9760

> <Gold.PLP.Chemscore.CHOScore>
1.0000

> <Gold.PLP.Chemscore.Metal>
0.0000

> <Gold.Chemscore.Hbonds>
donor molecule, donor type, donor heavy atom, donor atom, acceptor molecule, acceptor atom, score
      L1  H     7    25       P1  7948  1.00
      L1  H    10    26       P1  7948  0.91
      P1  H  7989  7998       L1    19  1.00
      L1  C    18    38       P1  7957  1.00

> <Gold.PLP.Chemscore.Internal.Correction>
0.0618

> <Gold.Rescore>
     Score         DG    S(hbond)    S(metal)    S(lipo)     H(rot)  DE(clash)    DE(int)     intcor
     15.37     -17.00       2.53        0.00      58.24       1.47       0.11       1.52       ----

> <Gold.Chemscore.Fitness>
15.3654

> <Gold.Chemscore.DG>
-16.9975

> <Gold.Chemscore.ZeroCoef>
-5.4800

> <Gold.Chemscore.Hbond>
2.5343

> <Gold.Chemscore.Metal>
0.0000

> <Gold.Chemscore.Lipo>
58.2423

> <Gold.Chemscore.Internal_Hbond>
0.0000

> <Gold.Chemscore.DEClash>
0.1112

> <Gold.Chemscore.DEInternal>
1.5210

> <Gold.Chemscore.Rot>
1.4693

> <Gold.Chemscore.Internal.Correction>
   9.000000E+99

> <Gold.Chemscore.Hbonds>
donor molecule, donor type, donor heavy atom, donor atom, acceptor molecule, acceptor atom, score
      L1  H     7    25       P1  7948  0.78
      L1  H    10    26       P1  7948  0.20
      P1  H  7989  7998       L1    19  0.82

> <Gold.Chemscore.Hbond.Weighted>
-8.4645

> <Gold.Chemscore.Metal.Weighted>
-0.0000

> <Gold.Chemscore.Lipo.Weighted>
-6.8143

> <Gold.Chemscore.Internal_Hbond.Weighted>
0.0000

> <Gold.Chemscore.DEClash.Weighted>
0.1112

> <Gold.Chemscore.DEInternal.Weighted>
1.5210

> <Gold.Chemscore.Rot.Weighted>
3.7613

> <Gold.Chemscore.Internal.Correction.Weighted>
   9.000000E+99

> <Gold.Protein.RotatedTorsions>
[ 6907 6896 6895 6894 ] final  142.51 input  -60.11 | X-H torsion
[ 7974 7965 7964 7962 ] final   62.25 input  175.53 | X-H torsion
[ 8008 7997 7996 7995 ] final   34.39 input   59.86 | X-H torsion
[ 10167 10162 10161 10158 ] final  169.32 input  -65.29 | X-H torsion
[ 10718 10713 10712 10709 ] final   69.06 input   66.30 | X-H torsion
[ 10763 10752 10751 10750 ] final -142.52 input  -60.55 | X-H torsion
[ 11005 11000 10999 10996 ] final  -90.87 input  -57.11 | X-H torsion

> <Gold.Protein.ActiveResidues>
 VAL166  LYS551  ARG553  GLY616  TRP617  ASP618  TYR619  PRO620  LYS621  CYS622 
 ASP623  PHE694  ASN695  SER759  ASP760  ASP761  ALA762  ILE779  LEU786  VAL792 
 PHE793  MET794  SER795  GLU796  ALA797  LYS798  CYS799  TRP800  GLU811  SER814 

> <Gold.Protein.RotatedAtoms>
  152.2179  133.4960  159.5145 H   0  0  0  0  0  0  0  0  0  0  0  0  # atno 6907 bound_to 6896
  150.7005  134.1382  159.4104 H   0  0  0  0  0  0  0  0  0  0  0  0  # atno 6908 bound_to 6896
  151.9302  135.0259  160.0579 H   0  0  0  0  0  0  0  0  0  0  0  0  # atno 6909 bound_to 6896
  145.8755  139.3407  143.0737 H   0  0  0  0  0  0  0  0  0  0  0  0  # atno 7974 bound_to 7965
  155.1541  140.3277  155.4425 H   0  0  0  0  0  0  0  0  0  0  0  0  # atno 8008 bound_to 7997
  156.2564  140.1971  156.6602 H   0  0  0  0  0  0  0  0  0  0  0  0  # atno 8009 bound_to 7997
  154.6452  140.0565  156.9878 H   0  0  0  0  0  0  0  0  0  0  0  0  # atno 8010 bound_to 7997
  139.4989  144.3719  151.9715 H   0  0  0  0  0  0  0  0  0  0  0  0  # atno 10167 bound_to 10162
  157.6324  130.9406  150.0462 H   0  0  0  0  0  0  0  0  0  0  0  0  # atno 10718 bound_to 10713
  154.8506  135.3493  154.6041 H   0  0  0  0  0  0  0  0  0  0  0  0  # atno 10763 bound_to 10752
  153.6650  135.6988  153.5170 H   0  0  0  0  0  0  0  0  0  0  0  0  # atno 10764 bound_to 10752
  153.2787  135.4270  155.1015 H   0  0  0  0  0  0  0  0  0  0  0  0  # atno 10765 bound_to 10752
  141.1557  133.7719  156.9799 H   0  0  0  0  0  0  0  0  0  0  0  0  # atno 11005 bound_to 11000
  145.9086  140.9195  143.0466 LP  0  0  0  0  0  0  0  0  0  0  0  0  # atno 17320 bound_to 7965
  144.6726  140.1129  143.7454 LP  0  0  0  0  0  0  0  0  0  0  0  0  # atno 17321 bound_to 7965
  140.3155  144.3488  150.6023 LP  0  0  0  0  0  0  0  0  0  0  0  0  # atno 17342 bound_to 10162
  140.5764  143.2176  151.7507 LP  0  0  0  0  0  0  0  0  0  0  0  0  # atno 17343 bound_to 10162
  156.1538  130.3643  149.9399 LP  0  0  0  0  0  0  0  0  0  0  0  0  # atno 17370 bound_to 10713
  156.7413  130.9080  151.3632 LP  0  0  0  0  0  0  0  0  0  0  0  0  # atno 17371 bound_to 10713
  140.1073  134.9499  157.2013 LP  0  0  0  0  0  0  0  0  0  0  0  0  # atno 17394 bound_to 11000
  140.3240  134.2885  155.7240 LP  0  0  0  0  0  0  0  0  0  0  0  0  # atno 17395 bound_to 11000

$$$$
