AV-unprocessed.smi:2666|AV-procd|sdf|10333|dock6
  -GOLD-   2272014353D 1   1.00000     0.00000
 Structure written by MMmdl.
 43 44  0  0  0  0  0  0  0  0  1 V2000
  148.6125  135.4599  156.1984 O   0  0  0  0  0  0  0  0  0  0  0  0
  148.6685  135.5900  154.9761 C   0  0  0  0  0  0  0  0  0  0  0  0
  149.3484  136.5525  154.3299 N   0  0  0  0  0  0  0  0  0  0  0  0
  150.1583  137.5809  154.8829 C   0  0  0  0  0  0  0  0  0  0  0  0
  150.5284  137.4774  156.2397 C   0  0  0  0  0  0  0  0  0  0  0  0
  151.3168  138.4918  156.8155 C   0  0  0  0  0  0  0  0  0  0  0  0
  151.6976  139.5821  156.0096 C   0  0  0  0  0  0  0  0  0  0  0  0
  151.3382  139.7060  154.7147 N   0  0  0  0  0  0  0  0  0  0  0  0
  150.5841  138.7280  154.1680 C   0  0  0  0  0  0  0  0  0  0  0  0
  148.0272  134.7894  154.1112 N   0  0  0  0  0  0  0  0  0  0  0  0
  147.1745  133.6488  154.4592 C   0  0  1  0  0  0  0  0  0  0  0  0
  145.8799  134.1747  155.1305 C   0  0  0  0  0  0  0  0  0  0  0  0
  144.9292  134.9512  154.1997 C   0  0  0  0  0  0  0  0  0  0  0  0
  143.6152  134.9449  154.7164 O   0  0  0  0  0  0  0  0  0  0  0  0
  146.9119  132.7773  153.1960 C   0  0  0  0  0  0  0  0  0  0  0  0
  146.5881  133.6293  151.9435 C   0  0  0  0  0  0  0  0  0  0  0  0
  146.3083  132.7673  150.7016 C   0  0  0  0  0  0  0  0  0  0  0  0
  145.1770  131.7649  150.9587 C   0  0  0  0  0  0  0  0  0  0  0  0
  145.4986  130.8910  152.1766 C   0  0  0  0  0  0  0  0  0  0  0  0
  145.7730  131.7488  153.4218 C   0  0  0  0  0  0  0  0  0  0  0  0
  149.2270  136.5871  153.3285 H   0  0  0  0  0  0  0  0  0  0  0  0
  150.2188  136.6293  156.8331 H   0  0  0  0  0  0  0  0  0  0  0  0
  151.6216  138.4363  157.8500 H   0  0  0  0  0  0  0  0  0  0  0  0
  152.3015  140.3790  156.4181 H   0  0  0  0  0  0  0  0  0  0  0  0
  150.3068  138.8953  153.1389 H   0  0  0  0  0  0  0  0  0  0  0  0
  148.1357  134.9818  153.1263 H   0  0  0  0  0  0  0  0  0  0  0  0
  147.6879  133.0154  155.1848 H   0  0  0  0  0  0  0  0  0  0  0  0
  145.3363  133.3326  155.5606 H   0  0  0  0  0  0  0  0  0  0  0  0
  146.1239  134.8309  155.9646 H   0  0  0  0  0  0  0  0  0  0  0  0
  145.2585  135.9795  154.0504 H   0  0  0  0  0  0  0  0  0  0  0  0
  144.9112  134.4819  153.2157 H   0  0  0  0  0  0  0  0  0  0  0  0
  143.1606  134.1895  154.3759 H   0  0  0  0  0  0  0  0  0  0  0  0
  147.8230  132.2149  152.9857 H   0  0  0  0  0  0  0  0  0  0  0  0
  145.7263  134.2668  152.1452 H   0  0  0  0  0  0  0  0  0  0  0  0
  147.4151  134.2950  151.7027 H   0  0  0  0  0  0  0  0  0  0  0  0
  146.0519  133.4065  149.8564 H   0  0  0  0  0  0  0  0  0  0  0  0
  147.2146  132.2303  150.4189 H   0  0  0  0  0  0  0  0  0  0  0  0
  144.2409  132.2997  151.1253 H   0  0  0  0  0  0  0  0  0  0  0  0
  145.0256  131.1388  150.0790 H   0  0  0  0  0  0  0  0  0  0  0  0
  144.6717  130.2075  152.3714 H   0  0  0  0  0  0  0  0  0  0  0  0
  146.3690  130.2695  151.9618 H   0  0  0  0  0  0  0  0  0  0  0  0
  146.0137  131.0778  154.2461 H   0  0  0  0  0  0  0  0  0  0  0  0
  144.8604  132.2721  153.7103 H   0  0  0  0  0  0  0  0  0  0  0  0
  1  2  2  0  0  0  0
  2  3  1  0  0  0  0
  2 10  1  0  0  0  0
  3  4  1  0  0  0  0
  3 21  1  0  0  0  0
  4  9  1  0  0  0  0
  4  5  2  0  0  0  0
  5  6  1  0  0  0  0
  5 22  1  0  0  0  0
  6  7  2  0  0  0  0
  6 23  1  0  0  0  0
  7  8  1  0  0  0  0
  7 24  1  0  0  0  0
  8  9  2  0  0  0  0
  9 25  1  0  0  0  0
 10 11  1  0  0  0  0
 10 26  1  0  0  0  0
 11 12  1  0  0  0  0
 11 15  1  0  0  0  0
 11 27  1  0  0  0  0
 12 13  1  0  0  0  0
 12 28  1  0  0  0  0
 12 29  1  0  0  0  0
 13 14  1  0  0  0  0
 13 30  1  0  0  0  0
 13 31  1  0  0  0  0
 14 32  1  0  0  0  0
 15 20  1  0  0  0  0
 15 16  1  0  0  0  0
 15 33  1  0  0  0  0
 16 17  1  0  0  0  0
 16 34  1  0  0  0  0
 16 35  1  0  0  0  0
 17 18  1  0  0  0  0
 17 36  1  0  0  0  0
 17 37  1  0  0  0  0
 18 19  1  0  0  0  0
 18 38  1  0  0  0  0
 18 39  1  0  0  0  0
 19 20  1  0  0  0  0
 19 40  1  0  0  0  0
 19 41  1  0  0  0  0
 20 42  1  0  0  0  0
 20 43  1  0  0  0  0
M  END
> <s_m_source_file>
AV-unprocessed.smi

> <i_m_source_file_index>
2666

> <i_lp_mmshare_version>
43012

> <i_f3d_flags>
0

> <s_epik_input>
W2NIXTFuW2NIXVtjSF1bY0hdYzFbTkhdQyg9TylbTkhdW0NASF0oW0NIMl1bQ0gyXVtPSF0pW0NIXTJbQ0gyXVtDSDJdW0NIMl1bQ0gyXVtDSDJdMg==

> <s_epik_cmdline>
J2VwaWtfcHl0aG9uJywgJy1waCcsICc3LjAnLCAnLXRuJywgJzgnLCAnLW1hJywgJzIwMCcsICctbWV0YWxfYmluZGluZycsICctaW1hZScsICc8aW5maWxlLm1hZT4nLCAnLW9tYWUnLCAnPG91dGZpbGUubWFlPic=

> <r_epik_Ionization_Penalty>
0.00500145

> <r_epik_Ionization_Penalty_Charging>
0

> <r_epik_Ionization_Penalty_Neutral>
0.00500145

> <r_epik_State_Penalty>
0.00360517

> <r_epik_Charging_Adjusted_Penalty>
0.00360517

> <i_epik_Tot_Q>
0

> <i_epik_Tot_abs_Q>
0

> <r_epik_Metal_State_Penalty>
-0

> <b_epik_Metal_Only>
0

> <s_lp_Force_Field>
OPLS_2005

> <r_lp_Energy>
18.9025

> <b_lp_Chiralities_Consistent>
1

> <s_lp_Variant>
AV-unprocessed.smi:2666-2

> <Gold.Version>
5.8.1

> <Gold.Id.Protein>
6NUR|6NUR_protein|mol2

> <Gold.PLP.Fitness>
44.7968

> <Gold.PLP.PLP>
-31.1683

> <Gold.PLP.part.hbond>
-4.8283

> <Gold.PLP.part.metal>
0.0000

> <Gold.PLP.part.buried>
-2.2808

> <Gold.PLP.part.nonpolar>
-24.3702

> <Gold.PLP.part.repulsive>
0.1408

> <Gold.PLP.ligand.clash>
0.0000

> <Gold.PLP.ligand.torsion>
0.5521

> <Gold.PLP.Chemscore.Hbond>
3.8960

> <Gold.PLP.Chemscore.CHOScore>
1.0000

> <Gold.PLP.Chemscore.Metal>
0.0000

> <Gold.Chemscore.Hbonds>
donor molecule, donor type, donor heavy atom, donor atom, acceptor molecule, acceptor atom, score
      L1  H     3    21       P1  7948  0.96
      L1  H    10    26       P1  7948  0.88
      P1  H  7989  7998       L1     8  1.00
      L1  C     9    25       P1  7957  1.00

> <Gold.PLP.Chemscore.Internal.Correction>
0.0447

> <Gold.Rescore>
     Score         DG    S(hbond)    S(metal)    S(lipo)     H(rot)  DE(clash)    DE(int)     intcor
     17.76     -19.62       3.24        0.00      76.94       2.23       0.00       1.86       ----

> <Gold.Chemscore.Fitness>
17.7632

> <Gold.Chemscore.DG>
-19.6184

> <Gold.Chemscore.ZeroCoef>
-5.4800

> <Gold.Chemscore.Hbond>
3.2435

> <Gold.Chemscore.Metal>
0.0000

> <Gold.Chemscore.Lipo>
76.9351

> <Gold.Chemscore.Internal_Hbond>
0.0000

> <Gold.Chemscore.DEClash>
0.0000

> <Gold.Chemscore.DEInternal>
1.8552

> <Gold.Chemscore.Rot>
2.2251

> <Gold.Chemscore.Internal.Correction>
   9.000000E+99

> <Gold.Chemscore.Hbonds>
donor molecule, donor type, donor heavy atom, donor atom, acceptor molecule, acceptor atom, score
      L1  H     3    21       P1  7948  0.86
      L1  H    10    26       P1  7948  0.81
      L1  H    14    32       P1 10957  0.01
      P1  H  7989  7998       L1     8  0.65

> <Gold.Chemscore.Hbond.Weighted>
-10.8332

> <Gold.Chemscore.Metal.Weighted>
-0.0000

> <Gold.Chemscore.Lipo.Weighted>
-9.0014

> <Gold.Chemscore.Internal_Hbond.Weighted>
0.0000

> <Gold.Chemscore.DEClash.Weighted>
0.0000

> <Gold.Chemscore.DEInternal.Weighted>
1.8552

> <Gold.Chemscore.Rot.Weighted>
5.6962

> <Gold.Chemscore.Internal.Correction.Weighted>
   9.000000E+99

> <Gold.Protein.RotatedTorsions>
[ 6907 6896 6895 6894 ] final   73.57 input  -60.11 | X-H torsion
[ 7974 7965 7964 7962 ] final  163.27 input  175.53 | X-H torsion
[ 8008 7997 7996 7995 ] final -175.18 input   59.86 | X-H torsion
[ 10167 10162 10161 10158 ] final  -64.95 input  -65.29 | X-H torsion
[ 10718 10713 10712 10709 ] final   37.20 input   66.30 | X-H torsion
[ 10763 10752 10751 10750 ] final  121.23 input  -60.55 | X-H torsion
[ 11005 11000 10999 10996 ] final  -28.74 input  -57.11 | X-H torsion

> <Gold.Protein.ActiveResidues>
 VAL166  LYS551  ARG553  GLY616  TRP617  ASP618  TYR619  PRO620  LYS621  CYS622 
 ASP623  PHE694  ASN695  SER759  ASP760  ASP761  ALA762  ILE779  LEU786  VAL792 
 PHE793  MET794  SER795  GLU796  ALA797  LYS798  CYS799  TRP800  GLU811  SER814 

> <Gold.Protein.RotatedAtoms>
  152.4930  134.4401  159.9540 H   0  0  0  0  0  0  0  0  0  0  0  0  # atno 6907 bound_to 6896
  151.4385  133.3644  159.2786 H   0  0  0  0  0  0  0  0  0  0  0  0  # atno 6908 bound_to 6896
  150.9104  134.8544  159.7481 H   0  0  0  0  0  0  0  0  0  0  0  0  # atno 6909 bound_to 6896
  144.7597  139.8159  143.6337 H   0  0  0  0  0  0  0  0  0  0  0  0  # atno 7974 bound_to 7965
  155.9794  140.1178  157.0740 H   0  0  0  0  0  0  0  0  0  0  0  0  # atno 8008 bound_to 7997
  154.4178  140.1147  156.5482 H   0  0  0  0  0  0  0  0  0  0  0  0  # atno 8009 bound_to 7997
  155.6491  140.3473  155.4744 H   0  0  0  0  0  0  0  0  0  0  0  0  # atno 8010 bound_to 7997
  140.5764  143.2322  151.6432 H   0  0  0  0  0  0  0  0  0  0  0  0  # atno 10167 bound_to 10162
  157.3440  130.7563  149.6932 H   0  0  0  0  0  0  0  0  0  0  0  0  # atno 10718 bound_to 10713
  153.6108  135.3431  155.2978 H   0  0  0  0  0  0  0  0  0  0  0  0  # atno 10763 bound_to 10752
  154.8619  135.4249  154.2312 H   0  0  0  0  0  0  0  0  0  0  0  0  # atno 10764 bound_to 10752
  153.3162  135.7035  153.7143 H   0  0  0  0  0  0  0  0  0  0  0  0  # atno 10765 bound_to 10752
  140.9235  133.7383  156.0835 H   0  0  0  0  0  0  0  0  0  0  0  0  # atno 11005 bound_to 11000
  146.1647  139.4775  142.9965 LP  0  0  0  0  0  0  0  0  0  0  0  0  # atno 17320 bound_to 7965
  145.6659  141.0229  143.1684 LP  0  0  0  0  0  0  0  0  0  0  0  0  # atno 17321 bound_to 7965
  139.5145  144.3408  152.0742 LP  0  0  0  0  0  0  0  0  0  0  0  0  # atno 17342 bound_to 10162
  140.2552  144.4126  150.6206 LP  0  0  0  0  0  0  0  0  0  0  0  0  # atno 17343 bound_to 10162
  155.9712  130.4159  150.4206 LP  0  0  0  0  0  0  0  0  0  0  0  0  # atno 17370 bound_to 10713
  157.2258  131.0493  151.2520 LP  0  0  0  0  0  0  0  0  0  0  0  0  # atno 17371 bound_to 10713
  140.7956  134.3567  157.5453 LP  0  0  0  0  0  0  0  0  0  0  0  0  # atno 17394 bound_to 11000
  139.8780  134.9167  156.3161 LP  0  0  0  0  0  0  0  0  0  0  0  0  # atno 17395 bound_to 11000

$$$$
