AV-unprocessed.smi:3228|AV-procd|sdf|12323|dock1
  -GOLD-   2272018173D 1   1.00000     0.00000
 Structure written by MMmdl.
 30 31  0  0  0  0  0  0  0  0  2 V2000
  152.4992  140.1974  157.5834 O   0  0  0  0  0  0  0  0  0  0  0  0
  151.7475  141.1694  157.4790 C   0  0  0  0  0  0  0  0  0  0  0  0
  150.7915  141.1748  156.5407 N   0  0  0  0  0  0  0  0  0  0  0  0
  150.5389  140.0976  155.5913 C   0  0  0  0  0  0  0  0  0  0  0  0
  149.5089  140.5264  154.5313 C   0  0  2  0  0  0  0  0  0  0  0  0
  148.5506  141.6331  155.0022 C   0  0  0  0  0  0  0  0  0  0  0  0
  147.2329  141.4239  154.2389 C   0  0  0  0  0  0  0  0  0  0  0  0
  147.4052  140.1367  153.4242 C   0  0  0  0  0  0  0  0  0  0  0  0
  148.5686  139.4006  154.0895 C   0  0  1  0  0  0  0  0  0  0  0  0
  149.1892  138.5014  153.1938 O   0  0  0  0  0  0  0  0  0  0  0  0
  151.7723  142.2887  158.2380 N   0  5  0  0  0  0  0  0  0  0  0  0
  152.2897  142.2494  159.4767 C   0  0  0  0  0  0  0  0  0  0  0  0
  153.1018  141.2726  159.8975 N   0  0  0  0  0  0  0  0  0  0  0  0
  153.5283  141.4350  161.2169 C   0  0  0  0  0  0  0  0  0  0  0  0
  153.0371  142.5669  161.8116 C   0  0  0  0  0  0  0  0  0  0  0  0
  152.0177  143.4680  160.7258 S   0  0  0  0  0  0  0  0  0  0  0  0
  150.1958  141.9876  156.4849 H   0  0  0  0  0  0  0  0  0  0  0  0
  151.4777  139.8221  155.1087 H   0  0  0  0  0  0  0  0  0  0  0  0
  150.1836  139.2156  156.1270 H   0  0  0  0  0  0  0  0  0  0  0  0
  150.0387  140.8959  153.6508 H   0  0  0  0  0  0  0  0  0  0  0  0
  148.3638  141.5423  156.0733 H   0  0  0  0  0  0  0  0  0  0  0  0
  148.9689  142.6259  154.8313 H   0  0  0  0  0  0  0  0  0  0  0  0
  146.4075  141.3213  154.9442 H   0  0  0  0  0  0  0  0  0  0  0  0
  147.0035  142.2699  153.5902 H   0  0  0  0  0  0  0  0  0  0  0  0
  146.4954  139.5364  153.3894 H   0  0  0  0  0  0  0  0  0  0  0  0
  147.6671  140.3984  152.3977 H   0  0  0  0  0  0  0  0  0  0  0  0
  148.2046  138.8516  154.9597 H   0  0  0  0  0  0  0  0  0  0  0  0
  149.5661  138.9982  152.4838 H   0  0  0  0  0  0  0  0  0  0  0  0
  154.1830  140.6953  161.6530 H   0  0  0  0  0  0  0  0  0  0  0  0
  153.2122  142.9249  162.8147 H   0  0  0  0  0  0  0  0  0  0  0  0
  1  2  2  0  0  0  0
  2  3  1  0  0  0  0
  2 11  1  0  0  0  0
  3  4  1  0  0  0  0
  3 17  1  0  0  0  0
  4  5  1  0  0  0  0
  4 18  1  0  0  0  0
  4 19  1  0  0  0  0
  5  9  1  0  0  0  0
  5  6  1  0  0  0  0
  5 20  1  0  0  0  0
  6  7  1  0  0  0  0
  6 21  1  0  0  0  0
  6 22  1  0  0  0  0
  7  8  1  0  0  0  0
  7 23  1  0  0  0  0
  7 24  1  0  0  0  0
  8  9  1  0  0  0  0
  8 25  1  0  0  0  0
  8 26  1  0  0  0  0
  9 10  1  0  0  0  0
  9 27  1  0  0  0  0
 10 28  1  0  0  0  0
 11 12  1  0  0  0  0
 12 16  1  0  0  0  0
 12 13  2  0  0  0  0
 13 14  1  0  0  0  0
 14 15  2  0  0  0  0
 14 29  1  0  0  0  0
 15 16  1  0  0  0  0
 15 30  1  0  0  0  0
M  CHG  1  11  -1
M  END
> <s_m_source_file>
AV-unprocessed.smi

> <i_m_source_file_index>
3228

> <i_lp_mmshare_version>
43012

> <i_f3d_flags>
0

> <s_epik_input>
czFbY0hdW2NIXW5jMVtOSF1DKD1PKVtOSF1bQ0gyXVtDQEBIXTJbQ0gyXVtDSDJdW0NIMl1bQ0BIXTJbT0hd

> <s_epik_cmdline>
J2VwaWtfcHl0aG9uJywgJy1waCcsICc3LjAnLCAnLXRuJywgJzgnLCAnLW1hJywgJzIwMCcsICctbWV0YWxfYmluZGluZycsICctaW1hZScsICc8aW5maWxlLm1hZT4nLCAnLW9tYWUnLCAnPG91dGZpbGUubWFlPic=

> <r_lp_tautomer_probability>
0.999

> <r_epik_Ionization_Penalty>
8.49756

> <r_epik_Ionization_Penalty_Charging>
6.79645

> <r_epik_Ionization_Penalty_Neutral>
1.70111

> <r_epik_State_Penalty>
6.79662

> <r_epik_Charging_Adjusted_Penalty>
13.5931

> <i_epik_Tot_Q>
-1

> <i_epik_Tot_abs_Q>
1

> <r_epik_Metal_State_Penalty>
2.71629

> <b_epik_Metal_Only>
1

> <s_lp_Force_Field>
OPLS_2005

> <r_lp_Energy>
18.1026

> <b_lp_Chiralities_Consistent>
1

> <s_lp_Variant>
AV-unprocessed.smi:3228-5

> <Gold.Version>
5.8.1

> <Gold.Id.Protein>
6NUR|6NUR_protein|mol2

> <Gold.PLP.Fitness>
38.9797

> <Gold.PLP.PLP>
-34.3874

> <Gold.PLP.part.hbond>
-3.0000

> <Gold.PLP.part.metal>
0.0000

> <Gold.PLP.part.buried>
-2.4545

> <Gold.PLP.part.nonpolar>
-27.9015

> <Gold.PLP.part.repulsive>
0.1048

> <Gold.PLP.ligand.clash>
0.0000

> <Gold.PLP.ligand.torsion>
0.7081

> <Gold.PLP.Chemscore.Hbond>
2.0000

> <Gold.PLP.Chemscore.CHOScore>
0.0000

> <Gold.PLP.Chemscore.Metal>
0.0000

> <Gold.Chemscore.Hbonds>
donor molecule, donor type, donor heavy atom, donor atom, acceptor molecule, acceptor atom, score
      L1  H    10    28       P1  7957  1.00
      P1  H  7997  8010       L1     1  0.84

> <Gold.PLP.Chemscore.Internal.Correction>
0.0085

> <Gold.Rescore>
     Score         DG    S(hbond)    S(metal)    S(lipo)     H(rot)  DE(clash)    DE(int)     intcor
     13.20     -15.55       1.94        0.00      71.04       1.85       0.06       2.29       ----

> <Gold.Chemscore.Fitness>
13.1953

> <Gold.Chemscore.DG>
-15.5481

> <Gold.Chemscore.ZeroCoef>
-5.4800

> <Gold.Chemscore.Hbond>
1.9422

> <Gold.Chemscore.Metal>
0.0000

> <Gold.Chemscore.Lipo>
71.0450

> <Gold.Chemscore.Internal_Hbond>
0.0000

> <Gold.Chemscore.DEClash>
0.0578

> <Gold.Chemscore.DEInternal>
2.2950

> <Gold.Chemscore.Rot>
1.8481

> <Gold.Chemscore.Internal.Correction>
   9.000000E+99

> <Gold.Chemscore.Hbonds>
donor molecule, donor type, donor heavy atom, donor atom, acceptor molecule, acceptor atom, score
      L1  H    10    28       P1  7957  0.87
      P1  H  7997  8010       L1     1  0.78

> <Gold.Chemscore.Hbond.Weighted>
-6.4871

> <Gold.Chemscore.Metal.Weighted>
-0.0000

> <Gold.Chemscore.Lipo.Weighted>
-8.3123

> <Gold.Chemscore.Internal_Hbond.Weighted>
0.0000

> <Gold.Chemscore.DEClash.Weighted>
0.0578

> <Gold.Chemscore.DEInternal.Weighted>
2.2950

> <Gold.Chemscore.Rot.Weighted>
4.7313

> <Gold.Chemscore.Internal.Correction.Weighted>
   9.000000E+99

> <Gold.Protein.RotatedTorsions>
[ 6907 6896 6895 6894 ] final  -31.01 input  -60.11 | X-H torsion
[ 7974 7965 7964 7962 ] final  -75.29 input  175.53 | X-H torsion
[ 8008 7997 7996 7995 ] final   56.99 input   59.86 | X-H torsion
[ 10167 10162 10161 10158 ] final   21.31 input  -65.29 | X-H torsion
[ 10718 10713 10712 10709 ] final  -66.93 input   66.30 | X-H torsion
[ 10763 10752 10751 10750 ] final    9.78 input  -60.55 | X-H torsion
[ 11005 11000 10999 10996 ] final -171.05 input  -57.11 | X-H torsion

> <Gold.Protein.ActiveResidues>
 VAL166  LYS551  ARG553  GLY616  TRP617  ASP618  TYR619  PRO620  LYS621  CYS622 
 ASP623  PHE694  ASN695  SER759  ASP760  ASP761  ALA762  ILE779  LEU786  VAL792 
 PHE793  MET794  SER795  GLU796  ALA797  LYS798  CYS799  TRP800  GLU811  SER814 

> <Gold.Protein.RotatedAtoms>
  151.0979  134.9955  159.8434 H   0  0  0  0  0  0  0  0  0  0  0  0  # atno 6907 bound_to 6896
  152.5434  134.1986  159.8713 H   0  0  0  0  0  0  0  0  0  0  0  0  # atno 6908 bound_to 6896
  151.2027  133.4557  159.2630 H   0  0  0  0  0  0  0  0  0  0  0  0  # atno 6909 bound_to 6896
  145.6279  140.9345  143.1102 H   0  0  0  0  0  0  0  0  0  0  0  0  # atno 7974 bound_to 7965
  155.5265  140.3481  155.4417 H   0  0  0  0  0  0  0  0  0  0  0  0  # atno 8008 bound_to 7997
  156.0748  140.1372  156.9812 H   0  0  0  0  0  0  0  0  0  0  0  0  # atno 8009 bound_to 7997
  154.4547  140.0958  156.6698 H   0  0  0  0  0  0  0  0  0  0  0  0  # atno 8010 bound_to 7997
  140.5437  143.9633  150.6534 H   0  0  0  0  0  0  0  0  0  0  0  0  # atno 10167 bound_to 10162
  156.0585  130.4270  150.1780 H   0  0  0  0  0  0  0  0  0  0  0  0  # atno 10718 bound_to 10713
  153.2103  135.6868  153.8122 H   0  0  0  0  0  0  0  0  0  0  0  0  # atno 10763 bound_to 10752
  153.7357  135.3246  155.3295 H   0  0  0  0  0  0  0  0  0  0  0  0  # atno 10764 bound_to 10752
  154.8218  135.4646  154.0907 H   0  0  0  0  0  0  0  0  0  0  0  0  # atno 10765 bound_to 10752
  140.5126  134.5787  157.5023 H   0  0  0  0  0  0  0  0  0  0  0  0  # atno 11005 bound_to 11000
  144.7205  139.8047  143.7383 LP  0  0  0  0  0  0  0  0  0  0  0  0  # atno 17320 bound_to 7965
  146.1379  139.4429  143.0127 LP  0  0  0  0  0  0  0  0  0  0  0  0  # atno 17321 bound_to 7965
  140.3040  143.3242  152.0944 LP  0  0  0  0  0  0  0  0  0  0  0  0  # atno 17342 bound_to 10162
  139.4999  144.6679  151.6313 LP  0  0  0  0  0  0  0  0  0  0  0  0  # atno 17343 bound_to 10162
  156.9852  130.9876  151.3428 LP  0  0  0  0  0  0  0  0  0  0  0  0  # atno 17370 bound_to 10713
  157.5575  130.8224  149.8223 LP  0  0  0  0  0  0  0  0  0  0  0  0  # atno 17371 bound_to 10713
  139.9650  134.7387  156.0156 LP  0  0  0  0  0  0  0  0  0  0  0  0  # atno 17394 bound_to 11000
  141.1377  133.6571  156.3642 LP  0  0  0  0  0  0  0  0  0  0  0  0  # atno 17395 bound_to 11000

$$$$
