AV-unprocessed.smi:2780|AV-procd|sdf|10716|dock6
  -GOLD-   2272015153D 1   1.00000     0.00000
 Structure written by MMmdl.
 47 49  0  0  0  0  0  0  0  0  2 V2000
  145.7751  142.7257  154.2429 C   0  0  0  0  0  0  0  0  0  0  0  0
  146.2678  141.9756  155.4689 C   0  0  0  0  0  0  0  0  0  0  0  0
  145.8083  142.2718  156.7005 C   0  0  0  0  0  0  0  0  0  0  0  0
  146.2133  141.5472  157.9707 C   0  0  0  0  0  0  0  0  0  0  0  0
  147.3798  140.5699  157.7559 C   0  0  0  0  0  0  0  0  0  0  0  0
  147.2646  139.8416  156.4046 C   0  0  2  0  0  0  0  0  0  0  0  0
  148.2742  138.6864  156.2935 C   0  0  0  0  0  0  0  0  0  0  0  0
  147.2731  140.8489  155.2139 C   0  0  2  0  0  0  0  0  0  0  0  0
  148.6651  141.4450  154.8815 C   0  0  0  0  0  0  0  0  0  0  0  0
  149.2240  142.2274  156.0022 N   0  3  0  0  0  0  0  0  0  0  0  0
  150.6963  142.1959  156.0846 C   0  0  0  0  0  0  0  0  0  0  0  0
  151.1580  141.7964  157.4924 C   0  0  0  0  0  0  0  0  0  0  0  0
  151.5171  142.9565  158.2871 N   0  0  0  0  0  0  0  0  0  0  0  0
  151.2161  144.2453  158.0650 C   0  0  0  0  0  0  0  0  0  0  0  0
  151.6668  145.0960  158.9856 N   0  0  0  0  0  0  0  0  0  0  0  0
  152.3266  144.3003  159.9008 N   0  0  0  0  0  0  0  0  0  0  0  0
  152.2222  143.0507  159.4336 C   0  0  0  0  0  0  0  0  0  0  0  0
  152.7767  141.8541  160.1402 C   0  0  0  0  0  0  0  0  0  0  0  0
  153.3768  141.9734  161.5238 C   0  0  0  0  0  0  0  0  0  0  0  0
  154.2664  141.6827  160.3438 C   0  0  0  0  0  0  0  0  0  0  0  0
  145.3286  142.0324  153.5297 H   0  0  0  0  0  0  0  0  0  0  0  0
  146.5880  143.2532  153.7455 H   0  0  0  0  0  0  0  0  0  0  0  0
  145.0175  143.4639  154.5085 H   0  0  0  0  0  0  0  0  0  0  0  0
  145.0791  143.0596  156.8237 H   0  0  0  0  0  0  0  0  0  0  0  0
  146.4707  142.2763  158.7395 H   0  0  0  0  0  0  0  0  0  0  0  0
  145.3387  141.0047  158.3309 H   0  0  0  0  0  0  0  0  0  0  0  0
  148.3248  141.1108  157.8075 H   0  0  0  0  0  0  0  0  0  0  0  0
  147.4009  139.8519  158.5766 H   0  0  0  0  0  0  0  0  0  0  0  0
  146.2817  139.3668  156.3944 H   0  0  0  0  0  0  0  0  0  0  0  0
  149.3004  139.0308  156.4225 H   0  0  0  0  0  0  0  0  0  0  0  0
  148.1976  138.1845  155.3287 H   0  0  0  0  0  0  0  0  0  0  0  0
  148.0890  137.9372  157.0638 H   0  0  0  0  0  0  0  0  0  0  0  0
  146.9146  140.3143  154.3326 H   0  0  0  0  0  0  0  0  0  0  0  0
  149.3823  140.6548  154.6625 H   0  0  0  0  0  0  0  0  0  0  0  0
  148.6134  142.0645  153.9862 H   0  0  0  0  0  0  0  0  0  0  0  0
  148.9332  143.1884  155.8913 H   0  0  0  0  0  0  0  0  0  0  0  0
  151.0856  141.4925  155.3474 H   0  0  0  0  0  0  0  0  0  0  0  0
  151.0858  143.1815  155.8275 H   0  0  0  0  0  0  0  0  0  0  0  0
  150.3765  141.2421  158.0120 H   0  0  0  0  0  0  0  0  0  0  0  0
  152.0236  141.1351  157.4336 H   0  0  0  0  0  0  0  0  0  0  0  0
  150.6431  144.5712  157.2092 H   0  0  0  0  0  0  0  0  0  0  0  0
  152.1834  140.9685  159.9216 H   0  0  0  0  0  0  0  0  0  0  0  0
  153.4419  142.9654  161.9671 H   0  0  0  0  0  0  0  0  0  0  0  0
  153.1887  141.1618  162.2236 H   0  0  0  0  0  0  0  0  0  0  0  0
  154.6719  140.6772  160.2535 H   0  0  0  0  0  0  0  0  0  0  0  0
  154.9227  142.4830  160.0069 H   0  0  0  0  0  0  0  0  0  0  0  0
  148.8406  141.8720  156.8664 H   0  0  0  0  0  0  0  0  0  0  0  0
  1  2  1  0  0  0  0
  1 21  1  0  0  0  0
  1 22  1  0  0  0  0
  1 23  1  0  0  0  0
  2  8  1  0  0  0  0
  2  3  2  0  0  0  0
  3  4  1  0  0  0  0
  3 24  1  0  0  0  0
  4  5  1  0  0  0  0
  4 25  1  0  0  0  0
  4 26  1  0  0  0  0
  5  6  1  0  0  0  0
  5 27  1  0  0  0  0
  5 28  1  0  0  0  0
  6  7  1  0  0  0  0
  6  8  1  0  0  0  0
  6 29  1  0  0  0  0
  7 30  1  0  0  0  0
  7 31  1  0  0  0  0
  7 32  1  0  0  0  0
  8  9  1  0  0  0  0
  8 33  1  0  0  0  0
  9 10  1  0  0  0  0
  9 34  1  0  0  0  0
  9 35  1  0  0  0  0
 10 11  1  0  0  0  0
 10 36  1  0  0  0  0
 10 47  1  0  0  0  0
 11 12  1  0  0  0  0
 11 37  1  0  0  0  0
 11 38  1  0  0  0  0
 12 13  1  0  0  0  0
 12 39  1  0  0  0  0
 12 40  1  0  0  0  0
 13 17  1  0  0  0  0
 13 14  1  0  0  0  0
 14 15  2  0  0  0  0
 14 41  1  0  0  0  0
 15 16  1  0  0  0  0
 16 17  2  0  0  0  0
 17 18  1  0  0  0  0
 18 20  1  0  0  0  0
 18 19  1  0  0  0  0
 18 42  1  0  0  0  0
 19 20  1  0  0  0  0
 19 43  1  0  0  0  0
 19 44  1  0  0  0  0
 20 45  1  0  0  0  0
 20 46  1  0  0  0  0
M  CHG  1  10   1
M  END
> <s_m_source_file>
AV-unprocessed.smi

> <i_m_source_file_index>
2780

> <i_lp_mmshare_version>
43012

> <i_f3d_flags>
0

> <s_epik_input>
W0NIM11DMT1bQ0hdW0NIMl1bQ0gyXVtDQEBIXShbQ0gzXSlbQ0BIXTFbQ0gyXVtOSF1bQ0gyXVtDSDJdbjJbY0hdbm5jMltDSF0zW0NIMl1bQ0gyXTM=

> <s_epik_cmdline>
J2VwaWtfcHl0aG9uJywgJy1waCcsICc3LjAnLCAnLXRuJywgJzgnLCAnLW1hJywgJzIwMCcsICctbWV0YWxfYmluZGluZycsICctaW1hZScsICc8aW5maWxlLm1hZT4nLCAnLW9tYWUnLCAnPG91dGZpbGUubWFlPic=

> <r_lp_tautomer_probability>
1

> <r_epik_Ionization_Penalty>
0.00176214

> <r_epik_Ionization_Penalty_Charging>
0.00175191

> <r_epik_Ionization_Penalty_Neutral>
1.02377e-05

> <r_epik_State_Penalty>
-0

> <r_epik_Charging_Adjusted_Penalty>
0.00175191

> <i_epik_Tot_Q>
1

> <i_epik_Tot_abs_Q>
1

> <r_epik_Metal_State_Penalty>
-0

> <b_epik_Metal_Only>
0

> <s_lp_Force_Field>
OPLS_2005

> <r_lp_Energy>
23.8201

> <b_lp_Chiralities_Consistent>
1

> <s_lp_Variant>
AV-unprocessed.smi:2780-4

> <Gold.Version>
5.8.1

> <Gold.Id.Protein>
6NUR|6NUR_protein|mol2

> <Gold.PLP.Fitness>
49.2240

> <Gold.PLP.PLP>
-42.2252

> <Gold.PLP.part.hbond>
-0.9682

> <Gold.PLP.part.metal>
0.0000

> <Gold.PLP.part.buried>
-7.1779

> <Gold.PLP.part.nonpolar>
-34.8821

> <Gold.PLP.part.repulsive>
0.2077

> <Gold.PLP.ligand.clash>
0.0000

> <Gold.PLP.ligand.torsion>
1.1153

> <Gold.PLP.Chemscore.Hbond>
2.0000

> <Gold.PLP.Chemscore.CHOScore>
1.0000

> <Gold.PLP.Chemscore.Metal>
0.0000

> <Gold.Chemscore.Hbonds>
donor molecule, donor type, donor heavy atom, donor atom, acceptor molecule, acceptor atom, score
      L1  H    10    36       P1  8028  2.00
      L1  C    14    41       P1  8028  1.00

> <Gold.PLP.Chemscore.Internal.Correction>
0.2293

> <Gold.Rescore>
     Score         DG    S(hbond)    S(metal)    S(lipo)     H(rot)  DE(clash)    DE(int)     intcor
     11.48     -12.77       0.97        0.00      77.81       1.98       0.07       1.21       ----

> <Gold.Chemscore.Fitness>
11.4837

> <Gold.Chemscore.DG>
-12.7707

> <Gold.Chemscore.ZeroCoef>
-5.4800

> <Gold.Chemscore.Hbond>
0.9745

> <Gold.Chemscore.Metal>
0.0000

> <Gold.Chemscore.Lipo>
77.8140

> <Gold.Chemscore.Internal_Hbond>
0.0000

> <Gold.Chemscore.DEClash>
0.0726

> <Gold.Chemscore.DEInternal>
1.2144

> <Gold.Chemscore.Rot>
1.9799

> <Gold.Chemscore.Internal.Correction>
   9.000000E+99

> <Gold.Chemscore.Hbonds>
donor molecule, donor type, donor heavy atom, donor atom, acceptor molecule, acceptor atom, score
      L1  H    10    36       P1  8028  0.95

> <Gold.Chemscore.Hbond.Weighted>
-3.2550

> <Gold.Chemscore.Metal.Weighted>
-0.0000

> <Gold.Chemscore.Lipo.Weighted>
-9.1042

> <Gold.Chemscore.Internal_Hbond.Weighted>
0.0000

> <Gold.Chemscore.DEClash.Weighted>
0.0726

> <Gold.Chemscore.DEInternal.Weighted>
1.2144

> <Gold.Chemscore.Rot.Weighted>
5.0685

> <Gold.Chemscore.Internal.Correction.Weighted>
   9.000000E+99

> <Gold.Protein.RotatedTorsions>
[ 6907 6896 6895 6894 ] final  -88.83 input  -60.11 | X-H torsion
[ 7974 7965 7964 7962 ] final  -72.93 input  175.53 | X-H torsion
[ 8008 7997 7996 7995 ] final  -49.97 input   59.86 | X-H torsion
[ 10167 10162 10161 10158 ] final -149.29 input  -65.29 | X-H torsion
[ 10718 10713 10712 10709 ] final  -92.94 input   66.30 | X-H torsion
[ 10763 10752 10751 10750 ] final    6.02 input  -60.55 | X-H torsion
[ 11005 11000 10999 10996 ] final   97.58 input  -57.11 | X-H torsion

> <Gold.Protein.ActiveResidues>
 VAL166  LYS551  ARG553  GLY616  TRP617  ASP618  TYR619  PRO620  LYS621  CYS622 
 ASP623  PHE694  ASN695  SER759  ASP760  ASP761  ALA762  ILE779  LEU786  VAL792 
 PHE793  MET794  SER795  GLU796  ALA797  LYS798  CYS799  TRP800  GLU811  SER814 

> <Gold.Protein.RotatedAtoms>
  150.6870  134.2681  159.4576 H   0  0  0  0  0  0  0  0  0  0  0  0  # atno 6907 bound_to 6896
  152.0606  134.9594  160.0584 H   0  0  0  0  0  0  0  0  0  0  0  0  # atno 6908 bound_to 6896
  152.1023  133.4221  159.4629 H   0  0  0  0  0  0  0  0  0  0  0  0  # atno 6909 bound_to 6896
  145.6588  140.9259  143.0945 H   0  0  0  0  0  0  0  0  0  0  0  0  # atno 7974 bound_to 7965
  154.4053  140.1283  156.4590 H   0  0  0  0  0  0  0  0  0  0  0  0  # atno 8008 bound_to 7997
  155.7292  140.3491  155.5032 H   0  0  0  0  0  0  0  0  0  0  0  0  # atno 8009 bound_to 7997
  155.9143  140.1041  157.1246 H   0  0  0  0  0  0  0  0  0  0  0  0  # atno 8010 bound_to 7997
  139.7456  143.8596  152.2574 H   0  0  0  0  0  0  0  0  0  0  0  0  # atno 10167 bound_to 10162
  156.0007  130.5007  150.5701 H   0  0  0  0  0  0  0  0  0  0  0  0  # atno 10718 bound_to 10713
  153.2525  135.6915  153.7664 H   0  0  0  0  0  0  0  0  0  0  0  0  # atno 10763 bound_to 10752
  153.6753  135.3337  155.3165 H   0  0  0  0  0  0  0  0  0  0  0  0  # atno 10764 bound_to 10752
  154.8400  135.4509  154.1487 H   0  0  0  0  0  0  0  0  0  0  0  0  # atno 10765 bound_to 10752
  139.8775  134.9008  156.4329 H   0  0  0  0  0  0  0  0  0  0  0  0  # atno 11005 bound_to 11000
  144.7096  139.8422  143.7419 LP  0  0  0  0  0  0  0  0  0  0  0  0  # atno 17320 bound_to 7965
  146.1142  139.4151  143.0268 LP  0  0  0  0  0  0  0  0  0  0  0  0  # atno 17321 bound_to 7965
  139.8559  144.7141  150.9158 LP  0  0  0  0  0  0  0  0  0  0  0  0  # atno 17342 bound_to 10162
  140.7791  143.3859  151.1395 LP  0  0  0  0  0  0  0  0  0  0  0  0  # atno 17343 bound_to 10162
  157.3597  131.0747  151.1647 LP  0  0  0  0  0  0  0  0  0  0  0  0  # atno 17370 bound_to 10713
  157.2435  130.6581  149.5900 LP  0  0  0  0  0  0  0  0  0  0  0  0  # atno 17371 bound_to 10713
  140.9054  133.7749  155.9729 LP  0  0  0  0  0  0  0  0  0  0  0  0  # atno 17394 bound_to 11000
  140.8605  134.2846  157.5236 LP  0  0  0  0  0  0  0  0  0  0  0  0  # atno 17395 bound_to 11000

$$$$
