AV-unprocessed.smi:1183|AV-procd|sdf|4968|dock8
  -GOLD-   22720 3563D 1   1.00000     0.00000
 Structure written by MMmdl.
 42 43  0  0  0  0  0  0  0  0  1 V2000
  151.8509  144.9189  160.7616 C   0  0  0  0  0  0  0  0  0  0  0  0
  152.1102  143.4116  160.8187 C   0  0  0  0  0  0  0  0  0  0  0  0
  151.9728  142.8415  161.9011 O   0  0  0  0  0  0  0  0  0  0  0  0
  152.4856  142.7608  159.6914 N   0  0  0  0  0  0  0  0  0  0  0  0
  152.7094  141.3146  159.5795 C   0  0  0  0  0  0  0  0  0  0  0  0
  151.5585  140.6973  158.7661 C   0  0  0  0  0  0  0  0  0  0  0  0
  151.4202  141.3734  157.3820 C   0  0  0  0  0  0  0  0  0  0  0  0
  150.2023  140.9272  156.7127 N   0  0  0  0  0  0  0  0  0  0  0  0
  150.1479  140.3421  155.5065 C   0  0  0  0  0  0  0  0  0  0  0  0
  151.1466  140.1228  154.8189 O   0  0  0  0  0  0  0  0  0  0  0  0
  148.7452  139.9534  155.0225 C   0  0  0  0  0  0  0  0  0  0  0  0
  147.7991  141.0596  155.0670 N   0  0  0  0  0  0  0  0  0  0  0  0
  147.4733  141.6938  153.9194 N   0  0  0  0  0  0  0  0  0  0  0  0
  146.6149  142.6325  154.2822 C   0  0  0  0  0  0  0  0  0  0  0  0
  146.0373  143.5458  153.2414 C   0  0  0  0  0  0  0  0  0  0  0  0
  146.3640  142.6214  155.6828 C   0  0  0  0  0  0  0  0  0  0  0  0
  147.1405  141.6019  156.1564 C   0  0  0  0  0  0  0  0  0  0  0  0
  147.3195  141.0929  157.5489 C   0  0  0  0  0  0  0  0  0  0  0  0
  151.4076  142.9130  157.5027 C   0  0  0  0  0  0  0  0  0  0  0  0
  152.5648  143.4196  158.3829 C   0  0  0  0  0  0  0  0  0  0  0  0
  152.7359  145.4516  160.4121 H   0  0  0  0  0  0  0  0  0  0  0  0
  151.6016  145.3032  161.7514 H   0  0  0  0  0  0  0  0  0  0  0  0
  151.0159  145.1429  160.0974 H   0  0  0  0  0  0  0  0  0  0  0  0
  153.6587  141.1371  159.0721 H   0  0  0  0  0  0  0  0  0  0  0  0
  152.7976  140.8106  160.5407 H   0  0  0  0  0  0  0  0  0  0  0  0
  151.7240  139.6259  158.6474 H   0  0  0  0  0  0  0  0  0  0  0  0
  150.6279  140.8055  159.3257 H   0  0  0  0  0  0  0  0  0  0  0  0
  152.2848  141.0972  156.7749 H   0  0  0  0  0  0  0  0  0  0  0  0
  149.3341  141.0707  157.2079 H   0  0  0  0  0  0  0  0  0  0  0  0
  148.8075  139.5775  153.9999 H   0  0  0  0  0  0  0  0  0  0  0  0
  148.3616  139.1379  155.6361 H   0  0  0  0  0  0  0  0  0  0  0  0
  145.3523  144.2672  153.6871 H   0  0  0  0  0  0  0  0  0  0  0  0
  145.4835  142.9835  152.4891 H   0  0  0  0  0  0  0  0  0  0  0  0
  146.8217  144.1052  152.7310 H   0  0  0  0  0  0  0  0  0  0  0  0
  145.7134  143.2665  156.2542 H   0  0  0  0  0  0  0  0  0  0  0  0
  146.7313  141.6780  158.2559 H   0  0  0  0  0  0  0  0  0  0  0  0
  148.3647  141.1521  157.8533 H   0  0  0  0  0  0  0  0  0  0  0  0
  147.0008  140.0533  157.6271 H   0  0  0  0  0  0  0  0  0  0  0  0
  151.4672  143.3662  156.5125 H   0  0  0  0  0  0  0  0  0  0  0  0
  150.4623  143.2426  157.9370 H   0  0  0  0  0  0  0  0  0  0  0  0
  152.5285  144.5075  158.4545 H   0  0  0  0  0  0  0  0  0  0  0  0
  153.5226  143.1854  157.9161 H   0  0  0  0  0  0  0  0  0  0  0  0
  1  2  1  0  0  0  0
  1 21  1  0  0  0  0
  1 22  1  0  0  0  0
  1 23  1  0  0  0  0
  2  3  2  0  0  0  0
  2  4  1  0  0  0  0
  4 20  1  0  0  0  0
  4  5  1  0  0  0  0
  5  6  1  0  0  0  0
  5 24  1  0  0  0  0
  5 25  1  0  0  0  0
  6  7  1  0  0  0  0
  6 26  1  0  0  0  0
  6 27  1  0  0  0  0
  7  8  1  0  0  0  0
  7 19  1  0  0  0  0
  7 28  1  0  0  0  0
  8  9  1  0  0  0  0
  8 29  1  0  0  0  0
  9 10  2  0  0  0  0
  9 11  1  0  0  0  0
 11 12  1  0  0  0  0
 11 30  1  0  0  0  0
 11 31  1  0  0  0  0
 12 17  1  0  0  0  0
 12 13  1  0  0  0  0
 13 14  2  0  0  0  0
 14 15  1  0  0  0  0
 14 16  1  0  0  0  0
 15 32  1  0  0  0  0
 15 33  1  0  0  0  0
 15 34  1  0  0  0  0
 16 17  2  0  0  0  0
 16 35  1  0  0  0  0
 17 18  1  0  0  0  0
 18 36  1  0  0  0  0
 18 37  1  0  0  0  0
 18 38  1  0  0  0  0
 19 20  1  0  0  0  0
 19 39  1  0  0  0  0
 19 40  1  0  0  0  0
 20 41  1  0  0  0  0
 20 42  1  0  0  0  0
M  END
> <s_m_source_file>
AV-unprocessed.smi

> <i_m_source_file_index>
1183

> <i_lp_mmshare_version>
43012

> <i_f3d_flags>
0

> <s_epik_input>
W0NIM11DKD1PKU4xW0NIMl1bQ0gyXVtDSF0oW0NIMl1bQ0gyXTEpW05IXUMoPU8pW0NIMl1uMm5jKFtDSDNdKVtjSF1jMltDSDNd

> <s_epik_cmdline>
J2VwaWtfcHl0aG9uJywgJy1waCcsICc3LjAnLCAnLXRuJywgJzgnLCAnLW1hJywgJzIwMCcsICctbWV0YWxfYmluZGluZycsICctaW1hZScsICc8aW5maWxlLm1hZT4nLCAnLW9tYWUnLCAnPG91dGZpbGUubWFlPic=

> <r_lp_tautomer_probability>
1

> <r_epik_Ionization_Penalty>
0.000413777

> <r_epik_Ionization_Penalty_Charging>
0

> <r_epik_Ionization_Penalty_Neutral>
0.000413777

> <r_epik_State_Penalty>
-0

> <r_epik_Charging_Adjusted_Penalty>
0

> <i_epik_Tot_Q>
0

> <i_epik_Tot_abs_Q>
0

> <r_epik_Metal_State_Penalty>
-0

> <b_epik_Metal_Only>
0

> <s_lp_Force_Field>
OPLS_2005

> <r_lp_Energy>
21.0351

> <b_lp_Chiralities_Consistent>
1

> <s_lp_Variant>
AV-unprocessed.smi:1183-1

> <Gold.Version>
5.8.1

> <Gold.Id.Protein>
6NUR|6NUR_protein|mol2

> <Gold.PLP.Fitness>
43.9395

> <Gold.PLP.PLP>
-39.7472

> <Gold.PLP.part.hbond>
-1.8950

> <Gold.PLP.part.metal>
0.0000

> <Gold.PLP.part.buried>
-7.2474

> <Gold.PLP.part.nonpolar>
-32.7637

> <Gold.PLP.part.repulsive>
0.3944

> <Gold.PLP.ligand.clash>
0.0000

> <Gold.PLP.ligand.torsion>
0.3087

> <Gold.PLP.Chemscore.Hbond>
1.5970

> <Gold.PLP.Chemscore.CHOScore>
0.0000

> <Gold.PLP.Chemscore.Metal>
0.0000

> <Gold.Chemscore.Hbonds>
donor molecule, donor type, donor heavy atom, donor atom, acceptor molecule, acceptor atom, score
      P1  H  6933  6945       L1     3  0.41
      P1  H  7989  7998       L1    10  1.00

> <Gold.PLP.Chemscore.Internal.Correction>
0.0188

> <Gold.Rescore>
     Score         DG    S(hbond)    S(metal)    S(lipo)     H(rot)  DE(clash)    DE(int)     intcor
     15.23     -16.63       1.73        0.00      76.65       1.41       0.03       1.37       ----

> <Gold.Chemscore.Fitness>
15.2266

> <Gold.Chemscore.DG>
-16.6299

> <Gold.Chemscore.ZeroCoef>
-5.4800

> <Gold.Chemscore.Hbond>
1.7311

> <Gold.Chemscore.Metal>
0.0000

> <Gold.Chemscore.Lipo>
76.6535

> <Gold.Chemscore.Internal_Hbond>
0.0000

> <Gold.Chemscore.DEClash>
0.0344

> <Gold.Chemscore.DEInternal>
1.3690

> <Gold.Chemscore.Rot>
1.4064

> <Gold.Chemscore.Internal.Correction>
   9.000000E+99

> <Gold.Chemscore.Hbonds>
donor molecule, donor type, donor heavy atom, donor atom, acceptor molecule, acceptor atom, score
      P1  H  6933  6945       L1     3  0.38
      P1  H  7989  7998       L1    10  0.98

> <Gold.Chemscore.Hbond.Weighted>
-5.7817

> <Gold.Chemscore.Metal.Weighted>
-0.0000

> <Gold.Chemscore.Lipo.Weighted>
-8.9685

> <Gold.Chemscore.Internal_Hbond.Weighted>
0.0000

> <Gold.Chemscore.DEClash.Weighted>
0.0344

> <Gold.Chemscore.DEInternal.Weighted>
1.3690

> <Gold.Chemscore.Rot.Weighted>
3.6003

> <Gold.Chemscore.Internal.Correction.Weighted>
   9.000000E+99

> <Gold.Protein.RotatedTorsions>
[ 6907 6896 6895 6894 ] final   50.44 input  -60.11 | X-H torsion
[ 7974 7965 7964 7962 ] final  -36.25 input  175.53 | X-H torsion
[ 8008 7997 7996 7995 ] final  -12.79 input   59.86 | X-H torsion
[ 10167 10162 10161 10158 ] final   50.32 input  -65.29 | X-H torsion
[ 10718 10713 10712 10709 ] final  -56.79 input   66.30 | X-H torsion
[ 10763 10752 10751 10750 ] final   18.50 input  -60.55 | X-H torsion
[ 11005 11000 10999 10996 ] final  -70.89 input  -57.11 | X-H torsion

> <Gold.Protein.ActiveResidues>
 VAL166  LYS551  ARG553  GLY616  TRP617  ASP618  TYR619  PRO620  LYS621  CYS622 
 ASP623  PHE694  ASN695  SER759  ASP760  ASP761  ALA762  ILE779  LEU786  VAL792 
 PHE793  MET794  SER795  GLU796  ALA797  LYS798  CYS799  TRP800  GLU811  SER814 

> <Gold.Protein.RotatedAtoms>
  152.3018  134.7602  160.0355 H   0  0  0  0  0  0  0  0  0  0  0  0  # atno 6907 bound_to 6896
  151.8113  133.3377  159.3564 H   0  0  0  0  0  0  0  0  0  0  0  0  # atno 6908 bound_to 6896
  150.7277  134.5591  159.5877 H   0  0  0  0  0  0  0  0  0  0  0  0  # atno 6909 bound_to 6896
  146.0678  140.6256  142.8967 H   0  0  0  0  0  0  0  0  0  0  0  0  # atno 7974 bound_to 7965
  154.5347  140.2267  155.8743 H   0  0  0  0  0  0  0  0  0  0  0  0  # atno 8008 bound_to 7997
  156.1799  140.3102  155.9093 H   0  0  0  0  0  0  0  0  0  0  0  0  # atno 8009 bound_to 7997
  155.3379  140.0449  157.3035 H   0  0  0  0  0  0  0  0  0  0  0  0  # atno 8010 bound_to 7997
  140.2737  144.3236  150.6283 H   0  0  0  0  0  0  0  0  0  0  0  0  # atno 10167 bound_to 10162
  156.1261  130.4162  150.0352 H   0  0  0  0  0  0  0  0  0  0  0  0  # atno 10718 bound_to 10713
  153.1244  135.6726  153.9281 H   0  0  0  0  0  0  0  0  0  0  0  0  # atno 10763 bound_to 10752
  153.8787  135.3061  155.3446 H   0  0  0  0  0  0  0  0  0  0  0  0  # atno 10764 bound_to 10752
  154.7651  135.4968  153.9619 H   0  0  0  0  0  0  0  0  0  0  0  0  # atno 10765 bound_to 10752
  141.1582  133.6802  156.6822 H   0  0  0  0  0  0  0  0  0  0  0  0  # atno 11005 bound_to 11000
  144.7213  140.4381  143.7006 LP  0  0  0  0  0  0  0  0  0  0  0  0  # atno 17320 bound_to 7965
  145.6446  139.1555  143.2896 LP  0  0  0  0  0  0  0  0  0  0  0  0  # atno 17321 bound_to 7965
  140.5869  143.2169  151.7326 LP  0  0  0  0  0  0  0  0  0  0  0  0  # atno 17342 bound_to 10162
  139.4982  144.3998  152.0193 LP  0  0  0  0  0  0  0  0  0  0  0  0  # atno 17343 bound_to 10162
  156.8277  130.9381  151.3638 LP  0  0  0  0  0  0  0  0  0  0  0  0  # atno 17370 bound_to 10713
  157.6443  130.8831  149.9507 LP  0  0  0  0  0  0  0  0  0  0  0  0  # atno 17371 bound_to 10713
  140.3094  134.8099  157.4163 LP  0  0  0  0  0  0  0  0  0  0  0  0  # atno 17394 bound_to 11000
  140.1192  134.5242  155.8198 LP  0  0  0  0  0  0  0  0  0  0  0  0  # atno 17395 bound_to 11000

$$$$
