AV-unprocessed.smi:3316|AV-procd|sdf|12759|dock5
  -GOLD-   2272019 93D 1   1.00000     0.00000
 Structure written by MMmdl.
 41 43  0  0  0  0  0  0  0  0  2 V2000
  148.4656  139.3536  156.7110 C   0  0  0  0  0  0  0  0  0  0  0  0
  149.7729  140.1318  156.4941 C   0  0  2  0  0  0  0  0  0  0  0  0
  149.5250  141.4452  155.7274 C   0  0  0  0  0  0  0  0  0  0  0  0
  150.3343  142.5549  156.2708 N   0  3  0  0  0  0  0  0  0  0  0  0
  150.3670  142.6087  157.7449 C   0  0  0  0  0  0  0  0  0  0  0  0
  150.7471  144.0156  158.2432 C   0  0  1  0  0  0  0  0  0  0  0  0
  150.3709  144.2799  159.7334 C   0  0  0  0  0  0  0  0  0  0  0  0
  151.7014  144.7752  160.3456 C   0  0  1  0  0  0  0  0  0  0  0  0
  152.6604  143.6045  160.3669 C   0  0  0  0  0  0  0  0  0  0  0  0
  153.0000  143.3472  159.1028 C   0  0  0  0  0  0  0  0  0  0  0  0
  152.2656  144.3426  158.2264 C   0  0  2  0  0  0  0  0  0  0  0  0
  152.2674  145.5608  159.1579 C   0  0  0  0  0  0  0  0  0  0  0  0
  150.8289  139.2638  155.8201 C   0  0  0  0  0  0  0  0  0  0  0  0
  150.5871  138.6971  154.5507 C   0  0  0  0  0  0  0  0  0  0  0  0
  151.5885  137.8951  153.9674 C   0  0  0  0  0  0  0  0  0  0  0  0
  152.7715  137.6362  154.5637 N   0  0  0  0  0  0  0  0  0  0  0  0
  152.9999  138.1819  155.7771 C   0  0  0  0  0  0  0  0  0  0  0  0
  152.0659  138.9975  156.4467 C   0  0  0  0  0  0  0  0  0  0  0  0
  148.6397  138.4530  157.3008 H   0  0  0  0  0  0  0  0  0  0  0  0
  148.0143  139.0506  155.7658 H   0  0  0  0  0  0  0  0  0  0  0  0
  147.7334  139.9587  157.2459 H   0  0  0  0  0  0  0  0  0  0  0  0
  150.1482  140.3986  157.4835 H   0  0  0  0  0  0  0  0  0  0  0  0
  149.7512  141.3186  154.6678 H   0  0  0  0  0  0  0  0  0  0  0  0
  148.4707  141.7168  155.7958 H   0  0  0  0  0  0  0  0  0  0  0  0
  151.2813  142.4573  155.9333 H   0  0  0  0  0  0  0  0  0  0  0  0
  149.3793  142.3436  158.1243 H   0  0  0  0  0  0  0  0  0  0  0  0
  151.0615  141.8581  158.1242 H   0  0  0  0  0  0  0  0  0  0  0  0
  150.2267  144.7491  157.6244 H   0  0  0  0  0  0  0  0  0  0  0  0
  149.5969  145.0450  159.8053 H   0  0  0  0  0  0  0  0  0  0  0  0
  150.0027  143.3881  160.2430 H   0  0  0  0  0  0  0  0  0  0  0  0
  151.6290  145.3256  161.2840 H   0  0  0  0  0  0  0  0  0  0  0  0
  152.9681  143.0748  161.2564 H   0  0  0  0  0  0  0  0  0  0  0  0
  153.6450  142.5612  158.7385 H   0  0  0  0  0  0  0  0  0  0  0  0
  152.7142  144.5099  157.2469 H   0  0  0  0  0  0  0  0  0  0  0  0
  151.6267  146.3790  158.8230 H   0  0  0  0  0  0  0  0  0  0  0  0
  153.2694  145.9529  159.3455 H   0  0  0  0  0  0  0  0  0  0  0  0
  149.6577  138.8705  154.0281 H   0  0  0  0  0  0  0  0  0  0  0  0
  151.4335  137.4478  152.9967 H   0  0  0  0  0  0  0  0  0  0  0  0
  153.9549  137.9600  156.2300 H   0  0  0  0  0  0  0  0  0  0  0  0
  152.3013  139.4075  157.4178 H   0  0  0  0  0  0  0  0  0  0  0  0
  149.9567  143.4261  155.9255 H   0  0  0  0  0  0  0  0  0  0  0  0
  1  2  1  0  0  0  0
  1 19  1  0  0  0  0
  1 20  1  0  0  0  0
  1 21  1  0  0  0  0
  2  3  1  0  0  0  0
  2 13  1  0  0  0  0
  2 22  1  0  0  0  0
  3  4  1  0  0  0  0
  3 23  1  0  0  0  0
  3 24  1  0  0  0  0
  4  5  1  0  0  0  0
  4 25  1  0  0  0  0
  4 41  1  0  0  0  0
  5  6  1  0  0  0  0
  5 26  1  0  0  0  0
  5 27  1  0  0  0  0
  6 11  1  0  0  0  0
  6  7  1  0  0  0  0
  6 28  1  0  0  0  0
  7  8  1  0  0  0  0
  7 29  1  0  0  0  0
  7 30  1  0  0  0  0
  8 12  1  0  0  0  0
  8  9  1  0  0  0  0
  8 31  1  0  0  0  0
  9 10  2  0  0  0  0
  9 32  1  0  0  0  0
 10 11  1  0  0  0  0
 10 33  1  0  0  0  0
 11 12  1  0  0  0  0
 11 34  1  0  0  0  0
 12 35  1  0  0  0  0
 12 36  1  0  0  0  0
 13 18  1  0  0  0  0
 13 14  2  0  0  0  0
 14 15  1  0  0  0  0
 14 37  1  0  0  0  0
 15 16  2  0  0  0  0
 15 38  1  0  0  0  0
 16 17  1  0  0  0  0
 17 18  2  0  0  0  0
 17 39  1  0  0  0  0
 18 40  1  0  0  0  0
M  CHG  1   4   1
M  END
> <s_m_source_file>
AV-unprocessed.smi

> <i_m_source_file_index>
3316

> <i_lp_mmshare_version>
43012

> <i_f3d_flags>
0

> <s_epik_input>
W2NIXTFbY0hdbltjSF1bY0hdYzFbQ0BIXShbQ0gzXSlbQ0gyXVtOSF1bQ0gyXVtDQEhdKFtDSDJdW0NASF0yMylbQ0BIXShbQ0gyXTMpW0NIXT1bQ0hdMg==

> <s_epik_cmdline>
J2VwaWtfcHl0aG9uJywgJy1waCcsICc3LjAnLCAnLXRuJywgJzgnLCAnLW1hJywgJzIwMCcsICctbWV0YWxfYmluZGluZycsICctaW1hZScsICc8aW5maWxlLm1hZT4nLCAnLW9tYWUnLCAnPG91dGZpbGUubWFlPic=

> <r_lp_tautomer_probability>
1

> <r_epik_Ionization_Penalty>
0.00280406

> <r_epik_Ionization_Penalty_Charging>
0.000446589

> <r_epik_Ionization_Penalty_Neutral>
0.00235747

> <r_epik_State_Penalty>
-0

> <r_epik_Charging_Adjusted_Penalty>
0.000446589

> <i_epik_Tot_Q>
1

> <i_epik_Tot_abs_Q>
1

> <r_epik_Metal_State_Penalty>
-0

> <b_epik_Metal_Only>
0

> <s_lp_Force_Field>
OPLS_2005

> <r_lp_Energy>
65.6453

> <b_lp_Chiralities_Consistent>
1

> <s_lp_Variant>
AV-unprocessed.smi:3316-7

> <Gold.Version>
5.8.1

> <Gold.Id.Protein>
6NUR|6NUR_protein|mol2

> <Gold.PLP.Fitness>
50.2222

> <Gold.PLP.PLP>
-41.5951

> <Gold.PLP.part.hbond>
-2.0000

> <Gold.PLP.part.metal>
0.0000

> <Gold.PLP.part.buried>
-4.7816

> <Gold.PLP.part.nonpolar>
-35.6535

> <Gold.PLP.part.repulsive>
0.1536

> <Gold.PLP.ligand.clash>
0.0000

> <Gold.PLP.ligand.torsion>
0.9054

> <Gold.PLP.Chemscore.Hbond>
2.4480

> <Gold.PLP.Chemscore.CHOScore>
1.0000

> <Gold.PLP.Chemscore.Metal>
0.0000

> <Gold.Chemscore.Hbonds>
donor molecule, donor type, donor heavy atom, donor atom, acceptor molecule, acceptor atom, score
      L1  H     4    41       P1  8028  2.00
      P1  H 10752 10765       L1    16  0.45
      L1  C    15    38       P1  7949  1.00

> <Gold.PLP.Chemscore.Internal.Correction>
0.0938

> <Gold.Rescore>
     Score         DG    S(hbond)    S(metal)    S(lipo)     H(rot)  DE(clash)    DE(int)     intcor
     22.24     -23.27       1.74        0.00     132.29       1.36       0.10       0.93       ----

> <Gold.Chemscore.Fitness>
22.2398

> <Gold.Chemscore.DG>
-23.2683

> <Gold.Chemscore.ZeroCoef>
-5.4800

> <Gold.Chemscore.Hbond>
1.7373

> <Gold.Chemscore.Metal>
0.0000

> <Gold.Chemscore.Lipo>
132.2880

> <Gold.Chemscore.Internal_Hbond>
0.0000

> <Gold.Chemscore.DEClash>
0.0999

> <Gold.Chemscore.DEInternal>
0.9286

> <Gold.Chemscore.Rot>
1.3640

> <Gold.Chemscore.Internal.Correction>
   9.000000E+99

> <Gold.Chemscore.Hbonds>
donor molecule, donor type, donor heavy atom, donor atom, acceptor molecule, acceptor atom, score
      L1  H     4    41       P1  8028  1.00
      P1  H 10752 10765       L1    16  0.17

> <Gold.Chemscore.Hbond.Weighted>
-5.8025

> <Gold.Chemscore.Metal.Weighted>
-0.0000

> <Gold.Chemscore.Lipo.Weighted>
-15.4777

> <Gold.Chemscore.Internal_Hbond.Weighted>
0.0000

> <Gold.Chemscore.DEClash.Weighted>
0.0999

> <Gold.Chemscore.DEInternal.Weighted>
0.9286

> <Gold.Chemscore.Rot.Weighted>
3.4919

> <Gold.Chemscore.Internal.Correction.Weighted>
   9.000000E+99

> <Gold.Protein.RotatedTorsions>
[ 6907 6896 6895 6894 ] final -122.09 input  -60.11 | X-H torsion
[ 7974 7965 7964 7962 ] final  -97.52 input  175.53 | X-H torsion
[ 8008 7997 7996 7995 ] final  -44.98 input   59.86 | X-H torsion
[ 10167 10162 10161 10158 ] final -143.89 input  -65.29 | X-H torsion
[ 10718 10713 10712 10709 ] final  -78.80 input   66.30 | X-H torsion
[ 10763 10752 10751 10750 ] final  164.64 input  -60.55 | X-H torsion
[ 11005 11000 10999 10996 ] final  -44.43 input  -57.11 | X-H torsion

> <Gold.Protein.ActiveResidues>
 VAL166  LYS551  ARG553  GLY616  TRP617  ASP618  TYR619  PRO620  LYS621  CYS622 
 ASP623  PHE694  ASN695  SER759  ASP760  ASP761  ALA762  ILE779  LEU786  VAL792 
 PHE793  MET794  SER795  GLU796  ALA797  LYS798  CYS799  TRP800  GLU811  SER814 

> <Gold.Protein.RotatedAtoms>
  150.8543  133.7739  159.3014 H   0  0  0  0  0  0  0  0  0  0  0  0  # atno 6907 bound_to 6896
  151.5401  135.1067  159.9934 H   0  0  0  0  0  0  0  0  0  0  0  0  # atno 6908 bound_to 6896
  152.4577  133.7715  159.6857 H   0  0  0  0  0  0  0  0  0  0  0  0  # atno 6909 bound_to 6896
  145.3326  140.9444  143.2653 H   0  0  0  0  0  0  0  0  0  0  0  0  # atno 7974 bound_to 7965
  154.3999  140.1408  156.3772 H   0  0  0  0  0  0  0  0  0  0  0  0  # atno 8008 bound_to 7997
  155.8037  140.3475  155.5397 H   0  0  0  0  0  0  0  0  0  0  0  0  # atno 8009 bound_to 7997
  155.8457  140.0933  157.1697 H   0  0  0  0  0  0  0  0  0  0  0  0  # atno 8010 bound_to 7997
  139.7951  143.7912  152.2653 H   0  0  0  0  0  0  0  0  0  0  0  0  # atno 10167 bound_to 10162
  156.0108  130.4528  150.3551 H   0  0  0  0  0  0  0  0  0  0  0  0  # atno 10718 bound_to 10713
  154.3120  135.2757  155.2561 H   0  0  0  0  0  0  0  0  0  0  0  0  # atno 10763 bound_to 10752
  154.4952  135.5823  153.6493 H   0  0  0  0  0  0  0  0  0  0  0  0  # atno 10764 bound_to 10752
  152.9887  135.6144  154.3298 H   0  0  0  0  0  0  0  0  0  0  0  0  # atno 10765 bound_to 10752
  141.0450  133.6765  156.2871 H   0  0  0  0  0  0  0  0  0  0  0  0  # atno 11005 bound_to 11000
  144.8852  139.4849  143.6704 LP  0  0  0  0  0  0  0  0  0  0  0  0  # atno 17320 bound_to 7965
  146.3039  139.7517  142.9070 LP  0  0  0  0  0  0  0  0  0  0  0  0  # atno 17321 bound_to 7965
  139.8015  144.7372  150.9819 LP  0  0  0  0  0  0  0  0  0  0  0  0  # atno 17342 bound_to 10162
  140.7820  143.4340  151.0651 LP  0  0  0  0  0  0  0  0  0  0  0  0  # atno 17343 bound_to 10162
  157.1642  131.0352  151.2826 LP  0  0  0  0  0  0  0  0  0  0  0  0  # atno 17370 bound_to 10713
  157.4285  130.7477  149.6971 LP  0  0  0  0  0  0  0  0  0  0  0  0  # atno 17371 bound_to 10713
  140.6164  134.5406  157.5541 LP  0  0  0  0  0  0  0  0  0  0  0  0  # atno 17394 bound_to 11000
  139.9305  134.7974  156.0946 LP  0  0  0  0  0  0  0  0  0  0  0  0  # atno 17395 bound_to 11000

$$$$
