AV-unprocessed.smi:86|AV-procd|sdf|812|dock2
  -GOLD-   2262017213D 1   1.00000     0.00000
 Structure written by MMmdl.
 51 55  0  0  0  0  0  0  0  0  1 V2000
  151.4848  125.5038  149.9466 O   0  0  0  0  0  0  0  0  0  0  0  0
  150.0766  125.3873  149.9541 C   0  0  0  0  0  0  0  0  0  0  0  0
  149.5758  124.7171  151.2455 C   0  0  0  0  0  0  0  0  0  0  0  0
  149.5221  125.7401  152.3983 C   0  0  0  0  0  0  0  0  0  0  0  0
  148.6428  126.8706  152.1394 N   0  0  0  0  0  0  0  0  0  0  0  0
  147.7707  127.0130  151.0846 C   0  0  0  0  0  0  0  0  0  0  0  0
  147.0910  128.1265  151.0723 N   0  0  0  0  0  0  0  0  0  0  0  0
  147.5093  128.8002  152.2148 C   0  0  0  0  0  0  0  0  0  0  0  0
  147.1867  130.0554  152.8107 C   0  0  0  0  0  0  0  0  0  0  0  0
  146.2871  130.9349  152.3007 N   0  0  0  0  0  0  0  0  0  0  0  0
  146.2800  132.3502  152.6655 C   0  0  0  0  0  0  0  0  0  0  0  0
  145.7585  133.0551  151.4118 C   0  0  2  0  0  0  0  0  0  0  0  0
  145.0379  134.4000  151.5617 C   0  0  0  0  0  0  0  0  0  0  0  0
  144.5416  134.8616  150.1738 C   0  0  0  0  0  0  0  0  0  0  0  0
  143.6893  133.7818  149.4617 C   0  0  1  0  0  0  0  0  0  0  0  0
  143.3773  134.2143  148.1543 O   0  0  0  0  0  0  0  0  0  0  0  0
  144.4036  132.4124  149.3949 C   0  0  0  0  0  0  0  0  0  0  0  0
  144.8293  132.0089  150.8114 C   0  0  1  0  0  0  0  0  0  0  0  0
  145.6434  130.7319  151.0043 C   0  0  0  0  0  0  0  0  0  0  0  0
  147.8434  130.3885  153.9532 N   0  0  0  0  0  0  0  0  0  0  0  0
  148.7375  129.5540  154.4903 C   0  0  0  0  0  0  0  0  0  0  0  0
  149.1283  128.3571  154.0517 N   0  0  0  0  0  0  0  0  0  0  0  0
  148.4865  128.0192  152.8972 C   0  0  0  0  0  0  0  0  0  0  0  0
  148.3247  123.8462  151.0608 C   0  0  0  0  0  0  0  0  0  0  0  0
  149.1008  122.6298  151.0646 O   0  0  0  0  0  0  0  0  0  0  0  0
  150.2323  123.3685  151.5724 C   0  0  0  0  0  0  0  0  0  0  0  0
  151.7321  126.1904  150.5469 H   0  0  0  0  0  0  0  0  0  0  0  0
  149.6359  126.3744  149.8139 H   0  0  0  0  0  0  0  0  0  0  0  0
  149.7874  124.8018  149.0807 H   0  0  0  0  0  0  0  0  0  0  0  0
  149.1780  125.2609  153.3157 H   0  0  0  0  0  0  0  0  0  0  0  0
  150.5187  126.1194  152.6269 H   0  0  0  0  0  0  0  0  0  0  0  0
  147.6536  126.2634  150.3159 H   0  0  0  0  0  0  0  0  0  0  0  0
  145.6096  132.4986  153.5127 H   0  0  0  0  0  0  0  0  0  0  0  0
  147.2706  132.7185  152.9340 H   0  0  0  0  0  0  0  0  0  0  0  0
  146.6071  133.1944  150.7386 H   0  0  0  0  0  0  0  0  0  0  0  0
  144.1946  134.3014  152.2464 H   0  0  0  0  0  0  0  0  0  0  0  0
  145.7088  135.1451  151.9903 H   0  0  0  0  0  0  0  0  0  0  0  0
  143.9677  135.7830  150.2764 H   0  0  0  0  0  0  0  0  0  0  0  0
  145.4060  135.1072  149.5545 H   0  0  0  0  0  0  0  0  0  0  0  0
  142.7496  133.6634  150.0029 H   0  0  0  0  0  0  0  0  0  0  0  0
  144.1847  134.3924  147.6968 H   0  0  0  0  0  0  0  0  0  0  0  0
  143.7414  131.6572  148.9698 H   0  0  0  0  0  0  0  0  0  0  0  0
  145.2779  132.4709  148.7445 H   0  0  0  0  0  0  0  0  0  0  0  0
  143.9348  131.9307  151.4333 H   0  0  0  0  0  0  0  0  0  0  0  0
  146.4000  130.6275  150.2252 H   0  0  0  0  0  0  0  0  0  0  0  0
  145.0113  129.8433  151.0010 H   0  0  0  0  0  0  0  0  0  0  0  0
  149.2072  129.8949  155.4011 H   0  0  0  0  0  0  0  0  0  0  0  0
  147.6292  123.8772  151.9006 H   0  0  0  0  0  0  0  0  0  0  0  0
  147.8026  124.0102  150.1173 H   0  0  0  0  0  0  0  0  0  0  0  0
  151.1482  123.1702  151.0141 H   0  0  0  0  0  0  0  0  0  0  0  0
  150.3825  123.1951  152.6393 H   0  0  0  0  0  0  0  0  0  0  0  0
  1  2  1  0  0  0  0
  1 27  1  0  0  0  0
  2  3  1  0  0  0  0
  2 28  1  0  0  0  0
  2 29  1  0  0  0  0
  3 26  1  0  0  0  0
  3  4  1  0  0  0  0
  3 24  1  0  0  0  0
  4  5  1  0  0  0  0
  4 30  1  0  0  0  0
  4 31  1  0  0  0  0
  5 23  1  0  0  0  0
  5  6  1  0  0  0  0
  6  7  2  0  0  0  0
  6 32  1  0  0  0  0
  7  8  1  0  0  0  0
  8 23  2  0  0  0  0
  8  9  1  0  0  0  0
  9 10  1  0  0  0  0
  9 20  2  0  0  0  0
 10 19  1  0  0  0  0
 10 11  1  0  0  0  0
 11 12  1  0  0  0  0
 11 33  1  0  0  0  0
 11 34  1  0  0  0  0
 12 18  1  0  0  0  0
 12 13  1  0  0  0  0
 12 35  1  0  0  0  0
 13 14  1  0  0  0  0
 13 36  1  0  0  0  0
 13 37  1  0  0  0  0
 14 15  1  0  0  0  0
 14 38  1  0  0  0  0
 14 39  1  0  0  0  0
 15 16  1  0  0  0  0
 15 17  1  0  0  0  0
 15 40  1  0  0  0  0
 16 41  1  0  0  0  0
 17 18  1  0  0  0  0
 17 42  1  0  0  0  0
 17 43  1  0  0  0  0
 18 19  1  0  0  0  0
 18 44  1  0  0  0  0
 19 45  1  0  0  0  0
 19 46  1  0  0  0  0
 20 21  1  0  0  0  0
 21 22  2  0  0  0  0
 21 47  1  0  0  0  0
 22 23  1  0  0  0  0
 24 25  1  0  0  0  0
 24 48  1  0  0  0  0
 24 49  1  0  0  0  0
 25 26  1  0  0  0  0
 26 50  1  0  0  0  0
 26 51  1  0  0  0  0
M  END
> <s_m_source_file>
AV-unprocessed.smi

> <i_m_source_file_index>
86

> <i_lp_mmshare_version>
43012

> <i_f3d_flags>
0

> <s_epik_input>
W0NIMl0xT1tDSDJdQzEoW0NIMl1bT0hdKVtDSDJdbihbY0hdbjIpYyhjMjMpbltjSF1uYzNOKFtDSDJdNClbQ0gyXVtDQEBIXShbQ0BIXTQ1KVtDSDJdW0NASF0oW09IXSlbQ0gyXVtDSDJdNQ==

> <s_epik_cmdline>
J2VwaWtfcHl0aG9uJywgJy1waCcsICc3LjAnLCAnLXRuJywgJzgnLCAnLW1hJywgJzIwMCcsICctbWV0YWxfYmluZGluZycsICctaW1hZScsICc8aW5maWxlLm1hZT4nLCAnLW9tYWUnLCAnPG91dGZpbGUubWFlPic=

> <r_lp_tautomer_probability>
1

> <r_epik_Ionization_Penalty>
0.00425795

> <r_epik_Ionization_Penalty_Charging>
0

> <r_epik_Ionization_Penalty_Neutral>
0.00425795

> <r_epik_State_Penalty>
0.00299946

> <r_epik_Charging_Adjusted_Penalty>
0.00299946

> <i_epik_Tot_Q>
0

> <i_epik_Tot_abs_Q>
0

> <r_epik_Metal_State_Penalty>
-0

> <b_epik_Metal_Only>
0

> <s_lp_Force_Field>
OPLS_2005

> <r_lp_Energy>
53.7305

> <b_lp_Chiralities_Consistent>
1

> <s_lp_Variant>
AV-unprocessed.smi:86-1

> <Gold.Version>
5.8.1

> <Gold.Id.Protein>
6NUR|6NUR_protein|mol2

> <Gold.PLP.Fitness>
51.4543

> <Gold.PLP.PLP>
-43.0916

> <Gold.PLP.part.hbond>
-4.4133

> <Gold.PLP.part.metal>
0.0000

> <Gold.PLP.part.buried>
-2.0357

> <Gold.PLP.part.nonpolar>
-36.7964

> <Gold.PLP.part.repulsive>
0.2572

> <Gold.PLP.ligand.clash>
0.0000

> <Gold.PLP.ligand.torsion>
0.5682

> <Gold.PLP.Chemscore.Hbond>
3.0000

> <Gold.PLP.Chemscore.CHOScore>
0.0000

> <Gold.PLP.Chemscore.Metal>
0.0000

> <Gold.Chemscore.Hbonds>
donor molecule, donor type, donor heavy atom, donor atom, acceptor molecule, acceptor atom, score
      L1  H     1    27       P1 10737  1.00
      L1  H    16    41       P1  7921  1.00
      P1  H 10192 10197       L1    16  1.00

> <Gold.PLP.Chemscore.Internal.Correction>
0.4990

> <Gold.Rescore>
     Score         DG    S(hbond)    S(metal)    S(lipo)     H(rot)  DE(clash)    DE(int)     intcor
     13.75     -17.70       2.82        0.00      84.39       2.76       1.65       2.30       ----

> <Gold.Chemscore.Fitness>
13.7463

> <Gold.Chemscore.DG>
-17.6974

> <Gold.Chemscore.ZeroCoef>
-5.4800

> <Gold.Chemscore.Hbond>
2.8195

> <Gold.Chemscore.Metal>
0.0000

> <Gold.Chemscore.Lipo>
84.3903

> <Gold.Chemscore.Internal_Hbond>
0.0000

> <Gold.Chemscore.DEClash>
1.6532

> <Gold.Chemscore.DEInternal>
2.2979

> <Gold.Chemscore.Rot>
2.7630

> <Gold.Chemscore.Internal.Correction>
   9.000000E+99

> <Gold.Chemscore.Hbonds>
donor molecule, donor type, donor heavy atom, donor atom, acceptor molecule, acceptor atom, score
      L1  H     1    27       P1 10737  0.35
      L1  H    16    41       P1  7921  0.96
      P1  H 10192 10197       L1    16  0.50

> <Gold.Chemscore.Hbond.Weighted>
-9.4171

> <Gold.Chemscore.Metal.Weighted>
-0.0000

> <Gold.Chemscore.Lipo.Weighted>
-9.8737

> <Gold.Chemscore.Internal_Hbond.Weighted>
0.0000

> <Gold.Chemscore.DEClash.Weighted>
1.6532

> <Gold.Chemscore.DEInternal.Weighted>
2.2979

> <Gold.Chemscore.Rot.Weighted>
7.0734

> <Gold.Chemscore.Internal.Correction.Weighted>
   9.000000E+99

> <Gold.Protein.RotatedTorsions>
[ 6907 6896 6895 6894 ] final -142.48 input  -60.11 | X-H torsion
[ 7974 7965 7964 7962 ] final -157.59 input  175.53 | X-H torsion
[ 8008 7997 7996 7995 ] final   47.65 input   59.86 | X-H torsion
[ 10167 10162 10161 10158 ] final -118.62 input  -65.29 | X-H torsion
[ 10718 10713 10712 10709 ] final -176.55 input   66.30 | X-H torsion
[ 10763 10752 10751 10750 ] final  141.48 input  -60.55 | X-H torsion
[ 11005 11000 10999 10996 ] final -124.70 input  -57.11 | X-H torsion

> <Gold.Protein.ActiveResidues>
 VAL166  LYS551  ARG553  GLY616  TRP617  ASP618  TYR619  PRO620  LYS621  CYS622 
 ASP623  PHE694  ASN695  SER759  ASP760  ASP761  ALA762  ILE779  LEU786  VAL792 
 PHE793  MET794  SER795  GLU796  ALA797  LYS798  CYS799  TRP800  GLU811  SER814 

> <Gold.Protein.RotatedAtoms>
  151.0876  133.5341  159.2616 H   0  0  0  0  0  0  0  0  0  0  0  0  # atno 6907 bound_to 6896
  151.2221  135.0522  159.8963 H   0  0  0  0  0  0  0  0  0  0  0  0  # atno 6908 bound_to 6896
  152.5431  134.0677  159.8233 H   0  0  0  0  0  0  0  0  0  0  0  0  # atno 6909 bound_to 6896
  144.7541  140.3947  143.6025 H   0  0  0  0  0  0  0  0  0  0  0  0  # atno 7974 bound_to 7965
  155.3726  140.3424  155.4244 H   0  0  0  0  0  0  0  0  0  0  0  0  # atno 8008 bound_to 7997
  156.1654  140.1614  156.8574 H   0  0  0  0  0  0  0  0  0  0  0  0  # atno 8009 bound_to 7997
  154.5180  140.0774  156.8100 H   0  0  0  0  0  0  0  0  0  0  0  0  # atno 8010 bound_to 7997
  140.0555  143.5018  152.2059 H   0  0  0  0  0  0  0  0  0  0  0  0  # atno 10167 bound_to 10162
  156.8164  130.9604  151.3114 H   0  0  0  0  0  0  0  0  0  0  0  0  # atno 10718 bound_to 10713
  153.9400  135.2981  155.3443 H   0  0  0  0  0  0  0  0  0  0  0  0  # atno 10763 bound_to 10752
  154.7482  135.4993  153.9244 H   0  0  0  0  0  0  0  0  0  0  0  0  # atno 10764 bound_to 10752
  153.1047  135.6743  153.9714 H   0  0  0  0  0  0  0  0  0  0  0  0  # atno 10765 bound_to 10752
  140.9820  134.0659  157.3753 H   0  0  0  0  0  0  0  0  0  0  0  0  # atno 11005 bound_to 11000
  145.6839  139.1624  143.2685 LP  0  0  0  0  0  0  0  0  0  0  0  0  # atno 17320 bound_to 7965
  146.1530  140.6898  142.9313 LP  0  0  0  0  0  0  0  0  0  0  0  0  # atno 17321 bound_to 7965
  139.5926  144.7555  151.3364 LP  0  0  0  0  0  0  0  0  0  0  0  0  # atno 17342 bound_to 10162
  140.7196  143.7171  150.7724 LP  0  0  0  0  0  0  0  0  0  0  0  0  # atno 17343 bound_to 10162
  157.6479  130.8860  149.9575 LP  0  0  0  0  0  0  0  0  0  0  0  0  # atno 17370 bound_to 10713
  156.1014  130.3655  150.0211 LP  0  0  0  0  0  0  0  0  0  0  0  0  # atno 17371 bound_to 10713
  139.8954  135.0141  156.7002 LP  0  0  0  0  0  0  0  0  0  0  0  0  # atno 17394 bound_to 11000
  140.7171  133.9173  155.8122 LP  0  0  0  0  0  0  0  0  0  0  0  0  # atno 17395 bound_to 11000

$$$$
