AV-unprocessed.smi:287|AV-procd|sdf|2204|dock4
  -GOLD-   2262022 23D 1   1.00000     0.00000
 Structure written by MMmdl.
 55 58  0  0  0  0  0  0  0  0  1 V2000
  155.4911  130.8770  154.3572 C   0  0  0  0  0  0  0  0  0  0  0  0
  154.6012  129.7071  154.6026 C   0  0  0  0  0  0  0  0  0  0  0  0
  153.2518  129.5585  154.7391 C   0  0  0  0  0  0  0  0  0  0  0  0
  152.9950  128.1709  154.9535 C   0  0  0  0  0  0  0  0  0  0  0  0
  151.6287  127.5324  155.1648 C   0  0  2  0  0  0  0  0  0  0  0  0
  151.6401  126.6993  156.4571 C   0  0  0  0  0  0  0  0  0  0  0  0
  151.2825  126.6259  154.1352 O   0  0  0  0  0  0  0  0  0  0  0  0
  150.4886  128.5753  155.2157 C   0  0  0  0  0  0  0  0  0  0  0  0
  150.2278  129.1932  153.9220 N   0  0  0  0  0  0  0  0  0  0  0  0
  149.2942  130.1579  153.7833 C   0  0  0  0  0  0  0  0  0  0  0  0
  149.5377  131.3009  154.4666 N   0  0  0  0  0  0  0  0  0  0  0  0
  148.6725  132.3153  154.4058 C   0  0  0  0  0  0  0  0  0  0  0  0
  147.5259  132.3913  153.7303 N   0  0  0  0  0  0  0  0  0  0  0  0
  147.2705  131.2489  153.0274 C   0  0  0  0  0  0  0  0  0  0  0  0
  148.0986  130.0878  153.0065 C   0  0  0  0  0  0  0  0  0  0  0  0
  147.5085  129.1196  152.2029 N   0  0  0  0  0  0  0  0  0  0  0  0
  146.4043  129.6734  151.7856 C   0  0  0  0  0  0  0  0  0  0  0  0
  146.1920  130.9685  152.2047 N   0  0  0  0  0  0  0  0  0  0  0  0
  144.9980  131.8369  151.9031 C   0  0  1  0  0  0  0  0  0  0  0  0
  145.3072  133.1639  152.1990 O   0  0  0  0  0  0  0  0  0  0  0  0
  145.8211  133.7967  151.0345 C   0  0  2  0  0  0  0  0  0  0  0  0
  145.8536  135.3264  151.1967 C   0  0  0  0  0  0  0  0  0  0  0  0
  146.5686  135.6734  152.3636 O   0  0  0  0  0  0  0  0  0  0  0  0
  144.8712  133.2563  149.9592 C   0  0  2  0  0  0  0  0  0  0  0  0
  143.6596  133.9943  149.9457 O   0  0  0  0  0  0  0  0  0  0  0  0
  144.6745  131.8014  150.3931 C   0  0  2  0  0  0  0  0  0  0  0  0
  143.3776  131.3094  150.1092 O   0  0  0  0  0  0  0  0  0  0  0  0
  154.2358  127.5806  154.9460 C   0  0  0  0  0  0  0  0  0  0  0  0
  154.7180  126.1792  155.1264 C   0  0  0  0  0  0  0  0  0  0  0  0
  155.2138  128.5037  154.7293 O   0  0  0  0  0  0  0  0  0  0  0  0
  144.2101  131.4535  152.5525 H   0  0  0  0  0  0  0  0  0  0  0  0
  146.8259  133.4201  150.8306 H   0  0  0  0  0  0  0  0  0  0  0  0
  145.3145  133.3199  148.9650 H   0  0  0  0  0  0  0  0  0  0  0  0
  145.4026  131.1805  149.8704 H   0  0  0  0  0  0  0  0  0  0  0  0
  154.9134  131.7455  154.0405 H   0  0  0  0  0  0  0  0  0  0  0  0
  156.2191  130.6538  153.5770 H   0  0  0  0  0  0  0  0  0  0  0  0
  156.0357  131.1439  155.2630 H   0  0  0  0  0  0  0  0  0  0  0  0
  152.5263  130.3566  154.6859 H   0  0  0  0  0  0  0  0  0  0  0  0
  151.8589  127.3214  157.3259 H   0  0  0  0  0  0  0  0  0  0  0  0
  152.3972  125.9148  156.4167 H   0  0  0  0  0  0  0  0  0  0  0  0
  150.6765  126.2192  156.6331 H   0  0  0  0  0  0  0  0  0  0  0  0
  151.5866  126.9763  153.3121 H   0  0  0  0  0  0  0  0  0  0  0  0
  149.5752  128.1317  155.6148 H   0  0  0  0  0  0  0  0  0  0  0  0
  150.7815  129.3714  155.9015 H   0  0  0  0  0  0  0  0  0  0  0  0
  150.7917  128.8544  153.1554 H   0  0  0  0  0  0  0  0  0  0  0  0
  148.9359  133.1917  154.9792 H   0  0  0  0  0  0  0  0  0  0  0  0
  145.7096  129.1453  151.1487 H   0  0  0  0  0  0  0  0  0  0  0  0
  146.3674  135.7829  150.3506 H   0  0  0  0  0  0  0  0  0  0  0  0
  144.8473  135.7446  151.2328 H   0  0  0  0  0  0  0  0  0  0  0  0
  147.4868  135.7306  152.1474 H   0  0  0  0  0  0  0  0  0  0  0  0
  142.9908  133.4590  149.5463 H   0  0  0  0  0  0  0  0  0  0  0  0
  142.7618  132.0219  150.1860 H   0  0  0  0  0  0  0  0  0  0  0  0
  154.3394  125.7578  156.0576 H   0  0  0  0  0  0  0  0  0  0  0  0
  155.8070  126.1373  155.1578 H   0  0  0  0  0  0  0  0  0  0  0  0
  154.3813  125.5469  154.3049 H   0  0  0  0  0  0  0  0  0  0  0  0
  1  2  1  0  0  0  0
  1 35  1  0  0  0  0
  1 36  1  0  0  0  0
  1 37  1  0  0  0  0
  2 30  1  0  0  0  0
  2  3  2  0  0  0  0
  3  4  1  0  0  0  0
  3 38  1  0  0  0  0
  4  5  1  0  0  0  0
  4 28  2  0  0  0  0
  5  6  1  0  0  0  0
  5  7  1  0  0  0  0
  5  8  1  0  0  0  0
  6 39  1  0  0  0  0
  6 40  1  0  0  0  0
  6 41  1  0  0  0  0
  7 42  1  0  0  0  0
  8  9  1  0  0  0  0
  8 43  1  0  0  0  0
  8 44  1  0  0  0  0
  9 10  1  0  0  0  0
  9 45  1  0  0  0  0
 10 15  1  0  0  0  0
 10 11  2  0  0  0  0
 11 12  1  0  0  0  0
 12 13  2  0  0  0  0
 12 46  1  0  0  0  0
 13 14  1  0  0  0  0
 14 18  1  0  0  0  0
 14 15  2  0  0  0  0
 15 16  1  0  0  0  0
 16 17  2  0  0  0  0
 17 18  1  0  0  0  0
 17 47  1  0  0  0  0
 18 19  1  0  0  0  0
 19 31  1  0  0  0  0
 19 26  1  0  0  0  0
 19 20  1  0  0  0  0
 20 21  1  0  0  0  0
 21 32  1  0  0  0  0
 21 22  1  0  0  0  0
 21 24  1  0  0  0  0
 22 23  1  0  0  0  0
 22 48  1  0  0  0  0
 22 49  1  0  0  0  0
 23 50  1  0  0  0  0
 24 33  1  0  0  0  0
 24 25  1  0  0  0  0
 24 26  1  0  0  0  0
 25 51  1  0  0  0  0
 26 34  1  0  0  0  0
 26 27  1  0  0  0  0
 27 52  1  0  0  0  0
 28 29  1  0  0  0  0
 28 30  1  0  0  0  0
 29 53  1  0  0  0  0
 29 54  1  0  0  0  0
 29 55  1  0  0  0  0
M  END
> <s_m_source_file>
AV-unprocessed.smi

> <i_m_source_file_index>
287

> <i_lp_mmshare_version>
43012

> <i_f3d_flags>
0

> <s_epik_input>
W0NIM11jMVtjSF1jKGMobzEpW0NIM10pW0NAQF0oW0NIM10pKFtPSF0pW0NIMl1bTkhdYyhuW2NIXW4yKWMoYzIzKW5bY0hdbjNbQ0BASF00T1tDQEhdKFtDSDJdW09IXSlbQ0BASF0oW09IXSlbQ0BIXTRbT0hd

> <s_epik_cmdline>
J2VwaWtfcHl0aG9uJywgJy1waCcsICc3LjAnLCAnLXRuJywgJzgnLCAnLW1hJywgJzIwMCcsICctbWV0YWxfYmluZGluZycsICctaW1hZScsICc8aW5maWxlLm1hZT4nLCAnLW9tYWUnLCAnPG91dGZpbGUubWFlPic=

> <r_lp_tautomer_probability>
1

> <r_epik_Ionization_Penalty>
0.000992612

> <r_epik_Ionization_Penalty_Charging>
0

> <r_epik_Ionization_Penalty_Neutral>
0.000992612

> <r_epik_State_Penalty>
-0

> <r_epik_Charging_Adjusted_Penalty>
0

> <i_epik_Tot_Q>
0

> <i_epik_Tot_abs_Q>
0

> <r_epik_Metal_State_Penalty>
-0

> <b_epik_Metal_Only>
0

> <s_epik_Chemistry_Notes>
This compound contains an acetal/aminal-like group ( X-CH(R)-Y where X, Y are N, S, or O) that may be acid/base labile, releasing an aldehyde.

> <s_lp_Force_Field>
OPLS_2005

> <r_lp_Energy>
48.2808

> <b_lp_Chiralities_Consistent>
1

> <s_lp_Variant>
AV-unprocessed.smi:287-28

> <Gold.Version>
5.8.1

> <Gold.Id.Protein>
6NUR|6NUR_protein|mol2

> <Gold.PLP.Fitness>
52.0506

> <Gold.PLP.PLP>
-42.6930

> <Gold.PLP.part.hbond>
-5.4270

> <Gold.PLP.part.metal>
0.0000

> <Gold.PLP.part.buried>
-3.2678

> <Gold.PLP.part.nonpolar>
-34.6485

> <Gold.PLP.part.repulsive>
1.4968

> <Gold.PLP.ligand.clash>
0.0000

> <Gold.PLP.ligand.torsion>
1.2143

> <Gold.PLP.Chemscore.Hbond>
3.8808

> <Gold.PLP.Chemscore.CHOScore>
0.0000

> <Gold.PLP.Chemscore.Metal>
0.0000

> <Gold.Chemscore.Hbonds>
donor molecule, donor type, donor heavy atom, donor atom, acceptor molecule, acceptor atom, score
      L1  H     7    42       P1 10737  1.00
      L1  H     9    45       P1 10737  0.57
      L1  H    23    50       P1  7948  1.00
      L1  H    25    51       P1 10186  0.15
      P1  H 10785 10796       L1    27  0.94

> <Gold.PLP.Chemscore.Internal.Correction>
0.1439

> <Gold.Rescore>
     Score         DG    S(hbond)    S(metal)    S(lipo)     H(rot)  DE(clash)    DE(int)     intcor
     10.07     -13.46       3.87        0.00      72.93       5.27       0.71       2.68       ----

> <Gold.Chemscore.Fitness>
10.0672

> <Gold.Chemscore.DG>
-13.4593

> <Gold.Chemscore.ZeroCoef>
-5.4800

> <Gold.Chemscore.Hbond>
3.8713

> <Gold.Chemscore.Metal>
0.0000

> <Gold.Chemscore.Lipo>
72.9324

> <Gold.Chemscore.Internal_Hbond>
0.0000

> <Gold.Chemscore.DEClash>
0.7097

> <Gold.Chemscore.DEInternal>
2.6824

> <Gold.Chemscore.Rot>
5.2672

> <Gold.Chemscore.Internal.Correction>
   9.000000E+99

> <Gold.Chemscore.Hbonds>
donor molecule, donor type, donor heavy atom, donor atom, acceptor molecule, acceptor atom, score
      L1  H     7    42       P1 10737  1.00
      L1  H     9    45       P1 10737  0.51
      L1  H    23    50       P1  7948  0.95
      L1  H    25    51       P1 10186  0.15
      P1  H 10785 10796       L1    27  0.85

> <Gold.Chemscore.Hbond.Weighted>
-12.9302

> <Gold.Chemscore.Metal.Weighted>
-0.0000

> <Gold.Chemscore.Lipo.Weighted>
-8.5331

> <Gold.Chemscore.Internal_Hbond.Weighted>
0.0000

> <Gold.Chemscore.DEClash.Weighted>
0.7097

> <Gold.Chemscore.DEInternal.Weighted>
2.6824

> <Gold.Chemscore.Rot.Weighted>
13.4839

> <Gold.Chemscore.Internal.Correction.Weighted>
   9.000000E+99

> <Gold.Protein.RotatedTorsions>
[ 6907 6896 6895 6894 ] final -174.20 input  -60.11 | X-H torsion
[ 7974 7965 7964 7962 ] final  -63.28 input  175.53 | X-H torsion
[ 8008 7997 7996 7995 ] final  -48.54 input   59.86 | X-H torsion
[ 10167 10162 10161 10158 ] final  155.20 input  -65.29 | X-H torsion
[ 10718 10713 10712 10709 ] final  162.32 input   66.30 | X-H torsion
[ 10763 10752 10751 10750 ] final  178.97 input  -60.55 | X-H torsion
[ 11005 11000 10999 10996 ] final   55.18 input  -57.11 | X-H torsion

> <Gold.Protein.ActiveResidues>
 VAL166  LYS551  ARG553  GLY616  TRP617  ASP618  TYR619  PRO620  LYS621  CYS622 
 ASP623  PHE694  ASN695  SER759  ASP760  ASP761  ALA762  ILE779  LEU786  VAL792 
 PHE793  MET794  SER795  GLU796  ALA797  LYS798  CYS799  TRP800  GLU811  SER814 

> <Gold.Protein.RotatedAtoms>
  151.5685  133.3393  159.2984 H   0  0  0  0  0  0  0  0  0  0  0  0  # atno 6907 bound_to 6896
  150.8381  134.7665  159.6921 H   0  0  0  0  0  0  0  0  0  0  0  0  # atno 6908 bound_to 6896
  152.4454  134.5513  159.9919 H   0  0  0  0  0  0  0  0  0  0  0  0  # atno 6909 bound_to 6896
  145.7810  140.8762  143.0330 H   0  0  0  0  0  0  0  0  0  0  0  0  # atno 7974 bound_to 7965
  154.4030  140.1319  156.4355 H   0  0  0  0  0  0  0  0  0  0  0  0  # atno 8008 bound_to 7997
  155.7510  140.3488  155.5130 H   0  0  0  0  0  0  0  0  0  0  0  0  # atno 8009 bound_to 7997
  155.8950  140.1009  157.1381 H   0  0  0  0  0  0  0  0  0  0  0  0  # atno 8010 bound_to 7997
  139.4821  144.5120  151.8010 H   0  0  0  0  0  0  0  0  0  0  0  0  # atno 10167 bound_to 10162
  157.1242  131.0500  151.2401 H   0  0  0  0  0  0  0  0  0  0  0  0  # atno 10718 bound_to 10713
  154.5146  135.2790  155.1314 H   0  0  0  0  0  0  0  0  0  0  0  0  # atno 10763 bound_to 10752
  154.2896  135.6269  153.5383 H   0  0  0  0  0  0  0  0  0  0  0  0  # atno 10764 bound_to 10752
  152.9925  135.5671  154.5619 H   0  0  0  0  0  0  0  0  0  0  0  0  # atno 10765 bound_to 10752
  140.0627  134.5580  155.9134 H   0  0  0  0  0  0  0  0  0  0  0  0  # atno 11005 bound_to 11000
  144.6796  139.9989  143.7484 LP  0  0  0  0  0  0  0  0  0  0  0  0  # atno 17320 bound_to 7965
  146.0074  139.3141  143.0891 LP  0  0  0  0  0  0  0  0  0  0  0  0  # atno 17321 bound_to 7965
  140.4624  144.1703  150.5908 LP  0  0  0  0  0  0  0  0  0  0  0  0  # atno 17342 bound_to 10162
  140.4470  143.2502  151.9398 LP  0  0  0  0  0  0  0  0  0  0  0  0  # atno 17343 bound_to 10162
  157.4449  130.7565  149.7101 LP  0  0  0  0  0  0  0  0  0  0  0  0  # atno 17370 bound_to 10713
  155.9822  130.4012  150.3431 LP  0  0  0  0  0  0  0  0  0  0  0  0  # atno 17371 bound_to 10713
  141.1980  133.6599  156.5769 LP  0  0  0  0  0  0  0  0  0  0  0  0  # atno 17394 bound_to 11000
  140.3746  134.7576  157.4621 LP  0  0  0  0  0  0  0  0  0  0  0  0  # atno 17395 bound_to 11000

$$$$
