AV-unprocessed.smi:1574|AV-procd|sdf|6335|dock1
  -GOLD-   22720 6543D 1   1.00000     0.00000
 Structure written by MMmdl.
 40 41  0  0  0  0  0  0  0  0  1 V2000
  151.8661  144.3692  157.4515 C   0  0  0  0  0  0  0  0  0  0  0  0
  151.8688  143.3647  158.6149 C   0  0  2  0  0  0  0  0  0  0  0  0
  153.0546  143.6336  159.5633 C   0  0  0  0  0  0  0  0  0  0  0  0
  153.0847  142.6403  160.7347 C   0  0  0  0  0  0  0  0  0  0  0  0
  153.1208  141.1929  160.2268 C   0  0  0  0  0  0  0  0  0  0  0  0
  151.9379  140.9116  159.2906 C   0  0  0  0  0  0  0  0  0  0  0  0
  151.8918  141.9044  158.1095 C   0  0  1  0  0  0  0  0  0  0  0  0
  150.7000  141.6789  157.3691 O   0  0  0  0  0  0  0  0  0  0  0  0
  150.8600  141.7573  155.9600 C   0  0  0  0  0  0  0  0  0  0  0  0
  149.5254  141.3930  155.2937 C   0  0  0  0  0  0  0  0  0  0  0  0
  148.4335  142.2052  155.8193 N   0  0  0  0  0  0  0  0  0  0  0  0
  147.3155  141.7259  156.3865 C   0  0  0  0  0  0  0  0  0  0  0  0
  147.0502  140.5264  156.4568 O   0  0  0  0  0  0  0  0  0  0  0  0
  146.3558  142.7568  156.9803 C   0  0  0  0  0  0  0  0  0  0  0  0
  146.3882  142.7233  158.4309 N   0  0  0  0  0  0  0  0  0  0  0  0
  147.0365  143.4885  159.3115 C   0  0  0  0  0  0  0  0  0  0  0  0
  146.7911  143.1157  160.5582 N   0  0  0  0  0  0  0  0  0  0  0  0
  145.9312  142.0414  160.4017 N   0  0  0  0  0  0  0  0  0  0  0  0
  145.6900  141.8028  159.1416 N   0  0  0  0  0  0  0  0  0  0  0  0
  152.7579  144.2626  156.8330 H   0  0  0  0  0  0  0  0  0  0  0  0
  151.8369  145.3954  157.8193 H   0  0  0  0  0  0  0  0  0  0  0  0
  150.9971  144.2293  156.8083 H   0  0  0  0  0  0  0  0  0  0  0  0
  150.9485  143.5118  159.1826 H   0  0  0  0  0  0  0  0  0  0  0  0
  153.9920  143.5677  159.0091 H   0  0  0  0  0  0  0  0  0  0  0  0
  152.9979  144.6508  159.9521 H   0  0  0  0  0  0  0  0  0  0  0  0
  153.9520  142.8349  161.3660 H   0  0  0  0  0  0  0  0  0  0  0  0
  152.2048  142.7865  161.3627 H   0  0  0  0  0  0  0  0  0  0  0  0
  154.0576  141.0108  159.6990 H   0  0  0  0  0  0  0  0  0  0  0  0
  153.0988  140.5021  161.0702 H   0  0  0  0  0  0  0  0  0  0  0  0
  151.9969  139.8835  158.9347 H   0  0  0  0  0  0  0  0  0  0  0  0
  151.0095  140.9855  159.8551 H   0  0  0  0  0  0  0  0  0  0  0  0
  152.7673  141.7668  157.4717 H   0  0  0  0  0  0  0  0  0  0  0  0
  151.1573  142.7702  155.6864 H   0  0  0  0  0  0  0  0  0  0  0  0
  151.6454  141.0893  155.6063 H   0  0  0  0  0  0  0  0  0  0  0  0
  149.5903  141.5582  154.2180 H   0  0  0  0  0  0  0  0  0  0  0  0
  149.3056  140.3338  155.4359 H   0  0  0  0  0  0  0  0  0  0  0  0
  148.5659  143.2061  155.8016 H   0  0  0  0  0  0  0  0  0  0  0  0
  146.6260  143.7583  156.6429 H   0  0  0  0  0  0  0  0  0  0  0  0
  145.3373  142.5649  156.6392 H   0  0  0  0  0  0  0  0  0  0  0  0
  147.6830  144.3103  159.0414 H   0  0  0  0  0  0  0  0  0  0  0  0
  1  2  1  0  0  0  0
  1 20  1  0  0  0  0
  1 21  1  0  0  0  0
  1 22  1  0  0  0  0
  2  7  1  0  0  0  0
  2  3  1  0  0  0  0
  2 23  1  0  0  0  0
  3  4  1  0  0  0  0
  3 24  1  0  0  0  0
  3 25  1  0  0  0  0
  4  5  1  0  0  0  0
  4 26  1  0  0  0  0
  4 27  1  0  0  0  0
  5  6  1  0  0  0  0
  5 28  1  0  0  0  0
  5 29  1  0  0  0  0
  6  7  1  0  0  0  0
  6 30  1  0  0  0  0
  6 31  1  0  0  0  0
  7  8  1  0  0  0  0
  7 32  1  0  0  0  0
  8  9  1  0  0  0  0
  9 10  1  0  0  0  0
  9 33  1  0  0  0  0
  9 34  1  0  0  0  0
 10 11  1  0  0  0  0
 10 35  1  0  0  0  0
 10 36  1  0  0  0  0
 11 12  1  0  0  0  0
 11 37  1  0  0  0  0
 12 13  2  0  0  0  0
 12 14  1  0  0  0  0
 14 15  1  0  0  0  0
 14 38  1  0  0  0  0
 14 39  1  0  0  0  0
 15 19  1  0  0  0  0
 15 16  1  0  0  0  0
 16 17  2  0  0  0  0
 16 40  1  0  0  0  0
 17 18  1  0  0  0  0
 18 19  2  0  0  0  0
M  END
> <s_m_source_file>
AV-unprocessed.smi

> <i_m_source_file_index>
1574

> <i_lp_mmshare_version>
43012

> <i_f3d_flags>
0

> <s_epik_input>
W0NIM11bQ0BASF0xW0NIMl1bQ0gyXVtDSDJdW0NIMl1bQ0BIXTFPW0NIMl1bQ0gyXVtOSF1DKD1PKVtDSDJdbjJbY0hdbm5uMg==

> <s_epik_cmdline>
J2VwaWtfcHl0aG9uJywgJy1waCcsICc3LjAnLCAnLXRuJywgJzgnLCAnLW1hJywgJzIwMCcsICctbWV0YWxfYmluZGluZycsICctaW1hZScsICc8aW5maWxlLm1hZT4nLCAnLW9tYWUnLCAnPG91dGZpbGUubWFlPic=

> <r_lp_tautomer_probability>
1

> <r_epik_Ionization_Penalty>
1.44269e-06

> <r_epik_Ionization_Penalty_Charging>
0

> <r_epik_Ionization_Penalty_Neutral>
1.44269e-06

> <r_epik_State_Penalty>
-0

> <r_epik_Charging_Adjusted_Penalty>
0

> <i_epik_Tot_Q>
0

> <i_epik_Tot_abs_Q>
0

> <r_epik_Metal_State_Penalty>
-0

> <b_epik_Metal_Only>
0

> <s_lp_Force_Field>
OPLS_2005

> <r_lp_Energy>
11.219

> <b_lp_Chiralities_Consistent>
1

> <s_lp_Variant>
AV-unprocessed.smi:1574-1

> <Gold.Version>
5.8.1

> <Gold.Id.Protein>
6NUR|6NUR_protein|mol2

> <Gold.PLP.Fitness>
47.3108

> <Gold.PLP.PLP>
-37.2122

> <Gold.PLP.part.hbond>
-4.5159

> <Gold.PLP.part.metal>
0.0000

> <Gold.PLP.part.buried>
-5.6147

> <Gold.PLP.part.nonpolar>
-26.6155

> <Gold.PLP.part.repulsive>
0.1780

> <Gold.PLP.ligand.clash>
0.0000

> <Gold.PLP.ligand.torsion>
1.0194

> <Gold.PLP.Chemscore.Hbond>
2.9913

> <Gold.PLP.Chemscore.CHOScore>
1.0000

> <Gold.PLP.Chemscore.Metal>
0.0000

> <Gold.Chemscore.Hbonds>
donor molecule, donor type, donor heavy atom, donor atom, acceptor molecule, acceptor atom, score
      L1  H    11    37       P1  8028  1.00
      P1  H  6933  6944       L1    17  0.93
      P1  H  6934  6946       L1    18  1.00
      L1  C    16    40       P1  8029  1.00

> <Gold.PLP.Chemscore.Internal.Correction>
0.1637

> <Gold.Rescore>
     Score         DG    S(hbond)    S(metal)    S(lipo)     H(rot)  DE(clash)    DE(int)     intcor
     13.40     -14.50       1.67        0.00      92.99       2.90       0.03       1.07       ----

> <Gold.Chemscore.Fitness>
13.4016

> <Gold.Chemscore.DG>
-14.5018

> <Gold.Chemscore.ZeroCoef>
-5.4800

> <Gold.Chemscore.Hbond>
1.6701

> <Gold.Chemscore.Metal>
0.0000

> <Gold.Chemscore.Lipo>
92.9929

> <Gold.Chemscore.Internal_Hbond>
0.0000

> <Gold.Chemscore.DEClash>
0.0297

> <Gold.Chemscore.DEInternal>
1.0704

> <Gold.Chemscore.Rot>
2.9050

> <Gold.Chemscore.Internal.Correction>
   9.000000E+99

> <Gold.Chemscore.Hbonds>
donor molecule, donor type, donor heavy atom, donor atom, acceptor molecule, acceptor atom, score
      L1  H    11    37       P1  8028  0.93
      P1  H  6933  6944       L1    17  0.33
      P1  H  6934  6946       L1    18  0.06

> <Gold.Chemscore.Hbond.Weighted>
-5.5783

> <Gold.Chemscore.Metal.Weighted>
-0.0000

> <Gold.Chemscore.Lipo.Weighted>
-10.8802

> <Gold.Chemscore.Internal_Hbond.Weighted>
0.0000

> <Gold.Chemscore.DEClash.Weighted>
0.0297

> <Gold.Chemscore.DEInternal.Weighted>
1.0704

> <Gold.Chemscore.Rot.Weighted>
7.4367

> <Gold.Chemscore.Internal.Correction.Weighted>
   9.000000E+99

> <Gold.Protein.RotatedTorsions>
[ 6907 6896 6895 6894 ] final -116.26 input  -60.11 | X-H torsion
[ 7974 7965 7964 7962 ] final   14.90 input  175.53 | X-H torsion
[ 8008 7997 7996 7995 ] final   73.44 input   59.86 | X-H torsion
[ 10167 10162 10161 10158 ] final  -41.68 input  -65.29 | X-H torsion
[ 10718 10713 10712 10709 ] final  136.66 input   66.30 | X-H torsion
[ 10763 10752 10751 10750 ] final    7.32 input  -60.55 | X-H torsion
[ 11005 11000 10999 10996 ] final   90.20 input  -57.11 | X-H torsion

> <Gold.Protein.ActiveResidues>
 VAL166  LYS551  ARG553  GLY616  TRP617  ASP618  TYR619  PRO620  LYS621  CYS622 
 ASP623  PHE694  ASN695  SER759  ASP760  ASP761  ALA762  ILE779  LEU786  VAL792 
 PHE793  MET794  SER795  GLU796  ALA797  LYS798  CYS799  TRP800  GLU811  SER814 

> <Gold.Protein.RotatedAtoms>
  150.8042  133.8542  159.3213 H   0  0  0  0  0  0  0  0  0  0  0  0  # atno 6907 bound_to 6896
  151.6345  135.1017  160.0138 H   0  0  0  0  0  0  0  0  0  0  0  0  # atno 6908 bound_to 6896
  152.4131  133.6956  159.6450 H   0  0  0  0  0  0  0  0  0  0  0  0  # atno 6909 bound_to 6896
  146.2293  139.8973  142.8545 H   0  0  0  0  0  0  0  0  0  0  0  0  # atno 7974 bound_to 7965
  155.7837  140.3481  155.5311 H   0  0  0  0  0  0  0  0  0  0  0  0  # atno 8008 bound_to 7997
  155.8703  140.0985  157.1575 H   0  0  0  0  0  0  0  0  0  0  0  0  # atno 8009 bound_to 7997
  154.4017  140.1342  156.4057 H   0  0  0  0  0  0  0  0  0  0  0  0  # atno 8010 bound_to 7997
  140.6994  143.3080  151.3101 H   0  0  0  0  0  0  0  0  0  0  0  0  # atno 10167 bound_to 10162
  157.4444  131.1060  151.0107 H   0  0  0  0  0  0  0  0  0  0  0  0  # atno 10718 bound_to 10713
  153.2377  135.6900  153.7818 H   0  0  0  0  0  0  0  0  0  0  0  0  # atno 10763 bound_to 10752
  153.6960  135.3305  155.3214 H   0  0  0  0  0  0  0  0  0  0  0  0  # atno 10764 bound_to 10752
  154.8342  135.4556  154.1286 H   0  0  0  0  0  0  0  0  0  0  0  0  # atno 10765 bound_to 10752
  139.8860  134.8599  156.3251 H   0  0  0  0  0  0  0  0  0  0  0  0  # atno 11005 bound_to 11000
  145.2358  140.9990  143.3964 LP  0  0  0  0  0  0  0  0  0  0  0  0  # atno 17320 bound_to 7965
  144.9493  139.4101  143.6410 LP  0  0  0  0  0  0  0  0  0  0  0  0  # atno 17321 bound_to 7965
  139.6493  144.0392  152.2614 LP  0  0  0  0  0  0  0  0  0  0  0  0  # atno 17342 bound_to 10162
  139.9923  144.6353  150.7803 LP  0  0  0  0  0  0  0  0  0  0  0  0  # atno 17343 bound_to 10162
  157.0959  130.5961  149.5449 LP  0  0  0  0  0  0  0  0  0  0  0  0  # atno 17370 bound_to 10713
  155.9961  130.5030  150.7485 LP  0  0  0  0  0  0  0  0  0  0  0  0  # atno 17371 bound_to 10713
  140.9761  133.7297  156.0604 LP  0  0  0  0  0  0  0  0  0  0  0  0  # atno 17394 bound_to 11000
  140.7809  134.3726  157.5487 LP  0  0  0  0  0  0  0  0  0  0  0  0  # atno 17395 bound_to 11000

$$$$
