AV-unprocessed.smi:2438|AV-procd|sdf|9596|dock2
  -GOLD-   2272013233D 1   1.00000     0.00000
 Structure written by MMmdl.
 43 44  0  0  0  0  0  0  0  0  1 V2000
  148.7835  141.0349  155.5098 C   0  0  0  0  0  0  0  0  0  0  0  0
  149.7590  140.4684  156.4311 N   0  0  0  0  0  0  0  0  0  0  0  0
  150.5670  141.4238  157.1785 C   0  0  0  0  0  0  0  0  0  0  0  0
  150.4393  139.3531  155.9023 C   0  0  0  0  0  0  0  0  0  0  0  0
  151.2449  139.5510  154.8305 N   0  0  0  0  0  0  0  0  0  0  0  0
  151.8712  138.4882  154.3234 C   0  0  0  0  0  0  0  0  0  0  0  0
  151.7955  137.2333  154.7657 N   0  0  0  0  0  0  0  0  0  0  0  0
  151.0006  137.0126  155.8331 C   0  0  0  0  0  0  0  0  0  0  0  0
  150.2716  138.0563  156.4558 C   0  0  0  0  0  0  0  0  0  0  0  0
  149.4645  137.8672  157.6124 N   0  0  0  0  0  0  0  0  0  0  0  0
  149.5560  136.8991  158.5387 C   0  0  0  0  0  0  0  0  0  0  0  0
  150.3861  135.9904  158.5367 O   0  0  0  0  0  0  0  0  0  0  0  0
  148.6024  137.0310  159.4713 N   0  0  0  0  0  0  0  0  0  0  0  0
  148.4041  136.1363  160.6077 C   0  0  1  0  0  0  0  0  0  0  0  0
  147.2068  136.6222  161.4434 C   0  0  0  0  0  0  0  0  0  0  0  0
  146.9271  135.6742  162.6186 C   0  0  0  0  0  0  0  0  0  0  0  0
  146.7079  134.2331  162.1320 C   0  0  0  0  0  0  0  0  0  0  0  0
  147.9046  133.7244  161.3008 C   0  0  1  0  0  0  0  0  0  0  0  0
  147.6999  132.2725  160.8209 C   0  0  0  0  0  0  0  0  0  0  0  0
  147.4930  131.4562  161.8548 F   0  0  0  0  0  0  0  0  0  0  0  0
  146.6497  132.2055  160.0025 F   0  0  0  0  0  0  0  0  0  0  0  0
  148.7752  131.8564  160.1518 F   0  0  0  0  0  0  0  0  0  0  0  0
  148.1832  134.6871  160.1262 C   0  0  0  0  0  0  0  0  0  0  0  0
  148.0169  140.3090  155.2399 H   0  0  0  0  0  0  0  0  0  0  0  0
  149.2726  141.3712  154.5948 H   0  0  0  0  0  0  0  0  0  0  0  0
  148.2841  141.8923  155.9619 H   0  0  0  0  0  0  0  0  0  0  0  0
  151.2421  140.9110  157.8649 H   0  0  0  0  0  0  0  0  0  0  0  0
  149.9262  142.0798  157.7681 H   0  0  0  0  0  0  0  0  0  0  0  0
  151.1604  142.0433  156.5050 H   0  0  0  0  0  0  0  0  0  0  0  0
  152.5084  138.6633  153.4694 H   0  0  0  0  0  0  0  0  0  0  0  0
  150.9817  135.9962  156.1947 H   0  0  0  0  0  0  0  0  0  0  0  0
  148.6769  138.4936  157.6955 H   0  0  0  0  0  0  0  0  0  0  0  0
  147.9616  137.8067  159.3877 H   0  0  0  0  0  0  0  0  0  0  0  0
  149.2928  136.1663  161.2415 H   0  0  0  0  0  0  0  0  0  0  0  0
  147.3965  137.6278  161.8208 H   0  0  0  0  0  0  0  0  0  0  0  0
  146.3175  136.6899  160.8145 H   0  0  0  0  0  0  0  0  0  0  0  0
  147.7634  135.7013  163.3181 H   0  0  0  0  0  0  0  0  0  0  0  0
  146.0515  136.0166  163.1706 H   0  0  0  0  0  0  0  0  0  0  0  0
  146.5449  133.5832  162.9921 H   0  0  0  0  0  0  0  0  0  0  0  0
  145.7962  134.1872  161.5350 H   0  0  0  0  0  0  0  0  0  0  0  0
  148.7834  133.7315  161.9476 H   0  0  0  0  0  0  0  0  0  0  0  0
  147.3484  134.6583  159.4245 H   0  0  0  0  0  0  0  0  0  0  0  0
  149.0597  134.3469  159.5737 H   0  0  0  0  0  0  0  0  0  0  0  0
  1  2  1  0  0  0  0
  1 24  1  0  0  0  0
  1 25  1  0  0  0  0
  1 26  1  0  0  0  0
  2  3  1  0  0  0  0
  2  4  1  0  0  0  0
  3 27  1  0  0  0  0
  3 28  1  0  0  0  0
  3 29  1  0  0  0  0
  4  9  1  0  0  0  0
  4  5  2  0  0  0  0
  5  6  1  0  0  0  0
  6  7  2  0  0  0  0
  6 30  1  0  0  0  0
  7  8  1  0  0  0  0
  8  9  2  0  0  0  0
  8 31  1  0  0  0  0
  9 10  1  0  0  0  0
 10 11  1  0  0  0  0
 10 32  1  0  0  0  0
 11 12  2  0  0  0  0
 11 13  1  0  0  0  0
 13 14  1  0  0  0  0
 13 33  1  0  0  0  0
 14 23  1  0  0  0  0
 14 15  1  0  0  0  0
 14 34  1  0  0  0  0
 15 16  1  0  0  0  0
 15 35  1  0  0  0  0
 15 36  1  0  0  0  0
 16 17  1  0  0  0  0
 16 37  1  0  0  0  0
 16 38  1  0  0  0  0
 17 18  1  0  0  0  0
 17 39  1  0  0  0  0
 17 40  1  0  0  0  0
 18 19  1  0  0  0  0
 18 23  1  0  0  0  0
 18 41  1  0  0  0  0
 19 20  1  0  0  0  0
 19 21  1  0  0  0  0
 19 22  1  0  0  0  0
 23 42  1  0  0  0  0
 23 43  1  0  0  0  0
M  END
> <s_m_source_file>
AV-unprocessed.smi

> <i_m_source_file_index>
2438

> <i_lp_mmshare_version>
43012

> <i_f3d_flags>
0

> <s_epik_input>
W0NIM11OKFtDSDNdKWMxbltjSF1uW2NIXWMxW05IXUMoPU8pW05IXVtDQEBIXTJbQ0gyXVtDSDJdW0NIMl1bQ0BASF0oQyhGKShGKUYpW0NIMl0y

> <s_epik_cmdline>
J2VwaWtfcHl0aG9uJywgJy1waCcsICc3LjAnLCAnLXRuJywgJzgnLCAnLW1hJywgJzIwMCcsICctbWV0YWxfYmluZGluZycsICctaW1hZScsICc8aW5maWxlLm1hZT4nLCAnLW9tYWUnLCAnPG91dGZpbGUubWFlPic=

> <r_lp_tautomer_probability>
1

> <r_epik_Ionization_Penalty>
0.01759

> <r_epik_Ionization_Penalty_Charging>
0

> <r_epik_Ionization_Penalty_Neutral>
0.01759

> <r_epik_State_Penalty>
0.0133536

> <r_epik_Charging_Adjusted_Penalty>
0.0133536

> <i_epik_Tot_Q>
0

> <i_epik_Tot_abs_Q>
0

> <r_epik_Metal_State_Penalty>
0.0129828

> <b_epik_Metal_Only>
0

> <s_lp_Force_Field>
OPLS_2005

> <r_lp_Energy>
11.3681

> <b_lp_Chiralities_Consistent>
1

> <s_lp_Variant>
AV-unprocessed.smi:2438-2

> <Gold.Version>
5.8.1

> <Gold.Id.Protein>
6NUR|6NUR_protein|mol2

> <Gold.PLP.Fitness>
42.2715

> <Gold.PLP.PLP>
-33.7814

> <Gold.PLP.part.hbond>
-3.0000

> <Gold.PLP.part.metal>
0.0000

> <Gold.PLP.part.buried>
-6.4549

> <Gold.PLP.part.nonpolar>
-26.5770

> <Gold.PLP.part.repulsive>
0.4754

> <Gold.PLP.ligand.clash>
0.0000

> <Gold.PLP.ligand.torsion>
0.3196

> <Gold.PLP.Chemscore.Hbond>
2.9280

> <Gold.PLP.Chemscore.CHOScore>
0.0000

> <Gold.PLP.Chemscore.Metal>
0.0000

> <Gold.Chemscore.Hbonds>
donor molecule, donor type, donor heavy atom, donor atom, acceptor molecule, acceptor atom, score
      P1  H  6896  6907       L1    12  0.93
      P1  H  7989  7998       L1     5  1.00
      P1  H 10752 10765       L1     7  1.00

> <Gold.PLP.Chemscore.Internal.Correction>
0.3453

> <Gold.Rescore>
     Score         DG    S(hbond)    S(metal)    S(lipo)     H(rot)  DE(clash)    DE(int)     intcor
     16.44     -19.05       2.72        0.00      66.70       1.30       0.00       2.62       ----

> <Gold.Chemscore.Fitness>
16.4364

> <Gold.Chemscore.DG>
-19.0548

> <Gold.Chemscore.ZeroCoef>
-5.4800

> <Gold.Chemscore.Hbond>
2.7231

> <Gold.Chemscore.Metal>
0.0000

> <Gold.Chemscore.Lipo>
66.7023

> <Gold.Chemscore.Internal_Hbond>
0.0000

> <Gold.Chemscore.DEClash>
0.0028

> <Gold.Chemscore.DEInternal>
2.6156

> <Gold.Chemscore.Rot>
1.2987

> <Gold.Chemscore.Internal.Correction>
   9.000000E+99

> <Gold.Chemscore.Hbonds>
donor molecule, donor type, donor heavy atom, donor atom, acceptor molecule, acceptor atom, score
      P1  H  6896  6907       L1    12  0.89
      P1  H  7989  7998       L1     5  0.26
      P1  H 10752 10765       L1     7  0.61

> <Gold.Chemscore.Hbond.Weighted>
-9.0952

> <Gold.Chemscore.Metal.Weighted>
-0.0000

> <Gold.Chemscore.Lipo.Weighted>
-7.8042

> <Gold.Chemscore.Internal_Hbond.Weighted>
0.0000

> <Gold.Chemscore.DEClash.Weighted>
0.0028

> <Gold.Chemscore.DEInternal.Weighted>
2.6156

> <Gold.Chemscore.Rot.Weighted>
3.3246

> <Gold.Chemscore.Internal.Correction.Weighted>
   9.000000E+99

> <Gold.Protein.RotatedTorsions>
[ 6907 6896 6895 6894 ] final  -53.03 input  -60.11 | X-H torsion
[ 7974 7965 7964 7962 ] final -102.81 input  175.53 | X-H torsion
[ 8008 7997 7996 7995 ] final   56.70 input   59.86 | X-H torsion
[ 10167 10162 10161 10158 ] final   24.90 input  -65.29 | X-H torsion
[ 10718 10713 10712 10709 ] final   46.03 input   66.30 | X-H torsion
[ 10763 10752 10751 10750 ] final  175.66 input  -60.55 | X-H torsion
[ 11005 11000 10999 10996 ] final  -39.74 input  -57.11 | X-H torsion

> <Gold.Protein.ActiveResidues>
 VAL166  LYS551  ARG553  GLY616  TRP617  ASP618  TYR619  PRO620  LYS621  CYS622 
 ASP623  PHE694  ASN695  SER759  ASP760  ASP761  ALA762  ILE779  LEU786  VAL792 
 PHE793  MET794  SER795  GLU796  ALA797  LYS798  CYS799  TRP800  GLU811  SER814 

> <Gold.Protein.RotatedAtoms>
  150.8464  134.7774  159.6973 H   0  0  0  0  0  0  0  0  0  0  0  0  # atno 6907 bound_to 6896
  152.4539  134.5330  159.9826 H   0  0  0  0  0  0  0  0  0  0  0  0  # atno 6908 bound_to 6896
  151.5459  133.3387  159.2980 H   0  0  0  0  0  0  0  0  0  0  0  0  # atno 6909 bound_to 6896
  145.2640  140.9278  143.3024 H   0  0  0  0  0  0  0  0  0  0  0  0  # atno 7974 bound_to 7965
  155.5217  140.3480  155.4408 H   0  0  0  0  0  0  0  0  0  0  0  0  # atno 8008 bound_to 7997
  156.0780  140.1379  156.9775 H   0  0  0  0  0  0  0  0  0  0  0  0  # atno 8009 bound_to 7997
  154.4564  140.0952  156.6744 H   0  0  0  0  0  0  0  0  0  0  0  0  # atno 8010 bound_to 7997
  140.5150  144.0097  150.6390 H   0  0  0  0  0  0  0  0  0  0  0  0  # atno 10167 bound_to 10162
  157.4438  130.8097  149.7720 H   0  0  0  0  0  0  0  0  0  0  0  0  # atno 10718 bound_to 10713
  154.4706  135.2771  155.1645 H   0  0  0  0  0  0  0  0  0  0  0  0  # atno 10763 bound_to 10752
  154.3395  135.6173  153.5593 H   0  0  0  0  0  0  0  0  0  0  0  0  # atno 10764 bound_to 10752
  152.9864  135.5785  154.5087 H   0  0  0  0  0  0  0  0  0  0  0  0  # atno 10765 bound_to 10752
  141.0124  133.6901  156.2228 H   0  0  0  0  0  0  0  0  0  0  0  0  # atno 11005 bound_to 11000
  144.9394  139.4207  143.6456 LP  0  0  0  0  0  0  0  0  0  0  0  0  # atno 17320 bound_to 7965
  146.3267  139.8345  142.8902 LP  0  0  0  0  0  0  0  0  0  0  0  0  # atno 17321 bound_to 7965
  140.3431  143.3008  152.0567 LP  0  0  0  0  0  0  0  0  0  0  0  0  # atno 17342 bound_to 10162
  139.4906  144.6428  151.6840 LP  0  0  0  0  0  0  0  0  0  0  0  0  # atno 17343 bound_to 10162
  155.9959  130.3909  150.2799 LP  0  0  0  0  0  0  0  0  0  0  0  0  # atno 17370 bound_to 10713
  157.0966  131.0184  151.3101 LP  0  0  0  0  0  0  0  0  0  0  0  0  # atno 17371 bound_to 10713
  140.6711  134.4866  157.5587 LP  0  0  0  0  0  0  0  0  0  0  0  0  # atno 17394 bound_to 11000
  139.9097  134.8371  156.1572 LP  0  0  0  0  0  0  0  0  0  0  0  0  # atno 17395 bound_to 11000

$$$$
