AV-unprocessed.smi:2906|AV-procd|sdf|11162|dock1
  -GOLD-   2272016 43D 1   1.00000     0.00000
 Structure written by MMmdl.
 40 41  0  0  0  0  0  0  0  0  1 V2000
  150.7446  141.9385  156.1127 C   0  0  0  0  0  0  0  0  0  0  0  0
  151.0126  140.5836  156.7876 C   0  0  0  0  0  0  0  0  0  0  0  0
  151.5998  139.5240  155.8397 C   0  0  0  0  0  0  0  0  0  0  0  0
  152.5258  139.8235  155.0843 O   0  0  0  0  0  0  0  0  0  0  0  0
  151.0748  138.2809  155.8690 N   0  0  0  0  0  0  0  0  0  0  0  0
  149.9654  137.8997  156.7365 C   0  0  0  0  0  0  0  0  0  0  0  0
  149.8918  136.3741  156.7028 C   0  0  0  0  0  0  0  0  0  0  0  0
  150.6761  135.9382  155.4650 C   0  0  1  0  0  0  0  0  0  0  0  0
  149.7888  135.4637  154.4063 N   0  0  0  0  0  0  0  0  0  0  0  0
  149.1154  134.3044  154.4287 C   0  0  0  0  0  0  0  0  0  0  0  0
  149.1828  133.4993  155.3581 O   0  0  0  0  0  0  0  0  0  0  0  0
  148.3737  134.1509  153.3177 N   0  0  0  0  0  0  0  0  0  0  0  0
  147.5397  133.0580  152.9653 C   0  0  0  0  0  0  0  0  0  0  0  0
  147.6716  131.8209  153.4564 N   0  0  0  0  0  0  0  0  0  0  0  0
  146.7172  130.9406  152.9377 C   0  0  0  0  0  0  0  0  0  0  0  0
  146.7067  129.5083  153.3782 C   0  0  0  0  0  0  0  0  0  0  0  0
  146.3743  128.5492  152.2297 C   0  0  0  0  0  0  0  0  0  0  0  0
  145.8614  131.5350  152.0423 C   0  0  0  0  0  0  0  0  0  0  0  0
  146.2216  133.2256  151.8164 S   0  0  0  0  0  0  0  0  0  0  0  0
  151.4953  137.1638  155.0266 C   0  0  0  0  0  0  0  0  0  0  0  0
  150.3284  142.6483  156.8277 H   0  0  0  0  0  0  0  0  0  0  0  0
  150.0317  141.8423  155.2931 H   0  0  0  0  0  0  0  0  0  0  0  0
  151.6620  142.3736  155.7145 H   0  0  0  0  0  0  0  0  0  0  0  0
  151.6995  140.7334  157.6210 H   0  0  0  0  0  0  0  0  0  0  0  0
  150.0800  140.2045  157.2068 H   0  0  0  0  0  0  0  0  0  0  0  0
  150.0975  138.2635  157.7566 H   0  0  0  0  0  0  0  0  0  0  0  0
  149.0459  138.3339  156.3413 H   0  0  0  0  0  0  0  0  0  0  0  0
  150.3798  135.9748  157.5929 H   0  0  0  0  0  0  0  0  0  0  0  0
  148.8632  136.0111  156.7138 H   0  0  0  0  0  0  0  0  0  0  0  0
  151.3465  135.1220  155.7413 H   0  0  0  0  0  0  0  0  0  0  0  0
  149.6785  136.0643  153.6026 H   0  0  0  0  0  0  0  0  0  0  0  0
  148.4101  134.9026  152.6452 H   0  0  0  0  0  0  0  0  0  0  0  0
  147.6757  129.2395  153.7998 H   0  0  0  0  0  0  0  0  0  0  0  0
  145.9830  129.3710  154.1823 H   0  0  0  0  0  0  0  0  0  0  0  0
  146.3770  127.5151  152.5743 H   0  0  0  0  0  0  0  0  0  0  0  0
  147.1029  128.6340  151.4231 H   0  0  0  0  0  0  0  0  0  0  0  0
  145.3878  128.7585  151.8147 H   0  0  0  0  0  0  0  0  0  0  0  0
  145.0426  131.0813  151.5041 H   0  0  0  0  0  0  0  0  0  0  0  0
  151.3438  137.4050  153.9730 H   0  0  0  0  0  0  0  0  0  0  0  0
  152.5587  136.9682  155.1710 H   0  0  0  0  0  0  0  0  0  0  0  0
  1  2  1  0  0  0  0
  1 21  1  0  0  0  0
  1 22  1  0  0  0  0
  1 23  1  0  0  0  0
  2  3  1  0  0  0  0
  2 24  1  0  0  0  0
  2 25  1  0  0  0  0
  3  4  2  0  0  0  0
  3  5  1  0  0  0  0
  5 20  1  0  0  0  0
  5  6  1  0  0  0  0
  6  7  1  0  0  0  0
  6 26  1  0  0  0  0
  6 27  1  0  0  0  0
  7  8  1  0  0  0  0
  7 28  1  0  0  0  0
  7 29  1  0  0  0  0
  8  9  1  0  0  0  0
  8 20  1  0  0  0  0
  8 30  1  0  0  0  0
  9 10  1  0  0  0  0
  9 31  1  0  0  0  0
 10 11  2  0  0  0  0
 10 12  1  0  0  0  0
 12 13  1  0  0  0  0
 12 32  1  0  0  0  0
 13 19  1  0  0  0  0
 13 14  2  0  0  0  0
 14 15  1  0  0  0  0
 15 16  1  0  0  0  0
 15 18  2  0  0  0  0
 16 17  1  0  0  0  0
 16 33  1  0  0  0  0
 16 34  1  0  0  0  0
 17 35  1  0  0  0  0
 17 36  1  0  0  0  0
 17 37  1  0  0  0  0
 18 19  1  0  0  0  0
 18 38  1  0  0  0  0
 20 39  1  0  0  0  0
 20 40  1  0  0  0  0
M  END
> <s_m_source_file>
AV-unprocessed.smi

> <i_m_source_file_index>
2906

> <i_lp_mmshare_version>
43012

> <i_f3d_flags>
0

> <s_epik_input>
W0NIM11bQ0gyXUMoPU8pTjFbQ0gyXVtDSDJdW0NASF0oW0NIMl0xKVtOSF1DKD1PKVtOSF1jMm5jKFtjSF1zMilbQ0gyXVtDSDNd

> <s_epik_cmdline>
J2VwaWtfcHl0aG9uJywgJy1waCcsICc3LjAnLCAnLXRuJywgJzgnLCAnLW1hJywgJzIwMCcsICctbWV0YWxfYmluZGluZycsICctaW1hZScsICc8aW5maWxlLm1hZT4nLCAnLW9tYWUnLCAnPG91dGZpbGUubWFlPic=

> <r_lp_tautomer_probability>
1

> <r_epik_Ionization_Penalty>
0.000174744

> <r_epik_Ionization_Penalty_Charging>
0

> <r_epik_Ionization_Penalty_Neutral>
0.000174744

> <r_epik_State_Penalty>
-0

> <r_epik_Charging_Adjusted_Penalty>
0

> <i_epik_Tot_Q>
0

> <i_epik_Tot_abs_Q>
0

> <r_epik_Metal_State_Penalty>
0.0273865

> <b_epik_Metal_Only>
0

> <s_lp_Force_Field>
OPLS_2005

> <r_lp_Energy>
22.1367

> <b_lp_Chiralities_Consistent>
1

> <s_lp_Variant>
AV-unprocessed.smi:2906-1

> <Gold.Version>
5.8.1

> <Gold.Id.Protein>
6NUR|6NUR_protein|mol2

> <Gold.PLP.Fitness>
39.2935

> <Gold.PLP.PLP>
-30.8811

> <Gold.PLP.part.hbond>
-4.0690

> <Gold.PLP.part.metal>
0.0000

> <Gold.PLP.part.buried>
-1.5856

> <Gold.PLP.part.nonpolar>
-24.5469

> <Gold.PLP.part.repulsive>
0.1867

> <Gold.PLP.ligand.clash>
0.0000

> <Gold.PLP.ligand.torsion>
0.7119

> <Gold.PLP.Chemscore.Hbond>
3.2740

> <Gold.PLP.Chemscore.CHOScore>
0.0000

> <Gold.PLP.Chemscore.Metal>
0.0000

> <Gold.Chemscore.Hbonds>
donor molecule, donor type, donor heavy atom, donor atom, acceptor molecule, acceptor atom, score
      L1  H     9    31       P1  7948  0.91
      L1  H    12    32       P1  7948  1.00
      P1  H  7989  7998       L1     4  0.54
      P1  H  7997  8009       L1     4  0.80

> <Gold.PLP.Chemscore.Internal.Correction>
0.0142

> <Gold.Rescore>
     Score         DG    S(hbond)    S(metal)    S(lipo)     H(rot)  DE(clash)    DE(int)     intcor
     15.86     -17.56       2.64        0.00      58.83       1.41       0.02       1.67       ----

> <Gold.Chemscore.Fitness>
15.8623

> <Gold.Chemscore.DG>
-17.5593

> <Gold.Chemscore.ZeroCoef>
-5.4800

> <Gold.Chemscore.Hbond>
2.6365

> <Gold.Chemscore.Metal>
0.0000

> <Gold.Chemscore.Lipo>
58.8333

> <Gold.Chemscore.Internal_Hbond>
0.0000

> <Gold.Chemscore.DEClash>
0.0224

> <Gold.Chemscore.DEInternal>
1.6746

> <Gold.Chemscore.Rot>
1.4102

> <Gold.Chemscore.Internal.Correction>
   9.000000E+99

> <Gold.Chemscore.Hbonds>
donor molecule, donor type, donor heavy atom, donor atom, acceptor molecule, acceptor atom, score
      L1  H     9    31       P1  7948  0.23
      L1  H    12    32       P1  7948  0.44
      P1  H  7989  7998       L1     4  0.33
      P1  H  7997  8009       L1     4  0.73

> <Gold.Chemscore.Hbond.Weighted>
-8.8059

> <Gold.Chemscore.Metal.Weighted>
-0.0000

> <Gold.Chemscore.Lipo.Weighted>
-6.8835

> <Gold.Chemscore.Internal_Hbond.Weighted>
0.0000

> <Gold.Chemscore.DEClash.Weighted>
0.0224

> <Gold.Chemscore.DEInternal.Weighted>
1.6746

> <Gold.Chemscore.Rot.Weighted>
3.6101

> <Gold.Chemscore.Internal.Correction.Weighted>
   9.000000E+99

> <Gold.Protein.RotatedTorsions>
[ 6907 6896 6895 6894 ] final -128.50 input  -60.11 | X-H torsion
[ 7974 7965 7964 7962 ] final  121.15 input  175.53 | X-H torsion
[ 8008 7997 7996 7995 ] final -144.09 input   59.86 | X-H torsion
[ 10167 10162 10161 10158 ] final  116.14 input  -65.29 | X-H torsion
[ 10718 10713 10712 10709 ] final  135.11 input   66.30 | X-H torsion
[ 10763 10752 10751 10750 ] final -120.02 input  -60.55 | X-H torsion
[ 11005 11000 10999 10996 ] final -157.97 input  -57.11 | X-H torsion

> <Gold.Protein.ActiveResidues>
 VAL166  LYS551  ARG553  GLY616  TRP617  ASP618  TYR619  PRO620  LYS621  CYS622 
 ASP623  PHE694  ASN695  SER759  ASP760  ASP761  ALA762  ILE779  LEU786  VAL792 
 PHE793  MET794  SER795  GLU796  ALA797  LYS798  CYS799  TRP800  GLU811  SER814 

> <Gold.Protein.RotatedAtoms>
  150.9186  133.6909  159.2837 H   0  0  0  0  0  0  0  0  0  0  0  0  # atno 6907 bound_to 6896
  151.4371  135.1015  159.9669 H   0  0  0  0  0  0  0  0  0  0  0  0  # atno 6908 bound_to 6896
  152.4967  133.8602  159.7301 H   0  0  0  0  0  0  0  0  0  0  0  0  # atno 6909 bound_to 6896
  145.1227  139.3378  143.4706 H   0  0  0  0  0  0  0  0  0  0  0  0  # atno 7974 bound_to 7965
  155.5212  140.0591  157.2906 H   0  0  0  0  0  0  0  0  0  0  0  0  # atno 8008 bound_to 7997
  154.4517  140.1952  156.0446 H   0  0  0  0  0  0  0  0  0  0  0  0  # atno 8009 bound_to 7997
  156.0717  140.3259  155.7588 H   0  0  0  0  0  0  0  0  0  0  0  0  # atno 8010 bound_to 7997
  139.6268  144.7109  151.2516 H   0  0  0  0  0  0  0  0  0  0  0  0  # atno 10167 bound_to 10162
  157.4604  131.1073  150.9926 H   0  0  0  0  0  0  0  0  0  0  0  0  # atno 10718 bound_to 10713
  154.8633  135.4218  154.2392 H   0  0  0  0  0  0  0  0  0  0  0  0  # atno 10763 bound_to 10752
  153.3361  135.6991  153.6912 H   0  0  0  0  0  0  0  0  0  0  0  0  # atno 10764 bound_to 10752
  153.5909  135.3555  155.2883 H   0  0  0  0  0  0  0  0  0  0  0  0  # atno 10765 bound_to 10752
  140.6588  134.4372  157.5234 H   0  0  0  0  0  0  0  0  0  0  0  0  # atno 11005 bound_to 11000
  146.3520  140.1193  142.8601 LP  0  0  0  0  0  0  0  0  0  0  0  0  # atno 17320 bound_to 7965
  145.0722  140.9163  143.4875 LP  0  0  0  0  0  0  0  0  0  0  0  0  # atno 17321 bound_to 7965
  140.7415  143.6553  150.8212 LP  0  0  0  0  0  0  0  0  0  0  0  0  # atno 17342 bound_to 10162
  140.0172  143.5580  152.2815 LP  0  0  0  0  0  0  0  0  0  0  0  0  # atno 17343 bound_to 10162
  157.0725  130.5870  149.5405 LP  0  0  0  0  0  0  0  0  0  0  0  0  # atno 17370 bound_to 10713
  156.0026  130.5108  150.7718 LP  0  0  0  0  0  0  0  0  0  0  0  0  # atno 17371 bound_to 10713
  139.9020  134.8534  156.1857 LP  0  0  0  0  0  0  0  0  0  0  0  0  # atno 17394 bound_to 11000
  141.0481  133.6903  156.1721 LP  0  0  0  0  0  0  0  0  0  0  0  0  # atno 17395 bound_to 11000

$$$$
