AV-unprocessed.smi:1176|AV-procd|sdf|4953|dock8
  -GOLD-   22720 3543D 1   1.00000     0.00000
 Structure written by MMmdl.
 50 51  0  0  0  0  0  0  0  0  2 V2000
  145.9416  132.1114  149.4353 C   0  0  0  0  0  0  0  0  0  0  0  0
  145.5210  132.6415  150.8144 C   0  0  0  0  0  0  0  0  0  0  0  0
  144.3777  131.7898  151.3909 C   0  0  0  0  0  0  0  0  0  0  0  0
  145.1383  134.1350  150.7278 C   0  0  0  0  0  0  0  0  0  0  0  0
  145.1406  134.8131  152.0501 N   0  3  2  0  0  0  0  0  0  0  0  0
  144.7198  136.2352  151.9557 C   0  0  0  0  0  0  0  0  0  0  0  0
  144.5960  136.8789  153.3504 C   0  0  0  0  0  0  0  0  0  0  0  0
  145.8970  136.7513  154.1612 C   0  0  2  0  0  0  0  0  0  0  0  0
  146.9295  137.6151  153.5910 N   0  0  0  0  0  0  0  0  0  0  0  0
  147.0939  138.9198  153.8561 C   0  0  0  0  0  0  0  0  0  0  0  0
  146.3526  139.5600  154.6007 O   0  0  0  0  0  0  0  0  0  0  0  0
  148.2800  139.6042  153.1714 C   0  0  0  0  0  0  0  0  0  0  0  0
  149.4312  139.6983  154.0765 N   0  0  0  0  0  0  0  0  0  0  0  0
  150.4229  138.7364  154.0083 C   0  0  0  0  0  0  0  0  0  0  0  0
  151.5034  138.7197  154.8182 C   0  0  0  0  0  0  0  0  0  0  0  0
  151.6896  139.7465  155.8351 C   0  0  0  0  0  0  0  0  0  0  0  0
  152.6454  139.7630  156.6116 O   0  0  0  0  0  0  0  0  0  0  0  0
  150.6723  140.7278  155.8737 N   0  0  0  0  0  0  0  0  0  0  0  0
  150.8035  141.7672  156.8740 C   0  0  0  0  0  0  0  0  0  0  0  0
  149.5346  140.7322  155.0332 C   0  0  0  0  0  0  0  0  0  0  0  0
  148.6535  141.5899  155.1224 O   0  0  0  0  0  0  0  0  0  0  0  0
  146.3298  135.2706  154.1938 C   0  0  0  0  0  0  0  0  0  0  0  0
  146.4277  134.6706  152.7808 C   0  0  0  0  0  0  0  0  0  0  0  0
  145.1250  132.1813  148.7158 H   0  0  0  0  0  0  0  0  0  0  0  0
  146.2457  131.0657  149.4914 H   0  0  0  0  0  0  0  0  0  0  0  0
  146.7853  132.6759  149.0369 H   0  0  0  0  0  0  0  0  0  0  0  0
  146.3844  132.5292  151.4694 H   0  0  0  0  0  0  0  0  0  0  0  0
  143.4791  131.8639  150.7774 H   0  0  0  0  0  0  0  0  0  0  0  0
  144.1176  132.1010  152.4029 H   0  0  0  0  0  0  0  0  0  0  0  0
  144.6594  130.7374  151.4394 H   0  0  0  0  0  0  0  0  0  0  0  0
  145.8091  134.6670  150.0510 H   0  0  0  0  0  0  0  0  0  0  0  0
  144.1447  134.2039  150.2824 H   0  0  0  0  0  0  0  0  0  0  0  0
  145.4341  136.7867  151.3425 H   0  0  0  0  0  0  0  0  0  0  0  0
  143.7554  136.2998  151.4502 H   0  0  0  0  0  0  0  0  0  0  0  0
  144.3104  137.9274  153.2555 H   0  0  0  0  0  0  0  0  0  0  0  0
  143.7852  136.3935  153.8955 H   0  0  0  0  0  0  0  0  0  0  0  0
  145.7045  137.0895  155.1810 H   0  0  0  0  0  0  0  0  0  0  0  0
  147.5795  137.1845  152.9495 H   0  0  0  0  0  0  0  0  0  0  0  0
  148.5562  139.0540  152.2701 H   0  0  0  0  0  0  0  0  0  0  0  0
  147.9740  140.5928  152.8250 H   0  0  0  0  0  0  0  0  0  0  0  0
  150.3273  137.9511  153.2726 H   0  0  0  0  0  0  0  0  0  0  0  0
  152.2383  137.9349  154.7147 H   0  0  0  0  0  0  0  0  0  0  0  0
  150.1682  142.6191  156.6324 H   0  0  0  0  0  0  0  0  0  0  0  0
  151.8410  142.1064  156.8820 H   0  0  0  0  0  0  0  0  0  0  0  0
  150.5203  141.3251  157.8304 H   0  0  0  0  0  0  0  0  0  0  0  0
  147.2802  135.1522  154.7148 H   0  0  0  0  0  0  0  0  0  0  0  0
  145.6024  134.6992  154.7719 H   0  0  0  0  0  0  0  0  0  0  0  0
  146.7022  133.6202  152.8660 H   0  0  0  0  0  0  0  0  0  0  0  0
  147.2265  135.1570  152.2182 H   0  0  0  0  0  0  0  0  0  0  0  0
  144.4343  134.3510  152.6050 H   0  0  0  0  0  0  0  0  0  0  0  0
  1  2  1  0  0  0  0
  1 24  1  0  0  0  0
  1 25  1  0  0  0  0
  1 26  1  0  0  0  0
  2  3  1  0  0  0  0
  2  4  1  0  0  0  0
  2 27  1  0  0  0  0
  3 28  1  0  0  0  0
  3 29  1  0  0  0  0
  3 30  1  0  0  0  0
  4  5  1  0  0  0  0
  4 31  1  0  0  0  0
  4 32  1  0  0  0  0
  5 23  1  0  0  0  0
  5  6  1  0  0  0  0
  5 50  1  0  0  0  0
  6  7  1  0  0  0  0
  6 33  1  0  0  0  0
  6 34  1  0  0  0  0
  7  8  1  0  0  0  0
  7 35  1  0  0  0  0
  7 36  1  0  0  0  0
  8  9  1  0  0  0  0
  8 22  1  0  0  0  0
  8 37  1  0  0  0  0
  9 10  1  0  0  0  0
  9 38  1  0  0  0  0
 10 11  2  0  0  0  0
 10 12  1  0  0  0  0
 12 13  1  0  0  0  0
 12 39  1  0  0  0  0
 12 40  1  0  0  0  0
 13 20  1  0  0  0  0
 13 14  1  0  0  0  0
 14 15  2  0  0  0  0
 14 41  1  0  0  0  0
 15 16  1  0  0  0  0
 15 42  1  0  0  0  0
 16 17  2  0  0  0  0
 16 18  1  0  0  0  0
 18 19  1  0  0  0  0
 18 20  1  0  0  0  0
 19 43  1  0  0  0  0
 19 44  1  0  0  0  0
 19 45  1  0  0  0  0
 20 21  2  0  0  0  0
 22 23  1  0  0  0  0
 22 46  1  0  0  0  0
 22 47  1  0  0  0  0
 23 48  1  0  0  0  0
 23 49  1  0  0  0  0
M  CHG  1   5   1
M  END
> <s_m_source_file>
AV-unprocessed.smi

> <i_m_source_file_index>
1176

> <i_lp_mmshare_version>
43012

> <i_f3d_flags>
0

> <s_epik_input>
W0NIM11bQ0hdKFtDSDNdKVtDSDJdTjFbQ0gyXVtDSDJdW0NIXShbQ0gyXVtDSDJdMSlbTkhdQyg9TylbQ0gyXW4yW2NIXVtjSF1jKD1PKW4oW0NIM10pYzI9Tw==

> <s_epik_cmdline>
J2VwaWtfcHl0aG9uJywgJy1waCcsICc3LjAnLCAnLXRuJywgJzgnLCAnLW1hJywgJzIwMCcsICctbWV0YWxfYmluZGluZycsICctaW1hZScsICc8aW5maWxlLm1hZT4nLCAnLW9tYWUnLCAnPG91dGZpbGUubWFlPic=

> <r_lp_tautomer_probability>
1

> <r_epik_Ionization_Penalty>
0.00401429

> <r_epik_Ionization_Penalty_Charging>
0.00401425

> <r_epik_Ionization_Penalty_Neutral>
4.29561e-08

> <r_epik_State_Penalty>
0.00287487

> <r_epik_Charging_Adjusted_Penalty>
0.00688912

> <i_epik_Tot_Q>
1

> <i_epik_Tot_abs_Q>
1

> <r_epik_Metal_State_Penalty>
-0

> <b_epik_Metal_Only>
0

> <s_lp_Force_Field>
OPLS_2005

> <r_lp_Energy>
29.2662

> <b_lp_Chiralities_Consistent>
1

> <s_lp_Variant>
AV-unprocessed.smi:1176-2

> <Gold.Version>
5.8.1

> <Gold.Id.Protein>
6NUR|6NUR_protein|mol2

> <Gold.PLP.Fitness>
43.1715

> <Gold.PLP.PLP>
-36.1156

> <Gold.PLP.part.hbond>
-2.0000

> <Gold.PLP.part.metal>
0.0000

> <Gold.PLP.part.buried>
1.3374

> <Gold.PLP.part.nonpolar>
-35.4557

> <Gold.PLP.part.repulsive>
0.2070

> <Gold.PLP.ligand.clash>
0.0000

> <Gold.PLP.ligand.torsion>
1.1269

> <Gold.PLP.Chemscore.Hbond>
2.0000

> <Gold.PLP.Chemscore.CHOScore>
1.0781

> <Gold.PLP.Chemscore.Metal>
0.0000

> <Gold.Chemscore.Hbonds>
donor molecule, donor type, donor heavy atom, donor atom, acceptor molecule, acceptor atom, score
      L1  H     9    38       P1  7948  1.00
      P1  H  7997  8009       L1    17  1.00
      L1  C    14    41       P1  7948  0.82
      L1  C    14    41       P1  7949  0.15

> <Gold.PLP.Chemscore.Internal.Correction>
0.0754

> <Gold.Rescore>
     Score         DG    S(hbond)    S(metal)    S(lipo)     H(rot)  DE(clash)    DE(int)     intcor
     14.16     -16.91       2.00        0.00      82.63       1.92       1.71       1.03       ----

> <Gold.Chemscore.Fitness>
14.1635

> <Gold.Chemscore.DG>
-16.9082

> <Gold.Chemscore.ZeroCoef>
-5.4800

> <Gold.Chemscore.Hbond>
1.9986

> <Gold.Chemscore.Metal>
0.0000

> <Gold.Chemscore.Lipo>
82.6292

> <Gold.Chemscore.Internal_Hbond>
0.0000

> <Gold.Chemscore.DEClash>
1.7136

> <Gold.Chemscore.DEInternal>
1.0310

> <Gold.Chemscore.Rot>
1.9198

> <Gold.Chemscore.Internal.Correction>
   9.000000E+99

> <Gold.Chemscore.Hbonds>
donor molecule, donor type, donor heavy atom, donor atom, acceptor molecule, acceptor atom, score
      L1  H     9    38       P1  7948  0.97
      P1  H  7997  8009       L1    17  1.00

> <Gold.Chemscore.Hbond.Weighted>
-6.6753

> <Gold.Chemscore.Metal.Weighted>
-0.0000

> <Gold.Chemscore.Lipo.Weighted>
-9.6676

> <Gold.Chemscore.Internal_Hbond.Weighted>
0.0000

> <Gold.Chemscore.DEClash.Weighted>
1.7136

> <Gold.Chemscore.DEInternal.Weighted>
1.0310

> <Gold.Chemscore.Rot.Weighted>
4.9147

> <Gold.Chemscore.Internal.Correction.Weighted>
   9.000000E+99

> <Gold.Protein.RotatedTorsions>
[ 6907 6896 6895 6894 ] final  121.60 input  -60.11 | X-H torsion
[ 7974 7965 7964 7962 ] final  -11.70 input  175.53 | X-H torsion
[ 8008 7997 7996 7995 ] final -176.16 input   59.86 | X-H torsion
[ 10167 10162 10161 10158 ] final   34.18 input  -65.29 | X-H torsion
[ 10718 10713 10712 10709 ] final   -3.16 input   66.30 | X-H torsion
[ 10763 10752 10751 10750 ] final  159.65 input  -60.55 | X-H torsion
[ 11005 11000 10999 10996 ] final   61.25 input  -57.11 | X-H torsion

> <Gold.Protein.ActiveResidues>
 VAL166  LYS551  ARG553  GLY616  TRP617  ASP618  TYR619  PRO620  LYS621  CYS622 
 ASP623  PHE694  ASN695  SER759  ASP760  ASP761  ALA762  ILE779  LEU786  VAL792 
 PHE793  MET794  SER795  GLU796  ALA797  LYS798  CYS799  TRP800  GLU811  SER814 

> <Gold.Protein.RotatedAtoms>
  152.4309  133.7276  159.6568 H   0  0  0  0  0  0  0  0  0  0  0  0  # atno 6907 bound_to 6896
  150.8188  133.8278  159.3154 H   0  0  0  0  0  0  0  0  0  0  0  0  # atno 6908 bound_to 6896
  151.5967  135.1052  160.0102 H   0  0  0  0  0  0  0  0  0  0  0  0  # atno 6909 bound_to 6896
  146.2178  140.2949  142.8371 H   0  0  0  0  0  0  0  0  0  0  0  0  # atno 7974 bound_to 7965
  155.9914  140.1202  157.0634 H   0  0  0  0  0  0  0  0  0  0  0  0  # atno 8008 bound_to 7997
  154.4213  140.1125  156.5639 H   0  0  0  0  0  0  0  0  0  0  0  0  # atno 8009 bound_to 7997
  155.6337  140.3473  155.4694 H   0  0  0  0  0  0  0  0  0  0  0  0  # atno 8010 bound_to 7997
  140.4339  144.1285  150.6163 H   0  0  0  0  0  0  0  0  0  0  0  0  # atno 10167 bound_to 10162
  156.7802  130.5328  149.5752 H   0  0  0  0  0  0  0  0  0  0  0  0  # atno 10718 bound_to 10713
  154.2350  135.2777  155.2875 H   0  0  0  0  0  0  0  0  0  0  0  0  # atno 10763 bound_to 10752
  154.5592  135.5652  153.6995 H   0  0  0  0  0  0  0  0  0  0  0  0  # atno 10764 bound_to 10752
  153.0012  135.6293  154.2493 H   0  0  0  0  0  0  0  0  0  0  0  0  # atno 10765 bound_to 10752
  140.0174  134.6204  155.9689 H   0  0  0  0  0  0  0  0  0  0  0  0  # atno 11005 bound_to 11000
  144.9099  140.7745  143.5814 LP  0  0  0  0  0  0  0  0  0  0  0  0  # atno 17320 bound_to 7965
  145.2880  139.1894  143.4756 LP  0  0  0  0  0  0  0  0  0  0  0  0  # atno 17321 bound_to 7965
  140.4396  143.2532  151.9491 LP  0  0  0  0  0  0  0  0  0  0  0  0  # atno 17342 bound_to 10162
  139.4786  144.5667  151.8153 LP  0  0  0  0  0  0  0  0  0  0  0  0  # atno 17343 bound_to 10162
  156.1223  130.6118  151.0211 LP  0  0  0  0  0  0  0  0  0  0  0  0  # atno 17370 bound_to 10713
  157.6650  131.0873  150.7750 LP  0  0  0  0  0  0  0  0  0  0  0  0  # atno 17371 bound_to 10713
  141.1752  133.6540  156.4801 LP  0  0  0  0  0  0  0  0  0  0  0  0  # atno 17394 bound_to 11000
  140.4446  134.6984  157.5009 LP  0  0  0  0  0  0  0  0  0  0  0  0  # atno 17395 bound_to 11000

$$$$
