AV-unprocessed.smi:844|AV-procd|sdf|3925|dock3
  -GOLD-   22720 1383D 1   1.00000     0.00000
 Structure written by MMmdl.
 33 35  0  0  0  0  0  0  0  0  2 V2000
  153.0093  139.3898  156.6856 O   0  0  0  0  0  0  0  0  0  0  0  0
  151.8525  140.0823  157.1078 C   0  0  2  0  0  0  0  0  0  0  0  0
  151.2900  140.8543  155.8971 C   0  0  0  0  0  0  0  0  0  0  0  0
  150.4936  140.0021  155.0052 N   0  0  0  0  0  0  0  0  0  0  0  0
  150.7572  138.7599  154.5160 C   0  0  0  0  0  0  0  0  0  0  0  0
  149.7153  138.4050  153.7139 N   0  3  0  0  0  0  0  0  0  0  0  0
  148.7705  139.4333  153.6941 C   0  0  0  0  0  0  0  0  0  0  0  0
  147.5532  139.5413  153.0288 C   0  0  0  0  0  0  0  0  0  0  0  0
  146.8281  140.7352  153.2258 C   0  0  0  0  0  0  0  0  0  0  0  0
  147.3178  141.7642  154.0566 C   0  0  0  0  0  0  0  0  0  0  0  0
  148.5536  141.6444  154.7256 C   0  0  0  0  0  0  0  0  0  0  0  0
  149.2634  140.4613  154.5249 C   0  0  0  0  0  0  0  0  0  0  0  0
  152.1244  140.9970  158.2971 C   0  0  0  0  0  0  0  0  0  0  0  0
  151.6692  142.3345  158.2861 C   0  0  0  0  0  0  0  0  0  0  0  0
  151.9021  143.1755  159.3912 C   0  0  0  0  0  0  0  0  0  0  0  0
  152.5895  142.6845  160.5172 C   0  0  0  0  0  0  0  0  0  0  0  0
  152.8105  143.4917  161.5815 F   0  0  0  0  0  0  0  0  0  0  0  0
  153.0426  141.3519  160.5375 C   0  0  0  0  0  0  0  0  0  0  0  0
  152.8106  140.5089  159.4333 C   0  0  0  0  0  0  0  0  0  0  0  0
  153.2416  139.2250  159.4766 F   0  0  0  0  0  0  0  0  0  0  0  0
  152.9089  139.1660  155.7728 H   0  0  0  0  0  0  0  0  0  0  0  0
  151.1389  139.3149  157.4073 H   0  0  0  0  0  0  0  0  0  0  0  0
  150.6524  141.6759  156.2271 H   0  0  0  0  0  0  0  0  0  0  0  0
  152.0930  141.3017  155.3096 H   0  0  0  0  0  0  0  0  0  0  0  0
  151.6383  138.1682  154.7187 H   0  0  0  0  0  0  0  0  0  0  0  0
  147.1758  138.7553  152.3913 H   0  0  0  0  0  0  0  0  0  0  0  0
  145.8771  140.8644  152.7297 H   0  0  0  0  0  0  0  0  0  0  0  0
  146.7339  142.6643  154.1834 H   0  0  0  0  0  0  0  0  0  0  0  0
  148.9219  142.4381  155.3589 H   0  0  0  0  0  0  0  0  0  0  0  0
  151.1344  142.7202  157.4303 H   0  0  0  0  0  0  0  0  0  0  0  0
  151.5515  144.1969  159.3756 H   0  0  0  0  0  0  0  0  0  0  0  0
  153.5669  140.9745  161.4031 H   0  0  0  0  0  0  0  0  0  0  0  0
  149.6565  137.5251  153.2173 H   0  0  0  0  0  0  0  0  0  0  0  0
  1  2  1  0  0  0  0
  1 21  1  0  0  0  0
  2  3  1  0  0  0  0
  2 13  1  0  0  0  0
  2 22  1  0  0  0  0
  3  4  1  0  0  0  0
  3 23  1  0  0  0  0
  3 24  1  0  0  0  0
  4 12  1  0  0  0  0
  4  5  1  0  0  0  0
  5  6  2  0  0  0  0
  5 25  1  0  0  0  0
  6  7  1  0  0  0  0
  6 33  1  0  0  0  0
  7 12  2  0  0  0  0
  7  8  1  0  0  0  0
  8  9  2  0  0  0  0
  8 26  1  0  0  0  0
  9 10  1  0  0  0  0
  9 27  1  0  0  0  0
 10 11  2  0  0  0  0
 10 28  1  0  0  0  0
 11 12  1  0  0  0  0
 11 29  1  0  0  0  0
 13 19  1  0  0  0  0
 13 14  2  0  0  0  0
 14 15  1  0  0  0  0
 14 30  1  0  0  0  0
 15 16  2  0  0  0  0
 15 31  1  0  0  0  0
 16 17  1  0  0  0  0
 16 18  1  0  0  0  0
 18 19  2  0  0  0  0
 18 32  1  0  0  0  0
 19 20  1  0  0  0  0
M  CHG  1   6   1
M  END
> <s_m_source_file>
AV-unprocessed.smi

> <i_m_source_file_index>
844

> <i_lp_mmshare_version>
43012

> <i_f3d_flags>
0

> <s_epik_input>
RmMxW2NIXWMoRilbY0hdW2NIXWMxW0NASF0oW09IXSlbQ0gyXW4oW2NIXW4yKWMoYzIzKVtjSF1bY0hdW2NIXVtjSF0z

> <s_epik_cmdline>
J2VwaWtfcHl0aG9uJywgJy1waCcsICc3LjAnLCAnLXRuJywgJzgnLCAnLW1hJywgJzIwMCcsICctbWV0YWxfYmluZGluZycsICctaW1hZScsICc8aW5maWxlLm1hZT4nLCAnLW9tYWUnLCAnPG91dGZpbGUubWFlPic=

> <r_epik_Ionization_Penalty>
1.3029

> <r_epik_Ionization_Penalty_Charging>
1.3029

> <r_epik_Ionization_Penalty_Neutral>
1.79538e-06

> <r_epik_State_Penalty>
1.377

> <r_epik_Charging_Adjusted_Penalty>
2.6799

> <i_epik_Tot_Q>
1

> <i_epik_Tot_abs_Q>
1

> <r_epik_Metal_State_Penalty>
5.40879

> <b_epik_Metal_Only>
0

> <s_lp_Force_Field>
OPLS_2005

> <r_lp_Energy>
17.7817

> <b_lp_Chiralities_Consistent>
1

> <s_lp_Variant>
AV-unprocessed.smi:844-3

> <Gold.Version>
5.8.1

> <Gold.Id.Protein>
6NUR|6NUR_protein|mol2

> <Gold.PLP.Fitness>
53.4963

> <Gold.PLP.PLP>
-45.7115

> <Gold.PLP.part.hbond>
-2.9896

> <Gold.PLP.part.metal>
0.0000

> <Gold.PLP.part.buried>
2.4084

> <Gold.PLP.part.nonpolar>
-44.4453

> <Gold.PLP.part.repulsive>
0.0635

> <Gold.PLP.ligand.clash>
0.0000

> <Gold.PLP.ligand.torsion>
0.6133

> <Gold.PLP.Chemscore.Hbond>
3.0000

> <Gold.PLP.Chemscore.CHOScore>
0.0000

> <Gold.PLP.Chemscore.Metal>
0.0000

> <Gold.Chemscore.Hbonds>
donor molecule, donor type, donor heavy atom, donor atom, acceptor molecule, acceptor atom, score
      L1  H     6    33       P1  7948  2.00
      P1  H  7997  8008       L1     1  1.00

> <Gold.PLP.Chemscore.Internal.Correction>
0.0114

> <Gold.Rescore>
     Score         DG    S(hbond)    S(metal)    S(lipo)     H(rot)  DE(clash)    DE(int)     intcor
     15.75     -18.73       1.77        0.00     107.65       2.06       0.94       2.04       ----

> <Gold.Chemscore.Fitness>
15.7455

> <Gold.Chemscore.DG>
-18.7270

> <Gold.Chemscore.ZeroCoef>
-5.4800

> <Gold.Chemscore.Hbond>
1.7738

> <Gold.Chemscore.Metal>
0.0000

> <Gold.Chemscore.Lipo>
107.6511

> <Gold.Chemscore.Internal_Hbond>
0.0000

> <Gold.Chemscore.DEClash>
0.9417

> <Gold.Chemscore.DEInternal>
2.0398

> <Gold.Chemscore.Rot>
2.0597

> <Gold.Chemscore.Internal.Correction>
   9.000000E+99

> <Gold.Chemscore.Hbonds>
donor molecule, donor type, donor heavy atom, donor atom, acceptor molecule, acceptor atom, score
      L1  H     6    33       P1  7948  0.72
      P1  H  7997  8008       L1     1  0.42

> <Gold.Chemscore.Hbond.Weighted>
-5.9246

> <Gold.Chemscore.Metal.Weighted>
-0.0000

> <Gold.Chemscore.Lipo.Weighted>
-12.5952

> <Gold.Chemscore.Internal_Hbond.Weighted>
0.0000

> <Gold.Chemscore.DEClash.Weighted>
0.9417

> <Gold.Chemscore.DEInternal.Weighted>
2.0398

> <Gold.Chemscore.Rot.Weighted>
5.2728

> <Gold.Chemscore.Internal.Correction.Weighted>
   9.000000E+99

> <Gold.Protein.RotatedTorsions>
[ 6907 6896 6895 6894 ] final   36.96 input  -60.11 | X-H torsion
[ 7974 7965 7964 7962 ] final  -39.03 input  175.53 | X-H torsion
[ 8008 7997 7996 7995 ] final  -69.06 input   59.86 | X-H torsion
[ 10167 10162 10161 10158 ] final   87.88 input  -65.29 | X-H torsion
[ 10718 10713 10712 10709 ] final  -19.89 input   66.30 | X-H torsion
[ 10763 10752 10751 10750 ] final  -73.81 input  -60.55 | X-H torsion
[ 11005 11000 10999 10996 ] final -162.62 input  -57.11 | X-H torsion

> <Gold.Protein.ActiveResidues>
 VAL166  LYS551  ARG553  GLY616  TRP617  ASP618  TYR619  PRO620  LYS621  CYS622 
 ASP623  PHE694  ASN695  SER759  ASP760  ASP761  ALA762  ILE779  LEU786  VAL792 
 PHE793  MET794  SER795  GLU796  ALA797  LYS798  CYS799  TRP800  GLU811  SER814 

> <Gold.Protein.RotatedAtoms>
  152.1367  134.9094  160.0555 H   0  0  0  0  0  0  0  0  0  0  0  0  # atno 6907 bound_to 6896
  152.0177  133.3881  159.4254 H   0  0  0  0  0  0  0  0  0  0  0  0  # atno 6908 bound_to 6896
  150.6861  134.3582  159.4982 H   0  0  0  0  0  0  0  0  0  0  0  0  # atno 6909 bound_to 6896
  146.0434  140.6579  142.9076 H   0  0  0  0  0  0  0  0  0  0  0  0  # atno 7974 bound_to 7965
  154.4912  140.0860  156.7598 H   0  0  0  0  0  0  0  0  0  0  0  0  # atno 8008 bound_to 7997
  155.4226  140.3446  155.4254 H   0  0  0  0  0  0  0  0  0  0  0  0  # atno 8009 bound_to 7997
  156.1332  140.1507  156.9022 H   0  0  0  0  0  0  0  0  0  0  0  0  # atno 8010 bound_to 7997
  139.8729  144.6483  150.8929 H   0  0  0  0  0  0  0  0  0  0  0  0  # atno 10167 bound_to 10162
  156.5394  130.4674  149.6506 H   0  0  0  0  0  0  0  0  0  0  0  0  # atno 10718 bound_to 10713
  154.4645  135.5885  153.6279 H   0  0  0  0  0  0  0  0  0  0  0  0  # atno 10763 bound_to 10752
  152.9827  135.6052  154.3444 H   0  0  0  0  0  0  0  0  0  0  0  0  # atno 10764 bound_to 10752
  154.3319  135.2842  155.2446 H   0  0  0  0  0  0  0  0  0  0  0  0  # atno 10765 bound_to 10752
  140.6072  134.4886  157.5212 H   0  0  0  0  0  0  0  0  0  0  0  0  # atno 11005 bound_to 11000
  144.7085  140.3949  143.7099 LP  0  0  0  0  0  0  0  0  0  0  0  0  # atno 17320 bound_to 7965
  145.6847  139.1626  143.2681 LP  0  0  0  0  0  0  0  0  0  0  0  0  # atno 17321 bound_to 7965
  140.7758  143.3649  151.1758 LP  0  0  0  0  0  0  0  0  0  0  0  0  # atno 17342 bound_to 10162
  139.7267  143.9137  152.3005 LP  0  0  0  0  0  0  0  0  0  0  0  0  # atno 17343 bound_to 10162
  156.2986  130.7164  151.2030 LP  0  0  0  0  0  0  0  0  0  0  0  0  # atno 17370 bound_to 10713
  157.7408  131.0512  150.5142 LP  0  0  0  0  0  0  0  0  0  0  0  0  # atno 17371 bound_to 10713
  139.9207  134.8154  156.1221 LP  0  0  0  0  0  0  0  0  0  0  0  0  # atno 17394 bound_to 11000
  141.0832  133.6745  156.2381 LP  0  0  0  0  0  0  0  0  0  0  0  0  # atno 17395 bound_to 11000

$$$$
