AV-unprocessed.smi:1180|AV-procd|sdf|4962|dock8
  -GOLD-   22720 3553D 1   1.00000     0.00000
 Structure written by MMmdl.
 38 39  0  0  0  0  0  0  0  0  1 V2000
  150.4011  135.1448  154.7574 C   0  0  0  0  0  0  0  0  0  0  0  0
  150.8094  136.5624  155.0944 C   0  0  0  0  0  0  0  0  0  0  0  0
  149.8821  137.5159  154.7074 N   0  0  0  0  0  0  0  0  0  0  0  0
  150.1692  138.8434  154.9718 C   0  0  0  0  0  0  0  0  0  0  0  0
  149.1027  139.8229  154.5140 C   0  0  0  0  0  0  0  0  0  0  0  0
  151.3197  139.2022  155.5964 C   0  0  0  0  0  0  0  0  0  0  0  0
  151.6727  140.6545  155.9162 C   0  0  0  0  0  0  0  0  0  0  0  0
  151.3957  141.1200  157.3486 C   0  0  0  0  0  0  0  0  0  0  0  0
  150.2412  141.2370  157.7610 O   0  0  0  0  0  0  0  0  0  0  0  0
  152.4752  141.3801  158.1007 N   0  0  0  0  0  0  0  0  0  0  0  0
  152.4432  141.8167  159.4923 C   0  0  0  0  0  0  0  0  0  0  0  0
  151.8116  143.2137  159.6484 C   0  0  2  0  0  0  0  0  0  0  0  0
  152.1173  144.1642  158.4968 C   0  0  0  0  0  0  0  0  0  0  0  0
  152.3121  145.5278  159.1692 C   0  0  0  0  0  0  0  0  0  0  0  0
  151.9610  145.3340  160.5322 O   0  0  0  0  0  0  0  0  0  0  0  0
  152.2917  143.9979  160.8685 C   0  0  0  0  0  0  0  0  0  0  0  0
  152.2681  138.1361  155.9965 C   0  0  0  0  0  0  0  0  0  0  0  0
  153.3191  138.3963  156.5811 O   0  0  0  0  0  0  0  0  0  0  0  0
  151.9344  136.8055  155.6954 N   0  0  0  0  0  0  0  0  0  0  0  0
  149.0129  137.2926  154.2443 H   0  0  0  0  0  0  0  0  0  0  0  0
  151.2321  134.4542  154.9063 H   0  0  0  0  0  0  0  0  0  0  0  0
  150.0826  135.0740  153.7168 H   0  0  0  0  0  0  0  0  0  0  0  0
  149.5758  134.8285  155.3959 H   0  0  0  0  0  0  0  0  0  0  0  0
  149.5040  140.4961  153.7561 H   0  0  0  0  0  0  0  0  0  0  0  0
  148.7473  140.4206  155.3536 H   0  0  0  0  0  0  0  0  0  0  0  0
  148.2431  139.3081  154.0827 H   0  0  0  0  0  0  0  0  0  0  0  0
  151.1136  141.3063  155.2449 H   0  0  0  0  0  0  0  0  0  0  0  0
  152.7202  140.8469  155.6802 H   0  0  0  0  0  0  0  0  0  0  0  0
  153.3860  141.2587  157.6817 H   0  0  0  0  0  0  0  0  0  0  0  0
  151.8716  141.0823  160.0605 H   0  0  0  0  0  0  0  0  0  0  0  0
  153.4523  141.8092  159.9077 H   0  0  0  0  0  0  0  0  0  0  0  0
  150.7270  143.1159  159.7199 H   0  0  0  0  0  0  0  0  0  0  0  0
  153.0240  143.8786  157.9620 H   0  0  0  0  0  0  0  0  0  0  0  0
  151.2989  144.1801  157.7760 H   0  0  0  0  0  0  0  0  0  0  0  0
  153.3562  145.8379  159.1085 H   0  0  0  0  0  0  0  0  0  0  0  0
  151.6999  146.3084  158.7171 H   0  0  0  0  0  0  0  0  0  0  0  0
  151.8029  143.6839  161.7911 H   0  0  0  0  0  0  0  0  0  0  0  0
  153.3714  143.9086  161.0001 H   0  0  0  0  0  0  0  0  0  0  0  0
  1 21  1  0  0  0  0
  1 22  1  0  0  0  0
  1 23  1  0  0  0  0
  1  2  1  0  0  0  0
  2  3  1  0  0  0  0
  2 19  2  0  0  0  0
  3  4  1  0  0  0  0
  3 20  1  0  0  0  0
  4  6  2  0  0  0  0
  4  5  1  0  0  0  0
  5 24  1  0  0  0  0
  5 25  1  0  0  0  0
  5 26  1  0  0  0  0
  6 17  1  0  0  0  0
  6  7  1  0  0  0  0
  7  8  1  0  0  0  0
  7 27  1  0  0  0  0
  7 28  1  0  0  0  0
  8  9  2  0  0  0  0
  8 10  1  0  0  0  0
 10 11  1  0  0  0  0
 10 29  1  0  0  0  0
 11 12  1  0  0  0  0
 11 30  1  0  0  0  0
 11 31  1  0  0  0  0
 12 16  1  0  0  0  0
 12 13  1  0  0  0  0
 12 32  1  0  0  0  0
 13 14  1  0  0  0  0
 13 33  1  0  0  0  0
 13 34  1  0  0  0  0
 14 15  1  0  0  0  0
 14 35  1  0  0  0  0
 14 36  1  0  0  0  0
 15 16  1  0  0  0  0
 16 37  1  0  0  0  0
 16 38  1  0  0  0  0
 17 18  2  0  0  0  0
 17 19  1  0  0  0  0
M  END
> <s_m_source_file>
AV-unprocessed.smi

> <i_m_source_file_index>
1180

> <i_lp_mmshare_version>
43012

> <i_f3d_flags>
0

> <s_epik_input>
W0NIM11jMW5jKFtDSDNdKWMoYyg9TylbbkhdMSlbQ0gyXUMoPU8pW05IXVtDSDJdW0NAQEhdMltDSDJdW0NIMl1PW0NIMl0y

> <s_epik_cmdline>
J2VwaWtfcHl0aG9uJywgJy1waCcsICc3LjAnLCAnLXRuJywgJzgnLCAnLW1hJywgJzIwMCcsICctbWV0YWxfYmluZGluZycsICctaW1hZScsICc8aW5maWxlLm1hZT4nLCAnLW9tYWUnLCAnPG91dGZpbGUubWFlPic=

> <r_lp_tautomer_probability>
0.156392

> <r_epik_Ionization_Penalty>
0.014237

> <r_epik_Ionization_Penalty_Charging>
0.0141173

> <r_epik_Ionization_Penalty_Neutral>
0.000119724

> <r_epik_State_Penalty>
1.52876

> <r_epik_Charging_Adjusted_Penalty>
1.54288

> <i_epik_Tot_Q>
0

> <i_epik_Tot_abs_Q>
0

> <r_epik_Metal_State_Penalty>
1.70686

> <b_epik_Metal_Only>
0

> <s_lp_Force_Field>
OPLS_2005

> <r_lp_Energy>
24.076

> <b_lp_Chiralities_Consistent>
1

> <s_lp_Variant>
AV-unprocessed.smi:1180-3

> <Gold.Version>
5.8.1

> <Gold.Id.Protein>
6NUR|6NUR_protein|mol2

> <Gold.PLP.Fitness>
41.0014

> <Gold.PLP.PLP>
-36.4562

> <Gold.PLP.part.hbond>
-2.5550

> <Gold.PLP.part.metal>
0.0000

> <Gold.PLP.part.buried>
-3.1725

> <Gold.PLP.part.nonpolar>
-29.9286

> <Gold.PLP.part.repulsive>
0.3854

> <Gold.PLP.ligand.clash>
0.0000

> <Gold.PLP.ligand.torsion>
0.6705

> <Gold.PLP.Chemscore.Hbond>
1.9600

> <Gold.PLP.Chemscore.CHOScore>
0.0000

> <Gold.PLP.Chemscore.Metal>
0.0000

> <Gold.Chemscore.Hbonds>
donor molecule, donor type, donor heavy atom, donor atom, acceptor molecule, acceptor atom, score
      P1  H  7997  8009       L1    18  0.93
      P1  H 10752 10763       L1    19  1.00

> <Gold.PLP.Chemscore.Internal.Correction>
0.0062

> <Gold.Rescore>
     Score         DG    S(hbond)    S(metal)    S(lipo)     H(rot)  DE(clash)    DE(int)     intcor
     15.80     -16.49       1.58        0.00      88.59       1.81       0.06       0.62       ----

> <Gold.Chemscore.Fitness>
15.8042

> <Gold.Chemscore.DG>
-16.4870

> <Gold.Chemscore.ZeroCoef>
-5.4800

> <Gold.Chemscore.Hbond>
1.5768

> <Gold.Chemscore.Metal>
0.0000

> <Gold.Chemscore.Lipo>
88.5896

> <Gold.Chemscore.Internal_Hbond>
0.0000

> <Gold.Chemscore.DEClash>
0.0604

> <Gold.Chemscore.DEInternal>
0.6224

> <Gold.Chemscore.Rot>
1.8065

> <Gold.Chemscore.Internal.Correction>
   9.000000E+99

> <Gold.Chemscore.Hbonds>
donor molecule, donor type, donor heavy atom, donor atom, acceptor molecule, acceptor atom, score
      P1  H  7997  8009       L1    18  0.88
      P1  H 10752 10763       L1    19  0.43

> <Gold.Chemscore.Hbond.Weighted>
-5.2666

> <Gold.Chemscore.Metal.Weighted>
-0.0000

> <Gold.Chemscore.Lipo.Weighted>
-10.3650

> <Gold.Chemscore.Internal_Hbond.Weighted>
0.0000

> <Gold.Chemscore.DEClash.Weighted>
0.0604

> <Gold.Chemscore.DEInternal.Weighted>
0.6224

> <Gold.Chemscore.Rot.Weighted>
4.6246

> <Gold.Chemscore.Internal.Correction.Weighted>
   9.000000E+99

> <Gold.Protein.RotatedTorsions>
[ 6907 6896 6895 6894 ] final  -99.68 input  -60.11 | X-H torsion
[ 7974 7965 7964 7962 ] final -161.34 input  175.53 | X-H torsion
[ 8008 7997 7996 7995 ] final -178.13 input   59.86 | X-H torsion
[ 10167 10162 10161 10158 ] final   36.09 input  -65.29 | X-H torsion
[ 10718 10713 10712 10709 ] final  -92.84 input   66.30 | X-H torsion
[ 10763 10752 10751 10750 ] final   87.65 input  -60.55 | X-H torsion
[ 11005 11000 10999 10996 ] final  -49.24 input  -57.11 | X-H torsion

> <Gold.Protein.ActiveResidues>
 VAL166  LYS551  ARG553  GLY616  TRP617  ASP618  TYR619  PRO620  LYS621  CYS622 
 ASP623  PHE694  ASN695  SER759  ASP760  ASP761  ALA762  ILE779  LEU786  VAL792 
 PHE793  MET794  SER795  GLU796  ALA797  LYS798  CYS799  TRP800  GLU811  SER814 

> <Gold.Protein.RotatedAtoms>
  150.7089  134.1003  159.3963 H   0  0  0  0  0  0  0  0  0  0  0  0  # atno 6907 bound_to 6896
  151.8989  135.0384  160.0514 H   0  0  0  0  0  0  0  0  0  0  0  0  # atno 6908 bound_to 6896
  152.2430  133.5116  159.5318 H   0  0  0  0  0  0  0  0  0  0  0  0  # atno 6909 bound_to 6896
  144.7394  140.3411  143.6134 H   0  0  0  0  0  0  0  0  0  0  0  0  # atno 7974 bound_to 7965
  156.0151  140.1249  157.0414 H   0  0  0  0  0  0  0  0  0  0  0  0  # atno 8008 bound_to 7997
  154.4290  140.1080  156.5955 H   0  0  0  0  0  0  0  0  0  0  0  0  # atno 8009 bound_to 7997
  155.6024  140.3470  155.4600 H   0  0  0  0  0  0  0  0  0  0  0  0  # atno 8010 bound_to 7997
  140.4160  144.1526  150.6143 H   0  0  0  0  0  0  0  0  0  0  0  0  # atno 10167 bound_to 10162
  156.0006  130.5003  150.5686 H   0  0  0  0  0  0  0  0  0  0  0  0  # atno 10718 bound_to 10713
  153.1689  135.4536  154.9876 H   0  0  0  0  0  0  0  0  0  0  0  0  # atno 10763 bound_to 10752
  154.7952  135.3235  154.7686 H   0  0  0  0  0  0  0  0  0  0  0  0  # atno 10764 bound_to 10752
  153.8165  135.6950  153.4888 H   0  0  0  0  0  0  0  0  0  0  0  0  # atno 10765 bound_to 10752
  141.0748  133.6669  156.3557 H   0  0  0  0  0  0  0  0  0  0  0  0  # atno 11005 bound_to 11000
  145.7373  139.1753  143.2396 LP  0  0  0  0  0  0  0  0  0  0  0  0  # atno 17320 bound_to 7965
  146.1161  140.7368  142.9480 LP  0  0  0  0  0  0  0  0  0  0  0  0  # atno 17321 bound_to 7965
  140.4586  143.2458  151.9251 LP  0  0  0  0  0  0  0  0  0  0  0  0  # atno 17342 bound_to 10162
  139.4782  144.5491  151.8414 LP  0  0  0  0  0  0  0  0  0  0  0  0  # atno 17343 bound_to 10162
  157.3584  131.0745  151.1656 LP  0  0  0  0  0  0  0  0  0  0  0  0  # atno 17370 bound_to 10713
  157.2449  130.6587  149.5906 LP  0  0  0  0  0  0  0  0  0  0  0  0  # atno 17371 bound_to 10713
  140.5597  134.5946  157.5430 LP  0  0  0  0  0  0  0  0  0  0  0  0  # atno 17394 bound_to 11000
  139.9560  134.7534  156.0340 LP  0  0  0  0  0  0  0  0  0  0  0  0  # atno 17395 bound_to 11000

$$$$
