AV-unprocessed.smi:316|AV-procd|sdf|2325|dock7
  -GOLD-   2262022223D 1   1.00000     0.00000
 Structure written by MMmdl.
 43 44  0  0  0  0  0  0  0  0  2 V2000
  148.6120  141.2138  154.2033 C   0  0  0  0  0  0  0  0  0  0  0  0
  148.8305  139.9462  154.8833 N   0  0  0  0  0  0  0  0  0  0  0  0
  150.0372  139.4691  155.2199 C   0  0  0  0  0  0  0  0  0  0  0  0
  151.0869  140.0677  154.9821 O   0  0  0  0  0  0  0  0  0  0  0  0
  150.0491  138.1146  155.9361 C   0  0  0  0  0  0  0  0  0  0  0  0
  150.9746  137.0783  155.2674 C   0  0  0  0  0  0  0  0  0  0  0  0
  150.2211  136.1216  154.4645 N   0  0  0  0  0  0  0  0  0  0  0  0
  150.1309  134.8090  154.7198 C   0  0  0  0  0  0  0  0  0  0  0  0
  150.6742  134.2618  155.6793 O   0  0  0  0  0  0  0  0  0  0  0  0
  149.3613  134.1859  153.8118 N   0  0  0  0  0  0  0  0  0  0  0  0
  148.9853  132.8133  153.7865 C   0  0  0  0  0  0  0  0  0  0  0  0
  149.7232  131.8405  154.5088 C   0  0  0  0  0  0  0  0  0  0  0  0
  149.3749  130.4803  154.4135 C   0  0  0  0  0  0  0  0  0  0  0  0
  148.3039  130.1094  153.5831 C   0  0  0  0  0  0  0  0  0  0  0  0
  147.6299  131.0564  152.8985 N   0  3  0  0  0  0  0  0  0  0  0  0
  147.9066  132.3831  152.9602 C   0  0  0  0  0  0  0  0  0  0  0  0
  147.1044  133.2603  152.1949 N   0  0  0  0  0  0  0  0  0  0  0  0
  146.2180  132.7380  151.1614 C   0  0  0  0  0  0  0  0  0  0  0  0
  145.2846  133.8957  150.8183 C   0  0  0  0  0  0  0  0  0  0  0  0
  145.1090  134.5864  152.1674 C   0  0  0  0  0  0  0  0  0  0  0  0
  146.4661  134.3963  152.8529 C   0  0  0  0  0  0  0  0  0  0  0  0
  147.5472  141.3595  154.0217 H   0  0  0  0  0  0  0  0  0  0  0  0
  149.1278  141.2344  153.2422 H   0  0  0  0  0  0  0  0  0  0  0  0
  148.9717  142.0458  154.8101 H   0  0  0  0  0  0  0  0  0  0  0  0
  148.0137  139.3998  155.1156 H   0  0  0  0  0  0  0  0  0  0  0  0
  150.3537  138.2805  156.9702 H   0  0  0  0  0  0  0  0  0  0  0  0
  149.0299  137.7262  155.9676 H   0  0  0  0  0  0  0  0  0  0  0  0
  151.6839  137.5796  154.6076 H   0  0  0  0  0  0  0  0  0  0  0  0
  151.5668  136.5464  156.0145 H   0  0  0  0  0  0  0  0  0  0  0  0
  149.7405  136.4872  153.6554 H   0  0  0  0  0  0  0  0  0  0  0  0
  148.9053  134.7772  153.1322 H   0  0  0  0  0  0  0  0  0  0  0  0
  150.5695  132.1157  155.1204 H   0  0  0  0  0  0  0  0  0  0  0  0
  149.9304  129.7322  154.9600 H   0  0  0  0  0  0  0  0  0  0  0  0
  147.9701  129.0917  153.4425 H   0  0  0  0  0  0  0  0  0  0  0  0
  146.7774  132.3968  150.2898 H   0  0  0  0  0  0  0  0  0  0  0  0
  145.6349  131.9002  151.5465 H   0  0  0  0  0  0  0  0  0  0  0  0
  145.7703  134.5724  150.1139 H   0  0  0  0  0  0  0  0  0  0  0  0
  144.3423  133.5668  150.3794 H   0  0  0  0  0  0  0  0  0  0  0  0
  144.8231  135.6348  152.0762 H   0  0  0  0  0  0  0  0  0  0  0  0
  144.3337  134.0763  152.7406 H   0  0  0  0  0  0  0  0  0  0  0  0
  146.3498  134.2394  153.9262 H   0  0  0  0  0  0  0  0  0  0  0  0
  147.0852  135.2813  152.7035 H   0  0  0  0  0  0  0  0  0  0  0  0
  146.8585  130.7552  152.3030 H   0  0  0  0  0  0  0  0  0  0  0  0
  1  2  1  0  0  0  0
  1 22  1  0  0  0  0
  1 23  1  0  0  0  0
  1 24  1  0  0  0  0
  2  3  1  0  0  0  0
  2 25  1  0  0  0  0
  3  4  2  0  0  0  0
  3  5  1  0  0  0  0
  5  6  1  0  0  0  0
  5 26  1  0  0  0  0
  5 27  1  0  0  0  0
  6  7  1  0  0  0  0
  6 28  1  0  0  0  0
  6 29  1  0  0  0  0
  7  8  1  0  0  0  0
  7 30  1  0  0  0  0
  8  9  2  0  0  0  0
  8 10  1  0  0  0  0
 10 11  1  0  0  0  0
 10 31  1  0  0  0  0
 11 16  1  0  0  0  0
 11 12  2  0  0  0  0
 12 13  1  0  0  0  0
 12 32  1  0  0  0  0
 13 14  2  0  0  0  0
 13 33  1  0  0  0  0
 14 15  1  0  0  0  0
 14 34  1  0  0  0  0
 15 16  2  0  0  0  0
 15 43  1  0  0  0  0
 16 17  1  0  0  0  0
 17 21  1  0  0  0  0
 17 18  1  0  0  0  0
 18 19  1  0  0  0  0
 18 35  1  0  0  0  0
 18 36  1  0  0  0  0
 19 20  1  0  0  0  0
 19 37  1  0  0  0  0
 19 38  1  0  0  0  0
 20 21  1  0  0  0  0
 20 39  1  0  0  0  0
 20 40  1  0  0  0  0
 21 41  1  0  0  0  0
 21 42  1  0  0  0  0
M  CHG  1  15   1
M  END
> <s_m_source_file>
AV-unprocessed.smi

> <i_m_source_file_index>
316

> <i_lp_mmshare_version>
43012

> <i_f3d_flags>
0

> <s_epik_input>
W0NIM11bTkhdQyg9TylbQ0gyXVtDSDJdW05IXUMoPU8pW05IXWMxW2NIXVtjSF1bY0hdbmMxTjJbQ0gyXVtDSDJdW0NIMl1bQ0gyXTI=

> <s_epik_cmdline>
J2VwaWtfcHl0aG9uJywgJy1waCcsICc3LjAnLCAnLXRuJywgJzgnLCAnLW1hJywgJzIwMCcsICctbWV0YWxfYmluZGluZycsICctaW1hZScsICc8aW5maWxlLm1hZT4nLCAnLW9tYWUnLCAnPG91dGZpbGUubWFlPic=

> <r_lp_tautomer_probability>
0.999994

> <r_epik_Ionization_Penalty>
1.15434

> <r_epik_Ionization_Penalty_Charging>
1.15432

> <r_epik_Ionization_Penalty_Neutral>
1.92607e-05

> <r_epik_State_Penalty>
1.21599

> <r_epik_Charging_Adjusted_Penalty>
2.37031

> <i_epik_Tot_Q>
1

> <i_epik_Tot_abs_Q>
1

> <r_epik_Metal_State_Penalty>
1.29606

> <b_epik_Metal_Only>
0

> <s_lp_Force_Field>
OPLS_2005

> <r_lp_Energy>
36.337

> <b_lp_Chiralities_Consistent>
1

> <s_lp_Variant>
AV-unprocessed.smi:316-2

> <Gold.Version>
5.8.1

> <Gold.Id.Protein>
6NUR|6NUR_protein|mol2

> <Gold.PLP.Fitness>
41.5738

> <Gold.PLP.PLP>
-33.8995

> <Gold.PLP.part.hbond>
-4.7996

> <Gold.PLP.part.metal>
0.0000

> <Gold.PLP.part.buried>
-3.5295

> <Gold.PLP.part.nonpolar>
-25.9488

> <Gold.PLP.part.repulsive>
0.4199

> <Gold.PLP.ligand.clash>
0.0000

> <Gold.PLP.ligand.torsion>
0.6275

> <Gold.PLP.Chemscore.Hbond>
2.8432

> <Gold.PLP.Chemscore.CHOScore>
0.0000

> <Gold.PLP.Chemscore.Metal>
0.0000

> <Gold.Chemscore.Hbonds>
donor molecule, donor type, donor heavy atom, donor atom, acceptor molecule, acceptor atom, score
      L1  H     7    30       P1  7948  0.99
      L1  H    10    31       P1  7948  0.84
      P1  H  7989  7998       L1     4  1.00

> <Gold.PLP.Chemscore.Internal.Correction>
0.3996

> <Gold.Rescore>
     Score         DG    S(hbond)    S(metal)    S(lipo)     H(rot)  DE(clash)    DE(int)     intcor
     12.00     -14.02       2.01        0.00      58.95       1.98       0.04       1.98       ----

> <Gold.Chemscore.Fitness>
12.0026

> <Gold.Chemscore.DG>
-14.0210

> <Gold.Chemscore.ZeroCoef>
-5.4800

> <Gold.Chemscore.Hbond>
2.0067

> <Gold.Chemscore.Metal>
0.0000

> <Gold.Chemscore.Lipo>
58.9510

> <Gold.Chemscore.Internal_Hbond>
0.0000

> <Gold.Chemscore.DEClash>
0.0396

> <Gold.Chemscore.DEInternal>
1.9788

> <Gold.Chemscore.Rot>
1.9760

> <Gold.Chemscore.Internal.Correction>
   9.000000E+99

> <Gold.Chemscore.Hbonds>
donor molecule, donor type, donor heavy atom, donor atom, acceptor molecule, acceptor atom, score
      L1  H     7    30       P1  7948  0.42
      L1  H    10    31       P1  7948  0.14
      P1  H  7989  7998       L1     4  1.00

> <Gold.Chemscore.Hbond.Weighted>
-6.7023

> <Gold.Chemscore.Metal.Weighted>
-0.0000

> <Gold.Chemscore.Lipo.Weighted>
-6.8973

> <Gold.Chemscore.Internal_Hbond.Weighted>
0.0000

> <Gold.Chemscore.DEClash.Weighted>
0.0396

> <Gold.Chemscore.DEInternal.Weighted>
1.9788

> <Gold.Chemscore.Rot.Weighted>
5.0585

> <Gold.Chemscore.Internal.Correction.Weighted>
   9.000000E+99

> <Gold.Protein.RotatedTorsions>
[ 6907 6896 6895 6894 ] final    1.47 input  -60.11 | X-H torsion
[ 7974 7965 7964 7962 ] final   -0.75 input  175.53 | X-H torsion
[ 8008 7997 7996 7995 ] final -123.98 input   59.86 | X-H torsion
[ 10167 10162 10161 10158 ] final  -45.09 input  -65.29 | X-H torsion
[ 10718 10713 10712 10709 ] final  -38.49 input   66.30 | X-H torsion
[ 10763 10752 10751 10750 ] final -138.92 input  -60.55 | X-H torsion
[ 11005 11000 10999 10996 ] final   96.26 input  -57.11 | X-H torsion

> <Gold.Protein.ActiveResidues>
 VAL166  LYS551  ARG553  GLY616  TRP617  ASP618  TYR619  PRO620  LYS621  CYS622 
 ASP623  PHE694  ASN695  SER759  ASP760  ASP761  ALA762  ILE779  LEU786  VAL792 
 PHE793  MET794  SER795  GLU796  ALA797  LYS798  CYS799  TRP800  GLU811  SER814 

> <Gold.Protein.RotatedAtoms>
  151.5931  135.1052  160.0043 H   0  0  0  0  0  0  0  0  0  0  0  0  # atno 6907 bound_to 6896
  152.4296  133.7250  159.6566 H   0  0  0  0  0  0  0  0  0  0  0  0  # atno 6908 bound_to 6896
  150.8187  133.8219  159.3171 H   0  0  0  0  0  0  0  0  0  0  0  0  # atno 6909 bound_to 6896
  146.2424  140.1316  142.8337 H   0  0  0  0  0  0  0  0  0  0  0  0  # atno 7974 bound_to 7965
  155.1894  140.0413  157.2897 H   0  0  0  0  0  0  0  0  0  0  0  0  # atno 8008 bound_to 7997
  154.6149  140.2486  155.7594 H   0  0  0  0  0  0  0  0  0  0  0  0  # atno 8009 bound_to 7997
  156.2401  140.2907  156.0429 H   0  0  0  0  0  0  0  0  0  0  0  0  # atno 8010 bound_to 7997
  140.6872  143.2897  151.3588 H   0  0  0  0  0  0  0  0  0  0  0  0  # atno 10167 bound_to 10162
  156.3032  130.4243  149.8123 H   0  0  0  0  0  0  0  0  0  0  0  0  # atno 10718 bound_to 10713
  154.8624  135.3597  154.5463 H   0  0  0  0  0  0  0  0  0  0  0  0  # atno 10763 bound_to 10752
  153.6083  135.7010  153.5362 H   0  0  0  0  0  0  0  0  0  0  0  0  # atno 10764 bound_to 10752
  153.3231  135.4145  155.1394 H   0  0  0  0  0  0  0  0  0  0  0  0  # atno 10765 bound_to 10752
  139.8783  134.8942  156.4133 H   0  0  0  0  0  0  0  0  0  0  0  0  # atno 11005 bound_to 11000
  145.0321  140.8879  143.5103 LP  0  0  0  0  0  0  0  0  0  0  0  0  # atno 17320 bound_to 7965
  145.1382  139.2589  143.5504 LP  0  0  0  0  0  0  0  0  0  0  0  0  # atno 17321 bound_to 7965
  139.6240  144.0850  152.2418 LP  0  0  0  0  0  0  0  0  0  0  0  0  # atno 17342 bound_to 10162
  140.0303  144.6085  150.7493 LP  0  0  0  0  0  0  0  0  0  0  0  0  # atno 17343 bound_to 10162
  156.5493  130.8335  151.3294 LP  0  0  0  0  0  0  0  0  0  0  0  0  # atno 17370 bound_to 10713
  157.7373  130.9793  150.2185 LP  0  0  0  0  0  0  0  0  0  0  0  0  # atno 17371 bound_to 10713
  140.9185  133.7661  155.9877 LP  0  0  0  0  0  0  0  0  0  0  0  0  # atno 17394 bound_to 11000
  140.8466  134.3003  157.5292 LP  0  0  0  0  0  0  0  0  0  0  0  0  # atno 17395 bound_to 11000

$$$$
