AV-unprocessed.smi:1320|AV-procd|sdf|5460|dock7
  -GOLD-   22720 5 33D 1   1.00000     0.00000
 Structure written by MMmdl.
 36 37  0  0  0  0  0  0  0  0  1 V2000
  146.6678  137.3680  153.8186 O   0  0  0  0  0  0  0  0  0  0  0  0
  145.7797  138.1090  153.4014 C   0  0  0  0  0  0  0  0  0  0  0  0
  144.7052  137.6724  152.7211 N   0  0  0  0  0  0  0  0  0  0  0  0
  144.4503  136.2876  152.3323 C   0  0  0  0  0  0  0  0  0  0  0  0
  145.6568  135.6393  151.6246 C   0  0  0  0  0  0  0  0  0  0  0  0
  145.3990  134.2225  151.1381 C   0  0  0  0  0  0  0  0  0  0  0  0
  144.1007  133.6727  151.1904 C   0  0  0  0  0  0  0  0  0  0  0  0
  143.9168  132.3443  150.7605 C   0  0  0  0  0  0  0  0  0  0  0  0
  145.0324  131.6203  150.2975 C   0  0  0  0  0  0  0  0  0  0  0  0
  146.2878  132.2600  150.2845 C   0  0  0  0  0  0  0  0  0  0  0  0
  146.4750  133.5332  150.6935 N   0  0  0  0  0  0  0  0  0  0  0  0
  145.8181  139.4392  153.5961 N   0  0  0  0  0  0  0  0  0  0  0  0
  146.8428  140.2207  154.2922 C   0  0  0  0  0  0  0  0  0  0  0  0
  146.2276  140.9926  155.4754 C   0  0  0  0  0  0  0  0  0  0  0  0
  146.7522  142.4249  155.3661 C   0  0  0  0  0  0  0  0  0  0  0  0
  146.9599  142.6361  153.8703 C   0  0  0  0  0  0  0  0  0  0  0  0
  147.4713  141.2850  153.3689 C   0  0  0  0  0  0  0  0  0  0  0  0
  144.0277  138.3590  152.4224 H   0  0  0  0  0  0  0  0  0  0  0  0
  144.1655  135.6893  153.1993 H   0  0  0  0  0  0  0  0  0  0  0  0
  143.5890  136.2775  151.6643 H   0  0  0  0  0  0  0  0  0  0  0  0
  145.9535  136.2542  150.7742 H   0  0  0  0  0  0  0  0  0  0  0  0
  146.5137  135.6308  152.3000 H   0  0  0  0  0  0  0  0  0  0  0  0
  143.2668  134.2509  151.5603 H   0  0  0  0  0  0  0  0  0  0  0  0
  142.9384  131.8878  150.7883 H   0  0  0  0  0  0  0  0  0  0  0  0
  144.9293  130.5991  149.9619 H   0  0  0  0  0  0  0  0  0  0  0  0
  147.1654  131.7351  149.9375 H   0  0  0  0  0  0  0  0  0  0  0  0
  145.0311  139.9656  153.2452 H   0  0  0  0  0  0  0  0  0  0  0  0
  147.6228  139.5585  154.6726 H   0  0  0  0  0  0  0  0  0  0  0  0
  145.1388  141.0088  155.4005 H   0  0  0  0  0  0  0  0  0  0  0  0
  146.4757  140.5402  156.4361 H   0  0  0  0  0  0  0  0  0  0  0  0
  146.0725  143.1561  155.8046 H   0  0  0  0  0  0  0  0  0  0  0  0
  147.7089  142.5068  155.8837 H   0  0  0  0  0  0  0  0  0  0  0  0
  146.0048  142.8671  153.3963 H   0  0  0  0  0  0  0  0  0  0  0  0
  147.6476  143.4536  153.6520 H   0  0  0  0  0  0  0  0  0  0  0  0
  148.5568  141.2508  153.4708 H   0  0  0  0  0  0  0  0  0  0  0  0
  147.2457  141.1334  152.3123 H   0  0  0  0  0  0  0  0  0  0  0  0
  1  2  2  0  0  0  0
  2  3  1  0  0  0  0
  2 12  1  0  0  0  0
  3  4  1  0  0  0  0
  3 18  1  0  0  0  0
  4  5  1  0  0  0  0
  4 19  1  0  0  0  0
  4 20  1  0  0  0  0
  5  6  1  0  0  0  0
  5 21  1  0  0  0  0
  5 22  1  0  0  0  0
  6 11  1  0  0  0  0
  6  7  2  0  0  0  0
  7  8  1  0  0  0  0
  7 23  1  0  0  0  0
  8  9  2  0  0  0  0
  8 24  1  0  0  0  0
  9 10  1  0  0  0  0
  9 25  1  0  0  0  0
 10 11  2  0  0  0  0
 10 26  1  0  0  0  0
 12 13  1  0  0  0  0
 12 27  1  0  0  0  0
 13 17  1  0  0  0  0
 13 14  1  0  0  0  0
 13 28  1  0  0  0  0
 14 15  1  0  0  0  0
 14 29  1  0  0  0  0
 14 30  1  0  0  0  0
 15 16  1  0  0  0  0
 15 31  1  0  0  0  0
 15 32  1  0  0  0  0
 16 17  1  0  0  0  0
 16 33  1  0  0  0  0
 16 34  1  0  0  0  0
 17 35  1  0  0  0  0
 17 36  1  0  0  0  0
M  END
> <s_m_source_file>
AV-unprocessed.smi

> <i_m_source_file_index>
1320

> <i_lp_mmshare_version>
43012

> <i_f3d_flags>
0

> <s_epik_input>
W0NIMl0xW0NIMl1bQ0gyXVtDSDJdW0NIXTFbTkhdQyg9TylbTkhdW0NIMl1bQ0gyXWMyW2NIXVtjSF1bY0hdW2NIXW4y

> <s_epik_cmdline>
J2VwaWtfcHl0aG9uJywgJy1waCcsICc3LjAnLCAnLXRuJywgJzgnLCAnLW1hJywgJzIwMCcsICctbWV0YWxfYmluZGluZycsICctaW1hZScsICc8aW5maWxlLm1hZT4nLCAnLW9tYWUnLCAnPG91dGZpbGUubWFlPic=

> <r_epik_Ionization_Penalty>
0.0441051

> <r_epik_Ionization_Penalty_Charging>
0

> <r_epik_Ionization_Penalty_Neutral>
0.0441051

> <r_epik_State_Penalty>
0.0373009

> <r_epik_Charging_Adjusted_Penalty>
0.0373009

> <i_epik_Tot_Q>
0

> <i_epik_Tot_abs_Q>
0

> <r_epik_Metal_State_Penalty>
0.0347078

> <b_epik_Metal_Only>
0

> <s_lp_Force_Field>
OPLS_2005

> <r_lp_Energy>
26.6462

> <b_lp_Chiralities_Consistent>
1

> <s_lp_Variant>
AV-unprocessed.smi:1320-1

> <Gold.Version>
5.8.1

> <Gold.Id.Protein>
6NUR|6NUR_protein|mol2

> <Gold.PLP.Fitness>
39.3976

> <Gold.PLP.PLP>
-31.1913

> <Gold.PLP.part.hbond>
-2.9818

> <Gold.PLP.part.metal>
0.0000

> <Gold.PLP.part.buried>
-2.7710

> <Gold.PLP.part.nonpolar>
-25.6521

> <Gold.PLP.part.repulsive>
0.6210

> <Gold.PLP.ligand.clash>
0.0000

> <Gold.PLP.ligand.torsion>
0.1233

> <Gold.PLP.Chemscore.Hbond>
1.8160

> <Gold.PLP.Chemscore.CHOScore>
1.0000

> <Gold.PLP.Chemscore.Metal>
0.0000

> <Gold.Chemscore.Hbonds>
donor molecule, donor type, donor heavy atom, donor atom, acceptor molecule, acceptor atom, score
      L1  H     3    18       P1 10175  0.68
      L1  H    12    27       P1 10175  1.00
      L1  C    10    26       P1 10747  0.99

> <Gold.PLP.Chemscore.Internal.Correction>
0.0049

> <Gold.Rescore>
     Score         DG    S(hbond)    S(metal)    S(lipo)     H(rot)  DE(clash)    DE(int)     intcor
     15.64     -17.37       1.88        0.00      80.78       1.51       0.10       1.63       ----

> <Gold.Chemscore.Fitness>
15.6352

> <Gold.Chemscore.DG>
-17.3655

> <Gold.Chemscore.ZeroCoef>
-5.4800

> <Gold.Chemscore.Hbond>
1.8831

> <Gold.Chemscore.Metal>
0.0000

> <Gold.Chemscore.Lipo>
80.7794

> <Gold.Chemscore.Internal_Hbond>
0.0000

> <Gold.Chemscore.DEClash>
0.1015

> <Gold.Chemscore.DEInternal>
1.6288

> <Gold.Chemscore.Rot>
1.5060

> <Gold.Chemscore.Internal.Correction>
   9.000000E+99

> <Gold.Chemscore.Hbonds>
donor molecule, donor type, donor heavy atom, donor atom, acceptor molecule, acceptor atom, score
      L1  H     3    18       P1 10175  0.65
      L1  H    12    27       P1 10175  1.00

> <Gold.Chemscore.Hbond.Weighted>
-6.2896

> <Gold.Chemscore.Metal.Weighted>
-0.0000

> <Gold.Chemscore.Lipo.Weighted>
-9.4512

> <Gold.Chemscore.Internal_Hbond.Weighted>
0.0000

> <Gold.Chemscore.DEClash.Weighted>
0.1015

> <Gold.Chemscore.DEInternal.Weighted>
1.6288

> <Gold.Chemscore.Rot.Weighted>
3.8553

> <Gold.Chemscore.Internal.Correction.Weighted>
   9.000000E+99

> <Gold.Protein.RotatedTorsions>
[ 6907 6896 6895 6894 ] final  126.51 input  -60.11 | X-H torsion
[ 7974 7965 7964 7962 ] final -123.01 input  175.53 | X-H torsion
[ 8008 7997 7996 7995 ] final   53.44 input   59.86 | X-H torsion
[ 10167 10162 10161 10158 ] final   45.86 input  -65.29 | X-H torsion
[ 10718 10713 10712 10709 ] final  -36.33 input   66.30 | X-H torsion
[ 10763 10752 10751 10750 ] final   97.28 input  -60.55 | X-H torsion
[ 11005 11000 10999 10996 ] final  107.70 input  -57.11 | X-H torsion

> <Gold.Protein.ActiveResidues>
 VAL166  LYS551  ARG553  GLY616  TRP617  ASP618  TYR619  PRO620  LYS621  CYS622 
 ASP623  PHE694  ASN695  SER759  ASP760  ASP761  ALA762  ILE779  LEU786  VAL792 
 PHE793  MET794  SER795  GLU796  ALA797  LYS798  CYS799  TRP800  GLU811  SER814 

> <Gold.Protein.RotatedAtoms>
  152.3897  133.6661  159.6227 H   0  0  0  0  0  0  0  0  0  0  0  0  # atno 6907 bound_to 6896
  150.7808  133.8976  159.3340 H   0  0  0  0  0  0  0  0  0  0  0  0  # atno 6908 bound_to 6896
  151.6765  135.0970  160.0259 H   0  0  0  0  0  0  0  0  0  0  0  0  # atno 6909 bound_to 6896
  145.0233  140.8006  143.4368 H   0  0  0  0  0  0  0  0  0  0  0  0  # atno 7974 bound_to 7965
  155.4683  140.3464  155.4322 H   0  0  0  0  0  0  0  0  0  0  0  0  # atno 8008 bound_to 7997
  156.1117  140.1462  156.9358 H   0  0  0  0  0  0  0  0  0  0  0  0  # atno 8009 bound_to 7997
  154.4761  140.0885  156.7243 H   0  0  0  0  0  0  0  0  0  0  0  0  # atno 8010 bound_to 7997
  140.3198  144.2719  150.6184 H   0  0  0  0  0  0  0  0  0  0  0  0  # atno 10167 bound_to 10162
  156.3281  130.4275  149.7897 H   0  0  0  0  0  0  0  0  0  0  0  0  # atno 10718 bound_to 10713
  153.2750  135.4189  155.1024 H   0  0  0  0  0  0  0  0  0  0  0  0  # atno 10763 bound_to 10752
  154.8469  135.3481  154.6191 H   0  0  0  0  0  0  0  0  0  0  0  0  # atno 10764 bound_to 10752
  153.6612  135.7048  153.5234 H   0  0  0  0  0  0  0  0  0  0  0  0  # atno 10765 bound_to 10752
  139.8832  134.9409  156.5860 H   0  0  0  0  0  0  0  0  0  0  0  0  # atno 11005 bound_to 11000
  145.1867  139.2322  143.5264 LP  0  0  0  0  0  0  0  0  0  0  0  0  # atno 17320 bound_to 7965
  146.3488  140.1654  142.8590 LP  0  0  0  0  0  0  0  0  0  0  0  0  # atno 17321 bound_to 7965
  140.5493  143.2209  151.7953 LP  0  0  0  0  0  0  0  0  0  0  0  0  # atno 17342 bound_to 10162
  139.4876  144.4497  151.9668 LP  0  0  0  0  0  0  0  0  0  0  0  0  # atno 17343 bound_to 10162
  156.5180  130.8202  151.3193 LP  0  0  0  0  0  0  0  0  0  0  0  0  # atno 17370 bound_to 10713
  157.7425  130.9892  150.2522 LP  0  0  0  0  0  0  0  0  0  0  0  0  # atno 17371 bound_to 10713
  140.7991  133.8520  155.8711 LP  0  0  0  0  0  0  0  0  0  0  0  0  # atno 17394 bound_to 11000
  140.9608  134.1657  157.4655 LP  0  0  0  0  0  0  0  0  0  0  0  0  # atno 17395 bound_to 11000

$$$$
