AV-unprocessed.smi:1680|AV-procd|sdf|6737|dock7
  -GOLD-   22720 7483D 1   1.00000     0.00000
 Structure written by MMmdl.
 38 39  0  0  0  0  0  0  0  0  1 V2000
  153.5070  141.4482  160.6041 C   0  0  0  0  0  0  0  0  0  0  0  0
  153.5214  140.3768  159.5118 C   0  0  0  0  0  0  0  0  0  0  0  0
  154.6007  139.8597  159.2231 O   0  0  0  0  0  0  0  0  0  0  0  0
  152.3602  140.0371  158.9033 N   0  0  0  0  0  0  0  0  0  0  0  0
  152.2142  139.0850  157.7977 C   0  0  0  0  0  0  0  0  0  0  0  0
  151.7161  139.8417  156.5511 C   0  0  0  0  0  0  0  0  0  0  0  0
  150.4328  140.4906  156.8335 N   0  0  0  0  0  0  0  0  0  0  0  0
  149.9532  141.1699  155.6298 C   0  0  0  0  0  0  0  0  0  0  0  0
  148.4285  141.4074  155.6348 C   0  0  0  0  0  0  0  0  0  0  0  0
  148.0338  142.3655  156.6633 N   0  0  0  0  0  0  0  0  0  0  0  0
  147.4801  142.0515  157.8439 C   0  0  0  0  0  0  0  0  0  0  0  0
  147.2740  140.8949  158.2131 O   0  0  0  0  0  0  0  0  0  0  0  0
  147.1836  143.1568  158.5500 N   0  0  0  0  0  0  0  0  0  0  0  0
  146.5521  143.2474  159.8186 C   0  0  0  0  0  0  0  0  0  0  0  0
  145.8732  142.2384  160.3867 N   0  0  0  0  0  0  0  0  0  0  0  0
  145.3524  142.5941  161.6241 N   0  0  0  0  0  0  0  0  0  0  0  0
  145.6575  143.8559  161.9396 C   0  0  0  0  0  0  0  0  0  0  0  0
  146.6148  144.7318  160.7579 S   0  0  0  0  0  0  0  0  0  0  0  0
  150.5802  141.4246  157.9566 C   0  0  0  0  0  0  0  0  0  0  0  0
  151.0757  140.6738  159.2075 C   0  0  0  0  0  0  0  0  0  0  0  0
  152.8778  141.1398  161.4393 H   0  0  0  0  0  0  0  0  0  0  0  0
  153.1384  142.3962  160.2109 H   0  0  0  0  0  0  0  0  0  0  0  0
  154.5129  141.6170  160.9901 H   0  0  0  0  0  0  0  0  0  0  0  0
  153.1336  138.5553  157.5536 H   0  0  0  0  0  0  0  0  0  0  0  0
  151.4962  138.3134  158.0813 H   0  0  0  0  0  0  0  0  0  0  0  0
  152.4530  140.5832  156.2375 H   0  0  0  0  0  0  0  0  0  0  0  0
  151.5958  139.1383  155.7263 H   0  0  0  0  0  0  0  0  0  0  0  0
  150.4830  142.1154  155.5052 H   0  0  0  0  0  0  0  0  0  0  0  0
  150.1964  140.5641  154.7556 H   0  0  0  0  0  0  0  0  0  0  0  0
  148.0546  141.6986  154.6529 H   0  0  0  0  0  0  0  0  0  0  0  0
  147.9303  140.4660  155.8666 H   0  0  0  0  0  0  0  0  0  0  0  0
  148.1678  143.3422  156.4463 H   0  0  0  0  0  0  0  0  0  0  0  0
  147.4170  144.0392  158.1195 H   0  0  0  0  0  0  0  0  0  0  0  0
  145.3170  144.2735  162.8756 H   0  0  0  0  0  0  0  0  0  0  0  0
  151.2778  142.2215  157.6941 H   0  0  0  0  0  0  0  0  0  0  0  0
  149.6265  141.8971  158.1873 H   0  0  0  0  0  0  0  0  0  0  0  0
  150.3525  139.9115  159.5020 H   0  0  0  0  0  0  0  0  0  0  0  0
  151.1378  141.3679  160.0467 H   0  0  0  0  0  0  0  0  0  0  0  0
  1  2  1  0  0  0  0
  1 21  1  0  0  0  0
  1 22  1  0  0  0  0
  1 23  1  0  0  0  0
  2  3  2  0  0  0  0
  2  4  1  0  0  0  0
  4 20  1  0  0  0  0
  4  5  1  0  0  0  0
  5  6  1  0  0  0  0
  5 24  1  0  0  0  0
  5 25  1  0  0  0  0
  6  7  1  0  0  0  0
  6 26  1  0  0  0  0
  6 27  1  0  0  0  0
  7  8  1  0  0  0  0
  7 19  1  0  0  0  0
  8  9  1  0  0  0  0
  8 28  1  0  0  0  0
  8 29  1  0  0  0  0
  9 10  1  0  0  0  0
  9 30  1  0  0  0  0
  9 31  1  0  0  0  0
 10 11  1  0  0  0  0
 10 32  1  0  0  0  0
 11 12  2  0  0  0  0
 11 13  1  0  0  0  0
 13 14  1  0  0  0  0
 13 33  1  0  0  0  0
 14 18  1  0  0  0  0
 14 15  2  0  0  0  0
 15 16  1  0  0  0  0
 16 17  2  0  0  0  0
 17 18  1  0  0  0  0
 17 34  1  0  0  0  0
 19 20  1  0  0  0  0
 19 35  1  0  0  0  0
 19 36  1  0  0  0  0
 20 37  1  0  0  0  0
 20 38  1  0  0  0  0
M  END
> <s_m_source_file>
AV-unprocessed.smi

> <i_m_source_file_index>
1680

> <i_lp_mmshare_version>
43012

> <i_f3d_flags>
0

> <s_epik_input>
W0NIM11DKD1PKU4xW0NIMl1bQ0gyXU4oW0NIMl1bQ0gyXTEpW0NIMl1bQ0gyXVtOSF1DKD1PKVtOSF1jMm5uW2NIXXMy

> <s_epik_cmdline>
J2VwaWtfcHl0aG9uJywgJy1waCcsICc3LjAnLCAnLXRuJywgJzgnLCAnLW1hJywgJzIwMCcsICctbWV0YWxfYmluZGluZycsICctaW1hZScsICc8aW5maWxlLm1hZT4nLCAnLW9tYWUnLCAnPG91dGZpbGUubWFlPic=

> <r_lp_tautomer_probability>
1

> <r_epik_Ionization_Penalty>
0.229992

> <r_epik_Ionization_Penalty_Charging>
0

> <r_epik_Ionization_Penalty_Neutral>
0.229992

> <r_epik_State_Penalty>
0.219013

> <r_epik_Charging_Adjusted_Penalty>
0.219013

> <i_epik_Tot_Q>
0

> <i_epik_Tot_abs_Q>
0

> <r_epik_Metal_State_Penalty>
0.556868

> <b_epik_Metal_Only>
0

> <s_lp_Force_Field>
OPLS_2005

> <r_lp_Energy>
36.5244

> <b_lp_Chiralities_Consistent>
1

> <s_lp_Variant>
AV-unprocessed.smi:1680-1

> <Gold.Version>
5.8.1

> <Gold.Id.Protein>
6NUR|6NUR_protein|mol2

> <Gold.PLP.Fitness>
44.6190

> <Gold.PLP.PLP>
-33.4030

> <Gold.PLP.part.hbond>
-5.4181

> <Gold.PLP.part.metal>
0.0000

> <Gold.PLP.part.buried>
-5.2564

> <Gold.PLP.part.nonpolar>
-23.8039

> <Gold.PLP.part.repulsive>
0.1447

> <Gold.PLP.ligand.clash>
0.0000

> <Gold.PLP.ligand.torsion>
0.4010

> <Gold.PLP.Chemscore.Hbond>
4.0000

> <Gold.PLP.Chemscore.CHOScore>
0.0000

> <Gold.PLP.Chemscore.Metal>
0.0000

> <Gold.Chemscore.Hbonds>
donor molecule, donor type, donor heavy atom, donor atom, acceptor molecule, acceptor atom, score
      L1  H    10    32       P1  8028  1.00
      L1  H    13    33       P1  8029  0.76
      P1  H  6934  6946       L1    15  1.00
      P1  H  7997  8009       L1     3  1.00

> <Gold.PLP.Chemscore.Internal.Correction>
0.0179

> <Gold.Rescore>
     Score         DG    S(hbond)    S(metal)    S(lipo)     H(rot)  DE(clash)    DE(int)     intcor
     13.32     -16.02       2.64        0.00      53.95       1.79       0.00       2.69       ----

> <Gold.Chemscore.Fitness>
13.3175

> <Gold.Chemscore.DG>
-16.0153

> <Gold.Chemscore.ZeroCoef>
-5.4800

> <Gold.Chemscore.Hbond>
2.6383

> <Gold.Chemscore.Metal>
0.0000

> <Gold.Chemscore.Lipo>
53.9521

> <Gold.Chemscore.Internal_Hbond>
0.0000

> <Gold.Chemscore.DEClash>
0.0033

> <Gold.Chemscore.DEInternal>
2.6945

> <Gold.Chemscore.Rot>
1.7926

> <Gold.Chemscore.Internal.Correction>
   9.000000E+99

> <Gold.Chemscore.Hbonds>
donor molecule, donor type, donor heavy atom, donor atom, acceptor molecule, acceptor atom, score
      L1  H    10    32       P1  8028  0.25
      L1  H    13    33       P1  8029  0.23
      P1  H  6934  6946       L1    15  0.37
      P1  H  7997  8009       L1     3  0.91

> <Gold.Chemscore.Hbond.Weighted>
-8.8119

> <Gold.Chemscore.Metal.Weighted>
-0.0000

> <Gold.Chemscore.Lipo.Weighted>
-6.3124

> <Gold.Chemscore.Internal_Hbond.Weighted>
0.0000

> <Gold.Chemscore.DEClash.Weighted>
0.0033

> <Gold.Chemscore.DEInternal.Weighted>
2.6945

> <Gold.Chemscore.Rot.Weighted>
4.5890

> <Gold.Chemscore.Internal.Correction.Weighted>
   9.000000E+99

> <Gold.Protein.RotatedTorsions>
[ 6907 6896 6895 6894 ] final   52.91 input  -60.11 | X-H torsion
[ 7974 7965 7964 7962 ] final -158.87 input  175.53 | X-H torsion
[ 8008 7997 7996 7995 ] final  115.01 input   59.86 | X-H torsion
[ 10167 10162 10161 10158 ] final -133.37 input  -65.29 | X-H torsion
[ 10718 10713 10712 10709 ] final   -1.03 input   66.30 | X-H torsion
[ 10763 10752 10751 10750 ] final  149.68 input  -60.55 | X-H torsion
[ 11005 11000 10999 10996 ] final  102.80 input  -57.11 | X-H torsion

> <Gold.Protein.ActiveResidues>
 VAL166  LYS551  ARG553  GLY616  TRP617  ASP618  TYR619  PRO620  LYS621  CYS622 
 ASP623  PHE694  ASN695  SER759  ASP760  ASP761  ALA762  ILE779  LEU786  VAL792 
 PHE793  MET794  SER795  GLU796  ALA797  LYS798  CYS799  TRP800  GLU811  SER814 

> <Gold.Protein.RotatedAtoms>
  152.3282  134.7294  160.0296 H   0  0  0  0  0  0  0  0  0  0  0  0  # atno 6907 bound_to 6896
  151.7719  133.3336  159.3455 H   0  0  0  0  0  0  0  0  0  0  0  0  # atno 6908 bound_to 6896
  150.7408  134.5942  159.6047 H   0  0  0  0  0  0  0  0  0  0  0  0  # atno 6909 bound_to 6896
  144.7488  140.3765  143.6064 H   0  0  0  0  0  0  0  0  0  0  0  0  # atno 7974 bound_to 7965
  156.2356  140.2947  156.0304 H   0  0  0  0  0  0  0  0  0  0  0  0  # atno 8008 bound_to 7997
  155.2101  140.0412  157.2949 H   0  0  0  0  0  0  0  0  0  0  0  0  # atno 8009 bound_to 7997
  154.6073  140.2442  155.7722 H   0  0  0  0  0  0  0  0  0  0  0  0  # atno 8010 bound_to 7997
  139.8990  143.6631  152.2598 H   0  0  0  0  0  0  0  0  0  0  0  0  # atno 10167 bound_to 10162
  156.8116  130.5426  149.5708 H   0  0  0  0  0  0  0  0  0  0  0  0  # atno 10718 bound_to 10713
  154.0751  135.2863  155.3301 H   0  0  0  0  0  0  0  0  0  0  0  0  # atno 10763 bound_to 10752
  154.6721  135.5295  153.8155 H   0  0  0  0  0  0  0  0  0  0  0  0  # atno 10764 bound_to 10752
  153.0470  135.6560  154.0929 H   0  0  0  0  0  0  0  0  0  0  0  0  # atno 10765 bound_to 10752
  139.8779  134.9238  156.5113 H   0  0  0  0  0  0  0  0  0  0  0  0  # atno 11005 bound_to 11000
  145.7022  139.1664  143.2586 LP  0  0  0  0  0  0  0  0  0  0  0  0  # atno 17320 bound_to 7965
  146.1407  140.7061  142.9368 LP  0  0  0  0  0  0  0  0  0  0  0  0  # atno 17321 bound_to 7965
  139.7042  144.7630  151.1221 LP  0  0  0  0  0  0  0  0  0  0  0  0  # atno 17342 bound_to 10162
  140.7711  143.5417  150.9305 LP  0  0  0  0  0  0  0  0  0  0  0  0  # atno 17343 bound_to 10162
  156.1041  130.5991  150.9942 LP  0  0  0  0  0  0  0  0  0  0  0  0  # atno 17370 bound_to 10713
  157.6503  131.0898  150.8066 LP  0  0  0  0  0  0  0  0  0  0  0  0  # atno 17371 bound_to 10713
  140.8518  133.8126  155.9176 LP  0  0  0  0  0  0  0  0  0  0  0  0  # atno 17394 bound_to 11000
  140.9137  134.2229  157.4970 LP  0  0  0  0  0  0  0  0  0  0  0  0  # atno 17395 bound_to 11000

$$$$
