AV-unprocessed.smi:2040|AV-procd|sdf|8287|dock10
  -GOLD-   2272010553D 1   1.00000     0.00000
 Structure written by MMmdl.
 38 39  0  0  0  0  0  0  0  0  1 V2000
  149.9278  142.2435  155.7790 C   0  0  0  0  0  0  0  0  0  0  0  0
  149.7819  140.9017  155.1242 C   0  0  0  0  0  0  0  0  0  0  0  0
  148.6013  140.3116  154.5861 C   0  0  0  0  0  0  0  0  0  0  0  0
  149.0509  139.1039  154.1262 C   0  0  0  0  0  0  0  0  0  0  0  0
  148.3542  138.1084  153.5163 N   0  0  0  0  0  0  0  0  0  0  0  0
  147.0655  137.7630  153.6819 C   0  0  0  0  0  0  0  0  0  0  0  0
  146.2688  138.3188  154.4383 O   0  0  0  0  0  0  0  0  0  0  0  0
  146.7402  136.7220  152.9018 N   0  0  0  0  0  0  0  0  0  0  0  0
  145.4252  136.0887  152.8413 C   0  0  1  0  0  0  0  0  0  0  0  0
  144.3307  137.1702  152.8330 C   0  0  0  0  0  0  0  0  0  0  0  0
  145.3579  135.1827  151.5970 C   0  0  2  0  0  0  0  0  0  0  0  0
  144.0619  134.3785  151.4580 C   0  0  0  0  0  0  0  0  0  0  0  0
  144.4823  133.1201  150.7118 C   0  0  0  0  0  0  0  0  0  0  0  0
  146.0098  133.1956  150.6800 C   0  0  0  0  0  0  0  0  0  0  0  0
  146.3398  134.1595  151.6678 O   0  0  0  0  0  0  0  0  0  0  0  0
  150.3994  139.0026  154.3869 N   0  0  0  0  0  0  0  0  0  0  0  0
  151.3149  137.9174  154.0934 C   0  0  0  0  0  0  0  0  0  0  0  0
  150.8479  140.1185  155.0017 N   0  0  0  0  0  0  0  0  0  0  0  0
  148.9610  142.7349  155.8901 H   0  0  0  0  0  0  0  0  0  0  0  0
  150.5676  142.9002  155.1892 H   0  0  0  0  0  0  0  0  0  0  0  0
  150.3679  142.1511  156.7723 H   0  0  0  0  0  0  0  0  0  0  0  0
  147.6033  140.7218  154.5554 H   0  0  0  0  0  0  0  0  0  0  0  0
  148.8758  137.5689  152.8414 H   0  0  0  0  0  0  0  0  0  0  0  0
  147.4594  136.3246  152.3155 H   0  0  0  0  0  0  0  0  0  0  0  0
  145.2908  135.4628  153.7256 H   0  0  0  0  0  0  0  0  0  0  0  0
  143.3346  136.7277  152.8263 H   0  0  0  0  0  0  0  0  0  0  0  0
  144.4151  137.8128  151.9559 H   0  0  0  0  0  0  0  0  0  0  0  0
  144.3947  137.8049  153.7174 H   0  0  0  0  0  0  0  0  0  0  0  0
  145.5279  135.7672  150.6902 H   0  0  0  0  0  0  0  0  0  0  0  0
  143.6751  134.1047  152.4407 H   0  0  0  0  0  0  0  0  0  0  0  0
  143.2829  134.9357  150.9367 H   0  0  0  0  0  0  0  0  0  0  0  0
  144.1432  132.2315  151.2457 H   0  0  0  0  0  0  0  0  0  0  0  0
  144.0698  133.0834  149.7029 H   0  0  0  0  0  0  0  0  0  0  0  0
  146.4835  132.2355  150.8853 H   0  0  0  0  0  0  0  0  0  0  0  0
  146.3573  133.5466  149.7071 H   0  0  0  0  0  0  0  0  0  0  0  0
  151.3513  137.7500  153.0167 H   0  0  0  0  0  0  0  0  0  0  0  0
  150.9726  137.0066  154.5850 H   0  0  0  0  0  0  0  0  0  0  0  0
  152.3186  138.1545  154.4486 H   0  0  0  0  0  0  0  0  0  0  0  0
  1  2  1  0  0  0  0
  1 19  1  0  0  0  0
  1 20  1  0  0  0  0
  1 21  1  0  0  0  0
  2 18  2  0  0  0  0
  2  3  1  0  0  0  0
  3  4  2  0  0  0  0
  3 22  1  0  0  0  0
  4  5  1  0  0  0  0
  4 16  1  0  0  0  0
  5  6  1  0  0  0  0
  5 23  1  0  0  0  0
  6  7  2  0  0  0  0
  6  8  1  0  0  0  0
  8  9  1  0  0  0  0
  8 24  1  0  0  0  0
  9 10  1  0  0  0  0
  9 11  1  0  0  0  0
  9 25  1  0  0  0  0
 10 26  1  0  0  0  0
 10 27  1  0  0  0  0
 10 28  1  0  0  0  0
 11 15  1  0  0  0  0
 11 12  1  0  0  0  0
 11 29  1  0  0  0  0
 12 13  1  0  0  0  0
 12 30  1  0  0  0  0
 12 31  1  0  0  0  0
 13 14  1  0  0  0  0
 13 32  1  0  0  0  0
 13 33  1  0  0  0  0
 14 15  1  0  0  0  0
 14 34  1  0  0  0  0
 14 35  1  0  0  0  0
 16 17  1  0  0  0  0
 16 18  1  0  0  0  0
 17 36  1  0  0  0  0
 17 37  1  0  0  0  0
 17 38  1  0  0  0  0
M  END
> <s_m_source_file>
AV-unprocessed.smi

> <i_m_source_file_index>
2040

> <i_lp_mmshare_version>
43012

> <i_f3d_flags>
0

> <s_epik_input>
W0NIM11jMVtjSF1jKG4objEpW0NIM10pW05IXUMoPU8pW05IXVtDQEhdKFtDSDNdKVtDQEBIXTJbQ0gyXVtDSDJdW0NIMl1PMg==

> <s_epik_cmdline>
J2VwaWtfcHl0aG9uJywgJy1waCcsICc3LjAnLCAnLXRuJywgJzgnLCAnLW1hJywgJzIwMCcsICctbWV0YWxfYmluZGluZycsICctaW1hZScsICc8aW5maWxlLm1hZT4nLCAnLW9tYWUnLCAnPG91dGZpbGUubWFlPic=

> <r_lp_tautomer_probability>
1

> <r_epik_Ionization_Penalty>
9.09088e-05

> <r_epik_Ionization_Penalty_Charging>
0

> <r_epik_Ionization_Penalty_Neutral>
9.09088e-05

> <r_epik_State_Penalty>
-0

> <r_epik_Charging_Adjusted_Penalty>
0

> <i_epik_Tot_Q>
0

> <i_epik_Tot_abs_Q>
0

> <r_epik_Metal_State_Penalty>
-0

> <b_epik_Metal_Only>
0

> <s_lp_Force_Field>
OPLS_2005

> <r_lp_Energy>
19.5884

> <b_lp_Chiralities_Consistent>
1

> <s_lp_Variant>
AV-unprocessed.smi:2040-2

> <Gold.Version>
5.8.1

> <Gold.Id.Protein>
6NUR|6NUR_protein|mol2

> <Gold.PLP.Fitness>
35.9269

> <Gold.PLP.PLP>
-28.1697

> <Gold.PLP.part.hbond>
-3.0767

> <Gold.PLP.part.metal>
0.0000

> <Gold.PLP.part.buried>
0.2336

> <Gold.PLP.part.nonpolar>
-25.6779

> <Gold.PLP.part.repulsive>
0.3624

> <Gold.PLP.ligand.clash>
0.0000

> <Gold.PLP.ligand.torsion>
0.4078

> <Gold.PLP.Chemscore.Hbond>
2.8500

> <Gold.PLP.Chemscore.CHOScore>
0.0000

> <Gold.PLP.Chemscore.Metal>
0.0000

> <Gold.Chemscore.Hbonds>
donor molecule, donor type, donor heavy atom, donor atom, acceptor molecule, acceptor atom, score
      L1  H     5    23       P1  7948  0.99
      L1  H     8    24       P1  7948  1.00
      P1  H  7989  7998       L1    18  0.80

> <Gold.PLP.Chemscore.Internal.Correction>
0.0228

> <Gold.Rescore>
     Score         DG    S(hbond)    S(metal)    S(lipo)     H(rot)  DE(clash)    DE(int)     intcor
     13.58     -15.95       1.93        0.00      61.48       1.23       0.53       1.84       ----

> <Gold.Chemscore.Fitness>
13.5790

> <Gold.Chemscore.DG>
-15.9454

> <Gold.Chemscore.ZeroCoef>
-5.4800

> <Gold.Chemscore.Hbond>
1.9253

> <Gold.Chemscore.Metal>
0.0000

> <Gold.Chemscore.Lipo>
61.4802

> <Gold.Chemscore.Internal_Hbond>
0.0000

> <Gold.Chemscore.DEClash>
0.5250

> <Gold.Chemscore.DEInternal>
1.8414

> <Gold.Chemscore.Rot>
1.2338

> <Gold.Chemscore.Internal.Correction>
   9.000000E+99

> <Gold.Chemscore.Hbonds>
donor molecule, donor type, donor heavy atom, donor atom, acceptor molecule, acceptor atom, score
      L1  H     5    23       P1  7948  0.94
      L1  H     8    24       P1  7948  0.92
      P1  H  7989  7998       L1    18  0.03

> <Gold.Chemscore.Hbond.Weighted>
-6.4306

> <Gold.Chemscore.Metal.Weighted>
-0.0000

> <Gold.Chemscore.Lipo.Weighted>
-7.1932

> <Gold.Chemscore.Internal_Hbond.Weighted>
0.0000

> <Gold.Chemscore.DEClash.Weighted>
0.5250

> <Gold.Chemscore.DEInternal.Weighted>
1.8414

> <Gold.Chemscore.Rot.Weighted>
3.1584

> <Gold.Chemscore.Internal.Correction.Weighted>
   9.000000E+99

> <Gold.Protein.RotatedTorsions>
[ 6907 6896 6895 6894 ] final   73.48 input  -60.11 | X-H torsion
[ 7974 7965 7964 7962 ] final -155.88 input  175.53 | X-H torsion
[ 8008 7997 7996 7995 ] final  -28.32 input   59.86 | X-H torsion
[ 10167 10162 10161 10158 ] final  -31.97 input  -65.29 | X-H torsion
[ 10718 10713 10712 10709 ] final   15.84 input   66.30 | X-H torsion
[ 10763 10752 10751 10750 ] final   18.08 input  -60.55 | X-H torsion
[ 11005 11000 10999 10996 ] final  167.41 input  -57.11 | X-H torsion

> <Gold.Protein.ActiveResidues>
 VAL166  LYS551  ARG553  GLY616  TRP617  ASP618  TYR619  PRO620  LYS621  CYS622 
 ASP623  PHE694  ASN695  SER759  ASP760  ASP761  ALA762  ILE779  LEU786  VAL792 
 PHE793  MET794  SER795  GLU796  ALA797  LYS798  CYS799  TRP800  GLU811  SER814 

> <Gold.Protein.RotatedAtoms>
  152.4925  134.4416  159.9544 H   0  0  0  0  0  0  0  0  0  0  0  0  # atno 6907 bound_to 6896
  151.4400  133.3640  159.2788 H   0  0  0  0  0  0  0  0  0  0  0  0  # atno 6908 bound_to 6896
  150.9094  134.8534  159.7475 H   0  0  0  0  0  0  0  0  0  0  0  0  # atno 6909 bound_to 6896
  144.7619  140.4187  143.5970 H   0  0  0  0  0  0  0  0  0  0  0  0  # atno 7974 bound_to 7965
  154.4337  140.1848  156.1071 H   0  0  0  0  0  0  0  0  0  0  0  0  # atno 8008 bound_to 7997
  156.0246  140.3337  155.7050 H   0  0  0  0  0  0  0  0  0  0  0  0  # atno 8009 bound_to 7997
  155.5926  140.0632  157.2745 H   0  0  0  0  0  0  0  0  0  0  0  0  # atno 8010 bound_to 7997
  140.7228  143.3730  151.1742 H   0  0  0  0  0  0  0  0  0  0  0  0  # atno 10167 bound_to 10162
  157.0593  130.6302  149.5783 H   0  0  0  0  0  0  0  0  0  0  0  0  # atno 10718 bound_to 10713
  153.1281  135.6734  153.9223 H   0  0  0  0  0  0  0  0  0  0  0  0  # atno 10763 bound_to 10752
  153.8718  135.3069  155.3443 H   0  0  0  0  0  0  0  0  0  0  0  0  # atno 10764 bound_to 10752
  154.7683  135.4952  153.9679 H   0  0  0  0  0  0  0  0  0  0  0  0  # atno 10765 bound_to 10752
  140.2765  134.7784  157.3721 H   0  0  0  0  0  0  0  0  0  0  0  0  # atno 11005 bound_to 11000
  145.6592  139.1578  143.2818 LP  0  0  0  0  0  0  0  0  0  0  0  0  # atno 17320 bound_to 7965
  146.1690  140.6674  142.9242 LP  0  0  0  0  0  0  0  0  0  0  0  0  # atno 17321 bound_to 7965
  139.7305  143.9080  152.3018 LP  0  0  0  0  0  0  0  0  0  0  0  0  # atno 17342 bound_to 10162
  139.8867  144.6988  150.8816 LP  0  0  0  0  0  0  0  0  0  0  0  0  # atno 17343 bound_to 10162
  155.9983  130.5057  150.7567 LP  0  0  0  0  0  0  0  0  0  0  0  0  # atno 17370 bound_to 10713
  157.4967  131.0915  151.0362 LP  0  0  0  0  0  0  0  0  0  0  0  0  # atno 17371 bound_to 10713
  140.1323  134.5079  155.8096 LP  0  0  0  0  0  0  0  0  0  0  0  0  # atno 17394 bound_to 11000
  141.2169  133.6794  156.7062 LP  0  0  0  0  0  0  0  0  0  0  0  0  # atno 17395 bound_to 11000

$$$$
