AV-unprocessed.smi:1484|AV-procd|sdf|6000|dock10
  -GOLD-   22720 6 93D 1   1.00000     0.00000
 Structure written by MMmdl.
 38 39  0  0  0  0  0  0  0  0  1 V2000
  153.6012  142.0156  161.6691 C   0  0  0  0  0  0  0  0  0  0  0  0
  152.6339  142.7377  160.7212 C   0  0  1  0  0  0  0  0  0  0  0  0
  152.3170  144.1622  161.2154 C   0  0  0  0  0  0  0  0  0  0  0  0
  151.3539  144.8922  160.2651 C   0  0  0  0  0  0  0  0  0  0  0  0
  151.8920  144.9134  158.8228 C   0  0  0  0  0  0  0  0  0  0  0  0
  152.2209  143.4996  158.3056 C   0  0  2  0  0  0  0  0  0  0  0  0
  150.9877  142.7391  158.1176 N   0  0  0  0  0  0  0  0  0  0  0  0
  150.7542  141.8517  157.1394 C   0  0  0  0  0  0  0  0  0  0  0  0
  151.5390  141.6310  156.2175 O   0  0  0  0  0  0  0  0  0  0  0  0
  149.4317  141.0855  157.2298 C   0  0  0  0  0  0  0  0  0  0  0  0
  148.5417  141.4474  156.1192 N   0  0  0  0  0  0  0  0  0  0  0  0
  147.3511  142.0324  156.5261 N   0  0  0  0  0  0  0  0  0  0  0  0
  146.4591  142.3561  155.6526 C   0  0  0  0  0  0  0  0  0  0  0  0
  145.2931  142.9256  156.1016 O   0  0  0  0  0  0  0  0  0  0  0  0
  146.6766  142.1275  154.2414 C   0  0  0  0  0  0  0  0  0  0  0  0
  147.8403  141.5613  153.8538 C   0  0  0  0  0  0  0  0  0  0  0  0
  148.8716  141.1757  154.8190 C   0  0  0  0  0  0  0  0  0  0  0  0
  149.9349  140.6494  154.4925 O   0  0  0  0  0  0  0  0  0  0  0  0
  153.1824  142.7800  159.2793 C   0  0  0  0  0  0  0  0  0  0  0  0
  145.2868  143.7998  155.7432 H   0  0  0  0  0  0  0  0  0  0  0  0
  154.5590  142.5332  161.7301 H   0  0  0  0  0  0  0  0  0  0  0  0
  153.7934  140.9969  161.3310 H   0  0  0  0  0  0  0  0  0  0  0  0
  153.1899  141.9550  162.6771 H   0  0  0  0  0  0  0  0  0  0  0  0
  151.7038  142.1672  160.7161 H   0  0  0  0  0  0  0  0  0  0  0  0
  151.8822  144.1224  162.2147 H   0  0  0  0  0  0  0  0  0  0  0  0
  153.2410  144.7351  161.3041 H   0  0  0  0  0  0  0  0  0  0  0  0
  150.3783  144.4055  160.2896 H   0  0  0  0  0  0  0  0  0  0  0  0
  151.1946  145.9128  160.6144 H   0  0  0  0  0  0  0  0  0  0  0  0
  151.1731  145.4001  158.1623 H   0  0  0  0  0  0  0  0  0  0  0  0
  152.7948  145.5245  158.7898 H   0  0  0  0  0  0  0  0  0  0  0  0
  152.7085  143.5965  157.3338 H   0  0  0  0  0  0  0  0  0  0  0  0
  150.2761  142.8539  158.8245 H   0  0  0  0  0  0  0  0  0  0  0  0
  149.6258  140.0110  157.2227 H   0  0  0  0  0  0  0  0  0  0  0  0
  148.9630  141.2886  158.1942 H   0  0  0  0  0  0  0  0  0  0  0  0
  145.9208  142.4066  153.5220 H   0  0  0  0  0  0  0  0  0  0  0  0
  148.0159  141.3854  152.8027 H   0  0  0  0  0  0  0  0  0  0  0  0
  154.1427  143.2976  159.2747 H   0  0  0  0  0  0  0  0  0  0  0  0
  153.3903  141.7685  158.9290 H   0  0  0  0  0  0  0  0  0  0  0  0
  1  2  1  0  0  0  0
  1 21  1  0  0  0  0
  1 22  1  0  0  0  0
  1 23  1  0  0  0  0
  2 19  1  0  0  0  0
  2  3  1  0  0  0  0
  2 24  1  0  0  0  0
  3  4  1  0  0  0  0
  3 25  1  0  0  0  0
  3 26  1  0  0  0  0
  4  5  1  0  0  0  0
  4 27  1  0  0  0  0
  4 28  1  0  0  0  0
  5  6  1  0  0  0  0
  5 29  1  0  0  0  0
  5 30  1  0  0  0  0
  6  7  1  0  0  0  0
  6 19  1  0  0  0  0
  6 31  1  0  0  0  0
  7  8  1  0  0  0  0
  7 32  1  0  0  0  0
  8  9  2  0  0  0  0
  8 10  1  0  0  0  0
 10 33  1  0  0  0  0
 10 34  1  0  0  0  0
 10 11  1  0  0  0  0
 11 12  1  0  0  0  0
 11 17  1  0  0  0  0
 12 13  2  0  0  0  0
 13 14  1  0  0  0  0
 13 15  1  0  0  0  0
 14 20  1  0  0  0  0
 15 35  1  0  0  0  0
 15 16  2  0  0  0  0
 16 36  1  0  0  0  0
 16 17  1  0  0  0  0
 17 18  2  0  0  0  0
 19 37  1  0  0  0  0
 19 38  1  0  0  0  0
M  END
> <s_m_source_file>
AV-unprocessed.smi

> <i_m_source_file_index>
1484

> <i_lp_mmshare_version>
43012

> <i_f3d_flags>
0

> <s_epik_input>
W0NIM11bQ0BASF0xW0NIMl1bQ0gyXVtDSDJdW0NASF0oW0NIMl0xKVtOSF1DKD1PKVtDSDJdbjJbbkhdYyg9TylbY0hdW2NIXWMyPU8=

> <s_epik_cmdline>
J2VwaWtfcHl0aG9uJywgJy1waCcsICc3LjAnLCAnLXRuJywgJzgnLCAnLW1hJywgJzIwMCcsICctbWV0YWxfYmluZGluZycsICctaW1hZScsICc8aW5maWxlLm1hZT4nLCAnLW9tYWUnLCAnPG91dGZpbGUubWFlPic=

> <r_lp_tautomer_probability>
0.9996

> <r_epik_Ionization_Penalty>
2.10343

> <r_epik_Ionization_Penalty_Charging>
3.97871e-08

> <r_epik_Ionization_Penalty_Neutral>
2.10343

> <r_epik_State_Penalty>
1.67966

> <r_epik_Charging_Adjusted_Penalty>
1.67966

> <i_epik_Tot_Q>
0

> <i_epik_Tot_abs_Q>
0

> <r_epik_Metal_State_Penalty>
1.67966

> <b_epik_Metal_Only>
0

> <s_lp_Force_Field>
OPLS_2005

> <r_lp_Energy>
21.1153

> <b_lp_Chiralities_Consistent>
1

> <s_lp_Variant>
AV-unprocessed.smi:1484-8

> <Gold.Version>
5.8.1

> <Gold.Id.Protein>
6NUR|6NUR_protein|mol2

> <Gold.PLP.Fitness>
46.1020

> <Gold.PLP.PLP>
-44.0681

> <Gold.PLP.part.hbond>
-1.0000

> <Gold.PLP.part.metal>
0.0000

> <Gold.PLP.part.buried>
-4.1934

> <Gold.PLP.part.nonpolar>
-38.6955

> <Gold.PLP.part.repulsive>
0.5558

> <Gold.PLP.ligand.clash>
0.0000

> <Gold.PLP.ligand.torsion>
0.4030

> <Gold.PLP.Chemscore.Hbond>
0.9440

> <Gold.PLP.Chemscore.CHOScore>
0.0000

> <Gold.PLP.Chemscore.Metal>
0.0000

> <Gold.Chemscore.Hbonds>
donor molecule, donor type, donor heavy atom, donor atom, acceptor molecule, acceptor atom, score
      P1  H  7989  7998       L1    18  0.78

> <Gold.PLP.Chemscore.Internal.Correction>
0.0079

> <Gold.Rescore>
     Score         DG    S(hbond)    S(metal)    S(lipo)     H(rot)  DE(clash)    DE(int)     intcor
     11.68     -14.43       0.85        0.00     101.44       2.24       0.76       2.00       ----

> <Gold.Chemscore.Fitness>
11.6777

> <Gold.Chemscore.DG>
-14.4334

> <Gold.Chemscore.ZeroCoef>
-5.4800

> <Gold.Chemscore.Hbond>
0.8457

> <Gold.Chemscore.Metal>
0.0000

> <Gold.Chemscore.Lipo>
101.4422

> <Gold.Chemscore.Internal_Hbond>
0.0000

> <Gold.Chemscore.DEClash>
0.7600

> <Gold.Chemscore.DEInternal>
1.9958

> <Gold.Chemscore.Rot>
2.2421

> <Gold.Chemscore.Internal.Correction>
   9.000000E+99

> <Gold.Chemscore.Hbonds>
donor molecule, donor type, donor heavy atom, donor atom, acceptor molecule, acceptor atom, score
      P1  H  7989  7998       L1    18  0.76

> <Gold.Chemscore.Hbond.Weighted>
-2.8245

> <Gold.Chemscore.Metal.Weighted>
-0.0000

> <Gold.Chemscore.Lipo.Weighted>
-11.8687

> <Gold.Chemscore.Internal_Hbond.Weighted>
0.0000

> <Gold.Chemscore.DEClash.Weighted>
0.7600

> <Gold.Chemscore.DEInternal.Weighted>
1.9958

> <Gold.Chemscore.Rot.Weighted>
5.7398

> <Gold.Chemscore.Internal.Correction.Weighted>
   9.000000E+99

> <Gold.Protein.RotatedTorsions>
[ 6907 6896 6895 6894 ] final  -15.85 input  -60.11 | X-H torsion
[ 7974 7965 7964 7962 ] final  148.60 input  175.53 | X-H torsion
[ 8008 7997 7996 7995 ] final   57.43 input   59.86 | X-H torsion
[ 10167 10162 10161 10158 ] final  161.68 input  -65.29 | X-H torsion
[ 10718 10713 10712 10709 ] final  -26.62 input   66.30 | X-H torsion
[ 10763 10752 10751 10750 ] final   -8.44 input  -60.55 | X-H torsion
[ 11005 11000 10999 10996 ] final  -22.73 input  -57.11 | X-H torsion

> <Gold.Protein.ActiveResidues>
 VAL166  LYS551  ARG553  GLY616  TRP617  ASP618  TYR619  PRO620  LYS621  CYS622 
 ASP623  PHE694  ASN695  SER759  ASP760  ASP761  ALA762  ILE779  LEU786  VAL792 
 PHE793  MET794  SER795  GLU796  ALA797  LYS798  CYS799  TRP800  GLU811  SER814 

> <Gold.Protein.RotatedAtoms>
  151.3176  135.0810  159.9294 H   0  0  0  0  0  0  0  0  0  0  0  0  # atno 6907 bound_to 6896
  152.5264  133.9671  159.7755 H   0  0  0  0  0  0  0  0  0  0  0  0  # atno 6908 bound_to 6896
  150.9986  133.6026  159.2728 H   0  0  0  0  0  0  0  0  0  0  0  0  # atno 6909 bound_to 6896
  144.8501  139.6174  143.5977 H   0  0  0  0  0  0  0  0  0  0  0  0  # atno 7974 bound_to 7965
  155.5337  140.3482  155.4431 H   0  0  0  0  0  0  0  0  0  0  0  0  # atno 8008 bound_to 7997
  156.0700  140.1361  156.9866 H   0  0  0  0  0  0  0  0  0  0  0  0  # atno 8009 bound_to 7997
  154.4523  140.0967  156.6630 H   0  0  0  0  0  0  0  0  0  0  0  0  # atno 8010 bound_to 7997
  139.4852  144.4513  151.8826 H   0  0  0  0  0  0  0  0  0  0  0  0  # atno 10167 bound_to 10162
  156.4488  130.4479  149.7004 H   0  0  0  0  0  0  0  0  0  0  0  0  # atno 10718 bound_to 10713
  153.4406  135.7013  153.6171 H   0  0  0  0  0  0  0  0  0  0  0  0  # atno 10763 bound_to 10752
  153.4548  135.3750  155.2305 H   0  0  0  0  0  0  0  0  0  0  0  0  # atno 10764 bound_to 10752
  154.8727  135.4005  154.3804 H   0  0  0  0  0  0  0  0  0  0  0  0  # atno 10765 bound_to 10752
  140.8685  133.7737  156.0158 H   0  0  0  0  0  0  0  0  0  0  0  0  # atno 11005 bound_to 11000
  146.2778  139.6797  142.9251 LP  0  0  0  0  0  0  0  0  0  0  0  0  # atno 17320 bound_to 7965
  145.4517  141.0428  143.2801 LP  0  0  0  0  0  0  0  0  0  0  0  0  # atno 17321 bound_to 7965
  140.3970  144.2542  150.5895 LP  0  0  0  0  0  0  0  0  0  0  0  0  # atno 17342 bound_to 10162
  140.5093  143.2295  151.8560 LP  0  0  0  0  0  0  0  0  0  0  0  0  # atno 17343 bound_to 10162
  156.3839  130.7593  151.2588 LP  0  0  0  0  0  0  0  0  0  0  0  0  # atno 17370 bound_to 10713
  157.7503  131.0287  150.4063 LP  0  0  0  0  0  0  0  0  0  0  0  0  # atno 17371 bound_to 10713
  140.8601  134.2851  157.5238 LP  0  0  0  0  0  0  0  0  0  0  0  0  # atno 17394 bound_to 11000
  139.8710  134.9513  156.4082 LP  0  0  0  0  0  0  0  0  0  0  0  0  # atno 17395 bound_to 11000

$$$$
