AV-unprocessed.smi:3303|AV-procd|sdf|12665|dock1
  -GOLD-   2272019 03D 1   1.00000     0.00000
 Structure written by MMmdl.
 45 46  0  0  0  0  0  0  0  0  3 V2000
  149.1400  141.0866  154.3608 C   0  0  0  0  0  0  0  0  0  0  0  0
  149.5468  139.6104  154.2174 C   0  0  2  0  0  0  0  0  0  0  0  0
  148.4882  138.6547  154.8006 C   0  0  0  0  0  0  0  0  0  0  0  0
  148.8441  137.2289  154.5740 N   0  3  2  0  0  0  0  0  0  0  0  0
  147.7468  136.3340  155.0161 C   0  0  0  0  0  0  0  0  0  0  0  0
  150.1795  136.8810  155.1482 C   0  0  1  0  0  0  0  0  0  0  0  0
  150.5789  135.4182  154.8726 C   0  0  0  0  0  0  0  0  0  0  0  0
  151.2736  137.8246  154.5971 C   0  0  0  0  0  0  0  0  0  0  0  0
  150.9456  139.3136  154.7970 C   0  0  2  0  0  0  0  0  0  0  0  0
  151.0501  139.6861  156.2291 N   0  3  0  0  0  0  0  0  0  0  0  0
  151.2715  141.1243  156.4799 C   0  0  0  0  0  0  0  0  0  0  0  0
  150.3891  141.6258  157.6306 C   0  0  0  0  0  0  0  0  0  0  0  0
  150.9763  142.8486  158.3091 C   0  0  0  0  0  0  0  0  0  0  0  0
  151.5188  143.9064  157.5488 C   0  0  0  0  0  0  0  0  0  0  0  0
  152.0567  145.0147  158.2314 C   0  0  0  0  0  0  0  0  0  0  0  0
  152.0324  145.0214  159.6393 C   0  0  0  0  0  0  0  0  0  0  0  0
  151.4696  143.9148  160.3057 C   0  0  0  0  0  0  0  0  0  0  0  0
  150.9520  142.8465  159.6606 N   0  0  0  0  0  0  0  0  0  0  0  0
  149.0180  141.3742  155.4054 H   0  0  0  0  0  0  0  0  0  0  0  0
  148.1938  141.2817  153.8554 H   0  0  0  0  0  0  0  0  0  0  0  0
  149.8883  141.7448  153.9184 H   0  0  0  0  0  0  0  0  0  0  0  0
  149.5978  139.4107  153.1454 H   0  0  0  0  0  0  0  0  0  0  0  0
  148.3564  138.8337  155.8691 H   0  0  0  0  0  0  0  0  0  0  0  0
  147.5262  138.8608  154.3291 H   0  0  0  0  0  0  0  0  0  0  0  0
  147.6741  136.3110  156.1044 H   0  0  0  0  0  0  0  0  0  0  0  0
  147.8900  135.3159  154.6556 H   0  0  0  0  0  0  0  0  0  0  0  0
  146.7880  136.6713  154.6207 H   0  0  0  0  0  0  0  0  0  0  0  0
  150.1228  137.0126  156.2300 H   0  0  0  0  0  0  0  0  0  0  0  0
  151.5952  135.2212  155.2157 H   0  0  0  0  0  0  0  0  0  0  0  0
  150.5419  135.1887  153.8071 H   0  0  0  0  0  0  0  0  0  0  0  0
  149.9350  134.7105  155.3943 H   0  0  0  0  0  0  0  0  0  0  0  0
  152.2356  137.5957  155.0582 H   0  0  0  0  0  0  0  0  0  0  0  0
  151.4020  137.6339  153.5305 H   0  0  0  0  0  0  0  0  0  0  0  0
  151.6785  139.8917  154.2310 H   0  0  0  0  0  0  0  0  0  0  0  0
  150.1971  139.4116  156.6954 H   0  0  0  0  0  0  0  0  0  0  0  0
  152.3243  141.2863  156.7163 H   0  0  0  0  0  0  0  0  0  0  0  0
  151.0512  141.6872  155.5717 H   0  0  0  0  0  0  0  0  0  0  0  0
  149.3919  141.8658  157.2592 H   0  0  0  0  0  0  0  0  0  0  0  0
  150.2583  140.8387  158.3749 H   0  0  0  0  0  0  0  0  0  0  0  0
  151.5244  143.8737  156.4692 H   0  0  0  0  0  0  0  0  0  0  0  0
  152.4804  145.8443  157.6850 H   0  0  0  0  0  0  0  0  0  0  0  0
  152.4352  145.8547  160.1958 H   0  0  0  0  0  0  0  0  0  0  0  0
  151.4351  143.8861  161.3846 H   0  0  0  0  0  0  0  0  0  0  0  0
  151.8194  139.1761  156.6397 H   0  0  0  0  0  0  0  0  0  0  0  0
  148.9186  137.1094  153.5734 H   0  0  0  0  0  0  0  0  0  0  0  0
  1  2  1  0  0  0  0
  1 19  1  0  0  0  0
  1 20  1  0  0  0  0
  1 21  1  0  0  0  0
  2  9  1  0  0  0  0
  2  3  1  0  0  0  0
  2 22  1  0  0  0  0
  3  4  1  0  0  0  0
  3 23  1  0  0  0  0
  3 24  1  0  0  0  0
  4  5  1  0  0  0  0
  4  6  1  0  0  0  0
  4 45  1  0  0  0  0
  5 25  1  0  0  0  0
  5 26  1  0  0  0  0
  5 27  1  0  0  0  0
  6  7  1  0  0  0  0
  6  8  1  0  0  0  0
  6 28  1  0  0  0  0
  7 29  1  0  0  0  0
  7 30  1  0  0  0  0
  7 31  1  0  0  0  0
  8  9  1  0  0  0  0
  8 32  1  0  0  0  0
  8 33  1  0  0  0  0
  9 10  1  0  0  0  0
  9 34  1  0  0  0  0
 10 11  1  0  0  0  0
 10 35  1  0  0  0  0
 10 44  1  0  0  0  0
 11 12  1  0  0  0  0
 11 36  1  0  0  0  0
 11 37  1  0  0  0  0
 12 13  1  0  0  0  0
 12 38  1  0  0  0  0
 12 39  1  0  0  0  0
 13 18  1  0  0  0  0
 13 14  2  0  0  0  0
 14 15  1  0  0  0  0
 14 40  1  0  0  0  0
 15 16  2  0  0  0  0
 15 41  1  0  0  0  0
 16 17  1  0  0  0  0
 16 42  1  0  0  0  0
 17 18  2  0  0  0  0
 17 43  1  0  0  0  0
M  CHG  1   4   1
M  CHG  1  10   1
M  END
> <s_m_source_file>
AV-unprocessed.smi

> <i_m_source_file_index>
3303

> <i_lp_mmshare_version>
43012

> <i_f3d_flags>
0

> <s_epik_input>
W0NIM11bQ0BASF0xW0NIMl1OKFtDSDNdKVtDQEBIXShbQ0gzXSlbQ0gyXVtDQEhdMVtOSF1bQ0gyXVtDSDJdYzJbY0hdW2NIXVtjSF1bY0hdbjI=

> <s_epik_cmdline>
J2VwaWtfcHl0aG9uJywgJy1waCcsICc3LjAnLCAnLXRuJywgJzgnLCAnLW1hJywgJzIwMCcsICctbWV0YWxfYmluZGluZycsICctaW1hZScsICc8aW5maWxlLm1hZT4nLCAnLW9tYWUnLCAnPG91dGZpbGUubWFlPic=

> <r_epik_Ionization_Penalty>
0.0769462

> <r_epik_Ionization_Penalty_Charging>
0.0759813

> <r_epik_Ionization_Penalty_Neutral>
0.000964829

> <r_epik_State_Penalty>
0.0654373

> <r_epik_Charging_Adjusted_Penalty>
0.141419

> <i_epik_Tot_Q>
2

> <i_epik_Tot_abs_Q>
2

> <r_epik_Metal_State_Penalty>
0.0656439

> <b_epik_Metal_Only>
0

> <s_lp_Force_Field>
OPLS_2005

> <r_lp_Energy>
34.324

> <b_lp_Chiralities_Consistent>
1

> <s_lp_Variant>
AV-unprocessed.smi:3303-9

> <Gold.Version>
5.8.1

> <Gold.Id.Protein>
6NUR|6NUR_protein|mol2

> <Gold.PLP.Fitness>
44.2213

> <Gold.PLP.PLP>
-39.9113

> <Gold.PLP.part.hbond>
-1.9740

> <Gold.PLP.part.metal>
0.0000

> <Gold.PLP.part.buried>
-3.2791

> <Gold.PLP.part.nonpolar>
-34.5196

> <Gold.PLP.part.repulsive>
0.0968

> <Gold.PLP.ligand.clash>
0.0000

> <Gold.PLP.ligand.torsion>
0.8635

> <Gold.PLP.Chemscore.Hbond>
2.0000

> <Gold.PLP.Chemscore.CHOScore>
0.0000

> <Gold.PLP.Chemscore.Metal>
0.0000

> <Gold.Chemscore.Hbonds>
donor molecule, donor type, donor heavy atom, donor atom, acceptor molecule, acceptor atom, score
      L1  H     4    45       P1  7948  2.00

> <Gold.PLP.Chemscore.Internal.Correction>
0.0369

> <Gold.Rescore>
     Score         DG    S(hbond)    S(metal)    S(lipo)     H(rot)  DE(clash)    DE(int)     intcor
     17.13     -19.33       0.98        0.00     120.31       1.37       0.33       1.87       ----

> <Gold.Chemscore.Fitness>
17.1286

> <Gold.Chemscore.DG>
-19.3273

> <Gold.Chemscore.ZeroCoef>
-5.4800

> <Gold.Chemscore.Hbond>
0.9850

> <Gold.Chemscore.Metal>
0.0000

> <Gold.Chemscore.Lipo>
120.3068

> <Gold.Chemscore.Internal_Hbond>
0.0000

> <Gold.Chemscore.DEClash>
0.3303

> <Gold.Chemscore.DEInternal>
1.8684

> <Gold.Chemscore.Rot>
1.3744

> <Gold.Chemscore.Internal.Correction>
   9.000000E+99

> <Gold.Chemscore.Hbonds>
donor molecule, donor type, donor heavy atom, donor atom, acceptor molecule, acceptor atom, score
      L1  H     4    45       P1  7948  0.99

> <Gold.Chemscore.Hbond.Weighted>
-3.2899

> <Gold.Chemscore.Metal.Weighted>
-0.0000

> <Gold.Chemscore.Lipo.Weighted>
-14.0759

> <Gold.Chemscore.Internal_Hbond.Weighted>
0.0000

> <Gold.Chemscore.DEClash.Weighted>
0.3303

> <Gold.Chemscore.DEInternal.Weighted>
1.8684

> <Gold.Chemscore.Rot.Weighted>
3.5185

> <Gold.Chemscore.Internal.Correction.Weighted>
   9.000000E+99

> <Gold.Protein.RotatedTorsions>
[ 6907 6896 6895 6894 ] final  162.45 input  -60.11 | X-H torsion
[ 7974 7965 7964 7962 ] final   -3.68 input  175.53 | X-H torsion
[ 8008 7997 7996 7995 ] final -177.41 input   59.86 | X-H torsion
[ 10167 10162 10161 10158 ] final -110.80 input  -65.29 | X-H torsion
[ 10718 10713 10712 10709 ] final  -27.22 input   66.30 | X-H torsion
[ 10763 10752 10751 10750 ] final -164.30 input  -60.55 | X-H torsion
[ 11005 11000 10999 10996 ] final  111.86 input  -57.11 | X-H torsion

> <Gold.Protein.ActiveResidues>
 VAL166  LYS551  ARG553  GLY616  TRP617  ASP618  TYR619  PRO620  LYS621  CYS622 
 ASP623  PHE694  ASN695  SER759  ASP760  ASP761  ALA762  ILE779  LEU786  VAL792 
 PHE793  MET794  SER795  GLU796  ALA797  LYS798  CYS799  TRP800  GLU811  SER814 

> <Gold.Protein.RotatedAtoms>
  151.9402  133.3635  159.3962 H   0  0  0  0  0  0  0  0  0  0  0  0  # atno 6907 bound_to 6896
  150.7000  134.4447  159.5318 H   0  0  0  0  0  0  0  0  0  0  0  0  # atno 6908 bound_to 6896
  152.2103  134.8508  160.0549 H   0  0  0  0  0  0  0  0  0  0  0  0  # atno 6909 bound_to 6896
  146.2385  140.1757  142.8332 H   0  0  0  0  0  0  0  0  0  0  0  0  # atno 7974 bound_to 7965
  156.0066  140.1231  157.0495 H   0  0  0  0  0  0  0  0  0  0  0  0  # atno 8008 bound_to 7997
  154.4261  140.1096  156.5840 H   0  0  0  0  0  0  0  0  0  0  0  0  # atno 8009 bound_to 7997
  155.6139  140.3471  155.4633 H   0  0  0  0  0  0  0  0  0  0  0  0  # atno 8010 bound_to 7997
  140.1405  143.4283  152.1565 H   0  0  0  0  0  0  0  0  0  0  0  0  # atno 10167 bound_to 10162
  156.4410  130.4464  149.7052 H   0  0  0  0  0  0  0  0  0  0  0  0  # atno 10718 bound_to 10713
  154.7042  135.2993  154.9296 H   0  0  0  0  0  0  0  0  0  0  0  0  # atno 10763 bound_to 10752
  154.0218  135.6681  153.4777 H   0  0  0  0  0  0  0  0  0  0  0  0  # atno 10764 bound_to 10752
  153.0704  135.5064  154.8203 H   0  0  0  0  0  0  0  0  0  0  0  0  # atno 10765 bound_to 10752
  139.8913  134.9517  156.6497 H   0  0  0  0  0  0  0  0  0  0  0  0  # atno 11005 bound_to 11000
  144.9975  140.8602  143.5302 LP  0  0  0  0  0  0  0  0  0  0  0  0  # atno 17320 bound_to 7965
  145.1772  139.2371  143.5311 LP  0  0  0  0  0  0  0  0  0  0  0  0  # atno 17321 bound_to 7965
  139.5474  144.7310  151.4540 LP  0  0  0  0  0  0  0  0  0  0  0  0  # atno 17342 bound_to 10162
  140.6763  143.8182  150.7063 LP  0  0  0  0  0  0  0  0  0  0  0  0  # atno 17343 bound_to 10162
  156.3917  130.7630  151.2632 LP  0  0  0  0  0  0  0  0  0  0  0  0  # atno 17370 bound_to 10713
  157.7506  131.0266  150.3968 LP  0  0  0  0  0  0  0  0  0  0  0  0  # atno 17371 bound_to 10713
  140.7530  133.8881  155.8361 LP  0  0  0  0  0  0  0  0  0  0  0  0  # atno 17394 bound_to 11000
  140.9985  134.1182  157.4340 LP  0  0  0  0  0  0  0  0  0  0  0  0  # atno 17395 bound_to 11000

$$$$
