AV-unprocessed.smi:1202|AV-procd|sdf|5028|dock3
  -GOLD-   22720 4 53D 1   1.00000     0.00000
 Structure written by MMmdl.
 44 45  0  0  0  0  0  0  0  0  1 V2000
  145.8453  132.1280  149.4635 C   0  0  0  0  0  0  0  0  0  0  0  0
  146.8430  132.3426  150.5001 N   0  0  0  0  0  0  0  0  0  0  0  0
  146.6747  133.1585  151.5509 C   0  0  0  0  0  0  0  0  0  0  0  0
  145.6491  133.8125  151.7415 O   0  0  0  0  0  0  0  0  0  0  0  0
  147.8380  133.2471  152.5464 C   0  0  0  0  0  0  0  0  0  0  0  0
  147.5820  134.1197  153.7155 N   0  0  0  0  0  0  0  0  0  0  0  0
  148.8117  134.2365  154.5080 C   0  0  0  0  0  0  0  0  0  0  0  0
  148.6264  135.2451  155.6552 C   0  0  0  0  0  0  0  0  0  0  0  0
  147.4577  134.8220  156.5612 C   0  0  0  0  0  0  0  0  0  0  0  0
  147.2457  135.7316  157.6893 N   0  0  0  0  0  0  0  0  0  0  0  0
  148.1208  136.0663  158.6527 C   0  0  0  0  0  0  0  0  0  0  0  0
  149.2655  135.6176  158.7222 O   0  0  0  0  0  0  0  0  0  0  0  0
  147.6012  137.0499  159.7111 C   0  0  0  0  0  0  0  0  0  0  0  0
  146.6334  136.4464  160.6427 N   0  0  0  0  0  0  0  0  0  0  0  0
  147.0020  135.2307  161.2528 C   0  0  0  0  0  0  0  0  0  0  0  0
  146.1951  134.5980  162.1192 C   0  0  0  0  0  0  0  0  0  0  0  0
  144.9160  135.1952  162.4217 C   0  0  0  0  0  0  0  0  0  0  0  0
  144.5552  136.3597  161.8467 C   0  0  0  0  0  0  0  0  0  0  0  0
  145.4354  137.0564  160.9015 C   0  0  0  0  0  0  0  0  0  0  0  0
  145.1150  138.1220  160.3740 O   0  0  0  0  0  0  0  0  0  0  0  0
  146.1953  134.6145  155.7067 C   0  0  0  0  0  0  0  0  0  0  0  0
  146.4730  133.6346  154.5523 C   0  0  0  0  0  0  0  0  0  0  0  0
  146.2093  131.3962  148.7423 H   0  0  0  0  0  0  0  0  0  0  0  0
  145.6337  133.0562  148.9312 H   0  0  0  0  0  0  0  0  0  0  0  0
  144.9152  131.7518  149.8910 H   0  0  0  0  0  0  0  0  0  0  0  0
  147.7143  131.8392  150.4158 H   0  0  0  0  0  0  0  0  0  0  0  0
  148.1092  132.2461  152.8882 H   0  0  0  0  0  0  0  0  0  0  0  0
  148.6983  133.6274  151.9935 H   0  0  0  0  0  0  0  0  0  0  0  0
  149.1019  133.2617  154.9043 H   0  0  0  0  0  0  0  0  0  0  0  0
  149.6305  134.5763  153.8725 H   0  0  0  0  0  0  0  0  0  0  0  0
  149.5457  135.3145  156.2377 H   0  0  0  0  0  0  0  0  0  0  0  0
  148.4517  136.2349  155.2324 H   0  0  0  0  0  0  0  0  0  0  0  0
  147.7163  133.8611  157.0079 H   0  0  0  0  0  0  0  0  0  0  0  0
  146.3319  136.1584  157.7391 H   0  0  0  0  0  0  0  0  0  0  0  0
  148.4442  137.4661  160.2660 H   0  0  0  0  0  0  0  0  0  0  0  0
  147.1540  137.8991  159.1927 H   0  0  0  0  0  0  0  0  0  0  0  0
  147.9770  134.8547  160.9788 H   0  0  0  0  0  0  0  0  0  0  0  0
  146.4965  133.6691  162.5806 H   0  0  0  0  0  0  0  0  0  0  0  0
  144.2455  134.7066  163.1132 H   0  0  0  0  0  0  0  0  0  0  0  0
  143.5944  136.7918  162.0858 H   0  0  0  0  0  0  0  0  0  0  0  0
  145.3832  134.2327  156.3266 H   0  0  0  0  0  0  0  0  0  0  0  0
  145.8481  135.5607  155.2905 H   0  0  0  0  0  0  0  0  0  0  0  0
  145.5575  133.5365  153.9692 H   0  0  0  0  0  0  0  0  0  0  0  0
  146.7050  132.6428  154.9441 H   0  0  0  0  0  0  0  0  0  0  0  0
  1  2  1  0  0  0  0
  1 23  1  0  0  0  0
  1 24  1  0  0  0  0
  1 25  1  0  0  0  0
  2  3  1  0  0  0  0
  2 26  1  0  0  0  0
  3  4  2  0  0  0  0
  3  5  1  0  0  0  0
  5  6  1  0  0  0  0
  5 27  1  0  0  0  0
  5 28  1  0  0  0  0
  6 22  1  0  0  0  0
  6  7  1  0  0  0  0
  7  8  1  0  0  0  0
  7 29  1  0  0  0  0
  7 30  1  0  0  0  0
  8  9  1  0  0  0  0
  8 31  1  0  0  0  0
  8 32  1  0  0  0  0
  9 10  1  0  0  0  0
  9 21  1  0  0  0  0
  9 33  1  0  0  0  0
 10 11  1  0  0  0  0
 10 34  1  0  0  0  0
 11 12  2  0  0  0  0
 11 13  1  0  0  0  0
 13 14  1  0  0  0  0
 13 35  1  0  0  0  0
 13 36  1  0  0  0  0
 14 19  1  0  0  0  0
 14 15  1  0  0  0  0
 15 16  2  0  0  0  0
 15 37  1  0  0  0  0
 16 17  1  0  0  0  0
 16 38  1  0  0  0  0
 17 18  2  0  0  0  0
 17 39  1  0  0  0  0
 18 19  1  0  0  0  0
 18 40  1  0  0  0  0
 19 20  2  0  0  0  0
 21 22  1  0  0  0  0
 21 41  1  0  0  0  0
 21 42  1  0  0  0  0
 22 43  1  0  0  0  0
 22 44  1  0  0  0  0
M  END
> <s_m_source_file>
AV-unprocessed.smi

> <i_m_source_file_index>
1202

> <i_lp_mmshare_version>
43012

> <i_f3d_flags>
0

> <s_epik_input>
W0NIM11bTkhdQyg9TylbQ0gyXU4xW0NIMl1bQ0gyXVtDSF0oW0NIMl1bQ0gyXTEpW05IXUMoPU8pW0NIMl1uMltjSF1bY0hdW2NIXVtjSF1jMj1P

> <s_epik_cmdline>
J2VwaWtfcHl0aG9uJywgJy1waCcsICc3LjAnLCAnLXRuJywgJzgnLCAnLW1hJywgJzIwMCcsICctbWV0YWxfYmluZGluZycsICctaW1hZScsICc8aW5maWxlLm1hZT4nLCAnLW9tYWUnLCAnPG91dGZpbGUubWFlPic=

> <r_lp_tautomer_probability>
1

> <r_epik_Ionization_Penalty>
0.12485

> <r_epik_Ionization_Penalty_Charging>
3.59605e-07

> <r_epik_Ionization_Penalty_Neutral>
0.12485

> <r_epik_State_Penalty>
0.114323

> <r_epik_Charging_Adjusted_Penalty>
0.114323

> <i_epik_Tot_Q>
0

> <i_epik_Tot_abs_Q>
0

> <r_epik_Metal_State_Penalty>
0.117995

> <b_epik_Metal_Only>
0

> <s_lp_Force_Field>
OPLS_2005

> <r_lp_Energy>
24.2751

> <b_lp_Chiralities_Consistent>
1

> <s_lp_Variant>
AV-unprocessed.smi:1202-1

> <Gold.Version>
5.8.1

> <Gold.Id.Protein>
6NUR|6NUR_protein|mol2

> <Gold.PLP.Fitness>
41.7626

> <Gold.PLP.PLP>
-33.2744

> <Gold.PLP.part.hbond>
-2.9631

> <Gold.PLP.part.metal>
0.0000

> <Gold.PLP.part.buried>
-5.3499

> <Gold.PLP.part.nonpolar>
-25.7405

> <Gold.PLP.part.repulsive>
0.3364

> <Gold.PLP.ligand.clash>
0.0000

> <Gold.PLP.ligand.torsion>
0.2664

> <Gold.PLP.Chemscore.Hbond>
2.9920

> <Gold.PLP.Chemscore.CHOScore>
0.0000

> <Gold.PLP.Chemscore.Metal>
0.0000

> <Gold.Chemscore.Hbonds>
donor molecule, donor type, donor heavy atom, donor atom, acceptor molecule, acceptor atom, score
      L1  H     2    26       P1 10747  1.00
      P1  H  6896  6908       L1    12  1.00
      P1  H  6934  6947       L1    20  0.15

> <Gold.PLP.Chemscore.Internal.Correction>
0.0450

> <Gold.Rescore>
     Score         DG    S(hbond)    S(metal)    S(lipo)     H(rot)  DE(clash)    DE(int)     intcor
     16.95     -17.31       2.89        0.00      66.49       2.19       0.01       0.35       ----

> <Gold.Chemscore.Fitness>
16.9540

> <Gold.Chemscore.DG>
-17.3143

> <Gold.Chemscore.ZeroCoef>
-5.4800

> <Gold.Chemscore.Hbond>
2.8908

> <Gold.Chemscore.Metal>
0.0000

> <Gold.Chemscore.Lipo>
66.4900

> <Gold.Chemscore.Internal_Hbond>
0.0000

> <Gold.Chemscore.DEClash>
0.0149

> <Gold.Chemscore.DEInternal>
0.3454

> <Gold.Chemscore.Rot>
2.1877

> <Gold.Chemscore.Internal.Correction>
   9.000000E+99

> <Gold.Chemscore.Hbonds>
donor molecule, donor type, donor heavy atom, donor atom, acceptor molecule, acceptor atom, score
      L1  H     2    26       P1 10747  0.99
      P1  H  6896  6908       L1    12  0.98
      P1  H  6934  6947       L1    20  0.01

> <Gold.Chemscore.Hbond.Weighted>
-9.6554

> <Gold.Chemscore.Metal.Weighted>
-0.0000

> <Gold.Chemscore.Lipo.Weighted>
-7.7793

> <Gold.Chemscore.Internal_Hbond.Weighted>
0.0000

> <Gold.Chemscore.DEClash.Weighted>
0.0149

> <Gold.Chemscore.DEInternal.Weighted>
0.3454

> <Gold.Chemscore.Rot.Weighted>
5.6005

> <Gold.Chemscore.Internal.Correction.Weighted>
   9.000000E+99

> <Gold.Protein.RotatedTorsions>
[ 6907 6896 6895 6894 ] final -174.93 input  -60.11 | X-H torsion
[ 7974 7965 7964 7962 ] final   57.33 input  175.53 | X-H torsion
[ 8008 7997 7996 7995 ] final   20.17 input   59.86 | X-H torsion
[ 10167 10162 10161 10158 ] final  -79.71 input  -65.29 | X-H torsion
[ 10718 10713 10712 10709 ] final  -16.56 input   66.30 | X-H torsion
[ 10763 10752 10751 10750 ] final   87.21 input  -60.55 | X-H torsion
[ 11005 11000 10999 10996 ] final   54.36 input  -57.11 | X-H torsion

> <Gold.Protein.ActiveResidues>
 VAL166  LYS551  ARG553  GLY616  TRP617  ASP618  TYR619  PRO620  LYS621  CYS622 
 ASP623  PHE694  ASN695  SER759  ASP760  ASP761  ALA762  ILE779  LEU786  VAL792 
 PHE793  MET794  SER795  GLU796  ALA797  LYS798  CYS799  TRP800  GLU811  SER814 

> <Gold.Protein.RotatedAtoms>
  151.5804  133.3378  159.3007 H   0  0  0  0  0  0  0  0  0  0  0  0  # atno 6907 bound_to 6896
  150.8316  134.7575  159.6870 H   0  0  0  0  0  0  0  0  0  0  0  0  # atno 6908 bound_to 6896
  152.4399  134.5618  159.9948 H   0  0  0  0  0  0  0  0  0  0  0  0  # atno 6909 bound_to 6896
  145.9302  139.3801  143.0425 H   0  0  0  0  0  0  0  0  0  0  0  0  # atno 7974 bound_to 7965
  154.9316  140.3041  155.5165 H   0  0  0  0  0  0  0  0  0  0  0  0  # atno 8008 bound_to 7997
  156.3003  140.2353  156.4313 H   0  0  0  0  0  0  0  0  0  0  0  0  # atno 8009 bound_to 7997
  154.8232  140.0422  157.1414 H   0  0  0  0  0  0  0  0  0  0  0  0  # atno 8010 bound_to 7997
  140.4568  143.2466  151.8407 H   0  0  0  0  0  0  0  0  0  0  0  0  # atno 10167 bound_to 10162
  156.5859  130.4786  149.6300 H   0  0  0  0  0  0  0  0  0  0  0  0  # atno 10718 bound_to 10713
  153.1645  135.4552  154.9818 H   0  0  0  0  0  0  0  0  0  0  0  0  # atno 10763 bound_to 10752
  154.7922  135.3224  154.7753 H   0  0  0  0  0  0  0  0  0  0  0  0  # atno 10764 bound_to 10752
  153.8238  135.6944  153.4878 H   0  0  0  0  0  0  0  0  0  0  0  0  # atno 10765 bound_to 10752
  140.0692  134.5493  155.9065 H   0  0  0  0  0  0  0  0  0  0  0  0  # atno 11005 bound_to 11000
  145.8435  140.9567  143.0786 LP  0  0  0  0  0  0  0  0  0  0  0  0  # atno 17320 bound_to 7965
  144.6764  140.0315  143.7482 LP  0  0  0  0  0  0  0  0  0  0  0  0  # atno 17321 bound_to 7965
  139.4802  144.5055  151.9003 LP  0  0  0  0  0  0  0  0  0  0  0  0  # atno 17342 bound_to 10162
  140.4141  144.2330  150.5888 LP  0  0  0  0  0  0  0  0  0  0  0  0  # atno 17343 bound_to 10162
  156.2591  130.6952  151.1715 LP  0  0  0  0  0  0  0  0  0  0  0  0  # atno 17370 bound_to 10713
  157.7315  131.0607  150.5673 LP  0  0  0  0  0  0  0  0  0  0  0  0  # atno 17371 bound_to 10713
  141.2005  133.6613  156.5900 LP  0  0  0  0  0  0  0  0  0  0  0  0  # atno 17394 bound_to 11000
  140.3652  134.7653  157.4561 LP  0  0  0  0  0  0  0  0  0  0  0  0  # atno 17395 bound_to 11000

$$$$
