AV-unprocessed.smi:140|AV-procd|sdf|1186|dock8
  -GOLD-   2262018343D 1   1.00000     0.00000
 Structure written by MMmdl.
 52 55  0  0  0  0  0  0  0  0  1 V2000
  148.3853  132.1431  154.4333 C   0  0  0  0  0  0  0  0  0  0  0  0
  148.5458  133.5240  154.9839 C   0  0  0  0  0  0  0  0  0  0  0  0
  149.6690  134.1508  155.4364 C   0  0  0  0  0  0  0  0  0  0  0  0
  149.3168  135.4617  155.8615 C   0  0  0  0  0  0  0  0  0  0  0  0
  150.1944  136.5086  156.4433 C   0  0  0  0  0  0  0  0  0  0  0  0
  151.3794  136.6442  156.1347 O   0  0  0  0  0  0  0  0  0  0  0  0
  149.5289  137.4419  157.4723 C   0  0  0  0  0  0  0  0  0  0  0  0
  150.4561  138.4044  158.0534 N   0  0  0  0  0  0  0  0  0  0  0  0
  151.3375  137.9489  159.0657 C   0  0  0  0  0  0  0  0  0  0  0  0
  151.3383  136.7804  159.4569 O   0  0  0  0  0  0  0  0  0  0  0  0
  152.2231  138.9755  159.6039 C   0  0  0  0  0  0  0  0  0  0  0  0
  153.1102  138.6523  160.5602 F   0  0  0  0  0  0  0  0  0  0  0  0
  152.1687  140.2492  159.1576 C   0  0  0  0  0  0  0  0  0  0  0  0
  151.2842  140.6698  158.1775 N   0  0  0  0  0  0  0  0  0  0  0  0
  151.2348  142.1054  157.7011 C   0  0  1  0  0  0  0  0  0  0  0  0
  149.8833  142.7492  158.0616 C   0  0  0  0  0  0  0  0  0  0  0  0
  150.2998  144.0446  158.7289 C   0  0  0  0  0  0  0  0  0  0  0  0
  151.6364  143.6624  159.3465 C   0  0  0  0  0  0  0  0  0  0  0  0
  152.2307  142.8531  158.3397 O   0  0  0  0  0  0  0  0  0  0  0  0
  150.3938  139.7422  157.5948 C   0  0  0  0  0  0  0  0  0  0  0  0
  149.5897  140.0981  156.7297 O   0  0  0  0  0  0  0  0  0  0  0  0
  147.9666  135.6144  155.6447 C   0  0  0  0  0  0  0  0  0  0  0  0
  147.0621  136.7905  155.8903 C   0  0  0  0  0  0  0  0  0  0  0  0
  147.4861  134.4135  155.1184 N   0  0  0  0  0  0  0  0  0  0  0  0
  146.1001  134.1296  154.7571 C   0  0  0  0  0  0  0  0  0  0  0  0
  145.7022  134.7295  153.4447 C   0  0  0  0  0  0  0  0  0  0  0  0
  145.5094  136.0542  153.1410 C   0  0  0  0  0  0  0  0  0  0  0  0
  145.1314  136.2706  151.7838 C   0  0  0  0  0  0  0  0  0  0  0  0
  145.0423  135.1080  151.0661 C   0  0  0  0  0  0  0  0  0  0  0  0
  145.4242  133.7203  152.0474 S   0  0  0  0  0  0  0  0  0  0  0  0
  149.3556  131.6648  154.2979 H   0  0  0  0  0  0  0  0  0  0  0  0
  147.8869  132.1605  153.4640 H   0  0  0  0  0  0  0  0  0  0  0  0
  147.7992  131.5204  155.1094 H   0  0  0  0  0  0  0  0  0  0  0  0
  150.6516  133.7033  155.4623 H   0  0  0  0  0  0  0  0  0  0  0  0
  148.7038  137.9952  157.0216 H   0  0  0  0  0  0  0  0  0  0  0  0
  149.0818  136.8705  158.2870 H   0  0  0  0  0  0  0  0  0  0  0  0
  152.8550  140.9554  159.5989 H   0  0  0  0  0  0  0  0  0  0  0  0
  151.4428  142.0719  156.6301 H   0  0  0  0  0  0  0  0  0  0  0  0
  149.2698  142.8985  157.1727 H   0  0  0  0  0  0  0  0  0  0  0  0
  149.3399  142.1167  158.7657 H   0  0  0  0  0  0  0  0  0  0  0  0
  150.4433  144.8245  157.9800 H   0  0  0  0  0  0  0  0  0  0  0  0
  149.5763  144.4010  159.4625 H   0  0  0  0  0  0  0  0  0  0  0  0
  152.2561  144.5272  159.5835 H   0  0  0  0  0  0  0  0  0  0  0  0
  151.4892  143.0825  160.2587 H   0  0  0  0  0  0  0  0  0  0  0  0
  147.5184  137.7122  155.5298 H   0  0  0  0  0  0  0  0  0  0  0  0
  146.8657  136.9066  156.9561 H   0  0  0  0  0  0  0  0  0  0  0  0
  146.1036  136.7053  155.3824 H   0  0  0  0  0  0  0  0  0  0  0  0
  145.9414  133.0523  154.7281 H   0  0  0  0  0  0  0  0  0  0  0  0
  145.4521  134.4914  155.5558 H   0  0  0  0  0  0  0  0  0  0  0  0
  145.6220  136.8689  153.8410 H   0  0  0  0  0  0  0  0  0  0  0  0
  144.9402  137.2573  151.3881 H   0  0  0  0  0  0  0  0  0  0  0  0
  144.7773  134.9820  150.0267 H   0  0  0  0  0  0  0  0  0  0  0  0
  1  2  1  0  0  0  0
  1 31  1  0  0  0  0
  1 32  1  0  0  0  0
  1 33  1  0  0  0  0
  2 24  1  0  0  0  0
  2  3  2  0  0  0  0
  3  4  1  0  0  0  0
  3 34  1  0  0  0  0
  4  5  1  0  0  0  0
  4 22  2  0  0  0  0
  5  6  2  0  0  0  0
  5  7  1  0  0  0  0
  7  8  1  0  0  0  0
  7 35  1  0  0  0  0
  7 36  1  0  0  0  0
  8 20  1  0  0  0  0
  8  9  1  0  0  0  0
  9 10  2  0  0  0  0
  9 11  1  0  0  0  0
 11 12  1  0  0  0  0
 11 13  2  0  0  0  0
 13 14  1  0  0  0  0
 13 37  1  0  0  0  0
 14 15  1  0  0  0  0
 14 20  1  0  0  0  0
 15 19  1  0  0  0  0
 15 16  1  0  0  0  0
 15 38  1  0  0  0  0
 16 17  1  0  0  0  0
 16 39  1  0  0  0  0
 16 40  1  0  0  0  0
 17 18  1  0  0  0  0
 17 41  1  0  0  0  0
 17 42  1  0  0  0  0
 18 19  1  0  0  0  0
 18 43  1  0  0  0  0
 18 44  1  0  0  0  0
 20 21  2  0  0  0  0
 22 23  1  0  0  0  0
 22 24  1  0  0  0  0
 23 45  1  0  0  0  0
 23 46  1  0  0  0  0
 23 47  1  0  0  0  0
 24 25  1  0  0  0  0
 25 26  1  0  0  0  0
 25 48  1  0  0  0  0
 25 49  1  0  0  0  0
 26 30  1  0  0  0  0
 26 27  2  0  0  0  0
 27 28  1  0  0  0  0
 27 50  1  0  0  0  0
 28 29  2  0  0  0  0
 28 51  1  0  0  0  0
 29 30  1  0  0  0  0
 29 52  1  0  0  0  0
M  END
> <s_m_source_file>
AV-unprocessed.smi

> <i_m_source_file_index>
140

> <i_lp_mmshare_version>
43012

> <i_f3d_flags>
0

> <s_epik_input>
czFbY0hdW2NIXVtjSF1jMVtDSDJdbjJjKFtDSDNdKWMoW2NIXWMyW0NIM10pQyg9TylbQ0gyXW4zYyg9TyljKEYpW2NIXW4oYzM9TylbQ0BASF00W0NIMl1bQ0gyXVtDSDJdTzQ=

> <s_epik_cmdline>
J2VwaWtfcHl0aG9uJywgJy1waCcsICc3LjAnLCAnLXRuJywgJzgnLCAnLW1hJywgJzIwMCcsICctbWV0YWxfYmluZGluZycsICctaW1hZScsICc8aW5maWxlLm1hZT4nLCAnLW9tYWUnLCAnPG91dGZpbGUubWFlPic=

> <r_lp_tautomer_probability>
1

> <r_epik_Ionization_Penalty>
5.024e-09

> <r_epik_Ionization_Penalty_Charging>
5.01743e-09

> <r_epik_Ionization_Penalty_Neutral>
6.5712e-12

> <r_epik_State_Penalty>
-0

> <r_epik_Charging_Adjusted_Penalty>
5.01743e-09

> <i_epik_Tot_Q>
0

> <i_epik_Tot_abs_Q>
0

> <r_epik_Metal_State_Penalty>
-0

> <b_epik_Metal_Only>
0

> <s_epik_Chemistry_Notes>
This compound contains an acetal/aminal-like group ( X-CH(R)-Y where X, Y are N, S, or O) that may be acid/base labile, releasing an aldehyde.

> <s_lp_Force_Field>
OPLS_2005

> <r_lp_Energy>
38.6163

> <b_lp_Chiralities_Consistent>
1

> <s_lp_Variant>
AV-unprocessed.smi:140-2

> <Gold.Version>
5.8.1

> <Gold.Id.Protein>
6NUR|6NUR_protein|mol2

> <Gold.PLP.Fitness>
50.8202

> <Gold.PLP.PLP>
-43.8952

> <Gold.PLP.part.hbond>
-2.0000

> <Gold.PLP.part.metal>
0.0000

> <Gold.PLP.part.buried>
-6.1290

> <Gold.PLP.part.nonpolar>
-34.7645

> <Gold.PLP.part.repulsive>
0.0288

> <Gold.PLP.ligand.clash>
0.0000

> <Gold.PLP.ligand.torsion>
1.0606

> <Gold.PLP.Chemscore.Hbond>
1.9920

> <Gold.PLP.Chemscore.CHOScore>
1.0000

> <Gold.PLP.Chemscore.Metal>
0.0000

> <Gold.Chemscore.Hbonds>
donor molecule, donor type, donor heavy atom, donor atom, acceptor molecule, acceptor atom, score
      P1  H  6896  6908       L1    10  1.00
      P1  H 10752 10764       L1     6  0.18
      L1  C    29    52       P1  7921  0.44

> <Gold.PLP.Chemscore.Internal.Correction>
0.0702

> <Gold.Rescore>
     Score         DG    S(hbond)    S(metal)    S(lipo)     H(rot)  DE(clash)    DE(int)     intcor
     15.24     -17.98       1.86        0.00      94.77       1.87       0.31       2.43       ----

> <Gold.Chemscore.Fitness>
15.2448

> <Gold.Chemscore.DG>
-17.9768

> <Gold.Chemscore.ZeroCoef>
-5.4800

> <Gold.Chemscore.Hbond>
1.8559

> <Gold.Chemscore.Metal>
0.0000

> <Gold.Chemscore.Lipo>
94.7739

> <Gold.Chemscore.Internal_Hbond>
0.0000

> <Gold.Chemscore.DEClash>
0.3070

> <Gold.Chemscore.DEInternal>
2.4250

> <Gold.Chemscore.Rot>
1.8713

> <Gold.Chemscore.Internal.Correction>
   9.000000E+99

> <Gold.Chemscore.Hbonds>
donor molecule, donor type, donor heavy atom, donor atom, acceptor molecule, acceptor atom, score
      P1  H  6896  6908       L1    10  0.97
      P1  H 10752 10764       L1     6  0.19

> <Gold.Chemscore.Hbond.Weighted>
-6.1987

> <Gold.Chemscore.Metal.Weighted>
-0.0000

> <Gold.Chemscore.Lipo.Weighted>
-11.0885

> <Gold.Chemscore.Internal_Hbond.Weighted>
0.0000

> <Gold.Chemscore.DEClash.Weighted>
0.3070

> <Gold.Chemscore.DEInternal.Weighted>
2.4250

> <Gold.Chemscore.Rot.Weighted>
4.7905

> <Gold.Chemscore.Internal.Correction.Weighted>
   9.000000E+99

> <Gold.Protein.RotatedTorsions>
[ 6907 6896 6895 6894 ] final -114.52 input  -60.11 | X-H torsion
[ 7974 7965 7964 7962 ] final  -25.98 input  175.53 | X-H torsion
[ 8008 7997 7996 7995 ] final   30.04 input   59.86 | X-H torsion
[ 10167 10162 10161 10158 ] final -104.76 input  -65.29 | X-H torsion
[ 10718 10713 10712 10709 ] final   83.82 input   66.30 | X-H torsion
[ 10763 10752 10751 10750 ] final  -35.99 input  -60.55 | X-H torsion
[ 11005 11000 10999 10996 ] final  -97.54 input  -57.11 | X-H torsion

> <Gold.Protein.ActiveResidues>
 VAL166  LYS551  ARG553  GLY616  TRP617  ASP618  TYR619  PRO620  LYS621  CYS622 
 ASP623  PHE694  ASN695  SER759  ASP760  ASP761  ALA762  ILE779  LEU786  VAL792 
 PHE793  MET794  SER795  GLU796  ALA797  LYS798  CYS799  TRP800  GLU811  SER814 

> <Gold.Protein.RotatedAtoms>
  150.7909  133.8789  159.3279 H   0  0  0  0  0  0  0  0  0  0  0  0  # atno 6907 bound_to 6896
  151.6627  135.0985  160.0192 H   0  0  0  0  0  0  0  0  0  0  0  0  # atno 6908 bound_to 6896
  152.3982  133.6740  159.6329 H   0  0  0  0  0  0  0  0  0  0  0  0  # atno 6909 bound_to 6896
  146.1456  140.4959  142.8633 H   0  0  0  0  0  0  0  0  0  0  0  0  # atno 7974 bound_to 7965
  155.0841  140.3213  155.4593 H   0  0  0  0  0  0  0  0  0  0  0  0  # atno 8008 bound_to 7997
  156.2760  140.2089  156.5914 H   0  0  0  0  0  0  0  0  0  0  0  0  # atno 8009 bound_to 7997
  154.6955  140.0512  157.0394 H   0  0  0  0  0  0  0  0  0  0  0  0  # atno 8010 bound_to 7997
  140.2059  143.3783  152.1091 H   0  0  0  0  0  0  0  0  0  0  0  0  # atno 10167 bound_to 10162
  157.6886  131.0107  150.2580 H   0  0  0  0  0  0  0  0  0  0  0  0  # atno 10718 bound_to 10713
  153.8723  135.6829  153.4773 H   0  0  0  0  0  0  0  0  0  0  0  0  # atno 10763 bound_to 10752
  153.1280  135.4710  154.9301 H   0  0  0  0  0  0  0  0  0  0  0  0  # atno 10764 bound_to 10752
  154.7708  135.3238  154.8144 H   0  0  0  0  0  0  0  0  0  0  0  0  # atno 10765 bound_to 10752
  141.1375  133.8179  157.0720 H   0  0  0  0  0  0  0  0  0  0  0  0  # atno 11005 bound_to 11000
  144.7842  140.5902  143.6585 LP  0  0  0  0  0  0  0  0  0  0  0  0  # atno 17320 bound_to 7965
  145.4946  139.1486  143.3691 LP  0  0  0  0  0  0  0  0  0  0  0  0  # atno 17321 bound_to 7965
  139.5199  144.7025  151.5450 LP  0  0  0  0  0  0  0  0  0  0  0  0  # atno 17342 bound_to 10162
  140.6358  143.8987  150.6646 LP  0  0  0  0  0  0  0  0  0  0  0  0  # atno 17343 bound_to 10162
  156.3165  130.3779  149.7614 LP  0  0  0  0  0  0  0  0  0  0  0  0  # atno 17370 bound_to 10713
  156.5198  130.8209  151.3199 LP  0  0  0  0  0  0  0  0  0  0  0  0  # atno 17371 bound_to 10713
  140.0505  134.9808  157.1128 LP  0  0  0  0  0  0  0  0  0  0  0  0  # atno 17394 bound_to 11000
  140.3997  134.2096  155.7164 LP  0  0  0  0  0  0  0  0  0  0  0  0  # atno 17395 bound_to 11000

$$$$
