AV-unprocessed.smi:852|AV-procd|sdf|3952|dock8
  -GOLD-   22720 1423D 1   1.00000     0.00000
 Structure written by MMmdl.
 30 31  0  0  0  0  0  0  0  0  1 V2000
  150.0851  139.5859  154.4076 C   0  0  0  0  0  0  0  0  0  0  0  0
  151.0660  139.2531  155.5490 C   0  0  2  0  0  0  0  0  0  0  0  0
  152.4454  139.2512  155.0176 C   0  0  0  0  0  0  0  0  0  0  0  0
  153.5258  139.2502  154.6019 N   0  0  0  0  0  0  0  0  0  0  0  0
  150.7283  137.9434  156.1094 N   0  0  0  0  0  0  0  0  0  0  0  0
  151.0256  136.7336  155.6026 C   0  0  0  0  0  0  0  0  0  0  0  0
  151.6069  136.5681  154.5314 O   0  0  0  0  0  0  0  0  0  0  0  0
  150.5938  135.5190  156.4288 C   0  0  0  0  0  0  0  0  0  0  0  0
  149.5744  135.8666  157.4039 N   0  0  0  0  0  0  0  0  0  0  0  0
  148.2636  136.0818  157.2504 C   0  0  0  0  0  0  0  0  0  0  0  0
  147.6337  136.4015  158.3737 N   0  0  0  0  0  0  0  0  0  0  0  0
  148.6944  136.3554  159.2313 C   0  0  0  0  0  0  0  0  0  0  0  0
  148.5387  136.6418  160.6472 C   0  0  0  0  0  0  0  0  0  0  0  0
  148.4145  136.8702  161.7748 N   0  0  0  0  0  0  0  0  0  0  0  0
  149.8796  136.0402  158.7131 N   0  0  0  0  0  0  0  0  0  0  0  0
  150.9376  140.3267  156.6275 C   0  0  0  0  0  0  0  0  0  0  0  0
  149.6276  141.0146  156.9425 C   0  0  0  0  0  0  0  0  0  0  0  0
  150.7570  141.7926  156.3027 C   0  0  0  0  0  0  0  0  0  0  0  0
  150.2751  140.5824  154.0074 H   0  0  0  0  0  0  0  0  0  0  0  0
  149.0504  139.5617  154.7517 H   0  0  0  0  0  0  0  0  0  0  0  0
  150.1741  138.8855  153.5768 H   0  0  0  0  0  0  0  0  0  0  0  0
  150.2424  137.9602  156.9942 H   0  0  0  0  0  0  0  0  0  0  0  0
  150.2024  134.7471  155.7654 H   0  0  0  0  0  0  0  0  0  0  0  0
  151.4523  135.0917  156.9499 H   0  0  0  0  0  0  0  0  0  0  0  0
  147.7620  136.0096  156.2965 H   0  0  0  0  0  0  0  0  0  0  0  0
  151.5654  140.1250  157.4940 H   0  0  0  0  0  0  0  0  0  0  0  0
  148.7613  140.7868  156.3246 H   0  0  0  0  0  0  0  0  0  0  0  0
  149.4080  141.2182  157.9885 H   0  0  0  0  0  0  0  0  0  0  0  0
  151.2881  142.5101  156.9246 H   0  0  0  0  0  0  0  0  0  0  0  0
  150.6424  142.0813  155.2601 H   0  0  0  0  0  0  0  0  0  0  0  0
  1  2  1  0  0  0  0
  1 19  1  0  0  0  0
  1 20  1  0  0  0  0
  1 21  1  0  0  0  0
  2  3  1  0  0  0  0
  2  5  1  0  0  0  0
  2 16  1  0  0  0  0
  3  4  3  0  0  0  0
  5  6  1  0  0  0  0
  5 22  1  0  0  0  0
  6  7  2  0  0  0  0
  6  8  1  0  0  0  0
  8  9  1  0  0  0  0
  8 23  1  0  0  0  0
  8 24  1  0  0  0  0
  9 15  1  0  0  0  0
  9 10  1  0  0  0  0
 10 11  2  0  0  0  0
 10 25  1  0  0  0  0
 11 12  1  0  0  0  0
 12 13  1  0  0  0  0
 12 15  2  0  0  0  0
 13 14  3  0  0  0  0
 16 18  1  0  0  0  0
 16 17  1  0  0  0  0
 16 26  1  0  0  0  0
 17 18  1  0  0  0  0
 17 27  1  0  0  0  0
 17 28  1  0  0  0  0
 18 29  1  0  0  0  0
 18 30  1  0  0  0  0
M  END
> <s_m_source_file>
AV-unprocessed.smi

> <i_m_source_file_index>
852

> <i_lp_mmshare_version>
43012

> <i_f3d_flags>
0

> <s_epik_input>
W0NIMl0xW0NIMl1bQ0hdMVtDQF0oW0NIM10pKEMjTilbTkhdQyg9TylbQ0gyXW4yW2NIXW5jKG4yKUMjTg==

> <s_epik_cmdline>
J2VwaWtfcHl0aG9uJywgJy1waCcsICc3LjAnLCAnLXRuJywgJzgnLCAnLW1hJywgJzIwMCcsICctbWV0YWxfYmluZGluZycsICctaW1hZScsICc8aW5maWxlLm1hZT4nLCAnLW9tYWUnLCAnPG91dGZpbGUubWFlPic=

> <r_lp_tautomer_probability>
1

> <r_epik_Ionization_Penalty>
2.64294e-06

> <r_epik_Ionization_Penalty_Charging>
0

> <r_epik_Ionization_Penalty_Neutral>
2.64294e-06

> <r_epik_State_Penalty>
-0

> <r_epik_Charging_Adjusted_Penalty>
0

> <i_epik_Tot_Q>
0

> <i_epik_Tot_abs_Q>
0

> <r_epik_Metal_State_Penalty>
-0

> <b_epik_Metal_Only>
0

> <s_lp_Force_Field>
OPLS_2005

> <r_lp_Energy>
16.3367

> <b_lp_Chiralities_Consistent>
1

> <s_lp_Variant>
AV-unprocessed.smi:852-2

> <Gold.Version>
5.8.1

> <Gold.Id.Protein>
6NUR|6NUR_protein|mol2

> <Gold.PLP.Fitness>
36.6954

> <Gold.PLP.PLP>
-26.4404

> <Gold.PLP.part.hbond>
-4.3398

> <Gold.PLP.part.metal>
0.0000

> <Gold.PLP.part.buried>
-2.7954

> <Gold.PLP.part.nonpolar>
-19.5095

> <Gold.PLP.part.repulsive>
0.2840

> <Gold.PLP.ligand.clash>
0.0000

> <Gold.PLP.ligand.torsion>
1.6292

> <Gold.PLP.Chemscore.Hbond>
4.0000

> <Gold.PLP.Chemscore.CHOScore>
0.0000

> <Gold.PLP.Chemscore.Metal>
0.0000

> <Gold.Chemscore.Hbonds>
donor molecule, donor type, donor heavy atom, donor atom, acceptor molecule, acceptor atom, score
      P1  H  6896  6908       L1    15  1.00
      P1  H  6931  6943       L1    14  0.96
      P1  H  7997  8009       L1     4  0.98
      P1  H 10752 10764       L1     7  1.00

> <Gold.PLP.Chemscore.Internal.Correction>
1.5134

> <Gold.Rescore>
     Score         DG    S(hbond)    S(metal)    S(lipo)     H(rot)  DE(clash)    DE(int)     intcor
     12.11     -14.99       3.50        0.00      35.25       2.46       0.09       2.79       ----

> <Gold.Chemscore.Fitness>
12.1112

> <Gold.Chemscore.DG>
-14.9943

> <Gold.Chemscore.ZeroCoef>
-5.4800

> <Gold.Chemscore.Hbond>
3.4970

> <Gold.Chemscore.Metal>
0.0000

> <Gold.Chemscore.Lipo>
35.2502

> <Gold.Chemscore.Internal_Hbond>
0.0000

> <Gold.Chemscore.DEClash>
0.0884

> <Gold.Chemscore.DEInternal>
2.7947

> <Gold.Chemscore.Rot>
2.4571

> <Gold.Chemscore.Internal.Correction>
   9.000000E+99

> <Gold.Chemscore.Hbonds>
donor molecule, donor type, donor heavy atom, donor atom, acceptor molecule, acceptor atom, score
      P1  H  6896  6908       L1    15  0.87
      P1  H  6931  6943       L1    14  0.36
      P1  H  7997  8009       L1     4  0.28
      P1  H 10752 10764       L1     7  0.98

> <Gold.Chemscore.Hbond.Weighted>
-11.6801

> <Gold.Chemscore.Metal.Weighted>
-0.0000

> <Gold.Chemscore.Lipo.Weighted>
-4.1243

> <Gold.Chemscore.Internal_Hbond.Weighted>
0.0000

> <Gold.Chemscore.DEClash.Weighted>
0.0884

> <Gold.Chemscore.DEInternal.Weighted>
2.7947

> <Gold.Chemscore.Rot.Weighted>
6.2901

> <Gold.Chemscore.Internal.Correction.Weighted>
   9.000000E+99

> <Gold.Protein.RotatedTorsions>
[ 6907 6896 6895 6894 ] final -176.15 input  -60.11 | X-H torsion
[ 7974 7965 7964 7962 ] final  -40.17 input  175.53 | X-H torsion
[ 8008 7997 7996 7995 ] final -142.57 input   59.86 | X-H torsion
[ 10167 10162 10161 10158 ] final -159.70 input  -65.29 | X-H torsion
[ 10718 10713 10712 10709 ] final   23.39 input   66.30 | X-H torsion
[ 10763 10752 10751 10750 ] final  -68.77 input  -60.55 | X-H torsion
[ 11005 11000 10999 10996 ] final   39.61 input  -57.11 | X-H torsion

> <Gold.Protein.ActiveResidues>
 VAL166  LYS551  ARG553  GLY616  TRP617  ASP618  TYR619  PRO620  LYS621  CYS622 
 ASP623  PHE694  ASN695  SER759  ASP760  ASP761  ALA762  ILE779  LEU786  VAL792 
 PHE793  MET794  SER795  GLU796  ALA797  LYS798  CYS799  TRP800  GLU811  SER814 

> <Gold.Protein.RotatedAtoms>
  151.6001  133.3357  159.3045 H   0  0  0  0  0  0  0  0  0  0  0  0  # atno 6907 bound_to 6896
  150.8212  134.7425  159.6785 H   0  0  0  0  0  0  0  0  0  0  0  0  # atno 6908 bound_to 6896
  152.4306  134.5791  159.9994 H   0  0  0  0  0  0  0  0  0  0  0  0  # atno 6909 bound_to 6896
  146.0329  140.6708  142.9124 H   0  0  0  0  0  0  0  0  0  0  0  0  # atno 7974 bound_to 7965
  155.4963  140.0572  157.2946 H   0  0  0  0  0  0  0  0  0  0  0  0  # atno 8008 bound_to 7997
  154.4604  140.1993  156.0212 H   0  0  0  0  0  0  0  0  0  0  0  0  # atno 8009 bound_to 7997
  156.0879  140.3237  155.7781 H   0  0  0  0  0  0  0  0  0  0  0  0  # atno 8010 bound_to 7997
  139.6595  143.9938  152.2216 H   0  0  0  0  0  0  0  0  0  0  0  0  # atno 10167 bound_to 10162
  157.1655  130.6736  149.6059 H   0  0  0  0  0  0  0  0  0  0  0  0  # atno 10718 bound_to 10713
  154.3939  135.6046  153.5858 H   0  0  0  0  0  0  0  0  0  0  0  0  # atno 10763 bound_to 10752
  152.9787  135.5890  154.4265 H   0  0  0  0  0  0  0  0  0  0  0  0  # atno 10764 bound_to 10752
  154.4053  135.2843  155.2049 H   0  0  0  0  0  0  0  0  0  0  0  0  # atno 10765 bound_to 10752
  140.2011  134.3869  155.8096 H   0  0  0  0  0  0  0  0  0  0  0  0  # atno 11005 bound_to 11000
  144.7039  140.3769  143.7134 LP  0  0  0  0  0  0  0  0  0  0  0  0  # atno 17320 bound_to 7965
  145.7010  139.1661  143.2592 LP  0  0  0  0  0  0  0  0  0  0  0  0  # atno 17321 bound_to 7965
  139.9673  144.6517  150.8022 LP  0  0  0  0  0  0  0  0  0  0  0  0  # atno 17342 bound_to 10162
  140.7574  143.3085  151.2903 LP  0  0  0  0  0  0  0  0  0  0  0  0  # atno 17343 bound_to 10162
  155.9747  130.4697  150.6404 LP  0  0  0  0  0  0  0  0  0  0  0  0  # atno 17370 bound_to 10713
  157.4092  131.0821  151.1236 LP  0  0  0  0  0  0  0  0  0  0  0  0  # atno 17371 bound_to 10713
  141.2227  133.7094  156.8259 LP  0  0  0  0  0  0  0  0  0  0  0  0  # atno 17394 bound_to 11000
  140.2053  134.8867  157.3214 LP  0  0  0  0  0  0  0  0  0  0  0  0  # atno 17395 bound_to 11000

$$$$
