AV-unprocessed.smi:3231|AV-procd|sdf|12337|dock8
  -GOLD-   2272018193D 1   1.00000     0.00000
 Structure written by MMmdl.
 40 41  0  0  0  0  0  0  0  0  1 V2000
  148.9953  142.2306  156.5913 O   0  0  0  0  0  0  0  0  0  0  0  0
  150.0540  141.5855  157.2687 C   0  0  2  0  0  0  0  0  0  0  0  0
  150.7898  142.6559  158.0917 C   0  0  0  0  0  0  0  0  0  0  0  0
  151.1802  143.7898  157.2601 N   0  0  0  0  0  0  0  0  0  0  0  0
  152.2172  144.6245  157.8604 C   0  0  0  0  0  0  0  0  0  0  0  0
  151.8703  144.9993  159.3101 C   0  0  0  0  0  0  0  0  0  0  0  0
  152.3131  143.9947  160.2600 N   0  0  0  0  0  0  0  0  0  0  0  0
  152.1268  143.9654  161.6262 C   0  0  0  0  0  0  0  0  0  0  0  0
  152.7145  142.8242  162.0918 C   0  0  0  0  0  0  0  0  0  0  0  0
  153.2415  142.2132  160.9197 C   0  0  0  0  0  0  0  0  0  0  0  0
  153.0010  142.9168  159.8251 N   0  0  0  0  0  0  0  0  0  0  0  0
  150.9705  140.9269  156.2135 C   0  0  0  0  0  0  0  0  0  0  0  0
  150.8843  139.4685  156.1192 N   0  0  0  0  0  0  0  0  0  0  0  0
  151.4972  138.9914  154.8838 C   0  0  0  0  0  0  0  0  0  0  0  0
  151.4190  137.4605  154.7550 C   0  0  0  0  0  0  0  0  0  0  0  0
  152.0361  136.8562  155.8866 O   0  0  0  0  0  0  0  0  0  0  0  0
  151.4394  137.2585  157.1150 C   0  0  0  0  0  0  0  0  0  0  0  0
  151.5128  138.7895  157.2511 C   0  0  0  0  0  0  0  0  0  0  0  0
  149.2904  143.0866  156.3210 H   0  0  0  0  0  0  0  0  0  0  0  0
  149.6274  140.8501  157.9500 H   0  0  0  0  0  0  0  0  0  0  0  0
  150.1604  142.9910  158.9172 H   0  0  0  0  0  0  0  0  0  0  0  0
  151.6819  142.2158  158.5395 H   0  0  0  0  0  0  0  0  0  0  0  0
  151.4894  143.4575  156.3522 H   0  0  0  0  0  0  0  0  0  0  0  0
  153.1793  144.1113  157.8312 H   0  0  0  0  0  0  0  0  0  0  0  0
  152.3354  145.5376  157.2764 H   0  0  0  0  0  0  0  0  0  0  0  0
  152.3418  145.9477  159.5705 H   0  0  0  0  0  0  0  0  0  0  0  0
  150.7951  145.1443  159.4240 H   0  0  0  0  0  0  0  0  0  0  0  0
  151.5952  144.7486  162.1458 H   0  0  0  0  0  0  0  0  0  0  0  0
  152.7606  142.4780  163.1136 H   0  0  0  0  0  0  0  0  0  0  0  0
  153.7882  141.2858  160.8325 H   0  0  0  0  0  0  0  0  0  0  0  0
  150.7338  141.3644  155.2425 H   0  0  0  0  0  0  0  0  0  0  0  0
  152.0070  141.2036  156.4126 H   0  0  0  0  0  0  0  0  0  0  0  0
  151.0038  139.4488  154.0255 H   0  0  0  0  0  0  0  0  0  0  0  0
  152.5423  139.3029  154.8448 H   0  0  0  0  0  0  0  0  0  0  0  0
  150.3815  137.1314  154.6777 H   0  0  0  0  0  0  0  0  0  0  0  0
  151.9295  137.1288  153.8509 H   0  0  0  0  0  0  0  0  0  0  0  0
  150.4037  136.9173  157.1525 H   0  0  0  0  0  0  0  0  0  0  0  0
  151.9649  136.7786  157.9407 H   0  0  0  0  0  0  0  0  0  0  0  0
  152.5574  139.0943  157.3327 H   0  0  0  0  0  0  0  0  0  0  0  0
  151.0296  139.0748  158.1842 H   0  0  0  0  0  0  0  0  0  0  0  0
  1  2  1  0  0  0  0
  1 19  1  0  0  0  0
  2  3  1  0  0  0  0
  2 12  1  0  0  0  0
  2 20  1  0  0  0  0
  3  4  1  0  0  0  0
  3 21  1  0  0  0  0
  3 22  1  0  0  0  0
  4  5  1  0  0  0  0
  4 23  1  0  0  0  0
  5  6  1  0  0  0  0
  5 24  1  0  0  0  0
  5 25  1  0  0  0  0
  6  7  1  0  0  0  0
  6 26  1  0  0  0  0
  6 27  1  0  0  0  0
  7 11  1  0  0  0  0
  7  8  1  0  0  0  0
  8  9  2  0  0  0  0
  8 28  1  0  0  0  0
  9 10  1  0  0  0  0
  9 29  1  0  0  0  0
 10 11  2  0  0  0  0
 10 30  1  0  0  0  0
 12 13  1  0  0  0  0
 12 31  1  0  0  0  0
 12 32  1  0  0  0  0
 13 18  1  0  0  0  0
 13 14  1  0  0  0  0
 14 15  1  0  0  0  0
 14 33  1  0  0  0  0
 14 34  1  0  0  0  0
 15 16  1  0  0  0  0
 15 35  1  0  0  0  0
 15 36  1  0  0  0  0
 16 17  1  0  0  0  0
 17 18  1  0  0  0  0
 17 37  1  0  0  0  0
 17 38  1  0  0  0  0
 18 39  1  0  0  0  0
 18 40  1  0  0  0  0
M  END
> <s_m_source_file>
AV-unprocessed.smi

> <i_m_source_file_index>
3231

> <i_lp_mmshare_version>
43012

> <i_f3d_flags>
0

> <s_epik_input>
W0NIMl0xW0NIMl1PW0NIMl1bQ0gyXU4xW0NIMl1bQ0BIXShbT0hdKVtDSDJdW05IXVtDSDJdW0NIMl1uMltjSF1bY0hdW2NIXW4y

> <s_epik_cmdline>
J2VwaWtfcHl0aG9uJywgJy1waCcsICc3LjAnLCAnLXRuJywgJzgnLCAnLW1hJywgJzIwMCcsICctbWV0YWxfYmluZGluZycsICctaW1hZScsICc8aW5maWxlLm1hZT4nLCAnLW9tYWUnLCAnPG91dGZpbGUubWFlPic=

> <r_lp_tautomer_probability>
1

> <r_epik_Ionization_Penalty>
2.37071

> <r_epik_Ionization_Penalty_Charging>
0

> <r_epik_Ionization_Penalty_Neutral>
2.37071

> <r_epik_State_Penalty>
1.72455

> <r_epik_Charging_Adjusted_Penalty>
1.72455

> <i_epik_Tot_Q>
0

> <i_epik_Tot_abs_Q>
0

> <r_epik_Metal_State_Penalty>
1.72366

> <b_epik_Metal_Only>
0

> <s_lp_Force_Field>
OPLS_2005

> <r_lp_Energy>
31.2728

> <b_lp_Chiralities_Consistent>
1

> <s_lp_Variant>
AV-unprocessed.smi:3231-7

> <Gold.Version>
5.8.1

> <Gold.Id.Protein>
6NUR|6NUR_protein|mol2

> <Gold.PLP.Fitness>
49.9096

> <Gold.PLP.PLP>
-45.8381

> <Gold.PLP.part.hbond>
-3.0000

> <Gold.PLP.part.metal>
0.0000

> <Gold.PLP.part.buried>
-6.7863

> <Gold.PLP.part.nonpolar>
-36.6226

> <Gold.PLP.part.repulsive>
0.0431

> <Gold.PLP.ligand.clash>
0.0000

> <Gold.PLP.ligand.torsion>
1.0387

> <Gold.PLP.Chemscore.Hbond>
1.9920

> <Gold.PLP.Chemscore.CHOScore>
0.0000

> <Gold.PLP.Chemscore.Metal>
0.0000

> <Gold.Chemscore.Hbonds>
donor molecule, donor type, donor heavy atom, donor atom, acceptor molecule, acceptor atom, score
      L1  H     1    19       P1  8028  0.96
      P1  H 10752 10763       L1    16  0.75

> <Gold.PLP.Chemscore.Internal.Correction>
0.1728

> <Gold.Rescore>
     Score         DG    S(hbond)    S(metal)    S(lipo)     H(rot)  DE(clash)    DE(int)     intcor
     16.45     -17.70       1.94        0.00     108.65       2.72       0.09       1.16       ----

> <Gold.Chemscore.Fitness>
16.4532

> <Gold.Chemscore.DG>
-17.6996

> <Gold.Chemscore.ZeroCoef>
-5.4800

> <Gold.Chemscore.Hbond>
1.9361

> <Gold.Chemscore.Metal>
0.0000

> <Gold.Chemscore.Lipo>
108.6491

> <Gold.Chemscore.Internal_Hbond>
0.0000

> <Gold.Chemscore.DEClash>
0.0890

> <Gold.Chemscore.DEInternal>
1.1574

> <Gold.Chemscore.Rot>
2.7183

> <Gold.Chemscore.Internal.Correction>
   9.000000E+99

> <Gold.Chemscore.Hbonds>
donor molecule, donor type, donor heavy atom, donor atom, acceptor molecule, acceptor atom, score
      L1  H     1    19       P1  8028  0.92
      P1  H 10752 10763       L1    16  0.09

> <Gold.Chemscore.Hbond.Weighted>
-6.4665

> <Gold.Chemscore.Metal.Weighted>
-0.0000

> <Gold.Chemscore.Lipo.Weighted>
-12.7119

> <Gold.Chemscore.Internal_Hbond.Weighted>
0.0000

> <Gold.Chemscore.DEClash.Weighted>
0.0890

> <Gold.Chemscore.DEInternal.Weighted>
1.1574

> <Gold.Chemscore.Rot.Weighted>
6.9589

> <Gold.Chemscore.Internal.Correction.Weighted>
   9.000000E+99

> <Gold.Protein.RotatedTorsions>
[ 6907 6896 6895 6894 ] final   29.11 input  -60.11 | X-H torsion
[ 7974 7965 7964 7962 ] final   25.85 input  175.53 | X-H torsion
[ 8008 7997 7996 7995 ] final   62.23 input   59.86 | X-H torsion
[ 10167 10162 10161 10158 ] final -122.12 input  -65.29 | X-H torsion
[ 10718 10713 10712 10709 ] final -131.00 input   66.30 | X-H torsion
[ 10763 10752 10751 10750 ] final   75.82 input  -60.55 | X-H torsion
[ 11005 11000 10999 10996 ] final   12.35 input  -57.11 | X-H torsion

> <Gold.Protein.ActiveResidues>
 VAL166  LYS551  ARG553  GLY616  TRP617  ASP618  TYR619  PRO620  LYS621  CYS622 
 ASP623  PHE694  ASN695  SER759  ASP760  ASP761  ALA762  ILE779  LEU786  VAL792 
 PHE793  MET794  SER795  GLU796  ALA797  LYS798  CYS799  TRP800  GLU811  SER814 

> <Gold.Protein.RotatedAtoms>
  152.0268  134.9791  160.0571 H   0  0  0  0  0  0  0  0  0  0  0  0  # atno 6907 bound_to 6896
  152.1283  133.4388  159.4717 H   0  0  0  0  0  0  0  0  0  0  0  0  # atno 6908 bound_to 6896
  150.6854  134.2369  159.4500 H   0  0  0  0  0  0  0  0  0  0  0  0  # atno 6909 bound_to 6896
  146.1867  139.7408  142.8861 H   0  0  0  0  0  0  0  0  0  0  0  0  # atno 7974 bound_to 7965
  155.6110  140.3495  155.4622 H   0  0  0  0  0  0  0  0  0  0  0  0  # atno 8008 bound_to 7997
  156.0154  140.1242  157.0435 H   0  0  0  0  0  0  0  0  0  0  0  0  # atno 8009 bound_to 7997
  154.4296  140.1073  156.5875 H   0  0  0  0  0  0  0  0  0  0  0  0  # atno 8010 bound_to 7997
  140.0177  143.5377  152.2235 H   0  0  0  0  0  0  0  0  0  0  0  0  # atno 10167 bound_to 10162
  156.2201  130.6973  151.0746 H   0  0  0  0  0  0  0  0  0  0  0  0  # atno 10718 bound_to 10713
  153.0682  135.4974  154.8246 H   0  0  0  0  0  0  0  0  0  0  0  0  # atno 10763 bound_to 10752
  154.6984  135.2997  154.9380 H   0  0  0  0  0  0  0  0  0  0  0  0  # atno 10764 bound_to 10752
  154.0112  135.6754  153.4818 H   0  0  0  0  0  0  0  0  0  0  0  0  # atno 10765 bound_to 10752
  140.4930  134.0822  155.7775 H   0  0  0  0  0  0  0  0  0  0  0  0  # atno 11005 bound_to 11000
  145.3916  141.0373  143.3121 LP  0  0  0  0  0  0  0  0  0  0  0  0  # atno 17320 bound_to 7965
  144.8411  139.5471  143.6900 LP  0  0  0  0  0  0  0  0  0  0  0  0  # atno 17321 bound_to 7965
  139.6161  144.7620  151.2842 LP  0  0  0  0  0  0  0  0  0  0  0  0  # atno 17342 bound_to 10162
  140.7355  143.6733  150.8063 LP  0  0  0  0  0  0  0  0  0  0  0  0  # atno 17343 bound_to 10162
  157.7083  131.0746  150.6591 LP  0  0  0  0  0  0  0  0  0  0  0  0  # atno 17370 bound_to 10713
  156.6653  130.4524  149.5674 LP  0  0  0  0  0  0  0  0  0  0  0  0  # atno 17371 bound_to 10713
  141.1475  133.9029  157.2181 LP  0  0  0  0  0  0  0  0  0  0  0  0  # atno 17394 bound_to 11000
  139.9758  135.0114  156.9627 LP  0  0  0  0  0  0  0  0  0  0  0  0  # atno 17395 bound_to 11000

$$$$
