AV-unprocessed.smi:2552|AV-procd|sdf|10015|dock8
  -GOLD-   2272014 63D 1   1.00000     0.00000
 Structure written by MMmdl.
 34 36  0  0  0  0  0  0  0  0  1 V2000
  152.9763  135.8382  157.8181 C   0  0  0  0  0  0  0  0  0  0  0  0
  152.2466  136.6861  156.8783 N   0  0  0  0  0  0  0  0  0  0  0  0
  151.5853  135.9952  155.8557 N   0  0  0  0  0  0  0  0  0  0  0  0
  150.9001  136.6234  154.9518 C   0  0  0  0  0  0  0  0  0  0  0  0
  150.8336  138.0797  155.0237 C   0  0  0  0  0  0  0  0  0  0  0  0
  150.2159  139.1019  154.2518 C   0  0  0  0  0  0  0  0  0  0  0  0
  150.4651  140.3154  154.7402 N   0  0  0  0  0  0  0  0  0  0  0  0
  151.2483  140.1203  155.8329 N   0  0  0  0  0  0  0  0  0  0  0  0
  151.7227  141.2632  156.5980 C   0  0  0  0  0  0  0  0  0  0  0  0
  150.6419  141.8275  157.5422 C   0  0  2  0  0  0  0  0  0  0  0  0
  149.5456  142.2497  156.7558 O   0  0  0  0  0  0  0  0  0  0  0  0
  151.1766  142.9409  158.4361 C   0  0  0  0  0  0  0  0  0  0  0  0
  150.7662  144.2773  158.2329 C   0  0  0  0  0  0  0  0  0  0  0  0
  151.2737  145.3097  159.0448 C   0  0  0  0  0  0  0  0  0  0  0  0
  152.1972  145.0138  160.0650 C   0  0  0  0  0  0  0  0  0  0  0  0
  152.6147  143.6852  160.2704 C   0  0  0  0  0  0  0  0  0  0  0  0
  152.1095  142.6509  159.4585 C   0  0  0  0  0  0  0  0  0  0  0  0
  152.5335  141.3801  159.6621 F   0  0  0  0  0  0  0  0  0  0  0  0
  151.4651  138.7688  156.0055 C   0  0  0  0  0  0  0  0  0  0  0  0
  152.2440  138.0439  157.0363 C   0  0  0  0  0  0  0  0  0  0  0  0
  152.8279  138.6353  157.9445 O   0  0  0  0  0  0  0  0  0  0  0  0
  152.5924  135.9681  158.8310 H   0  0  0  0  0  0  0  0  0  0  0  0
  154.0375  136.0915  157.8195 H   0  0  0  0  0  0  0  0  0  0  0  0
  152.8901  134.7800  157.5657 H   0  0  0  0  0  0  0  0  0  0  0  0
  150.3858  136.0838  154.1567 H   0  0  0  0  0  0  0  0  0  0  0  0
  149.6057  139.0074  153.3658 H   0  0  0  0  0  0  0  0  0  0  0  0
  152.6082  140.9690  157.1643 H   0  0  0  0  0  0  0  0  0  0  0  0
  152.0504  142.0286  155.8939 H   0  0  0  0  0  0  0  0  0  0  0  0
  150.2631  141.0226  158.1718 H   0  0  0  0  0  0  0  0  0  0  0  0
  149.6635  143.1632  156.5443 H   0  0  0  0  0  0  0  0  0  0  0  0
  150.0634  144.5164  157.4482 H   0  0  0  0  0  0  0  0  0  0  0  0
  150.9561  146.3293  158.8829 H   0  0  0  0  0  0  0  0  0  0  0  0
  152.5872  145.8055  160.6874 H   0  0  0  0  0  0  0  0  0  0  0  0
  153.3267  143.4588  161.0501 H   0  0  0  0  0  0  0  0  0  0  0  0
  1  2  1  0  0  0  0
  1 22  1  0  0  0  0
  1 23  1  0  0  0  0
  1 24  1  0  0  0  0
  2 20  1  0  0  0  0
  2  3  1  0  0  0  0
  3  4  2  0  0  0  0
  4  5  1  0  0  0  0
  4 25  1  0  0  0  0
  5 19  2  0  0  0  0
  5  6  1  0  0  0  0
  6  7  2  0  0  0  0
  6 26  1  0  0  0  0
  7  8  1  0  0  0  0
  8  9  1  0  0  0  0
  8 19  1  0  0  0  0
  9 10  1  0  0  0  0
  9 27  1  0  0  0  0
  9 28  1  0  0  0  0
 10 11  1  0  0  0  0
 10 12  1  0  0  0  0
 10 29  1  0  0  0  0
 11 30  1  0  0  0  0
 12 17  1  0  0  0  0
 12 13  2  0  0  0  0
 13 14  1  0  0  0  0
 13 31  1  0  0  0  0
 14 15  2  0  0  0  0
 14 32  1  0  0  0  0
 15 16  1  0  0  0  0
 15 33  1  0  0  0  0
 16 17  2  0  0  0  0
 16 34  1  0  0  0  0
 17 18  1  0  0  0  0
 19 20  1  0  0  0  0
 20 21  2  0  0  0  0
M  END
> <s_m_source_file>
AV-unprocessed.smi

> <i_m_source_file_index>
2552

> <i_lp_mmshare_version>
43012

> <i_f3d_flags>
0

> <s_epik_input>
W2NIXTFubihbQ0gzXSljKD1PKWMoYzEyKW4obltjSF0yKVtDSDJdW0NASF0oW09IXSljM1tjSF1bY0hdW2NIXVtjSF1jM0Y=

> <s_epik_cmdline>
J2VwaWtfcHl0aG9uJywgJy1waCcsICc3LjAnLCAnLXRuJywgJzgnLCAnLW1hJywgJzIwMCcsICctbWV0YWxfYmluZGluZycsICctaW1hZScsICc8aW5maWxlLm1hZT4nLCAnLW9tYWUnLCAnPG91dGZpbGUubWFlPic=

> <r_lp_tautomer_probability>
1

> <r_epik_Ionization_Penalty>
6.28011e-06

> <r_epik_Ionization_Penalty_Charging>
1.65421e-10

> <r_epik_Ionization_Penalty_Neutral>
6.27995e-06

> <r_epik_State_Penalty>
-0

> <r_epik_Charging_Adjusted_Penalty>
1.65421e-10

> <i_epik_Tot_Q>
0

> <i_epik_Tot_abs_Q>
0

> <r_epik_Metal_State_Penalty>
-0

> <b_epik_Metal_Only>
0

> <s_lp_Force_Field>
OPLS_2005

> <r_lp_Energy>
28.555

> <b_lp_Chiralities_Consistent>
1

> <s_lp_Variant>
AV-unprocessed.smi:2552-1

> <Gold.Version>
5.8.1

> <Gold.Id.Protein>
6NUR|6NUR_protein|mol2

> <Gold.PLP.Fitness>
53.2922

> <Gold.PLP.PLP>
-38.7512

> <Gold.PLP.part.hbond>
-3.7288

> <Gold.PLP.part.metal>
0.0000

> <Gold.PLP.part.buried>
-3.2215

> <Gold.PLP.part.nonpolar>
-32.7214

> <Gold.PLP.part.repulsive>
0.1199

> <Gold.PLP.ligand.clash>
0.0000

> <Gold.PLP.ligand.torsion>
0.4777

> <Gold.PLP.Chemscore.Hbond>
3.6388

> <Gold.PLP.Chemscore.CHOScore>
1.5216

> <Gold.PLP.Chemscore.Metal>
0.0000

> <Gold.Chemscore.Hbonds>
donor molecule, donor type, donor heavy atom, donor atom, acceptor molecule, acceptor atom, score
      L1  H    11    30       P1  8028  0.91
      P1  H  7989  7998       L1     7  0.95
      P1  H 10752 10763       L1     3  0.75
      L1  C     4    25       P1  7948  0.40
      L1  C     4    25       P1  7949  0.13
      L1  C     6    26       P1  7957  1.00

> <Gold.PLP.Chemscore.Internal.Correction>
0.0154

> <Gold.Rescore>
     Score         DG    S(hbond)    S(metal)    S(lipo)     H(rot)  DE(clash)    DE(int)     intcor
     15.62     -17.67       1.33        0.00     110.50       2.02       1.67       0.39       ----

> <Gold.Chemscore.Fitness>
15.6164

> <Gold.Chemscore.DG>
-17.6680

> <Gold.Chemscore.ZeroCoef>
-5.4800

> <Gold.Chemscore.Hbond>
1.3250

> <Gold.Chemscore.Metal>
0.0000

> <Gold.Chemscore.Lipo>
110.5020

> <Gold.Chemscore.Internal_Hbond>
0.0000

> <Gold.Chemscore.DEClash>
1.6664

> <Gold.Chemscore.DEInternal>
0.3852

> <Gold.Chemscore.Rot>
2.0181

> <Gold.Chemscore.Internal.Correction>
   9.000000E+99

> <Gold.Chemscore.Hbonds>
donor molecule, donor type, donor heavy atom, donor atom, acceptor molecule, acceptor atom, score
      L1  H    11    30       P1  8028  0.89
      P1  H  7989  7998       L1     7  0.08
      P1  H  7997  8008       L1    21  0.03
      P1  H 10752 10763       L1     3  0.04

> <Gold.Chemscore.Hbond.Weighted>
-4.4256

> <Gold.Chemscore.Metal.Weighted>
-0.0000

> <Gold.Chemscore.Lipo.Weighted>
-12.9287

> <Gold.Chemscore.Internal_Hbond.Weighted>
0.0000

> <Gold.Chemscore.DEClash.Weighted>
1.6664

> <Gold.Chemscore.DEInternal.Weighted>
0.3852

> <Gold.Chemscore.Rot.Weighted>
5.1663

> <Gold.Chemscore.Internal.Correction.Weighted>
   9.000000E+99

> <Gold.Protein.RotatedTorsions>
[ 6907 6896 6895 6894 ] final  -69.24 input  -60.11 | X-H torsion
[ 7974 7965 7964 7962 ] final   54.91 input  175.53 | X-H torsion
[ 8008 7997 7996 7995 ] final  -69.21 input   59.86 | X-H torsion
[ 10167 10162 10161 10158 ] final -165.02 input  -65.29 | X-H torsion
[ 10718 10713 10712 10709 ] final -117.17 input   66.30 | X-H torsion
[ 10763 10752 10751 10750 ] final   85.76 input  -60.55 | X-H torsion
[ 11005 11000 10999 10996 ] final  138.99 input  -57.11 | X-H torsion

> <Gold.Protein.ActiveResidues>
 VAL166  LYS551  ARG553  GLY616  TRP617  ASP618  TYR619  PRO620  LYS621  CYS622 
 ASP623  PHE694  ASN695  SER759  ASP760  ASP761  ALA762  ILE779  LEU786  VAL792 
 PHE793  MET794  SER795  GLU796  ALA797  LYS798  CYS799  TRP800  GLU811  SER814 

> <Gold.Protein.RotatedAtoms>
  150.7315  134.5625  159.5849 H   0  0  0  0  0  0  0  0  0  0  0  0  # atno 6907 bound_to 6896
  152.3085  134.7523  160.0351 H   0  0  0  0  0  0  0  0  0  0  0  0  # atno 6908 bound_to 6896
  151.8080  133.3342  159.3583 H   0  0  0  0  0  0  0  0  0  0  0  0  # atno 6909 bound_to 6896
  145.9559  139.4014  143.0277 H   0  0  0  0  0  0  0  0  0  0  0  0  # atno 7974 bound_to 7965
  154.4923  140.0858  156.7620 H   0  0  0  0  0  0  0  0  0  0  0  0  # atno 8008 bound_to 7997
  155.4202  140.3445  155.4252 H   0  0  0  0  0  0  0  0  0  0  0  0  # atno 8009 bound_to 7997
  156.1346  140.1511  156.9002 H   0  0  0  0  0  0  0  0  0  0  0  0  # atno 8010 bound_to 7997
  139.6211  144.0623  152.1933 H   0  0  0  0  0  0  0  0  0  0  0  0  # atno 10167 bound_to 10162
  156.1015  130.6175  150.9130 H   0  0  0  0  0  0  0  0  0  0  0  0  # atno 10718 bound_to 10713
  153.1505  135.4605  154.9630 H   0  0  0  0  0  0  0  0  0  0  0  0  # atno 10763 bound_to 10752
  154.7821  135.3192  154.7969 H   0  0  0  0  0  0  0  0  0  0  0  0  # atno 10764 bound_to 10752
  153.8475  135.6924  153.4850 H   0  0  0  0  0  0  0  0  0  0  0  0  # atno 10765 bound_to 10752
  140.0223  134.9391  157.0498 H   0  0  0  0  0  0  0  0  0  0  0  0  # atno 11005 bound_to 11000
  145.8107  140.9727  143.0950 LP  0  0  0  0  0  0  0  0  0  0  0  0  # atno 17320 bound_to 7965
  144.6805  139.9917  143.7484 LP  0  0  0  0  0  0  0  0  0  0  0  0  # atno 17321 bound_to 7965
  140.0265  144.6113  150.7523 LP  0  0  0  0  0  0  0  0  0  0  0  0  # atno 17342 bound_to 10162
  140.7382  143.2775  151.3696 LP  0  0  0  0  0  0  0  0  0  0  0  0  # atno 17343 bound_to 10162
  157.6185  131.0931  150.8665 LP  0  0  0  0  0  0  0  0  0  0  0  0  # atno 17370 bound_to 10713
  156.8792  130.5173  149.5292 LP  0  0  0  0  0  0  0  0  0  0  0  0  # atno 17371 bound_to 10713
  140.4366  134.1724  155.7171 LP  0  0  0  0  0  0  0  0  0  0  0  0  # atno 17394 bound_to 11000
  141.1781  133.8471  157.1352 LP  0  0  0  0  0  0  0  0  0  0  0  0  # atno 17395 bound_to 11000

$$$$
