AV-unprocessed.smi:1278|AV-procd|sdf|5350|dock6
  -GOLD-   22720 4483D 1   1.00000     0.00000
 Structure written by MMmdl.
 39 40  0  0  0  0  0  0  0  0  2 V2000
  152.5353  143.9674  161.6206 C   0  0  0  0  0  0  0  0  0  0  0  0
  153.0949  142.9615  160.6049 C   0  0  1  0  0  0  0  0  0  0  0  0
  153.6309  141.6999  161.3022 C   0  0  0  0  0  0  0  0  0  0  0  0
  154.1579  140.7023  160.2636 C   0  0  0  0  0  0  0  0  0  0  0  0
  153.0806  140.3778  159.2172 C   0  0  0  0  0  0  0  0  0  0  0  0
  152.5858  141.6133  158.5566 N   0  3  1  0  0  0  0  0  0  0  0  0
  151.6467  141.3154  157.4462 C   0  0  0  0  0  0  0  0  0  0  0  0
  151.2154  142.5831  156.6826 C   0  0  0  0  0  0  0  0  0  0  0  0
  149.9951  142.3582  155.9161 N   0  0  0  0  0  0  0  0  0  0  0  0
  149.7760  141.3006  155.1213 C   0  0  0  0  0  0  0  0  0  0  0  0
  150.5955  140.3951  154.9626 O   0  0  0  0  0  0  0  0  0  0  0  0
  148.5652  141.3659  154.5402 N   0  0  0  0  0  0  0  0  0  0  0  0
  147.9679  140.4324  153.6526 C   0  0  0  0  0  0  0  0  0  0  0  0
  147.1348  140.7632  152.6592 N   0  0  0  0  0  0  0  0  0  0  0  0
  146.7002  139.6441  151.9445 C   0  0  0  0  0  0  0  0  0  0  0  0
  147.2167  138.4608  152.4103 C   0  0  0  0  0  0  0  0  0  0  0  0
  148.2764  138.7063  153.7730 S   0  0  0  0  0  0  0  0  0  0  0  0
  152.0398  142.5805  159.5468 C   0  0  0  0  0  0  0  0  0  0  0  0
  151.6946  143.5474  162.1738 H   0  0  0  0  0  0  0  0  0  0  0  0
  152.1879  144.8747  161.1257 H   0  0  0  0  0  0  0  0  0  0  0  0
  153.2971  144.2589  162.3444 H   0  0  0  0  0  0  0  0  0  0  0  0
  153.9284  143.4434  160.0913 H   0  0  0  0  0  0  0  0  0  0  0  0
  154.4260  141.9618  162.0013 H   0  0  0  0  0  0  0  0  0  0  0  0
  152.8395  141.2327  161.8901 H   0  0  0  0  0  0  0  0  0  0  0  0
  155.0373  141.1172  159.7690 H   0  0  0  0  0  0  0  0  0  0  0  0
  154.4845  139.7872  160.7588 H   0  0  0  0  0  0  0  0  0  0  0  0
  153.5022  139.7022  158.4719 H   0  0  0  0  0  0  0  0  0  0  0  0
  152.2454  139.8537  159.6846 H   0  0  0  0  0  0  0  0  0  0  0  0
  152.1380  140.6419  156.7428 H   0  0  0  0  0  0  0  0  0  0  0  0
  150.7774  140.7778  157.8285 H   0  0  0  0  0  0  0  0  0  0  0  0
  151.0164  143.4038  157.3707 H   0  0  0  0  0  0  0  0  0  0  0  0
  152.0136  142.9200  156.0188 H   0  0  0  0  0  0  0  0  0  0  0  0
  149.2721  143.0593  155.9890 H   0  0  0  0  0  0  0  0  0  0  0  0
  148.0023  142.1742  154.7606 H   0  0  0  0  0  0  0  0  0  0  0  0
  146.0218  139.7819  151.1156 H   0  0  0  0  0  0  0  0  0  0  0  0
  147.0388  137.4638  152.0351 H   0  0  0  0  0  0  0  0  0  0  0  0
  151.1605  142.1488  160.0282 H   0  0  0  0  0  0  0  0  0  0  0  0
  151.7073  143.4860  159.0404 H   0  0  0  0  0  0  0  0  0  0  0  0
  153.3950  142.0466  158.1349 H   0  0  0  0  0  0  0  0  0  0  0  0
  1  2  1  0  0  0  0
  1 19  1  0  0  0  0
  1 20  1  0  0  0  0
  1 21  1  0  0  0  0
  2 18  1  0  0  0  0
  2  3  1  0  0  0  0
  2 22  1  0  0  0  0
  3  4  1  0  0  0  0
  3 23  1  0  0  0  0
  3 24  1  0  0  0  0
  4  5  1  0  0  0  0
  4 25  1  0  0  0  0
  4 26  1  0  0  0  0
  5  6  1  0  0  0  0
  5 27  1  0  0  0  0
  5 28  1  0  0  0  0
  6  7  1  0  0  0  0
  6 18  1  0  0  0  0
  6 39  1  0  0  0  0
  7  8  1  0  0  0  0
  7 29  1  0  0  0  0
  7 30  1  0  0  0  0
  8  9  1  0  0  0  0
  8 31  1  0  0  0  0
  8 32  1  0  0  0  0
  9 10  1  0  0  0  0
  9 33  1  0  0  0  0
 10 11  2  0  0  0  0
 10 12  1  0  0  0  0
 12 13  1  0  0  0  0
 12 34  1  0  0  0  0
 13 17  1  0  0  0  0
 13 14  2  0  0  0  0
 14 15  1  0  0  0  0
 15 16  2  0  0  0  0
 15 35  1  0  0  0  0
 16 17  1  0  0  0  0
 16 36  1  0  0  0  0
 18 37  1  0  0  0  0
 18 38  1  0  0  0  0
M  CHG  1   6   1
M  END
> <s_m_source_file>
AV-unprocessed.smi

> <i_m_source_file_index>
1278

> <i_lp_mmshare_version>
43012

> <i_f3d_flags>
0

> <s_epik_input>
W0NIM11bQ0BASF0xW0NIMl1bQ0gyXVtDSDJdTihbQ0gyXTEpW0NIMl1bQ0gyXVtOSF1DKD1PKVtOSF1jMm5bY0hdW2NIXXMy

> <s_epik_cmdline>
J2VwaWtfcHl0aG9uJywgJy1waCcsICc3LjAnLCAnLXRuJywgJzgnLCAnLW1hJywgJzIwMCcsICctbWV0YWxfYmluZGluZycsICctaW1hZScsICc8aW5maWxlLm1hZT4nLCAnLW9tYWUnLCAnPG91dGZpbGUubWFlPic=

> <r_lp_tautomer_probability>
0.999

> <r_epik_Ionization_Penalty>
0.00222194

> <r_epik_Ionization_Penalty_Charging>
0.00208169

> <r_epik_Ionization_Penalty_Neutral>
0.000140251

> <r_epik_State_Penalty>
0.00142585

> <r_epik_Charging_Adjusted_Penalty>
0.00350754

> <i_epik_Tot_Q>
1

> <i_epik_Tot_abs_Q>
1

> <r_epik_Metal_State_Penalty>
0.0570424

> <b_epik_Metal_Only>
0

> <s_lp_Force_Field>
OPLS_2005

> <r_lp_Energy>
13.7049

> <b_lp_Chiralities_Consistent>
1

> <s_lp_Variant>
AV-unprocessed.smi:1278-4

> <Gold.Version>
5.8.1

> <Gold.Id.Protein>
6NUR|6NUR_protein|mol2

> <Gold.PLP.Fitness>
44.6791

> <Gold.PLP.PLP>
-35.0253

> <Gold.PLP.part.hbond>
-2.0000

> <Gold.PLP.part.metal>
0.0000

> <Gold.PLP.part.buried>
0.2657

> <Gold.PLP.part.nonpolar>
-33.1519

> <Gold.PLP.part.repulsive>
0.6299

> <Gold.PLP.ligand.clash>
0.0000

> <Gold.PLP.ligand.torsion>
0.3834

> <Gold.PLP.Chemscore.Hbond>
1.6880

> <Gold.PLP.Chemscore.CHOScore>
1.7770

> <Gold.PLP.Chemscore.Metal>
0.0000

> <Gold.Chemscore.Hbonds>
donor molecule, donor type, donor heavy atom, donor atom, acceptor molecule, acceptor atom, score
      L1  H     9    33       P1  8028  0.88
      P1  H  7989  7998       L1    11  1.00
      L1  C    15    35       P1 10171  0.45
      L1  C    15    35       P1 10175  0.16
      L1  C    16    36       P1  7948  0.66

> <Gold.PLP.Chemscore.Internal.Correction>
0.0258

> <Gold.Rescore>
     Score         DG    S(hbond)    S(metal)    S(lipo)     H(rot)  DE(clash)    DE(int)     intcor
     15.14     -18.33       1.54        0.00     100.93       1.60       1.44       1.74       ----

> <Gold.Chemscore.Fitness>
15.1442

> <Gold.Chemscore.DG>
-18.3268

> <Gold.Chemscore.ZeroCoef>
-5.4800

> <Gold.Chemscore.Hbond>
1.5372

> <Gold.Chemscore.Metal>
0.0000

> <Gold.Chemscore.Lipo>
100.9294

> <Gold.Chemscore.Internal_Hbond>
0.0000

> <Gold.Chemscore.DEClash>
1.4413

> <Gold.Chemscore.DEInternal>
1.7414

> <Gold.Chemscore.Rot>
1.6001

> <Gold.Chemscore.Internal.Correction>
   9.000000E+99

> <Gold.Chemscore.Hbonds>
donor molecule, donor type, donor heavy atom, donor atom, acceptor molecule, acceptor atom, score
      L1  H     9    33       P1  8028  0.87
      P1  H  7989  7998       L1    11  0.54

> <Gold.Chemscore.Hbond.Weighted>
-5.1343

> <Gold.Chemscore.Metal.Weighted>
-0.0000

> <Gold.Chemscore.Lipo.Weighted>
-11.8087

> <Gold.Chemscore.Internal_Hbond.Weighted>
0.0000

> <Gold.Chemscore.DEClash.Weighted>
1.4413

> <Gold.Chemscore.DEInternal.Weighted>
1.7414

> <Gold.Chemscore.Rot.Weighted>
4.0963

> <Gold.Chemscore.Internal.Correction.Weighted>
   9.000000E+99

> <Gold.Protein.RotatedTorsions>
[ 6907 6896 6895 6894 ] final -128.85 input  -60.11 | X-H torsion
[ 7974 7965 7964 7962 ] final -161.07 input  175.53 | X-H torsion
[ 8008 7997 7996 7995 ] final  179.36 input   59.86 | X-H torsion
[ 10167 10162 10161 10158 ] final -156.44 input  -65.29 | X-H torsion
[ 10718 10713 10712 10709 ] final -178.61 input   66.30 | X-H torsion
[ 10763 10752 10751 10750 ] final   85.00 input  -60.55 | X-H torsion
[ 11005 11000 10999 10996 ] final  -26.43 input  -57.11 | X-H torsion

> <Gold.Protein.ActiveResidues>
 VAL166  LYS551  ARG553  GLY616  TRP617  ASP618  TYR619  PRO620  LYS621  CYS622 
 ASP623  PHE694  ASN695  SER759  ASP760  ASP761  ALA762  ILE779  LEU786  VAL792 
 PHE793  MET794  SER795  GLU796  ALA797  LYS798  CYS799  TRP800  GLU811  SER814 

> <Gold.Protein.RotatedAtoms>
  150.9224  133.6865  159.2828 H   0  0  0  0  0  0  0  0  0  0  0  0  # atno 6907 bound_to 6896
  151.4315  135.1009  159.9653 H   0  0  0  0  0  0  0  0  0  0  0  0  # atno 6908 bound_to 6896
  152.4986  133.8653  159.7326 H   0  0  0  0  0  0  0  0  0  0  0  0  # atno 6909 bound_to 6896
  144.7404  140.3450  143.6127 H   0  0  0  0  0  0  0  0  0  0  0  0  # atno 7974 bound_to 7965
  156.0443  140.1310  157.0121 H   0  0  0  0  0  0  0  0  0  0  0  0  # atno 8008 bound_to 7997
  154.4405  140.1024  156.6353 H   0  0  0  0  0  0  0  0  0  0  0  0  # atno 8009 bound_to 7997
  155.5620  140.3465  155.4496 H   0  0  0  0  0  0  0  0  0  0  0  0  # atno 8010 bound_to 7997
  139.6850  143.9517  152.2356 H   0  0  0  0  0  0  0  0  0  0  0  0  # atno 10167 bound_to 10162
  156.8468  130.9705  151.3095 H   0  0  0  0  0  0  0  0  0  0  0  0  # atno 10718 bound_to 10713
  153.1434  135.4633  154.9530 H   0  0  0  0  0  0  0  0  0  0  0  0  # atno 10763 bound_to 10752
  154.7766  135.3175  154.8081 H   0  0  0  0  0  0  0  0  0  0  0  0  # atno 10764 bound_to 10752
  153.8600  135.6913  153.4838 H   0  0  0  0  0  0  0  0  0  0  0  0  # atno 10765 bound_to 10752
  140.9028  133.7512  156.0567 H   0  0  0  0  0  0  0  0  0  0  0  0  # atno 11005 bound_to 11000
  145.7335  139.1743  143.2417 LP  0  0  0  0  0  0  0  0  0  0  0  0  # atno 17320 bound_to 7965
  146.1188  140.7335  142.9467 LP  0  0  0  0  0  0  0  0  0  0  0  0  # atno 17321 bound_to 7965
  139.9317  144.6737  150.8356 LP  0  0  0  0  0  0  0  0  0  0  0  0  # atno 17342 bound_to 10162
  140.7664  143.3304  151.2423 LP  0  0  0  0  0  0  0  0  0  0  0  0  # atno 17343 bound_to 10162
  157.6325  130.8741  149.9300 LP  0  0  0  0  0  0  0  0  0  0  0  0  # atno 17370 bound_to 10713
  156.0850  130.3669  150.0505 LP  0  0  0  0  0  0  0  0  0  0  0  0  # atno 17371 bound_to 10713
  140.8208  134.3291  157.5382 LP  0  0  0  0  0  0  0  0  0  0  0  0  # atno 17394 bound_to 11000
  139.8745  134.9308  156.3511 LP  0  0  0  0  0  0  0  0  0  0  0  0  # atno 17395 bound_to 11000

$$$$
