AV-unprocessed.smi:2021|AV-procd|sdf|8181|dock1
  -GOLD-   2272010433D 1   1.00000     0.00000
 Structure written by MMmdl.
 41 42  0  0  0  0  0  0  0  0  3 V2000
  146.6169  133.5640  150.8581 C   0  0  0  0  0  0  0  0  0  0  0  0
  145.2614  133.9896  151.4420 C   0  0  0  0  0  0  0  0  0  0  0  0
  144.1102  133.4328  150.5880 C   0  0  0  0  0  0  0  0  0  0  0  0
  145.1872  135.5261  151.5756 C   0  0  0  0  0  0  0  0  0  0  0  0
  146.1602  136.0779  152.5531 N   0  3  1  0  0  0  0  0  0  0  0  0
  145.9090  137.4976  152.9044 C   0  0  0  0  0  0  0  0  0  0  0  0
  146.9680  138.0001  153.8981 C   0  0  0  0  0  0  0  0  0  0  0  0
  146.9674  137.1645  155.0462 O   0  0  0  0  0  0  0  0  0  0  0  0
  147.3199  135.8194  154.7395 C   0  0  1  0  0  0  0  0  0  0  0  0
  147.4020  135.0126  156.0474 C   0  0  0  0  0  0  0  0  0  0  0  0
  147.3626  135.8835  157.2175 N   0  0  0  0  0  0  0  0  0  0  0  0
  148.0052  135.6773  158.3756 C   0  0  0  0  0  0  0  0  0  0  0  0
  148.7333  134.6912  158.5102 O   0  0  0  0  0  0  0  0  0  0  0  0
  147.7596  136.6252  159.3072 N   0  5  0  0  0  0  0  0  0  0  0  0
  147.4551  136.2663  160.5655 C   0  0  0  0  0  0  0  0  0  0  0  0
  147.2593  137.1670  161.5420 N   0  0  0  0  0  0  0  0  0  0  0  0
  146.9585  136.5871  162.7670 N   0  0  0  0  0  0  0  0  0  0  0  0
  146.9438  135.2569  162.6842 C   0  0  0  0  0  0  0  0  0  0  0  0
  147.2971  134.5919  161.1035 S   0  0  0  0  0  0  0  0  0  0  0  0
  146.2565  135.2507  153.7800 C   0  0  0  0  0  0  0  0  0  0  0  0
  146.7656  133.9730  149.8582 H   0  0  0  0  0  0  0  0  0  0  0  0
  146.6916  132.4784  150.7873 H   0  0  0  0  0  0  0  0  0  0  0  0
  147.4406  133.9079  151.4844 H   0  0  0  0  0  0  0  0  0  0  0  0
  145.1943  133.5387  152.4315 H   0  0  0  0  0  0  0  0  0  0  0  0
  144.1247  133.8511  149.5809 H   0  0  0  0  0  0  0  0  0  0  0  0
  143.1392  133.6590  151.0291 H   0  0  0  0  0  0  0  0  0  0  0  0
  144.1791  132.3484  150.4970 H   0  0  0  0  0  0  0  0  0  0  0  0
  145.3447  136.0046  150.6077 H   0  0  0  0  0  0  0  0  0  0  0  0
  144.1746  135.7928  151.8832 H   0  0  0  0  0  0  0  0  0  0  0  0
  145.9302  138.1241  152.0139 H   0  0  0  0  0  0  0  0  0  0  0  0
  144.9148  137.5962  153.3428 H   0  0  0  0  0  0  0  0  0  0  0  0
  147.9591  138.0158  153.4418 H   0  0  0  0  0  0  0  0  0  0  0  0
  146.7421  139.0214  154.2051 H   0  0  0  0  0  0  0  0  0  0  0  0
  148.2961  135.7999  154.2509 H   0  0  0  0  0  0  0  0  0  0  0  0
  146.6124  134.2604  156.0914 H   0  0  0  0  0  0  0  0  0  0  0  0
  148.3460  134.4685  156.0835 H   0  0  0  0  0  0  0  0  0  0  0  0
  146.7860  136.7097  157.1529 H   0  0  0  0  0  0  0  0  0  0  0  0
  146.7263  134.6638  163.5597 H   0  0  0  0  0  0  0  0  0  0  0  0
  145.2833  135.2144  154.2728 H   0  0  0  0  0  0  0  0  0  0  0  0
  146.5186  134.2267  153.5101 H   0  0  0  0  0  0  0  0  0  0  0  0
  147.0687  136.0363  152.1136 H   0  0  0  0  0  0  0  0  0  0  0  0
  1  2  1  0  0  0  0
  1 21  1  0  0  0  0
  1 22  1  0  0  0  0
  1 23  1  0  0  0  0
  2  3  1  0  0  0  0
  2  4  1  0  0  0  0
  2 24  1  0  0  0  0
  3 25  1  0  0  0  0
  3 26  1  0  0  0  0
  3 27  1  0  0  0  0
  4  5  1  0  0  0  0
  4 28  1  0  0  0  0
  4 29  1  0  0  0  0
  5 20  1  0  0  0  0
  5  6  1  0  0  0  0
  5 41  1  0  0  0  0
  6  7  1  0  0  0  0
  6 30  1  0  0  0  0
  6 31  1  0  0  0  0
  7  8  1  0  0  0  0
  7 32  1  0  0  0  0
  7 33  1  0  0  0  0
  8  9  1  0  0  0  0
  9 10  1  0  0  0  0
  9 20  1  0  0  0  0
  9 34  1  0  0  0  0
 10 11  1  0  0  0  0
 10 35  1  0  0  0  0
 10 36  1  0  0  0  0
 11 12  1  0  0  0  0
 11 37  1  0  0  0  0
 12 13  2  0  0  0  0
 12 14  1  0  0  0  0
 14 15  1  0  0  0  0
 15 19  1  0  0  0  0
 15 16  2  0  0  0  0
 16 17  1  0  0  0  0
 17 18  2  0  0  0  0
 18 19  1  0  0  0  0
 18 38  1  0  0  0  0
 20 39  1  0  0  0  0
 20 40  1  0  0  0  0
M  CHG  1   5   1
M  CHG  1  14  -1
M  END
> <s_m_source_file>
AV-unprocessed.smi

> <i_m_source_file_index>
2021

> <i_lp_mmshare_version>
43012

> <i_f3d_flags>
0

> <s_epik_input>
W0NIM11bQ0hdKFtDSDNdKVtDSDJdTjFbQ0gyXVtDSDJdT1tDQEhdKFtDSDJdMSlbQ0gyXVtOSF1DKD1PKVtOSF1jMm5uW2NIXXMy

> <s_epik_cmdline>
J2VwaWtfcHl0aG9uJywgJy1waCcsICc3LjAnLCAnLXRuJywgJzgnLCAnLW1hJywgJzIwMCcsICctbWV0YWxfYmluZGluZycsICctaW1hZScsICc8aW5maWxlLm1hZT4nLCAnLW9tYWUnLCAnPG91dGZpbGUubWFlPic=

> <r_lp_tautomer_probability>
1

> <r_epik_Ionization_Penalty>
3.15762

> <r_epik_Ionization_Penalty_Charging>
3.12229

> <r_epik_Ionization_Penalty_Neutral>
0.0353298

> <r_epik_State_Penalty>
3.11266

> <r_epik_Charging_Adjusted_Penalty>
6.23495

> <i_epik_Tot_Q>
0

> <i_epik_Tot_abs_Q>
2

> <r_epik_Metal_State_Penalty>
0.541462

> <b_epik_Metal_Only>
1

> <s_lp_Force_Field>
OPLS_2005

> <r_lp_Energy>
10.0285

> <b_lp_Chiralities_Consistent>
1

> <s_lp_Variant>
AV-unprocessed.smi:2021-7

> <Gold.Version>
5.8.1

> <Gold.Id.Protein>
6NUR|6NUR_protein|mol2

> <Gold.PLP.Fitness>
39.4639

> <Gold.PLP.PLP>
-27.7739

> <Gold.PLP.part.hbond>
-4.0000

> <Gold.PLP.part.metal>
0.0000

> <Gold.PLP.part.buried>
-5.1511

> <Gold.PLP.part.nonpolar>
-18.1278

> <Gold.PLP.part.repulsive>
0.0723

> <Gold.PLP.ligand.clash>
0.0000

> <Gold.PLP.ligand.torsion>
1.4135

> <Gold.PLP.Chemscore.Hbond>
4.7920

> <Gold.PLP.Chemscore.CHOScore>
0.0000

> <Gold.PLP.Chemscore.Metal>
0.0000

> <Gold.Chemscore.Hbonds>
donor molecule, donor type, donor heavy atom, donor atom, acceptor molecule, acceptor atom, score
      L1  H     5    41       P1  7948  2.00
      P1  H  6896  6908       L1    13  0.62
      P1  H  6931  6943       L1    16  0.71
      P1  H  6934  6947       L1    16  0.94

> <Gold.PLP.Chemscore.Internal.Correction>
0.1409

> <Gold.Rescore>
     Score         DG    S(hbond)    S(metal)    S(lipo)     H(rot)  DE(clash)    DE(int)     intcor
     16.91     -18.56       3.51        0.00      51.88       1.85       0.10       1.55       ----

> <Gold.Chemscore.Fitness>
16.9070

> <Gold.Chemscore.DG>
-18.5606

> <Gold.Chemscore.ZeroCoef>
-5.4800

> <Gold.Chemscore.Hbond>
3.5144

> <Gold.Chemscore.Metal>
0.0000

> <Gold.Chemscore.Lipo>
51.8777

> <Gold.Chemscore.Internal_Hbond>
0.0000

> <Gold.Chemscore.DEClash>
0.1036

> <Gold.Chemscore.DEInternal>
1.5500

> <Gold.Chemscore.Rot>
1.8466

> <Gold.Chemscore.Internal.Correction>
   9.000000E+99

> <Gold.Chemscore.Hbonds>
donor molecule, donor type, donor heavy atom, donor atom, acceptor molecule, acceptor atom, score
      L1  H     5    41       P1  7948  1.00
      P1  H  6896  6908       L1    13  0.60
      P1  H  6931  6943       L1    16  0.24
      P1  H  6934  6947       L1    16  0.82

> <Gold.Chemscore.Hbond.Weighted>
-11.7381

> <Gold.Chemscore.Metal.Weighted>
-0.0000

> <Gold.Chemscore.Lipo.Weighted>
-6.0697

> <Gold.Chemscore.Internal_Hbond.Weighted>
0.0000

> <Gold.Chemscore.DEClash.Weighted>
0.1036

> <Gold.Chemscore.DEInternal.Weighted>
1.5500

> <Gold.Chemscore.Rot.Weighted>
4.7272

> <Gold.Chemscore.Internal.Correction.Weighted>
   9.000000E+99

> <Gold.Protein.RotatedTorsions>
[ 6907 6896 6895 6894 ] final  138.18 input  -60.11 | X-H torsion
[ 7974 7965 7964 7962 ] final   16.78 input  175.53 | X-H torsion
[ 8008 7997 7996 7995 ] final -100.45 input   59.86 | X-H torsion
[ 10167 10162 10161 10158 ] final -116.18 input  -65.29 | X-H torsion
[ 10718 10713 10712 10709 ] final  -45.90 input   66.30 | X-H torsion
[ 10763 10752 10751 10750 ] final   -8.31 input  -60.55 | X-H torsion
[ 11005 11000 10999 10996 ] final   26.99 input  -57.11 | X-H torsion

> <Gold.Protein.ActiveResidues>
 VAL166  LYS551  ARG553  GLY616  TRP617  ASP618  TYR619  PRO620  LYS621  CYS622 
 ASP623  PHE694  ASN695  SER759  ASP760  ASP761  ALA762  ILE779  LEU786  VAL792 
 PHE793  MET794  SER795  GLU796  ALA797  LYS798  CYS799  TRP800  GLU811  SER814 

> <Gold.Protein.RotatedAtoms>
  152.2695  133.5370  159.5430 H   0  0  0  0  0  0  0  0  0  0  0  0  # atno 6907 bound_to 6896
  150.7154  134.0717  159.3876 H   0  0  0  0  0  0  0  0  0  0  0  0  # atno 6908 bound_to 6896
  151.8632  135.0516  160.0522 H   0  0  0  0  0  0  0  0  0  0  0  0  # atno 6909 bound_to 6896
  146.2239  139.8698  142.8589 H   0  0  0  0  0  0  0  0  0  0  0  0  # atno 7974 bound_to 7965
  154.8287  140.0441  157.1462 H   0  0  0  0  0  0  0  0  0  0  0  0  # atno 8008 bound_to 7997
  154.9176  140.3022  155.5213 H   0  0  0  0  0  0  0  0  0  0  0  0  # atno 8009 bound_to 7997
  156.2985  140.2346  156.4223 H   0  0  0  0  0  0  0  0  0  0  0  0  # atno 8010 bound_to 7997
  140.0820  143.4779  152.1920 H   0  0  0  0  0  0  0  0  0  0  0  0  # atno 10167 bound_to 10162
  156.2236  130.4168  149.8961 H   0  0  0  0  0  0  0  0  0  0  0  0  # atno 10718 bound_to 10713
  153.4387  135.7013  153.6183 H   0  0  0  0  0  0  0  0  0  0  0  0  # atno 10763 bound_to 10752
  153.4567  135.3745  155.2315 H   0  0  0  0  0  0  0  0  0  0  0  0  # atno 10764 bound_to 10752
  154.8727  135.4010  154.3782 H   0  0  0  0  0  0  0  0  0  0  0  0  # atno 10765 bound_to 10752
  140.3311  134.2437  155.7702 H   0  0  0  0  0  0  0  0  0  0  0  0  # atno 11005 bound_to 11000
  145.2620  141.0080  143.3821 LP  0  0  0  0  0  0  0  0  0  0  0  0  # atno 17320 bound_to 7965
  144.9291  139.4320  143.6504 LP  0  0  0  0  0  0  0  0  0  0  0  0  # atno 17321 bound_to 7965
  139.5774  144.7494  151.3729 LP  0  0  0  0  0  0  0  0  0  0  0  0  # atno 17342 bound_to 10162
  140.7073  143.7481  150.7504 LP  0  0  0  0  0  0  0  0  0  0  0  0  # atno 17343 bound_to 10162
  156.6599  130.8778  151.3545 LP  0  0  0  0  0  0  0  0  0  0  0  0  # atno 17370 bound_to 10713
  157.7100  130.9429  150.1056 LP  0  0  0  0  0  0  0  0  0  0  0  0  # atno 17371 bound_to 10713
  141.2063  133.7836  157.0184 LP  0  0  0  0  0  0  0  0  0  0  0  0  # atno 17394 bound_to 11000
  140.0860  134.9620  157.1701 LP  0  0  0  0  0  0  0  0  0  0  0  0  # atno 17395 bound_to 11000

$$$$
