AV-unprocessed.smi:3293|AV-procd|sdf|12632|dock2
  -GOLD-   2272018563D 1   1.00000     0.00000
 Structure written by MMmdl.
 44 45  0  0  0  0  0  0  0  0  2 V2000
  148.3510  143.1761  158.6028 C   0  0  0  0  0  0  0  0  0  0  0  0
  149.8074  143.5053  158.8861 C   0  0  0  0  0  0  0  0  0  0  0  0
  150.1582  144.7044  159.3913 C   0  0  0  0  0  0  0  0  0  0  0  0
  151.5743  145.1083  159.7634 C   0  0  0  0  0  0  0  0  0  0  0  0
  152.6299  144.0695  159.3488 C   0  0  0  0  0  0  0  0  0  0  0  0
  152.1020  142.6326  159.5039 C   0  0  2  0  0  0  0  0  0  0  0  0
  153.2124  141.5851  159.3122 C   0  0  0  0  0  0  0  0  0  0  0  0
  150.8420  142.4034  158.6220 C   0  0  2  0  0  0  0  0  0  0  0  0
  151.1765  142.2604  157.1138 C   0  0  0  0  0  0  0  0  0  0  0  0
  149.9784  142.0717  156.2724 N   0  3  0  0  0  0  0  0  0  0  0  0
  150.0840  140.9535  155.3153 C   0  0  0  0  0  0  0  0  0  0  0  0
  149.0915  141.1218  154.1578 C   0  0  0  0  0  0  0  0  0  0  0  0
  147.9586  140.1392  154.2576 C   0  0  0  0  0  0  0  0  0  0  0  0
  147.7546  138.9574  153.4891 C   0  0  0  0  0  0  0  0  0  0  0  0
  146.6552  138.3055  153.8299 N   0  0  0  0  0  0  0  0  0  0  0  0
  146.1184  139.0460  154.8212 N   0  0  0  0  0  0  0  0  0  0  0  0
  144.8817  138.6205  155.4411 C   0  0  0  0  0  0  0  0  0  0  0  0
  146.8831  140.1579  155.1009 C   0  0  0  0  0  0  0  0  0  0  0  0
  148.0874  142.2074  159.0278 H   0  0  0  0  0  0  0  0  0  0  0  0
  148.1462  143.1570  157.5339 H   0  0  0  0  0  0  0  0  0  0  0  0
  147.6885  143.9208  159.0456 H   0  0  0  0  0  0  0  0  0  0  0  0
  149.3958  145.4446  159.5870 H   0  0  0  0  0  0  0  0  0  0  0  0
  151.8059  146.0767  159.3194 H   0  0  0  0  0  0  0  0  0  0  0  0
  151.5997  145.2443  160.8451 H   0  0  0  0  0  0  0  0  0  0  0  0
  152.9293  144.2426  158.3149 H   0  0  0  0  0  0  0  0  0  0  0  0
  153.5293  144.2123  159.9491 H   0  0  0  0  0  0  0  0  0  0  0  0
  151.7780  142.5275  160.5412 H   0  0  0  0  0  0  0  0  0  0  0  0
  153.7174  141.6947  158.3526 H   0  0  0  0  0  0  0  0  0  0  0  0
  152.8147  140.5717  159.3743 H   0  0  0  0  0  0  0  0  0  0  0  0
  153.9740  141.6846  160.0863 H   0  0  0  0  0  0  0  0  0  0  0  0
  150.3999  141.4629  158.9548 H   0  0  0  0  0  0  0  0  0  0  0  0
  151.7218  143.1369  156.7621 H   0  0  0  0  0  0  0  0  0  0  0  0
  151.8184  141.3971  156.9438 H   0  0  0  0  0  0  0  0  0  0  0  0
  149.1865  141.9037  156.8764 H   0  0  0  0  0  0  0  0  0  0  0  0
  151.1035  140.9056  154.9296 H   0  0  0  0  0  0  0  0  0  0  0  0
  149.8914  140.0155  155.8380 H   0  0  0  0  0  0  0  0  0  0  0  0
  148.7096  142.1436  154.1552 H   0  0  0  0  0  0  0  0  0  0  0  0
  149.6176  140.9996  153.2101 H   0  0  0  0  0  0  0  0  0  0  0  0
  148.3715  138.5549  152.6989 H   0  0  0  0  0  0  0  0  0  0  0  0
  144.5795  139.3380  156.2046 H   0  0  0  0  0  0  0  0  0  0  0  0
  145.0186  137.6442  155.9072 H   0  0  0  0  0  0  0  0  0  0  0  0
  144.0951  138.5528  154.6889 H   0  0  0  0  0  0  0  0  0  0  0  0
  146.6019  140.8626  155.8698 H   0  0  0  0  0  0  0  0  0  0  0  0
  149.8146  142.9234  155.7545 H   0  0  0  0  0  0  0  0  0  0  0  0
  1  2  1  0  0  0  0
  1 19  1  0  0  0  0
  1 20  1  0  0  0  0
  1 21  1  0  0  0  0
  2  8  1  0  0  0  0
  2  3  2  0  0  0  0
  3  4  1  0  0  0  0
  3 22  1  0  0  0  0
  4  5  1  0  0  0  0
  4 23  1  0  0  0  0
  4 24  1  0  0  0  0
  5  6  1  0  0  0  0
  5 25  1  0  0  0  0
  5 26  1  0  0  0  0
  6  7  1  0  0  0  0
  6  8  1  0  0  0  0
  6 27  1  0  0  0  0
  7 28  1  0  0  0  0
  7 29  1  0  0  0  0
  7 30  1  0  0  0  0
  8  9  1  0  0  0  0
  8 31  1  0  0  0  0
  9 10  1  0  0  0  0
  9 32  1  0  0  0  0
  9 33  1  0  0  0  0
 10 11  1  0  0  0  0
 10 34  1  0  0  0  0
 10 44  1  0  0  0  0
 11 12  1  0  0  0  0
 11 35  1  0  0  0  0
 11 36  1  0  0  0  0
 12 13  1  0  0  0  0
 12 37  1  0  0  0  0
 12 38  1  0  0  0  0
 13 18  2  0  0  0  0
 13 14  1  0  0  0  0
 14 15  2  0  0  0  0
 14 39  1  0  0  0  0
 15 16  1  0  0  0  0
 16 17  1  0  0  0  0
 16 18  1  0  0  0  0
 17 40  1  0  0  0  0
 17 41  1  0  0  0  0
 17 42  1  0  0  0  0
 18 43  1  0  0  0  0
M  CHG  1  10   1
M  END
> <s_m_source_file>
AV-unprocessed.smi

> <i_m_source_file_index>
3293

> <i_lp_mmshare_version>
43012

> <i_f3d_flags>
0

> <s_epik_input>
W0NIM11DMT1bQ0hdW0NIMl1bQ0gyXVtDQEBIXShbQ0gzXSlbQ0BIXTFbQ0gyXVtOSF1bQ0gyXVtDSDJdYzJbY0hdbm4oW0NIM10pW2NIXTI=

> <s_epik_cmdline>
J2VwaWtfcHl0aG9uJywgJy1waCcsICc3LjAnLCAnLXRuJywgJzgnLCAnLW1hJywgJzIwMCcsICctbWV0YWxfYmluZGluZycsICctaW1hZScsICc8aW5maWxlLm1hZT4nLCAnLW9tYWUnLCAnPG91dGZpbGUubWFlPic=

> <r_lp_tautomer_probability>
1

> <r_epik_Ionization_Penalty>
0.000598621

> <r_epik_Ionization_Penalty_Charging>
0.000582095

> <r_epik_Ionization_Penalty_Neutral>
1.65262e-05

> <r_epik_State_Penalty>
-0

> <r_epik_Charging_Adjusted_Penalty>
0.000582095

> <i_epik_Tot_Q>
1

> <i_epik_Tot_abs_Q>
1

> <r_epik_Metal_State_Penalty>
-0

> <b_epik_Metal_Only>
0

> <s_lp_Force_Field>
OPLS_2005

> <r_lp_Energy>
11.2905

> <b_lp_Chiralities_Consistent>
1

> <s_lp_Variant>
AV-unprocessed.smi:3293-4

> <Gold.Version>
5.8.1

> <Gold.Id.Protein>
6NUR|6NUR_protein|mol2

> <Gold.PLP.Fitness>
42.8936

> <Gold.PLP.PLP>
-33.3832

> <Gold.PLP.part.hbond>
-1.0000

> <Gold.PLP.part.metal>
0.0000

> <Gold.PLP.part.buried>
-1.9417

> <Gold.PLP.part.nonpolar>
-29.8748

> <Gold.PLP.part.repulsive>
0.2412

> <Gold.PLP.ligand.clash>
0.0000

> <Gold.PLP.ligand.torsion>
0.9909

> <Gold.PLP.Chemscore.Hbond>
2.0000

> <Gold.PLP.Chemscore.CHOScore>
1.8233

> <Gold.PLP.Chemscore.Metal>
0.0000

> <Gold.Chemscore.Hbonds>
donor molecule, donor type, donor heavy atom, donor atom, acceptor molecule, acceptor atom, score
      L1  H    10    44       P1  8028  1.92
      L1  C    14    39       P1  7948  1.00
      L1  C    14    39       P1  7957  0.84

> <Gold.PLP.Chemscore.Internal.Correction>
0.0222

> <Gold.Rescore>
     Score         DG    S(hbond)    S(metal)    S(lipo)     H(rot)  DE(clash)    DE(int)     intcor
     16.72     -17.98       0.98        0.00     111.17       1.48       0.19       1.06       ----

> <Gold.Chemscore.Fitness>
16.7228

> <Gold.Chemscore.DG>
-17.9751

> <Gold.Chemscore.ZeroCoef>
-5.4800

> <Gold.Chemscore.Hbond>
0.9848

> <Gold.Chemscore.Metal>
0.0000

> <Gold.Chemscore.Lipo>
111.1693

> <Gold.Chemscore.Internal_Hbond>
0.0000

> <Gold.Chemscore.DEClash>
0.1909

> <Gold.Chemscore.DEInternal>
1.0615

> <Gold.Chemscore.Rot>
1.4847

> <Gold.Chemscore.Internal.Correction>
   9.000000E+99

> <Gold.Chemscore.Hbonds>
donor molecule, donor type, donor heavy atom, donor atom, acceptor molecule, acceptor atom, score
      L1  H    10    44       P1  8028  0.86

> <Gold.Chemscore.Hbond.Weighted>
-3.2891

> <Gold.Chemscore.Metal.Weighted>
-0.0000

> <Gold.Chemscore.Lipo.Weighted>
-13.0068

> <Gold.Chemscore.Internal_Hbond.Weighted>
0.0000

> <Gold.Chemscore.DEClash.Weighted>
0.1909

> <Gold.Chemscore.DEInternal.Weighted>
1.0615

> <Gold.Chemscore.Rot.Weighted>
3.8008

> <Gold.Chemscore.Internal.Correction.Weighted>
   9.000000E+99

> <Gold.Protein.RotatedTorsions>
[ 6907 6896 6895 6894 ] final  147.64 input  -60.11 | X-H torsion
[ 7974 7965 7964 7962 ] final  133.27 input  175.53 | X-H torsion
[ 8008 7997 7996 7995 ] final  -77.92 input   59.86 | X-H torsion
[ 10167 10162 10161 10158 ] final -146.15 input  -65.29 | X-H torsion
[ 10718 10713 10712 10709 ] final  164.80 input   66.30 | X-H torsion
[ 10763 10752 10751 10750 ] final   62.65 input  -60.55 | X-H torsion
[ 11005 11000 10999 10996 ] final -156.76 input  -57.11 | X-H torsion

> <Gold.Protein.ActiveResidues>
 VAL166  LYS551  ARG553  GLY616  TRP617  ASP618  TYR619  PRO620  LYS621  CYS622 
 ASP623  PHE694  ASN695  SER759  ASP760  ASP761  ALA762  ILE779  LEU786  VAL792 
 PHE793  MET794  SER795  GLU796  ALA797  LYS798  CYS799  TRP800  GLU811  SER814 

> <Gold.Protein.RotatedAtoms>
  152.1520  133.4528  159.4818 H   0  0  0  0  0  0  0  0  0  0  0  0  # atno 6907 bound_to 6896
  150.6896  134.2177  159.4393 H   0  0  0  0  0  0  0  0  0  0  0  0  # atno 6908 bound_to 6896
  152.0074  134.9895  160.0617 H   0  0  0  0  0  0  0  0  0  0  0  0  # atno 6909 bound_to 6896
  144.9882  139.4433  143.5352 H   0  0  0  0  0  0  0  0  0  0  0  0  # atno 7974 bound_to 7965
  154.5641  140.0702  156.8864 H   0  0  0  0  0  0  0  0  0  0  0  0  # atno 8008 bound_to 7997
  155.2756  140.3368  155.4244 H   0  0  0  0  0  0  0  0  0  0  0  0  # atno 8009 bound_to 7997
  156.2066  140.1742  156.7772 H   0  0  0  0  0  0  0  0  0  0  0  0  # atno 8010 bound_to 7997
  139.7739  143.8197  152.2629 H   0  0  0  0  0  0  0  0  0  0  0  0  # atno 10167 bound_to 10162
  157.0892  131.0413  151.2544 H   0  0  0  0  0  0  0  0  0  0  0  0  # atno 10718 bound_to 10713
  152.9990  135.5457  154.6226 H   0  0  0  0  0  0  0  0  0  0  0  0  # atno 10763 bound_to 10752
  154.5522  135.2827  155.1000 H   0  0  0  0  0  0  0  0  0  0  0  0  # atno 10764 bound_to 10752
  154.2235  135.6446  153.5205 H   0  0  0  0  0  0  0  0  0  0  0  0  # atno 10765 bound_to 10752
  140.6720  134.4237  157.5231 H   0  0  0  0  0  0  0  0  0  0  0  0  # atno 11005 bound_to 11000
  146.3425  139.9198  142.8768 LP  0  0  0  0  0  0  0  0  0  0  0  0  # atno 17320 bound_to 7965
  145.2323  140.9977  143.3984 LP  0  0  0  0  0  0  0  0  0  0  0  0  # atno 17321 bound_to 7965
  139.8240  144.7283  150.9536 LP  0  0  0  0  0  0  0  0  0  0  0  0  # atno 17342 bound_to 10162
  140.7815  143.4132  151.0959 LP  0  0  0  0  0  0  0  0  0  0  0  0  # atno 17343 bound_to 10162
  157.4735  130.7723  149.7346 LP  0  0  0  0  0  0  0  0  0  0  0  0  # atno 17370 bound_to 10713
  155.9902  130.3946  150.3036 LP  0  0  0  0  0  0  0  0  0  0  0  0  # atno 17371 bound_to 10713
  139.8978  134.8627  156.2027 LP  0  0  0  0  0  0  0  0  0  0  0  0  # atno 17394 bound_to 11000
  141.0384  133.6951  156.1554 LP  0  0  0  0  0  0  0  0  0  0  0  0  # atno 17395 bound_to 11000

$$$$
