AV-unprocessed.smi:795|AV-procd|sdf|3764|dock2
  -GOLD-   22720 1193D 1   1.00000     0.00000
 Structure written by MMmdl.
 49 52  0  0  0  0  0  0  0  0  1 V2000
  153.9059  142.0416  160.2902 C   0  0  0  0  0  0  0  0  0  0  0  0
  153.7192  140.5562  160.4443 C   0  0  0  0  0  0  0  0  0  0  0  0
  153.0598  139.9549  159.5097 N   0  0  0  0  0  0  0  0  0  0  0  0
  152.8263  138.5937  159.5530 N   0  0  0  0  0  0  0  0  0  0  0  0
  152.0269  138.0980  158.4243 C   0  0  0  0  0  0  0  0  0  0  0  0
  151.5176  139.2375  157.5323 C   0  0  0  0  0  0  0  0  0  0  0  0
  152.3051  139.9225  156.8790 O   0  0  0  0  0  0  0  0  0  0  0  0
  150.1908  139.4339  157.5254 N   0  0  0  0  0  0  0  0  0  0  0  0
  149.4816  140.4285  156.7228 C   0  0  2  0  0  0  0  0  0  0  0  0
  147.9595  140.1401  156.7052 C   0  0  2  0  0  0  0  0  0  0  0  0
  147.6628  138.8105  155.9703 C   0  0  0  0  0  0  0  0  0  0  0  0
  148.1793  138.8987  154.5181 C   0  0  1  0  0  0  0  0  0  0  0  0
  147.4626  140.0545  153.7869 C   0  0  0  0  0  0  0  0  0  0  0  0
  147.7540  141.3821  154.5196 C   0  0  1  0  0  0  0  0  0  0  0  0
  147.2375  141.2936  155.9734 C   0  0  0  0  0  0  0  0  0  0  0  0
  149.2768  141.6426  154.5231 C   0  0  0  0  0  0  0  0  0  0  0  0
  149.9935  140.4876  155.2575 C   0  0  2  0  0  0  0  0  0  0  0  0
  149.7012  139.1580  154.5232 C   0  0  0  0  0  0  0  0  0  0  0  0
  153.2588  137.7638  160.5460 C   0  0  0  0  0  0  0  0  0  0  0  0
  153.0305  136.5535  160.5460 O   0  0  0  0  0  0  0  0  0  0  0  0
  154.0072  138.4515  161.6009 C   0  0  0  0  0  0  0  0  0  0  0  0
  154.4760  137.6194  162.6618 C   0  0  0  0  0  0  0  0  0  0  0  0
  154.8383  136.9319  163.5197 N   0  0  0  0  0  0  0  0  0  0  0  0
  154.2362  139.7884  161.5722 C   0  0  0  0  0  0  0  0  0  0  0  0
  155.0043  140.5504  162.6434 C   0  0  0  0  0  0  0  0  0  0  0  0
  154.9650  142.2990  160.2656 H   0  0  0  0  0  0  0  0  0  0  0  0
  153.4455  142.5771  161.1207 H   0  0  0  0  0  0  0  0  0  0  0  0
  153.4555  142.4149  159.3690 H   0  0  0  0  0  0  0  0  0  0  0  0
  152.6266  137.4049  157.8306 H   0  0  0  0  0  0  0  0  0  0  0  0
  151.1713  137.5149  158.7685 H   0  0  0  0  0  0  0  0  0  0  0  0
  149.6223  138.8296  158.1007 H   0  0  0  0  0  0  0  0  0  0  0  0
  149.6436  141.3988  157.1968 H   0  0  0  0  0  0  0  0  0  0  0  0
  147.5869  140.0796  157.7286 H   0  0  0  0  0  0  0  0  0  0  0  0
  148.1293  137.9709  156.4869 H   0  0  0  0  0  0  0  0  0  0  0  0
  146.5906  138.6105  155.9753 H   0  0  0  0  0  0  0  0  0  0  0  0
  147.9734  137.9604  154.0023 H   0  0  0  0  0  0  0  0  0  0  0  0
  147.8004  140.1129  152.7515 H   0  0  0  0  0  0  0  0  0  0  0  0
  146.3882  139.8703  153.7507 H   0  0  0  0  0  0  0  0  0  0  0  0
  147.2480  142.1991  154.0043 H   0  0  0  0  0  0  0  0  0  0  0  0
  146.1592  141.1293  155.9811 H   0  0  0  0  0  0  0  0  0  0  0  0
  147.4079  142.2372  156.4931 H   0  0  0  0  0  0  0  0  0  0  0  0
  149.6477  141.7274  153.5009 H   0  0  0  0  0  0  0  0  0  0  0  0
  149.4968  142.5939  155.0090 H   0  0  0  0  0  0  0  0  0  0  0  0
  151.0669  140.6784  155.2428 H   0  0  0  0  0  0  0  0  0  0  0  0
  150.2264  138.3309  155.0021 H   0  0  0  0  0  0  0  0  0  0  0  0
  150.0775  139.2044  153.5006 H   0  0  0  0  0  0  0  0  0  0  0  0
  155.3148  139.9063  163.4653 H   0  0  0  0  0  0  0  0  0  0  0  0
  154.3875  141.3436  163.0672 H   0  0  0  0  0  0  0  0  0  0  0  0
  155.9029  141.0014  162.2210 H   0  0  0  0  0  0  0  0  0  0  0  0
  1  2  1  0  0  0  0
  1 26  1  0  0  0  0
  1 27  1  0  0  0  0
  1 28  1  0  0  0  0
  2 24  1  0  0  0  0
  2  3  2  0  0  0  0
  3  4  1  0  0  0  0
  4  5  1  0  0  0  0
  4 19  1  0  0  0  0
  5  6  1  0  0  0  0
  5 29  1  0  0  0  0
  5 30  1  0  0  0  0
  6  7  2  0  0  0  0
  6  8  1  0  0  0  0
  8  9  1  0  0  0  0
  8 31  1  0  0  0  0
  9 17  1  0  0  0  0
  9 10  1  0  0  0  0
  9 32  1  0  0  0  0
 10 15  1  0  0  0  0
 10 11  1  0  0  0  0
 10 33  1  0  0  0  0
 11 12  1  0  0  0  0
 11 34  1  0  0  0  0
 11 35  1  0  0  0  0
 12 18  1  0  0  0  0
 12 13  1  0  0  0  0
 12 36  1  0  0  0  0
 13 14  1  0  0  0  0
 13 37  1  0  0  0  0
 13 38  1  0  0  0  0
 14 15  1  0  0  0  0
 14 16  1  0  0  0  0
 14 39  1  0  0  0  0
 15 40  1  0  0  0  0
 15 41  1  0  0  0  0
 16 17  1  0  0  0  0
 16 42  1  0  0  0  0
 16 43  1  0  0  0  0
 17 18  1  0  0  0  0
 17 44  1  0  0  0  0
 18 45  1  0  0  0  0
 18 46  1  0  0  0  0
 19 20  2  0  0  0  0
 19 21  1  0  0  0  0
 21 22  1  0  0  0  0
 21 24  2  0  0  0  0
 22 23  3  0  0  0  0
 24 25  1  0  0  0  0
 25 47  1  0  0  0  0
 25 48  1  0  0  0  0
 25 49  1  0  0  0  0
M  END
> <s_m_source_file>
AV-unprocessed.smi

> <i_m_source_file_index>
795

> <i_lp_mmshare_version>
43012

> <i_f3d_flags>
0

> <s_epik_input>
TiNDYyhjMVtDSDNdKWMoPU8pbihuYzFbQ0gzXSlbQ0gyXUMoPU8pW05IXVtDQEhdKFtDQEhdMjMpW0NAQEhdNFtDSDJdW0NASF0oW0NIMl0zKVtDSDJdW0NASF0oW0NIMl0yKVtDSDJdNA==

> <s_epik_cmdline>
J2VwaWtfcHl0aG9uJywgJy1waCcsICc3LjAnLCAnLXRuJywgJzgnLCAnLW1hJywgJzIwMCcsICctbWV0YWxfYmluZGluZycsICctaW1hZScsICc8aW5maWxlLm1hZT4nLCAnLW9tYWUnLCAnPG91dGZpbGUubWFlPic=

> <r_lp_tautomer_probability>
1

> <r_epik_Ionization_Penalty>
2.02301e-08

> <r_epik_Ionization_Penalty_Charging>
2.3673e-11

> <r_epik_Ionization_Penalty_Neutral>
2.02064e-08

> <r_epik_State_Penalty>
-0

> <r_epik_Charging_Adjusted_Penalty>
2.3673e-11

> <i_epik_Tot_Q>
0

> <i_epik_Tot_abs_Q>
0

> <r_epik_Metal_State_Penalty>
-0

> <b_epik_Metal_Only>
0

> <s_lp_Force_Field>
OPLS_2005

> <r_lp_Energy>
43.8057

> <b_lp_Chiralities_Consistent>
1

> <s_lp_Variant>
AV-unprocessed.smi:795-1

> <Gold.Version>
5.8.1

> <Gold.Id.Protein>
6NUR|6NUR_protein|mol2

> <Gold.PLP.Fitness>
41.5570

> <Gold.PLP.PLP>
-36.0933

> <Gold.PLP.part.hbond>
-2.0000

> <Gold.PLP.part.metal>
0.0000

> <Gold.PLP.part.buried>
-1.7199

> <Gold.PLP.part.nonpolar>
-31.4158

> <Gold.PLP.part.repulsive>
0.0565

> <Gold.PLP.ligand.clash>
0.0000

> <Gold.PLP.ligand.torsion>
0.2705

> <Gold.PLP.Chemscore.Hbond>
2.0000

> <Gold.PLP.Chemscore.CHOScore>
0.0000

> <Gold.PLP.Chemscore.Metal>
0.0000

> <Gold.Chemscore.Hbonds>
donor molecule, donor type, donor heavy atom, donor atom, acceptor molecule, acceptor atom, score
      P1  H  6896  6909       L1    20  1.00
      P1  H  7997  8010       L1     7  0.88

> <Gold.PLP.Chemscore.Internal.Correction>
0.0048

> <Gold.Rescore>
     Score         DG    S(hbond)    S(metal)    S(lipo)     H(rot)  DE(clash)    DE(int)     intcor
     16.37     -19.29       1.98        0.00      93.03       1.44       0.12       2.80       ----

> <Gold.Chemscore.Fitness>
16.3666

> <Gold.Chemscore.DG>
-19.2853

> <Gold.Chemscore.ZeroCoef>
-5.4800

> <Gold.Chemscore.Hbond>
1.9814

> <Gold.Chemscore.Metal>
0.0000

> <Gold.Chemscore.Lipo>
93.0288

> <Gold.Chemscore.Internal_Hbond>
0.0000

> <Gold.Chemscore.DEClash>
0.1213

> <Gold.Chemscore.DEInternal>
2.7973

> <Gold.Chemscore.Rot>
1.4442

> <Gold.Chemscore.Internal.Correction>
   9.000000E+99

> <Gold.Chemscore.Hbonds>
donor molecule, donor type, donor heavy atom, donor atom, acceptor molecule, acceptor atom, score
      P1  H  6896  6909       L1    20  1.00
      P1  H  7997  8010       L1     7  0.85

> <Gold.Chemscore.Hbond.Weighted>
-6.6180

> <Gold.Chemscore.Metal.Weighted>
-0.0000

> <Gold.Chemscore.Lipo.Weighted>
-10.8844

> <Gold.Chemscore.Internal_Hbond.Weighted>
0.0000

> <Gold.Chemscore.DEClash.Weighted>
0.1213

> <Gold.Chemscore.DEInternal.Weighted>
2.7973

> <Gold.Chemscore.Rot.Weighted>
3.6971

> <Gold.Chemscore.Internal.Correction.Weighted>
   9.000000E+99

> <Gold.Protein.RotatedTorsions>
[ 6907 6896 6895 6894 ] final  145.67 input  -60.11 | X-H torsion
[ 7974 7965 7964 7962 ] final  162.14 input  175.53 | X-H torsion
[ 8008 7997 7996 7995 ] final   69.66 input   59.86 | X-H torsion
[ 10167 10162 10161 10158 ] final -156.55 input  -65.29 | X-H torsion
[ 10718 10713 10712 10709 ] final  -98.88 input   66.30 | X-H torsion
[ 10763 10752 10751 10750 ] final -120.19 input  -60.55 | X-H torsion
[ 11005 11000 10999 10996 ] final  -51.57 input  -57.11 | X-H torsion

> <Gold.Protein.ActiveResidues>
 VAL166  LYS551  ARG553  GLY616  TRP617  ASP618  TYR619  PRO620  LYS621  CYS622 
 ASP623  PHE694  ASN695  SER759  ASP760  ASP761  ALA762  ILE779  LEU786  VAL792 
 PHE793  MET794  SER795  GLU796  ALA797  LYS798  CYS799  TRP800  GLU811  SER814 

> <Gold.Protein.RotatedAtoms>
  152.1779  133.4687  159.4942 H   0  0  0  0  0  0  0  0  0  0  0  0  # atno 6907 bound_to 6896
  150.6930  134.1870  159.4280 H   0  0  0  0  0  0  0  0  0  0  0  0  # atno 6908 bound_to 6896
  151.9780  135.0043  160.0606 H   0  0  0  0  0  0  0  0  0  0  0  0  # atno 6909 bound_to 6896
  144.7651  139.7998  143.6318 H   0  0  0  0  0  0  0  0  0  0  0  0  # atno 7974 bound_to 7965
  155.7270  140.3492  155.5042 H   0  0  0  0  0  0  0  0  0  0  0  0  # atno 8008 bound_to 7997
  155.9217  140.1068  157.1223 H   0  0  0  0  0  0  0  0  0  0  0  0  # atno 8009 bound_to 7997
  154.4071  140.1248  156.4675 H   0  0  0  0  0  0  0  0  0  0  0  0  # atno 8010 bound_to 7997
  139.6841  143.9531  152.2352 H   0  0  0  0  0  0  0  0  0  0  0  0  # atno 10167 bound_to 10162
  156.0119  130.5257  150.6587 H   0  0  0  0  0  0  0  0  0  0  0  0  # atno 10718 bound_to 10713
  154.8637  135.4212  154.2419 H   0  0  0  0  0  0  0  0  0  0  0  0  # atno 10763 bound_to 10752
  153.3383  135.6992  153.6895 H   0  0  0  0  0  0  0  0  0  0  0  0  # atno 10764 bound_to 10752
  153.5884  135.3559  155.2874 H   0  0  0  0  0  0  0  0  0  0  0  0  # atno 10765 bound_to 10752
  141.0878  133.6639  156.3897 H   0  0  0  0  0  0  0  0  0  0  0  0  # atno 11005 bound_to 11000
  146.1751  139.4918  142.9903 LP  0  0  0  0  0  0  0  0  0  0  0  0  # atno 17320 bound_to 7965
  145.6496  141.0266  143.1767 LP  0  0  0  0  0  0  0  0  0  0  0  0  # atno 17321 bound_to 7965
  139.9329  144.6730  150.8345 LP  0  0  0  0  0  0  0  0  0  0  0  0  # atno 17342 bound_to 10162
  140.7662  143.3296  151.2438 LP  0  0  0  0  0  0  0  0  0  0  0  0  # atno 17343 bound_to 10162
  157.4334  131.0852  151.1016 LP  0  0  0  0  0  0  0  0  0  0  0  0  # atno 17370 bound_to 10713
  157.1582  130.6214  149.5602 LP  0  0  0  0  0  0  0  0  0  0  0  0  # atno 17371 bound_to 10713
  140.5322  134.6201  157.5353 LP  0  0  0  0  0  0  0  0  0  0  0  0  # atno 17394 bound_to 11000
  139.9699  134.7310  156.0062 LP  0  0  0  0  0  0  0  0  0  0  0  0  # atno 17395 bound_to 11000

$$$$
