AV-unprocessed.smi:35|AV-procd|sdf|273|dock4
  -GOLD-   2262016 43D 1   1.00000     0.00000
 Structure written by MMmdl.
 28 29  0  0  0  0  0  0  0  0  2 V2000
  150.0500  131.7261  156.1886 O   0  0  0  0  0  0  0  0  0  0  0  0
  149.9491  132.9513  156.1569 C   0  0  0  0  0  0  0  0  0  0  0  0
  150.3342  133.7533  157.1918 N   0  5  0  0  0  0  0  0  0  0  0  0
  150.2167  135.1134  157.1538 C   0  0  0  0  0  0  0  0  0  0  0  0
  150.5890  135.8476  158.0690 O   0  0  0  0  0  0  0  0  0  0  0  0
  149.6521  135.7210  155.9996 N   0  0  0  0  0  0  0  0  0  0  0  0
  149.5133  137.2268  155.9396 C   0  0  2  0  0  0  0  0  0  0  0  0
  148.2618  137.5404  155.4160 O   0  0  0  0  0  0  0  0  0  0  0  0
  148.3520  138.7961  154.7626 C   0  0  2  0  0  0  0  0  0  0  0  0
  147.1785  138.9650  153.7852 C   0  0  0  0  0  0  0  0  0  0  0  0
  147.3603  140.1255  153.0019 O   0  0  0  0  0  0  0  0  0  0  0  0
  149.7172  138.7161  154.0701 C   0  0  1  0  0  0  0  0  0  0  0  0
  150.2487  140.0144  153.8914 O   0  0  0  0  0  0  0  0  0  0  0  0
  150.5725  137.9103  155.0454 C   0  0  2  0  0  0  0  0  0  0  0  0
  151.4130  137.0125  154.3425 O   0  0  0  0  0  0  0  0  0  0  0  0
  149.2712  134.9359  154.9249 C   0  0  0  0  0  0  0  0  0  0  0  0
  149.3990  133.5943  154.9661 C   0  0  0  0  0  0  0  0  0  0  0  0
  148.8186  132.5946  153.3566 Br  0  0  0  0  0  0  0  0  0  0  0  0
  149.5351  137.5856  156.9701 H   0  0  0  0  0  0  0  0  0  0  0  0
  148.3605  139.5884  155.5147 H   0  0  0  0  0  0  0  0  0  0  0  0
  147.1341  138.1155  153.1031 H   0  0  0  0  0  0  0  0  0  0  0  0
  146.2253  139.0060  154.3136 H   0  0  0  0  0  0  0  0  0  0  0  0
  148.1716  140.0417  152.5247 H   0  0  0  0  0  0  0  0  0  0  0  0
  149.6252  138.2016  153.1116 H   0  0  0  0  0  0  0  0  0  0  0  0
  149.8398  140.4026  153.1330 H   0  0  0  0  0  0  0  0  0  0  0  0
  151.1811  138.5520  155.6845 H   0  0  0  0  0  0  0  0  0  0  0  0
  151.0156  136.8289  153.5044 H   0  0  0  0  0  0  0  0  0  0  0  0
  148.8733  135.3985  154.0339 H   0  0  0  0  0  0  0  0  0  0  0  0
  1  2  2  0  0  0  0
  2 17  1  0  0  0  0
  2  3  1  0  0  0  0
  3  4  1  0  0  0  0
  4  5  2  0  0  0  0
  4  6  1  0  0  0  0
  6  7  1  0  0  0  0
  6 16  1  0  0  0  0
  7 14  1  0  0  0  0
  7  8  1  0  0  0  0
  7 19  1  0  0  0  0
  8  9  1  0  0  0  0
  9 10  1  0  0  0  0
  9 12  1  0  0  0  0
  9 20  1  0  0  0  0
 10 11  1  0  0  0  0
 10 21  1  0  0  0  0
 10 22  1  0  0  0  0
 11 23  1  0  0  0  0
 12 13  1  0  0  0  0
 12 14  1  0  0  0  0
 12 24  1  0  0  0  0
 13 25  1  0  0  0  0
 14 15  1  0  0  0  0
 14 26  1  0  0  0  0
 15 27  1  0  0  0  0
 16 17  2  0  0  0  0
 16 28  1  0  0  0  0
 17 18  1  0  0  0  0
M  CHG  1   3  -1
M  END
> <s_m_source_file>
AV-unprocessed.smi

> <i_m_source_file_index>
35

> <i_lp_mmshare_version>
43012

> <i_f3d_flags>
0

> <s_epik_input>
Tz1jMVtuSF1jKD1PKW4oW2NIXWMxQnIpW0NAQEhdMk9bQ0BASF0oW0NIMl1bT0hdKVtDQEBIXShbT0hdKVtDQEhdMltPSF0=

> <s_epik_cmdline>
J2VwaWtfcHl0aG9uJywgJy1waCcsICc3LjAnLCAnLXRuJywgJzgnLCAnLW1hJywgJzIwMCcsICctbWV0YWxfYmluZGluZycsICctaW1hZScsICc8aW5maWxlLm1hZT4nLCAnLW9tYWUnLCAnPG91dGZpbGUubWFlPic=

> <r_epik_Ionization_Penalty>
1.06112

> <r_epik_Ionization_Penalty_Charging>
2.1796e-09

> <r_epik_Ionization_Penalty_Neutral>
1.06112

> <r_epik_State_Penalty>
1.11484

> <r_epik_Charging_Adjusted_Penalty>
1.11484

> <i_epik_Tot_Q>
-1

> <i_epik_Tot_abs_Q>
1

> <r_epik_Metal_State_Penalty>
0.0032876

> <b_epik_Metal_Only>
0

> <s_epik_Chemistry_Notes>
This compound contains an acetal/aminal-like group ( X-CH(R)-Y where X, Y are N, S, or O) that may be acid/base labile, releasing an aldehyde.

> <s_lp_Force_Field>
OPLS_2005

> <r_lp_Energy>
42.5644

> <b_lp_Chiralities_Consistent>
1

> <s_lp_Variant>
AV-unprocessed.smi:35-27

> <Gold.Version>
5.8.1

> <Gold.Id.Protein>
6NUR|6NUR_protein|mol2

> <Gold.PLP.Fitness>
44.2742

> <Gold.PLP.PLP>
-22.8027

> <Gold.PLP.part.hbond>
-7.0000

> <Gold.PLP.part.metal>
0.0000

> <Gold.PLP.part.buried>
-0.2696

> <Gold.PLP.part.nonpolar>
-16.1711

> <Gold.PLP.part.repulsive>
0.0714

> <Gold.PLP.ligand.clash>
0.0000

> <Gold.PLP.ligand.torsion>
0.4127

> <Gold.PLP.Chemscore.Hbond>
6.3629

> <Gold.PLP.Chemscore.CHOScore>
1.0000

> <Gold.PLP.Chemscore.Metal>
0.0000

> <Gold.Chemscore.Hbonds>
donor molecule, donor type, donor heavy atom, donor atom, acceptor molecule, acceptor atom, score
      L1  H    11    23       P1  7957  1.00
      L1  H    13    25       P1  7957  0.78
      L1  H    15    27       P1  7949  0.61
      P1  H  6896  6908       L1     3  1.12
      P1  H  6896  6909       L1     5  0.35
      P1  H  7989  7998       L1    13  0.28
      P1  H 10752 10763       L1    15  0.96
      L1  C    16    28       P1  7948  1.00

> <Gold.PLP.Chemscore.Internal.Correction>
0.2081

> <Gold.Rescore>
     Score         DG    S(hbond)    S(metal)    S(lipo)     H(rot)  DE(clash)    DE(int)     intcor
     11.06     -13.59       3.76        0.00      41.26       3.63       1.92       0.60       ----

> <Gold.Chemscore.Fitness>
11.0623

> <Gold.Chemscore.DG>
-13.5883

> <Gold.Chemscore.ZeroCoef>
-5.4800

> <Gold.Chemscore.Hbond>
3.7618

> <Gold.Chemscore.Metal>
0.0000

> <Gold.Chemscore.Lipo>
41.2550

> <Gold.Chemscore.Internal_Hbond>
0.0000

> <Gold.Chemscore.DEClash>
1.9239

> <Gold.Chemscore.DEInternal>
0.6021

> <Gold.Chemscore.Rot>
3.6261

> <Gold.Chemscore.Internal.Correction>
   9.000000E+99

> <Gold.Chemscore.Hbonds>
donor molecule, donor type, donor heavy atom, donor atom, acceptor molecule, acceptor atom, score
      L1  H    11    23       P1  7957  0.98
      L1  H    13    25       P1  7957  0.73
      L1  H    15    27       P1  7949  0.17
      P1  H  6896  6908       L1     3  0.11
      P1  H  6896  6909       L1     5  0.34
      P1  H 10752 10763       L1    15  0.32

> <Gold.Chemscore.Hbond.Weighted>
-12.5643

> <Gold.Chemscore.Metal.Weighted>
-0.0000

> <Gold.Chemscore.Lipo.Weighted>
-4.8268

> <Gold.Chemscore.Internal_Hbond.Weighted>
0.0000

> <Gold.Chemscore.DEClash.Weighted>
1.9239

> <Gold.Chemscore.DEInternal.Weighted>
0.6021

> <Gold.Chemscore.Rot.Weighted>
9.2828

> <Gold.Chemscore.Internal.Correction.Weighted>
   9.000000E+99

> <Gold.Protein.RotatedTorsions>
[ 6907 6896 6895 6894 ] final  101.32 input  -60.11 | X-H torsion
[ 7974 7965 7964 7962 ] final  125.11 input  175.53 | X-H torsion
[ 8008 7997 7996 7995 ] final -179.92 input   59.86 | X-H torsion
[ 10167 10162 10161 10158 ] final   21.69 input  -65.29 | X-H torsion
[ 10718 10713 10712 10709 ] final  -53.88 input   66.30 | X-H torsion
[ 10763 10752 10751 10750 ] final   48.78 input  -60.55 | X-H torsion
[ 11005 11000 10999 10996 ] final -129.59 input  -57.11 | X-H torsion

> <Gold.Protein.ActiveResidues>
 VAL166  LYS551  ARG553  GLY616  TRP617  ASP618  TYR619  PRO620  LYS621  CYS622 
 ASP623  PHE694  ASN695  SER759  ASP760  ASP761  ALA762  ILE779  LEU786  VAL792 
 PHE793  MET794  SER795  GLU796  ALA797  LYS798  CYS799  TRP800  GLU811  SER814 

> <Gold.Protein.RotatedAtoms>
  152.5352  134.0143  159.7952 H   0  0  0  0  0  0  0  0  0  0  0  0  # atno 6907 bound_to 6896
  151.0340  133.5757  159.2665 H   0  0  0  0  0  0  0  0  0  0  0  0  # atno 6908 bound_to 6896
  151.2751  135.0704  159.9202 H   0  0  0  0  0  0  0  0  0  0  0  0  # atno 6909 bound_to 6896
  145.0768  139.3688  143.4929 H   0  0  0  0  0  0  0  0  0  0  0  0  # atno 7974 bound_to 7965
  156.0361  140.1293  157.0206 H   0  0  0  0  0  0  0  0  0  0  0  0  # atno 8008 bound_to 7997
  154.4370  140.1039  156.6240 H   0  0  0  0  0  0  0  0  0  0  0  0  # atno 8009 bound_to 7997
  155.5736  140.3467  155.4524 H   0  0  0  0  0  0  0  0  0  0  0  0  # atno 8010 bound_to 7997
  140.5407  143.9682  150.6517 H   0  0  0  0  0  0  0  0  0  0  0  0  # atno 10167 bound_to 10162
  156.1497  130.4151  149.9965 H   0  0  0  0  0  0  0  0  0  0  0  0  # atno 10718 bound_to 10713
  152.9790  135.5933  154.3982 H   0  0  0  0  0  0  0  0  0  0  0  0  # atno 10763 bound_to 10752
  154.3630  135.2767  155.2311 H   0  0  0  0  0  0  0  0  0  0  0  0  # atno 10764 bound_to 10752
  154.4300  135.6038  153.6117 H   0  0  0  0  0  0  0  0  0  0  0  0  # atno 10765 bound_to 10752
  140.9418  134.1182  157.4143 H   0  0  0  0  0  0  0  0  0  0  0  0  # atno 11005 bound_to 11000
  146.3530  140.0539  142.8634 LP  0  0  0  0  0  0  0  0  0  0  0  0  # atno 17320 bound_to 7965
  145.1226  140.9471  143.4591 LP  0  0  0  0  0  0  0  0  0  0  0  0  # atno 17321 bound_to 7965
  140.3082  143.3215  152.0905 LP  0  0  0  0  0  0  0  0  0  0  0  0  # atno 17342 bound_to 10162
  139.4987  144.6653  151.6370 LP  0  0  0  0  0  0  0  0  0  0  0  0  # atno 17343 bound_to 10162
  156.7826  130.9227  151.3646 LP  0  0  0  0  0  0  0  0  0  0  0  0  # atno 17370 bound_to 10713
  157.6647  130.8997  149.9905 LP  0  0  0  0  0  0  0  0  0  0  0  0  # atno 17371 bound_to 10713
  139.8822  135.0039  156.6216 LP  0  0  0  0  0  0  0  0  0  0  0  0  # atno 17394 bound_to 11000
  140.7723  133.8728  155.8501 LP  0  0  0  0  0  0  0  0  0  0  0  0  # atno 17395 bound_to 11000

$$$$
