AV-unprocessed.smi:1504|AV-procd|sdf|6074|dock1
  -GOLD-   22720 6193D 1   1.00000     0.00000
 Structure written by MMmdl.
 40 41  0  0  0  0  0  0  0  0  2 V2000
  145.6768  138.5103  153.9431 O   0  0  0  0  0  0  0  0  0  0  0  0
  146.5631  138.0069  153.2526 C   0  0  0  0  0  0  0  0  0  0  0  0
  146.3573  137.0097  152.3809 N   0  0  0  0  0  0  0  0  0  0  0  0
  145.0672  136.3778  152.1294 C   0  0  0  0  0  0  0  0  0  0  0  0
  145.0181  135.7258  150.7372 C   0  0  0  0  0  0  0  0  0  0  0  0
  144.9165  134.2150  150.8135 C   0  0  0  0  0  0  0  0  0  0  0  0
  145.9940  133.4119  151.2465 C   0  0  0  0  0  0  0  0  0  0  0  0
  145.8319  132.0117  151.3001 C   0  0  0  0  0  0  0  0  0  0  0  0
  144.5970  131.4450  150.9219 C   0  0  0  0  0  0  0  0  0  0  0  0
  143.5537  132.2942  150.4996 C   0  0  0  0  0  0  0  0  0  0  0  0
  143.7482  133.6308  150.4614 N   0  3  0  0  0  0  0  0  0  0  0  0
  147.8486  138.3819  153.2847 N   0  0  0  0  0  0  0  0  0  0  0  0
  148.3964  139.4240  154.1463 C   0  0  0  0  0  0  0  0  0  0  0  0
  149.9296  139.3256  154.2219 C   0  0  1  0  0  0  0  0  0  0  0  0
  150.5218  140.2099  155.3363 C   0  0  0  0  0  0  0  0  0  0  0  0
  151.9974  139.8422  155.5182 C   0  0  0  0  0  0  0  0  0  0  0  0
  152.0966  138.0405  155.2070 S   0  0  0  0  0  0  0  0  0  0  0  0
  153.1318  137.7849  154.1940 O   0  0  0  0  0  0  0  0  0  0  0  0
  152.0973  137.3206  156.4893 O   0  0  0  0  0  0  0  0  0  0  0  0
  150.4372  137.8891  154.4420 C   0  0  0  0  0  0  0  0  0  0  0  0
  147.1474  136.6636  151.8558 H   0  0  0  0  0  0  0  0  0  0  0  0
  144.8580  135.6389  152.9051 H   0  0  0  0  0  0  0  0  0  0  0  0
  144.2943  137.1423  152.2123 H   0  0  0  0  0  0  0  0  0  0  0  0
  144.1671  136.1105  150.1735 H   0  0  0  0  0  0  0  0  0  0  0  0
  145.9085  135.9884  150.1642 H   0  0  0  0  0  0  0  0  0  0  0  0
  146.9330  133.8613  151.5357 H   0  0  0  0  0  0  0  0  0  0  0  0
  146.6448  131.3805  151.6286 H   0  0  0  0  0  0  0  0  0  0  0  0
  144.4524  130.3749  150.9560 H   0  0  0  0  0  0  0  0  0  0  0  0
  142.5773  131.9478  150.1938 H   0  0  0  0  0  0  0  0  0  0  0  0
  148.4992  137.9068  152.6762 H   0  0  0  0  0  0  0  0  0  0  0  0
  148.1021  140.3942  153.7446 H   0  0  0  0  0  0  0  0  0  0  0  0
  147.9759  139.3582  155.1515 H   0  0  0  0  0  0  0  0  0  0  0  0
  150.3465  139.6794  153.2774 H   0  0  0  0  0  0  0  0  0  0  0  0
  150.4004  141.2713  155.1182 H   0  0  0  0  0  0  0  0  0  0  0  0
  149.9930  140.0142  156.2703 H   0  0  0  0  0  0  0  0  0  0  0  0
  152.6159  140.3471  154.7759 H   0  0  0  0  0  0  0  0  0  0  0  0
  152.3796  140.0775  156.5115 H   0  0  0  0  0  0  0  0  0  0  0  0
  149.7979  137.3500  155.1420 H   0  0  0  0  0  0  0  0  0  0  0  0
  150.5014  137.3134  153.5187 H   0  0  0  0  0  0  0  0  0  0  0  0
  142.9793  134.2262  150.1526 H   0  0  0  0  0  0  0  0  0  0  0  0
  1  2  2  0  0  0  0
  2  3  1  0  0  0  0
  2 12  1  0  0  0  0
  3  4  1  0  0  0  0
  3 21  1  0  0  0  0
  4  5  1  0  0  0  0
  4 22  1  0  0  0  0
  4 23  1  0  0  0  0
  5  6  1  0  0  0  0
  5 24  1  0  0  0  0
  5 25  1  0  0  0  0
  6 11  1  0  0  0  0
  6  7  2  0  0  0  0
  7  8  1  0  0  0  0
  7 26  1  0  0  0  0
  8  9  2  0  0  0  0
  8 27  1  0  0  0  0
  9 10  1  0  0  0  0
  9 28  1  0  0  0  0
 10 11  2  0  0  0  0
 10 29  1  0  0  0  0
 11 40  1  0  0  0  0
 12 13  1  0  0  0  0
 12 30  1  0  0  0  0
 13 14  1  0  0  0  0
 13 31  1  0  0  0  0
 13 32  1  0  0  0  0
 14 20  1  0  0  0  0
 14 15  1  0  0  0  0
 14 33  1  0  0  0  0
 15 16  1  0  0  0  0
 15 34  1  0  0  0  0
 15 35  1  0  0  0  0
 16 17  1  0  0  0  0
 16 36  1  0  0  0  0
 16 37  1  0  0  0  0
 17 18  2  0  0  0  0
 17 19  2  0  0  0  0
 17 20  1  0  0  0  0
 20 38  1  0  0  0  0
 20 39  1  0  0  0  0
M  CHG  1  11   1
M  END
> <s_m_source_file>
AV-unprocessed.smi

> <i_m_source_file_index>
1504

> <i_lp_mmshare_version>
43012

> <i_f3d_flags>
0

> <s_epik_input>
Tz1TMSg9TylbQ0gyXVtDSDJdW0NASF0oW0NIMl0xKVtDSDJdW05IXUMoPU8pW05IXVtDSDJdW0NIMl1jMltjSF1bY0hdW2NIXVtjSF1uMg==

> <s_epik_cmdline>
J2VwaWtfcHl0aG9uJywgJy1waCcsICc3LjAnLCAnLXRuJywgJzgnLCAnLW1hJywgJzIwMCcsICctbWV0YWxfYmluZGluZycsICctaW1hZScsICc8aW5maWxlLm1hZT4nLCAnLW9tYWUnLCAnPG91dGZpbGUubWFlPic=

> <r_epik_Ionization_Penalty>
1.57393

> <r_epik_Ionization_Penalty_Charging>
1.57388

> <r_epik_Ionization_Penalty_Neutral>
4.82054e-05

> <r_epik_State_Penalty>
1.66991

> <r_epik_Charging_Adjusted_Penalty>
3.24379

> <i_epik_Tot_Q>
1

> <i_epik_Tot_abs_Q>
1

> <r_epik_Metal_State_Penalty>
1.71052

> <b_epik_Metal_Only>
0

> <s_lp_Force_Field>
OPLS_2005

> <r_lp_Energy>
6.78157

> <b_lp_Chiralities_Consistent>
1

> <s_lp_Variant>
AV-unprocessed.smi:1504-4

> <Gold.Version>
5.8.1

> <Gold.Id.Protein>
6NUR|6NUR_protein|mol2

> <Gold.PLP.Fitness>
49.6586

> <Gold.PLP.PLP>
-38.6821

> <Gold.PLP.part.hbond>
-4.3928

> <Gold.PLP.part.metal>
0.0000

> <Gold.PLP.part.buried>
-3.5832

> <Gold.PLP.part.nonpolar>
-32.1321

> <Gold.PLP.part.repulsive>
0.2955

> <Gold.PLP.ligand.clash>
0.0000

> <Gold.PLP.ligand.torsion>
0.8285

> <Gold.PLP.Chemscore.Hbond>
4.2080

> <Gold.PLP.Chemscore.CHOScore>
0.0000

> <Gold.PLP.Chemscore.Metal>
0.0000

> <Gold.Chemscore.Hbonds>
donor molecule, donor type, donor heavy atom, donor atom, acceptor molecule, acceptor atom, score
      L1  H     3    21       P1  7948  0.98
      L1  H    11    40       P1 10186  1.81
      L1  H    12    30       P1  7948  0.93
      P1  H 10752 10765       L1    18  0.32

> <Gold.PLP.Chemscore.Internal.Correction>
0.0095

> <Gold.Rescore>
     Score         DG    S(hbond)    S(metal)    S(lipo)     H(rot)  DE(clash)    DE(int)     intcor
     19.87     -20.71       3.06        0.00      86.93       2.01       0.02       0.81       ----

> <Gold.Chemscore.Fitness>
19.8729

> <Gold.Chemscore.DG>
-20.7061

> <Gold.Chemscore.ZeroCoef>
-5.4800

> <Gold.Chemscore.Hbond>
3.0577

> <Gold.Chemscore.Metal>
0.0000

> <Gold.Chemscore.Lipo>
86.9286

> <Gold.Chemscore.Internal_Hbond>
0.0000

> <Gold.Chemscore.DEClash>
0.0244

> <Gold.Chemscore.DEInternal>
0.8088

> <Gold.Chemscore.Rot>
2.0146

> <Gold.Chemscore.Internal.Correction>
   9.000000E+99

> <Gold.Chemscore.Hbonds>
donor molecule, donor type, donor heavy atom, donor atom, acceptor molecule, acceptor atom, score
      L1  H     3    21       P1  7948  0.93
      L1  H    11    40       P1 10186  0.78
      L1  H    12    30       P1  7948  0.91
      P1  H 10752 10765       L1    18  0.15

> <Gold.Chemscore.Hbond.Weighted>
-10.2128

> <Gold.Chemscore.Metal.Weighted>
-0.0000

> <Gold.Chemscore.Lipo.Weighted>
-10.1706

> <Gold.Chemscore.Internal_Hbond.Weighted>
0.0000

> <Gold.Chemscore.DEClash.Weighted>
0.0244

> <Gold.Chemscore.DEInternal.Weighted>
0.8088

> <Gold.Chemscore.Rot.Weighted>
5.1573

> <Gold.Chemscore.Internal.Correction.Weighted>
   9.000000E+99

> <Gold.Protein.RotatedTorsions>
[ 6907 6896 6895 6894 ] final   33.77 input  -60.11 | X-H torsion
[ 7974 7965 7964 7962 ] final -155.48 input  175.53 | X-H torsion
[ 8008 7997 7996 7995 ] final   30.23 input   59.86 | X-H torsion
[ 10167 10162 10161 10158 ] final   82.84 input  -65.29 | X-H torsion
[ 10718 10713 10712 10709 ] final   76.95 input   66.30 | X-H torsion
[ 10763 10752 10751 10750 ] final  138.07 input  -60.55 | X-H torsion
[ 11005 11000 10999 10996 ] final  -24.67 input  -57.11 | X-H torsion

> <Gold.Protein.ActiveResidues>
 VAL166  LYS551  ARG553  GLY616  TRP617  ASP618  TYR619  PRO620  LYS621  CYS622 
 ASP623  PHE694  ASN695  SER759  ASP760  ASP761  ALA762  ILE779  LEU786  VAL792 
 PHE793  MET794  SER795  GLU796  ALA797  LYS798  CYS799  TRP800  GLU811  SER814 

> <Gold.Protein.RotatedAtoms>
  152.0932  134.9393  160.0571 H   0  0  0  0  0  0  0  0  0  0  0  0  # atno 6907 bound_to 6896
  152.0636  133.4069  159.4437 H   0  0  0  0  0  0  0  0  0  0  0  0  # atno 6908 bound_to 6896
  150.6837  134.3092  159.4782 H   0  0  0  0  0  0  0  0  0  0  0  0  # atno 6909 bound_to 6896
  144.7638  140.4243  143.5957 H   0  0  0  0  0  0  0  0  0  0  0  0  # atno 7974 bound_to 7965
  155.0871  140.3216  155.4584 H   0  0  0  0  0  0  0  0  0  0  0  0  # atno 8008 bound_to 7997
  156.2752  140.2084  156.5944 H   0  0  0  0  0  0  0  0  0  0  0  0  # atno 8009 bound_to 7997
  154.6933  140.0514  157.0372 H   0  0  0  0  0  0  0  0  0  0  0  0  # atno 8010 bound_to 7997
  139.9246  144.6191  150.8405 H   0  0  0  0  0  0  0  0  0  0  0  0  # atno 10167 bound_to 10162
  157.6693  130.9799  150.1571 H   0  0  0  0  0  0  0  0  0  0  0  0  # atno 10718 bound_to 10713
  153.8835  135.3041  155.3446 H   0  0  0  0  0  0  0  0  0  0  0  0  # atno 10763 bound_to 10752
  154.7750  135.4866  153.9729 H   0  0  0  0  0  0  0  0  0  0  0  0  # atno 10764 bound_to 10752
  153.1338  135.6809  153.9233 H   0  0  0  0  0  0  0  0  0  0  0  0  # atno 10765 bound_to 10752
  140.8867  133.7617  156.0369 H   0  0  0  0  0  0  0  0  0  0  0  0  # atno 11005 bound_to 11000
  145.6534  139.1569  143.2849 LP  0  0  0  0  0  0  0  0  0  0  0  0  # atno 17320 bound_to 7965
  146.1727  140.6621  142.9226 LP  0  0  0  0  0  0  0  0  0  0  0  0  # atno 17321 bound_to 7965
  140.7653  143.3273  151.2488 LP  0  0  0  0  0  0  0  0  0  0  0  0  # atno 17342 bound_to 10162
  139.6833  143.9817  152.2820 LP  0  0  0  0  0  0  0  0  0  0  0  0  # atno 17343 bound_to 10162
  156.2357  130.3686  149.8394 LP  0  0  0  0  0  0  0  0  0  0  0  0  # atno 17370 bound_to 10713
  156.6209  130.8626  151.3475 LP  0  0  0  0  0  0  0  0  0  0  0  0  # atno 17371 bound_to 10713
  140.8397  134.3081  157.5318 LP  0  0  0  0  0  0  0  0  0  0  0  0  # atno 17394 bound_to 11000
  139.8725  134.9409  156.3782 LP  0  0  0  0  0  0  0  0  0  0  0  0  # atno 17395 bound_to 11000

$$$$
