AV-unprocessed.smi:2109|AV-procd|sdf|8606|dock6
  -GOLD-   2272011343D 1   1.00000     0.00000
 Structure written by MMmdl.
 45 46  0  0  0  0  0  0  0  0  1 V2000
  149.0866  132.4533  153.5880 C   0  0  0  0  0  0  0  0  0  0  0  0
  148.7332  132.8656  155.0273 C   0  0  0  0  0  0  0  0  0  0  0  0
  147.3400  133.5096  155.0820 C   0  0  0  0  0  0  0  0  0  0  0  0
  149.7908  133.8033  155.6491 C   0  0  0  0  0  0  0  0  0  0  0  0
  149.9996  135.0223  154.8738 N   0  0  0  0  0  0  0  0  0  0  0  0
  150.8660  135.9950  155.1900 C   0  0  0  0  0  0  0  0  0  0  0  0
  151.6133  135.9626  156.1680 O   0  0  0  0  0  0  0  0  0  0  0  0
  150.8193  137.0088  154.3151 N   0  0  0  0  0  0  0  0  0  0  0  0
  151.6593  138.1987  154.3838 C   0  0  0  0  0  0  0  0  0  0  0  0
  150.9896  139.3545  155.1068 C   0  0  0  0  0  0  0  0  0  0  0  0
  149.6662  139.7237  154.7980 C   0  0  0  0  0  0  0  0  0  0  0  0
  149.0920  140.7977  155.5023 C   0  0  0  0  0  0  0  0  0  0  0  0
  149.7499  141.4977  156.4502 N   0  0  0  0  0  0  0  0  0  0  0  0
  151.0296  141.1601  156.7468 C   0  0  0  0  0  0  0  0  0  0  0  0
  151.7109  141.9115  157.7292 N   0  0  0  0  0  0  0  0  0  0  0  0
  151.6262  141.4582  159.1167 C   0  0  0  0  0  0  0  0  0  0  0  0
  152.6347  142.2196  159.9933 C   0  0  0  0  0  0  0  0  0  0  0  0
  152.4228  143.6210  159.8606 O   0  0  0  0  0  0  0  0  0  0  0  0
  152.6198  144.0611  158.5212 C   0  0  0  0  0  0  0  0  0  0  0  0
  151.6142  143.3629  157.5895 C   0  0  0  0  0  0  0  0  0  0  0  0
  151.6805  140.0840  156.0973 C   0  0  0  0  0  0  0  0  0  0  0  0
  149.1678  133.3230  152.9353 H   0  0  0  0  0  0  0  0  0  0  0  0
  148.3229  131.7959  153.1718 H   0  0  0  0  0  0  0  0  0  0  0  0
  150.0331  131.9141  153.5461 H   0  0  0  0  0  0  0  0  0  0  0  0
  148.6881  131.9563  155.6279 H   0  0  0  0  0  0  0  0  0  0  0  0
  147.3050  134.4305  154.4988 H   0  0  0  0  0  0  0  0  0  0  0  0
  147.0600  133.7538  156.1072 H   0  0  0  0  0  0  0  0  0  0  0  0
  146.5792  132.8358  154.6870 H   0  0  0  0  0  0  0  0  0  0  0  0
  149.4840  134.0935  156.6544 H   0  0  0  0  0  0  0  0  0  0  0  0
  150.7423  133.2800  155.7597 H   0  0  0  0  0  0  0  0  0  0  0  0
  149.4325  135.1384  154.0468 H   0  0  0  0  0  0  0  0  0  0  0  0
  150.1731  136.9480  153.5422 H   0  0  0  0  0  0  0  0  0  0  0  0
  152.5727  137.9412  154.9202 H   0  0  0  0  0  0  0  0  0  0  0  0
  151.9672  138.5028  153.3816 H   0  0  0  0  0  0  0  0  0  0  0  0
  149.0982  139.1944  154.0471 H   0  0  0  0  0  0  0  0  0  0  0  0
  148.0771  141.1049  155.2976 H   0  0  0  0  0  0  0  0  0  0  0  0
  150.6134  141.6189  159.4887 H   0  0  0  0  0  0  0  0  0  0  0  0
  151.8313  140.3885  159.1772 H   0  0  0  0  0  0  0  0  0  0  0  0
  152.5091  141.9392  161.0390 H   0  0  0  0  0  0  0  0  0  0  0  0
  153.6596  141.9671  159.7167 H   0  0  0  0  0  0  0  0  0  0  0  0
  152.4815  145.1417  158.4795 H   0  0  0  0  0  0  0  0  0  0  0  0
  153.6454  143.8596  158.2070 H   0  0  0  0  0  0  0  0  0  0  0  0
  151.8003  143.6843  156.5658 H   0  0  0  0  0  0  0  0  0  0  0  0
  150.5984  143.6727  157.8388 H   0  0  0  0  0  0  0  0  0  0  0  0
  152.6923  139.8080  156.3546 H   0  0  0  0  0  0  0  0  0  0  0  0
  1  2  1  0  0  0  0
  1 22  1  0  0  0  0
  1 23  1  0  0  0  0
  1 24  1  0  0  0  0
  2  3  1  0  0  0  0
  2  4  1  0  0  0  0
  2 25  1  0  0  0  0
  3 26  1  0  0  0  0
  3 27  1  0  0  0  0
  3 28  1  0  0  0  0
  4  5  1  0  0  0  0
  4 29  1  0  0  0  0
  4 30  1  0  0  0  0
  5  6  1  0  0  0  0
  5 31  1  0  0  0  0
  6  7  2  0  0  0  0
  6  8  1  0  0  0  0
  8  9  1  0  0  0  0
  8 32  1  0  0  0  0
  9 10  1  0  0  0  0
  9 33  1  0  0  0  0
  9 34  1  0  0  0  0
 10 21  1  0  0  0  0
 10 11  2  0  0  0  0
 11 12  1  0  0  0  0
 11 35  1  0  0  0  0
 12 13  2  0  0  0  0
 12 36  1  0  0  0  0
 13 14  1  0  0  0  0
 14 15  1  0  0  0  0
 14 21  2  0  0  0  0
 15 20  1  0  0  0  0
 15 16  1  0  0  0  0
 16 17  1  0  0  0  0
 16 37  1  0  0  0  0
 16 38  1  0  0  0  0
 17 18  1  0  0  0  0
 17 39  1  0  0  0  0
 17 40  1  0  0  0  0
 18 19  1  0  0  0  0
 19 20  1  0  0  0  0
 19 41  1  0  0  0  0
 19 42  1  0  0  0  0
 20 43  1  0  0  0  0
 20 44  1  0  0  0  0
 21 45  1  0  0  0  0
M  END
> <s_m_source_file>
AV-unprocessed.smi

> <i_m_source_file_index>
2109

> <i_lp_mmshare_version>
43012

> <i_f3d_flags>
0

> <s_epik_input>
W0NIM11bQ0hdKFtDSDNdKVtDSDJdW05IXUMoPU8pW05IXVtDSDJdYzFbY0hdW2NIXW5jKFtjSF0xKU4yW0NIMl1bQ0gyXU9bQ0gyXVtDSDJdMg==

> <s_epik_cmdline>
J2VwaWtfcHl0aG9uJywgJy1waCcsICc3LjAnLCAnLXRuJywgJzgnLCAnLW1hJywgJzIwMCcsICctbWV0YWxfYmluZGluZycsICctaW1hZScsICc8aW5maWxlLm1hZT4nLCAnLW9tYWUnLCAnPG91dGZpbGUubWFlPic=

> <r_lp_tautomer_probability>
1

> <r_epik_Ionization_Penalty>
0.012582

> <r_epik_Ionization_Penalty_Charging>
0

> <r_epik_Ionization_Penalty_Neutral>
0.012582

> <r_epik_State_Penalty>
0.00970236

> <r_epik_Charging_Adjusted_Penalty>
0.00970236

> <i_epik_Tot_Q>
0

> <i_epik_Tot_abs_Q>
0

> <r_epik_Metal_State_Penalty>
0.00950075

> <b_epik_Metal_Only>
0

> <s_lp_Force_Field>
OPLS_2005

> <r_lp_Energy>
12.0327

> <b_lp_Chiralities_Consistent>
1

> <s_lp_Variant>
AV-unprocessed.smi:2109-1

> <Gold.Version>
5.8.1

> <Gold.Id.Protein>
6NUR|6NUR_protein|mol2

> <Gold.PLP.Fitness>
49.4749

> <Gold.PLP.PLP>
-41.8370

> <Gold.PLP.part.hbond>
-4.0000

> <Gold.PLP.part.metal>
0.0000

> <Gold.PLP.part.buried>
-5.2642

> <Gold.PLP.part.nonpolar>
-33.6963

> <Gold.PLP.part.repulsive>
0.3209

> <Gold.PLP.ligand.clash>
0.0000

> <Gold.PLP.ligand.torsion>
0.8424

> <Gold.PLP.Chemscore.Hbond>
2.9920

> <Gold.PLP.Chemscore.CHOScore>
0.0000

> <Gold.PLP.Chemscore.Metal>
0.0000

> <Gold.Chemscore.Hbonds>
donor molecule, donor type, donor heavy atom, donor atom, acceptor molecule, acceptor atom, score
      L1  H     8    32       P1  7948  0.59
      P1  H 10752 10765       L1     7  0.60

> <Gold.PLP.Chemscore.Internal.Correction>
0.3467

> <Gold.Rescore>
     Score         DG    S(hbond)    S(metal)    S(lipo)     H(rot)  DE(clash)    DE(int)     intcor
     16.82     -18.86       2.12        0.00      92.47       1.77       1.16       0.88       ----

> <Gold.Chemscore.Fitness>
16.8171

> <Gold.Chemscore.DG>
-18.8581

> <Gold.Chemscore.ZeroCoef>
-5.4800

> <Gold.Chemscore.Hbond>
2.1198

> <Gold.Chemscore.Metal>
0.0000

> <Gold.Chemscore.Lipo>
92.4735

> <Gold.Chemscore.Internal_Hbond>
0.0000

> <Gold.Chemscore.DEClash>
1.1568

> <Gold.Chemscore.DEInternal>
0.8842

> <Gold.Chemscore.Rot>
1.7662

> <Gold.Chemscore.Internal.Correction>
   9.000000E+99

> <Gold.Chemscore.Hbonds>
donor molecule, donor type, donor heavy atom, donor atom, acceptor molecule, acceptor atom, score
      L1  H     5    31       P1  7948  0.01
      L1  H     8    32       P1  7948  0.10
      P1  H 10752 10765       L1     7  0.04

> <Gold.Chemscore.Hbond.Weighted>
-7.0800

> <Gold.Chemscore.Metal.Weighted>
-0.0000

> <Gold.Chemscore.Lipo.Weighted>
-10.8194

> <Gold.Chemscore.Internal_Hbond.Weighted>
0.0000

> <Gold.Chemscore.DEClash.Weighted>
1.1568

> <Gold.Chemscore.DEInternal.Weighted>
0.8842

> <Gold.Chemscore.Rot.Weighted>
4.5214

> <Gold.Chemscore.Internal.Correction.Weighted>
   9.000000E+99

> <Gold.Protein.RotatedTorsions>
[ 6907 6896 6895 6894 ] final   66.34 input  -60.11 | X-H torsion
[ 7974 7965 7964 7962 ] final  -75.68 input  175.53 | X-H torsion
[ 8008 7997 7996 7995 ] final  178.47 input   59.86 | X-H torsion
[ 10167 10162 10161 10158 ] final  107.68 input  -65.29 | X-H torsion
[ 10718 10713 10712 10709 ] final  162.83 input   66.30 | X-H torsion
[ 10763 10752 10751 10750 ] final -148.43 input  -60.55 | X-H torsion
[ 11005 11000 10999 10996 ] final   60.46 input  -57.11 | X-H torsion

> <Gold.Protein.ActiveResidues>
 VAL166  LYS551  ARG553  GLY616  TRP617  ASP618  TYR619  PRO620  LYS621  CYS622 
 ASP623  PHE694  ASN695  SER759  ASP760  ASP761  ALA762  ILE779  LEU786  VAL792 
 PHE793  MET794  SER795  GLU796  ALA797  LYS798  CYS799  TRP800  GLU811  SER814 

> <Gold.Protein.RotatedAtoms>
  152.4474  134.5467  159.9854 H   0  0  0  0  0  0  0  0  0  0  0  0  # atno 6907 bound_to 6896
  151.5548  133.3406  159.2968 H   0  0  0  0  0  0  0  0  0  0  0  0  # atno 6908 bound_to 6896
  150.8393  134.7711  159.6982 H   0  0  0  0  0  0  0  0  0  0  0  0  # atno 6909 bound_to 6896
  145.6228  140.9358  143.1129 H   0  0  0  0  0  0  0  0  0  0  0  0  # atno 7974 bound_to 7965
  156.0543  140.1333  157.0014 H   0  0  0  0  0  0  0  0  0  0  0  0  # atno 8008 bound_to 7997
  154.4450  140.1004  156.6493 H   0  0  0  0  0  0  0  0  0  0  0  0  # atno 8009 bound_to 7997
  155.5475  140.3462  155.4463 H   0  0  0  0  0  0  0  0  0  0  0  0  # atno 8010 bound_to 7997
  139.6907  144.7108  151.1353 H   0  0  0  0  0  0  0  0  0  0  0  0  # atno 10167 bound_to 10162
  157.1170  131.0482  151.2432 H   0  0  0  0  0  0  0  0  0  0  0  0  # atno 10718 bound_to 10713
  154.8233  135.3334  154.6973 H   0  0  0  0  0  0  0  0  0  0  0  0  # atno 10763 bound_to 10752
  153.7602  135.6933  153.4931 H   0  0  0  0  0  0  0  0  0  0  0  0  # atno 10764 bound_to 10752
  153.2115  135.4480  155.0335 H   0  0  0  0  0  0  0  0  0  0  0  0  # atno 10765 bound_to 10752
  140.0230  134.6124  155.9612 H   0  0  0  0  0  0  0  0  0  0  0  0  # atno 11005 bound_to 11000
  144.7224  139.7985  143.7377 LP  0  0  0  0  0  0  0  0  0  0  0  0  # atno 17320 bound_to 7965
  146.1418  139.4477  143.0104 LP  0  0  0  0  0  0  0  0  0  0  0  0  # atno 17321 bound_to 7965
  140.7682  143.5563  150.9148 LP  0  0  0  0  0  0  0  0  0  0  0  0  # atno 17342 bound_to 10162
  139.9240  143.6572  152.3091 LP  0  0  0  0  0  0  0  0  0  0  0  0  # atno 17343 bound_to 10162
  157.4509  130.7598  149.7150 LP  0  0  0  0  0  0  0  0  0  0  0  0  # atno 17370 bound_to 10713
  155.9837  130.3998  150.3350 LP  0  0  0  0  0  0  0  0  0  0  0  0  # atno 17371 bound_to 10713
  141.1786  133.6543  156.4927 LP  0  0  0  0  0  0  0  0  0  0  0  0  # atno 17394 bound_to 11000
  140.4354  134.7064  157.4964 LP  0  0  0  0  0  0  0  0  0  0  0  0  # atno 17395 bound_to 11000

$$$$
