AV-unprocessed.smi:633|AV-procd|sdf|3131|dock8
  -GOLD-   22720 0 53D 1   1.00000     0.00000
 Structure written by MMmdl.
 53 56  0  0  0  0  0  0  0  0  1 V2000
  151.5458  145.0320  158.1846 C   0  0  0  0  0  0  0  0  0  0  0  0
  152.1697  143.6327  158.1994 C   0  0  2  0  0  0  0  0  0  0  0  0
  151.2762  142.5922  157.4983 C   0  0  0  0  0  0  0  0  0  0  0  0
  151.8502  141.2550  157.6311 N   0  0  0  0  0  0  0  0  0  0  0  0
  151.3038  140.2181  156.8445 C   0  0  0  0  0  0  0  0  0  0  0  0
  150.8316  140.4928  155.5401 C   0  0  0  0  0  0  0  0  0  0  0  0
  150.2963  139.4469  154.7646 C   0  0  0  0  0  0  0  0  0  0  0  0
  150.2494  138.1422  155.3102 C   0  0  0  0  0  0  0  0  0  0  0  0
  149.7325  136.9973  154.6417 N   0  0  0  0  0  0  0  0  0  0  0  0
  149.3089  135.8290  155.1553 C   0  0  0  0  0  0  0  0  0  0  0  0
  149.2851  135.5401  156.3509 O   0  0  0  0  0  0  0  0  0  0  0  0
  148.8985  134.9979  154.1865 N   0  0  0  0  0  0  0  0  0  0  0  0
  148.3941  133.6427  154.3862 C   0  0  0  0  0  0  0  0  0  0  0  0
  149.4044  132.7493  155.0866 C   0  0  0  0  0  0  0  0  0  0  0  0
  148.9999  131.4249  155.6903 C   0  0  0  0  0  0  0  0  0  0  0  0
  149.3926  132.5768  156.5872 C   0  0  0  0  0  0  0  0  0  0  0  0
  147.9464  133.0138  153.0795 C   0  0  0  0  0  0  0  0  0  0  0  0
  146.5913  133.3247  152.4909 C   0  0  0  0  0  0  0  0  0  0  0  0
  146.8780  131.9466  153.0441 C   0  0  0  0  0  0  0  0  0  0  0  0
  150.7301  137.9709  156.6240 C   0  0  0  0  0  0  0  0  0  0  0  0
  151.2415  138.9712  157.3719 N   0  0  0  0  0  0  0  0  0  0  0  0
  152.1584  140.8950  159.0124 C   0  0  0  0  0  0  0  0  0  0  0  0
  153.0214  141.9859  159.6746 C   0  0  2  0  0  0  0  0  0  0  0  0
  153.2593  141.7070  161.1625 C   0  0  0  0  0  0  0  0  0  0  0  0
  152.3619  143.2436  159.5567 O   0  0  0  0  0  0  0  0  0  0  0  0
  151.3886  145.3807  157.1638 H   0  0  0  0  0  0  0  0  0  0  0  0
  152.1930  145.7522  158.6858 H   0  0  0  0  0  0  0  0  0  0  0  0
  150.5816  145.0395  158.6938 H   0  0  0  0  0  0  0  0  0  0  0  0
  153.1392  143.6810  157.7002 H   0  0  0  0  0  0  0  0  0  0  0  0
  150.2761  142.5994  157.9344 H   0  0  0  0  0  0  0  0  0  0  0  0
  151.1745  142.8529  156.4439 H   0  0  0  0  0  0  0  0  0  0  0  0
  150.8593  141.4925  155.1327 H   0  0  0  0  0  0  0  0  0  0  0  0
  149.9283  139.6783  153.7782 H   0  0  0  0  0  0  0  0  0  0  0  0
  149.6487  137.0906  153.6398 H   0  0  0  0  0  0  0  0  0  0  0  0
  148.9496  135.3229  153.2322 H   0  0  0  0  0  0  0  0  0  0  0  0
  147.5096  133.6956  155.0244 H   0  0  0  0  0  0  0  0  0  0  0  0
  150.3899  132.7692  154.6243 H   0  0  0  0  0  0  0  0  0  0  0  0
  147.9473  131.1507  155.6659 H   0  0  0  0  0  0  0  0  0  0  0  0
  149.6997  130.5969  155.5983 H   0  0  0  0  0  0  0  0  0  0  0  0
  150.3545  132.5186  157.0925 H   0  0  0  0  0  0  0  0  0  0  0  0
  148.5997  133.0655  157.1498 H   0  0  0  0  0  0  0  0  0  0  0  0
  148.7537  132.8916  152.3596 H   0  0  0  0  0  0  0  0  0  0  0  0
  145.9263  133.9681  153.0638 H   0  0  0  0  0  0  0  0  0  0  0  0
  146.5262  133.4309  151.4100 H   0  0  0  0  0  0  0  0  0  0  0  0
  147.0038  131.1340  152.3316 H   0  0  0  0  0  0  0  0  0  0  0  0
  146.3952  131.6746  153.9806 H   0  0  0  0  0  0  0  0  0  0  0  0
  150.7080  136.9979  157.0932 H   0  0  0  0  0  0  0  0  0  0  0  0
  151.2217  140.7735  159.5581 H   0  0  0  0  0  0  0  0  0  0  0  0
  152.6832  139.9422  159.0703 H   0  0  0  0  0  0  0  0  0  0  0  0
  153.9896  142.0416  159.1739 H   0  0  0  0  0  0  0  0  0  0  0  0
  153.7751  140.7572  161.3066 H   0  0  0  0  0  0  0  0  0  0  0  0
  152.3180  141.6638  161.7110 H   0  0  0  0  0  0  0  0  0  0  0  0
  153.8712  142.4893  161.6121 H   0  0  0  0  0  0  0  0  0  0  0  0
  1  2  1  0  0  0  0
  1 26  1  0  0  0  0
  1 27  1  0  0  0  0
  1 28  1  0  0  0  0
  2 25  1  0  0  0  0
  2  3  1  0  0  0  0
  2 29  1  0  0  0  0
  3  4  1  0  0  0  0
  3 30  1  0  0  0  0
  3 31  1  0  0  0  0
  4  5  1  0  0  0  0
  4 22  1  0  0  0  0
  5 21  1  0  0  0  0
  5  6  2  0  0  0  0
  6  7  1  0  0  0  0
  6 32  1  0  0  0  0
  7  8  2  0  0  0  0
  7 33  1  0  0  0  0
  8  9  1  0  0  0  0
  8 20  1  0  0  0  0
  9 10  1  0  0  0  0
  9 34  1  0  0  0  0
 10 11  2  0  0  0  0
 10 12  1  0  0  0  0
 12 13  1  0  0  0  0
 12 35  1  0  0  0  0
 13 14  1  0  0  0  0
 13 17  1  0  0  0  0
 13 36  1  0  0  0  0
 14 16  1  0  0  0  0
 14 15  1  0  0  0  0
 14 37  1  0  0  0  0
 15 16  1  0  0  0  0
 15 38  1  0  0  0  0
 15 39  1  0  0  0  0
 16 40  1  0  0  0  0
 16 41  1  0  0  0  0
 17 19  1  0  0  0  0
 17 18  1  0  0  0  0
 17 42  1  0  0  0  0
 18 19  1  0  0  0  0
 18 43  1  0  0  0  0
 18 44  1  0  0  0  0
 19 45  1  0  0  0  0
 19 46  1  0  0  0  0
 20 21  2  0  0  0  0
 20 47  1  0  0  0  0
 22 23  1  0  0  0  0
 22 48  1  0  0  0  0
 22 49  1  0  0  0  0
 23 24  1  0  0  0  0
 23 25  1  0  0  0  0
 23 50  1  0  0  0  0
 24 51  1  0  0  0  0
 24 52  1  0  0  0  0
 24 53  1  0  0  0  0
M  END
> <s_m_source_file>
AV-unprocessed.smi

> <i_m_source_file_index>
633

> <i_lp_mmshare_version>
43012

> <i_f3d_flags>
0

> <s_epik_input>
W0NIM11bQ0BASF0xW0NIMl1OKFtDSDJdW0NASF0oTzEpW0NIM10pYzJbY0hdW2NIXWMoW2NIXW4yKVtOSF1DKD1PKVtOSF1bQ0hdKFtDSF0zW0NIMl1bQ0gyXTMpW0NIXTRbQ0gyXVtDSDJdNA==

> <s_epik_cmdline>
J2VwaWtfcHl0aG9uJywgJy1waCcsICc3LjAnLCAnLXRuJywgJzgnLCAnLW1hJywgJzIwMCcsICctbWV0YWxfYmluZGluZycsICctaW1hZScsICc8aW5maWxlLm1hZT4nLCAnLW9tYWUnLCAnPG91dGZpbGUubWFlPic=

> <r_lp_tautomer_probability>
1

> <r_epik_Ionization_Penalty>
0.00291159

> <r_epik_Ionization_Penalty_Charging>
0

> <r_epik_Ionization_Penalty_Neutral>
0.00291159

> <r_epik_State_Penalty>
0.00200877

> <r_epik_Charging_Adjusted_Penalty>
0.00200877

> <i_epik_Tot_Q>
0

> <i_epik_Tot_abs_Q>
0

> <r_epik_Metal_State_Penalty>
-0

> <b_epik_Metal_Only>
0

> <s_lp_Force_Field>
OPLS_2005

> <r_lp_Energy>
40.0006

> <b_lp_Chiralities_Consistent>
1

> <s_lp_Variant>
AV-unprocessed.smi:633-2

> <Gold.Version>
5.8.1

> <Gold.Id.Protein>
6NUR|6NUR_protein|mol2

> <Gold.PLP.Fitness>
51.8482

> <Gold.PLP.PLP>
-46.8558

> <Gold.PLP.part.hbond>
-2.0000

> <Gold.PLP.part.metal>
0.0000

> <Gold.PLP.part.buried>
-3.6910

> <Gold.PLP.part.nonpolar>
-40.7359

> <Gold.PLP.part.repulsive>
0.0752

> <Gold.PLP.ligand.clash>
0.0000

> <Gold.PLP.ligand.torsion>
1.5794

> <Gold.PLP.Chemscore.Hbond>
1.9048

> <Gold.PLP.Chemscore.CHOScore>
0.0000

> <Gold.PLP.Chemscore.Metal>
0.0000

> <Gold.Chemscore.Hbonds>
donor molecule, donor type, donor heavy atom, donor atom, acceptor molecule, acceptor atom, score
      L1  H     9    34       P1  7948  0.87
      L1  H    12    35       P1  7948  1.00

> <Gold.PLP.Chemscore.Internal.Correction>
2.4369

> <Gold.Rescore>
     Score         DG    S(hbond)    S(metal)    S(lipo)     H(rot)  DE(clash)    DE(int)     intcor
     17.18     -21.38       1.66        0.00     119.30       1.40       0.02       4.17       ----

> <Gold.Chemscore.Fitness>
17.1823

> <Gold.Chemscore.DG>
-21.3805

> <Gold.Chemscore.ZeroCoef>
-5.4800

> <Gold.Chemscore.Hbond>
1.6564

> <Gold.Chemscore.Metal>
0.0000

> <Gold.Chemscore.Lipo>
119.2977

> <Gold.Chemscore.Internal_Hbond>
0.0000

> <Gold.Chemscore.DEClash>
0.0234

> <Gold.Chemscore.DEInternal>
4.1748

> <Gold.Chemscore.Rot>
1.4022

> <Gold.Chemscore.Internal.Correction>
   9.000000E+99

> <Gold.Chemscore.Hbonds>
donor molecule, donor type, donor heavy atom, donor atom, acceptor molecule, acceptor atom, score
      L1  H     9    34       P1  7948  0.63
      L1  H    12    35       P1  7948  0.49

> <Gold.Chemscore.Hbond.Weighted>
-5.5323

> <Gold.Chemscore.Metal.Weighted>
-0.0000

> <Gold.Chemscore.Lipo.Weighted>
-13.9578

> <Gold.Chemscore.Internal_Hbond.Weighted>
0.0000

> <Gold.Chemscore.DEClash.Weighted>
0.0234

> <Gold.Chemscore.DEInternal.Weighted>
4.1748

> <Gold.Chemscore.Rot.Weighted>
3.5897

> <Gold.Chemscore.Internal.Correction.Weighted>
   9.000000E+99

> <Gold.Protein.RotatedTorsions>
[ 6907 6896 6895 6894 ] final  138.20 input  -60.11 | X-H torsion
[ 7974 7965 7964 7962 ] final  -36.20 input  175.53 | X-H torsion
[ 8008 7997 7996 7995 ] final -144.12 input   59.86 | X-H torsion
[ 10167 10162 10161 10158 ] final  117.06 input  -65.29 | X-H torsion
[ 10718 10713 10712 10709 ] final -100.24 input   66.30 | X-H torsion
[ 10763 10752 10751 10750 ] final -159.85 input  -60.55 | X-H torsion
[ 11005 11000 10999 10996 ] final   66.90 input  -57.11 | X-H torsion

> <Gold.Protein.ActiveResidues>
 VAL166  LYS551  ARG553  GLY616  TRP617  ASP618  TYR619  PRO620  LYS621  CYS622 
 ASP623  PHE694  ASN695  SER759  ASP760  ASP761  ALA762  ILE779  LEU786  VAL792 
 PHE793  MET794  SER795  GLU796  ALA797  LYS798  CYS799  TRP800  GLU811  SER814 

> <Gold.Protein.RotatedAtoms>
  152.2693  133.5368  159.5429 H   0  0  0  0  0  0  0  0  0  0  0  0  # atno 6907 bound_to 6896
  150.7153  134.0720  159.3877 H   0  0  0  0  0  0  0  0  0  0  0  0  # atno 6908 bound_to 6896
  151.8635  135.0515  160.0522 H   0  0  0  0  0  0  0  0  0  0  0  0  # atno 6909 bound_to 6896
  146.0682  140.6250  142.8965 H   0  0  0  0  0  0  0  0  0  0  0  0  # atno 7974 bound_to 7965
  155.5217  140.0592  157.2905 H   0  0  0  0  0  0  0  0  0  0  0  0  # atno 8008 bound_to 7997
  154.4515  140.1951  156.0451 H   0  0  0  0  0  0  0  0  0  0  0  0  # atno 8009 bound_to 7997
  156.0714  140.3259  155.7584 H   0  0  0  0  0  0  0  0  0  0  0  0  # atno 8010 bound_to 7997
  139.6204  144.7100  151.2646 H   0  0  0  0  0  0  0  0  0  0  0  0  # atno 10167 bound_to 10162
  156.0157  130.5319  150.6788 H   0  0  0  0  0  0  0  0  0  0  0  0  # atno 10718 bound_to 10713
  154.7440  135.3075  154.8678 H   0  0  0  0  0  0  0  0  0  0  0  0  # atno 10763 bound_to 10752
  153.9485  135.6766  153.4748 H   0  0  0  0  0  0  0  0  0  0  0  0  # atno 10764 bound_to 10752
  153.1037  135.4899  154.8838 H   0  0  0  0  0  0  0  0  0  0  0  0  # atno 10765 bound_to 10752
  139.9803  134.6754  156.0274 H   0  0  0  0  0  0  0  0  0  0  0  0  # atno 11005 bound_to 11000
  144.7215  140.4389  143.7004 LP  0  0  0  0  0  0  0  0  0  0  0  0  # atno 17320 bound_to 7965
  145.6439  139.1554  143.2900 LP  0  0  0  0  0  0  0  0  0  0  0  0  # atno 17321 bound_to 7965
  140.7378  143.6666  150.8118 LP  0  0  0  0  0  0  0  0  0  0  0  0  # atno 17342 bound_to 10162
  140.0275  143.5478  152.2774 LP  0  0  0  0  0  0  0  0  0  0  0  0  # atno 17343 bound_to 10162
  157.4495  131.0871  151.0861 LP  0  0  0  0  0  0  0  0  0  0  0  0  # atno 17370 bound_to 10713
  157.1381  130.6131  149.5547 LP  0  0  0  0  0  0  0  0  0  0  0  0  # atno 17371 bound_to 10713
  141.1476  133.6553  156.3915 LP  0  0  0  0  0  0  0  0  0  0  0  0  # atno 17394 bound_to 11000
  140.5109  134.6396  157.5284 LP  0  0  0  0  0  0  0  0  0  0  0  0  # atno 17395 bound_to 11000

$$$$
