AV-unprocessed.smi:3244|AV-procd|sdf|12401|dock9
  -GOLD-   2272018273D 1   1.00000     0.00000
 Structure written by MMmdl.
 40 41  0  0  0  0  0  0  0  0  1 V2000
  153.8164  141.8891  160.3268 C   0  0  0  0  0  0  0  0  0  0  0  0
  152.5471  142.7482  160.4454 C   0  0  0  0  0  0  0  0  0  0  0  0
  151.7546  142.7489  159.2033 N   0  0  0  0  0  0  0  0  0  0  0  0
  151.4093  141.5757  158.6115 C   0  0  0  0  0  0  0  0  0  0  0  0
  151.6059  140.4855  159.1503 O   0  0  0  0  0  0  0  0  0  0  0  0
  150.7464  141.5694  157.2241 C   0  0  0  0  0  0  0  0  0  0  0  0
  150.4714  140.2114  156.7259 N   0  0  0  0  0  0  0  0  0  0  0  0
  151.2772  139.8253  155.5710 C   0  0  1  0  0  0  0  0  0  0  0  0
  152.2239  138.6992  156.0194 C   0  0  0  0  0  0  0  0  0  0  0  0
  150.3933  139.4319  154.3592 C   0  0  0  0  0  0  0  0  0  0  0  0
  149.1716  140.2123  154.2398 N   0  0  0  0  0  0  0  0  0  0  0  0
  147.8739  139.7603  154.1180 C   0  0  0  0  0  0  0  0  0  0  0  0
  147.0663  140.8580  154.0334 C   0  0  0  0  0  0  0  0  0  0  0  0
  147.9735  141.9515  154.1091 C   0  0  0  0  0  0  0  0  0  0  0  0
  149.2313  141.5612  154.2282 N   0  0  0  0  0  0  0  0  0  0  0  0
  151.5833  144.0418  158.5917 C   0  0  0  0  0  0  0  0  0  0  0  0
  152.7740  144.7781  158.0028 C   0  0  0  0  0  0  0  0  0  0  0  0
  152.1370  145.2823  159.2680 C   0  0  0  0  0  0  0  0  0  0  0  0
  154.4140  141.9575  161.2358 H   0  0  0  0  0  0  0  0  0  0  0  0
  154.4389  142.2207  159.4953 H   0  0  0  0  0  0  0  0  0  0  0  0
  153.5798  140.8366  160.1715 H   0  0  0  0  0  0  0  0  0  0  0  0
  151.9356  142.3937  161.2768 H   0  0  0  0  0  0  0  0  0  0  0  0
  152.8466  143.7576  160.7235 H   0  0  0  0  0  0  0  0  0  0  0  0
  149.8295  142.1595  157.2730 H   0  0  0  0  0  0  0  0  0  0  0  0
  151.3747  142.0926  156.5058 H   0  0  0  0  0  0  0  0  0  0  0  0
  150.5783  139.5261  157.4598 H   0  0  0  0  0  0  0  0  0  0  0  0
  151.9002  140.6754  155.2882 H   0  0  0  0  0  0  0  0  0  0  0  0
  152.8438  138.3581  155.1900 H   0  0  0  0  0  0  0  0  0  0  0  0
  151.6785  137.8364  156.4037 H   0  0  0  0  0  0  0  0  0  0  0  0
  152.8942  139.0408  156.8090 H   0  0  0  0  0  0  0  0  0  0  0  0
  150.9447  139.4980  153.4208 H   0  0  0  0  0  0  0  0  0  0  0  0
  150.1046  138.3847  154.4565 H   0  0  0  0  0  0  0  0  0  0  0  0
  147.6362  138.7067  154.1049 H   0  0  0  0  0  0  0  0  0  0  0  0
  145.9914  140.8771  153.9316 H   0  0  0  0  0  0  0  0  0  0  0  0
  147.7581  143.0093  154.0791 H   0  0  0  0  0  0  0  0  0  0  0  0
  150.6472  144.1719  158.0512 H   0  0  0  0  0  0  0  0  0  0  0  0
  153.7666  144.3437  158.1022 H   0  0  0  0  0  0  0  0  0  0  0  0
  152.6074  145.3520  157.0934 H   0  0  0  0  0  0  0  0  0  0  0  0
  151.5431  146.1920  159.2072 H   0  0  0  0  0  0  0  0  0  0  0  0
  152.7118  145.1618  160.1842 H   0  0  0  0  0  0  0  0  0  0  0  0
  1  2  1  0  0  0  0
  1 19  1  0  0  0  0
  1 20  1  0  0  0  0
  1 21  1  0  0  0  0
  2  3  1  0  0  0  0
  2 22  1  0  0  0  0
  2 23  1  0  0  0  0
  3  4  1  0  0  0  0
  3 16  1  0  0  0  0
  4  5  2  0  0  0  0
  4  6  1  0  0  0  0
  6  7  1  0  0  0  0
  6 24  1  0  0  0  0
  6 25  1  0  0  0  0
  7  8  1  0  0  0  0
  7 26  1  0  0  0  0
  8  9  1  0  0  0  0
  8 10  1  0  0  0  0
  8 27  1  0  0  0  0
  9 28  1  0  0  0  0
  9 29  1  0  0  0  0
  9 30  1  0  0  0  0
 10 11  1  0  0  0  0
 10 31  1  0  0  0  0
 10 32  1  0  0  0  0
 11 15  1  0  0  0  0
 11 12  1  0  0  0  0
 12 13  2  0  0  0  0
 12 33  1  0  0  0  0
 13 14  1  0  0  0  0
 13 34  1  0  0  0  0
 14 15  2  0  0  0  0
 14 35  1  0  0  0  0
 16 18  1  0  0  0  0
 16 17  1  0  0  0  0
 16 36  1  0  0  0  0
 17 18  1  0  0  0  0
 17 37  1  0  0  0  0
 17 38  1  0  0  0  0
 18 39  1  0  0  0  0
 18 40  1  0  0  0  0
M  END
> <s_m_source_file>
AV-unprocessed.smi

> <i_m_source_file_index>
3244

> <i_lp_mmshare_version>
43012

> <i_f3d_flags>
0

> <s_epik_input>
W0NIMl0xW0NIMl1bQ0hdMU4oW0NIMl1bQ0gzXSlDKD1PKVtDSDJdW05IXVtDQEhdKFtDSDNdKVtDSDJdbjJbY0hdW2NIXVtjSF1uMg==

> <s_epik_cmdline>
J2VwaWtfcHl0aG9uJywgJy1waCcsICc3LjAnLCAnLXRuJywgJzgnLCAnLW1hJywgJzIwMCcsICctbWV0YWxfYmluZGluZycsICctaW1hZScsICc8aW5maWxlLm1hZT4nLCAnLW9tYWUnLCAnPG91dGZpbGUubWFlPic=

> <r_lp_tautomer_probability>
1

> <r_epik_Ionization_Penalty>
1.02506

> <r_epik_Ionization_Penalty_Charging>
0

> <r_epik_Ionization_Penalty_Neutral>
1.02506

> <r_epik_State_Penalty>
1.07563

> <r_epik_Charging_Adjusted_Penalty>
1.07563

> <i_epik_Tot_Q>
0

> <i_epik_Tot_abs_Q>
0

> <r_epik_Metal_State_Penalty>
1.07558

> <b_epik_Metal_Only>
0

> <s_lp_Force_Field>
OPLS_2005

> <r_lp_Energy>
38.4793

> <b_lp_Chiralities_Consistent>
1

> <s_lp_Variant>
AV-unprocessed.smi:3244-4

> <Gold.Version>
5.8.1

> <Gold.Id.Protein>
6NUR|6NUR_protein|mol2

> <Gold.PLP.Fitness>
46.3878

> <Gold.PLP.PLP>
-45.7611

> <Gold.PLP.part.hbond>
-1.7765

> <Gold.PLP.part.metal>
0.0000

> <Gold.PLP.part.buried>
-2.1633

> <Gold.PLP.part.nonpolar>
-41.1809

> <Gold.PLP.part.repulsive>
0.1852

> <Gold.PLP.ligand.clash>
0.0000

> <Gold.PLP.ligand.torsion>
1.6116

> <Gold.PLP.Chemscore.Hbond>
0.2814

> <Gold.PLP.Chemscore.CHOScore>
0.8864

> <Gold.PLP.Chemscore.Metal>
0.0000

> <Gold.Chemscore.Hbonds>
donor molecule, donor type, donor heavy atom, donor atom, acceptor molecule, acceptor atom, score
      P1  H  8011  8017       L1    15  0.28
      L1  C    14    35       P1  8028  0.86

> <Gold.PLP.Chemscore.Internal.Correction>
0.3465

> <Gold.Rescore>
     Score         DG    S(hbond)    S(metal)    S(lipo)     H(rot)  DE(clash)    DE(int)     intcor
     11.10     -14.01       0.21        0.00     109.61       1.95       0.17       2.74       ----

> <Gold.Chemscore.Fitness>
11.1030

> <Gold.Chemscore.DG>
-14.0116

> <Gold.Chemscore.ZeroCoef>
-5.4800

> <Gold.Chemscore.Hbond>
0.2130

> <Gold.Chemscore.Metal>
0.0000

> <Gold.Chemscore.Lipo>
109.6135

> <Gold.Chemscore.Internal_Hbond>
0.0000

> <Gold.Chemscore.DEClash>
0.1672

> <Gold.Chemscore.DEInternal>
2.7414

> <Gold.Chemscore.Rot>
1.9550

> <Gold.Chemscore.Internal.Correction>
   9.000000E+99

> <Gold.Chemscore.Hbonds>
donor molecule, donor type, donor heavy atom, donor atom, acceptor molecule, acceptor atom, score
      P1  H  8011  8017       L1    15  0.02

> <Gold.Chemscore.Hbond.Weighted>
-0.7116

> <Gold.Chemscore.Metal.Weighted>
-0.0000

> <Gold.Chemscore.Lipo.Weighted>
-12.8248

> <Gold.Chemscore.Internal_Hbond.Weighted>
0.0000

> <Gold.Chemscore.DEClash.Weighted>
0.1672

> <Gold.Chemscore.DEInternal.Weighted>
2.7414

> <Gold.Chemscore.Rot.Weighted>
5.0047

> <Gold.Chemscore.Internal.Correction.Weighted>
   9.000000E+99

> <Gold.Protein.RotatedTorsions>
[ 6907 6896 6895 6894 ] final   52.97 input  -60.11 | X-H torsion
[ 7974 7965 7964 7962 ] final  -12.13 input  175.53 | X-H torsion
[ 8008 7997 7996 7995 ] final  114.31 input   59.86 | X-H torsion
[ 10167 10162 10161 10158 ] final  118.98 input  -65.29 | X-H torsion
[ 10718 10713 10712 10709 ] final   97.44 input   66.30 | X-H torsion
[ 10763 10752 10751 10750 ] final  -76.56 input  -60.55 | X-H torsion
[ 11005 11000 10999 10996 ] final -125.23 input  -57.11 | X-H torsion

> <Gold.Protein.ActiveResidues>
 VAL166  LYS551  ARG553  GLY616  TRP617  ASP618  TYR619  PRO620  LYS621  CYS622 
 ASP623  PHE694  ASN695  SER759  ASP760  ASP761  ALA762  ILE779  LEU786  VAL792 
 PHE793  MET794  SER795  GLU796  ALA797  LYS798  CYS799  TRP800  GLU811  SER814 

> <Gold.Protein.RotatedAtoms>
  152.3289  134.7285  160.0294 H   0  0  0  0  0  0  0  0  0  0  0  0  # atno 6907 bound_to 6896
  151.7709  133.3336  159.3452 H   0  0  0  0  0  0  0  0  0  0  0  0  # atno 6908 bound_to 6896
  150.7411  134.5951  159.6052 H   0  0  0  0  0  0  0  0  0  0  0  0  # atno 6909 bound_to 6896
  146.2163  140.3012  142.8375 H   0  0  0  0  0  0  0  0  0  0  0  0  # atno 7974 bound_to 7965
  156.2313  140.2961  156.0196 H   0  0  0  0  0  0  0  0  0  0  0  0  # atno 8008 bound_to 7997
  155.2216  140.0416  157.2966 H   0  0  0  0  0  0  0  0  0  0  0  0  # atno 8009 bound_to 7997
  154.6001  140.2424  155.7811 H   0  0  0  0  0  0  0  0  0  0  0  0  # atno 8010 bound_to 7997
  139.6076  144.7074  151.2918 H   0  0  0  0  0  0  0  0  0  0  0  0  # atno 10167 bound_to 10162
  157.6912  131.0609  150.4644 H   0  0  0  0  0  0  0  0  0  0  0  0  # atno 10718 bound_to 10713
  154.5015  135.5793  153.6534 H   0  0  0  0  0  0  0  0  0  0  0  0  # atno 10763 bound_to 10752
  152.9879  135.6137  154.2996 H   0  0  0  0  0  0  0  0  0  0  0  0  # atno 10764 bound_to 10752
  154.2904  135.2849  155.2636 H   0  0  0  0  0  0  0  0  0  0  0  0  # atno 10765 bound_to 10752
  140.9778  134.0715  157.3798 H   0  0  0  0  0  0  0  0  0  0  0  0  # atno 11005 bound_to 11000
  144.9056  140.7695  143.5840 LP  0  0  0  0  0  0  0  0  0  0  0  0  # atno 17320 bound_to 7965
  145.2940  139.1873  143.4725 LP  0  0  0  0  0  0  0  0  0  0  0  0  # atno 17321 bound_to 7965
  140.7296  143.6904  150.7927 LP  0  0  0  0  0  0  0  0  0  0  0  0  # atno 17342 bound_to 10162
  140.0492  143.5267  152.2681 LP  0  0  0  0  0  0  0  0  0  0  0  0  # atno 17343 bound_to 10162
  156.4986  130.4112  149.6366 LP  0  0  0  0  0  0  0  0  0  0  0  0  # atno 17370 bound_to 10713
  156.3350  130.7351  151.2287 LP  0  0  0  0  0  0  0  0  0  0  0  0  # atno 17371 bound_to 10713
  139.8938  135.0132  156.6916 LP  0  0  0  0  0  0  0  0  0  0  0  0  # atno 17394 bound_to 11000
  140.7232  133.9123  155.8161 LP  0  0  0  0  0  0  0  0  0  0  0  0  # atno 17395 bound_to 11000

$$$$
