AV-unprocessed.smi:1412|AV-procd|sdf|5742|dock6
  -GOLD-   22720 5373D 1   1.00000     0.00000
 Structure written by MMmdl.
 42 43  0  0  0  0  0  0  0  0  2 V2000
  147.1008  142.4175  153.9129 C   0  0  0  0  0  0  0  0  0  0  0  0
  147.0948  140.9295  153.5193 C   0  0  0  0  0  0  0  0  0  0  0  0
  147.2307  139.9186  154.6993 C   0  0  1  0  0  0  0  0  0  0  0  0
  146.4301  140.4982  155.8958 C   0  0  0  0  0  0  0  0  0  0  0  0
  146.6082  138.5440  154.2994 C   0  0  0  0  0  0  0  0  0  0  0  0
  145.2026  138.6272  153.9016 N   0  0  0  0  0  0  0  0  0  0  0  0
  144.2464  137.7460  154.2313 C   0  0  0  0  0  0  0  0  0  0  0  0
  144.4546  136.7455  154.9175 O   0  0  0  0  0  0  0  0  0  0  0  0
  143.0580  138.0982  153.7102 N   0  0  0  0  0  0  0  0  0  0  0  0
  141.8182  137.4121  153.8053 C   0  0  0  0  0  0  0  0  0  0  0  0
  141.6750  136.2100  154.3854 N   0  0  0  0  0  0  0  0  0  0  0  0
  140.3606  135.7636  154.3390 N   0  0  0  0  0  0  0  0  0  0  0  0
  139.5653  136.6448  153.7260 C   0  0  0  0  0  0  0  0  0  0  0  0
  140.3443  138.1068  153.1459 S   0  0  0  0  0  0  0  0  0  0  0  0
  148.6848  139.7563  155.0677 N   0  3  0  0  0  0  0  0  0  0  0  0
  149.5027  138.9035  154.1592 C   0  0  0  0  0  0  0  0  0  0  0  0
  150.9007  138.6658  154.7563 C   0  0  0  0  0  0  0  0  0  0  0  0
  151.5407  139.9101  155.0015 O   0  0  0  0  0  0  0  0  0  0  0  0
  150.8169  140.6978  155.9361 C   0  0  0  0  0  0  0  0  0  0  0  0
  149.4252  141.0156  155.3670 C   0  0  0  0  0  0  0  0  0  0  0  0
  146.9839  143.0436  153.0280 H   0  0  0  0  0  0  0  0  0  0  0  0
  148.0354  142.7081  154.3923 H   0  0  0  0  0  0  0  0  0  0  0  0
  146.2832  142.6617  154.5904 H   0  0  0  0  0  0  0  0  0  0  0  0
  146.1648  140.7418  152.9822 H   0  0  0  0  0  0  0  0  0  0  0  0
  147.8747  140.7573  152.7778 H   0  0  0  0  0  0  0  0  0  0  0  0
  145.4387  140.8366  155.5926 H   0  0  0  0  0  0  0  0  0  0  0  0
  146.9353  141.3524  156.3468 H   0  0  0  0  0  0  0  0  0  0  0  0
  146.2719  139.7580  156.6805 H   0  0  0  0  0  0  0  0  0  0  0  0
  147.1801  138.0706  153.5011 H   0  0  0  0  0  0  0  0  0  0  0  0
  146.6486  137.8519  155.1401 H   0  0  0  0  0  0  0  0  0  0  0  0
  144.9394  139.4203  153.3347 H   0  0  0  0  0  0  0  0  0  0  0  0
  143.0386  138.9519  153.1722 H   0  0  0  0  0  0  0  0  0  0  0  0
  138.5124  136.4317  153.6143 H   0  0  0  0  0  0  0  0  0  0  0  0
  149.0449  137.9287  154.0021 H   0  0  0  0  0  0  0  0  0  0  0  0
  149.5987  139.3771  153.1820 H   0  0  0  0  0  0  0  0  0  0  0  0
  150.8359  138.0887  155.6803 H   0  0  0  0  0  0  0  0  0  0  0  0
  151.5112  138.0869  154.0630 H   0  0  0  0  0  0  0  0  0  0  0  0
  150.7395  140.1779  156.8925 H   0  0  0  0  0  0  0  0  0  0  0  0
  151.3677  141.6207  156.1187 H   0  0  0  0  0  0  0  0  0  0  0  0
  149.5426  141.6129  154.4628 H   0  0  0  0  0  0  0  0  0  0  0  0
  148.8955  141.6308  156.0914 H   0  0  0  0  0  0  0  0  0  0  0  0
  148.6625  139.2524  155.9430 H   0  0  0  0  0  0  0  0  0  0  0  0
  1  2  1  0  0  0  0
  1 21  1  0  0  0  0
  1 22  1  0  0  0  0
  1 23  1  0  0  0  0
  2  3  1  0  0  0  0
  2 24  1  0  0  0  0
  2 25  1  0  0  0  0
  3  4  1  0  0  0  0
  3  5  1  0  0  0  0
  3 15  1  0  0  0  0
  4 26  1  0  0  0  0
  4 27  1  0  0  0  0
  4 28  1  0  0  0  0
  5  6  1  0  0  0  0
  5 29  1  0  0  0  0
  5 30  1  0  0  0  0
  6  7  1  0  0  0  0
  6 31  1  0  0  0  0
  7  8  2  0  0  0  0
  7  9  1  0  0  0  0
  9 10  1  0  0  0  0
  9 32  1  0  0  0  0
 10 14  1  0  0  0  0
 10 11  2  0  0  0  0
 11 12  1  0  0  0  0
 12 13  2  0  0  0  0
 13 14  1  0  0  0  0
 13 33  1  0  0  0  0
 15 20  1  0  0  0  0
 15 16  1  0  0  0  0
 15 42  1  0  0  0  0
 16 17  1  0  0  0  0
 16 34  1  0  0  0  0
 16 35  1  0  0  0  0
 17 18  1  0  0  0  0
 17 36  1  0  0  0  0
 17 37  1  0  0  0  0
 18 19  1  0  0  0  0
 19 20  1  0  0  0  0
 19 38  1  0  0  0  0
 19 39  1  0  0  0  0
 20 40  1  0  0  0  0
 20 41  1  0  0  0  0
M  CHG  1  15   1
M  END
> <s_m_source_file>
AV-unprocessed.smi

> <i_m_source_file_index>
1412

> <i_lp_mmshare_version>
43012

> <i_f3d_flags>
0

> <s_epik_input>
W0NIMl0xW0NIMl1PW0NIMl1bQ0gyXU4xW0NAQF0oW0NIM10pKFtDSDJdW0NIM10pW0NIMl1bTkhdQyg9TylbTkhdYzJubltjSF1zMg==

> <s_epik_cmdline>
J2VwaWtfcHl0aG9uJywgJy1waCcsICc3LjAnLCAnLXRuJywgJzgnLCAnLW1hJywgJzIwMCcsICctbWV0YWxfYmluZGluZycsICctaW1hZScsICc8aW5maWxlLm1hZT4nLCAnLW9tYWUnLCAnPG91dGZpbGUubWFlPic=

> <r_lp_tautomer_probability>
1

> <r_epik_Ionization_Penalty>
0.554649

> <r_epik_Ionization_Penalty_Charging>
0.553838

> <r_epik_Ionization_Penalty_Neutral>
0.000811527

> <r_epik_State_Penalty>
0.564424

> <r_epik_Charging_Adjusted_Penalty>
1.11826

> <i_epik_Tot_Q>
1

> <i_epik_Tot_abs_Q>
1

> <r_epik_Metal_State_Penalty>
0.786249

> <b_epik_Metal_Only>
0

> <s_lp_Force_Field>
OPLS_2005

> <r_lp_Energy>
27.1522

> <b_lp_Chiralities_Consistent>
1

> <s_lp_Variant>
AV-unprocessed.smi:1412-3

> <Gold.Version>
5.8.1

> <Gold.Id.Protein>
6NUR|6NUR_protein|mol2

> <Gold.PLP.Fitness>
43.1765

> <Gold.PLP.PLP>
-32.4630

> <Gold.PLP.part.hbond>
-4.0459

> <Gold.PLP.part.metal>
0.0000

> <Gold.PLP.part.buried>
-6.4733

> <Gold.PLP.part.nonpolar>
-22.0596

> <Gold.PLP.part.repulsive>
0.2624

> <Gold.PLP.ligand.clash>
0.0000

> <Gold.PLP.ligand.torsion>
0.7101

> <Gold.PLP.Chemscore.Hbond>
4.0000

> <Gold.PLP.Chemscore.CHOScore>
0.0000

> <Gold.PLP.Chemscore.Metal>
0.0000

> <Gold.Chemscore.Hbonds>
donor molecule, donor type, donor heavy atom, donor atom, acceptor molecule, acceptor atom, score
      L1  H     6    31       P1 10175  1.00
      L1  H     9    32       P1 10175  1.00
      P1  H  7989  7998       L1    18  1.00
      P1  H 11000 11005       L1    12  1.00

> <Gold.PLP.Chemscore.Internal.Correction>
0.1337

> <Gold.Rescore>
     Score         DG    S(hbond)    S(metal)    S(lipo)     H(rot)  DE(clash)    DE(int)     intcor
     16.92     -19.47       3.37        0.00      65.34       1.91       0.52       2.04       ----

> <Gold.Chemscore.Fitness>
16.9180

> <Gold.Chemscore.DG>
-19.4737

> <Gold.Chemscore.ZeroCoef>
-5.4800

> <Gold.Chemscore.Hbond>
3.3680

> <Gold.Chemscore.Metal>
0.0000

> <Gold.Chemscore.Lipo>
65.3372

> <Gold.Chemscore.Internal_Hbond>
0.0000

> <Gold.Chemscore.DEClash>
0.5155

> <Gold.Chemscore.DEInternal>
2.0403

> <Gold.Chemscore.Rot>
1.9140

> <Gold.Chemscore.Internal.Correction>
   9.000000E+99

> <Gold.Chemscore.Hbonds>
donor molecule, donor type, donor heavy atom, donor atom, acceptor molecule, acceptor atom, score
      L1  H     6    31       P1 10175  0.96
      L1  H     9    32       P1 10175  0.99
      P1  H  7989  7998       L1    18  0.47
      P1  H 11000 11005       L1    12  0.53

> <Gold.Chemscore.Hbond.Weighted>
-11.2491

> <Gold.Chemscore.Metal.Weighted>
-0.0000

> <Gold.Chemscore.Lipo.Weighted>
-7.6444

> <Gold.Chemscore.Internal_Hbond.Weighted>
0.0000

> <Gold.Chemscore.DEClash.Weighted>
0.5155

> <Gold.Chemscore.DEInternal.Weighted>
2.0403

> <Gold.Chemscore.Rot.Weighted>
4.8998

> <Gold.Chemscore.Internal.Correction.Weighted>
   9.000000E+99

> <Gold.Protein.RotatedTorsions>
[ 6907 6896 6895 6894 ] final  -86.24 input  -60.11 | X-H torsion
[ 7974 7965 7964 7962 ] final  123.29 input  175.53 | X-H torsion
[ 8008 7997 7996 7995 ] final  129.04 input   59.86 | X-H torsion
[ 10167 10162 10161 10158 ] final   53.80 input  -65.29 | X-H torsion
[ 10718 10713 10712 10709 ] final   70.42 input   66.30 | X-H torsion
[ 10763 10752 10751 10750 ] final -133.43 input  -60.55 | X-H torsion
[ 11005 11000 10999 10996 ] final   40.44 input  -57.11 | X-H torsion

> <Gold.Protein.ActiveResidues>
 VAL166  LYS551  ARG553  GLY616  TRP617  ASP618  TYR619  PRO620  LYS621  CYS622 
 ASP623  PHE694  ASN695  SER759  ASP760  ASP761  ALA762  ILE779  LEU786  VAL792 
 PHE793  MET794  SER795  GLU796  ALA797  LYS798  CYS799  TRP800  GLU811  SER814 

> <Gold.Protein.RotatedAtoms>
  150.6867  134.3081  159.4734 H   0  0  0  0  0  0  0  0  0  0  0  0  # atno 6907 bound_to 6896
  152.0970  134.9365  160.0580 H   0  0  0  0  0  0  0  0  0  0  0  0  # atno 6908 bound_to 6896
  152.0659  133.4049  159.4475 H   0  0  0  0  0  0  0  0  0  0  0  0  # atno 6909 bound_to 6896
  145.0977  139.3541  143.4828 H   0  0  0  0  0  0  0  0  0  0  0  0  # atno 7974 bound_to 7965
  156.2928  140.2630  156.2534 H   0  0  0  0  0  0  0  0  0  0  0  0  # atno 8008 bound_to 7997
  154.9860  140.0389  157.2317 H   0  0  0  0  0  0  0  0  0  0  0  0  # atno 8009 bound_to 7997
  154.7729  140.2781  155.6129 H   0  0  0  0  0  0  0  0  0  0  0  0  # atno 8010 bound_to 7997
  140.2369  144.3625  150.6394 H   0  0  0  0  0  0  0  0  0  0  0  0  # atno 10167 bound_to 10162
  157.6399  130.9476  150.0649 H   0  0  0  0  0  0  0  0  0  0  0  0  # atno 10718 bound_to 10713
  154.8732  135.3766  154.4572 H   0  0  0  0  0  0  0  0  0  0  0  0  # atno 10763 bound_to 10752
  153.5243  135.7028  153.5720 H   0  0  0  0  0  0  0  0  0  0  0  0  # atno 10764 bound_to 10752
  153.3953  135.3962  155.1916 H   0  0  0  0  0  0  0  0  0  0  0  0  # atno 10765 bound_to 10752
  140.1931  134.3962  155.8136 H   0  0  0  0  0  0  0  0  0  0  0  0  # atno 11005 bound_to 11000
  146.3530  140.0840  142.8616 LP  0  0  0  0  0  0  0  0  0  0  0  0  # atno 17320 bound_to 7965
  145.0992  140.9335  143.4723 LP  0  0  0  0  0  0  0  0  0  0  0  0  # atno 17321 bound_to 7965
  140.6143  143.2171  151.6824 LP  0  0  0  0  0  0  0  0  0  0  0  0  # atno 17342 bound_to 10162
  139.5090  144.3591  152.0580 LP  0  0  0  0  0  0  0  0  0  0  0  0  # atno 17343 bound_to 10162
  156.1670  130.3645  149.9218 LP  0  0  0  0  0  0  0  0  0  0  0  0  # atno 17370 bound_to 10713
  156.7202  130.9004  151.3617 LP  0  0  0  0  0  0  0  0  0  0  0  0  # atno 17371 bound_to 10713
  141.2226  133.7056  156.8129 LP  0  0  0  0  0  0  0  0  0  0  0  0  # atno 17394 bound_to 11000
  140.2138  134.8808  157.3303 LP  0  0  0  0  0  0  0  0  0  0  0  0  # atno 17395 bound_to 11000

$$$$
