AV-unprocessed.smi:2881|AV-procd|sdf|11064|dock5
  -GOLD-   2272015533D 1   1.00000     0.00000
 Structure written by MMmdl.
 40 42  0  0  0  0  0  0  0  0  1 V2000
  143.6940  132.6027  148.8196 C   0  0  0  0  0  0  0  0  0  0  0  0
  144.9162  132.6607  149.6876 C   0  0  0  0  0  0  0  0  0  0  0  0
  145.1237  133.4386  150.8643 C   0  0  0  0  0  0  0  0  0  0  0  0
  146.3913  133.1176  151.2628 C   0  0  0  0  0  0  0  0  0  0  0  0
  147.2117  133.5892  152.4233 C   0  0  0  0  0  0  0  0  0  0  0  0
  146.4522  134.5541  153.3414 C   0  0  0  0  0  0  0  0  0  0  0  0
  145.4095  134.2129  153.9018 O   0  0  0  0  0  0  0  0  0  0  0  0
  146.9937  135.7746  153.4726 N   0  0  0  0  0  0  0  0  0  0  0  0
  146.4524  136.8712  154.2781 C   0  0  1  0  0  0  0  0  0  0  0  0
  147.3978  137.2635  155.4416 C   0  0  1  0  0  0  0  0  0  0  0  0
  148.8424  137.4845  154.9439 C   0  0  0  0  0  0  0  0  0  0  0  0
  148.7174  138.7791  154.1207 C   0  0  0  0  0  0  0  0  0  0  0  0
  147.2325  139.1609  154.2997 C   0  0  2  0  0  0  0  0  0  0  0  0
  146.9741  138.7002  155.7294 C   0  0  0  0  0  0  0  0  0  0  0  0
  146.2951  138.2177  153.5101 C   0  0  1  0  0  0  0  0  0  0  0  0
  146.5116  138.2252  151.9795 C   0  0  0  0  0  0  0  0  0  0  0  0
  146.5080  139.5478  151.4846 O   0  0  0  0  0  0  0  0  0  0  0  0
  146.8626  132.2076  150.3428 N   0  0  0  0  0  0  0  0  0  0  0  0
  145.9698  131.9200  149.3777 N   0  0  0  0  0  0  0  0  0  0  0  0
  147.7755  131.7761  150.3652 H   0  0  0  0  0  0  0  0  0  0  0  0
  142.9592  133.3482  149.1243 H   0  0  0  0  0  0  0  0  0  0  0  0
  143.2177  131.6237  148.8791 H   0  0  0  0  0  0  0  0  0  0  0  0
  143.9432  132.7909  147.7751 H   0  0  0  0  0  0  0  0  0  0  0  0
  144.4430  134.1263  151.3440 H   0  0  0  0  0  0  0  0  0  0  0  0
  148.1081  134.0933  152.0604 H   0  0  0  0  0  0  0  0  0  0  0  0
  147.5509  132.7315  153.0056 H   0  0  0  0  0  0  0  0  0  0  0  0
  147.8508  135.9643  152.9737 H   0  0  0  0  0  0  0  0  0  0  0  0
  145.4849  136.5882  154.6978 H   0  0  0  0  0  0  0  0  0  0  0  0
  147.3346  136.5906  156.2972 H   0  0  0  0  0  0  0  0  0  0  0  0
  149.5138  137.6395  155.7894 H   0  0  0  0  0  0  0  0  0  0  0  0
  149.2444  136.6530  154.3658 H   0  0  0  0  0  0  0  0  0  0  0  0
  149.3650  139.5527  154.5349 H   0  0  0  0  0  0  0  0  0  0  0  0
  149.0025  138.6421  153.0783 H   0  0  0  0  0  0  0  0  0  0  0  0
  147.0313  140.2178  154.1221 H   0  0  0  0  0  0  0  0  0  0  0  0
  145.9304  138.7914  156.0356 H   0  0  0  0  0  0  0  0  0  0  0  0
  147.6048  139.1996  156.4674 H   0  0  0  0  0  0  0  0  0  0  0  0
  145.2787  138.5774  153.6837 H   0  0  0  0  0  0  0  0  0  0  0  0
  147.4791  137.7833  151.7400 H   0  0  0  0  0  0  0  0  0  0  0  0
  145.7573  137.6417  151.4521 H   0  0  0  0  0  0  0  0  0  0  0  0
  147.3947  139.8743  151.4885 H   0  0  0  0  0  0  0  0  0  0  0  0
  1 21  1  0  0  0  0
  1 22  1  0  0  0  0
  1 23  1  0  0  0  0
  1  2  1  0  0  0  0
  2 19  2  0  0  0  0
  2  3  1  0  0  0  0
  3  4  2  0  0  0  0
  3 24  1  0  0  0  0
  4 18  1  0  0  0  0
  4  5  1  0  0  0  0
  5  6  1  0  0  0  0
  5 25  1  0  0  0  0
  5 26  1  0  0  0  0
  6  7  2  0  0  0  0
  6  8  1  0  0  0  0
  8  9  1  0  0  0  0
  8 27  1  0  0  0  0
  9 15  1  0  0  0  0
  9 10  1  0  0  0  0
  9 28  1  0  0  0  0
 10 14  1  0  0  0  0
 10 11  1  0  0  0  0
 10 29  1  0  0  0  0
 11 12  1  0  0  0  0
 11 30  1  0  0  0  0
 11 31  1  0  0  0  0
 12 13  1  0  0  0  0
 12 32  1  0  0  0  0
 12 33  1  0  0  0  0
 13 14  1  0  0  0  0
 13 15  1  0  0  0  0
 13 34  1  0  0  0  0
 14 35  1  0  0  0  0
 14 36  1  0  0  0  0
 15 16  1  0  0  0  0
 15 37  1  0  0  0  0
 16 17  1  0  0  0  0
 16 38  1  0  0  0  0
 16 39  1  0  0  0  0
 17 40  1  0  0  0  0
 18 19  1  0  0  0  0
 18 20  1  0  0  0  0
M  END
> <s_m_source_file>
AV-unprocessed.smi

> <i_m_source_file_index>
2881

> <i_lp_mmshare_version>
43012

> <i_f3d_flags>
0

> <s_epik_input>
W0NIM11jMVtjSF1jKG5bbkhdMSlbQ0gyXUMoPU8pW05IXVtDQEhdKFtDQEBIXTIzKVtDQEhdKFtDSDJdW09IXSlbQ0BASF0oW0NIMl0zKVtDSDJdW0NIMl0y

> <s_epik_cmdline>
J2VwaWtfcHl0aG9uJywgJy1waCcsICc3LjAnLCAnLXRuJywgJzgnLCAnLW1hJywgJzIwMCcsICctbWV0YWxfYmluZGluZycsICctaW1hZScsICc8aW5maWxlLm1hZT4nLCAnLW9tYWUnLCAnPG91dGZpbGUubWFlPic=

> <r_lp_tautomer_probability>
0.5

> <r_epik_Ionization_Penalty>
0.00013396

> <r_epik_Ionization_Penalty_Charging>
0

> <r_epik_Ionization_Penalty_Neutral>
0.00013396

> <r_epik_State_Penalty>
0.41068

> <r_epik_Charging_Adjusted_Penalty>
0.41068

> <i_epik_Tot_Q>
0

> <i_epik_Tot_abs_Q>
0

> <r_epik_Metal_State_Penalty>
0.41066

> <b_epik_Metal_Only>
0

> <s_lp_Force_Field>
OPLS_2005

> <r_lp_Energy>
49.8973

> <b_lp_Chiralities_Consistent>
1

> <s_lp_Variant>
AV-unprocessed.smi:2881-10

> <Gold.Version>
5.8.1

> <Gold.Id.Protein>
6NUR|6NUR_protein|mol2

> <Gold.PLP.Fitness>
36.5991

> <Gold.PLP.PLP>
-27.7536

> <Gold.PLP.part.hbond>
-3.1207

> <Gold.PLP.part.metal>
0.0000

> <Gold.PLP.part.buried>
-3.5015

> <Gold.PLP.part.nonpolar>
-21.1911

> <Gold.PLP.part.repulsive>
0.4031

> <Gold.PLP.ligand.clash>
0.0000

> <Gold.PLP.ligand.torsion>
0.0847

> <Gold.PLP.Chemscore.Hbond>
3.0000

> <Gold.PLP.Chemscore.CHOScore>
0.0000

> <Gold.PLP.Chemscore.Metal>
0.0000

> <Gold.Chemscore.Hbonds>
donor molecule, donor type, donor heavy atom, donor atom, acceptor molecule, acceptor atom, score
      L1  H     8    27       P1  7948  1.00
      L1  H    17    40       P1  7957  0.57
      L1  H    18    20       P1 10747  0.94

> <Gold.PLP.Chemscore.Internal.Correction>
0.0149

> <Gold.Rescore>
     Score         DG    S(hbond)    S(metal)    S(lipo)     H(rot)  DE(clash)    DE(int)     intcor
     17.82     -17.95       2.95        0.00      72.22       2.28       0.02       0.10       ----

> <Gold.Chemscore.Fitness>
17.8221

> <Gold.Chemscore.DG>
-17.9484

> <Gold.Chemscore.ZeroCoef>
-5.4800

> <Gold.Chemscore.Hbond>
2.9473

> <Gold.Chemscore.Metal>
0.0000

> <Gold.Chemscore.Lipo>
72.2186

> <Gold.Chemscore.Internal_Hbond>
0.0000

> <Gold.Chemscore.DEClash>
0.0234

> <Gold.Chemscore.DEInternal>
0.1029

> <Gold.Chemscore.Rot>
2.2755

> <Gold.Chemscore.Internal.Correction>
   9.000000E+99

> <Gold.Chemscore.Hbonds>
donor molecule, donor type, donor heavy atom, donor atom, acceptor molecule, acceptor atom, score
      L1  H     8    27       P1  7948  0.98
      L1  H    17    40       P1  7957  0.58
      L1  H    18    20       P1 10747  0.90

> <Gold.Chemscore.Hbond.Weighted>
-9.8441

> <Gold.Chemscore.Metal.Weighted>
-0.0000

> <Gold.Chemscore.Lipo.Weighted>
-8.4496

> <Gold.Chemscore.Internal_Hbond.Weighted>
0.0000

> <Gold.Chemscore.DEClash.Weighted>
0.0234

> <Gold.Chemscore.DEInternal.Weighted>
0.1029

> <Gold.Chemscore.Rot.Weighted>
5.8252

> <Gold.Chemscore.Internal.Correction.Weighted>
   9.000000E+99

> <Gold.Protein.RotatedTorsions>
[ 6907 6896 6895 6894 ] final  -70.02 input  -60.11 | X-H torsion
[ 7974 7965 7964 7962 ] final   63.19 input  175.53 | X-H torsion
[ 8008 7997 7996 7995 ] final   72.53 input   59.86 | X-H torsion
[ 10167 10162 10161 10158 ] final  -92.31 input  -65.29 | X-H torsion
[ 10718 10713 10712 10709 ] final   74.48 input   66.30 | X-H torsion
[ 10763 10752 10751 10750 ] final  -69.91 input  -60.55 | X-H torsion
[ 11005 11000 10999 10996 ] final  162.79 input  -57.11 | X-H torsion

> <Gold.Protein.ActiveResidues>
 VAL166  LYS551  ARG553  GLY616  TRP617  ASP618  TYR619  PRO620  LYS621  CYS622 
 ASP623  PHE694  ASN695  SER759  ASP760  ASP761  ALA762  ILE779  LEU786  VAL792 
 PHE793  MET794  SER795  GLU796  ALA797  LYS798  CYS799  TRP800  GLU811  SER814 

> <Gold.Protein.RotatedAtoms>
  150.7277  134.5512  159.5795 H   0  0  0  0  0  0  0  0  0  0  0  0  # atno 6907 bound_to 6896
  152.2999  134.7620  160.0369 H   0  0  0  0  0  0  0  0  0  0  0  0  # atno 6908 bound_to 6896
  151.8204  133.3358  159.3619 H   0  0  0  0  0  0  0  0  0  0  0  0  # atno 6909 bound_to 6896
  145.8647  139.3338  143.0798 H   0  0  0  0  0  0  0  0  0  0  0  0  # atno 7974 bound_to 7965
  155.7702  140.3484  155.5243 H   0  0  0  0  0  0  0  0  0  0  0  0  # atno 8008 bound_to 7997
  155.8829  140.1005  157.1493 H   0  0  0  0  0  0  0  0  0  0  0  0  # atno 8009 bound_to 7997
  154.4026  140.1319  156.4206 H   0  0  0  0  0  0  0  0  0  0  0  0  # atno 8010 bound_to 7997
  140.3360  143.2968  151.9888 H   0  0  0  0  0  0  0  0  0  0  0  0  # atno 10167 bound_to 10162
  157.6594  130.9680  150.1218 H   0  0  0  0  0  0  0  0  0  0  0  0  # atno 10718 bound_to 10713
  154.4102  135.6010  153.5948 H   0  0  0  0  0  0  0  0  0  0  0  0  # atno 10763 bound_to 10752
  152.9790  135.5927  154.4079 H   0  0  0  0  0  0  0  0  0  0  0  0  # atno 10764 bound_to 10752
  154.3890  135.2842  155.2144 H   0  0  0  0  0  0  0  0  0  0  0  0  # atno 10765 bound_to 10752
  140.2293  134.8136  157.3300 H   0  0  0  0  0  0  0  0  0  0  0  0  # atno 11005 bound_to 11000
  145.9208  140.9117  143.0406 LP  0  0  0  0  0  0  0  0  0  0  0  0  # atno 17320 bound_to 7965
  144.6726  140.1285  143.7445 LP  0  0  0  0  0  0  0  0  0  0  0  0  # atno 17321 bound_to 7965
  139.4848  144.6196  151.7281 LP  0  0  0  0  0  0  0  0  0  0  0  0  # atno 17342 bound_to 10162
  140.5353  144.0666  150.6068 LP  0  0  0  0  0  0  0  0  0  0  0  0  # atno 17343 bound_to 10162
  156.2087  130.3665  149.8697 LP  0  0  0  0  0  0  0  0  0  0  0  0  # atno 17370 bound_to 10713
  156.6581  130.8771  151.3543 LP  0  0  0  0  0  0  0  0  0  0  0  0  # atno 17371 bound_to 10713
  140.1768  134.4540  155.7797 LP  0  0  0  0  0  0  0  0  0  0  0  0  # atno 17394 bound_to 11000
  141.2219  133.6966  156.7800 LP  0  0  0  0  0  0  0  0  0  0  0  0  # atno 17395 bound_to 11000

$$$$
