AV-unprocessed.smi:3255|AV-procd|sdf|12462|dock1
  -GOLD-   2272018363D 1   1.00000     0.00000
 Structure written by MMmdl.
 38 39  0  0  0  0  0  0  0  0  1 V2000
  148.0944  140.2908  154.4012 C   0  0  0  0  0  0  0  0  0  0  0  0
  148.7676  138.9112  154.4339 C   0  0  1  0  0  0  0  0  0  0  0  0
  148.0506  138.0045  153.5384 N   0  0  0  0  0  0  0  0  0  0  0  0
  146.7186  137.8739  153.4664 C   0  0  0  0  0  0  0  0  0  0  0  0
  145.9205  138.5379  154.1282 O   0  0  0  0  0  0  0  0  0  0  0  0
  146.3589  136.9189  152.5981 N   0  0  0  0  0  0  0  0  0  0  0  0
  144.9839  136.5104  152.3373 C   0  0  0  0  0  0  0  0  0  0  0  0
  144.8510  135.8303  150.9650 C   0  0  0  0  0  0  0  0  0  0  0  0
  145.1506  134.4155  151.0446 N   0  0  0  0  0  0  0  0  0  0  0  0
  146.3650  133.8360  151.3871 C   0  0  0  0  0  0  0  0  0  0  0  0
  146.1782  132.4731  151.3346 C   0  0  0  0  0  0  0  0  0  0  0  0
  144.8643  132.1936  150.9654 N   0  0  0  0  0  0  0  0  0  0  0  0
  144.3174  133.3927  150.8112 C   0  0  0  0  0  0  0  0  0  0  0  0
  150.2718  138.9971  154.0827 C   0  0  2  0  0  0  0  0  0  0  0  0
  151.1187  137.7582  154.4083 C   0  0  0  0  0  0  0  0  0  0  0  0
  152.4790  138.3668  154.6622 C   0  0  0  0  0  0  0  0  0  0  0  0
  152.1004  139.6540  155.3841 C   0  0  0  0  0  0  0  0  0  0  0  0
  150.8957  140.0865  154.7622 O   0  0  0  0  0  0  0  0  0  0  0  0
  148.5861  140.9829  155.0854 H   0  0  0  0  0  0  0  0  0  0  0  0
  147.0478  140.2235  154.6997 H   0  0  0  0  0  0  0  0  0  0  0  0
  148.1281  140.7296  153.4035 H   0  0  0  0  0  0  0  0  0  0  0  0
  148.6797  138.5399  155.4568 H   0  0  0  0  0  0  0  0  0  0  0  0
  148.6163  137.4103  152.9505 H   0  0  0  0  0  0  0  0  0  0  0  0
  147.0856  136.4272  152.0988 H   0  0  0  0  0  0  0  0  0  0  0  0
  144.6355  135.8462  153.1302 H   0  0  0  0  0  0  0  0  0  0  0  0
  144.3518  137.3979  152.3761 H   0  0  0  0  0  0  0  0  0  0  0  0
  143.8401  135.9524  150.5733 H   0  0  0  0  0  0  0  0  0  0  0  0
  145.5288  136.2836  150.2399 H   0  0  0  0  0  0  0  0  0  0  0  0
  147.2358  134.4253  151.6344 H   0  0  0  0  0  0  0  0  0  0  0  0
  146.8823  131.6786  151.5339 H   0  0  0  0  0  0  0  0  0  0  0  0
  143.2851  133.5300  150.5239 H   0  0  0  0  0  0  0  0  0  0  0  0
  150.3756  139.2139  153.0185 H   0  0  0  0  0  0  0  0  0  0  0  0
  150.7737  137.2576  155.3132 H   0  0  0  0  0  0  0  0  0  0  0  0
  151.1241  137.0260  153.6006 H   0  0  0  0  0  0  0  0  0  0  0  0
  153.1360  137.7243  155.2488 H   0  0  0  0  0  0  0  0  0  0  0  0
  152.9734  138.5951  153.7170 H   0  0  0  0  0  0  0  0  0  0  0  0
  151.8960  139.4538  156.4370 H   0  0  0  0  0  0  0  0  0  0  0  0
  152.8784  140.4153  155.3267 H   0  0  0  0  0  0  0  0  0  0  0  0
  1  2  1  0  0  0  0
  1 19  1  0  0  0  0
  1 20  1  0  0  0  0
  1 21  1  0  0  0  0
  2  3  1  0  0  0  0
  2 14  1  0  0  0  0
  2 22  1  0  0  0  0
  3  4  1  0  0  0  0
  3 23  1  0  0  0  0
  4  5  2  0  0  0  0
  4  6  1  0  0  0  0
  6  7  1  0  0  0  0
  6 24  1  0  0  0  0
  7  8  1  0  0  0  0
  7 25  1  0  0  0  0
  7 26  1  0  0  0  0
  8  9  1  0  0  0  0
  8 27  1  0  0  0  0
  8 28  1  0  0  0  0
  9 13  1  0  0  0  0
  9 10  1  0  0  0  0
 10 11  2  0  0  0  0
 10 29  1  0  0  0  0
 11 12  1  0  0  0  0
 11 30  1  0  0  0  0
 12 13  2  0  0  0  0
 13 31  1  0  0  0  0
 14 18  1  0  0  0  0
 14 15  1  0  0  0  0
 14 32  1  0  0  0  0
 15 16  1  0  0  0  0
 15 33  1  0  0  0  0
 15 34  1  0  0  0  0
 16 17  1  0  0  0  0
 16 35  1  0  0  0  0
 16 36  1  0  0  0  0
 17 18  1  0  0  0  0
 17 37  1  0  0  0  0
 17 38  1  0  0  0  0
M  END
> <s_m_source_file>
AV-unprocessed.smi

> <i_m_source_file_index>
3255

> <i_lp_mmshare_version>
43012

> <i_f3d_flags>
0

> <s_epik_input>
TzFbQ0gyXVtDSDJdW0NIMl1bQ0BIXTFbQ0BIXShbQ0gzXSlbTkhdQyg9TylbTkhdW0NIMl1bQ0gyXW4yW2NIXVtjSF1uW2NIXTI=

> <s_epik_cmdline>
J2VwaWtfcHl0aG9uJywgJy1waCcsICc3LjAnLCAnLXRuJywgJzgnLCAnLW1hJywgJzIwMCcsICctbWV0YWxfYmluZGluZycsICctaW1hZScsICc8aW5maWxlLm1hZT4nLCAnLW9tYWUnLCAnPG91dGZpbGUubWFlPic=

> <r_lp_tautomer_probability>
1

> <r_epik_Ionization_Penalty>
0.620274

> <r_epik_Ionization_Penalty_Charging>
0.620225

> <r_epik_Ionization_Penalty_Neutral>
4.91362e-05

> <r_epik_State_Penalty>
0.636186

> <r_epik_Charging_Adjusted_Penalty>
1.25641

> <i_epik_Tot_Q>
0

> <i_epik_Tot_abs_Q>
0

> <r_epik_Metal_State_Penalty>
0.306491

> <b_epik_Metal_Only>
0

> <s_lp_Force_Field>
OPLS_2005

> <r_lp_Energy>
18.9252

> <b_lp_Chiralities_Consistent>
1

> <s_lp_Variant>
AV-unprocessed.smi:3255-6

> <Gold.Version>
5.8.1

> <Gold.Id.Protein>
6NUR|6NUR_protein|mol2

> <Gold.PLP.Fitness>
49.9185

> <Gold.PLP.PLP>
-33.8131

> <Gold.PLP.part.hbond>
-3.0000

> <Gold.PLP.part.metal>
0.0000

> <Gold.PLP.part.buried>
-3.5335

> <Gold.PLP.part.nonpolar>
-28.3854

> <Gold.PLP.part.repulsive>
0.3863

> <Gold.PLP.ligand.clash>
0.0000

> <Gold.PLP.ligand.torsion>
0.6398

> <Gold.PLP.Chemscore.Hbond>
2.8280

> <Gold.PLP.Chemscore.CHOScore>
2.9498

> <Gold.PLP.Chemscore.Metal>
0.0000

> <Gold.Chemscore.Hbonds>
donor molecule, donor type, donor heavy atom, donor atom, acceptor molecule, acceptor atom, score
      L1  H     3    23       P1  7948  1.00
      L1  H     6    24       P1  7948  0.93
      P1  H  7989  7998       L1    18  0.80
      L1  C    10    29       P1  7948  1.00
      L1  C    11    30       P1 10747  0.88
      L1  C    13    31       P1 10186  0.75

> <Gold.PLP.Chemscore.Internal.Correction>
0.0518

> <Gold.Rescore>
     Score         DG    S(hbond)    S(metal)    S(lipo)     H(rot)  DE(clash)    DE(int)     intcor
     12.29     -14.16       1.91        0.00      67.54       2.18       0.09       1.78       ----

> <Gold.Chemscore.Fitness>
12.2853

> <Gold.Chemscore.DG>
-14.1579

> <Gold.Chemscore.ZeroCoef>
-5.4800

> <Gold.Chemscore.Hbond>
1.9054

> <Gold.Chemscore.Metal>
0.0000

> <Gold.Chemscore.Lipo>
67.5372

> <Gold.Chemscore.Internal_Hbond>
0.0000

> <Gold.Chemscore.DEClash>
0.0890

> <Gold.Chemscore.DEInternal>
1.7836

> <Gold.Chemscore.Rot>
2.1828

> <Gold.Chemscore.Internal.Correction>
   9.000000E+99

> <Gold.Chemscore.Hbonds>
donor molecule, donor type, donor heavy atom, donor atom, acceptor molecule, acceptor atom, score
      L1  H     3    23       P1  7948  0.99
      L1  H     6    24       P1  7948  0.91
      P1  H  7989  7998       L1    18  0.04

> <Gold.Chemscore.Hbond.Weighted>
-6.3641

> <Gold.Chemscore.Metal.Weighted>
-0.0000

> <Gold.Chemscore.Lipo.Weighted>
-7.9019

> <Gold.Chemscore.Internal_Hbond.Weighted>
0.0000

> <Gold.Chemscore.DEClash.Weighted>
0.0890

> <Gold.Chemscore.DEInternal.Weighted>
1.7836

> <Gold.Chemscore.Rot.Weighted>
5.5881

> <Gold.Chemscore.Internal.Correction.Weighted>
   9.000000E+99

> <Gold.Protein.RotatedTorsions>
[ 6907 6896 6895 6894 ] final   30.60 input  -60.11 | X-H torsion
[ 7974 7965 7964 7962 ] final -119.59 input  175.53 | X-H torsion
[ 8008 7997 7996 7995 ] final  139.79 input   59.86 | X-H torsion
[ 10167 10162 10161 10158 ] final   22.08 input  -65.29 | X-H torsion
[ 10718 10713 10712 10709 ] final -167.80 input   66.30 | X-H torsion
[ 10763 10752 10751 10750 ] final  -87.17 input  -60.55 | X-H torsion
[ 11005 11000 10999 10996 ] final  -78.56 input  -57.11 | X-H torsion

> <Gold.Protein.ActiveResidues>
 VAL166  LYS551  ARG553  GLY616  TRP617  ASP618  TYR619  PRO620  LYS621  CYS622 
 ASP623  PHE694  ASN695  SER759  ASP760  ASP761  ALA762  ILE779  LEU786  VAL792 
 PHE793  MET794  SER795  GLU796  ALA797  LYS798  CYS799  TRP800  GLU811  SER814 

> <Gold.Protein.RotatedAtoms>
  152.0483  134.9669  160.0574 H   0  0  0  0  0  0  0  0  0  0  0  0  # atno 6907 bound_to 6896
  152.1080  133.4280  159.4626 H   0  0  0  0  0  0  0  0  0  0  0  0  # atno 6908 bound_to 6896
  150.6842  134.2601  159.4589 H   0  0  0  0  0  0  0  0  0  0  0  0  # atno 6909 bound_to 6896
  145.0608  140.8288  143.4153 H   0  0  0  0  0  0  0  0  0  0  0  0  # atno 7974 bound_to 7965
  156.2986  140.2358  156.4295 H   0  0  0  0  0  0  0  0  0  0  0  0  # atno 8008 bound_to 7997
  154.8283  140.0434  157.1479 H   0  0  0  0  0  0  0  0  0  0  0  0  # atno 8009 bound_to 7997
  154.9237  140.3007  155.5206 H   0  0  0  0  0  0  0  0  0  0  0  0  # atno 8010 bound_to 7997
  140.5376  143.9733  150.6500 H   0  0  0  0  0  0  0  0  0  0  0  0  # atno 10167 bound_to 10162
  156.6876  130.9146  151.3065 H   0  0  0  0  0  0  0  0  0  0  0  0  # atno 10718 bound_to 10713
  154.6306  135.5423  153.7677 H   0  0  0  0  0  0  0  0  0  0  0  0  # atno 10763 bound_to 10752
  153.0283  135.6435  154.1306 H   0  0  0  0  0  0  0  0  0  0  0  0  # atno 10764 bound_to 10752
  154.1236  135.2919  155.3182 H   0  0  0  0  0  0  0  0  0  0  0  0  # atno 10765 bound_to 10752
  141.1665  133.7068  156.7990 H   0  0  0  0  0  0  0  0  0  0  0  0  # atno 11005 bound_to 11000
  145.1411  139.2571  143.5489 LP  0  0  0  0  0  0  0  0  0  0  0  0  # atno 17320 bound_to 7965
  146.3524  140.1089  142.8605 LP  0  0  0  0  0  0  0  0  0  0  0  0  # atno 17321 bound_to 7965
  140.3125  143.3189  152.0865 LP  0  0  0  0  0  0  0  0  0  0  0  0  # atno 17342 bound_to 10162
  139.4977  144.6627  151.6428 LP  0  0  0  0  0  0  0  0  0  0  0  0  # atno 17343 bound_to 10162
  157.7021  130.9344  150.0816 LP  0  0  0  0  0  0  0  0  0  0  0  0  # atno 17370 bound_to 10713
  156.1821  130.3650  149.9021 LP  0  0  0  0  0  0  0  0  0  0  0  0  # atno 17371 bound_to 10713
  140.2270  134.8714  157.3437 LP  0  0  0  0  0  0  0  0  0  0  0  0  # atno 17394 bound_to 11000
  140.1930  134.4349  155.7705 LP  0  0  0  0  0  0  0  0  0  0  0  0  # atno 17395 bound_to 11000

$$$$
