AV-unprocessed.smi:1350|AV-procd|sdf|5523|dock8
  -GOLD-   22720 5113D 1   1.00000     0.00000
 Structure written by MMmdl.
 44 46  0  0  0  0  0  0  0  0  2 V2000
  154.3477  141.3294  160.8709 C   0  0  0  0  0  0  0  0  0  0  0  0
  153.5554  141.3001  159.6926 O   0  0  0  0  0  0  0  0  0  0  0  0
  152.6901  142.3494  159.4558 C   0  0  0  0  0  0  0  0  0  0  0  0
  152.5632  143.4653  160.3232 C   0  0  0  0  0  0  0  0  0  0  0  0
  151.6714  144.5114  160.0218 C   0  0  0  0  0  0  0  0  0  0  0  0
  150.8979  144.4618  158.8497 C   0  0  0  0  0  0  0  0  0  0  0  0
  151.0123  143.3607  157.9828 C   0  0  0  0  0  0  0  0  0  0  0  0
  151.8950  142.3000  158.2836 C   0  0  0  0  0  0  0  0  0  0  0  0
  152.0114  141.1283  157.3195 C   0  0  0  0  0  0  0  0  0  0  0  0
  151.1467  141.2615  156.2016 O   0  0  0  0  0  0  0  0  0  0  0  0
  151.0083  140.0598  155.4615 C   0  0  0  0  0  0  0  0  0  0  0  0
  149.6371  140.0543  154.7673 C   0  0  1  0  0  0  0  0  0  0  0  0
  149.5809  141.1450  153.8688 O   0  0  0  0  0  0  0  0  0  0  0  0
  149.3894  138.7449  153.9927 C   0  0  0  0  0  0  0  0  0  0  0  0
  147.9607  138.4773  153.7714 N   0  0  0  0  0  0  0  0  0  0  0  0
  147.0199  139.2535  153.1682 C   0  0  0  0  0  0  0  0  0  0  0  0
  145.8396  138.5756  153.2059 N   0  3  0  0  0  0  0  0  0  0  0  0
  146.0283  137.3464  153.8406 C   0  0  0  0  0  0  0  0  0  0  0  0
  145.1326  136.3175  154.1147 C   0  0  0  0  0  0  0  0  0  0  0  0
  145.6515  135.1868  154.7788 C   0  0  0  0  0  0  0  0  0  0  0  0
  147.0114  135.1090  155.1429 C   0  0  0  0  0  0  0  0  0  0  0  0
  147.9105  136.1588  154.8610 C   0  0  0  0  0  0  0  0  0  0  0  0
  147.3898  137.2747  154.2058 C   0  0  0  0  0  0  0  0  0  0  0  0
  154.9602  140.4291  160.9140 H   0  0  0  0  0  0  0  0  0  0  0  0
  153.7277  141.3481  161.7681 H   0  0  0  0  0  0  0  0  0  0  0  0
  155.0217  142.1870  160.8775 H   0  0  0  0  0  0  0  0  0  0  0  0
  153.1434  143.5462  161.2295 H   0  0  0  0  0  0  0  0  0  0  0  0
  151.5846  145.3556  160.6899 H   0  0  0  0  0  0  0  0  0  0  0  0
  150.2181  145.2673  158.6142 H   0  0  0  0  0  0  0  0  0  0  0  0
  150.4162  143.3365  157.0823 H   0  0  0  0  0  0  0  0  0  0  0  0
  153.0475  141.0636  156.9844 H   0  0  0  0  0  0  0  0  0  0  0  0
  151.7757  140.1965  157.8350 H   0  0  0  0  0  0  0  0  0  0  0  0
  151.8187  139.9399  154.7404 H   0  0  0  0  0  0  0  0  0  0  0  0
  151.0690  139.2212  156.1571 H   0  0  0  0  0  0  0  0  0  0  0  0
  148.8506  140.1730  155.5138 H   0  0  0  0  0  0  0  0  0  0  0  0
  149.1656  140.8562  153.0709 H   0  0  0  0  0  0  0  0  0  0  0  0
  149.9150  138.7405  153.0377 H   0  0  0  0  0  0  0  0  0  0  0  0
  149.7829  137.9007  154.5602 H   0  0  0  0  0  0  0  0  0  0  0  0
  147.1810  140.2310  152.7368 H   0  0  0  0  0  0  0  0  0  0  0  0
  144.0907  136.3741  153.8352 H   0  0  0  0  0  0  0  0  0  0  0  0
  144.9938  134.3621  155.0122 H   0  0  0  0  0  0  0  0  0  0  0  0
  147.3732  134.2253  155.6483 H   0  0  0  0  0  0  0  0  0  0  0  0
  148.9503  136.0844  155.1419 H   0  0  0  0  0  0  0  0  0  0  0  0
  144.9713  138.9283  152.8239 H   0  0  0  0  0  0  0  0  0  0  0  0
  1  2  1  0  0  0  0
  1 24  1  0  0  0  0
  1 25  1  0  0  0  0
  1 26  1  0  0  0  0
  2  3  1  0  0  0  0
  3  8  1  0  0  0  0
  3  4  2  0  0  0  0
  4  5  1  0  0  0  0
  4 27  1  0  0  0  0
  5  6  2  0  0  0  0
  5 28  1  0  0  0  0
  6  7  1  0  0  0  0
  6 29  1  0  0  0  0
  7  8  2  0  0  0  0
  7 30  1  0  0  0  0
  8  9  1  0  0  0  0
  9 10  1  0  0  0  0
  9 31  1  0  0  0  0
  9 32  1  0  0  0  0
 10 11  1  0  0  0  0
 11 12  1  0  0  0  0
 11 33  1  0  0  0  0
 11 34  1  0  0  0  0
 12 13  1  0  0  0  0
 12 14  1  0  0  0  0
 12 35  1  0  0  0  0
 13 36  1  0  0  0  0
 14 15  1  0  0  0  0
 14 37  1  0  0  0  0
 14 38  1  0  0  0  0
 15 23  1  0  0  0  0
 15 16  1  0  0  0  0
 16 17  2  0  0  0  0
 16 39  1  0  0  0  0
 17 18  1  0  0  0  0
 17 44  1  0  0  0  0
 18 23  2  0  0  0  0
 18 19  1  0  0  0  0
 19 20  2  0  0  0  0
 19 40  1  0  0  0  0
 20 21  1  0  0  0  0
 20 41  1  0  0  0  0
 21 22  2  0  0  0  0
 21 42  1  0  0  0  0
 22 23  1  0  0  0  0
 22 43  1  0  0  0  0
M  CHG  1  17   1
M  END
> <s_m_source_file>
AV-unprocessed.smi

> <i_m_source_file_index>
1350

> <i_lp_mmshare_version>
43012

> <i_f3d_flags>
0

> <s_epik_input>
W0NIM11PYzFbY0hdW2NIXVtjSF1bY0hdYzFbQ0gyXU9bQ0gyXVtDQEhdKFtPSF0pW0NIMl1uKFtjSF1uMiljKGMyMylbY0hdW2NIXVtjSF1bY0hdMw==

> <s_epik_cmdline>
J2VwaWtfcHl0aG9uJywgJy1waCcsICc3LjAnLCAnLXRuJywgJzgnLCAnLW1hJywgJzIwMCcsICctbWV0YWxfYmluZGluZycsICctaW1hZScsICc8aW5maWxlLm1hZT4nLCAnLW9tYWUnLCAnPG91dGZpbGUubWFlPic=

> <r_lp_tautomer_probability>
1

> <r_epik_Ionization_Penalty>
1.28975

> <r_epik_Ionization_Penalty_Charging>
1.28975

> <r_epik_Ionization_Penalty_Neutral>
1.07667e-06

> <r_epik_State_Penalty>
1.36276

> <r_epik_Charging_Adjusted_Penalty>
2.65251

> <i_epik_Tot_Q>
1

> <i_epik_Tot_abs_Q>
1

> <r_epik_Metal_State_Penalty>
5.39298

> <b_epik_Metal_Only>
0

> <s_lp_Force_Field>
OPLS_2005

> <r_lp_Energy>
25.8807

> <b_lp_Chiralities_Consistent>
1

> <s_lp_Variant>
AV-unprocessed.smi:1350-4

> <Gold.Version>
5.8.1

> <Gold.Id.Protein>
6NUR|6NUR_protein|mol2

> <Gold.PLP.Fitness>
53.4944

> <Gold.PLP.PLP>
-40.7984

> <Gold.PLP.part.hbond>
-3.2384

> <Gold.PLP.part.metal>
0.0000

> <Gold.PLP.part.buried>
-6.3039

> <Gold.PLP.part.nonpolar>
-31.9568

> <Gold.PLP.part.repulsive>
0.0261

> <Gold.PLP.ligand.clash>
0.0000

> <Gold.PLP.ligand.torsion>
0.4555

> <Gold.PLP.Chemscore.Hbond>
3.5600

> <Gold.PLP.Chemscore.CHOScore>
0.9534

> <Gold.PLP.Chemscore.Metal>
0.0000

> <Gold.Chemscore.Hbonds>
donor molecule, donor type, donor heavy atom, donor atom, acceptor molecule, acceptor atom, score
      L1  H    13    36       P1  7957  0.65
      L1  H    17    44       P1 10175  1.98
      P1  H  7989  7998       L1    13  0.15
      L1  C    16    39       P1  7957  0.07

> <Gold.PLP.Chemscore.Internal.Correction>
0.0667

> <Gold.Rescore>
     Score         DG    S(hbond)    S(metal)    S(lipo)     H(rot)  DE(clash)    DE(int)     intcor
     18.66     -19.22       2.40        0.00     108.85       2.74       0.03       0.54       ----

> <Gold.Chemscore.Fitness>
18.6559

> <Gold.Chemscore.DG>
-19.2225

> <Gold.Chemscore.ZeroCoef>
-5.4800

> <Gold.Chemscore.Hbond>
2.4009

> <Gold.Chemscore.Metal>
0.0000

> <Gold.Chemscore.Lipo>
108.8488

> <Gold.Chemscore.Internal_Hbond>
0.0000

> <Gold.Chemscore.DEClash>
0.0293

> <Gold.Chemscore.DEInternal>
0.5374

> <Gold.Chemscore.Rot>
2.7390

> <Gold.Chemscore.Internal.Correction>
   9.000000E+99

> <Gold.Chemscore.Hbonds>
donor molecule, donor type, donor heavy atom, donor atom, acceptor molecule, acceptor atom, score
      L1  H    13    36       P1  7957  0.64
      L1  H    17    44       P1 10175  0.88

> <Gold.Chemscore.Hbond.Weighted>
-8.0190

> <Gold.Chemscore.Metal.Weighted>
-0.0000

> <Gold.Chemscore.Lipo.Weighted>
-12.7353

> <Gold.Chemscore.Internal_Hbond.Weighted>
0.0000

> <Gold.Chemscore.DEClash.Weighted>
0.0293

> <Gold.Chemscore.DEInternal.Weighted>
0.5374

> <Gold.Chemscore.Rot.Weighted>
7.0118

> <Gold.Chemscore.Internal.Correction.Weighted>
   9.000000E+99

> <Gold.Protein.RotatedTorsions>
[ 6907 6896 6895 6894 ] final -156.75 input  -60.11 | X-H torsion
[ 7974 7965 7964 7962 ] final   36.13 input  175.53 | X-H torsion
[ 8008 7997 7996 7995 ] final -146.25 input   59.86 | X-H torsion
[ 10167 10162 10161 10158 ] final -145.48 input  -65.29 | X-H torsion
[ 10718 10713 10712 10709 ] final   58.97 input   66.30 | X-H torsion
[ 10763 10752 10751 10750 ] final -156.31 input  -60.55 | X-H torsion
[ 11005 11000 10999 10996 ] final  139.53 input  -57.11 | X-H torsion

> <Gold.Protein.ActiveResidues>
 VAL166  LYS551  ARG553  GLY616  TRP617  ASP618  TYR619  PRO620  LYS621  CYS622 
 ASP623  PHE694  ASN695  SER759  ASP760  ASP761  ALA762  ILE779  LEU786  VAL792 
 PHE793  MET794  SER795  GLU796  ALA797  LYS798  CYS799  TRP800  GLU811  SER814 

> <Gold.Protein.RotatedAtoms>
  151.2924  133.4159  159.2633 H   0  0  0  0  0  0  0  0  0  0  0  0  # atno 6907 bound_to 6896
  151.0266  134.9509  159.8099 H   0  0  0  0  0  0  0  0  0  0  0  0  # atno 6908 bound_to 6896
  152.5336  134.2885  159.9087 H   0  0  0  0  0  0  0  0  0  0  0  0  # atno 6909 bound_to 6896
  146.1233  139.6056  142.9275 H   0  0  0  0  0  0  0  0  0  0  0  0  # atno 7974 bound_to 7965
  155.5563  140.0621  157.2839 H   0  0  0  0  0  0  0  0  0  0  0  0  # atno 8008 bound_to 7997
  154.4404  140.1893  156.0782 H   0  0  0  0  0  0  0  0  0  0  0  0  # atno 8009 bound_to 7997
  156.0479  140.3288  155.7322 H   0  0  0  0  0  0  0  0  0  0  0  0  # atno 8010 bound_to 7997
  139.7801  143.8113  152.2637 H   0  0  0  0  0  0  0  0  0  0  0  0  # atno 10167 bound_to 10162
  157.5639  130.8856  149.9155 H   0  0  0  0  0  0  0  0  0  0  0  0  # atno 10718 bound_to 10713
  154.7722  135.3148  154.8166 H   0  0  0  0  0  0  0  0  0  0  0  0  # atno 10763 bound_to 10752
  153.8899  135.6826  153.4765 H   0  0  0  0  0  0  0  0  0  0  0  0  # atno 10764 bound_to 10752
  153.1338  135.4768  154.9325 H   0  0  0  0  0  0  0  0  0  0  0  0  # atno 10765 bound_to 10752
  140.0261  134.9374  157.0571 H   0  0  0  0  0  0  0  0  0  0  0  0  # atno 11005 bound_to 11000
  145.5419  141.0420  143.2326 LP  0  0  0  0  0  0  0  0  0  0  0  0  # atno 17320 bound_to 7965
  144.7618  139.6938  143.7231 LP  0  0  0  0  0  0  0  0  0  0  0  0  # atno 17321 bound_to 7965
  139.8173  144.7311  150.9619 LP  0  0  0  0  0  0  0  0  0  0  0  0  # atno 17342 bound_to 10162
  140.7818  143.4193  151.0867 LP  0  0  0  0  0  0  0  0  0  0  0  0  # atno 17343 bound_to 10162
  156.0688  130.3688  150.0819 LP  0  0  0  0  0  0  0  0  0  0  0  0  # atno 17370 bound_to 10713
  156.8980  130.9611  151.3580 LP  0  0  0  0  0  0  0  0  0  0  0  0  # atno 17371 bound_to 10713
  140.4304  134.1786  155.7168 LP  0  0  0  0  0  0  0  0  0  0  0  0  # atno 17394 bound_to 11000
  141.1803  133.8427  157.1279 LP  0  0  0  0  0  0  0  0  0  0  0  0  # atno 17395 bound_to 11000

$$$$
