AV-unprocessed.smi:3299|AV-procd|sdf|12649|dock9
  -GOLD-   2272018583D 1   1.00000     0.00000
 Structure written by MMmdl.
 34 35  0  0  0  0  0  0  0  0  1 V2000
  153.4010  141.7616  161.0070 C   0  0  0  0  0  0  0  0  0  0  0  0
  152.6340  142.7757  160.2179 C   0  0  0  0  0  0  0  0  0  0  0  0
  152.5342  144.1208  160.4795 C   0  0  0  0  0  0  0  0  0  0  0  0
  151.5383  144.9428  159.3089 S   0  0  0  0  0  0  0  0  0  0  0  0
  151.2923  143.3956  158.4963 C   0  0  0  0  0  0  0  0  0  0  0  0
  150.5242  143.1478  157.3320 N   0  0  0  0  0  0  0  0  0  0  0  0
  150.4381  142.0058  156.6309 C   0  0  0  0  0  0  0  0  0  0  0  0
  151.0235  140.9589  156.9061 O   0  0  0  0  0  0  0  0  0  0  0  0
  149.6241  142.1503  155.5730 N   0  0  0  0  0  0  0  0  0  0  0  0
  149.2807  141.1321  154.5778 C   0  0  1  0  0  0  0  0  0  0  0  0
  149.2116  139.7150  155.1917 C   0  0  0  0  0  0  0  0  0  0  0  0
  149.9214  138.6357  154.3575 C   0  0  0  0  0  0  0  0  0  0  0  0
  148.9754  137.7089  153.8697 O   0  0  0  0  0  0  0  0  0  0  0  0
  148.0330  141.4449  153.7647 C   0  0  0  0  0  0  0  0  0  0  0  0
  146.6557  141.2760  154.3601 C   0  0  0  0  0  0  0  0  0  0  0  0
  147.1276  140.3448  153.2655 C   0  0  0  0  0  0  0  0  0  0  0  0
  151.9200  142.3753  159.0836 N   0  0  0  0  0  0  0  0  0  0  0  0
  154.0301  142.2355  161.7609 H   0  0  0  0  0  0  0  0  0  0  0  0
  154.0505  141.1688  160.3627 H   0  0  0  0  0  0  0  0  0  0  0  0
  152.7289  141.0752  161.5224 H   0  0  0  0  0  0  0  0  0  0  0  0
  152.9848  144.6769  161.2882 H   0  0  0  0  0  0  0  0  0  0  0  0
  149.9858  143.9307  156.9921 H   0  0  0  0  0  0  0  0  0  0  0  0
  149.1949  143.0547  155.4422 H   0  0  0  0  0  0  0  0  0  0  0  0
  150.1183  141.1332  153.8791 H   0  0  0  0  0  0  0  0  0  0  0  0
  149.6248  139.7236  156.2011 H   0  0  0  0  0  0  0  0  0  0  0  0
  148.1632  139.4352  155.3042 H   0  0  0  0  0  0  0  0  0  0  0  0
  150.4460  139.0842  153.5135 H   0  0  0  0  0  0  0  0  0  0  0  0
  150.6581  138.0983  154.9548 H   0  0  0  0  0  0  0  0  0  0  0  0
  148.1100  138.0662  153.9980 H   0  0  0  0  0  0  0  0  0  0  0  0
  148.1451  142.2999  153.1007 H   0  0  0  0  0  0  0  0  0  0  0  0
  146.5832  140.8703  155.3672 H   0  0  0  0  0  0  0  0  0  0  0  0
  145.9031  142.0179  154.1008 H   0  0  0  0  0  0  0  0  0  0  0  0
  146.6903  140.4664  152.2766 H   0  0  0  0  0  0  0  0  0  0  0  0
  147.3684  139.3214  153.5463 H   0  0  0  0  0  0  0  0  0  0  0  0
  1  2  1  0  0  0  0
  1 18  1  0  0  0  0
  1 19  1  0  0  0  0
  1 20  1  0  0  0  0
  2 17  1  0  0  0  0
  2  3  2  0  0  0  0
  3  4  1  0  0  0  0
  3 21  1  0  0  0  0
  4  5  1  0  0  0  0
  5  6  1  0  0  0  0
  5 17  2  0  0  0  0
  6  7  1  0  0  0  0
  6 22  1  0  0  0  0
  7  8  2  0  0  0  0
  7  9  1  0  0  0  0
  9 10  1  0  0  0  0
  9 23  1  0  0  0  0
 10 11  1  0  0  0  0
 10 14  1  0  0  0  0
 10 24  1  0  0  0  0
 11 12  1  0  0  0  0
 11 25  1  0  0  0  0
 11 26  1  0  0  0  0
 12 13  1  0  0  0  0
 12 27  1  0  0  0  0
 12 28  1  0  0  0  0
 13 29  1  0  0  0  0
 14 16  1  0  0  0  0
 14 15  1  0  0  0  0
 14 30  1  0  0  0  0
 15 16  1  0  0  0  0
 15 31  1  0  0  0  0
 15 32  1  0  0  0  0
 16 33  1  0  0  0  0
 16 34  1  0  0  0  0
M  END
> <s_m_source_file>
AV-unprocessed.smi

> <i_m_source_file_index>
3299

> <i_lp_mmshare_version>
43012

> <i_f3d_flags>
0

> <s_epik_input>
W0NIM11jMVtjSF1zYyhuMSlbTkhdQyg9TylbTkhdW0NASF0oW0NIMl1bQ0gyXVtPSF0pW0NIXTJbQ0gyXVtDSDJdMg==

> <s_epik_cmdline>
J2VwaWtfcHl0aG9uJywgJy1waCcsICc3LjAnLCAnLXRuJywgJzgnLCAnLW1hJywgJzIwMCcsICctbWV0YWxfYmluZGluZycsICctaW1hZScsICc8aW5maWxlLm1hZT4nLCAnLW9tYWUnLCAnPG91dGZpbGUubWFlPic=

> <r_lp_tautomer_probability>
0.999

> <r_epik_Ionization_Penalty>
0.000568872

> <r_epik_Ionization_Penalty_Charging>
0

> <r_epik_Ionization_Penalty_Neutral>
0.000568872

> <r_epik_State_Penalty>
0.000177984

> <r_epik_Charging_Adjusted_Penalty>
0.000177984

> <i_epik_Tot_Q>
0

> <i_epik_Tot_abs_Q>
0

> <r_epik_Metal_State_Penalty>
-0

> <b_epik_Metal_Only>
0

> <s_lp_Force_Field>
OPLS_2005

> <r_lp_Energy>
11.9184

> <b_lp_Chiralities_Consistent>
1

> <s_lp_Variant>
AV-unprocessed.smi:3299-2

> <Gold.Version>
5.8.1

> <Gold.Id.Protein>
6NUR|6NUR_protein|mol2

> <Gold.PLP.Fitness>
42.7376

> <Gold.PLP.PLP>
-39.2301

> <Gold.PLP.part.hbond>
-2.7987

> <Gold.PLP.part.metal>
0.0000

> <Gold.PLP.part.buried>
-5.6089

> <Gold.PLP.part.nonpolar>
-31.0763

> <Gold.PLP.part.repulsive>
0.1978

> <Gold.PLP.ligand.clash>
0.0000

> <Gold.PLP.ligand.torsion>
1.8194

> <Gold.PLP.Chemscore.Hbond>
1.9920

> <Gold.PLP.Chemscore.CHOScore>
0.0000

> <Gold.PLP.Chemscore.Metal>
0.0000

> <Gold.Chemscore.Hbonds>
donor molecule, donor type, donor heavy atom, donor atom, acceptor molecule, acceptor atom, score
      L1  H     6    22       P1  8028  1.00
      L1  H     9    23       P1  8028  1.00

> <Gold.PLP.Chemscore.Internal.Correction>
1.1704

> <Gold.Rescore>
     Score         DG    S(hbond)    S(metal)    S(lipo)     H(rot)  DE(clash)    DE(int)     intcor
     11.79     -16.51       1.94        0.00      91.19       2.39       0.18       4.53       ----

> <Gold.Chemscore.Fitness>
11.7949

> <Gold.Chemscore.DG>
-16.5072

> <Gold.Chemscore.ZeroCoef>
-5.4800

> <Gold.Chemscore.Hbond>
1.9404

> <Gold.Chemscore.Metal>
0.0000

> <Gold.Chemscore.Lipo>
91.1894

> <Gold.Chemscore.Internal_Hbond>
0.0000

> <Gold.Chemscore.DEClash>
0.1842

> <Gold.Chemscore.DEInternal>
4.5282

> <Gold.Chemscore.Rot>
2.3917

> <Gold.Chemscore.Internal.Correction>
   9.000000E+99

> <Gold.Chemscore.Hbonds>
donor molecule, donor type, donor heavy atom, donor atom, acceptor molecule, acceptor atom, score
      L1  H     6    22       P1  8028  0.91
      L1  H     9    23       P1  8028  1.00

> <Gold.Chemscore.Hbond.Weighted>
-6.4809

> <Gold.Chemscore.Metal.Weighted>
-0.0000

> <Gold.Chemscore.Lipo.Weighted>
-10.6692

> <Gold.Chemscore.Internal_Hbond.Weighted>
0.0000

> <Gold.Chemscore.DEClash.Weighted>
0.1842

> <Gold.Chemscore.DEInternal.Weighted>
4.5282

> <Gold.Chemscore.Rot.Weighted>
6.1228

> <Gold.Chemscore.Internal.Correction.Weighted>
   9.000000E+99

> <Gold.Protein.RotatedTorsions>
[ 6907 6896 6895 6894 ] final  -50.20 input  -60.11 | X-H torsion
[ 7974 7965 7964 7962 ] final -152.82 input  175.53 | X-H torsion
[ 8008 7997 7996 7995 ] final  -60.40 input   59.86 | X-H torsion
[ 10167 10162 10161 10158 ] final -100.42 input  -65.29 | X-H torsion
[ 10718 10713 10712 10709 ] final   38.54 input   66.30 | X-H torsion
[ 10763 10752 10751 10750 ] final   54.06 input  -60.55 | X-H torsion
[ 11005 11000 10999 10996 ] final -103.42 input  -57.11 | X-H torsion

> <Gold.Protein.ActiveResidues>
 VAL166  LYS551  ARG553  GLY616  TRP617  ASP618  TYR619  PRO620  LYS621  CYS622 
 ASP623  PHE694  ASN695  SER759  ASP760  ASP761  ALA762  ILE779  LEU786  VAL792 
 PHE793  MET794  SER795  GLU796  ALA797  LYS798  CYS799  TRP800  GLU811  SER814 

> <Gold.Protein.RotatedAtoms>
  150.8730  134.8108  159.7168 H   0  0  0  0  0  0  0  0  0  0  0  0  # atno 6907 bound_to 6896
  152.4728  134.4916  159.9707 H   0  0  0  0  0  0  0  0  0  0  0  0  # atno 6908 bound_to 6896
  151.5002  133.3467  159.2903 H   0  0  0  0  0  0  0  0  0  0  0  0  # atno 6909 bound_to 6896
  144.7773  140.4609  143.5864 H   0  0  0  0  0  0  0  0  0  0  0  0  # atno 7974 bound_to 7965
  154.4397  140.1040  156.6268 H   0  0  0  0  0  0  0  0  0  0  0  0  # atno 8008 bound_to 7997
  155.5648  140.3488  155.4481 H   0  0  0  0  0  0  0  0  0  0  0  0  # atno 8009 bound_to 7997
  156.0433  140.1287  157.0120 H   0  0  0  0  0  0  0  0  0  0  0  0  # atno 8010 bound_to 7997
  140.2521  143.3465  152.0705 H   0  0  0  0  0  0  0  0  0  0  0  0  # atno 10167 bound_to 10162
  157.3600  130.7644  149.7041 H   0  0  0  0  0  0  0  0  0  0  0  0  # atno 10718 bound_to 10713
  152.9801  135.5758  154.4842 H   0  0  0  0  0  0  0  0  0  0  0  0  # atno 10763 bound_to 10752
  154.4387  135.2775  155.1865 H   0  0  0  0  0  0  0  0  0  0  0  0  # atno 10764 bound_to 10752
  154.3542  135.6202  153.5712 H   0  0  0  0  0  0  0  0  0  0  0  0  # atno 10765 bound_to 10752
  141.1146  133.8639  157.1484 H   0  0  0  0  0  0  0  0  0  0  0  0  # atno 11005 bound_to 11000
  145.6149  139.1517  143.3055 LP  0  0  0  0  0  0  0  0  0  0  0  0  # atno 17320 bound_to 7965
  146.1961  140.6263  142.9123 LP  0  0  0  0  0  0  0  0  0  0  0  0  # atno 17321 bound_to 7965
  139.5043  144.6773  151.6097 LP  0  0  0  0  0  0  0  0  0  0  0  0  # atno 17342 bound_to 10162
  140.6033  143.9571  150.6401 LP  0  0  0  0  0  0  0  0  0  0  0  0  # atno 17343 bound_to 10162
  155.9736  130.4116  150.3991 LP  0  0  0  0  0  0  0  0  0  0  0  0  # atno 17370 bound_to 10713
  157.2067  131.0451  151.2621 LP  0  0  0  0  0  0  0  0  0  0  0  0  # atno 17371 bound_to 10713
  140.0061  135.0008  157.0294 LP  0  0  0  0  0  0  0  0  0  0  0  0  # atno 17394 bound_to 11000
  140.4681  134.1415  155.7199 LP  0  0  0  0  0  0  0  0  0  0  0  0  # atno 17395 bound_to 11000

$$$$
