AV-unprocessed.smi:157|AV-procd|sdf|1308|dock2
  -GOLD-   2262018593D 1   1.00000     0.00000
 Structure written by MMmdl.
 36 38  0  0  0  0  0  0  0  0  2 V2000
  155.2154  138.1346  154.6849 O   0  0  0  0  0  0  0  0  0  0  0  0
  153.9740  137.4772  154.8259 C   0  0  0  0  0  0  0  0  0  0  0  0
  152.8338  138.5059  154.9176 C   0  0  2  0  0  0  0  0  0  0  0  0
  152.7961  139.1171  156.2065 O   0  0  0  0  0  0  0  0  0  0  0  0
  151.4741  139.3293  156.6010 C   0  0  1  0  0  0  0  0  0  0  0  0
  151.3267  140.7523  157.0357 N   0  0  0  0  0  0  0  0  0  0  0  0
  150.5708  141.6802  156.4139 C   0  0  0  0  0  0  0  0  0  0  0  0
  150.5824  142.8704  156.9895 N   0  3  0  0  0  0  0  0  0  0  0  0
  151.3990  142.7619  158.0948 C   0  0  0  0  0  0  0  0  0  0  0  0
  151.8595  141.4425  158.1038 C   0  0  0  0  0  0  0  0  0  0  0  0
  152.7204  140.8025  159.0089 N   0  0  0  0  0  0  0  0  0  0  0  0
  153.4700  141.4428  159.8458 C   0  0  0  0  0  0  0  0  0  0  0  0
  153.5303  142.8025  160.1012 N   0  0  0  0  0  0  0  0  0  0  0  0
  152.3484  143.6238  160.2928 C   0  0  0  0  0  0  0  0  0  0  0  0
  151.6036  143.9439  158.9903 C   0  0  1  0  0  0  0  0  0  0  0  0
  152.2676  145.0079  158.3403 O   0  0  0  0  0  0  0  0  0  0  0  0
  150.5760  139.0191  155.4021 C   0  0  0  0  0  0  0  0  0  0  0  0
  151.4073  137.9906  154.6647 C   0  0  2  0  0  0  0  0  0  0  0  0
  151.1933  136.6990  155.2027 O   0  0  0  0  0  0  0  0  0  0  0  0
  153.0324  139.3115  154.2089 H   0  0  0  0  0  0  0  0  0  0  0  0
  151.2461  138.7217  157.4780 H   0  0  0  0  0  0  0  0  0  0  0  0
  150.6189  144.3266  159.2608 H   0  0  0  0  0  0  0  0  0  0  0  0
  151.1705  137.9640  153.6007 H   0  0  0  0  0  0  0  0  0  0  0  0
  155.5472  137.9667  153.8159 H   0  0  0  0  0  0  0  0  0  0  0  0
  153.8257  136.7835  153.9980 H   0  0  0  0  0  0  0  0  0  0  0  0
  154.0064  136.8796  155.7372 H   0  0  0  0  0  0  0  0  0  0  0  0
  150.0054  141.4643  155.5250 H   0  0  0  0  0  0  0  0  0  0  0  0
  154.1663  140.8788  160.4682 H   0  0  0  0  0  0  0  0  0  0  0  0
  154.3176  143.1615  160.6226 H   0  0  0  0  0  0  0  0  0  0  0  0
  151.6773  143.0792  160.9588 H   0  0  0  0  0  0  0  0  0  0  0  0
  152.6187  144.5397  160.8195 H   0  0  0  0  0  0  0  0  0  0  0  0
  151.9894  145.0335  157.4378 H   0  0  0  0  0  0  0  0  0  0  0  0
  149.5934  138.6669  155.7179 H   0  0  0  0  0  0  0  0  0  0  0  0
  150.4507  139.9103  154.7860 H   0  0  0  0  0  0  0  0  0  0  0  0
  150.5463  136.7647  155.8888 H   0  0  0  0  0  0  0  0  0  0  0  0
  150.0792  143.6927  156.6811 H   0  0  0  0  0  0  0  0  0  0  0  0
  1  2  1  0  0  0  0
  1 24  1  0  0  0  0
  2  3  1  0  0  0  0
  2 25  1  0  0  0  0
  2 26  1  0  0  0  0
  3 20  1  0  0  0  0
  3 18  1  0  0  0  0
  3  4  1  0  0  0  0
  4  5  1  0  0  0  0
  5 21  1  0  0  0  0
  5  6  1  0  0  0  0
  5 17  1  0  0  0  0
  6 10  1  0  0  0  0
  6  7  1  0  0  0  0
  7  8  2  0  0  0  0
  7 27  1  0  0  0  0
  8  9  1  0  0  0  0
  8 36  1  0  0  0  0
  9 15  1  0  0  0  0
  9 10  2  0  0  0  0
 10 11  1  0  0  0  0
 11 12  2  0  0  0  0
 12 13  1  0  0  0  0
 12 28  1  0  0  0  0
 13 14  1  0  0  0  0
 13 29  1  0  0  0  0
 14 15  1  0  0  0  0
 14 30  1  0  0  0  0
 14 31  1  0  0  0  0
 15 22  1  0  0  0  0
 15 16  1  0  0  0  0
 16 32  1  0  0  0  0
 17 18  1  0  0  0  0
 17 33  1  0  0  0  0
 17 34  1  0  0  0  0
 18 23  1  0  0  0  0
 18 19  1  0  0  0  0
 19 35  1  0  0  0  0
M  CHG  1   8   1
M  END
> <s_m_source_file>
AV-unprocessed.smi

> <i_m_source_file_index>
157

> <i_lp_mmshare_version>
43012

> <i_f3d_flags>
0

> <s_epik_input>
W09IXVtDSDJdW0NASF0xT1tDQEhdKFtDSDJdW0NAQEhdMVtPSF0pbihbY0hdbjIpYyhjMjMpTj1bQ0hdW05IXVtDSDJdW0NASF0zW09IXQ==

> <s_epik_cmdline>
J2VwaWtfcHl0aG9uJywgJy1waCcsICc3LjAnLCAnLXRuJywgJzgnLCAnLW1hJywgJzIwMCcsICctbWV0YWxfYmluZGluZycsICctaW1hZScsICc8aW5maWxlLm1hZT4nLCAnLW9tYWUnLCAnPG91dGZpbGUubWFlPic=

> <r_epik_Ionization_Penalty>
1.68594

> <r_epik_Ionization_Penalty_Charging>
0

> <r_epik_Ionization_Penalty_Neutral>
1.68594

> <r_epik_State_Penalty>
1.79006

> <r_epik_Charging_Adjusted_Penalty>
1.79006

> <i_epik_Tot_Q>
1

> <i_epik_Tot_abs_Q>
1

> <r_epik_Metal_State_Penalty>
5.85324

> <b_epik_Metal_Only>
0

> <s_epik_Chemistry_Notes>
This compound has an imine and may undergo hydrolysis. This compound contains an acetal/aminal-like group ( X-CH(R)-Y where X, Y are N, S, or O) that may be acid/base labile, releasing an aldehyde.

> <s_lp_Force_Field>
OPLS_2005

> <r_lp_Energy>
54.692

> <b_lp_Chiralities_Consistent>
1

> <s_lp_Variant>
AV-unprocessed.smi:157-18

> <Gold.Version>
5.8.1

> <Gold.Id.Protein>
6NUR|6NUR_protein|mol2

> <Gold.PLP.Fitness>
50.1246

> <Gold.PLP.PLP>
-36.7716

> <Gold.PLP.part.hbond>
-4.2951

> <Gold.PLP.part.metal>
0.0000

> <Gold.PLP.part.buried>
-4.9113

> <Gold.PLP.part.nonpolar>
-28.4500

> <Gold.PLP.part.repulsive>
0.0647

> <Gold.PLP.ligand.clash>
0.0000

> <Gold.PLP.ligand.torsion>
0.1894

> <Gold.PLP.Chemscore.Hbond>
4.5760

> <Gold.PLP.Chemscore.CHOScore>
0.0000

> <Gold.PLP.Chemscore.Metal>
0.0000

> <Gold.Chemscore.Hbonds>
donor molecule, donor type, donor heavy atom, donor atom, acceptor molecule, acceptor atom, score
      L1  H     8    36       P1  8028  2.00
      P1  H  7997  8009       L1     4  1.00
      P1  H  7997  8010       L1     1  0.07
      P1  H 10752 10764       L1    19  0.49

> <Gold.PLP.Chemscore.Internal.Correction>
0.0040

> <Gold.Rescore>
     Score         DG    S(hbond)    S(metal)    S(lipo)     H(rot)  DE(clash)    DE(int)     intcor
     12.57     -14.53       3.12        0.00      68.46       3.67       1.81       0.14       ----

> <Gold.Chemscore.Fitness>
12.5736

> <Gold.Chemscore.DG>
-14.5259

> <Gold.Chemscore.ZeroCoef>
-5.4800

> <Gold.Chemscore.Hbond>
3.1199

> <Gold.Chemscore.Metal>
0.0000

> <Gold.Chemscore.Lipo>
68.4635

> <Gold.Chemscore.Internal_Hbond>
0.0000

> <Gold.Chemscore.DEClash>
1.8144

> <Gold.Chemscore.DEInternal>
0.1380

> <Gold.Chemscore.Rot>
3.6659

> <Gold.Chemscore.Internal.Correction>
   9.000000E+99

> <Gold.Chemscore.Hbonds>
donor molecule, donor type, donor heavy atom, donor atom, acceptor molecule, acceptor atom, score
      L1  H     8    36       P1  8028  0.99
      P1  H  7997  8009       L1     4  0.74
      P1  H  7997  8010       L1     1  0.07
      P1  H 10752 10764       L1    19  0.11

> <Gold.Chemscore.Hbond.Weighted>
-10.4205

> <Gold.Chemscore.Metal.Weighted>
-0.0000

> <Gold.Chemscore.Lipo.Weighted>
-8.0102

> <Gold.Chemscore.Internal_Hbond.Weighted>
0.0000

> <Gold.Chemscore.DEClash.Weighted>
1.8144

> <Gold.Chemscore.DEInternal.Weighted>
0.1380

> <Gold.Chemscore.Rot.Weighted>
9.3848

> <Gold.Chemscore.Internal.Correction.Weighted>
   9.000000E+99

> <Gold.Protein.RotatedTorsions>
[ 6907 6896 6895 6894 ] final  -82.74 input  -60.11 | X-H torsion
[ 7974 7965 7964 7962 ] final   67.41 input  175.53 | X-H torsion
[ 8008 7997 7996 7995 ] final -173.71 input   59.86 | X-H torsion
[ 10167 10162 10161 10158 ] final  -51.37 input  -65.29 | X-H torsion
[ 10718 10713 10712 10709 ] final  -26.13 input   66.30 | X-H torsion
[ 10763 10752 10751 10750 ] final  -77.94 input  -60.55 | X-H torsion
[ 11005 11000 10999 10996 ] final   56.75 input  -57.11 | X-H torsion

> <Gold.Protein.ActiveResidues>
 VAL166  LYS551  ARG553  GLY616  TRP617  ASP618  TYR619  PRO620  LYS621  CYS622 
 ASP623  PHE694  ASN695  SER759  ASP760  ASP761  ALA762  ILE779  LEU786  VAL792 
 PHE793  MET794  SER795  GLU796  ALA797  LYS798  CYS799  TRP800  GLU811  SER814 

> <Gold.Protein.RotatedAtoms>
  150.6893  134.3619  159.4953 H   0  0  0  0  0  0  0  0  0  0  0  0  # atno 6907 bound_to 6896
  152.1446  134.9033  160.0561 H   0  0  0  0  0  0  0  0  0  0  0  0  # atno 6908 bound_to 6896
  152.0153  133.3842  159.4273 H   0  0  0  0  0  0  0  0  0  0  0  0  # atno 6909 bound_to 6896
  145.8150  139.3053  143.1077 H   0  0  0  0  0  0  0  0  0  0  0  0  # atno 7974 bound_to 7965
  155.9609  140.1144  157.0896 H   0  0  0  0  0  0  0  0  0  0  0  0  # atno 8008 bound_to 7997
  154.4132  140.1182  156.5245 H   0  0  0  0  0  0  0  0  0  0  0  0  # atno 8009 bound_to 7997
  155.6721  140.3473  155.4825 H   0  0  0  0  0  0  0  0  0  0  0  0  # atno 8010 bound_to 7997
  140.6591  143.2622  151.4494 H   0  0  0  0  0  0  0  0  0  0  0  0  # atno 10167 bound_to 10162
  156.4553  130.4492  149.6963 H   0  0  0  0  0  0  0  0  0  0  0  0  # atno 10718 bound_to 10713
  154.5195  135.5747  153.6669 H   0  0  0  0  0  0  0  0  0  0  0  0  # atno 10763 bound_to 10752
  152.9914  135.6178  154.2773 H   0  0  0  0  0  0  0  0  0  0  0  0  # atno 10764 bound_to 10752
  154.2693  135.2854  155.2724 H   0  0  0  0  0  0  0  0  0  0  0  0  # atno 10765 bound_to 10752
  140.0505  134.5744  155.9270 H   0  0  0  0  0  0  0  0  0  0  0  0  # atno 11005 bound_to 11000
  145.9736  140.8740  143.0150 LP  0  0  0  0  0  0  0  0  0  0  0  0  # atno 17320 bound_to 7965
  144.6753  140.1981  143.7390 LP  0  0  0  0  0  0  0  0  0  0  0  0  # atno 17321 bound_to 7965
  139.5821  144.1687  152.1981 LP  0  0  0  0  0  0  0  0  0  0  0  0  # atno 17342 bound_to 10162
  140.1015  144.5535  150.6985 LP  0  0  0  0  0  0  0  0  0  0  0  0  # atno 17343 bound_to 10162
  156.3773  130.7561  151.2551 LP  0  0  0  0  0  0  0  0  0  0  0  0  # atno 17370 bound_to 10713
  157.7501  131.0305  150.4143 LP  0  0  0  0  0  0  0  0  0  0  0  0  # atno 17371 bound_to 10713
  141.1928  133.6576  156.5517 LP  0  0  0  0  0  0  0  0  0  0  0  0  # atno 17394 bound_to 11000
  140.3925  134.7427  157.4730 LP  0  0  0  0  0  0  0  0  0  0  0  0  # atno 17395 bound_to 11000

$$$$
