AV-unprocessed.smi:280|AV-procd|sdf|2100|dock5
  -GOLD-   2262021393D 1   1.00000     0.00000
 Structure written by MMmdl.
 59 62  0  0  0  0  0  0  0  0  2 V2000
  149.6766  133.6571  155.0433 C   0  0  0  0  0  0  0  0  0  0  0  0
  149.0674  135.0040  155.4851 C   0  0  1  0  0  0  0  0  0  0  0  0
  150.2242  136.0144  155.6627 C   0  0  0  0  0  0  0  0  0  0  0  0
  149.7446  137.3604  155.9501 N   0  0  0  0  0  0  0  0  0  0  0  0
  150.6922  138.2164  156.4116 C   0  0  0  0  0  0  0  0  0  0  0  0
  151.9105  137.7421  156.7863 N   0  0  0  0  0  0  0  0  0  0  0  0
  152.8488  138.5765  157.2435 C   0  0  0  0  0  0  0  0  0  0  0  0
  152.7817  139.8993  157.4028 N   0  0  0  0  0  0  0  0  0  0  0  0
  151.5645  140.3836  157.0246 C   0  0  0  0  0  0  0  0  0  0  0  0
  150.4732  139.6187  156.5236 C   0  0  0  0  0  0  0  0  0  0  0  0
  149.4040  140.4570  156.2315 N   0  0  0  0  0  0  0  0  0  0  0  0
  149.8363  141.6475  156.5462 C   0  0  0  0  0  0  0  0  0  0  0  0
  151.1210  141.6953  157.0392 N   0  0  0  0  0  0  0  0  0  0  0  0
  151.8517  142.8828  157.4569 C   0  0  0  0  0  0  0  0  0  0  0  0
  152.2474  142.8802  158.9472 C   0  0  0  0  0  0  0  0  0  0  0  0
  151.8623  144.2152  159.6082 C   0  0  0  0  0  0  0  0  0  0  0  0
  152.1767  144.2156  160.9860 O   0  0  0  0  0  0  0  0  0  0  0  0
  151.8573  141.6272  159.7432 C   0  0  0  0  0  0  0  0  0  0  0  0
  153.2009  141.4545  160.2419 O   0  0  0  0  0  0  0  0  0  0  0  0
  153.6728  142.4040  159.2628 C   0  0  0  0  0  0  0  0  0  0  0  0
  148.7887  137.8657  154.9732 C   0  0  0  0  0  0  0  0  0  0  0  0
  147.6023  136.9042  154.8512 C   0  0  0  0  0  0  0  0  0  0  0  0
  148.0352  135.5168  154.5284 N   0  3  2  0  0  0  0  0  0  0  0  0
  146.8564  134.6202  154.3405 C   0  0  0  0  0  0  0  0  0  0  0  0
  146.7826  134.0072  152.9203 C   0  0  0  0  0  0  0  0  0  0  0  0
  147.9694  133.0783  152.6079 C   0  0  0  0  0  0  0  0  0  0  0  0
  145.4565  133.2483  152.7424 C   0  0  0  0  0  0  0  0  0  0  0  0
  146.7786  135.0510  151.9665 O   0  0  0  0  0  0  0  0  0  0  0  0
  150.4637  133.3482  155.7318 H   0  0  0  0  0  0  0  0  0  0  0  0
  150.1258  133.7320  154.0528 H   0  0  0  0  0  0  0  0  0  0  0  0
  148.9538  132.8434  155.0209 H   0  0  0  0  0  0  0  0  0  0  0  0
  148.5826  134.8685  156.4536 H   0  0  0  0  0  0  0  0  0  0  0  0
  150.8924  135.6608  156.4473 H   0  0  0  0  0  0  0  0  0  0  0  0
  150.8193  136.0584  154.7492 H   0  0  0  0  0  0  0  0  0  0  0  0
  153.7875  138.1192  157.5197 H   0  0  0  0  0  0  0  0  0  0  0  0
  149.2244  142.5290  156.4219 H   0  0  0  0  0  0  0  0  0  0  0  0
  152.7323  142.9907  156.8230 H   0  0  0  0  0  0  0  0  0  0  0  0
  151.2261  143.7475  157.2318 H   0  0  0  0  0  0  0  0  0  0  0  0
  152.4006  145.0423  159.1443 H   0  0  0  0  0  0  0  0  0  0  0  0
  150.8027  144.4374  159.4829 H   0  0  0  0  0  0  0  0  0  0  0  0
  152.5127  145.0678  161.2185 H   0  0  0  0  0  0  0  0  0  0  0  0
  151.1349  141.8104  160.5397 H   0  0  0  0  0  0  0  0  0  0  0  0
  151.5449  140.7864  159.1218 H   0  0  0  0  0  0  0  0  0  0  0  0
  154.1720  141.9033  158.4321 H   0  0  0  0  0  0  0  0  0  0  0  0
  154.3137  143.1727  159.6964 H   0  0  0  0  0  0  0  0  0  0  0  0
  148.4278  138.8509  155.2724 H   0  0  0  0  0  0  0  0  0  0  0  0
  149.2804  137.9795  154.0059 H   0  0  0  0  0  0  0  0  0  0  0  0
  147.0477  136.8978  155.7912 H   0  0  0  0  0  0  0  0  0  0  0  0
  146.9196  137.2725  154.0855 H   0  0  0  0  0  0  0  0  0  0  0  0
  146.8536  133.8161  155.0738 H   0  0  0  0  0  0  0  0  0  0  0  0
  145.9351  135.1671  154.5501 H   0  0  0  0  0  0  0  0  0  0  0  0
  148.0192  132.2512  153.3166 H   0  0  0  0  0  0  0  0  0  0  0  0
  148.9212  133.6085  152.6471 H   0  0  0  0  0  0  0  0  0  0  0  0
  147.8820  132.6477  151.6096 H   0  0  0  0  0  0  0  0  0  0  0  0
  145.3834  132.4148  153.4418 H   0  0  0  0  0  0  0  0  0  0  0  0
  145.3611  132.8395  151.7355 H   0  0  0  0  0  0  0  0  0  0  0  0
  144.5977  133.8982  152.9152 H   0  0  0  0  0  0  0  0  0  0  0  0
  147.6736  135.2580  151.7422 H   0  0  0  0  0  0  0  0  0  0  0  0
  148.4944  135.5668  153.6301 H   0  0  0  0  0  0  0  0  0  0  0  0
  1  2  1  0  0  0  0
  1 29  1  0  0  0  0
  1 30  1  0  0  0  0
  1 31  1  0  0  0  0
  2 23  1  0  0  0  0
  2  3  1  0  0  0  0
  2 32  1  0  0  0  0
  3  4  1  0  0  0  0
  3 33  1  0  0  0  0
  3 34  1  0  0  0  0
  4  5  1  0  0  0  0
  4 21  1  0  0  0  0
  5 10  1  0  0  0  0
  5  6  2  0  0  0  0
  6  7  1  0  0  0  0
  7  8  2  0  0  0  0
  7 35  1  0  0  0  0
  8  9  1  0  0  0  0
  9 13  1  0  0  0  0
  9 10  2  0  0  0  0
 10 11  1  0  0  0  0
 11 12  2  0  0  0  0
 12 13  1  0  0  0  0
 12 36  1  0  0  0  0
 13 14  1  0  0  0  0
 14 15  1  0  0  0  0
 14 37  1  0  0  0  0
 14 38  1  0  0  0  0
 15 20  1  0  0  0  0
 15 16  1  0  0  0  0
 15 18  1  0  0  0  0
 16 17  1  0  0  0  0
 16 39  1  0  0  0  0
 16 40  1  0  0  0  0
 17 41  1  0  0  0  0
 18 19  1  0  0  0  0
 18 42  1  0  0  0  0
 18 43  1  0  0  0  0
 19 20  1  0  0  0  0
 20 44  1  0  0  0  0
 20 45  1  0  0  0  0
 21 22  1  0  0  0  0
 21 46  1  0  0  0  0
 21 47  1  0  0  0  0
 22 23  1  0  0  0  0
 22 48  1  0  0  0  0
 22 49  1  0  0  0  0
 23 24  1  0  0  0  0
 23 59  1  0  0  0  0
 24 25  1  0  0  0  0
 24 50  1  0  0  0  0
 24 51  1  0  0  0  0
 25 26  1  0  0  0  0
 25 27  1  0  0  0  0
 25 28  1  0  0  0  0
 26 52  1  0  0  0  0
 26 53  1  0  0  0  0
 26 54  1  0  0  0  0
 27 55  1  0  0  0  0
 27 56  1  0  0  0  0
 27 57  1  0  0  0  0
 28 58  1  0  0  0  0
M  CHG  1  23   1
M  END
> <s_m_source_file>
AV-unprocessed.smi

> <i_m_source_file_index>
280

> <i_lp_mmshare_version>
43012

> <i_f3d_flags>
0

> <s_epik_input>
W0NIM11DKFtDSDNdKShbT0hdKVtDSDJdTjFbQ0gyXVtDSDJdTihbQ0gyXVtDQEhdMVtDSDNdKWMobltjSF1uMiljKGMyMyluW2NIXW4zW0NIMl1DNChbQ0gyXVtPSF0pW0NIMl1PW0NIMl00

> <s_epik_cmdline>
J2VwaWtfcHl0aG9uJywgJy1waCcsICc3LjAnLCAnLXRuJywgJzgnLCAnLW1hJywgJzIwMCcsICctbWV0YWxfYmluZGluZycsICctaW1hZScsICc8aW5maWxlLm1hZT4nLCAnLW9tYWUnLCAnPG91dGZpbGUubWFlPic=

> <r_lp_tautomer_probability>
1

> <r_epik_Ionization_Penalty>
0.00179402

> <r_epik_Ionization_Penalty_Charging>
0.00173996

> <r_epik_Ionization_Penalty_Neutral>
5.40607e-05

> <r_epik_State_Penalty>
-0

> <r_epik_Charging_Adjusted_Penalty>
0.00173996

> <i_epik_Tot_Q>
1

> <i_epik_Tot_abs_Q>
1

> <r_epik_Metal_State_Penalty>
-0

> <b_epik_Metal_Only>
0

> <s_lp_Force_Field>
OPLS_2005

> <r_lp_Energy>
52.0143

> <b_lp_Chiralities_Consistent>
1

> <s_lp_Variant>
AV-unprocessed.smi:280-4

> <Gold.Version>
5.8.1

> <Gold.Id.Protein>
6NUR|6NUR_protein|mol2

> <Gold.PLP.Fitness>
45.4939

> <Gold.PLP.PLP>
-35.1775

> <Gold.PLP.part.hbond>
-2.7228

> <Gold.PLP.part.metal>
0.0000

> <Gold.PLP.part.buried>
-5.2631

> <Gold.PLP.part.nonpolar>
-27.2370

> <Gold.PLP.part.repulsive>
0.0667

> <Gold.PLP.ligand.clash>
0.0000

> <Gold.PLP.ligand.torsion>
2.3138

> <Gold.PLP.Chemscore.Hbond>
3.5000

> <Gold.PLP.Chemscore.CHOScore>
1.0000

> <Gold.PLP.Chemscore.Metal>
0.0000

> <Gold.Chemscore.Hbonds>
donor molecule, donor type, donor heavy atom, donor atom, acceptor molecule, acceptor atom, score
      L1  H    23    59       P1  7948  2.00
      L1  H    28    58       P1  7948  1.00
      P1  H  7997  8008       L1     8  0.55
      L1  C    12    36       P1  8028  1.00

> <Gold.PLP.Chemscore.Internal.Correction>
1.4440

> <Gold.Rescore>
     Score         DG    S(hbond)    S(metal)    S(lipo)     H(rot)  DE(clash)    DE(int)     intcor
      9.37     -13.17       1.96        0.00      89.00       3.63       0.09       3.71       ----

> <Gold.Chemscore.Fitness>
9.3715

> <Gold.Chemscore.DG>
-13.1704

> <Gold.Chemscore.ZeroCoef>
-5.4800

> <Gold.Chemscore.Hbond>
1.9640

> <Gold.Chemscore.Metal>
0.0000

> <Gold.Chemscore.Lipo>
89.0009

> <Gold.Chemscore.Internal_Hbond>
0.0000

> <Gold.Chemscore.DEClash>
0.0929

> <Gold.Chemscore.DEInternal>
3.7060

> <Gold.Chemscore.Rot>
3.6260

> <Gold.Chemscore.Internal.Correction>
   9.000000E+99

> <Gold.Chemscore.Hbonds>
donor molecule, donor type, donor heavy atom, donor atom, acceptor molecule, acceptor atom, score
      L1  H    23    59       P1  7948  0.98
      L1  H    28    58       P1  7948  0.79
      P1  H  7997  8008       L1     8  0.03

> <Gold.Chemscore.Hbond.Weighted>
-6.5597

> <Gold.Chemscore.Metal.Weighted>
-0.0000

> <Gold.Chemscore.Lipo.Weighted>
-10.4131

> <Gold.Chemscore.Internal_Hbond.Weighted>
0.0000

> <Gold.Chemscore.DEClash.Weighted>
0.0929

> <Gold.Chemscore.DEInternal.Weighted>
3.7060

> <Gold.Chemscore.Rot.Weighted>
9.2825

> <Gold.Chemscore.Internal.Correction.Weighted>
   9.000000E+99

> <Gold.Protein.RotatedTorsions>
[ 6907 6896 6895 6894 ] final   39.04 input  -60.11 | X-H torsion
[ 7974 7965 7964 7962 ] final   30.85 input  175.53 | X-H torsion
[ 8008 7997 7996 7995 ] final  -72.00 input   59.86 | X-H torsion
[ 10167 10162 10161 10158 ] final  157.81 input  -65.29 | X-H torsion
[ 10718 10713 10712 10709 ] final    2.57 input   66.30 | X-H torsion
[ 10763 10752 10751 10750 ] final -133.76 input  -60.55 | X-H torsion
[ 11005 11000 10999 10996 ] final   95.94 input  -57.11 | X-H torsion

> <Gold.Protein.ActiveResidues>
 VAL166  LYS551  ARG553  GLY616  TRP617  ASP618  TYR619  PRO620  LYS621  CYS622 
 ASP623  PHE694  ASN695  SER759  ASP760  ASP761  ALA762  ILE779  LEU786  VAL792 
 PHE793  MET794  SER795  GLU796  ALA797  LYS798  CYS799  TRP800  GLU811  SER814 

> <Gold.Protein.RotatedAtoms>
  152.1644  134.8886  160.0538 H   0  0  0  0  0  0  0  0  0  0  0  0  # atno 6907 bound_to 6896
  151.9869  133.3772  159.4137 H   0  0  0  0  0  0  0  0  0  0  0  0  # atno 6908 bound_to 6896
  150.6892  134.3901  159.5116 H   0  0  0  0  0  0  0  0  0  0  0  0  # atno 6909 bound_to 6896
  146.1587  139.6734  142.9049 H   0  0  0  0  0  0  0  0  0  0  0  0  # atno 7974 bound_to 7965
  154.5131  140.0805  156.8029 H   0  0  0  0  0  0  0  0  0  0  0  0  # atno 8008 bound_to 7997
  155.3740  140.3424  155.4226 H   0  0  0  0  0  0  0  0  0  0  0  0  # atno 8009 bound_to 7997
  156.1597  140.1584  156.8621 H   0  0  0  0  0  0  0  0  0  0  0  0  # atno 8010 bound_to 7997
  139.4824  144.4883  151.8345 H   0  0  0  0  0  0  0  0  0  0  0  0  # atno 10167 bound_to 10162
  156.8650  130.5600  149.5660 H   0  0  0  0  0  0  0  0  0  0  0  0  # atno 10718 bound_to 10713
  154.8728  135.3756  154.4625 H   0  0  0  0  0  0  0  0  0  0  0  0  # atno 10763 bound_to 10752
  153.5292  135.7028  153.5697 H   0  0  0  0  0  0  0  0  0  0  0  0  # atno 10764 bound_to 10752
  153.3909  135.3972  155.1888 H   0  0  0  0  0  0  0  0  0  0  0  0  # atno 10765 bound_to 10752
  139.8785  134.8925  156.4085 H   0  0  0  0  0  0  0  0  0  0  0  0  # atno 11005 bound_to 11000
  145.4644  141.0434  143.2733 LP  0  0  0  0  0  0  0  0  0  0  0  0  # atno 17320 bound_to 7965
  144.7997  139.6164  143.7077 LP  0  0  0  0  0  0  0  0  0  0  0  0  # atno 17321 bound_to 7965
  140.4365  144.2045  150.5889 LP  0  0  0  0  0  0  0  0  0  0  0  0  # atno 17342 bound_to 10162
  140.4727  143.2407  151.9067 LP  0  0  0  0  0  0  0  0  0  0  0  0  # atno 17343 bound_to 10162
  156.0756  130.5779  150.9468 LP  0  0  0  0  0  0  0  0  0  0  0  0  # atno 17370 bound_to 10713
  157.6228  131.0928  150.8590 LP  0  0  0  0  0  0  0  0  0  0  0  0  # atno 17371 bound_to 10713
  140.9217  133.7640  155.9914 LP  0  0  0  0  0  0  0  0  0  0  0  0  # atno 17394 bound_to 11000
  140.8432  134.3042  157.5305 LP  0  0  0  0  0  0  0  0  0  0  0  0  # atno 17395 bound_to 11000

$$$$
