AV-unprocessed.smi:1773|AV-procd|sdf|7163|dock4
  -GOLD-   22720 8403D 1   1.00000     0.00000
 Structure written by MMmdl.
 40 41  0  0  0  0  0  0  0  0  1 V2000
  147.6078  132.9387  152.4142 C   0  0  0  0  0  0  0  0  0  0  0  0
  146.2335  132.8396  151.7718 C   0  0  0  0  0  0  0  0  0  0  0  0
  145.6428  131.5699  151.5982 C   0  0  0  0  0  0  0  0  0  0  0  0
  144.3724  131.4799  151.0041 C   0  0  0  0  0  0  0  0  0  0  0  0
  143.7427  132.6715  150.6057 C   0  0  0  0  0  0  0  0  0  0  0  0
  144.2998  133.8890  150.7679 N   0  0  0  0  0  0  0  0  0  0  0  0
  145.5256  133.9935  151.3402 C   0  0  0  0  0  0  0  0  0  0  0  0
  146.1737  135.2443  151.5453 N   0  0  0  0  0  0  0  0  0  0  0  0
  145.6287  136.4247  151.8887 C   0  0  0  0  0  0  0  0  0  0  0  0
  144.4289  136.6293  152.0755 O   0  0  0  0  0  0  0  0  0  0  0  0
  146.5686  137.3752  151.9972 N   0  0  0  0  0  0  0  0  0  0  0  0
  146.3333  138.7748  152.3493 C   0  0  0  0  0  0  0  0  0  0  0  0
  147.3719  139.3352  153.3528 C   0  0  0  0  0  0  0  0  0  0  0  0
  148.6184  138.7506  153.0184 O   0  0  0  0  0  0  0  0  0  0  0  0
  147.5011  140.8794  153.3030 C   0  0  0  0  0  0  0  0  0  0  0  0
  148.4283  141.4434  154.3948 C   0  0  0  0  0  0  0  0  0  0  0  0
  148.0023  140.9753  155.7929 C   0  0  0  0  0  0  0  0  0  0  0  0
  147.9451  139.4434  155.8636 C   0  0  0  0  0  0  0  0  0  0  0  0
  147.0101  138.8695  154.7840 C   0  0  0  0  0  0  0  0  0  0  0  0
  147.9879  131.9554  152.6931 H   0  0  0  0  0  0  0  0  0  0  0  0
  147.5649  133.5491  153.3167 H   0  0  0  0  0  0  0  0  0  0  0  0
  148.3202  133.3899  151.7231 H   0  0  0  0  0  0  0  0  0  0  0  0
  146.1546  130.6731  151.9156 H   0  0  0  0  0  0  0  0  0  0  0  0
  143.8931  130.5233  150.8576 H   0  0  0  0  0  0  0  0  0  0  0  0
  142.7661  132.6480  150.1452 H   0  0  0  0  0  0  0  0  0  0  0  0
  147.1749  135.2365  151.4192 H   0  0  0  0  0  0  0  0  0  0  0  0
  147.5272  137.1164  151.8153 H   0  0  0  0  0  0  0  0  0  0  0  0
  146.3261  139.3878  151.4465 H   0  0  0  0  0  0  0  0  0  0  0  0
  145.3274  138.8552  152.7636 H   0  0  0  0  0  0  0  0  0  0  0  0
  148.4554  137.9815  152.4939 H   0  0  0  0  0  0  0  0  0  0  0  0
  147.8659  141.2054  152.3285 H   0  0  0  0  0  0  0  0  0  0  0  0
  146.5115  141.3237  153.4203 H   0  0  0  0  0  0  0  0  0  0  0  0
  149.4563  141.1336  154.2027 H   0  0  0  0  0  0  0  0  0  0  0  0
  148.4250  142.5329  154.3536 H   0  0  0  0  0  0  0  0  0  0  0  0
  148.6971  141.3572  156.5415 H   0  0  0  0  0  0  0  0  0  0  0  0
  147.0239  141.3911  156.0369 H   0  0  0  0  0  0  0  0  0  0  0  0
  148.9481  139.0319  155.7447 H   0  0  0  0  0  0  0  0  0  0  0  0
  147.6025  139.1320  156.8508 H   0  0  0  0  0  0  0  0  0  0  0  0
  145.9895  139.1791  155.0139 H   0  0  0  0  0  0  0  0  0  0  0  0
  147.0118  137.7800  154.8394 H   0  0  0  0  0  0  0  0  0  0  0  0
  1  2  1  0  0  0  0
  1 20  1  0  0  0  0
  1 21  1  0  0  0  0
  1 22  1  0  0  0  0
  2  7  1  0  0  0  0
  2  3  2  0  0  0  0
  3  4  1  0  0  0  0
  3 23  1  0  0  0  0
  4  5  2  0  0  0  0
  4 24  1  0  0  0  0
  5  6  1  0  0  0  0
  5 25  1  0  0  0  0
  6  7  2  0  0  0  0
  7  8  1  0  0  0  0
  8  9  1  0  0  0  0
  8 26  1  0  0  0  0
  9 10  2  0  0  0  0
  9 11  1  0  0  0  0
 11 12  1  0  0  0  0
 11 27  1  0  0  0  0
 12 13  1  0  0  0  0
 12 28  1  0  0  0  0
 12 29  1  0  0  0  0
 13 19  1  0  0  0  0
 13 14  1  0  0  0  0
 13 15  1  0  0  0  0
 14 30  1  0  0  0  0
 15 16  1  0  0  0  0
 15 31  1  0  0  0  0
 15 32  1  0  0  0  0
 16 17  1  0  0  0  0
 16 33  1  0  0  0  0
 16 34  1  0  0  0  0
 17 18  1  0  0  0  0
 17 35  1  0  0  0  0
 17 36  1  0  0  0  0
 18 19  1  0  0  0  0
 18 37  1  0  0  0  0
 18 38  1  0  0  0  0
 19 39  1  0  0  0  0
 19 40  1  0  0  0  0
M  END
> <s_m_source_file>
AV-unprocessed.smi

> <i_m_source_file_index>
1773

> <i_lp_mmshare_version>
43012

> <i_f3d_flags>
0

> <s_epik_input>
W0NIM11jMVtjSF1bY0hdW2NIXW5jMVtOSF1DKD1PKVtOSF1bQ0gyXUMyKFtPSF0pW0NIMl1bQ0gyXVtDSDJdW0NIMl1bQ0gyXTI=

> <s_epik_cmdline>
J2VwaWtfcHl0aG9uJywgJy1waCcsICc3LjAnLCAnLXRuJywgJzgnLCAnLW1hJywgJzIwMCcsICctbWV0YWxfYmluZGluZycsICctaW1hZScsICc8aW5maWxlLm1hZT4nLCAnLW9tYWUnLCAnPG91dGZpbGUubWFlPic=

> <r_lp_tautomer_probability>
1

> <r_epik_Ionization_Penalty>
6.74357e-05

> <r_epik_Ionization_Penalty_Charging>
0

> <r_epik_Ionization_Penalty_Neutral>
6.74357e-05

> <r_epik_State_Penalty>
-0

> <r_epik_Charging_Adjusted_Penalty>
0

> <i_epik_Tot_Q>
0

> <i_epik_Tot_abs_Q>
0

> <r_epik_Metal_State_Penalty>
-0

> <b_epik_Metal_Only>
0

> <s_lp_Force_Field>
OPLS_2005

> <r_lp_Energy>
17.1315

> <b_lp_Chiralities_Consistent>
1

> <s_lp_Variant>
AV-unprocessed.smi:1773-1

> <Gold.Version>
5.8.1

> <Gold.Id.Protein>
6NUR|6NUR_protein|mol2

> <Gold.PLP.Fitness>
44.3073

> <Gold.PLP.PLP>
-33.9527

> <Gold.PLP.part.hbond>
-3.9122

> <Gold.PLP.part.metal>
0.0000

> <Gold.PLP.part.buried>
-5.0490

> <Gold.PLP.part.nonpolar>
-26.9328

> <Gold.PLP.part.repulsive>
1.3735

> <Gold.PLP.ligand.clash>
0.0000

> <Gold.PLP.ligand.torsion>
0.7210

> <Gold.PLP.Chemscore.Hbond>
2.9280

> <Gold.PLP.Chemscore.CHOScore>
1.0000

> <Gold.PLP.Chemscore.Metal>
0.0000

> <Gold.Chemscore.Hbonds>
donor molecule, donor type, donor heavy atom, donor atom, acceptor molecule, acceptor atom, score
      L1  H     8    26       P1  7948  0.92
      L1  H    11    27       P1  7948  1.00
      L1  H    14    30       P1  7948  1.00
      L1  C     5    25       P1 10186  0.92

> <Gold.PLP.Chemscore.Internal.Correction>
0.0126

> <Gold.Rescore>
     Score         DG    S(hbond)    S(metal)    S(lipo)     H(rot)  DE(clash)    DE(int)     intcor
     18.00     -18.81       2.76        0.00      73.10       1.73       0.06       0.75       ----

> <Gold.Chemscore.Fitness>
18.0009

> <Gold.Chemscore.DG>
-18.8078

> <Gold.Chemscore.ZeroCoef>
-5.4800

> <Gold.Chemscore.Hbond>
2.7584

> <Gold.Chemscore.Metal>
0.0000

> <Gold.Chemscore.Lipo>
73.1047

> <Gold.Chemscore.Internal_Hbond>
0.0000

> <Gold.Chemscore.DEClash>
0.0618

> <Gold.Chemscore.DEInternal>
0.7451

> <Gold.Chemscore.Rot>
1.7339

> <Gold.Chemscore.Internal.Correction>
   9.000000E+99

> <Gold.Chemscore.Hbonds>
donor molecule, donor type, donor heavy atom, donor atom, acceptor molecule, acceptor atom, score
      L1  H     8    26       P1  7948  0.73
      L1  H    11    27       P1  7948  0.99
      L1  H    14    30       P1  7948  0.95

> <Gold.Chemscore.Hbond.Weighted>
-9.2132

> <Gold.Chemscore.Metal.Weighted>
-0.0000

> <Gold.Chemscore.Lipo.Weighted>
-8.5533

> <Gold.Chemscore.Internal_Hbond.Weighted>
0.0000

> <Gold.Chemscore.DEClash.Weighted>
0.0618

> <Gold.Chemscore.DEInternal.Weighted>
0.7451

> <Gold.Chemscore.Rot.Weighted>
4.4387

> <Gold.Chemscore.Internal.Correction.Weighted>
   9.000000E+99

> <Gold.Protein.RotatedTorsions>
[ 6907 6896 6895 6894 ] final  175.10 input  -60.11 | X-H torsion
[ 7974 7965 7964 7962 ] final   55.06 input  175.53 | X-H torsion
[ 8008 7997 7996 7995 ] final  -52.10 input   59.86 | X-H torsion
[ 10167 10162 10161 10158 ] final -163.85 input  -65.29 | X-H torsion
[ 10718 10713 10712 10709 ] final  -41.64 input   66.30 | X-H torsion
[ 10763 10752 10751 10750 ] final   32.23 input  -60.55 | X-H torsion
[ 11005 11000 10999 10996 ] final -103.37 input  -57.11 | X-H torsion

> <Gold.Protein.ActiveResidues>
 VAL166  LYS551  ARG553  GLY616  TRP617  ASP618  TYR619  PRO620  LYS621  CYS622 
 ASP623  PHE694  ASN695  SER759  ASP760  ASP761  ALA762  ILE779  LEU786  VAL792 
 PHE793  MET794  SER795  GLU796  ALA797  LYS798  CYS799  TRP800  GLU811  SER814 

> <Gold.Protein.RotatedAtoms>
  151.7416  133.3322  159.3366 H   0  0  0  0  0  0  0  0  0  0  0  0  # atno 6907 bound_to 6896
  150.7571  134.6273  159.6177 H   0  0  0  0  0  0  0  0  0  0  0  0  # atno 6908 bound_to 6896
  152.3527  134.6986  160.0283 H   0  0  0  0  0  0  0  0  0  0  0  0  # atno 6909 bound_to 6896
  145.9544  139.4001  143.0286 H   0  0  0  0  0  0  0  0  0  0  0  0  # atno 7974 bound_to 7965
  154.4098  140.1232  156.4936 H   0  0  0  0  0  0  0  0  0  0  0  0  # atno 8008 bound_to 7997
  155.6965  140.3495  155.4895 H   0  0  0  0  0  0  0  0  0  0  0  0  # atno 8009 bound_to 7997
  155.9423  140.1089  157.1035 H   0  0  0  0  0  0  0  0  0  0  0  0  # atno 8010 bound_to 7997
  139.6292  144.0473  152.2001 H   0  0  0  0  0  0  0  0  0  0  0  0  # atno 10167 bound_to 10162
  156.2681  130.4204  149.8468 H   0  0  0  0  0  0  0  0  0  0  0  0  # atno 10718 bound_to 10713
  153.0273  135.6418  154.1323 H   0  0  0  0  0  0  0  0  0  0  0  0  # atno 10763 bound_to 10752
  154.1050  135.2857  155.3245 H   0  0  0  0  0  0  0  0  0  0  0  0  # atno 10764 bound_to 10752
  154.6372  135.5472  153.7810 H   0  0  0  0  0  0  0  0  0  0  0  0  # atno 10765 bound_to 10752
  141.1148  133.8635  157.1478 H   0  0  0  0  0  0  0  0  0  0  0  0  # atno 11005 bound_to 11000
  145.8127  140.9718  143.0940 LP  0  0  0  0  0  0  0  0  0  0  0  0  # atno 17320 bound_to 7965
  144.6802  139.9941  143.7484 LP  0  0  0  0  0  0  0  0  0  0  0  0  # atno 17321 bound_to 7965
  140.0134  144.6207  150.7627 LP  0  0  0  0  0  0  0  0  0  0  0  0  # atno 17342 bound_to 10162
  140.7429  143.2838  151.3521 LP  0  0  0  0  0  0  0  0  0  0  0  0  # atno 17343 bound_to 10162
  156.5959  130.8526  151.3420 LP  0  0  0  0  0  0  0  0  0  0  0  0  # atno 17370 bound_to 10713
  157.7274  130.9643  150.1699 LP  0  0  0  0  0  0  0  0  0  0  0  0  # atno 17371 bound_to 10713
  140.0064  135.0007  157.0301 LP  0  0  0  0  0  0  0  0  0  0  0  0  # atno 17394 bound_to 11000
  140.4675  134.1420  155.7199 LP  0  0  0  0  0  0  0  0  0  0  0  0  # atno 17395 bound_to 11000

$$$$
