AV-unprocessed.smi:1360|AV-procd|sdf|5552|dock6
  -GOLD-   22720 5143D 1   1.00000     0.00000
 Structure written by MMmdl.
 36 37  0  0  0  0  0  0  0  0  1 V2000
  147.1247  141.7696  155.3763 C   0  0  0  0  0  0  0  0  0  0  0  0
  148.5115  141.1766  155.6750 C   0  0  1  0  0  0  0  0  0  0  0  0
  149.2673  140.7258  154.4058 C   0  0  0  0  0  0  0  0  0  0  0  0
  150.1743  139.6201  154.6564 N   0  0  0  0  0  0  0  0  0  0  0  0
  149.8634  138.2971  154.8904 C   0  0  0  0  0  0  0  0  0  0  0  0
  151.0404  137.6289  155.0709 C   0  0  0  0  0  0  0  0  0  0  0  0
  152.0293  138.6424  154.9304 C   0  0  0  0  0  0  0  0  0  0  0  0
  151.5081  139.8333  154.6832 N   0  0  0  0  0  0  0  0  0  0  0  0
  149.3030  142.1598  156.4088 N   0  0  0  0  0  0  0  0  0  0  0  0
  150.3913  141.8911  157.1473 C   0  0  0  0  0  0  0  0  0  0  0  0
  150.8512  140.7569  157.2846 O   0  0  0  0  0  0  0  0  0  0  0  0
  151.0624  143.0876  157.8352 C   0  0  2  0  0  0  0  0  0  0  0  0
  152.3312  142.6549  158.6062 C   0  0  0  0  0  0  0  0  0  0  0  0
  152.8658  143.7632  159.4964 C   0  0  0  0  0  0  0  0  0  0  0  0
  152.1498  144.8487  159.8365 C   0  0  0  0  0  0  0  0  0  0  0  0
  150.7230  145.0871  159.3743 C   0  0  0  0  0  0  0  0  0  0  0  0
  150.0841  143.8194  158.7758 C   0  0  0  0  0  0  0  0  0  0  0  0
  146.4670  141.0350  154.9114 H   0  0  0  0  0  0  0  0  0  0  0  0
  147.1962  142.6254  154.7043 H   0  0  0  0  0  0  0  0  0  0  0  0
  146.6369  142.1050  156.2921 H   0  0  0  0  0  0  0  0  0  0  0  0
  148.3599  140.3057  156.3157 H   0  0  0  0  0  0  0  0  0  0  0  0
  148.5600  140.4341  153.6274 H   0  0  0  0  0  0  0  0  0  0  0  0
  149.8525  141.5514  153.9985 H   0  0  0  0  0  0  0  0  0  0  0  0
  148.8419  137.9463  154.9060 H   0  0  0  0  0  0  0  0  0  0  0  0
  151.1748  136.5768  155.2732 H   0  0  0  0  0  0  0  0  0  0  0  0
  153.1031  138.5488  155.0007 H   0  0  0  0  0  0  0  0  0  0  0  0
  148.9974  143.1205  156.3531 H   0  0  0  0  0  0  0  0  0  0  0  0
  151.3658  143.7965  157.0622 H   0  0  0  0  0  0  0  0  0  0  0  0
  152.1381  141.7844  159.2349 H   0  0  0  0  0  0  0  0  0  0  0  0
  153.1118  142.3692  157.9003 H   0  0  0  0  0  0  0  0  0  0  0  0
  153.8712  143.6437  159.8725 H   0  0  0  0  0  0  0  0  0  0  0  0
  152.5923  145.6095  160.4625 H   0  0  0  0  0  0  0  0  0  0  0  0
  150.1266  145.4424  160.2149 H   0  0  0  0  0  0  0  0  0  0  0  0
  150.7373  145.8876  158.6340 H   0  0  0  0  0  0  0  0  0  0  0  0
  149.1664  144.0859  158.2497 H   0  0  0  0  0  0  0  0  0  0  0  0
  149.7904  143.1510  159.5870 H   0  0  0  0  0  0  0  0  0  0  0  0
  1  2  1  0  0  0  0
  1 18  1  0  0  0  0
  1 19  1  0  0  0  0
  1 20  1  0  0  0  0
  2  3  1  0  0  0  0
  2  9  1  0  0  0  0
  2 21  1  0  0  0  0
  3  4  1  0  0  0  0
  3 22  1  0  0  0  0
  3 23  1  0  0  0  0
  4  8  1  0  0  0  0
  4  5  1  0  0  0  0
  5  6  2  0  0  0  0
  5 24  1  0  0  0  0
  6  7  1  0  0  0  0
  6 25  1  0  0  0  0
  7  8  2  0  0  0  0
  7 26  1  0  0  0  0
  9 10  1  0  0  0  0
  9 27  1  0  0  0  0
 10 11  2  0  0  0  0
 10 12  1  0  0  0  0
 12 17  1  0  0  0  0
 12 13  1  0  0  0  0
 12 28  1  0  0  0  0
 13 14  1  0  0  0  0
 13 29  1  0  0  0  0
 13 30  1  0  0  0  0
 14 15  2  0  0  0  0
 14 31  1  0  0  0  0
 15 16  1  0  0  0  0
 15 32  1  0  0  0  0
 16 17  1  0  0  0  0
 16 33  1  0  0  0  0
 16 34  1  0  0  0  0
 17 35  1  0  0  0  0
 17 36  1  0  0  0  0
M  END
> <s_m_source_file>
AV-unprocessed.smi

> <i_m_source_file_index>
1360

> <i_lp_mmshare_version>
43012

> <i_f3d_flags>
0

> <s_epik_input>
bjFbY0hdW2NIXVtjSF1uMVtDSDJdW0NAQEhdKFtDSDNdKVtOSF1DKD1PKVtDQEBIXTJbQ0gyXVtDSF09W0NIXVtDSDJdW0NIMl0y

> <s_epik_cmdline>
J2VwaWtfcHl0aG9uJywgJy1waCcsICc3LjAnLCAnLXRuJywgJzgnLCAnLW1hJywgJzIwMCcsICctbWV0YWxfYmluZGluZycsICctaW1hZScsICc8aW5maWxlLm1hZT4nLCAnLW9tYWUnLCAnPG91dGZpbGUubWFlPic=

> <r_lp_tautomer_probability>
1

> <r_epik_Ionization_Penalty>
0.000315076

> <r_epik_Ionization_Penalty_Charging>
0

> <r_epik_Ionization_Penalty_Neutral>
0.000315076

> <r_epik_State_Penalty>
-0

> <r_epik_Charging_Adjusted_Penalty>
0

> <i_epik_Tot_Q>
0

> <i_epik_Tot_abs_Q>
0

> <r_epik_Metal_State_Penalty>
-0

> <b_epik_Metal_Only>
0

> <s_lp_Force_Field>
OPLS_2005

> <r_lp_Energy>
7.97441

> <b_lp_Chiralities_Consistent>
1

> <s_lp_Variant>
AV-unprocessed.smi:1360-2

> <Gold.Version>
5.8.1

> <Gold.Id.Protein>
6NUR|6NUR_protein|mol2

> <Gold.PLP.Fitness>
43.7053

> <Gold.PLP.PLP>
-39.1155

> <Gold.PLP.part.hbond>
-1.8948

> <Gold.PLP.part.metal>
0.0000

> <Gold.PLP.part.buried>
-5.7266

> <Gold.PLP.part.nonpolar>
-32.8937

> <Gold.PLP.part.repulsive>
0.1341

> <Gold.PLP.ligand.clash>
0.0000

> <Gold.PLP.ligand.torsion>
0.7246

> <Gold.PLP.Chemscore.Hbond>
2.0000

> <Gold.PLP.Chemscore.CHOScore>
0.0000

> <Gold.PLP.Chemscore.Metal>
0.0000

> <Gold.Chemscore.Hbonds>
donor molecule, donor type, donor heavy atom, donor atom, acceptor molecule, acceptor atom, score
      L1  H     9    27       P1  8028  1.00
      P1  H  7989  7998       L1     8  1.00

> <Gold.PLP.Chemscore.Internal.Correction>
0.0389

> <Gold.Rescore>
     Score         DG    S(hbond)    S(metal)    S(lipo)     H(rot)  DE(clash)    DE(int)     intcor
     18.93     -19.82       1.93        0.00     100.38       1.51       0.11       0.79       ----

> <Gold.Chemscore.Fitness>
18.9260

> <Gold.Chemscore.DG>
-19.8245

> <Gold.Chemscore.ZeroCoef>
-5.4800

> <Gold.Chemscore.Hbond>
1.9324

> <Gold.Chemscore.Metal>
0.0000

> <Gold.Chemscore.Lipo>
100.3827

> <Gold.Chemscore.Internal_Hbond>
0.0000

> <Gold.Chemscore.DEClash>
0.1070

> <Gold.Chemscore.DEInternal>
0.7914

> <Gold.Chemscore.Rot>
1.5057

> <Gold.Chemscore.Internal.Correction>
   9.000000E+99

> <Gold.Chemscore.Hbonds>
donor molecule, donor type, donor heavy atom, donor atom, acceptor molecule, acceptor atom, score
      L1  H     9    27       P1  8028  0.98
      P1  H  7989  7998       L1     8  0.25

> <Gold.Chemscore.Hbond.Weighted>
-6.4543

> <Gold.Chemscore.Metal.Weighted>
-0.0000

> <Gold.Chemscore.Lipo.Weighted>
-11.7448

> <Gold.Chemscore.Internal_Hbond.Weighted>
0.0000

> <Gold.Chemscore.DEClash.Weighted>
0.1070

> <Gold.Chemscore.DEInternal.Weighted>
0.7914

> <Gold.Chemscore.Rot.Weighted>
3.8546

> <Gold.Chemscore.Internal.Correction.Weighted>
   9.000000E+99

> <Gold.Protein.RotatedTorsions>
[ 6907 6896 6895 6894 ] final  -95.50 input  -60.11 | X-H torsion
[ 7974 7965 7964 7962 ] final  162.22 input  175.53 | X-H torsion
[ 8008 7997 7996 7995 ] final  112.28 input   59.86 | X-H torsion
[ 10167 10162 10161 10158 ] final   23.93 input  -65.29 | X-H torsion
[ 10718 10713 10712 10709 ] final  -72.02 input   66.30 | X-H torsion
[ 10763 10752 10751 10750 ] final   33.70 input  -60.55 | X-H torsion
[ 11005 11000 10999 10996 ] final  -46.64 input  -57.11 | X-H torsion

> <Gold.Protein.ActiveResidues>
 VAL166  LYS551  ARG553  GLY616  TRP617  ASP618  TYR619  PRO620  LYS621  CYS622 
 ASP623  PHE694  ASN695  SER759  ASP760  ASP761  ALA762  ILE779  LEU786  VAL792 
 PHE793  MET794  SER795  GLU796  ALA797  LYS798  CYS799  TRP800  GLU811  SER814 

> <Gold.Protein.RotatedAtoms>
  150.6965  134.1648  159.4189 H   0  0  0  0  0  0  0  0  0  0  0  0  # atno 6907 bound_to 6896
  151.9627  135.0113  160.0558 H   0  0  0  0  0  0  0  0  0  0  0  0  # atno 6908 bound_to 6896
  152.1912  133.4739  159.5046 H   0  0  0  0  0  0  0  0  0  0  0  0  # atno 6909 bound_to 6896
  144.7647  139.8009  143.6319 H   0  0  0  0  0  0  0  0  0  0  0  0  # atno 7974 bound_to 7965
  156.2181  140.3002  155.9888 H   0  0  0  0  0  0  0  0  0  0  0  0  # atno 8008 bound_to 7997
  155.2552  140.0427  157.3008 H   0  0  0  0  0  0  0  0  0  0  0  0  # atno 8009 bound_to 7997
  154.5799  140.2372  155.8077 H   0  0  0  0  0  0  0  0  0  0  0  0  # atno 8010 bound_to 7997
  140.5229  143.9972  150.6426 H   0  0  0  0  0  0  0  0  0  0  0  0  # atno 10167 bound_to 10162
  156.0338  130.4363  150.2531 H   0  0  0  0  0  0  0  0  0  0  0  0  # atno 10718 bound_to 10713
  153.0199  135.6380  154.1552 H   0  0  0  0  0  0  0  0  0  0  0  0  # atno 10763 bound_to 10752
  154.1287  135.2842  155.3192 H   0  0  0  0  0  0  0  0  0  0  0  0  # atno 10764 bound_to 10752
  154.6210  135.5525  153.7637 H   0  0  0  0  0  0  0  0  0  0  0  0  # atno 10765 bound_to 10752
  141.0591  133.6715  156.3183 H   0  0  0  0  0  0  0  0  0  0  0  0  # atno 11005 bound_to 11000
  146.1743  139.4907  142.9907 LP  0  0  0  0  0  0  0  0  0  0  0  0  # atno 17320 bound_to 7965
  145.6507  141.0263  143.1761 LP  0  0  0  0  0  0  0  0  0  0  0  0  # atno 17321 bound_to 7965
  140.3326  143.3068  152.0672 LP  0  0  0  0  0  0  0  0  0  0  0  0  # atno 17342 bound_to 10162
  139.4929  144.6499  151.6699 LP  0  0  0  0  0  0  0  0  0  0  0  0  # atno 17343 bound_to 10162
  157.0631  131.0095  151.3215 LP  0  0  0  0  0  0  0  0  0  0  0  0  # atno 17370 bound_to 10713
  157.5055  130.7906  149.7649 LP  0  0  0  0  0  0  0  0  0  0  0  0  # atno 17371 bound_to 10713
  140.5904  134.5656  157.5498 LP  0  0  0  0  0  0  0  0  0  0  0  0  # atno 17394 bound_to 11000
  139.9416  134.7776  156.0663 LP  0  0  0  0  0  0  0  0  0  0  0  0  # atno 17395 bound_to 11000

$$$$
