AV-unprocessed.smi:2775|AV-procd|sdf|10691|dock9
  -GOLD-   2272015133D 1   1.00000     0.00000
 Structure written by MMmdl.
 42 45  0  0  0  0  0  0  0  0  1 V2000
  145.7719  130.7069  151.4588 C   0  0  0  0  0  0  0  0  0  0  0  0
  145.3498  132.1385  151.7316 C   0  0  0  0  0  0  0  0  0  0  0  0
  144.0611  132.4325  151.4516 N   0  0  0  0  0  0  0  0  0  0  0  0
  143.6312  133.6898  151.6840 C   0  0  0  0  0  0  0  0  0  0  0  0
  144.4569  134.7083  152.1969 C   0  0  0  0  0  0  0  0  0  0  0  0
  145.8111  134.4071  152.4748 C   0  0  0  0  0  0  0  0  0  0  0  0
  146.7261  135.3514  153.0131 N   0  0  0  0  0  0  0  0  0  0  0  0
  146.5154  136.2832  153.9623 C   0  0  0  0  0  0  0  0  0  0  0  0
  145.4631  136.4330  154.5795 O   0  0  0  0  0  0  0  0  0  0  0  0
  147.5660  137.0973  154.1639 N   0  0  0  0  0  0  0  0  0  0  0  0
  147.6607  138.2058  155.1174 C   0  0  1  0  0  0  0  0  0  0  0  0
  149.0567  138.3769  155.7630 C   0  0  1  0  0  0  0  0  0  0  0  0
  150.2885  137.6632  155.2667 C   0  0  0  0  0  0  0  0  0  0  0  0
  150.7207  138.5155  154.0782 C   0  0  0  0  0  0  0  0  0  0  0  0
  150.2976  139.8382  154.4084 O   0  0  0  0  0  0  0  0  0  0  0  0
  149.1115  139.7978  155.2063 C   0  0  1  0  0  0  0  0  0  0  0  0
  147.7968  139.5770  154.4352 C   0  0  0  0  0  0  0  0  0  0  0  0
  147.7080  139.7883  152.9090 C   0  0  0  0  0  0  0  0  0  0  0  0
  147.0736  141.1527  153.1872 C   0  0  0  0  0  0  0  0  0  0  0  0
  146.6723  140.6169  154.5634 C   0  0  0  0  0  0  0  0  0  0  0  0
  146.2639  133.0868  152.2475 C   0  0  0  0  0  0  0  0  0  0  0  0
  147.9048  132.6442  152.5837 Cl  0  0  0  0  0  0  0  0  0  0  0  0
  146.5753  130.6825  150.7222 H   0  0  0  0  0  0  0  0  0  0  0  0
  144.9438  130.1100  151.0737 H   0  0  0  0  0  0  0  0  0  0  0  0
  146.1283  130.2358  152.3750 H   0  0  0  0  0  0  0  0  0  0  0  0
  142.5939  133.8898  151.4600 H   0  0  0  0  0  0  0  0  0  0  0  0
  144.0378  135.6865  152.3761 H   0  0  0  0  0  0  0  0  0  0  0  0
  147.6157  135.4042  152.5389 H   0  0  0  0  0  0  0  0  0  0  0  0
  148.3629  136.9690  153.5569 H   0  0  0  0  0  0  0  0  0  0  0  0
  146.8633  138.2166  155.8630 H   0  0  0  0  0  0  0  0  0  0  0  0
  148.9724  138.3695  156.8505 H   0  0  0  0  0  0  0  0  0  0  0  0
  151.0627  137.6792  156.0345 H   0  0  0  0  0  0  0  0  0  0  0  0
  150.1206  136.6213  154.9961 H   0  0  0  0  0  0  0  0  0  0  0  0
  151.7945  138.4715  153.8969 H   0  0  0  0  0  0  0  0  0  0  0  0
  150.2119  138.1875  153.1712 H   0  0  0  0  0  0  0  0  0  0  0  0
  149.0619  140.5781  155.9668 H   0  0  0  0  0  0  0  0  0  0  0  0
  148.6586  139.8366  152.3786 H   0  0  0  0  0  0  0  0  0  0  0  0
  147.0112  139.1079  152.4170 H   0  0  0  0  0  0  0  0  0  0  0  0
  147.8098  141.9562  153.2444 H   0  0  0  0  0  0  0  0  0  0  0  0
  146.2388  141.4115  152.5353 H   0  0  0  0  0  0  0  0  0  0  0  0
  145.6786  140.1656  154.5634 H   0  0  0  0  0  0  0  0  0  0  0  0
  146.7897  141.3277  155.3816 H   0  0  0  0  0  0  0  0  0  0  0  0
  1  2  1  0  0  0  0
  1 23  1  0  0  0  0
  1 24  1  0  0  0  0
  1 25  1  0  0  0  0
  2 21  1  0  0  0  0
  2  3  2  0  0  0  0
  3  4  1  0  0  0  0
  4  5  2  0  0  0  0
  4 26  1  0  0  0  0
  5  6  1  0  0  0  0
  5 27  1  0  0  0  0
  6  7  1  0  0  0  0
  6 21  2  0  0  0  0
  7  8  1  0  0  0  0
  7 28  1  0  0  0  0
  8  9  2  0  0  0  0
  8 10  1  0  0  0  0
 10 11  1  0  0  0  0
 10 29  1  0  0  0  0
 11 17  1  0  0  0  0
 11 12  1  0  0  0  0
 11 30  1  0  0  0  0
 12 16  1  0  0  0  0
 12 13  1  0  0  0  0
 12 31  1  0  0  0  0
 13 14  1  0  0  0  0
 13 32  1  0  0  0  0
 13 33  1  0  0  0  0
 14 15  1  0  0  0  0
 14 34  1  0  0  0  0
 14 35  1  0  0  0  0
 15 16  1  0  0  0  0
 16 17  1  0  0  0  0
 16 36  1  0  0  0  0
 17 20  1  0  0  0  0
 17 18  1  0  0  0  0
 18 19  1  0  0  0  0
 18 37  1  0  0  0  0
 18 38  1  0  0  0  0
 19 20  1  0  0  0  0
 19 39  1  0  0  0  0
 19 40  1  0  0  0  0
 20 41  1  0  0  0  0
 20 42  1  0  0  0  0
 21 22  1  0  0  0  0
M  END
> <s_m_source_file>
AV-unprocessed.smi

> <i_m_source_file_index>
2775

> <i_lp_mmshare_version>
43012

> <i_f3d_flags>
0

> <s_epik_input>
W0NIM11jMW5bY0hdW2NIXWMoYzFDbClbTkhdQyg9TylbTkhdW0NAQEhdMltDQEhdKFtDSDJdW0NIMl1PMylbQ0BASF0zQzI0W0NIMl1bQ0gyXVtDSDJdNA==

> <s_epik_cmdline>
J2VwaWtfcHl0aG9uJywgJy1waCcsICc3LjAnLCAnLXRuJywgJzgnLCAnLW1hJywgJzIwMCcsICctbWV0YWxfYmluZGluZycsICctaW1hZScsICc8aW5maWxlLm1hZT4nLCAnLW9tYWUnLCAnPG91dGZpbGUubWFlPic=

> <r_epik_Ionization_Penalty>
0.01026

> <r_epik_Ionization_Penalty_Charging>
0

> <r_epik_Ionization_Penalty_Neutral>
0.01026

> <r_epik_State_Penalty>
0.00780685

> <r_epik_Charging_Adjusted_Penalty>
0.00780685

> <i_epik_Tot_Q>
0

> <i_epik_Tot_abs_Q>
0

> <r_epik_Metal_State_Penalty>
0.00767411

> <b_epik_Metal_Only>
0

> <s_lp_Force_Field>
OPLS_2005

> <r_lp_Energy>
57.8128

> <b_lp_Chiralities_Consistent>
1

> <s_lp_Variant>
AV-unprocessed.smi:2775-4

> <Gold.Version>
5.8.1

> <Gold.Id.Protein>
6NUR|6NUR_protein|mol2

> <Gold.PLP.Fitness>
38.0649

> <Gold.PLP.PLP>
-27.2295

> <Gold.PLP.part.hbond>
-3.0000

> <Gold.PLP.part.metal>
0.0000

> <Gold.PLP.part.buried>
-1.3634

> <Gold.PLP.part.nonpolar>
-22.8683

> <Gold.PLP.part.repulsive>
0.3265

> <Gold.PLP.ligand.clash>
0.0000

> <Gold.PLP.ligand.torsion>
0.5018

> <Gold.PLP.Chemscore.Hbond>
2.8960

> <Gold.PLP.Chemscore.CHOScore>
0.9965

> <Gold.PLP.Chemscore.Metal>
0.0000

> <Gold.Chemscore.Hbonds>
donor molecule, donor type, donor heavy atom, donor atom, acceptor molecule, acceptor atom, score
      L1  H     7    28       P1  7948  1.00
      L1  H    10    29       P1  7948  0.90
      P1  H  7989  7998       L1    15  1.00
      L1  C     4    26       P1 10186  1.00

> <Gold.PLP.Chemscore.Internal.Correction>
0.1615

> <Gold.Rescore>
     Score         DG    S(hbond)    S(metal)    S(lipo)     H(rot)  DE(clash)    DE(int)     intcor
     20.43     -22.79       2.93        0.00      86.29       1.00       1.90       0.46       ----

> <Gold.Chemscore.Fitness>
20.4326

> <Gold.Chemscore.DG>
-22.7896

> <Gold.Chemscore.ZeroCoef>
-5.4800

> <Gold.Chemscore.Hbond>
2.9263

> <Gold.Chemscore.Metal>
0.0000

> <Gold.Chemscore.Lipo>
86.2886

> <Gold.Chemscore.Internal_Hbond>
0.0000

> <Gold.Chemscore.DEClash>
1.8960

> <Gold.Chemscore.DEInternal>
0.4610

> <Gold.Chemscore.Rot>
1.0000

> <Gold.Chemscore.Internal.Correction>
   9.000000E+99

> <Gold.Chemscore.Hbonds>
donor molecule, donor type, donor heavy atom, donor atom, acceptor molecule, acceptor atom, score
      L1  H     7    28       P1  7948  0.98
      L1  H    10    29       P1  7948  0.88
      P1  H  7989  7998       L1    15  0.25

> <Gold.Chemscore.Hbond.Weighted>
-9.7738

> <Gold.Chemscore.Metal.Weighted>
-0.0000

> <Gold.Chemscore.Lipo.Weighted>
-10.0958

> <Gold.Chemscore.Internal_Hbond.Weighted>
0.0000

> <Gold.Chemscore.DEClash.Weighted>
1.8960

> <Gold.Chemscore.DEInternal.Weighted>
0.4610

> <Gold.Chemscore.Rot.Weighted>
2.5600

> <Gold.Chemscore.Internal.Correction.Weighted>
   9.000000E+99

> <Gold.Protein.RotatedTorsions>
[ 6907 6896 6895 6894 ] final -168.55 input  -60.11 | X-H torsion
[ 7974 7965 7964 7962 ] final  -11.98 input  175.53 | X-H torsion
[ 8008 7997 7996 7995 ] final  -29.49 input   59.86 | X-H torsion
[ 10167 10162 10161 10158 ] final  148.54 input  -65.29 | X-H torsion
[ 10718 10713 10712 10709 ] final -111.21 input   66.30 | X-H torsion
[ 10763 10752 10751 10750 ] final  -82.73 input  -60.55 | X-H torsion
[ 11005 11000 10999 10996 ] final  -80.11 input  -57.11 | X-H torsion

> <Gold.Protein.ActiveResidues>
 VAL166  LYS551  ARG553  GLY616  TRP617  ASP618  TYR619  PRO620  LYS621  CYS622 
 ASP623  PHE694  ASN695  SER759  ASP760  ASP761  ALA762  ILE779  LEU786  VAL792 
 PHE793  MET794  SER795  GLU796  ALA797  LYS798  CYS799  TRP800  GLU811  SER814 

> <Gold.Protein.RotatedAtoms>
  151.4774  133.3554  159.2832 H   0  0  0  0  0  0  0  0  0  0  0  0  # atno 6907 bound_to 6896
  150.8920  134.8327  159.7311 H   0  0  0  0  0  0  0  0  0  0  0  0  # atno 6908 bound_to 6896
  152.4829  134.4684  159.9679 H   0  0  0  0  0  0  0  0  0  0  0  0  # atno 6909 bound_to 6896
  146.2168  140.2991  142.8374 H   0  0  0  0  0  0  0  0  0  0  0  0  # atno 7974 bound_to 7965
  154.4288  140.1817  156.1256 H   0  0  0  0  0  0  0  0  0  0  0  0  # atno 8008 bound_to 7997
  156.0108  140.3351  155.6914 H   0  0  0  0  0  0  0  0  0  0  0  0  # atno 8009 bound_to 7997
  155.6113  140.0650  157.2696 H   0  0  0  0  0  0  0  0  0  0  0  0  # atno 8010 bound_to 7997
  139.4873  144.5672  151.7123 H   0  0  0  0  0  0  0  0  0  0  0  0  # atno 10167 bound_to 10162
  156.0634  130.5855  150.8342 H   0  0  0  0  0  0  0  0  0  0  0  0  # atno 10718 bound_to 10713
  154.5792  135.5581  153.7169 H   0  0  0  0  0  0  0  0  0  0  0  0  # atno 10763 bound_to 10752
  153.0075  135.6316  154.2006 H   0  0  0  0  0  0  0  0  0  0  0  0  # atno 10764 bound_to 10752
  154.1946  135.2881  155.2990 H   0  0  0  0  0  0  0  0  0  0  0  0  # atno 10765 bound_to 10752
  141.1668  133.7135  156.8224 H   0  0  0  0  0  0  0  0  0  0  0  0  # atno 11005 bound_to 11000
  144.9070  140.7712  143.5831 LP  0  0  0  0  0  0  0  0  0  0  0  0  # atno 17320 bound_to 7965
  145.2920  139.1880  143.4735 LP  0  0  0  0  0  0  0  0  0  0  0  0  # atno 17321 bound_to 7965
  140.5252  144.0817  150.6035 LP  0  0  0  0  0  0  0  0  0  0  0  0  # atno 17342 bound_to 10162
  140.3788  143.2814  152.0194 LP  0  0  0  0  0  0  0  0  0  0  0  0  # atno 17343 bound_to 10162
  157.5659  131.0946  150.9491 LP  0  0  0  0  0  0  0  0  0  0  0  0  # atno 17370 bound_to 10713
  156.9718  130.5494  149.5291 LP  0  0  0  0  0  0  0  0  0  0  0  0  # atno 17371 bound_to 10713
  140.2110  134.8827  157.3274 LP  0  0  0  0  0  0  0  0  0  0  0  0  # atno 17394 bound_to 11000
  140.2087  134.4165  155.7624 LP  0  0  0  0  0  0  0  0  0  0  0  0  # atno 17395 bound_to 11000

$$$$
