AV-unprocessed.smi:2489|AV-procd|sdf|9797|dock6
  -GOLD-   2272013433D 1   1.00000     0.00000
 Structure written by MMmdl.
 33 34  0  0  0  0  0  0  0  0  1 V2000
  154.3105  141.1776  160.5523 C   0  0  0  0  0  0  0  0  0  0  0  0
  153.3329  140.9427  159.5495 O   0  0  0  0  0  0  0  0  0  0  0  0
  152.6747  142.0335  159.0245 C   0  0  0  0  0  0  0  0  0  0  0  0
  152.8867  143.3712  159.4334 C   0  0  0  0  0  0  0  0  0  0  0  0
  152.1414  144.3885  158.8098 C   0  0  0  0  0  0  0  0  0  0  0  0
  151.2337  144.1542  157.8407 N   0  0  0  0  0  0  0  0  0  0  0  0
  151.0170  142.8789  157.4366 C   0  0  0  0  0  0  0  0  0  0  0  0
  150.0854  142.5190  156.4268 N   0  0  0  0  0  0  0  0  0  0  0  0
  150.1200  141.4597  155.5971 C   0  0  0  0  0  0  0  0  0  0  0  0
  151.0135  140.6120  155.5827 O   0  0  0  0  0  0  0  0  0  0  0  0
  148.9516  141.3614  154.6080 C   0  0  2  0  0  0  0  0  0  0  0  0
  147.5719  141.6627  155.2211 C   0  0  0  0  0  0  0  0  0  0  0  0
  146.9438  140.2915  155.3601 C   0  0  0  0  0  0  0  0  0  0  0  0
  147.5418  139.5595  154.1639 C   0  0  2  0  0  0  0  0  0  0  0  0
  147.4948  138.0323  154.2762 C   0  0  0  0  0  0  0  0  0  0  0  0
  148.8870  140.0156  154.1379 O   0  0  0  0  0  0  0  0  0  0  0  0
  151.7242  141.7989  158.0103 C   0  0  0  0  0  0  0  0  0  0  0  0
  154.7400  140.2265  160.8663 H   0  0  0  0  0  0  0  0  0  0  0  0
  153.8729  141.6482  161.4336 H   0  0  0  0  0  0  0  0  0  0  0  0
  155.1246  141.7992  160.1772 H   0  0  0  0  0  0  0  0  0  0  0  0
  153.5958  143.6359  160.2031 H   0  0  0  0  0  0  0  0  0  0  0  0
  152.2775  145.4203  159.0981 H   0  0  0  0  0  0  0  0  0  0  0  0
  149.2996  143.1431  156.3179 H   0  0  0  0  0  0  0  0  0  0  0  0
  149.1276  142.0291  153.7629 H   0  0  0  0  0  0  0  0  0  0  0  0
  147.6087  142.2004  156.1694 H   0  0  0  0  0  0  0  0  0  0  0  0
  146.9876  142.2691  154.5277 H   0  0  0  0  0  0  0  0  0  0  0  0
  147.2643  139.8272  156.2939 H   0  0  0  0  0  0  0  0  0  0  0  0
  145.8539  140.3168  155.3444 H   0  0  0  0  0  0  0  0  0  0  0  0
  147.0480  139.8852  153.2468 H   0  0  0  0  0  0  0  0  0  0  0  0
  146.4658  137.6754  154.3247 H   0  0  0  0  0  0  0  0  0  0  0  0
  148.0129  137.6858  155.1709 H   0  0  0  0  0  0  0  0  0  0  0  0
  147.9701  137.5643  153.4141 H   0  0  0  0  0  0  0  0  0  0  0  0
  151.5403  140.7877  157.6767 H   0  0  0  0  0  0  0  0  0  0  0  0
  1  2  1  0  0  0  0
  1 18  1  0  0  0  0
  1 19  1  0  0  0  0
  1 20  1  0  0  0  0
  2  3  1  0  0  0  0
  3 17  1  0  0  0  0
  3  4  2  0  0  0  0
  4  5  1  0  0  0  0
  4 21  1  0  0  0  0
  5  6  2  0  0  0  0
  5 22  1  0  0  0  0
  6  7  1  0  0  0  0
  7  8  1  0  0  0  0
  7 17  2  0  0  0  0
  8  9  1  0  0  0  0
  8 23  1  0  0  0  0
  9 10  2  0  0  0  0
  9 11  1  0  0  0  0
 11 16  1  0  0  0  0
 11 12  1  0  0  0  0
 11 24  1  0  0  0  0
 12 13  1  0  0  0  0
 12 25  1  0  0  0  0
 12 26  1  0  0  0  0
 13 14  1  0  0  0  0
 13 27  1  0  0  0  0
 13 28  1  0  0  0  0
 14 15  1  0  0  0  0
 14 16  1  0  0  0  0
 14 29  1  0  0  0  0
 15 30  1  0  0  0  0
 15 31  1  0  0  0  0
 15 32  1  0  0  0  0
 17 33  1  0  0  0  0
M  END
> <s_m_source_file>
AV-unprocessed.smi

> <i_m_source_file_index>
2489

> <i_lp_mmshare_version>
43012

> <i_f3d_flags>
0

> <s_epik_input>
W0NIM11PYzFbY0hdW2NIXW5jKFtjSF0xKVtOSF1DKD1PKVtDQEBIXTJbQ0gyXVtDSDJdW0NASF0oTzIpW0NIM10=

> <s_epik_cmdline>
J2VwaWtfcHl0aG9uJywgJy1waCcsICc3LjAnLCAnLXRuJywgJzgnLCAnLW1hJywgJzIwMCcsICctbWV0YWxfYmluZGluZycsICctaW1hZScsICc8aW5maWxlLm1hZT4nLCAnLW9tYWUnLCAnPG91dGZpbGUubWFlPic=

> <r_epik_Ionization_Penalty>
0.0871917

> <r_epik_Ionization_Penalty_Charging>
0

> <r_epik_Ionization_Penalty_Neutral>
0.0871917

> <r_epik_State_Penalty>
0.146479

> <r_epik_Charging_Adjusted_Penalty>
0.146479

> <i_epik_Tot_Q>
0

> <i_epik_Tot_abs_Q>
0

> <r_epik_Metal_State_Penalty>
0.067489

> <b_epik_Metal_Only>
0

> <s_lp_Force_Field>
OPLS_2005

> <r_lp_Energy>
22.1888

> <b_lp_Chiralities_Consistent>
1

> <s_lp_Variant>
AV-unprocessed.smi:2489-3

> <Gold.Version>
5.8.1

> <Gold.Id.Protein>
6NUR|6NUR_protein|mol2

> <Gold.PLP.Fitness>
36.3903

> <Gold.PLP.PLP>
-33.6655

> <Gold.PLP.part.hbond>
-1.8433

> <Gold.PLP.part.metal>
0.0000

> <Gold.PLP.part.buried>
-5.7922

> <Gold.PLP.part.nonpolar>
-27.7258

> <Gold.PLP.part.repulsive>
1.1884

> <Gold.PLP.ligand.clash>
0.0000

> <Gold.PLP.ligand.torsion>
0.6675

> <Gold.PLP.Chemscore.Hbond>
1.3504

> <Gold.PLP.Chemscore.CHOScore>
0.0000

> <Gold.PLP.Chemscore.Metal>
0.0000

> <Gold.Chemscore.Hbonds>
donor molecule, donor type, donor heavy atom, donor atom, acceptor molecule, acceptor atom, score
      L1  H     8    23       P1  8028  0.83
      P1  H  7989  7998       L1    10  0.48

> <Gold.PLP.Chemscore.Internal.Correction>
0.0089

> <Gold.Rescore>
     Score         DG    S(hbond)    S(metal)    S(lipo)     H(rot)  DE(clash)    DE(int)     intcor
     13.06     -15.18       0.99        0.00      81.43       1.23       0.15       1.96       ----

> <Gold.Chemscore.Fitness>
13.0626

> <Gold.Chemscore.DG>
-15.1755

> <Gold.Chemscore.ZeroCoef>
-5.4800

> <Gold.Chemscore.Hbond>
0.9904

> <Gold.Chemscore.Metal>
0.0000

> <Gold.Chemscore.Lipo>
81.4293

> <Gold.Chemscore.Internal_Hbond>
0.0000

> <Gold.Chemscore.DEClash>
0.1540

> <Gold.Chemscore.DEInternal>
1.9589

> <Gold.Chemscore.Rot>
1.2264

> <Gold.Chemscore.Internal.Correction>
   9.000000E+99

> <Gold.Chemscore.Hbonds>
donor molecule, donor type, donor heavy atom, donor atom, acceptor molecule, acceptor atom, score
      L1  H     8    23       P1  8028  0.81
      P1  H  7989  7998       L1    10  0.09

> <Gold.Chemscore.Hbond.Weighted>
-3.3079

> <Gold.Chemscore.Metal.Weighted>
-0.0000

> <Gold.Chemscore.Lipo.Weighted>
-9.5272

> <Gold.Chemscore.Internal_Hbond.Weighted>
0.0000

> <Gold.Chemscore.DEClash.Weighted>
0.1540

> <Gold.Chemscore.DEInternal.Weighted>
1.9589

> <Gold.Chemscore.Rot.Weighted>
3.1396

> <Gold.Chemscore.Internal.Correction.Weighted>
   9.000000E+99

> <Gold.Protein.RotatedTorsions>
[ 6907 6896 6895 6894 ] final  -81.15 input  -60.11 | X-H torsion
[ 7974 7965 7964 7962 ] final  -61.72 input  175.53 | X-H torsion
[ 8008 7997 7996 7995 ] final  137.02 input   59.86 | X-H torsion
[ 10167 10162 10161 10158 ] final -129.91 input  -65.29 | X-H torsion
[ 10718 10713 10712 10709 ] final -178.13 input   66.30 | X-H torsion
[ 10763 10752 10751 10750 ] final    0.79 input  -60.55 | X-H torsion
[ 11005 11000 10999 10996 ] final  -92.81 input  -57.11 | X-H torsion

> <Gold.Protein.ActiveResidues>
 VAL166  LYS551  ARG553  GLY616  TRP617  ASP618  TYR619  PRO620  LYS621  CYS622 
 ASP623  PHE694  ASN695  SER759  ASP760  ASP761  ALA762  ILE779  LEU786  VAL792 
 PHE793  MET794  SER795  GLU796  ALA797  LYS798  CYS799  TRP800  GLU811  SER814 

> <Gold.Protein.RotatedAtoms>
  150.6917  134.3861  159.5055 H   0  0  0  0  0  0  0  0  0  0  0  0  # atno 6907 bound_to 6896
  152.1656  134.8873  160.0547 H   0  0  0  0  0  0  0  0  0  0  0  0  # atno 6908 bound_to 6896
  151.9919  133.3759  159.4184 H   0  0  0  0  0  0  0  0  0  0  0  0  # atno 6909 bound_to 6896
  145.8000  140.8661  143.0236 H   0  0  0  0  0  0  0  0  0  0  0  0  # atno 7974 bound_to 7965
  156.3003  140.2430  156.3840 H   0  0  0  0  0  0  0  0  0  0  0  0  # atno 8008 bound_to 7997
  154.8674  140.0417  157.1723 H   0  0  0  0  0  0  0  0  0  0  0  0  # atno 8009 bound_to 7997
  154.8831  140.2952  155.5417 H   0  0  0  0  0  0  0  0  0  0  0  0  # atno 8010 bound_to 7997
  139.9348  143.6230  152.2520 H   0  0  0  0  0  0  0  0  0  0  0  0  # atno 10167 bound_to 10162
  156.8397  130.9682  151.3101 H   0  0  0  0  0  0  0  0  0  0  0  0  # atno 10718 bound_to 10713
  153.3161  135.6966  153.7072 H   0  0  0  0  0  0  0  0  0  0  0  0  # atno 10763 bound_to 10752
  153.5930  135.3476  155.2918 H   0  0  0  0  0  0  0  0  0  0  0  0  # atno 10764 bound_to 10752
  154.8587  135.4322  154.2313 H   0  0  0  0  0  0  0  0  0  0  0  0  # atno 10765 bound_to 10752
  141.1513  133.7846  157.0073 H   0  0  0  0  0  0  0  0  0  0  0  0  # atno 11005 bound_to 11000
  144.6770  140.0245  143.7483 LP  0  0  0  0  0  0  0  0  0  0  0  0  # atno 17320 bound_to 7965
  145.9888  139.2998  143.0997 LP  0  0  0  0  0  0  0  0  0  0  0  0  # atno 17321 bound_to 7965
  139.6752  144.7659  151.1709 LP  0  0  0  0  0  0  0  0  0  0  0  0  # atno 17342 bound_to 10162
  140.7627  143.5805  150.8900 LP  0  0  0  0  0  0  0  0  0  0  0  0  # atno 17343 bound_to 10162
  157.6362  130.8769  149.9364 LP  0  0  0  0  0  0  0  0  0  0  0  0  # atno 17370 bound_to 10713
  156.0887  130.3665  150.0436 LP  0  0  0  0  0  0  0  0  0  0  0  0  # atno 17371 bound_to 10713
  140.0901  134.9597  157.1762 LP  0  0  0  0  0  0  0  0  0  0  0  0  # atno 17394 bound_to 11000
  140.3458  134.2654  155.7205 LP  0  0  0  0  0  0  0  0  0  0  0  0  # atno 17395 bound_to 11000

$$$$
