AV-unprocessed.smi:193|AV-procd|sdf|1502|dock9
  -GOLD-   2262019333D 1   1.00000     0.00000
 Structure written by MMmdl.
 62 66  0  0  0  0  0  0  0  0  2 V2000
  152.5792  142.6165  160.5412 C   0  0  0  0  0  0  0  0  0  0  0  0
  153.2483  141.3425  160.0031 C   0  0  2  0  0  0  0  0  0  0  0  0
  152.3111  140.6044  159.0277 C   0  0  0  0  0  0  0  0  0  0  0  0
  153.0585  139.8563  158.0185 N   0  0  0  0  0  0  0  0  0  0  0  0
  152.3538  139.6692  156.8832 C   0  0  0  0  0  0  0  0  0  0  0  0
  152.7321  138.6516  156.0723 N   0  0  0  0  0  0  0  0  0  0  0  0
  152.0687  138.4273  154.9333 C   0  0  0  0  0  0  0  0  0  0  0  0
  151.0211  139.0870  154.4328 N   0  0  0  0  0  0  0  0  0  0  0  0
  150.6399  140.1102  155.2508 C   0  0  0  0  0  0  0  0  0  0  0  0
  151.2474  140.4699  156.4855 C   0  0  0  0  0  0  0  0  0  0  0  0
  150.5926  141.5630  157.0396 N   0  0  0  0  0  0  0  0  0  0  0  0
  149.6471  141.8327  156.1804 C   0  0  0  0  0  0  0  0  0  0  0  0
  149.5993  141.0064  155.0798 N   0  0  0  0  0  0  0  0  0  0  0  0
  148.6526  141.0782  153.9769 C   0  0  0  0  0  0  0  0  0  0  0  0
  147.1748  140.9029  154.4065 C   0  0  0  0  0  0  0  0  0  0  0  0
  146.4031  140.7312  153.2301 O   0  0  0  0  0  0  0  0  0  0  0  0
  147.0124  139.6440  155.2824 C   0  0  0  0  0  0  0  0  0  0  0  0
  145.5950  139.5249  155.8711 C   0  0  0  0  0  0  0  0  0  0  0  0
  145.2679  140.7045  156.5952 O   0  0  0  0  0  0  0  0  0  0  0  0
  145.2365  141.8638  155.7721 C   0  0  0  0  0  0  0  0  0  0  0  0
  146.6297  142.1274  155.1739 C   0  0  0  0  0  0  0  0  0  0  0  0
  153.8006  138.6616  158.4095 C   0  0  0  0  0  0  0  0  0  0  0  0
  154.7989  138.9026  159.5520 C   0  0  0  0  0  0  0  0  0  0  0  0
  154.0828  139.0643  160.8401 N   0  3  1  0  0  0  0  0  0  0  0  0
  154.7735  138.3813  161.9593 C   0  0  1  0  0  0  0  0  0  0  0  0
  153.8787  137.4715  162.7709 C   0  0  0  0  0  0  0  0  0  0  0  0
  154.8920  136.8741  161.8188 C   0  0  1  0  0  0  0  0  0  0  0  0
  154.4291  136.1110  160.5910 C   0  0  0  0  0  0  0  0  0  0  0  0
  153.7300  140.4671  161.1842 C   0  0  0  0  0  0  0  0  0  0  0  0
  151.6726  142.3840  161.1007 H   0  0  0  0  0  0  0  0  0  0  0  0
  152.3042  143.2901  159.7288 H   0  0  0  0  0  0  0  0  0  0  0  0
  153.2500  143.1635  161.2046 H   0  0  0  0  0  0  0  0  0  0  0  0
  154.1215  141.6766  159.4403 H   0  0  0  0  0  0  0  0  0  0  0  0
  151.6335  139.9431  159.5694 H   0  0  0  0  0  0  0  0  0  0  0  0
  151.6828  141.3362  158.5161 H   0  0  0  0  0  0  0  0  0  0  0  0
  152.4287  137.6017  154.3369 H   0  0  0  0  0  0  0  0  0  0  0  0
  148.9488  142.6439  156.3283 H   0  0  0  0  0  0  0  0  0  0  0  0
  148.7903  142.0350  153.4711 H   0  0  0  0  0  0  0  0  0  0  0  0
  148.9229  140.3114  153.2496 H   0  0  0  0  0  0  0  0  0  0  0  0
  145.5054  140.5757  153.4813 H   0  0  0  0  0  0  0  0  0  0  0  0
  147.2578  138.7461  154.7135 H   0  0  0  0  0  0  0  0  0  0  0  0
  147.7243  139.6849  156.1079 H   0  0  0  0  0  0  0  0  0  0  0  0
  144.8560  139.3475  155.0883 H   0  0  0  0  0  0  0  0  0  0  0  0
  145.5444  138.6731  156.5494 H   0  0  0  0  0  0  0  0  0  0  0  0
  144.4876  141.7463  154.9875 H   0  0  0  0  0  0  0  0  0  0  0  0
  144.9257  142.7152  156.3779 H   0  0  0  0  0  0  0  0  0  0  0  0
  147.3136  142.3747  155.9868 H   0  0  0  0  0  0  0  0  0  0  0  0
  146.5898  143.0059  154.5289 H   0  0  0  0  0  0  0  0  0  0  0  0
  153.1076  137.8654  158.6834 H   0  0  0  0  0  0  0  0  0  0  0  0
  154.3522  138.3032  157.5388 H   0  0  0  0  0  0  0  0  0  0  0  0
  155.4384  138.0206  159.6105 H   0  0  0  0  0  0  0  0  0  0  0  0
  155.4677  139.7404  159.3506 H   0  0  0  0  0  0  0  0  0  0  0  0
  155.5565  138.9537  162.4538 H   0  0  0  0  0  0  0  0  0  0  0  0
  154.0857  137.3817  163.8355 H   0  0  0  0  0  0  0  0  0  0  0  0
  152.8272  137.4011  162.4976 H   0  0  0  0  0  0  0  0  0  0  0  0
  155.7757  136.4378  162.2808 H   0  0  0  0  0  0  0  0  0  0  0  0
  153.4756  136.4903  160.2223 H   0  0  0  0  0  0  0  0  0  0  0  0
  154.3023  135.0563  160.8362 H   0  0  0  0  0  0  0  0  0  0  0  0
  155.1704  136.1931  159.7959 H   0  0  0  0  0  0  0  0  0  0  0  0
  154.5922  140.9501  161.6467 H   0  0  0  0  0  0  0  0  0  0  0  0
  152.9543  140.4287  161.9500 H   0  0  0  0  0  0  0  0  0  0  0  0
  153.2076  138.5747  160.7199 H   0  0  0  0  0  0  0  0  0  0  0  0
  1  2  1  0  0  0  0
  1 30  1  0  0  0  0
  1 31  1  0  0  0  0
  1 32  1  0  0  0  0
  2 29  1  0  0  0  0
  2  3  1  0  0  0  0
  2 33  1  0  0  0  0
  3  4  1  0  0  0  0
  3 34  1  0  0  0  0
  3 35  1  0  0  0  0
  4  5  1  0  0  0  0
  4 22  1  0  0  0  0
  5 10  1  0  0  0  0
  5  6  2  0  0  0  0
  6  7  1  0  0  0  0
  7  8  2  0  0  0  0
  7 36  1  0  0  0  0
  8  9  1  0  0  0  0
  9 13  1  0  0  0  0
  9 10  2  0  0  0  0
 10 11  1  0  0  0  0
 11 12  2  0  0  0  0
 12 13  1  0  0  0  0
 12 37  1  0  0  0  0
 13 14  1  0  0  0  0
 14 15  1  0  0  0  0
 14 38  1  0  0  0  0
 14 39  1  0  0  0  0
 15 21  1  0  0  0  0
 15 16  1  0  0  0  0
 15 17  1  0  0  0  0
 16 40  1  0  0  0  0
 17 18  1  0  0  0  0
 17 41  1  0  0  0  0
 17 42  1  0  0  0  0
 18 19  1  0  0  0  0
 18 43  1  0  0  0  0
 18 44  1  0  0  0  0
 19 20  1  0  0  0  0
 20 21  1  0  0  0  0
 20 45  1  0  0  0  0
 20 46  1  0  0  0  0
 21 47  1  0  0  0  0
 21 48  1  0  0  0  0
 22 23  1  0  0  0  0
 22 49  1  0  0  0  0
 22 50  1  0  0  0  0
 23 24  1  0  0  0  0
 23 51  1  0  0  0  0
 23 52  1  0  0  0  0
 24 25  1  0  0  0  0
 24 29  1  0  0  0  0
 24 62  1  0  0  0  0
 25 27  1  0  0  0  0
 25 26  1  0  0  0  0
 25 53  1  0  0  0  0
 26 27  1  0  0  0  0
 26 54  1  0  0  0  0
 26 55  1  0  0  0  0
 27 28  1  0  0  0  0
 27 56  1  0  0  0  0
 28 57  1  0  0  0  0
 28 58  1  0  0  0  0
 28 59  1  0  0  0  0
 29 60  1  0  0  0  0
 29 61  1  0  0  0  0
M  CHG  1  24   1
M  END
> <s_m_source_file>
AV-unprocessed.smi

> <i_m_source_file_index>
193

> <i_lp_mmshare_version>
43012

> <i_f3d_flags>
0

> <s_epik_input>
W0NIM11bQ0BASF0xW0NIMl1bQ0BIXTFOKFtDSDJdMilbQ0gyXVtDSDJdTihbQ0gyXVtDQEhdMltDSDNdKWMobltjSF1uMyljKGMzNCluW2NIXW40W0NIMl1DNShbT0hdKVtDSDJdW0NIMl1PW0NIMl1bQ0gyXTU=

> <s_epik_cmdline>
J2VwaWtfcHl0aG9uJywgJy1waCcsICc3LjAnLCAnLXRuJywgJzgnLCAnLW1hJywgJzIwMCcsICctbWV0YWxfYmluZGluZycsICctaW1hZScsICc8aW5maWxlLm1hZT4nLCAnLW9tYWUnLCAnPG91dGZpbGUubWFlPic=

> <r_lp_tautomer_probability>
1

> <r_epik_Ionization_Penalty>
0.0540825

> <r_epik_Ionization_Penalty_Charging>
0.0538476

> <r_epik_Ionization_Penalty_Neutral>
0.000234891

> <r_epik_State_Penalty>
0.0200719

> <r_epik_Charging_Adjusted_Penalty>
0.0739194

> <i_epik_Tot_Q>
1

> <i_epik_Tot_abs_Q>
1

> <r_epik_Metal_State_Penalty>
0.0199414

> <b_epik_Metal_Only>
0

> <s_lp_Force_Field>
OPLS_2005

> <r_lp_Energy>
58.7768

> <b_lp_Chiralities_Consistent>
1

> <s_lp_Variant>
AV-unprocessed.smi:193-7

> <Gold.Version>
5.8.1

> <Gold.Id.Protein>
6NUR|6NUR_protein|mol2

> <Gold.PLP.Fitness>
47.0497

> <Gold.PLP.PLP>
-43.3171

> <Gold.PLP.part.hbond>
-3.5917

> <Gold.PLP.part.metal>
0.0000

> <Gold.PLP.part.buried>
3.2698

> <Gold.PLP.part.nonpolar>
-42.1411

> <Gold.PLP.part.repulsive>
0.2649

> <Gold.PLP.ligand.clash>
0.0000

> <Gold.PLP.ligand.torsion>
1.3593

> <Gold.PLP.Chemscore.Hbond>
0.6240

> <Gold.PLP.Chemscore.CHOScore>
1.0000

> <Gold.PLP.Chemscore.Metal>
0.0000

> <Gold.Chemscore.Hbonds>
donor molecule, donor type, donor heavy atom, donor atom, acceptor molecule, acceptor atom, score
      L1  H    16    40       P1 10175  0.62
      L1  C    12    37       P1  8028  1.00

> <Gold.PLP.Chemscore.Internal.Correction>
1.5791

> <Gold.Rescore>
     Score         DG    S(hbond)    S(metal)    S(lipo)     H(rot)  DE(clash)    DE(int)     intcor
      9.59     -13.86       0.67        0.00     100.64       2.20       0.41       3.87       ----

> <Gold.Chemscore.Fitness>
9.5876

> <Gold.Chemscore.DG>
-13.8646

> <Gold.Chemscore.ZeroCoef>
-5.4800

> <Gold.Chemscore.Hbond>
0.6725

> <Gold.Chemscore.Metal>
0.0000

> <Gold.Chemscore.Lipo>
100.6409

> <Gold.Chemscore.Internal_Hbond>
0.0000

> <Gold.Chemscore.DEClash>
0.4052

> <Gold.Chemscore.DEInternal>
3.8719

> <Gold.Chemscore.Rot>
2.2018

> <Gold.Chemscore.Internal.Correction>
   9.000000E+99

> <Gold.Chemscore.Hbonds>
donor molecule, donor type, donor heavy atom, donor atom, acceptor molecule, acceptor atom, score
      L1  H    16    40       P1 10175  0.57

> <Gold.Chemscore.Hbond.Weighted>
-2.2462

> <Gold.Chemscore.Metal.Weighted>
-0.0000

> <Gold.Chemscore.Lipo.Weighted>
-11.7750

> <Gold.Chemscore.Internal_Hbond.Weighted>
0.0000

> <Gold.Chemscore.DEClash.Weighted>
0.4052

> <Gold.Chemscore.DEInternal.Weighted>
3.8719

> <Gold.Chemscore.Rot.Weighted>
5.6366

> <Gold.Chemscore.Internal.Correction.Weighted>
   9.000000E+99

> <Gold.Protein.RotatedTorsions>
[ 6907 6896 6895 6894 ] final  101.13 input  -60.11 | X-H torsion
[ 7974 7965 7964 7962 ] final   28.99 input  175.53 | X-H torsion
[ 8008 7997 7996 7995 ] final   62.33 input   59.86 | X-H torsion
[ 10167 10162 10161 10158 ] final  134.59 input  -65.29 | X-H torsion
[ 10718 10713 10712 10709 ] final -115.54 input   66.30 | X-H torsion
[ 10763 10752 10751 10750 ] final  -13.47 input  -60.55 | X-H torsion
[ 11005 11000 10999 10996 ] final   73.73 input  -57.11 | X-H torsion

> <Gold.Protein.ActiveResidues>
 VAL166  LYS551  ARG553  GLY616  TRP617  ASP618  TYR619  PRO620  LYS621  CYS622 
 ASP623  PHE694  ASN695  SER759  ASP760  ASP761  ALA762  ILE779  LEU786  VAL792 
 PHE793  MET794  SER795  GLU796  ALA797  LYS798  CYS799  TRP800  GLU811  SER814 

> <Gold.Protein.RotatedAtoms>
  152.5356  134.0172  159.7964 H   0  0  0  0  0  0  0  0  0  0  0  0  # atno 6907 bound_to 6896
  151.0364  133.5737  159.2662 H   0  0  0  0  0  0  0  0  0  0  0  0  # atno 6908 bound_to 6896
  151.2722  135.0695  159.9192 H   0  0  0  0  0  0  0  0  0  0  0  0  # atno 6909 bound_to 6896
  146.1697  139.6981  142.8976 H   0  0  0  0  0  0  0  0  0  0  0  0  # atno 7974 bound_to 7965
  155.6126  140.3495  155.4627 H   0  0  0  0  0  0  0  0  0  0  0  0  # atno 8008 bound_to 7997
  156.0142  140.1240  157.0447 H   0  0  0  0  0  0  0  0  0  0  0  0  # atno 8009 bound_to 7997
  154.4292  140.1075  156.5859 H   0  0  0  0  0  0  0  0  0  0  0  0  # atno 8010 bound_to 7997
  139.5250  144.6560  151.5161 H   0  0  0  0  0  0  0  0  0  0  0  0  # atno 10167 bound_to 10162
  156.0902  130.6086  150.8919 H   0  0  0  0  0  0  0  0  0  0  0  0  # atno 10718 bound_to 10713
  153.5137  135.7016  153.5767 H   0  0  0  0  0  0  0  0  0  0  0  0  # atno 10763 bound_to 10752
  153.3846  135.3911  155.1881 H   0  0  0  0  0  0  0  0  0  0  0  0  # atno 10764 bound_to 10752
  154.8701  135.3843  154.4620 H   0  0  0  0  0  0  0  0  0  0  0  0  # atno 10765 bound_to 10752
  139.9425  134.7372  156.1062 H   0  0  0  0  0  0  0  0  0  0  0  0  # atno 11005 bound_to 11000
  145.4373  141.0420  143.2877 LP  0  0  0  0  0  0  0  0  0  0  0  0  # atno 17320 bound_to 7965
  144.8144  139.5903  143.7015 LP  0  0  0  0  0  0  0  0  0  0  0  0  # atno 17321 bound_to 7965
  140.6386  143.8935  150.6670 LP  0  0  0  0  0  0  0  0  0  0  0  0  # atno 17342 bound_to 10162
  140.2262  143.3771  152.1603 LP  0  0  0  0  0  0  0  0  0  0  0  0  # atno 17343 bound_to 10162
  157.6049  131.0939  150.8896 LP  0  0  0  0  0  0  0  0  0  0  0  0  # atno 17370 bound_to 10713
  156.9046  130.5259  149.5282 LP  0  0  0  0  0  0  0  0  0  0  0  0  # atno 17371 bound_to 10713
  141.1065  133.6658  156.2876 LP  0  0  0  0  0  0  0  0  0  0  0  0  # atno 17394 bound_to 11000
  140.5915  134.5646  157.5500 LP  0  0  0  0  0  0  0  0  0  0  0  0  # atno 17395 bound_to 11000

$$$$
