AV-unprocessed.smi:298|AV-procd|sdf|2262|dock6
  -GOLD-   2262022153D 1   1.00000     0.00000
 Structure written by MMmdl.
 38 40  0  0  0  0  0  0  0  0  1 V2000
  152.9264  142.8418  161.4362 C   0  0  0  0  0  0  0  0  0  0  0  0
  152.3570  142.5046  160.0695 C   0  0  0  0  0  0  0  0  0  0  0  0
  152.7746  141.3182  159.4247 C   0  0  0  0  0  0  0  0  0  0  0  0
  152.2659  140.9658  158.1555 C   0  0  0  0  0  0  0  0  0  0  0  0
  152.5273  139.8672  157.3544 N   0  0  0  0  0  0  0  0  0  0  0  0
  151.7458  140.1076  156.3054 C   0  0  0  0  0  0  0  0  0  0  0  0
  151.0073  141.2335  156.3329 N   0  0  0  0  0  0  0  0  0  0  0  0
  150.0839  141.7010  155.3152 C   0  0  0  0  0  0  0  0  0  0  0  0
  148.6710  141.1014  155.4802 C   0  0  1  0  0  0  0  0  0  0  0  0
  147.6951  142.0990  155.2463 O   0  0  0  0  0  0  0  0  0  0  0  0
  148.4033  139.8899  154.5603 C   0  0  0  0  0  0  0  0  0  0  0  0
  149.3647  138.8102  154.7168 N   0  0  0  0  0  0  0  0  0  0  0  0
  150.4596  138.5147  154.0085 C   0  0  0  0  0  0  0  0  0  0  0  0
  151.1069  137.4384  154.4374 N   0  0  0  0  0  0  0  0  0  0  0  0
  150.2973  137.1091  155.4854 C   0  0  0  0  0  0  0  0  0  0  0  0
  150.5719  135.9541  156.3236 C   0  0  0  0  0  0  0  0  0  0  0  0
  150.7907  135.0346  156.9913 N   0  0  0  0  0  0  0  0  0  0  0  0
  149.2443  137.8927  155.7072 N   0  0  0  0  0  0  0  0  0  0  0  0
  151.3209  141.8404  157.5442 C   0  0  0  0  0  0  0  0  0  0  0  0
  150.8987  143.0242  158.1743 C   0  0  0  0  0  0  0  0  0  0  0  0
  151.4164  143.3610  159.4424 C   0  0  0  0  0  0  0  0  0  0  0  0
  150.9518  144.6401  160.1160 C   0  0  0  0  0  0  0  0  0  0  0  0
  153.6443  142.0900  161.7649 H   0  0  0  0  0  0  0  0  0  0  0  0
  152.1305  142.8914  162.1796 H   0  0  0  0  0  0  0  0  0  0  0  0
  153.4384  143.8041  161.4111 H   0  0  0  0  0  0  0  0  0  0  0  0
  153.4898  140.6651  159.9028 H   0  0  0  0  0  0  0  0  0  0  0  0
  151.7041  139.4243  155.4698 H   0  0  0  0  0  0  0  0  0  0  0  0
  150.0549  142.7902  155.3588 H   0  0  0  0  0  0  0  0  0  0  0  0
  150.4904  141.4401  154.3370 H   0  0  0  0  0  0  0  0  0  0  0  0
  148.5484  140.7754  156.5137 H   0  0  0  0  0  0  0  0  0  0  0  0
  148.0615  142.9386  155.4791 H   0  0  0  0  0  0  0  0  0  0  0  0
  147.4112  139.4873  154.7676 H   0  0  0  0  0  0  0  0  0  0  0  0
  148.3938  140.2012  153.5146 H   0  0  0  0  0  0  0  0  0  0  0  0
  150.7854  139.0959  153.1582 H   0  0  0  0  0  0  0  0  0  0  0  0
  150.1790  143.6653  157.6865 H   0  0  0  0  0  0  0  0  0  0  0  0
  150.2158  145.1663  159.5072 H   0  0  0  0  0  0  0  0  0  0  0  0
  151.7938  145.3133  160.2793 H   0  0  0  0  0  0  0  0  0  0  0  0
  150.4917  144.4199  161.0795 H   0  0  0  0  0  0  0  0  0  0  0  0
  1  2  1  0  0  0  0
  1 23  1  0  0  0  0
  1 24  1  0  0  0  0
  1 25  1  0  0  0  0
  2 21  1  0  0  0  0
  2  3  2  0  0  0  0
  3  4  1  0  0  0  0
  3 26  1  0  0  0  0
  4 19  2  0  0  0  0
  4  5  1  0  0  0  0
  5  6  2  0  0  0  0
  6  7  1  0  0  0  0
  6 27  1  0  0  0  0
  7  8  1  0  0  0  0
  7 19  1  0  0  0  0
  8  9  1  0  0  0  0
  8 28  1  0  0  0  0
  8 29  1  0  0  0  0
  9 10  1  0  0  0  0
  9 11  1  0  0  0  0
  9 30  1  0  0  0  0
 10 31  1  0  0  0  0
 11 12  1  0  0  0  0
 11 32  1  0  0  0  0
 11 33  1  0  0  0  0
 12 18  1  0  0  0  0
 12 13  1  0  0  0  0
 13 14  2  0  0  0  0
 13 34  1  0  0  0  0
 14 15  1  0  0  0  0
 15 16  1  0  0  0  0
 15 18  2  0  0  0  0
 16 17  3  0  0  0  0
 19 20  1  0  0  0  0
 20 21  2  0  0  0  0
 20 35  1  0  0  0  0
 21 22  1  0  0  0  0
 22 36  1  0  0  0  0
 22 37  1  0  0  0  0
 22 38  1  0  0  0  0
M  END
> <s_m_source_file>
AV-unprocessed.smi

> <i_m_source_file_index>
298

> <i_lp_mmshare_version>
43012

> <i_f3d_flags>
0

> <s_epik_input>
W0NIM11jKFtjSF0xKWMoW0NIM10pW2NIXWMoYzEyKW4oW2NIXW4yKVtDSDJdW0NASF0oW09IXSlbQ0gyXW4zW2NIXW5jKG4zKUMjTg==

> <s_epik_cmdline>
J2VwaWtfcHl0aG9uJywgJy1waCcsICc3LjAnLCAnLXRuJywgJzgnLCAnLW1hJywgJzIwMCcsICctbWV0YWxfYmluZGluZycsICctaW1hZScsICc8aW5maWxlLm1hZT4nLCAnLW9tYWUnLCAnPG91dGZpbGUubWFlPic=

> <r_epik_Ionization_Penalty>
0.0968684

> <r_epik_Ionization_Penalty_Charging>
0

> <r_epik_Ionization_Penalty_Neutral>
0.0968684

> <r_epik_State_Penalty>
0.0870047

> <r_epik_Charging_Adjusted_Penalty>
0.0870047

> <i_epik_Tot_Q>
0

> <i_epik_Tot_abs_Q>
0

> <r_epik_Metal_State_Penalty>
0.0746849

> <b_epik_Metal_Only>
0

> <s_lp_Force_Field>
OPLS_2005

> <r_lp_Energy>
12.6861

> <b_lp_Chiralities_Consistent>
1

> <s_lp_Variant>
AV-unprocessed.smi:298-2

> <Gold.Version>
5.8.1

> <Gold.Id.Protein>
6NUR|6NUR_protein|mol2

> <Gold.PLP.Fitness>
47.9873

> <Gold.PLP.PLP>
-41.4697

> <Gold.PLP.part.hbond>
-2.8871

> <Gold.PLP.part.metal>
0.0000

> <Gold.PLP.part.buried>
-6.4962

> <Gold.PLP.part.nonpolar>
-32.6836

> <Gold.PLP.part.repulsive>
0.2312

> <Gold.PLP.ligand.clash>
0.0000

> <Gold.PLP.ligand.torsion>
1.2475

> <Gold.PLP.Chemscore.Hbond>
2.0000

> <Gold.PLP.Chemscore.CHOScore>
1.0000

> <Gold.PLP.Chemscore.Metal>
0.0000

> <Gold.Chemscore.Hbonds>
donor molecule, donor type, donor heavy atom, donor atom, acceptor molecule, acceptor atom, score
      L1  H    10    31       P1  8028  1.00
      P1  H  7997  8009       L1     5  1.00
      L1  C    13    34       P1  7957  1.00

> <Gold.PLP.Chemscore.Internal.Correction>
0.0128

> <Gold.Rescore>
     Score         DG    S(hbond)    S(metal)    S(lipo)     H(rot)  DE(clash)    DE(int)     intcor
     15.61     -16.95       2.47        0.00      93.72       3.03       0.27       1.07       ----

> <Gold.Chemscore.Fitness>
15.6110

> <Gold.Chemscore.DG>
-16.9484

> <Gold.Chemscore.ZeroCoef>
-5.4800

> <Gold.Chemscore.Hbond>
2.4743

> <Gold.Chemscore.Metal>
0.0000

> <Gold.Chemscore.Lipo>
93.7202

> <Gold.Chemscore.Internal_Hbond>
0.0000

> <Gold.Chemscore.DEClash>
0.2699

> <Gold.Chemscore.DEInternal>
1.0676

> <Gold.Chemscore.Rot>
3.0316

> <Gold.Chemscore.Internal.Correction>
   9.000000E+99

> <Gold.Chemscore.Hbonds>
donor molecule, donor type, donor heavy atom, donor atom, acceptor molecule, acceptor atom, score
      L1  H    10    31       P1  8028  0.87
      P1  H  7997  8009       L1     5  0.18

> <Gold.Chemscore.Hbond.Weighted>
-8.2640

> <Gold.Chemscore.Metal.Weighted>
-0.0000

> <Gold.Chemscore.Lipo.Weighted>
-10.9653

> <Gold.Chemscore.Internal_Hbond.Weighted>
0.0000

> <Gold.Chemscore.DEClash.Weighted>
0.2699

> <Gold.Chemscore.DEInternal.Weighted>
1.0676

> <Gold.Chemscore.Rot.Weighted>
7.7609

> <Gold.Chemscore.Internal.Correction.Weighted>
   9.000000E+99

> <Gold.Protein.RotatedTorsions>
[ 6907 6896 6895 6894 ] final   67.74 input  -60.11 | X-H torsion
[ 7974 7965 7964 7962 ] final  -17.96 input  175.53 | X-H torsion
[ 8008 7997 7996 7995 ] final -172.13 input   59.86 | X-H torsion
[ 10167 10162 10161 10158 ] final   35.34 input  -65.29 | X-H torsion
[ 10718 10713 10712 10709 ] final  152.31 input   66.30 | X-H torsion
[ 10763 10752 10751 10750 ] final -144.86 input  -60.55 | X-H torsion
[ 11005 11000 10999 10996 ] final   18.14 input  -57.11 | X-H torsion

> <Gold.Protein.ActiveResidues>
 VAL166  LYS551  ARG553  GLY616  TRP617  ASP618  TYR619  PRO620  LYS621  CYS622 
 ASP623  PHE694  ASN695  SER759  ASP760  ASP761  ALA762  ILE779  LEU786  VAL792 
 PHE793  MET794  SER795  GLU796  ALA797  LYS798  CYS799  TRP800  GLU811  SER814 

> <Gold.Protein.RotatedAtoms>
  152.4573  134.5264  159.9797 H   0  0  0  0  0  0  0  0  0  0  0  0  # atno 6907 bound_to 6896
  151.5321  133.3441  159.2928 H   0  0  0  0  0  0  0  0  0  0  0  0  # atno 6908 bound_to 6896
  150.8522  134.7880  159.7080 H   0  0  0  0  0  0  0  0  0  0  0  0  # atno 6909 bound_to 6896
  146.1916  140.3853  142.8456 H   0  0  0  0  0  0  0  0  0  0  0  0  # atno 7974 bound_to 7965
  155.9406  140.1108  157.1058 H   0  0  0  0  0  0  0  0  0  0  0  0  # atno 8008 bound_to 7997
  154.4088  140.1220  156.4988 H   0  0  0  0  0  0  0  0  0  0  0  0  # atno 8009 bound_to 7997
  155.6966  140.3472  155.4918 H   0  0  0  0  0  0  0  0  0  0  0  0  # atno 8010 bound_to 7997
  140.4231  144.1432  150.6150 H   0  0  0  0  0  0  0  0  0  0  0  0  # atno 10167 bound_to 10162
  157.2594  131.0795  151.1676 H   0  0  0  0  0  0  0  0  0  0  0  0  # atno 10718 bound_to 10713
  154.8409  135.3429  154.6413 H   0  0  0  0  0  0  0  0  0  0  0  0  # atno 10763 bound_to 10752
  153.7024  135.6969  153.5064 H   0  0  0  0  0  0  0  0  0  0  0  0  # atno 10764 bound_to 10752
  153.2513  135.4352  155.0754 H   0  0  0  0  0  0  0  0  0  0  0  0  # atno 10765 bound_to 10752
  140.4281  134.1448  155.7678 H   0  0  0  0  0  0  0  0  0  0  0  0  # atno 11005 bound_to 11000
  144.8497  140.6982  143.6176 LP  0  0  0  0  0  0  0  0  0  0  0  0  # atno 17320 bound_to 7965
  145.3776  139.1644  143.4298 LP  0  0  0  0  0  0  0  0  0  0  0  0  # atno 17321 bound_to 7965
  140.4512  143.2486  151.9346 LP  0  0  0  0  0  0  0  0  0  0  0  0  # atno 17342 bound_to 10162
  139.4783  144.5561  151.8312 LP  0  0  0  0  0  0  0  0  0  0  0  0  # atno 17343 bound_to 10162
  157.3192  130.6928  149.6259 LP  0  0  0  0  0  0  0  0  0  0  0  0  # atno 17370 bound_to 10713
  155.9664  130.4340  150.5032 LP  0  0  0  0  0  0  0  0  0  0  0  0  # atno 17371 bound_to 10713
  141.1757  133.8519  157.1429 LP  0  0  0  0  0  0  0  0  0  0  0  0  # atno 17394 bound_to 11000
  140.0153  134.9970  157.0481 LP  0  0  0  0  0  0  0  0  0  0  0  0  # atno 17395 bound_to 11000

$$$$
