AV-unprocessed.smi:1024|AV-procd|sdf|4465|dock1
  -GOLD-   22720 2443D 1   1.00000     0.00000
 Structure written by MMmdl.
 47 49  0  0  0  0  0  0  0  0  1 V2000
  146.6482  138.8262  151.2321 O   0  0  0  0  0  0  0  0  0  0  0  0
  146.4955  138.1166  152.2275 C   0  0  0  0  0  0  0  0  0  0  0  0
  147.1916  138.3187  153.3591 N   0  0  0  0  0  0  0  0  0  0  0  0
  148.2041  139.3492  153.5540 C   0  0  0  0  0  0  0  0  0  0  0  0
  148.8202  139.2748  154.9604 C   0  0  0  0  0  0  0  0  0  0  0  0
  150.2673  139.3133  154.9079 N   0  0  0  0  0  0  0  0  0  0  0  0
  151.1054  138.4267  154.2450 C   0  0  0  0  0  0  0  0  0  0  0  0
  152.3928  138.8555  154.4772 C   0  0  0  0  0  0  0  0  0  0  0  0
  152.3703  139.9962  155.2764 N   0  0  0  0  0  0  0  0  0  0  0  0
  151.0780  140.2067  155.4914 C   0  0  0  0  0  0  0  0  0  0  0  0
  145.6000  137.0980  152.2851 N   0  0  0  0  0  0  0  0  0  0  0  0
  145.2868  136.2790  153.4664 C   0  0  0  0  0  0  0  0  0  0  0  0
  145.9364  134.8924  153.2924 C   0  0  0  0  0  0  0  0  0  0  0  0
  145.4843  134.1643  151.9954 C   0  0  0  0  0  0  0  0  0  0  0  0
  146.4061  132.9347  151.7828 C   0  0  0  0  0  0  0  0  0  0  0  0
  145.9502  132.0158  150.6352 C   0  0  0  0  0  0  0  0  0  0  0  0
  144.5085  131.5366  150.8485 C   0  0  0  0  0  0  0  0  0  0  0  0
  143.5543  132.7242  151.0300 C   0  0  0  0  0  0  0  0  0  0  0  0
  144.0241  133.6535  152.1646 C   0  0  0  0  0  0  0  0  0  0  0  0
  145.6193  135.1528  150.7987 C   0  0  0  0  0  0  0  0  0  0  0  0
  144.9893  136.5313  151.0784 C   0  0  0  0  0  0  0  0  0  0  0  0
  147.0065  137.7079  154.1415 H   0  0  0  0  0  0  0  0  0  0  0  0
  148.9784  139.2645  152.7896 H   0  0  0  0  0  0  0  0  0  0  0  0
  147.7287  140.3195  153.4076 H   0  0  0  0  0  0  0  0  0  0  0  0
  148.4737  140.1078  155.5738 H   0  0  0  0  0  0  0  0  0  0  0  0
  148.5174  138.3582  155.4684 H   0  0  0  0  0  0  0  0  0  0  0  0
  150.7273  137.5876  153.6796 H   0  0  0  0  0  0  0  0  0  0  0  0
  153.3260  138.4338  154.1338 H   0  0  0  0  0  0  0  0  0  0  0  0
  150.7124  141.0295  156.0883 H   0  0  0  0  0  0  0  0  0  0  0  0
  145.6172  136.7179  154.4075 H   0  0  0  0  0  0  0  0  0  0  0  0
  144.2048  136.1869  153.5650 H   0  0  0  0  0  0  0  0  0  0  0  0
  147.0197  135.0238  153.2767 H   0  0  0  0  0  0  0  0  0  0  0  0
  145.7267  134.2763  154.1676 H   0  0  0  0  0  0  0  0  0  0  0  0
  147.4317  133.2584  151.6010 H   0  0  0  0  0  0  0  0  0  0  0  0
  146.4398  132.3460  152.7009 H   0  0  0  0  0  0  0  0  0  0  0  0
  146.0304  132.5367  149.6808 H   0  0  0  0  0  0  0  0  0  0  0  0
  146.6161  131.1550  150.5677 H   0  0  0  0  0  0  0  0  0  0  0  0
  144.1885  130.9254  150.0041 H   0  0  0  0  0  0  0  0  0  0  0  0
  144.4645  130.8953  151.7296 H   0  0  0  0  0  0  0  0  0  0  0  0
  143.4707  133.2790  150.0958 H   0  0  0  0  0  0  0  0  0  0  0  0
  142.5518  132.3566  151.2502 H   0  0  0  0  0  0  0  0  0  0  0  0
  143.9451  133.1039  153.1035 H   0  0  0  0  0  0  0  0  0  0  0  0
  143.3248  134.4834  152.2545 H   0  0  0  0  0  0  0  0  0  0  0  0
  146.6764  135.3036  150.5749 H   0  0  0  0  0  0  0  0  0  0  0  0
  145.1878  134.7377  149.8892 H   0  0  0  0  0  0  0  0  0  0  0  0
  143.9119  136.4444  151.2204 H   0  0  0  0  0  0  0  0  0  0  0  0
  145.1123  137.1750  150.2063 H   0  0  0  0  0  0  0  0  0  0  0  0
  1  2  2  0  0  0  0
  2  3  1  0  0  0  0
  2 11  1  0  0  0  0
  3  4  1  0  0  0  0
  3 22  1  0  0  0  0
  4  5  1  0  0  0  0
  4 23  1  0  0  0  0
  4 24  1  0  0  0  0
  5  6  1  0  0  0  0
  5 25  1  0  0  0  0
  5 26  1  0  0  0  0
  6 10  1  0  0  0  0
  6  7  1  0  0  0  0
  7  8  2  0  0  0  0
  7 27  1  0  0  0  0
  8  9  1  0  0  0  0
  8 28  1  0  0  0  0
  9 10  2  0  0  0  0
 10 29  1  0  0  0  0
 11 21  1  0  0  0  0
 11 12  1  0  0  0  0
 12 13  1  0  0  0  0
 12 30  1  0  0  0  0
 12 31  1  0  0  0  0
 13 14  1  0  0  0  0
 13 32  1  0  0  0  0
 13 33  1  0  0  0  0
 14 19  1  0  0  0  0
 14 15  1  0  0  0  0
 14 20  1  0  0  0  0
 15 16  1  0  0  0  0
 15 34  1  0  0  0  0
 15 35  1  0  0  0  0
 16 17  1  0  0  0  0
 16 36  1  0  0  0  0
 16 37  1  0  0  0  0
 17 18  1  0  0  0  0
 17 38  1  0  0  0  0
 17 39  1  0  0  0  0
 18 19  1  0  0  0  0
 18 40  1  0  0  0  0
 18 41  1  0  0  0  0
 19 42  1  0  0  0  0
 19 43  1  0  0  0  0
 20 21  1  0  0  0  0
 20 44  1  0  0  0  0
 20 45  1  0  0  0  0
 21 46  1  0  0  0  0
 21 47  1  0  0  0  0
M  END
> <s_m_source_file>
AV-unprocessed.smi

> <i_m_source_file_index>
1024

> <i_lp_mmshare_version>
43012

> <i_f3d_flags>
0

> <s_epik_input>
W2NIXTFuW2NIXVtjSF1uMVtDSDJdW0NIMl1bTkhdQyg9TylOKFtDSDJdW0NIMl0yKVtDSDJdW0NIMl1DMjNbQ0gyXVtDSDJdW0NIMl1bQ0gyXVtDSDJdMw==

> <s_epik_cmdline>
J2VwaWtfcHl0aG9uJywgJy1waCcsICc3LjAnLCAnLXRuJywgJzgnLCAnLW1hJywgJzIwMCcsICctbWV0YWxfYmluZGluZycsICctaW1hZScsICc8aW5maWxlLm1hZT4nLCAnLW9tYWUnLCAnPG91dGZpbGUubWFlPic=

> <r_lp_tautomer_probability>
1

> <r_epik_Ionization_Penalty>
0.632392

> <r_epik_Ionization_Penalty_Charging>
0.632323

> <r_epik_Ionization_Penalty_Neutral>
6.90503e-05

> <r_epik_State_Penalty>
0.649284

> <r_epik_Charging_Adjusted_Penalty>
1.28161

> <i_epik_Tot_Q>
0

> <i_epik_Tot_abs_Q>
0

> <r_epik_Metal_State_Penalty>
0.309626

> <b_epik_Metal_Only>
0

> <s_lp_Force_Field>
OPLS_2005

> <r_lp_Energy>
42.875

> <b_lp_Chiralities_Consistent>
1

> <s_lp_Variant>
AV-unprocessed.smi:1024-2

> <Gold.Version>
5.8.1

> <Gold.Id.Protein>
6NUR|6NUR_protein|mol2

> <Gold.PLP.Fitness>
47.5837

> <Gold.PLP.PLP>
-39.0619

> <Gold.PLP.part.hbond>
-3.9125

> <Gold.PLP.part.metal>
0.0000

> <Gold.PLP.part.buried>
2.0281

> <Gold.PLP.part.nonpolar>
-37.9523

> <Gold.PLP.part.repulsive>
0.9904

> <Gold.PLP.ligand.clash>
0.0000

> <Gold.PLP.ligand.torsion>
0.4034

> <Gold.PLP.Chemscore.Hbond>
1.9913

> <Gold.PLP.Chemscore.CHOScore>
1.1068

> <Gold.PLP.Chemscore.Metal>
0.0000

> <Gold.Chemscore.Hbonds>
donor molecule, donor type, donor heavy atom, donor atom, acceptor molecule, acceptor atom, score
      P1  H  7954  7966       L1     1  0.48
      P1  H  7997  8008       L1     9  0.67
      L1  C     7    27       P1  7948  0.17
      L1  C     7    27       P1  7949  0.38

> <Gold.PLP.Chemscore.Internal.Correction>
0.0345

> <Gold.Rescore>
     Score         DG    S(hbond)    S(metal)    S(lipo)     H(rot)  DE(clash)    DE(int)     intcor
     14.94     -17.93       1.75        0.00      89.68       1.52       2.57       0.42       ----

> <Gold.Chemscore.Fitness>
14.9393

> <Gold.Chemscore.DG>
-17.9340

> <Gold.Chemscore.ZeroCoef>
-5.4800

> <Gold.Chemscore.Hbond>
1.7543

> <Gold.Chemscore.Metal>
0.0000

> <Gold.Chemscore.Lipo>
89.6822

> <Gold.Chemscore.Internal_Hbond>
0.0000

> <Gold.Chemscore.DEClash>
2.5705

> <Gold.Chemscore.DEInternal>
0.4242

> <Gold.Chemscore.Rot>
1.5227

> <Gold.Chemscore.Internal.Correction>
   9.000000E+99

> <Gold.Chemscore.Hbonds>
donor molecule, donor type, donor heavy atom, donor atom, acceptor molecule, acceptor atom, score
      P1  H  7954  7966       L1     1  0.32
      P1  H  7997  8008       L1     9  0.33

> <Gold.Chemscore.Hbond.Weighted>
-5.8592

> <Gold.Chemscore.Metal.Weighted>
-0.0000

> <Gold.Chemscore.Lipo.Weighted>
-10.4928

> <Gold.Chemscore.Internal_Hbond.Weighted>
0.0000

> <Gold.Chemscore.DEClash.Weighted>
2.5705

> <Gold.Chemscore.DEInternal.Weighted>
0.4242

> <Gold.Chemscore.Rot.Weighted>
3.8980

> <Gold.Chemscore.Internal.Correction.Weighted>
   9.000000E+99

> <Gold.Protein.RotatedTorsions>
[ 6907 6896 6895 6894 ] final -173.41 input  -60.11 | X-H torsion
[ 7974 7965 7964 7962 ] final -108.52 input  175.53 | X-H torsion
[ 8008 7997 7996 7995 ] final  -28.15 input   59.86 | X-H torsion
[ 10167 10162 10161 10158 ] final  -80.85 input  -65.29 | X-H torsion
[ 10718 10713 10712 10709 ] final  134.14 input   66.30 | X-H torsion
[ 10763 10752 10751 10750 ] final    0.39 input  -60.55 | X-H torsion
[ 11005 11000 10999 10996 ] final   22.67 input  -57.11 | X-H torsion

> <Gold.Protein.ActiveResidues>
 VAL166  LYS551  ARG553  GLY616  TRP617  ASP618  TYR619  PRO620  LYS621  CYS622 
 ASP623  PHE694  ASN695  SER759  ASP760  ASP761  ALA762  ILE779  LEU786  VAL792 
 PHE793  MET794  SER795  GLU796  ALA797  LYS798  CYS799  TRP800  GLU811  SER814 

> <Gold.Protein.RotatedAtoms>
  151.5557  133.3411  159.2961 H   0  0  0  0  0  0  0  0  0  0  0  0  # atno 6907 bound_to 6896
  150.8452  134.7762  159.6976 H   0  0  0  0  0  0  0  0  0  0  0  0  # atno 6908 bound_to 6896
  152.4511  134.5398  159.9887 H   0  0  0  0  0  0  0  0  0  0  0  0  # atno 6909 bound_to 6896
  145.1918  140.9018  143.3420 H   0  0  0  0  0  0  0  0  0  0  0  0  # atno 7974 bound_to 7965
  154.4345  140.1853  156.1044 H   0  0  0  0  0  0  0  0  0  0  0  0  # atno 8008 bound_to 7997
  156.0266  140.3335  155.7070 H   0  0  0  0  0  0  0  0  0  0  0  0  # atno 8009 bound_to 7997
  155.5899  140.0630  157.2752 H   0  0  0  0  0  0  0  0  0  0  0  0  # atno 8010 bound_to 7997
  140.4465  143.2497  151.8550 H   0  0  0  0  0  0  0  0  0  0  0  0  # atno 10167 bound_to 10162
  157.4703  131.1079  150.9811 H   0  0  0  0  0  0  0  0  0  0  0  0  # atno 10718 bound_to 10713
  153.3212  135.6969  153.7029 H   0  0  0  0  0  0  0  0  0  0  0  0  # atno 10763 bound_to 10752
  153.5868  135.3487  155.2896 H   0  0  0  0  0  0  0  0  0  0  0  0  # atno 10764 bound_to 10752
  154.8598  135.4308  154.2377 H   0  0  0  0  0  0  0  0  0  0  0  0  # atno 10765 bound_to 10752
  140.3781  134.1950  155.7664 H   0  0  0  0  0  0  0  0  0  0  0  0  # atno 11005 bound_to 11000
  145.0033  139.3578  143.6156 LP  0  0  0  0  0  0  0  0  0  0  0  0  # atno 17320 bound_to 7965
  146.3434  139.9265  142.8759 LP  0  0  0  0  0  0  0  0  0  0  0  0  # atno 17321 bound_to 7965
  139.4793  144.5169  151.8855 LP  0  0  0  0  0  0  0  0  0  0  0  0  # atno 17342 bound_to 10162
  140.4257  144.2183  150.5887 LP  0  0  0  0  0  0  0  0  0  0  0  0  # atno 17343 bound_to 10162
  157.0578  130.5813  149.5381 LP  0  0  0  0  0  0  0  0  0  0  0  0  # atno 17370 bound_to 10713
  156.0070  130.5158  150.7863 LP  0  0  0  0  0  0  0  0  0  0  0  0  # atno 17371 bound_to 10713
  141.1933  133.8155  157.0806 LP  0  0  0  0  0  0  0  0  0  0  0  0  # atno 17394 bound_to 11000
  140.0500  134.9810  157.1118 LP  0  0  0  0  0  0  0  0  0  0  0  0  # atno 17395 bound_to 11000

$$$$
