AV-unprocessed.smi:2899|AV-procd|sdf|11144|dock8
  -GOLD-   2272016 23D 1   1.00000     0.00000
 Structure written by MMmdl.
 30 32  0  0  0  0  0  0  0  0  1 V2000
  153.1867  141.8165  160.4410 C   0  0  0  0  0  0  0  0  0  0  0  0
  152.4613  142.8530  159.6096 C   0  0  0  0  0  0  0  0  0  0  0  0
  152.4834  144.2214  159.9498 C   0  0  0  0  0  0  0  0  0  0  0  0
  151.7686  145.0850  159.0952 C   0  0  0  0  0  0  0  0  0  0  0  0
  151.1037  144.6253  158.0125 N   0  0  0  0  0  0  0  0  0  0  0  0
  151.1507  143.3106  157.7833 C   0  0  0  0  0  0  0  0  0  0  0  0
  150.4614  142.8782  156.6653 N   0  0  0  0  0  0  0  0  0  0  0  0
  150.6922  141.6065  155.9896 C   0  0  1  0  0  0  0  0  0  0  0  0
  150.4708  140.3934  156.8960 C   0  0  0  0  0  0  0  0  0  0  0  0
  149.4784  139.5616  156.0704 C   0  0  1  0  0  0  0  0  0  0  0  0
  148.0685  140.1651  156.1105 C   0  0  0  0  0  0  0  0  0  0  0  0
  148.2353  141.4005  155.2278 C   0  0  0  0  0  0  0  0  0  0  0  0
  149.7190  141.3117  154.8312 C   0  0  2  0  0  0  0  0  0  0  0  0
  149.8679  139.9041  154.7504 O   0  0  0  0  0  0  0  0  0  0  0  0
  151.7935  142.4008  158.5258 N   0  0  0  0  0  0  0  0  0  0  0  0
  153.6460  142.2681  161.3208 H   0  0  0  0  0  0  0  0  0  0  0  0
  153.9714  141.3404  159.8525 H   0  0  0  0  0  0  0  0  0  0  0  0
  152.4925  141.0459  160.7770 H   0  0  0  0  0  0  0  0  0  0  0  0
  153.0151  144.5911  160.8141 H   0  0  0  0  0  0  0  0  0  0  0  0
  151.7301  146.1481  159.2806 H   0  0  0  0  0  0  0  0  0  0  0  0
  149.8347  143.5390  156.2300 H   0  0  0  0  0  0  0  0  0  0  0  0
  151.7173  141.5828  155.6168 H   0  0  0  0  0  0  0  0  0  0  0  0
  151.4077  139.8541  157.0397 H   0  0  0  0  0  0  0  0  0  0  0  0
  150.0720  140.6451  157.8799 H   0  0  0  0  0  0  0  0  0  0  0  0
  149.5083  138.4934  156.2864 H   0  0  0  0  0  0  0  0  0  0  0  0
  147.3392  139.4806  155.6759 H   0  0  0  0  0  0  0  0  0  0  0  0
  147.7488  140.4083  157.1244 H   0  0  0  0  0  0  0  0  0  0  0  0
  147.5994  141.3229  154.3454 H   0  0  0  0  0  0  0  0  0  0  0  0
  147.9842  142.3291  155.7409 H   0  0  0  0  0  0  0  0  0  0  0  0
  149.9593  141.8362  153.9061 H   0  0  0  0  0  0  0  0  0  0  0  0
  1  2  1  0  0  0  0
  1 16  1  0  0  0  0
  1 17  1  0  0  0  0
  1 18  1  0  0  0  0
  2 15  1  0  0  0  0
  2  3  2  0  0  0  0
  3  4  1  0  0  0  0
  3 19  1  0  0  0  0
  4  5  2  0  0  0  0
  4 20  1  0  0  0  0
  5  6  1  0  0  0  0
  6  7  1  0  0  0  0
  6 15  2  0  0  0  0
  7  8  1  0  0  0  0
  7 21  1  0  0  0  0
  8 13  1  0  0  0  0
  8  9  1  0  0  0  0
  8 22  1  0  0  0  0
  9 10  1  0  0  0  0
  9 23  1  0  0  0  0
  9 24  1  0  0  0  0
 10 14  1  0  0  0  0
 10 11  1  0  0  0  0
 10 25  1  0  0  0  0
 11 12  1  0  0  0  0
 11 26  1  0  0  0  0
 11 27  1  0  0  0  0
 12 13  1  0  0  0  0
 12 28  1  0  0  0  0
 12 29  1  0  0  0  0
 13 14  1  0  0  0  0
 13 30  1  0  0  0  0
M  END
> <s_m_source_file>
AV-unprocessed.smi

> <i_m_source_file_index>
2899

> <i_lp_mmshare_version>
43012

> <i_f3d_flags>
0

> <s_epik_input>
W0NIM11jMVtjSF1bY0hdbmMobjEpW05IXVtDQEhdKFtDSDJdW0NAQEhdMjMpW0NAQEhdKE8zKVtDSDJdW0NIMl0y

> <s_epik_cmdline>
J2VwaWtfcHl0aG9uJywgJy1waCcsICc3LjAnLCAnLXRuJywgJzgnLCAnLW1hJywgJzIwMCcsICctbWV0YWxfYmluZGluZycsICctaW1hZScsICc8aW5maWxlLm1hZT4nLCAnLW9tYWUnLCAnPG91dGZpbGUubWFlPic=

> <r_lp_tautomer_probability>
1

> <r_epik_Ionization_Penalty>
0.00589655

> <r_epik_Ionization_Penalty_Charging>
0

> <r_epik_Ionization_Penalty_Neutral>
0.00589655

> <r_epik_State_Penalty>
0.00375391

> <r_epik_Charging_Adjusted_Penalty>
0.00375391

> <i_epik_Tot_Q>
0

> <i_epik_Tot_abs_Q>
0

> <r_epik_Metal_State_Penalty>
-0

> <b_epik_Metal_Only>
0

> <s_lp_Force_Field>
OPLS_2005

> <r_lp_Energy>
31.8412

> <b_lp_Chiralities_Consistent>
1

> <s_lp_Variant>
AV-unprocessed.smi:2899-2

> <Gold.Version>
5.8.1

> <Gold.Id.Protein>
6NUR|6NUR_protein|mol2

> <Gold.PLP.Fitness>
33.6263

> <Gold.PLP.PLP>
-30.8068

> <Gold.PLP.part.hbond>
-1.0643

> <Gold.PLP.part.metal>
0.0000

> <Gold.PLP.part.buried>
-4.5328

> <Gold.PLP.part.nonpolar>
-25.3519

> <Gold.PLP.part.repulsive>
0.3270

> <Gold.PLP.ligand.clash>
0.0000

> <Gold.PLP.ligand.torsion>
0.0946

> <Gold.PLP.Chemscore.Hbond>
1.0000

> <Gold.PLP.Chemscore.CHOScore>
0.0000

> <Gold.PLP.Chemscore.Metal>
0.0000

> <Gold.Chemscore.Hbonds>
donor molecule, donor type, donor heavy atom, donor atom, acceptor molecule, acceptor atom, score
      L1  H     7    21       P1  8028  1.00

> <Gold.PLP.Chemscore.Internal.Correction>
0.0088

> <Gold.Rescore>
     Score         DG    S(hbond)    S(metal)    S(lipo)     H(rot)  DE(clash)    DE(int)     intcor
     14.31     -15.69       0.99        0.00      80.75       1.00       0.14       1.24       ----

> <Gold.Chemscore.Fitness>
14.3092

> <Gold.Chemscore.DG>
-15.6908

> <Gold.Chemscore.ZeroCoef>
-5.4800

> <Gold.Chemscore.Hbond>
0.9948

> <Gold.Chemscore.Metal>
0.0000

> <Gold.Chemscore.Lipo>
80.7546

> <Gold.Chemscore.Internal_Hbond>
0.0000

> <Gold.Chemscore.DEClash>
0.1408

> <Gold.Chemscore.DEInternal>
1.2409

> <Gold.Chemscore.Rot>
1.0000

> <Gold.Chemscore.Internal.Correction>
   9.000000E+99

> <Gold.Chemscore.Hbonds>
donor molecule, donor type, donor heavy atom, donor atom, acceptor molecule, acceptor atom, score
      L1  H     7    21       P1  8028  0.99

> <Gold.Chemscore.Hbond.Weighted>
-3.3226

> <Gold.Chemscore.Metal.Weighted>
-0.0000

> <Gold.Chemscore.Lipo.Weighted>
-9.4483

> <Gold.Chemscore.Internal_Hbond.Weighted>
0.0000

> <Gold.Chemscore.DEClash.Weighted>
0.1408

> <Gold.Chemscore.DEInternal.Weighted>
1.2409

> <Gold.Chemscore.Rot.Weighted>
2.5600

> <Gold.Chemscore.Internal.Correction.Weighted>
   9.000000E+99

> <Gold.Protein.RotatedTorsions>
[ 6907 6896 6895 6894 ] final   79.99 input  -60.11 | X-H torsion
[ 7974 7965 7964 7962 ] final  118.06 input  175.53 | X-H torsion
[ 8008 7997 7996 7995 ] final -141.37 input   59.86 | X-H torsion
[ 10167 10162 10161 10158 ] final  156.35 input  -65.29 | X-H torsion
[ 10718 10713 10712 10709 ] final  -70.91 input   66.30 | X-H torsion
[ 10763 10752 10751 10750 ] final   58.77 input  -60.55 | X-H torsion
[ 11005 11000 10999 10996 ] final  -32.52 input  -57.11 | X-H torsion

> <Gold.Protein.ActiveResidues>
 VAL166  LYS551  ARG553  GLY616  TRP617  ASP618  TYR619  PRO620  LYS621  CYS622 
 ASP623  PHE694  ASN695  SER759  ASP760  ASP761  ALA762  ILE779  LEU786  VAL792 
 PHE793  MET794  SER795  GLU796  ALA797  LYS798  CYS799  TRP800  GLU811  SER814 

> <Gold.Protein.RotatedAtoms>
  152.5219  134.3427  159.9222 H   0  0  0  0  0  0  0  0  0  0  0  0  # atno 6907 bound_to 6896
  151.3377  133.3968  159.2676 H   0  0  0  0  0  0  0  0  0  0  0  0  # atno 6908 bound_to 6896
  150.9829  134.9198  159.7912 H   0  0  0  0  0  0  0  0  0  0  0  0  # atno 6909 bound_to 6896
  145.1598  139.3161  143.4523 H   0  0  0  0  0  0  0  0  0  0  0  0  # atno 7974 bound_to 7965
  155.4767  140.0557  157.2972 H   0  0  0  0  0  0  0  0  0  0  0  0  # atno 8008 bound_to 7997
  154.4676  140.2026  156.0029 H   0  0  0  0  0  0  0  0  0  0  0  0  # atno 8009 bound_to 7997
  156.1002  140.3220  155.7936 H   0  0  0  0  0  0  0  0  0  0  0  0  # atno 8010 bound_to 7997
  139.4821  144.5017  151.8158 H   0  0  0  0  0  0  0  0  0  0  0  0  # atno 10167 bound_to 10162
  156.0386  130.4341  150.2365 H   0  0  0  0  0  0  0  0  0  0  0  0  # atno 10718 bound_to 10713
  152.9878  135.5595  154.5605 H   0  0  0  0  0  0  0  0  0  0  0  0  # atno 10763 bound_to 10752
  154.5025  135.2798  155.1411 H   0  0  0  0  0  0  0  0  0  0  0  0  # atno 10764 bound_to 10752
  154.2836  135.6340  153.5410 H   0  0  0  0  0  0  0  0  0  0  0  0  # atno 10765 bound_to 10752
  140.9559  133.7193  156.1292 H   0  0  0  0  0  0  0  0  0  0  0  0  # atno 11005 bound_to 11000
  146.3484  140.1704  142.8589 LP  0  0  0  0  0  0  0  0  0  0  0  0  # atno 17320 bound_to 7965
  145.0343  140.8895  143.5091 LP  0  0  0  0  0  0  0  0  0  0  0  0  # atno 17321 bound_to 7965
  140.4511  144.1854  150.5897 LP  0  0  0  0  0  0  0  0  0  0  0  0  # atno 17342 bound_to 10162
  140.4584  143.2458  151.9253 LP  0  0  0  0  0  0  0  0  0  0  0  0  # atno 17343 bound_to 10162
  157.0462  131.0049  151.3268 LP  0  0  0  0  0  0  0  0  0  0  0  0  # atno 17370 bound_to 10713
  157.5174  130.7976  149.7771 LP  0  0  0  0  0  0  0  0  0  0  0  0  # atno 17371 bound_to 10713
  140.7537  134.4016  157.5537 LP  0  0  0  0  0  0  0  0  0  0  0  0  # atno 17394 bound_to 11000
  139.8862  134.8916  156.2599 LP  0  0  0  0  0  0  0  0  0  0  0  0  # atno 17395 bound_to 11000

$$$$
