AV-unprocessed.smi:3068|AV-procd|sdf|11702|dock3
  -GOLD-   2272017103D 1   1.00000     0.00000
 Structure written by MMmdl.
 40 42  0  0  0  0  0  0  0  0  2 V2000
  150.8240  138.1142  158.3229 N   0  0  0  0  0  0  0  0  0  0  0  0
  149.9905  137.5083  158.8495 C   0  0  0  0  0  0  0  0  0  0  0  0
  148.9422  136.7452  159.5149 C   0  0  0  0  0  0  0  0  0  0  0  0
  148.8565  136.8718  160.8595 N   0  0  0  0  0  0  0  0  0  0  0  0
  147.8918  136.1655  161.4868 C   0  0  0  0  0  0  0  0  0  0  0  0
  147.0081  135.3308  160.7757 C   0  0  0  0  0  0  0  0  0  0  0  0
  147.0856  135.1991  159.4344 N   0  0  0  0  0  0  0  0  0  0  0  0
  148.0521  135.9018  158.7920 C   0  0  0  0  0  0  0  0  0  0  0  0
  148.1427  135.7738  157.3945 N   0  0  0  0  0  0  0  0  0  0  0  0
  147.4228  134.7142  156.7019 C   0  0  0  0  0  0  0  0  0  0  0  0
  147.9472  134.5127  155.2740 C   0  0  2  0  0  0  0  0  0  0  0  0
  146.8024  134.5406  154.2445 C   0  0  0  0  0  0  0  0  0  0  0  0
  147.3143  134.2450  152.8833 N   0  3  2  0  0  0  0  0  0  0  0  0
  146.2737  134.3042  151.8235 C   0  0  0  0  0  0  0  0  0  0  0  0
  145.3449  133.0749  151.8500 C   0  0  0  0  0  0  0  0  0  0  0  0
  146.1521  131.7713  151.7797 C   0  0  0  0  0  0  0  0  0  0  0  0
  147.2118  131.7370  152.8899 C   0  0  0  0  0  0  0  0  0  0  0  0
  148.1139  132.9899  152.8356 C   0  0  2  0  0  0  0  0  0  0  0  0
  149.1843  132.9998  153.9441 C   0  0  0  0  0  0  0  0  0  0  0  0
  148.5797  133.2386  155.2089 O   0  0  0  0  0  0  0  0  0  0  0  0
  147.8250  136.2670  162.5598 H   0  0  0  0  0  0  0  0  0  0  0  0
  146.2384  134.7675  161.2827 H   0  0  0  0  0  0  0  0  0  0  0  0
  148.8883  136.2488  156.9057 H   0  0  0  0  0  0  0  0  0  0  0  0
  147.5031  133.7839  157.2663 H   0  0  0  0  0  0  0  0  0  0  0  0
  146.3656  134.9810  156.6673 H   0  0  0  0  0  0  0  0  0  0  0  0
  148.6681  135.2990  155.0407 H   0  0  0  0  0  0  0  0  0  0  0  0
  146.0339  133.8207  154.5272 H   0  0  0  0  0  0  0  0  0  0  0  0
  146.3287  135.5229  154.2452 H   0  0  0  0  0  0  0  0  0  0  0  0
  145.6951  135.2236  151.9196 H   0  0  0  0  0  0  0  0  0  0  0  0
  146.7751  134.3573  150.8562 H   0  0  0  0  0  0  0  0  0  0  0  0
  144.7349  133.0827  152.7538 H   0  0  0  0  0  0  0  0  0  0  0  0
  144.6464  133.1221  151.0141 H   0  0  0  0  0  0  0  0  0  0  0  0
  145.4870  130.9118  151.8674 H   0  0  0  0  0  0  0  0  0  0  0  0
  146.6374  131.6922  150.8061 H   0  0  0  0  0  0  0  0  0  0  0  0
  146.7230  131.6612  153.8618 H   0  0  0  0  0  0  0  0  0  0  0  0
  147.8190  130.8372  152.7857 H   0  0  0  0  0  0  0  0  0  0  0  0
  148.6346  132.9767  151.8770 H   0  0  0  0  0  0  0  0  0  0  0  0
  149.7113  132.0458  153.9745 H   0  0  0  0  0  0  0  0  0  0  0  0
  149.9365  133.7650  153.7458 H   0  0  0  0  0  0  0  0  0  0  0  0
  147.9612  134.9930  152.6775 H   0  0  0  0  0  0  0  0  0  0  0  0
  1  2  3  0  0  0  0
  2  3  1  0  0  0  0
  3  8  1  0  0  0  0
  3  4  2  0  0  0  0
  4  5  1  0  0  0  0
  5  6  2  0  0  0  0
  5 21  1  0  0  0  0
  6  7  1  0  0  0  0
  6 22  1  0  0  0  0
  7  8  2  0  0  0  0
  8  9  1  0  0  0  0
  9 10  1  0  0  0  0
  9 23  1  0  0  0  0
 10 11  1  0  0  0  0
 10 24  1  0  0  0  0
 10 25  1  0  0  0  0
 11 20  1  0  0  0  0
 11 12  1  0  0  0  0
 11 26  1  0  0  0  0
 12 13  1  0  0  0  0
 12 27  1  0  0  0  0
 12 28  1  0  0  0  0
 13 18  1  0  0  0  0
 13 14  1  0  0  0  0
 13 40  1  0  0  0  0
 14 15  1  0  0  0  0
 14 29  1  0  0  0  0
 14 30  1  0  0  0  0
 15 16  1  0  0  0  0
 15 31  1  0  0  0  0
 15 32  1  0  0  0  0
 16 17  1  0  0  0  0
 16 33  1  0  0  0  0
 16 34  1  0  0  0  0
 17 18  1  0  0  0  0
 17 35  1  0  0  0  0
 17 36  1  0  0  0  0
 18 19  1  0  0  0  0
 18 37  1  0  0  0  0
 19 20  1  0  0  0  0
 19 38  1  0  0  0  0
 19 39  1  0  0  0  0
M  CHG  1  13   1
M  END
> <s_m_source_file>
AV-unprocessed.smi

> <i_m_source_file_index>
3068

> <i_lp_mmshare_version>
43012

> <i_f3d_flags>
0

> <s_epik_input>
TiNDYzFuW2NIXVtjSF1uYzFbTkhdW0NIMl1bQ0BIXShbQ0gyXTIpT1tDSDJdW0NAQEhdKE4yMylbQ0gyXVtDSDJdW0NIMl1bQ0gyXTM=

> <s_epik_cmdline>
J2VwaWtfcHl0aG9uJywgJy1waCcsICc3LjAnLCAnLXRuJywgJzgnLCAnLW1hJywgJzIwMCcsICctbWV0YWxfYmluZGluZycsICctaW1hZScsICc8aW5maWxlLm1hZT4nLCAnLW9tYWUnLCAnPG91dGZpbGUubWFlPic=

> <r_epik_Ionization_Penalty>
0.0804321

> <r_epik_Ionization_Penalty_Charging>
0.0803403

> <r_epik_Ionization_Penalty_Neutral>
9.17277e-05

> <r_epik_State_Penalty>
0.0711481

> <r_epik_Charging_Adjusted_Penalty>
0.151488

> <i_epik_Tot_Q>
1

> <i_epik_Tot_abs_Q>
1

> <r_epik_Metal_State_Penalty>
0.0711481

> <b_epik_Metal_Only>
0

> <s_lp_Force_Field>
OPLS_2005

> <r_lp_Energy>
39.3749

> <b_lp_Chiralities_Consistent>
1

> <s_lp_Variant>
AV-unprocessed.smi:3068-5

> <Gold.Version>
5.8.1

> <Gold.Id.Protein>
6NUR|6NUR_protein|mol2

> <Gold.PLP.Fitness>
33.5680

> <Gold.PLP.PLP>
-26.3970

> <Gold.PLP.part.hbond>
-2.0592

> <Gold.PLP.part.metal>
0.0000

> <Gold.PLP.part.buried>
-4.1482

> <Gold.PLP.part.nonpolar>
-20.9777

> <Gold.PLP.part.repulsive>
0.0456

> <Gold.PLP.ligand.clash>
0.0000

> <Gold.PLP.ligand.torsion>
0.8551

> <Gold.PLP.Chemscore.Hbond>
2.9600

> <Gold.PLP.Chemscore.CHOScore>
0.0000

> <Gold.PLP.Chemscore.Metal>
0.0000

> <Gold.Chemscore.Hbonds>
donor molecule, donor type, donor heavy atom, donor atom, acceptor molecule, acceptor atom, score
      L1  H    13    40       P1  7948  2.00
      P1  H  6931  6943       L1     4  0.93

> <Gold.PLP.Chemscore.Internal.Correction>
0.0012

> <Gold.Rescore>
     Score         DG    S(hbond)    S(metal)    S(lipo)     H(rot)  DE(clash)    DE(int)     intcor
     14.54     -15.38       1.94        0.00      58.13       1.32       0.00       0.84       ----

> <Gold.Chemscore.Fitness>
14.5398

> <Gold.Chemscore.DG>
-15.3835

> <Gold.Chemscore.ZeroCoef>
-5.4800

> <Gold.Chemscore.Hbond>
1.9399

> <Gold.Chemscore.Metal>
0.0000

> <Gold.Chemscore.Lipo>
58.1333

> <Gold.Chemscore.Internal_Hbond>
0.0000

> <Gold.Chemscore.DEClash>
0.0024

> <Gold.Chemscore.DEInternal>
0.8413

> <Gold.Chemscore.Rot>
1.3193

> <Gold.Chemscore.Internal.Correction>
   9.000000E+99

> <Gold.Chemscore.Hbonds>
donor molecule, donor type, donor heavy atom, donor atom, acceptor molecule, acceptor atom, score
      L1  H    13    40       P1  7948  0.93
      P1  H  6931  6943       L1     4  0.36

> <Gold.Chemscore.Hbond.Weighted>
-6.4792

> <Gold.Chemscore.Metal.Weighted>
-0.0000

> <Gold.Chemscore.Lipo.Weighted>
-6.8016

> <Gold.Chemscore.Internal_Hbond.Weighted>
0.0000

> <Gold.Chemscore.DEClash.Weighted>
0.0024

> <Gold.Chemscore.DEInternal.Weighted>
0.8413

> <Gold.Chemscore.Rot.Weighted>
3.3774

> <Gold.Chemscore.Internal.Correction.Weighted>
   9.000000E+99

> <Gold.Protein.RotatedTorsions>
[ 6907 6896 6895 6894 ] final   27.24 input  -60.11 | X-H torsion
[ 7974 7965 7964 7962 ] final -163.67 input  175.53 | X-H torsion
[ 8008 7997 7996 7995 ] final   58.98 input   59.86 | X-H torsion
[ 10167 10162 10161 10158 ] final  -15.63 input  -65.29 | X-H torsion
[ 10718 10713 10712 10709 ] final  -25.36 input   66.30 | X-H torsion
[ 10763 10752 10751 10750 ] final  -12.68 input  -60.55 | X-H torsion
[ 11005 11000 10999 10996 ] final   51.40 input  -57.11 | X-H torsion

> <Gold.Protein.ActiveResidues>
 VAL166  LYS551  ARG553  GLY616  TRP617  ASP618  TYR619  PRO620  LYS621  CYS622 
 ASP623  PHE694  ASN695  SER759  ASP760  ASP761  ALA762  ILE779  LEU786  VAL792 
 PHE793  MET794  SER795  GLU796  ALA797  LYS798  CYS799  TRP800  GLU811  SER814 

> <Gold.Protein.RotatedAtoms>
  151.9994  134.9937  160.0564 H   0  0  0  0  0  0  0  0  0  0  0  0  # atno 6907 bound_to 6896
  152.1534  133.4531  159.4833 H   0  0  0  0  0  0  0  0  0  0  0  0  # atno 6908 bound_to 6896
  150.6878  134.2079  159.4391 H   0  0  0  0  0  0  0  0  0  0  0  0  # atno 6909 bound_to 6896
  144.7319  140.3073  143.6194 H   0  0  0  0  0  0  0  0  0  0  0  0  # atno 7974 bound_to 7965
  155.5588  140.3488  155.4486 H   0  0  0  0  0  0  0  0  0  0  0  0  # atno 8008 bound_to 7997
  156.0530  140.1322  157.0055 H   0  0  0  0  0  0  0  0  0  0  0  0  # atno 8009 bound_to 7997
  154.4443  140.1001  156.6389 H   0  0  0  0  0  0  0  0  0  0  0  0  # atno 8010 bound_to 7997
  140.7221  143.5199  150.9646 H   0  0  0  0  0  0  0  0  0  0  0  0  # atno 10167 bound_to 10162
  156.4653  130.4513  149.6903 H   0  0  0  0  0  0  0  0  0  0  0  0  # atno 10718 bound_to 10713
  153.5020  135.7017  153.5826 H   0  0  0  0  0  0  0  0  0  0  0  0  # atno 10763 bound_to 10752
  153.3954  135.3885  155.1951 H   0  0  0  0  0  0  0  0  0  0  0  0  # atno 10764 bound_to 10752
  154.8710  135.3868  154.4492 H   0  0  0  0  0  0  0  0  0  0  0  0  # atno 10765 bound_to 10752
  140.0936  134.5176  155.8828 H   0  0  0  0  0  0  0  0  0  0  0  0  # atno 11005 bound_to 11000
  145.7700  139.1854  143.2218 LP  0  0  0  0  0  0  0  0  0  0  0  0  # atno 17320 bound_to 7965
  146.0918  140.7646  142.9591 LP  0  0  0  0  0  0  0  0  0  0  0  0  # atno 17321 bound_to 7965
  139.8916  143.6947  152.3144 LP  0  0  0  0  0  0  0  0  0  0  0  0  # atno 17342 bound_to 10162
  139.7264  144.7592  151.0872 LP  0  0  0  0  0  0  0  0  0  0  0  0  # atno 17343 bound_to 10162
  156.3674  130.7513  151.2492 LP  0  0  0  0  0  0  0  0  0  0  0  0  # atno 17370 bound_to 10713
  157.7495  131.0333  150.4265 LP  0  0  0  0  0  0  0  0  0  0  0  0  # atno 17371 bound_to 10713
  141.2085  133.6674  156.6377 LP  0  0  0  0  0  0  0  0  0  0  0  0  # atno 17394 bound_to 11000
  140.3318  134.7923  157.4331 LP  0  0  0  0  0  0  0  0  0  0  0  0  # atno 17395 bound_to 11000

$$$$
