AV-unprocessed.smi:356|AV-procd|sdf|2408|dock10
  -GOLD-   2262022343D 1   1.00000     0.00000
 Structure written by MMmdl.
 41 43  0  0  0  0  0  0  0  0  1 V2000
  154.9175  139.8095  162.2725 C   0  0  0  0  0  0  0  0  0  0  0  0
  154.1371  140.9343  161.6689 C   0  0  0  0  0  0  0  0  0  0  0  0
  153.7499  141.9933  162.3800 N   0  0  0  0  0  0  0  0  0  0  0  0
  153.0742  142.7542  161.4453 C   0  0  0  0  0  0  0  0  0  0  0  0
  152.4234  144.0021  161.5751 C   0  0  0  0  0  0  0  0  0  0  0  0
  151.7913  144.5963  160.4632 C   0  0  0  0  0  0  0  0  0  0  0  0
  151.8003  143.9529  159.2086 C   0  0  0  0  0  0  0  0  0  0  0  0
  152.4419  142.7086  159.0577 C   0  0  0  0  0  0  0  0  0  0  0  0
  153.0720  142.1194  160.1704 C   0  0  0  0  0  0  0  0  0  0  0  0
  153.7780  140.9353  160.3617 N   0  0  0  0  0  0  0  0  0  0  0  0
  154.0622  139.9192  159.3580 C   0  0  0  0  0  0  0  0  0  0  0  0
  153.1959  138.6544  159.5322 C   0  0  2  0  0  0  0  0  0  0  0  0
  153.8878  137.7183  160.3336 O   0  0  0  0  0  0  0  0  0  0  0  0
  152.8622  137.9721  158.1904 C   0  0  0  0  0  0  0  0  0  0  0  0
  151.6729  138.4795  157.5044 N   0  0  0  0  0  0  0  0  0  0  0  0
  151.5241  137.9375  156.1551 C   0  0  0  0  0  0  0  0  0  0  0  0
  150.2849  138.5055  155.4413 C   0  0  0  0  0  0  0  0  0  0  0  0
  150.3558  139.9271  155.4138 O   0  0  0  0  0  0  0  0  0  0  0  0
  150.4529  140.4963  156.7150 C   0  0  0  0  0  0  0  0  0  0  0  0
  151.6951  139.9365  157.4295 C   0  0  0  0  0  0  0  0  0  0  0  0
  155.1301  140.0121  163.3225 H   0  0  0  0  0  0  0  0  0  0  0  0
  155.8653  139.6808  161.7506 H   0  0  0  0  0  0  0  0  0  0  0  0
  154.3509  138.8804  162.2110 H   0  0  0  0  0  0  0  0  0  0  0  0
  152.4114  144.5029  162.5318 H   0  0  0  0  0  0  0  0  0  0  0  0
  151.2980  145.5510  160.5741 H   0  0  0  0  0  0  0  0  0  0  0  0
  151.3149  144.4157  158.3619 H   0  0  0  0  0  0  0  0  0  0  0  0
  152.4519  142.2147  158.0977 H   0  0  0  0  0  0  0  0  0  0  0  0
  153.9056  140.3557  158.3715 H   0  0  0  0  0  0  0  0  0  0  0  0
  155.1217  139.6651  159.4065 H   0  0  0  0  0  0  0  0  0  0  0  0
  152.2796  138.9010  160.0666 H   0  0  0  0  0  0  0  0  0  0  0  0
  154.3976  137.1579  159.7689 H   0  0  0  0  0  0  0  0  0  0  0  0
  153.7253  138.0865  157.5330 H   0  0  0  0  0  0  0  0  0  0  0  0
  152.7518  136.8981  158.3501 H   0  0  0  0  0  0  0  0  0  0  0  0
  152.4148  138.1610  155.5660 H   0  0  0  0  0  0  0  0  0  0  0  0
  151.4342  136.8530  156.1883 H   0  0  0  0  0  0  0  0  0  0  0  0
  150.2309  138.1314  154.4190 H   0  0  0  0  0  0  0  0  0  0  0  0
  149.3708  138.1896  155.9463 H   0  0  0  0  0  0  0  0  0  0  0  0
  150.5226  141.5802  156.6256 H   0  0  0  0  0  0  0  0  0  0  0  0
  149.5481  140.2783  157.2843 H   0  0  0  0  0  0  0  0  0  0  0  0
  151.7515  140.3579  158.4337 H   0  0  0  0  0  0  0  0  0  0  0  0
  152.5919  140.2662  156.9022 H   0  0  0  0  0  0  0  0  0  0  0  0
  1  2  1  0  0  0  0
  1 21  1  0  0  0  0
  1 22  1  0  0  0  0
  1 23  1  0  0  0  0
  2 10  1  0  0  0  0
  2  3  2  0  0  0  0
  3  4  1  0  0  0  0
  4  9  2  0  0  0  0
  4  5  1  0  0  0  0
  5  6  2  0  0  0  0
  5 24  1  0  0  0  0
  6  7  1  0  0  0  0
  6 25  1  0  0  0  0
  7  8  2  0  0  0  0
  7 26  1  0  0  0  0
  8  9  1  0  0  0  0
  8 27  1  0  0  0  0
  9 10  1  0  0  0  0
 10 11  1  0  0  0  0
 11 12  1  0  0  0  0
 11 28  1  0  0  0  0
 11 29  1  0  0  0  0
 12 13  1  0  0  0  0
 12 14  1  0  0  0  0
 12 30  1  0  0  0  0
 13 31  1  0  0  0  0
 14 15  1  0  0  0  0
 14 32  1  0  0  0  0
 14 33  1  0  0  0  0
 15 20  1  0  0  0  0
 15 16  1  0  0  0  0
 16 17  1  0  0  0  0
 16 34  1  0  0  0  0
 16 35  1  0  0  0  0
 17 18  1  0  0  0  0
 17 36  1  0  0  0  0
 17 37  1  0  0  0  0
 18 19  1  0  0  0  0
 19 20  1  0  0  0  0
 19 38  1  0  0  0  0
 19 39  1  0  0  0  0
 20 40  1  0  0  0  0
 20 41  1  0  0  0  0
M  END
> <s_m_source_file>
AV-unprocessed.smi

> <i_m_source_file_index>
356

> <i_lp_mmshare_version>
43012

> <i_f3d_flags>
0

> <s_epik_input>
W2NIXTFbY0hdW2NIXVtjSF1jKGMxMiluKGMobjIpW0NIM10pW0NIMl1bQ0BIXShbT0hdKVtDSDJdTjNbQ0gyXVtDSDJdT1tDSDJdW0NIMl0z

> <s_epik_cmdline>
J2VwaWtfcHl0aG9uJywgJy1waCcsICc3LjAnLCAnLXRuJywgJzgnLCAnLW1hJywgJzIwMCcsICctbWV0YWxfYmluZGluZycsICctaW1hZScsICc8aW5maWxlLm1hZT4nLCAnLW9tYWUnLCAnPG91dGZpbGUubWFlPic=

> <r_epik_Ionization_Penalty>
0.355661

> <r_epik_Ionization_Penalty_Charging>
0

> <r_epik_Ionization_Penalty_Neutral>
0.355661

> <r_epik_State_Penalty>
0.325123

> <r_epik_Charging_Adjusted_Penalty>
0.325123

> <i_epik_Tot_Q>
0

> <i_epik_Tot_abs_Q>
0

> <r_epik_Metal_State_Penalty>
0.239925

> <b_epik_Metal_Only>
0

> <s_lp_Force_Field>
OPLS_2005

> <r_lp_Energy>
27.9323

> <b_lp_Chiralities_Consistent>
1

> <s_lp_Variant>
AV-unprocessed.smi:356-1

> <Gold.Version>
5.8.1

> <Gold.Id.Protein>
6NUR|6NUR_protein|mol2

> <Gold.PLP.Fitness>
47.1084

> <Gold.PLP.PLP>
-46.0464

> <Gold.PLP.part.hbond>
-1.0000

> <Gold.PLP.part.metal>
0.0000

> <Gold.PLP.part.buried>
-4.2952

> <Gold.PLP.part.nonpolar>
-40.9001

> <Gold.PLP.part.repulsive>
0.1169

> <Gold.PLP.ligand.clash>
0.0000

> <Gold.PLP.ligand.torsion>
0.9726

> <Gold.PLP.Chemscore.Hbond>
1.0000

> <Gold.PLP.Chemscore.CHOScore>
0.0000

> <Gold.PLP.Chemscore.Metal>
0.0000

> <Gold.PLP.Chemscore.Internal.Correction>
0.0072

> <Gold.Rescore>
     Score         DG    S(hbond)    S(metal)    S(lipo)     H(rot)  DE(clash)    DE(int)     intcor
     11.96     -15.37       0.00        0.00     127.94       1.99       1.43       1.97       ----

> <Gold.Chemscore.Fitness>
11.9614

> <Gold.Chemscore.DG>
-15.3667

> <Gold.Chemscore.ZeroCoef>
-5.4800

> <Gold.Chemscore.Hbond>
0.0010

> <Gold.Chemscore.Metal>
0.0000

> <Gold.Chemscore.Lipo>
127.9360

> <Gold.Chemscore.Internal_Hbond>
0.0000

> <Gold.Chemscore.DEClash>
1.4309

> <Gold.Chemscore.DEInternal>
1.9744

> <Gold.Chemscore.Rot>
1.9863

> <Gold.Chemscore.Internal.Correction>
   9.000000E+99

> <Gold.Chemscore.Hbonds>
donor molecule, donor type, donor heavy atom, donor atom, acceptor molecule, acceptor atom, score
      P1  H  7989  7998       L1    18  0.02

> <Gold.Chemscore.Hbond.Weighted>
-0.0032

> <Gold.Chemscore.Metal.Weighted>
-0.0000

> <Gold.Chemscore.Lipo.Weighted>
-14.9685

> <Gold.Chemscore.Internal_Hbond.Weighted>
0.0000

> <Gold.Chemscore.DEClash.Weighted>
1.4309

> <Gold.Chemscore.DEInternal.Weighted>
1.9744

> <Gold.Chemscore.Rot.Weighted>
5.0850

> <Gold.Chemscore.Internal.Correction.Weighted>
   9.000000E+99

> <Gold.Protein.RotatedTorsions>
[ 6907 6896 6895 6894 ] final  172.60 input  -60.11 | X-H torsion
[ 7974 7965 7964 7962 ] final  110.88 input  175.53 | X-H torsion
[ 8008 7997 7996 7995 ] final  108.29 input   59.86 | X-H torsion
[ 10167 10162 10161 10158 ] final  -71.60 input  -65.29 | X-H torsion
[ 10718 10713 10712 10709 ] final   -0.20 input   66.30 | X-H torsion
[ 10763 10752 10751 10750 ] final   61.72 input  -60.55 | X-H torsion
[ 11005 11000 10999 10996 ] final  110.01 input  -57.11 | X-H torsion

> <Gold.Protein.ActiveResidues>
 VAL166  LYS551  ARG553  GLY616  TRP617  ASP618  TYR619  PRO620  LYS621  CYS622 
 ASP623  PHE694  ASN695  SER759  ASP760  ASP761  ALA762  ILE779  LEU786  VAL792 
 PHE793  MET794  SER795  GLU796  ALA797  LYS798  CYS799  TRP800  GLU811  SER814 

> <Gold.Protein.RotatedAtoms>
  151.7817  133.3350  159.3473 H   0  0  0  0  0  0  0  0  0  0  0  0  # atno 6907 bound_to 6896
  150.7424  134.5925  159.6004 H   0  0  0  0  0  0  0  0  0  0  0  0  # atno 6908 bound_to 6896
  152.3271  134.7308  160.0350 H   0  0  0  0  0  0  0  0  0  0  0  0  # atno 6909 bound_to 6896
  145.2493  139.2746  143.4076 H   0  0  0  0  0  0  0  0  0  0  0  0  # atno 7974 bound_to 7965
  156.1891  140.3079  155.9297 H   0  0  0  0  0  0  0  0  0  0  0  0  # atno 8008 bound_to 7997
  155.3214  140.0456  157.3056 H   0  0  0  0  0  0  0  0  0  0  0  0  # atno 8009 bound_to 7997
  154.5431  140.2268  155.8618 H   0  0  0  0  0  0  0  0  0  0  0  0  # atno 8010 bound_to 7997
  140.5260  143.2326  151.7347 H   0  0  0  0  0  0  0  0  0  0  0  0  # atno 10167 bound_to 10162
  156.8240  130.5466  149.5694 H   0  0  0  0  0  0  0  0  0  0  0  0  # atno 10718 bound_to 10713
  152.9959  135.5491  154.6078 H   0  0  0  0  0  0  0  0  0  0  0  0  # atno 10763 bound_to 10752
  154.5406  135.2819  155.1101 H   0  0  0  0  0  0  0  0  0  0  0  0  # atno 10764 bound_to 10752
  154.2380  135.6421  153.5250 H   0  0  0  0  0  0  0  0  0  0  0  0  # atno 10765 bound_to 10752
  139.8873  134.9473  156.6213 H   0  0  0  0  0  0  0  0  0  0  0  0  # atno 11005 bound_to 11000
  146.3307  140.2879  142.8613 LP  0  0  0  0  0  0  0  0  0  0  0  0  # atno 17320 bound_to 7965
  144.9518  140.8186  143.5567 LP  0  0  0  0  0  0  0  0  0  0  0  0  # atno 17321 bound_to 7965
  139.4938  144.4185  152.0003 LP  0  0  0  0  0  0  0  0  0  0  0  0  # atno 17342 bound_to 10162
  140.3284  144.3345  150.5993 LP  0  0  0  0  0  0  0  0  0  0  0  0  # atno 17343 bound_to 10162
  156.0972  130.5941  150.9834 LP  0  0  0  0  0  0  0  0  0  0  0  0  # atno 17370 bound_to 10713
  157.6442  131.0906  150.8189 LP  0  0  0  0  0  0  0  0  0  0  0  0  # atno 17371 bound_to 10713
  140.7737  133.8717  155.8512 LP  0  0  0  0  0  0  0  0  0  0  0  0  # atno 17394 bound_to 11000
  140.9820  134.1393  157.4486 LP  0  0  0  0  0  0  0  0  0  0  0  0  # atno 17395 bound_to 11000

$$$$
