AV-unprocessed.smi:483|AV-procd|sdf|2686|dock2
  -GOLD-   2262023113D 1   1.00000     0.00000
 Structure written by MMmdl.
 44 44  0  0  0  0  0  0  0  0  1 V2000
  141.8114  136.2202  153.4148 C   0  0  0  0  0  0  0  0  0  0  0  0
  142.8842  137.2440  153.0138 C   0  0  0  0  0  0  0  0  0  0  0  0
  143.9471  137.5055  154.0970 C   0  0  0  0  0  0  0  0  0  0  0  0
  144.9485  138.4700  153.6528 N   0  0  0  0  0  0  0  0  0  0  0  0
  146.2754  138.2693  153.6543 C   0  0  0  0  0  0  0  0  0  0  0  0
  146.8060  137.2507  154.1007 O   0  0  0  0  0  0  0  0  0  0  0  0
  147.1313  139.3795  153.0235 C   0  0  1  0  0  0  0  0  0  0  0  0
  146.8361  140.7098  153.7371 C   0  0  0  0  0  0  0  0  0  0  0  0
  148.5424  139.0552  153.2204 N   0  0  0  0  0  0  0  0  0  0  0  0
  149.1417  138.9427  154.4167 C   0  0  0  0  0  0  0  0  0  0  0  0
  148.5293  138.9880  155.4847 O   0  0  0  0  0  0  0  0  0  0  0  0
  150.6651  138.7615  154.4051 C   0  0  0  0  0  0  0  0  0  0  0  0
  151.2420  138.8683  155.7533 N   0  0  0  0  0  0  0  0  0  0  0  0
  151.2084  140.1430  156.2842 N   0  0  0  0  0  0  0  0  0  0  0  0
  151.7303  140.4055  157.4372 C   0  0  0  0  0  0  0  0  0  0  0  0
  151.6425  141.8316  157.9099 C   0  0  0  0  0  0  0  0  0  0  0  0
  152.3644  139.3380  158.2046 C   0  0  0  0  0  0  0  0  0  0  0  0
  152.9703  139.7082  159.5513 C   0  0  0  0  0  0  0  0  0  0  0  0
  152.3783  138.0876  157.6790 C   0  0  0  0  0  0  0  0  0  0  0  0
  152.9836  136.9829  158.3502 C   0  0  0  0  0  0  0  0  0  0  0  0
  153.4697  136.0957  158.9130 N   0  0  0  0  0  0  0  0  0  0  0  0
  151.7799  137.7808  156.3784 C   0  0  0  0  0  0  0  0  0  0  0  0
  151.7648  136.6545  155.8790 O   0  0  0  0  0  0  0  0  0  0  0  0
  141.0478  136.1340  152.6416 H   0  0  0  0  0  0  0  0  0  0  0  0
  141.3154  136.5093  154.3416 H   0  0  0  0  0  0  0  0  0  0  0  0
  142.2406  135.2292  153.5594 H   0  0  0  0  0  0  0  0  0  0  0  0
  143.3717  136.9120  152.0965 H   0  0  0  0  0  0  0  0  0  0  0  0
  142.3946  138.1876  152.7705 H   0  0  0  0  0  0  0  0  0  0  0  0
  143.4645  137.9126  154.9856 H   0  0  0  0  0  0  0  0  0  0  0  0
  144.4083  136.5665  154.4075 H   0  0  0  0  0  0  0  0  0  0  0  0
  144.6037  139.3348  153.2617 H   0  0  0  0  0  0  0  0  0  0  0  0
  146.9094  139.4803  151.9590 H   0  0  0  0  0  0  0  0  0  0  0  0
  145.7856  140.9861  153.6376 H   0  0  0  0  0  0  0  0  0  0  0  0
  147.4262  141.5197  153.3070 H   0  0  0  0  0  0  0  0  0  0  0  0
  147.0695  140.6649  154.8021 H   0  0  0  0  0  0  0  0  0  0  0  0
  149.1177  139.0024  152.3924 H   0  0  0  0  0  0  0  0  0  0  0  0
  150.8878  137.7867  153.9676 H   0  0  0  0  0  0  0  0  0  0  0  0
  151.1287  139.4961  153.7434 H   0  0  0  0  0  0  0  0  0  0  0  0
  151.0482  141.9007  158.8211 H   0  0  0  0  0  0  0  0  0  0  0  0
  151.1793  142.4798  157.1644 H   0  0  0  0  0  0  0  0  0  0  0  0
  152.6344  142.2319  158.1207 H   0  0  0  0  0  0  0  0  0  0  0  0
  153.3614  138.8398  160.0803 H   0  0  0  0  0  0  0  0  0  0  0  0
  152.2228  140.1718  160.1958 H   0  0  0  0  0  0  0  0  0  0  0  0
  153.7936  140.4108  159.4182 H   0  0  0  0  0  0  0  0  0  0  0  0
  1  2  1  0  0  0  0
  1 24  1  0  0  0  0
  1 25  1  0  0  0  0
  1 26  1  0  0  0  0
  2  3  1  0  0  0  0
  2 27  1  0  0  0  0
  2 28  1  0  0  0  0
  3  4  1  0  0  0  0
  3 29  1  0  0  0  0
  3 30  1  0  0  0  0
  4  5  1  0  0  0  0
  4 31  1  0  0  0  0
  5  6  2  0  0  0  0
  5  7  1  0  0  0  0
  7  8  1  0  0  0  0
  7  9  1  0  0  0  0
  7 32  1  0  0  0  0
  8 33  1  0  0  0  0
  8 34  1  0  0  0  0
  8 35  1  0  0  0  0
  9 10  1  0  0  0  0
  9 36  1  0  0  0  0
 10 11  2  0  0  0  0
 10 12  1  0  0  0  0
 12 13  1  0  0  0  0
 12 37  1  0  0  0  0
 12 38  1  0  0  0  0
 13 22  1  0  0  0  0
 13 14  1  0  0  0  0
 14 15  2  0  0  0  0
 15 16  1  0  0  0  0
 15 17  1  0  0  0  0
 16 39  1  0  0  0  0
 16 40  1  0  0  0  0
 16 41  1  0  0  0  0
 17 18  1  0  0  0  0
 17 19  2  0  0  0  0
 18 42  1  0  0  0  0
 18 43  1  0  0  0  0
 18 44  1  0  0  0  0
 19 20  1  0  0  0  0
 19 22  1  0  0  0  0
 20 21  3  0  0  0  0
 22 23  2  0  0  0  0
M  END
> <s_m_source_file>
AV-unprocessed.smi

> <i_m_source_file_index>
483

> <i_lp_mmshare_version>
43012

> <i_f3d_flags>
0

> <s_epik_input>
W0NIM11bQ0gyXVtDSDJdW05IXUMoPU8pW0NASF0oW0NIM10pW05IXUMoPU8pW0NIMl1uMW5jKFtDSDNdKWMoW0NIM10pYyhDI04pYzE9Tw==

> <s_epik_cmdline>
J2VwaWtfcHl0aG9uJywgJy1waCcsICc3LjAnLCAnLXRuJywgJzgnLCAnLW1hJywgJzIwMCcsICctbWV0YWxfYmluZGluZycsICctaW1hZScsICc8aW5maWxlLm1hZT4nLCAnLW9tYWUnLCAnPG91dGZpbGUubWFlPic=

> <r_lp_tautomer_probability>
1

> <r_epik_Ionization_Penalty>
5.96698e-08

> <r_epik_Ionization_Penalty_Charging>
1.88177e-11

> <r_epik_Ionization_Penalty_Neutral>
5.9651e-08

> <r_epik_State_Penalty>
-0

> <r_epik_Charging_Adjusted_Penalty>
1.88177e-11

> <i_epik_Tot_Q>
0

> <i_epik_Tot_abs_Q>
0

> <r_epik_Metal_State_Penalty>
-0

> <b_epik_Metal_Only>
0

> <s_lp_Force_Field>
OPLS_2005

> <r_lp_Energy>
18.0289

> <b_lp_Chiralities_Consistent>
1

> <s_lp_Variant>
AV-unprocessed.smi:483-2

> <Gold.Version>
5.8.1

> <Gold.Id.Protein>
6NUR|6NUR_protein|mol2

> <Gold.PLP.Fitness>
42.3291

> <Gold.PLP.PLP>
-31.8365

> <Gold.PLP.part.hbond>
-4.5727

> <Gold.PLP.part.metal>
0.0000

> <Gold.PLP.part.buried>
-6.3456

> <Gold.PLP.part.nonpolar>
-22.3330

> <Gold.PLP.part.repulsive>
0.2670

> <Gold.PLP.ligand.clash>
0.0000

> <Gold.PLP.ligand.torsion>
0.2403

> <Gold.PLP.Chemscore.Hbond>
3.5996

> <Gold.PLP.Chemscore.CHOScore>
0.0000

> <Gold.PLP.Chemscore.Metal>
0.0000

> <Gold.Chemscore.Hbonds>
donor molecule, donor type, donor heavy atom, donor atom, acceptor molecule, acceptor atom, score
      L1  H     4    31       P1 10175  1.00
      L1  H     9    36       P1  7957  0.77
      P1  H  6896  6909       L1    21  0.84
      P1  H 10752 10763       L1    23  1.00

> <Gold.PLP.Chemscore.Internal.Correction>
0.1746

> <Gold.Rescore>
     Score         DG    S(hbond)    S(metal)    S(lipo)     H(rot)  DE(clash)    DE(int)     intcor
     14.54     -18.33       3.57        0.00      59.84       2.38       0.36       3.43       ----

> <Gold.Chemscore.Fitness>
14.5406

> <Gold.Chemscore.DG>
-18.3301

> <Gold.Chemscore.ZeroCoef>
-5.4800

> <Gold.Chemscore.Hbond>
3.5743

> <Gold.Chemscore.Metal>
0.0000

> <Gold.Chemscore.Lipo>
59.8372

> <Gold.Chemscore.Internal_Hbond>
0.0000

> <Gold.Chemscore.DEClash>
0.3612

> <Gold.Chemscore.DEInternal>
3.4283

> <Gold.Chemscore.Rot>
2.3785

> <Gold.Chemscore.Internal.Correction>
   9.000000E+99

> <Gold.Chemscore.Hbonds>
donor molecule, donor type, donor heavy atom, donor atom, acceptor molecule, acceptor atom, score
      L1  H     4    31       P1 10175  1.00
      L1  H     9    36       P1  7957  0.73
      P1  H  6896  6909       L1    21  0.74
      P1  H 10752 10763       L1    23  0.93

> <Gold.Chemscore.Hbond.Weighted>
-11.9382

> <Gold.Chemscore.Metal.Weighted>
-0.0000

> <Gold.Chemscore.Lipo.Weighted>
-7.0009

> <Gold.Chemscore.Internal_Hbond.Weighted>
0.0000

> <Gold.Chemscore.DEClash.Weighted>
0.3612

> <Gold.Chemscore.DEInternal.Weighted>
3.4283

> <Gold.Chemscore.Rot.Weighted>
6.0890

> <Gold.Chemscore.Internal.Correction.Weighted>
   9.000000E+99

> <Gold.Protein.RotatedTorsions>
[ 6907 6896 6895 6894 ] final  164.10 input  -60.11 | X-H torsion
[ 7974 7965 7964 7962 ] final   -1.04 input  175.53 | X-H torsion
[ 8008 7997 7996 7995 ] final   92.16 input   59.86 | X-H torsion
[ 10167 10162 10161 10158 ] final  -44.67 input  -65.29 | X-H torsion
[ 10718 10713 10712 10709 ] final    4.84 input   66.30 | X-H torsion
[ 10763 10752 10751 10750 ] final   63.18 input  -60.55 | X-H torsion
[ 11005 11000 10999 10996 ] final  -96.57 input  -57.11 | X-H torsion

> <Gold.Protein.ActiveResidues>
 VAL166  LYS551  ARG553  GLY616  TRP617  ASP618  TYR619  PRO620  LYS621  CYS622 
 ASP623  PHE694  ASN695  SER759  ASP760  ASP761  ALA762  ILE779  LEU786  VAL792 
 PHE793  MET794  SER795  GLU796  ALA797  LYS798  CYS799  TRP800  GLU811  SER814 

> <Gold.Protein.RotatedAtoms>
  151.9150  133.3571  159.3876 H   0  0  0  0  0  0  0  0  0  0  0  0  # atno 6907 bound_to 6896
  150.7049  134.4693  159.5427 H   0  0  0  0  0  0  0  0  0  0  0  0  # atno 6908 bound_to 6896
  152.2306  134.8325  160.0525 H   0  0  0  0  0  0  0  0  0  0  0  0  # atno 6909 bound_to 6896
  146.2421  140.1361  142.8336 H   0  0  0  0  0  0  0  0  0  0  0  0  # atno 7974 bound_to 7965
  156.0322  140.3329  155.7152 H   0  0  0  0  0  0  0  0  0  0  0  0  # atno 8008 bound_to 7997
  155.5868  140.0642  157.2786 H   0  0  0  0  0  0  0  0  0  0  0  0  # atno 8009 bound_to 7997
  154.4358  140.1834  156.1022 H   0  0  0  0  0  0  0  0  0  0  0  0  # atno 8010 bound_to 7997
  140.6888  143.2918  151.3528 H   0  0  0  0  0  0  0  0  0  0  0  0  # atno 10167 bound_to 10162
  156.8986  130.5713  149.5648 H   0  0  0  0  0  0  0  0  0  0  0  0  # atno 10718 bound_to 10713
  153.0008  135.5438  154.6311 H   0  0  0  0  0  0  0  0  0  0  0  0  # atno 10763 bound_to 10752
  154.5588  135.2832  155.0941 H   0  0  0  0  0  0  0  0  0  0  0  0  # atno 10764 bound_to 10752
  154.2152  135.6460  153.5180 H   0  0  0  0  0  0  0  0  0  0  0  0  # atno 10765 bound_to 10752
  141.1407  133.8107  157.0589 H   0  0  0  0  0  0  0  0  0  0  0  0  # atno 11005 bound_to 11000
  145.0286  140.8852  143.5123 LP  0  0  0  0  0  0  0  0  0  0  0  0  # atno 17320 bound_to 7965
  145.1421  139.2566  143.5485 LP  0  0  0  0  0  0  0  0  0  0  0  0  # atno 17321 bound_to 7965
  139.6271  144.0794  152.2443 LP  0  0  0  0  0  0  0  0  0  0  0  0  # atno 17342 bound_to 10162
  140.0256  144.6120  150.7530 LP  0  0  0  0  0  0  0  0  0  0  0  0  # atno 17343 bound_to 10162
  156.0593  130.5649  150.9159 LP  0  0  0  0  0  0  0  0  0  0  0  0  # atno 17370 bound_to 10713
  157.6040  131.0940  150.8911 LP  0  0  0  0  0  0  0  0  0  0  0  0  # atno 17371 bound_to 10713
  140.0584  134.9768  157.1262 LP  0  0  0  0  0  0  0  0  0  0  0  0  # atno 17394 bound_to 11000
  140.3885  134.2210  155.7167 LP  0  0  0  0  0  0  0  0  0  0  0  0  # atno 17395 bound_to 11000

$$$$
