AV-unprocessed.smi:816|AV-procd|sdf|3826|dock3
  -GOLD-   22720 1263D 1   1.00000     0.00000
 Structure written by MMmdl.
 40 41  0  0  0  0  0  0  0  0  1 V2000
  150.9061  145.0986  159.0248 C   0  0  0  0  0  0  0  0  0  0  0  0
  151.3424  143.6725  158.8236 C   0  0  0  0  0  0  0  0  0  0  0  0
  150.9387  143.0898  157.7429 N   0  0  0  0  0  0  0  0  0  0  0  0
  151.2811  141.7820  157.4598 N   0  0  0  0  0  0  0  0  0  0  0  0
  150.7239  141.2782  156.1995 C   0  0  0  0  0  0  0  0  0  0  0  0
  149.2980  140.7130  156.3909 C   0  0  2  0  0  0  0  0  0  0  0  0
  149.0417  139.7581  155.3809 O   0  0  0  0  0  0  0  0  0  0  0  0
  148.2183  141.7987  156.2673 C   0  0  0  0  0  0  0  0  0  0  0  0
  148.0206  142.0900  154.8896 O   0  0  0  0  0  0  0  0  0  0  0  0
  147.1125  143.0699  154.5520 C   0  0  0  0  0  0  0  0  0  0  0  0
  147.0476  143.4407  153.1932 C   0  0  0  0  0  0  0  0  0  0  0  0
  146.1459  144.4307  152.7571 C   0  0  0  0  0  0  0  0  0  0  0  0
  145.2947  145.0654  153.6829 C   0  0  0  0  0  0  0  0  0  0  0  0
  144.3622  146.0872  153.2371 C   0  0  0  0  0  0  0  0  0  0  0  0
  143.6199  146.9008  152.8821 N   0  0  0  0  0  0  0  0  0  0  0  0
  145.3520  144.7058  155.0440 C   0  0  0  0  0  0  0  0  0  0  0  0
  146.2545  143.7153  155.4782 C   0  0  0  0  0  0  0  0  0  0  0  0
  152.0394  140.9857  158.2651 C   0  0  0  0  0  0  0  0  0  0  0  0
  152.2996  139.8148  157.9841 O   0  0  0  0  0  0  0  0  0  0  0  0
  152.5003  141.6540  159.4843 C   0  0  0  0  0  0  0  0  0  0  0  0
  153.3074  140.8585  160.3524 C   0  0  0  0  0  0  0  0  0  0  0  0
  153.9782  140.2211  161.0481 N   0  0  0  0  0  0  0  0  0  0  0  0
  152.1794  142.9409  159.7693 C   0  0  0  0  0  0  0  0  0  0  0  0
  152.6293  143.6794  161.0226 C   0  0  0  0  0  0  0  0  0  0  0  0
  151.7643  145.7702  159.0090 H   0  0  0  0  0  0  0  0  0  0  0  0
  150.3987  145.2189  159.9819 H   0  0  0  0  0  0  0  0  0  0  0  0
  150.2158  145.4264  158.2461 H   0  0  0  0  0  0  0  0  0  0  0  0
  150.6944  142.1095  155.4922 H   0  0  0  0  0  0  0  0  0  0  0  0
  151.3830  140.5467  155.7277 H   0  0  0  0  0  0  0  0  0  0  0  0
  149.1984  140.2261  157.3623 H   0  0  0  0  0  0  0  0  0  0  0  0
  149.6914  139.8580  154.7013 H   0  0  0  0  0  0  0  0  0  0  0  0
  147.2905  141.4595  156.7318 H   0  0  0  0  0  0  0  0  0  0  0  0
  148.5448  142.7046  156.7815 H   0  0  0  0  0  0  0  0  0  0  0  0
  147.6960  142.9591  152.4759 H   0  0  0  0  0  0  0  0  0  0  0  0
  146.1126  144.6975  151.7105 H   0  0  0  0  0  0  0  0  0  0  0  0
  144.7047  145.1865  155.7636 H   0  0  0  0  0  0  0  0  0  0  0  0
  146.2695  143.4692  156.5289 H   0  0  0  0  0  0  0  0  0  0  0  0
  153.3087  143.0834  161.6314 H   0  0  0  0  0  0  0  0  0  0  0  0
  151.7695  143.9349  161.6429 H   0  0  0  0  0  0  0  0  0  0  0  0
  153.1513  144.6001  160.7607 H   0  0  0  0  0  0  0  0  0  0  0  0
  1  2  1  0  0  0  0
  1 25  1  0  0  0  0
  1 26  1  0  0  0  0
  1 27  1  0  0  0  0
  2 23  1  0  0  0  0
  2  3  2  0  0  0  0
  3  4  1  0  0  0  0
  4  5  1  0  0  0  0
  4 18  1  0  0  0  0
  5  6  1  0  0  0  0
  5 28  1  0  0  0  0
  5 29  1  0  0  0  0
  6  7  1  0  0  0  0
  6  8  1  0  0  0  0
  6 30  1  0  0  0  0
  7 31  1  0  0  0  0
  8  9  1  0  0  0  0
  8 32  1  0  0  0  0
  8 33  1  0  0  0  0
  9 10  1  0  0  0  0
 10 17  1  0  0  0  0
 10 11  2  0  0  0  0
 11 12  1  0  0  0  0
 11 34  1  0  0  0  0
 12 13  2  0  0  0  0
 12 35  1  0  0  0  0
 13 14  1  0  0  0  0
 13 16  1  0  0  0  0
 14 15  3  0  0  0  0
 16 17  2  0  0  0  0
 16 36  1  0  0  0  0
 17 37  1  0  0  0  0
 18 19  2  0  0  0  0
 18 20  1  0  0  0  0
 20 21  1  0  0  0  0
 20 23  2  0  0  0  0
 21 22  3  0  0  0  0
 23 24  1  0  0  0  0
 24 38  1  0  0  0  0
 24 39  1  0  0  0  0
 24 40  1  0  0  0  0
M  END
> <s_m_source_file>
AV-unprocessed.smi

> <i_m_source_file_index>
816

> <i_lp_mmshare_version>
43012

> <i_f3d_flags>
0

> <s_epik_input>
TiNDYyhjMVtDSDNdKWMoPU8pbihuYzFbQ0gzXSlbQ0gyXVtDQEhdKFtPSF0pW0NIMl1PYzJbY0hdW2NIXWMoQyNOKVtjSF1bY0hdMg==

> <s_epik_cmdline>
J2VwaWtfcHl0aG9uJywgJy1waCcsICc3LjAnLCAnLXRuJywgJzgnLCAnLW1hJywgJzIwMCcsICctbWV0YWxfYmluZGluZycsICctaW1hZScsICc8aW5maWxlLm1hZT4nLCAnLW9tYWUnLCAnPG91dGZpbGUubWFlPic=

> <r_lp_tautomer_probability>
1

> <r_epik_Ionization_Penalty>
1.1732e-07

> <r_epik_Ionization_Penalty_Charging>
1.4567e-10

> <r_epik_Ionization_Penalty_Neutral>
1.17174e-07

> <r_epik_State_Penalty>
-0

> <r_epik_Charging_Adjusted_Penalty>
1.4567e-10

> <i_epik_Tot_Q>
0

> <i_epik_Tot_abs_Q>
0

> <r_epik_Metal_State_Penalty>
-0

> <b_epik_Metal_Only>
0

> <s_lp_Force_Field>
OPLS_2005

> <r_lp_Energy>
30.0039

> <b_lp_Chiralities_Consistent>
1

> <s_lp_Variant>
AV-unprocessed.smi:816-1

> <Gold.Version>
5.8.1

> <Gold.Id.Protein>
6NUR|6NUR_protein|mol2

> <Gold.PLP.Fitness>
45.1627

> <Gold.PLP.PLP>
-43.9901

> <Gold.PLP.part.hbond>
-1.9322

> <Gold.PLP.part.metal>
0.0000

> <Gold.PLP.part.buried>
-7.2298

> <Gold.PLP.part.nonpolar>
-36.3129

> <Gold.PLP.part.repulsive>
0.3296

> <Gold.PLP.ligand.clash>
0.0000

> <Gold.PLP.ligand.torsion>
0.8625

> <Gold.PLP.Chemscore.Hbond>
0.9600

> <Gold.PLP.Chemscore.CHOScore>
0.0000

> <Gold.PLP.Chemscore.Metal>
0.0000

> <Gold.PLP.Chemscore.Internal.Correction>
0.0176

> <Gold.Rescore>
     Score         DG    S(hbond)    S(metal)    S(lipo)     H(rot)  DE(clash)    DE(int)     intcor
     11.12     -12.66       0.53        0.00     103.67       2.62       0.76       0.79       ----

> <Gold.Chemscore.Fitness>
11.1210

> <Gold.Chemscore.DG>
-12.6645

> <Gold.Chemscore.ZeroCoef>
-5.4800

> <Gold.Chemscore.Hbond>
0.5294

> <Gold.Chemscore.Metal>
0.0000

> <Gold.Chemscore.Lipo>
103.6667

> <Gold.Chemscore.Internal_Hbond>
0.0000

> <Gold.Chemscore.DEClash>
0.7557

> <Gold.Chemscore.DEInternal>
0.7878

> <Gold.Chemscore.Rot>
2.6222

> <Gold.Chemscore.Internal.Correction>
   9.000000E+99

> <Gold.Chemscore.Hbond.Weighted>
-1.7682

> <Gold.Chemscore.Metal.Weighted>
-0.0000

> <Gold.Chemscore.Lipo.Weighted>
-12.1290

> <Gold.Chemscore.Internal_Hbond.Weighted>
0.0000

> <Gold.Chemscore.DEClash.Weighted>
0.7557

> <Gold.Chemscore.DEInternal.Weighted>
0.7878

> <Gold.Chemscore.Rot.Weighted>
6.7127

> <Gold.Chemscore.Internal.Correction.Weighted>
   9.000000E+99

> <Gold.Protein.RotatedTorsions>
[ 6907 6896 6895 6894 ] final  -74.40 input  -60.11 | X-H torsion
[ 7974 7965 7964 7962 ] final   89.48 input  175.53 | X-H torsion
[ 8008 7997 7996 7995 ] final   63.99 input   59.86 | X-H torsion
[ 10167 10162 10161 10158 ] final  104.68 input  -65.29 | X-H torsion
[ 10718 10713 10712 10709 ] final -144.40 input   66.30 | X-H torsion
[ 10763 10752 10751 10750 ] final   43.91 input  -60.55 | X-H torsion
[ 11005 11000 10999 10996 ] final -169.86 input  -57.11 | X-H torsion

> <Gold.Protein.ActiveResidues>
 VAL166  LYS551  ARG553  GLY616  TRP617  ASP618  TYR619  PRO620  LYS621  CYS622 
 ASP623  PHE694  ASN695  SER759  ASP760  ASP761  ALA762  ILE779  LEU786  VAL792 
 PHE793  MET794  SER795  GLU796  ALA797  LYS798  CYS799  TRP800  GLU811  SER814 

> <Gold.Protein.RotatedAtoms>
  150.7094  134.4874  159.5499 H   0  0  0  0  0  0  0  0  0  0  0  0  # atno 6907 bound_to 6896
  152.2499  134.8140  160.0456 H   0  0  0  0  0  0  0  0  0  0  0  0  # atno 6908 bound_to 6896
  151.8892  133.3477  159.3829 H   0  0  0  0  0  0  0  0  0  0  0  0  # atno 6909 bound_to 6896
  145.5317  139.2283  143.2615 H   0  0  0  0  0  0  0  0  0  0  0  0  # atno 7974 bound_to 7965
  155.6389  140.3496  155.4708 H   0  0  0  0  0  0  0  0  0  0  0  0  # atno 8008 bound_to 7997
  155.9942  140.1200  157.0633 H   0  0  0  0  0  0  0  0  0  0  0  0  # atno 8009 bound_to 7997
  154.4228  140.1113  156.5593 H   0  0  0  0  0  0  0  0  0  0  0  0  # atno 8010 bound_to 7997
  139.7156  144.7069  151.0955 H   0  0  0  0  0  0  0  0  0  0  0  0  # atno 10167 bound_to 10162
  156.3697  130.7781  151.1960 H   0  0  0  0  0  0  0  0  0  0  0  0  # atno 10718 bound_to 10713
  152.9851  135.6087  154.3188 H   0  0  0  0  0  0  0  0  0  0  0  0  # atno 10763 bound_to 10752
  154.2899  135.2775  155.2661 H   0  0  0  0  0  0  0  0  0  0  0  0  # atno 10764 bound_to 10752
  154.4961  135.5879  153.6552 H   0  0  0  0  0  0  0  0  0  0  0  0  # atno 10765 bound_to 10752
  140.5260  134.5663  157.5061 H   0  0  0  0  0  0  0  0  0  0  0  0  # atno 11005 bound_to 11000
  146.2039  140.6134  142.9090 LP  0  0  0  0  0  0  0  0  0  0  0  0  # atno 17320 bound_to 7965
  144.7622  140.5449  143.6727 LP  0  0  0  0  0  0  0  0  0  0  0  0  # atno 17321 bound_to 7965
  140.7743  143.5234  150.9509 LP  0  0  0  0  0  0  0  0  0  0  0  0  # atno 17342 bound_to 10162
  139.8920  143.6942  152.3144 LP  0  0  0  0  0  0  0  0  0  0  0  0  # atno 17343 bound_to 10162
  157.7482  131.0376  150.4462 LP  0  0  0  0  0  0  0  0  0  0  0  0  # atno 17370 bound_to 10713
  156.4687  130.4048  149.6531 LP  0  0  0  0  0  0  0  0  0  0  0  0  # atno 17371 bound_to 10713
  139.9580  134.7502  156.0299 LP  0  0  0  0  0  0  0  0  0  0  0  0  # atno 17394 bound_to 11000
  141.1308  133.6587  156.3459 LP  0  0  0  0  0  0  0  0  0  0  0  0  # atno 17395 bound_to 11000

$$$$
