AV-unprocessed.smi:2888|AV-procd|sdf|11104|dock1
  -GOLD-   2272015573D 1   1.00000     0.00000
 Structure written by MMmdl.
 34 36  0  0  0  0  0  0  0  0  2 V2000
  153.0963  140.9066  160.0812 C   0  0  0  0  0  0  0  0  0  0  0  0
  152.3362  142.0788  159.4981 C   0  0  0  0  0  0  0  0  0  0  0  0
  152.5438  143.3929  159.9515 C   0  0  0  0  0  0  0  0  0  0  0  0
  151.7771  144.4018  159.3373 C   0  0  0  0  0  0  0  0  0  0  0  0
  151.9050  145.8588  159.7283 C   0  0  0  0  0  0  0  0  0  0  0  0
  150.8919  144.0833  158.3594 N   0  3  0  0  0  0  0  0  0  0  0  0
  150.7489  142.8060  157.9731 C   0  0  0  0  0  0  0  0  0  0  0  0
  149.8387  142.5408  156.9659 N   0  0  0  0  0  0  0  0  0  0  0  0
  149.5677  141.2103  156.4351 C   0  0  2  0  0  0  0  0  0  0  0  0
  150.8026  140.5538  155.8043 C   0  0  0  0  0  0  0  0  0  0  0  0
  150.3100  140.2520  154.3835 C   0  0  1  0  0  0  0  0  0  0  0  0
  149.2503  139.1425  154.3588 C   0  0  0  0  0  0  0  0  0  0  0  0
  148.0321  139.8609  154.9385 C   0  0  0  0  0  0  0  0  0  0  0  0
  148.6003  141.2544  155.2409 C   0  0  2  0  0  0  0  0  0  0  0  0
  149.5017  141.3925  154.1544 O   0  0  0  0  0  0  0  0  0  0  0  0
  151.4496  141.8023  158.5210 N   0  0  0  0  0  0  0  0  0  0  0  0
  153.7318  141.2216  160.9095 H   0  0  0  0  0  0  0  0  0  0  0  0
  153.7297  140.4492  159.3206 H   0  0  0  0  0  0  0  0  0  0  0  0
  152.4039  140.1506  160.4530 H   0  0  0  0  0  0  0  0  0  0  0  0
  153.2565  143.6180  160.7321 H   0  0  0  0  0  0  0  0  0  0  0  0
  152.5577  145.9781  160.5936 H   0  0  0  0  0  0  0  0  0  0  0  0
  150.9288  146.2743  159.9797 H   0  0  0  0  0  0  0  0  0  0  0  0
  152.3237  146.4359  158.9033 H   0  0  0  0  0  0  0  0  0  0  0  0
  149.4380  143.3310  156.4819 H   0  0  0  0  0  0  0  0  0  0  0  0
  149.1498  140.5914  157.2304 H   0  0  0  0  0  0  0  0  0  0  0  0
  151.6512  141.2390  155.7693 H   0  0  0  0  0  0  0  0  0  0  0  0
  151.1173  139.6548  156.3349 H   0  0  0  0  0  0  0  0  0  0  0  0
  151.1115  140.1157  153.6571 H   0  0  0  0  0  0  0  0  0  0  0  0
  149.0517  138.8161  153.3372 H   0  0  0  0  0  0  0  0  0  0  0  0
  149.5491  138.2722  154.9441 H   0  0  0  0  0  0  0  0  0  0  0  0
  147.2361  139.9221  154.1953 H   0  0  0  0  0  0  0  0  0  0  0  0
  147.6325  139.3703  155.8267 H   0  0  0  0  0  0  0  0  0  0  0  0
  147.8372  142.0314  155.3026 H   0  0  0  0  0  0  0  0  0  0  0  0
  150.3439  144.8243  157.9219 H   0  0  0  0  0  0  0  0  0  0  0  0
  1  2  1  0  0  0  0
  1 17  1  0  0  0  0
  1 18  1  0  0  0  0
  1 19  1  0  0  0  0
  2 16  1  0  0  0  0
  2  3  2  0  0  0  0
  3  4  1  0  0  0  0
  3 20  1  0  0  0  0
  4  5  1  0  0  0  0
  4  6  2  0  0  0  0
  5 21  1  0  0  0  0
  5 22  1  0  0  0  0
  5 23  1  0  0  0  0
  6  7  1  0  0  0  0
  6 34  1  0  0  0  0
  7  8  1  0  0  0  0
  7 16  2  0  0  0  0
  8  9  1  0  0  0  0
  8 24  1  0  0  0  0
  9 14  1  0  0  0  0
  9 10  1  0  0  0  0
  9 25  1  0  0  0  0
 10 11  1  0  0  0  0
 10 26  1  0  0  0  0
 10 27  1  0  0  0  0
 11 15  1  0  0  0  0
 11 12  1  0  0  0  0
 11 28  1  0  0  0  0
 12 13  1  0  0  0  0
 12 29  1  0  0  0  0
 12 30  1  0  0  0  0
 13 14  1  0  0  0  0
 13 31  1  0  0  0  0
 13 32  1  0  0  0  0
 14 15  1  0  0  0  0
 14 33  1  0  0  0  0
M  CHG  1   6   1
M  END
> <s_m_source_file>
AV-unprocessed.smi

> <i_m_source_file_index>
2888

> <i_lp_mmshare_version>
43012

> <i_f3d_flags>
0

> <s_epik_input>
W0NIM11jMVtjSF1jKFtDSDNdKW5jKG4xKVtOSF1bQ0BIXShbQ0gyXVtDQEBIXTIzKVtDQEBIXShPMylbQ0gyXVtDSDJdMg==

> <s_epik_cmdline>
J2VwaWtfcHl0aG9uJywgJy1waCcsICc3LjAnLCAnLXRuJywgJzgnLCAnLW1hJywgJzIwMCcsICctbWV0YWxfYmluZGluZycsICctaW1hZScsICc8aW5maWxlLm1hZT4nLCAnLW9tYWUnLCAnPG91dGZpbGUubWFlPic=

> <r_lp_tautomer_probability>
0.505494

> <r_epik_Ionization_Penalty>
2.49163

> <r_epik_Ionization_Penalty_Charging>
2.49163

> <r_epik_Ionization_Penalty_Neutral>
3.7631e-06

> <r_epik_State_Penalty>
2.656

> <r_epik_Charging_Adjusted_Penalty>
5.14762

> <i_epik_Tot_Q>
1

> <i_epik_Tot_abs_Q>
1

> <r_epik_Metal_State_Penalty>
2.66479

> <b_epik_Metal_Only>
0

> <s_lp_Force_Field>
OPLS_2005

> <r_lp_Energy>
35.8908

> <b_lp_Chiralities_Consistent>
1

> <s_lp_Variant>
AV-unprocessed.smi:2888-5

> <Gold.Version>
5.8.1

> <Gold.Id.Protein>
6NUR|6NUR_protein|mol2

> <Gold.PLP.Fitness>
41.0163

> <Gold.PLP.PLP>
-33.3130

> <Gold.PLP.part.hbond>
-3.0000

> <Gold.PLP.part.metal>
0.0000

> <Gold.PLP.part.buried>
0.4740

> <Gold.PLP.part.nonpolar>
-30.6014

> <Gold.PLP.part.repulsive>
0.2619

> <Gold.PLP.ligand.clash>
0.0000

> <Gold.PLP.ligand.torsion>
0.0132

> <Gold.PLP.Chemscore.Hbond>
2.5702

> <Gold.PLP.Chemscore.CHOScore>
0.0000

> <Gold.PLP.Chemscore.Metal>
0.0000

> <Gold.Chemscore.Hbonds>
donor molecule, donor type, donor heavy atom, donor atom, acceptor molecule, acceptor atom, score
      L1  H     8    24       P1  8028  2.00
      P1  H  8011  8017       L1    15  0.56

> <Gold.PLP.Chemscore.Internal.Correction>
0.0193

> <Gold.Rescore>
     Score         DG    S(hbond)    S(metal)    S(lipo)     H(rot)  DE(clash)    DE(int)     intcor
     17.70     -19.51       1.74        0.00      92.00       1.00       1.80       0.01       ----

> <Gold.Chemscore.Fitness>
17.6979

> <Gold.Chemscore.DG>
-19.5100

> <Gold.Chemscore.ZeroCoef>
-5.4800

> <Gold.Chemscore.Hbond>
1.7445

> <Gold.Chemscore.Metal>
0.0000

> <Gold.Chemscore.Lipo>
91.9957

> <Gold.Chemscore.Internal_Hbond>
0.0000

> <Gold.Chemscore.DEClash>
1.8018

> <Gold.Chemscore.DEInternal>
0.0102

> <Gold.Chemscore.Rot>
1.0000

> <Gold.Chemscore.Internal.Correction>
   9.000000E+99

> <Gold.Chemscore.Hbonds>
donor molecule, donor type, donor heavy atom, donor atom, acceptor molecule, acceptor atom, score
      L1  H     8    24       P1  8028  1.00
      P1  H  8011  8017       L1    15  0.52

> <Gold.Chemscore.Hbond.Weighted>
-5.8265

> <Gold.Chemscore.Metal.Weighted>
-0.0000

> <Gold.Chemscore.Lipo.Weighted>
-10.7635

> <Gold.Chemscore.Internal_Hbond.Weighted>
0.0000

> <Gold.Chemscore.DEClash.Weighted>
1.8018

> <Gold.Chemscore.DEInternal.Weighted>
0.0102

> <Gold.Chemscore.Rot.Weighted>
2.5600

> <Gold.Chemscore.Internal.Correction.Weighted>
   9.000000E+99

> <Gold.Protein.RotatedTorsions>
[ 6907 6896 6895 6894 ] final -138.75 input  -60.11 | X-H torsion
[ 7974 7965 7964 7962 ] final -135.10 input  175.53 | X-H torsion
[ 8008 7997 7996 7995 ] final -103.17 input   59.86 | X-H torsion
[ 10167 10162 10161 10158 ] final -134.98 input  -65.29 | X-H torsion
[ 10718 10713 10712 10709 ] final -170.24 input   66.30 | X-H torsion
[ 10763 10752 10751 10750 ] final   -8.45 input  -60.55 | X-H torsion
[ 11005 11000 10999 10996 ] final  166.23 input  -57.11 | X-H torsion

> <Gold.Protein.ActiveResidues>
 VAL166  LYS551  ARG553  GLY616  TRP617  ASP618  TYR619  PRO620  LYS621  CYS622 
 ASP623  PHE694  ASN695  SER759  ASP760  ASP761  ALA762  ILE779  LEU786  VAL792 
 PHE793  MET794  SER795  GLU796  ALA797  LYS798  CYS799  TRP800  GLU811  SER814 

> <Gold.Protein.RotatedAtoms>
  151.0390  133.5722  159.2652 H   0  0  0  0  0  0  0  0  0  0  0  0  # atno 6907 bound_to 6896
  151.2776  135.0703  159.9167 H   0  0  0  0  0  0  0  0  0  0  0  0  # atno 6908 bound_to 6896
  152.5360  134.0110  159.7992 H   0  0  0  0  0  0  0  0  0  0  0  0  # atno 6909 bound_to 6896
  144.9044  140.6814  143.5064 H   0  0  0  0  0  0  0  0  0  0  0  0  # atno 7974 bound_to 7965
  154.8671  140.0424  157.1701 H   0  0  0  0  0  0  0  0  0  0  0  0  # atno 8008 bound_to 7997
  154.8778  140.2968  155.5422 H   0  0  0  0  0  0  0  0  0  0  0  0  # atno 8009 bound_to 7997
  156.2999  140.2417  156.3776 H   0  0  0  0  0  0  0  0  0  0  0  0  # atno 8010 bound_to 7997
  139.8825  143.6821  152.2625 H   0  0  0  0  0  0  0  0  0  0  0  0  # atno 10167 bound_to 10162
  156.7233  130.9278  151.3099 H   0  0  0  0  0  0  0  0  0  0  0  0  # atno 10718 bound_to 10713
  153.4407  135.7013  153.6171 H   0  0  0  0  0  0  0  0  0  0  0  0  # atno 10763 bound_to 10752
  153.4547  135.3750  155.2304 H   0  0  0  0  0  0  0  0  0  0  0  0  # atno 10764 bound_to 10752
  154.8727  135.4005  154.3805 H   0  0  0  0  0  0  0  0  0  0  0  0  # atno 10765 bound_to 10752
  140.2643  134.7877  157.3618 H   0  0  0  0  0  0  0  0  0  0  0  0  # atno 11005 bound_to 11000
  145.3561  139.1693  143.4408 LP  0  0  0  0  0  0  0  0  0  0  0  0  # atno 17320 bound_to 7965
  146.3126  140.3618  142.8665 LP  0  0  0  0  0  0  0  0  0  0  0  0  # atno 17321 bound_to 7965
  139.7183  144.7607  151.0998 LP  0  0  0  0  0  0  0  0  0  0  0  0  # atno 17342 bound_to 10162
  140.7742  143.5241  150.9501 LP  0  0  0  0  0  0  0  0  0  0  0  0  # atno 17343 bound_to 10162
  157.6889  130.9213  150.0459 LP  0  0  0  0  0  0  0  0  0  0  0  0  # atno 17370 bound_to 10713
  156.1579  130.3643  149.9342 LP  0  0  0  0  0  0  0  0  0  0  0  0  # atno 17371 bound_to 10713
  140.1434  134.4942  155.8014 LP  0  0  0  0  0  0  0  0  0  0  0  0  # atno 17394 bound_to 11000
  141.2186  133.6834  156.7251 LP  0  0  0  0  0  0  0  0  0  0  0  0  # atno 17395 bound_to 11000

$$$$
