AV-unprocessed.smi:2069|AV-procd|sdf|8438|dock2
  -GOLD-   2272011133D 1   1.00000     0.00000
 Structure written by MMmdl.
 38 39  0  0  0  0  0  0  0  0  3 V2000
  152.1270  141.1921  158.7609 C   0  0  0  0  0  0  0  0  0  0  0  0
  151.7502  140.6911  157.4089 C   0  0  0  0  0  0  0  0  0  0  0  0
  152.5076  139.8358  156.7179 N   0  0  0  0  0  0  0  0  0  0  0  0
  151.9476  139.5165  155.4890 N   0  0  0  0  0  0  0  0  0  0  0  0
  150.7726  140.1245  155.2729 C   0  0  0  0  0  0  0  0  0  0  0  0
  150.0681  139.9519  154.1423 N   0  5  0  0  0  0  0  0  0  0  0  0
  148.7234  140.0864  154.1575 C   0  0  0  0  0  0  0  0  0  0  0  0
  148.0940  141.1292  154.3507 O   0  0  0  0  0  0  0  0  0  0  0  0
  148.0645  138.9423  153.9257 N   0  0  0  0  0  0  0  0  0  0  0  0
  146.6135  138.7955  153.8591 C   0  0  0  0  0  0  0  0  0  0  0  0
  146.1183  138.2684  152.4848 C   0  0  1  0  0  0  0  0  0  0  0  0
  146.7946  139.0596  151.3381 C   0  0  0  0  0  0  0  0  0  0  0  0
  146.3229  136.7861  152.3838 N   0  3  0  0  0  0  0  0  0  0  0  0
  145.9383  136.0684  153.6310 C   0  0  0  0  0  0  0  0  0  0  0  0
  146.2251  134.5626  153.5191 C   0  0  0  0  0  0  0  0  0  0  0  0
  145.5225  134.0276  152.4080 O   0  0  0  0  0  0  0  0  0  0  0  0
  145.9499  134.6205  151.1912 C   0  0  0  0  0  0  0  0  0  0  0  0
  145.6687  136.1328  151.2158 C   0  0  0  0  0  0  0  0  0  0  0  0
  150.2712  141.1758  156.5970 S   0  0  0  0  0  0  0  0  0  0  0  0
  151.8929  140.4406  159.5149 H   0  0  0  0  0  0  0  0  0  0  0  0
  151.5777  142.1045  158.9935 H   0  0  0  0  0  0  0  0  0  0  0  0
  153.1947  141.4094  158.7995 H   0  0  0  0  0  0  0  0  0  0  0  0
  148.6177  138.1107  153.7773 H   0  0  0  0  0  0  0  0  0  0  0  0
  146.3122  138.1062  154.6483 H   0  0  0  0  0  0  0  0  0  0  0  0
  146.1738  139.7577  154.1167 H   0  0  0  0  0  0  0  0  0  0  0  0
  145.0461  138.4525  152.4020 H   0  0  0  0  0  0  0  0  0  0  0  0
  146.6611  140.1351  151.4545 H   0  0  0  0  0  0  0  0  0  0  0  0
  146.3667  138.8184  150.3653 H   0  0  0  0  0  0  0  0  0  0  0  0
  147.8672  138.8668  151.2993 H   0  0  0  0  0  0  0  0  0  0  0  0
  146.4797  136.4520  154.4932 H   0  0  0  0  0  0  0  0  0  0  0  0
  144.8771  136.2268  153.8303 H   0  0  0  0  0  0  0  0  0  0  0  0
  147.2953  134.3741  153.4189 H   0  0  0  0  0  0  0  0  0  0  0  0
  145.8951  134.0506  154.4233 H   0  0  0  0  0  0  0  0  0  0  0  0
  147.0111  134.4243  151.0295 H   0  0  0  0  0  0  0  0  0  0  0  0
  145.4125  134.1536  150.3656 H   0  0  0  0  0  0  0  0  0  0  0  0
  144.5932  136.3138  151.2505 H   0  0  0  0  0  0  0  0  0  0  0  0
  146.0412  136.5460  150.2792 H   0  0  0  0  0  0  0  0  0  0  0  0
  147.3154  136.6469  152.2580 H   0  0  0  0  0  0  0  0  0  0  0  0
  1  2  1  0  0  0  0
  1 20  1  0  0  0  0
  1 21  1  0  0  0  0
  1 22  1  0  0  0  0
  2 19  1  0  0  0  0
  2  3  2  0  0  0  0
  3  4  1  0  0  0  0
  4  5  2  0  0  0  0
  5  6  1  0  0  0  0
  5 19  1  0  0  0  0
  6  7  1  0  0  0  0
  7  8  2  0  0  0  0
  7  9  1  0  0  0  0
  9 10  1  0  0  0  0
  9 23  1  0  0  0  0
 10 11  1  0  0  0  0
 10 24  1  0  0  0  0
 10 25  1  0  0  0  0
 11 12  1  0  0  0  0
 11 13  1  0  0  0  0
 11 26  1  0  0  0  0
 12 27  1  0  0  0  0
 12 28  1  0  0  0  0
 12 29  1  0  0  0  0
 13 18  1  0  0  0  0
 13 14  1  0  0  0  0
 13 38  1  0  0  0  0
 14 15  1  0  0  0  0
 14 30  1  0  0  0  0
 14 31  1  0  0  0  0
 15 16  1  0  0  0  0
 15 32  1  0  0  0  0
 15 33  1  0  0  0  0
 16 17  1  0  0  0  0
 17 18  1  0  0  0  0
 17 34  1  0  0  0  0
 17 35  1  0  0  0  0
 18 36  1  0  0  0  0
 18 37  1  0  0  0  0
M  CHG  1   6  -1
M  CHG  1  13   1
M  END
> <s_m_source_file>
AV-unprocessed.smi

> <i_m_source_file_index>
2069

> <i_lp_mmshare_version>
43012

> <i_f3d_flags>
0

> <s_epik_input>
W0NIM11jMW5uYyhzMSlbTkhdQyg9TylbTkhdW0NIMl1bQ0BIXShbQ0gzXSlOMltDSDJdW0NIMl1PW0NIMl1bQ0gyXTI=

> <s_epik_cmdline>
J2VwaWtfcHl0aG9uJywgJy1waCcsICc3LjAnLCAnLXRuJywgJzgnLCAnLW1hJywgJzIwMCcsICctbWV0YWxfYmluZGluZycsICctaW1hZScsICc8aW5maWxlLm1hZT4nLCAnLW9tYWUnLCAnPG91dGZpbGUubWFlPic=

> <r_lp_tautomer_probability>
1

> <r_epik_Ionization_Penalty>
3.53072

> <r_epik_Ionization_Penalty_Charging>
3.4216

> <r_epik_Ionization_Penalty_Neutral>
0.109115

> <r_epik_State_Penalty>
3.61496

> <r_epik_Charging_Adjusted_Penalty>
7.03656

> <i_epik_Tot_Q>
0

> <i_epik_Tot_abs_Q>
2

> <r_epik_Metal_State_Penalty>
1.13918

> <b_epik_Metal_Only>
1

> <s_lp_Force_Field>
OPLS_2005

> <r_lp_Energy>
13.0561

> <b_lp_Chiralities_Consistent>
1

> <s_lp_Variant>
AV-unprocessed.smi:2069-8

> <Gold.Version>
5.8.1

> <Gold.Id.Protein>
6NUR|6NUR_protein|mol2

> <Gold.PLP.Fitness>
35.1485

> <Gold.PLP.PLP>
-27.8704

> <Gold.PLP.part.hbond>
-3.0000

> <Gold.PLP.part.metal>
0.0000

> <Gold.PLP.part.buried>
-2.2530

> <Gold.PLP.part.nonpolar>
-23.9310

> <Gold.PLP.part.repulsive>
0.6532

> <Gold.PLP.ligand.clash>
0.0000

> <Gold.PLP.ligand.torsion>
1.0718

> <Gold.PLP.Chemscore.Hbond>
3.1000

> <Gold.PLP.Chemscore.CHOScore>
0.0000

> <Gold.PLP.Chemscore.Metal>
0.0000

> <Gold.Chemscore.Hbonds>
donor molecule, donor type, donor heavy atom, donor atom, acceptor molecule, acceptor atom, score
      L1  H    13    38       P1  7948  2.00
      P1  H  7997  8010       L1     3  1.00

> <Gold.PLP.Chemscore.Internal.Correction>
0.1218

> <Gold.Rescore>
     Score         DG    S(hbond)    S(metal)    S(lipo)     H(rot)  DE(clash)    DE(int)     intcor
     13.01     -14.46       1.93        0.00      57.27       1.62       0.46       1.00       ----

> <Gold.Chemscore.Fitness>
13.0126

> <Gold.Chemscore.DG>
-14.4649

> <Gold.Chemscore.ZeroCoef>
-5.4800

> <Gold.Chemscore.Hbond>
1.9252

> <Gold.Chemscore.Metal>
0.0000

> <Gold.Chemscore.Lipo>
57.2657

> <Gold.Chemscore.Internal_Hbond>
0.0000

> <Gold.Chemscore.DEClash>
0.4555

> <Gold.Chemscore.DEInternal>
0.9968

> <Gold.Chemscore.Rot>
1.6192

> <Gold.Chemscore.Internal.Correction>
   9.000000E+99

> <Gold.Chemscore.Hbonds>
donor molecule, donor type, donor heavy atom, donor atom, acceptor molecule, acceptor atom, score
      L1  H    13    38       P1  7948  1.00
      P1  H  7997  8010       L1     3  0.44

> <Gold.Chemscore.Hbond.Weighted>
-6.4300

> <Gold.Chemscore.Metal.Weighted>
-0.0000

> <Gold.Chemscore.Lipo.Weighted>
-6.7001

> <Gold.Chemscore.Internal_Hbond.Weighted>
0.0000

> <Gold.Chemscore.DEClash.Weighted>
0.4555

> <Gold.Chemscore.DEInternal.Weighted>
0.9968

> <Gold.Chemscore.Rot.Weighted>
4.1452

> <Gold.Chemscore.Internal.Correction.Weighted>
   9.000000E+99

> <Gold.Protein.RotatedTorsions>
[ 6907 6896 6895 6894 ] final  166.38 input  -60.11 | X-H torsion
[ 7974 7965 7964 7962 ] final -127.90 input  175.53 | X-H torsion
[ 8008 7997 7996 7995 ] final   78.54 input   59.86 | X-H torsion
[ 10167 10162 10161 10158 ] final   91.54 input  -65.29 | X-H torsion
[ 10718 10713 10712 10709 ] final -137.54 input   66.30 | X-H torsion
[ 10763 10752 10751 10750 ] final   20.64 input  -60.55 | X-H torsion
[ 11005 11000 10999 10996 ] final -125.73 input  -57.11 | X-H torsion

> <Gold.Protein.ActiveResidues>
 VAL166  LYS551  ARG553  GLY616  TRP617  ASP618  TYR619  PRO620  LYS621  CYS622 
 ASP623  PHE694  ASN695  SER759  ASP760  ASP761  ALA762  ILE779  LEU786  VAL792 
 PHE793  MET794  SER795  GLU796  ALA797  LYS798  CYS799  TRP800  GLU811  SER814 

> <Gold.Protein.RotatedAtoms>
  151.8798  133.3493  159.3762 H   0  0  0  0  0  0  0  0  0  0  0  0  # atno 6907 bound_to 6896
  150.7130  134.5030  159.5580 H   0  0  0  0  0  0  0  0  0  0  0  0  # atno 6908 bound_to 6896
  152.2579  134.8065  160.0486 H   0  0  0  0  0  0  0  0  0  0  0  0  # atno 6909 bound_to 6896
  144.9724  140.7559  143.4662 H   0  0  0  0  0  0  0  0  0  0  0  0  # atno 7974 bound_to 7965
  155.8571  140.3455  155.5732 H   0  0  0  0  0  0  0  0  0  0  0  0  # atno 8008 bound_to 7997
  155.7974  140.0880  157.1995 H   0  0  0  0  0  0  0  0  0  0  0  0  # atno 8009 bound_to 7997
  154.4010  140.1472  156.3221 H   0  0  0  0  0  0  0  0  0  0  0  0  # atno 8010 bound_to 7997
  139.8364  144.6662  150.9336 H   0  0  0  0  0  0  0  0  0  0  0  0  # atno 10167 bound_to 10162
  156.2893  130.7366  151.1386 H   0  0  0  0  0  0  0  0  0  0  0  0  # atno 10718 bound_to 10713
  153.1060  135.6685  153.9585 H   0  0  0  0  0  0  0  0  0  0  0  0  # atno 10763 bound_to 10752
  153.9142  135.3021  155.3450 H   0  0  0  0  0  0  0  0  0  0  0  0  # atno 10764 bound_to 10752
  154.7481  135.5048  153.9317 H   0  0  0  0  0  0  0  0  0  0  0  0  # atno 10765 bound_to 10752
  140.9739  134.0768  157.3840 H   0  0  0  0  0  0  0  0  0  0  0  0  # atno 11005 bound_to 11000
  145.2539  139.2020  143.4927 LP  0  0  0  0  0  0  0  0  0  0  0  0  # atno 17320 bound_to 7965
  146.3386  140.2458  142.8597 LP  0  0  0  0  0  0  0  0  0  0  0  0  # atno 17321 bound_to 7965
  140.7802  143.3953  151.1241 LP  0  0  0  0  0  0  0  0  0  0  0  0  # atno 17342 bound_to 10162
  139.7602  143.8646  152.3098 LP  0  0  0  0  0  0  0  0  0  0  0  0  # atno 17343 bound_to 10162
  157.7338  131.0588  150.5559 LP  0  0  0  0  0  0  0  0  0  0  0  0  # atno 17370 bound_to 10713
  156.5674  130.4271  149.6035 LP  0  0  0  0  0  0  0  0  0  0  0  0  # atno 17371 bound_to 10713
  139.8923  135.0123  156.6837 LP  0  0  0  0  0  0  0  0  0  0  0  0  # atno 17394 bound_to 11000
  140.7288  133.9077  155.8197 LP  0  0  0  0  0  0  0  0  0  0  0  0  # atno 17395 bound_to 11000

$$$$
