AV-unprocessed.smi:1283|AV-procd|sdf|5362|dock5
  -GOLD-   22720 4503D 1   1.00000     0.00000
 Structure written by MMmdl.
 30 31  0  0  0  0  0  0  0  0  1 V2000
  154.8163  136.2105  162.4532 C   0  0  0  0  0  0  0  0  0  0  0  0
  154.2869  137.3545  161.7092 N   0  0  0  0  0  0  0  0  0  0  0  0
  154.7531  138.5675  162.1717 N   0  0  0  0  0  0  0  0  0  0  0  0
  154.3615  139.6567  161.6063 C   0  0  0  0  0  0  0  0  0  0  0  0
  153.4367  139.6728  160.4843 C   0  0  0  0  0  0  0  0  0  0  0  0
  153.0156  140.8497  159.8806 N   0  0  0  0  0  0  0  0  0  0  0  0
  153.3861  142.2144  160.2211 C   0  0  0  0  0  0  0  0  0  0  0  0
  152.1871  143.1742  160.1646 C   0  0  1  0  0  0  0  0  0  0  0  0
  152.3009  144.4323  161.0286 C   0  0  0  0  0  0  0  0  0  0  0  0
  151.3587  145.3712  160.3093 C   0  0  0  0  0  0  0  0  0  0  0  0
  151.6248  145.0181  158.8482 C   0  0  0  0  0  0  0  0  0  0  0  0
  151.9511  143.6305  158.8348 O   0  0  0  0  0  0  0  0  0  0  0  0
  152.9944  138.4641  160.0455 C   0  0  0  0  0  0  0  0  0  0  0  0
  151.8926  138.3704  158.7117 Cl  0  0  0  0  0  0  0  0  0  0  0  0
  153.4197  137.1998  160.6648 C   0  0  0  0  0  0  0  0  0  0  0  0
  153.0319  136.0959  160.2803 O   0  0  0  0  0  0  0  0  0  0  0  0
  154.4552  135.2436  162.1008 H   0  0  0  0  0  0  0  0  0  0  0  0
  154.5465  136.2925  163.5069 H   0  0  0  0  0  0  0  0  0  0  0  0
  155.9049  136.1937  162.3878 H   0  0  0  0  0  0  0  0  0  0  0  0
  154.7123  140.6289  161.9518 H   0  0  0  0  0  0  0  0  0  0  0  0
  152.3733  140.7644  159.1053 H   0  0  0  0  0  0  0  0  0  0  0  0
  153.8189  142.2244  161.2218 H   0  0  0  0  0  0  0  0  0  0  0  0
  154.1604  142.5544  159.5327 H   0  0  0  0  0  0  0  0  0  0  0  0
  151.2912  142.6317  160.4700 H   0  0  0  0  0  0  0  0  0  0  0  0
  152.0241  144.2605  162.0690 H   0  0  0  0  0  0  0  0  0  0  0  0
  153.3118  144.8413  161.0080 H   0  0  0  0  0  0  0  0  0  0  0  0
  150.3252  145.1388  160.5705 H   0  0  0  0  0  0  0  0  0  0  0  0
  151.5419  146.4220  160.5351 H   0  0  0  0  0  0  0  0  0  0  0  0
  150.7715  145.2346  158.2051 H   0  0  0  0  0  0  0  0  0  0  0  0
  152.4825  145.5780  158.4734 H   0  0  0  0  0  0  0  0  0  0  0  0
  1  2  1  0  0  0  0
  1 17  1  0  0  0  0
  1 18  1  0  0  0  0
  1 19  1  0  0  0  0
  2 15  1  0  0  0  0
  2  3  1  0  0  0  0
  3  4  2  0  0  0  0
  4  5  1  0  0  0  0
  4 20  1  0  0  0  0
  5  6  1  0  0  0  0
  5 13  2  0  0  0  0
  6  7  1  0  0  0  0
  6 21  1  0  0  0  0
  7  8  1  0  0  0  0
  7 22  1  0  0  0  0
  7 23  1  0  0  0  0
  8 12  1  0  0  0  0
  8  9  1  0  0  0  0
  8 24  1  0  0  0  0
  9 10  1  0  0  0  0
  9 25  1  0  0  0  0
  9 26  1  0  0  0  0
 10 11  1  0  0  0  0
 10 27  1  0  0  0  0
 10 28  1  0  0  0  0
 11 12  1  0  0  0  0
 11 29  1  0  0  0  0
 11 30  1  0  0  0  0
 13 14  1  0  0  0  0
 13 15  1  0  0  0  0
 15 16  2  0  0  0  0
M  END
> <s_m_source_file>
AV-unprocessed.smi

> <i_m_source_file_index>
1283

> <i_lp_mmshare_version>
43012

> <i_f3d_flags>
0

> <s_epik_input>
W0NIM11uMW5bY0hdYyhjKENsKWMxPU8pW05IXVtDSDJdW0NAQEhdMltDSDJdW0NIMl1bQ0gyXU8y

> <s_epik_cmdline>
J2VwaWtfcHl0aG9uJywgJy1waCcsICc3LjAnLCAnLXRuJywgJzgnLCAnLW1hJywgJzIwMCcsICctbWV0YWxfYmluZGluZycsICctaW1hZScsICc8aW5maWxlLm1hZT4nLCAnLW9tYWUnLCAnPG91dGZpbGUubWFlPic=

> <r_lp_tautomer_probability>
1

> <r_epik_Ionization_Penalty>
2.40876e-05

> <r_epik_Ionization_Penalty_Charging>
4.17655e-09

> <r_epik_Ionization_Penalty_Neutral>
2.40834e-05

> <r_epik_State_Penalty>
-0

> <r_epik_Charging_Adjusted_Penalty>
4.17655e-09

> <i_epik_Tot_Q>
0

> <i_epik_Tot_abs_Q>
0

> <r_epik_Metal_State_Penalty>
-0

> <b_epik_Metal_Only>
0

> <s_lp_Force_Field>
OPLS_2005

> <r_lp_Energy>
41.0811

> <b_lp_Chiralities_Consistent>
1

> <s_lp_Variant>
AV-unprocessed.smi:1283-2

> <Gold.Version>
5.8.1

> <Gold.Id.Protein>
6NUR|6NUR_protein|mol2

> <Gold.PLP.Fitness>
37.8905

> <Gold.PLP.PLP>
-35.6733

> <Gold.PLP.part.hbond>
-1.0000

> <Gold.PLP.part.metal>
0.0000

> <Gold.PLP.part.buried>
-5.9771

> <Gold.PLP.part.nonpolar>
-28.6579

> <Gold.PLP.part.repulsive>
0.0820

> <Gold.PLP.ligand.clash>
0.0000

> <Gold.PLP.ligand.torsion>
0.3916

> <Gold.PLP.Chemscore.Hbond>
1.0000

> <Gold.PLP.Chemscore.CHOScore>
0.0000

> <Gold.PLP.Chemscore.Metal>
0.0000

> <Gold.Chemscore.Hbonds>
donor molecule, donor type, donor heavy atom, donor atom, acceptor molecule, acceptor atom, score
      P1  H  6896  6907       L1    16  0.78

> <Gold.PLP.Chemscore.Internal.Correction>
0.0004

> <Gold.Rescore>
     Score         DG    S(hbond)    S(metal)    S(lipo)     H(rot)  DE(clash)    DE(int)     intcor
     16.37     -16.56       1.00        0.00      92.91       1.22       0.12       0.07       ----

> <Gold.Chemscore.Fitness>
16.3694

> <Gold.Chemscore.DG>
-16.5625

> <Gold.Chemscore.ZeroCoef>
-5.4800

> <Gold.Chemscore.Hbond>
0.9992

> <Gold.Chemscore.Metal>
0.0000

> <Gold.Chemscore.Lipo>
92.9093

> <Gold.Chemscore.Internal_Hbond>
0.0000

> <Gold.Chemscore.DEClash>
0.1201

> <Gold.Chemscore.DEInternal>
0.0731

> <Gold.Chemscore.Rot>
1.2208

> <Gold.Chemscore.Internal.Correction>
   9.000000E+99

> <Gold.Chemscore.Hbonds>
donor molecule, donor type, donor heavy atom, donor atom, acceptor molecule, acceptor atom, score
      P1  H  6896  6907       L1    16  0.79

> <Gold.Chemscore.Hbond.Weighted>
-3.3374

> <Gold.Chemscore.Metal.Weighted>
-0.0000

> <Gold.Chemscore.Lipo.Weighted>
-10.8704

> <Gold.Chemscore.Internal_Hbond.Weighted>
0.0000

> <Gold.Chemscore.DEClash.Weighted>
0.1201

> <Gold.Chemscore.DEInternal.Weighted>
0.0731

> <Gold.Chemscore.Rot.Weighted>
3.1253

> <Gold.Chemscore.Internal.Correction.Weighted>
   9.000000E+99

> <Gold.Protein.RotatedTorsions>
[ 6907 6896 6895 6894 ] final   30.44 input  -60.11 | X-H torsion
[ 7974 7965 7964 7962 ] final   33.16 input  175.53 | X-H torsion
[ 8008 7997 7996 7995 ] final  -72.71 input   59.86 | X-H torsion
[ 10167 10162 10161 10158 ] final -128.49 input  -65.29 | X-H torsion
[ 10718 10713 10712 10709 ] final  126.75 input   66.30 | X-H torsion
[ 10763 10752 10751 10750 ] final  175.36 input  -60.55 | X-H torsion
[ 11005 11000 10999 10996 ] final -105.43 input  -57.11 | X-H torsion

> <Gold.Protein.ActiveResidues>
 VAL166  LYS551  ARG553  GLY616  TRP617  ASP618  TYR619  PRO620  LYS621  CYS622 
 ASP623  PHE694  ASN695  SER759  ASP760  ASP761  ALA762  ILE779  LEU786  VAL792 
 PHE793  MET794  SER795  GLU796  ALA797  LYS798  CYS799  TRP800  GLU811  SER814 

> <Gold.Protein.RotatedAtoms>
  152.0460  134.9682  160.0574 H   0  0  0  0  0  0  0  0  0  0  0  0  # atno 6907 bound_to 6896
  152.1102  133.4292  159.4636 H   0  0  0  0  0  0  0  0  0  0  0  0  # atno 6908 bound_to 6896
  150.6843  134.2576  159.4579 H   0  0  0  0  0  0  0  0  0  0  0  0  # atno 6909 bound_to 6896
  146.1439  139.6433  142.9144 H   0  0  0  0  0  0  0  0  0  0  0  0  # atno 7974 bound_to 7965
  154.5188  140.0792  156.8132 H   0  0  0  0  0  0  0  0  0  0  0  0  # atno 8008 bound_to 7997
  155.3621  140.3418  155.4223 H   0  0  0  0  0  0  0  0  0  0  0  0  # atno 8009 bound_to 7997
  156.1658  140.1603  156.8521 H   0  0  0  0  0  0  0  0  0  0  0  0  # atno 8010 bound_to 7997
  139.9497  143.6070  152.2479 H   0  0  0  0  0  0  0  0  0  0  0  0  # atno 10167 bound_to 10162
  157.5392  131.1097  150.8886 H   0  0  0  0  0  0  0  0  0  0  0  0  # atno 10718 bound_to 10713
  154.4666  135.2769  155.1674 H   0  0  0  0  0  0  0  0  0  0  0  0  # atno 10763 bound_to 10752
  154.3440  135.6164  153.5614 H   0  0  0  0  0  0  0  0  0  0  0  0  # atno 10764 bound_to 10752
  152.9860  135.5795  154.5039 H   0  0  0  0  0  0  0  0  0  0  0  0  # atno 10765 bound_to 10752
  141.1053  133.8807  157.1733 H   0  0  0  0  0  0  0  0  0  0  0  0  # atno 11005 bound_to 11000
  145.4983  141.0438  143.2554 LP  0  0  0  0  0  0  0  0  0  0  0  0  # atno 17320 bound_to 7965
  144.7824  139.6499  143.7149 LP  0  0  0  0  0  0  0  0  0  0  0  0  # atno 17321 bound_to 7965
  139.6638  144.7662  151.1912 LP  0  0  0  0  0  0  0  0  0  0  0  0  # atno 17342 bound_to 10162
  140.7586  143.5969  150.8739 LP  0  0  0  0  0  0  0  0  0  0  0  0  # atno 17343 bound_to 10162
  156.9443  130.5396  149.5281 LP  0  0  0  0  0  0  0  0  0  0  0  0  # atno 17370 bound_to 10713
  156.0483  130.5556  150.8932 LP  0  0  0  0  0  0  0  0  0  0  0  0  # atno 17371 bound_to 10713
  139.9921  135.0060  156.9999 LP  0  0  0  0  0  0  0  0  0  0  0  0  # atno 17394 bound_to 11000
  140.4917  134.1187  155.7234 LP  0  0  0  0  0  0  0  0  0  0  0  0  # atno 17395 bound_to 11000

$$$$
