AV-unprocessed.smi:864|AV-procd|sdf|3986|dock2
  -GOLD-   22720 1463D 1   1.00000     0.00000
 Structure written by MMmdl.
 44 46  0  0  0  0  0  0  0  0  1 V2000
  145.2393  130.9380  151.2522 C   0  0  0  0  0  0  0  0  0  0  0  0
  146.2949  131.4100  152.2300 C   0  0  0  0  0  0  0  0  0  0  0  0
  146.7394  130.5739  153.2760 C   0  0  0  0  0  0  0  0  0  0  0  0
  147.7200  131.0669  154.1583 C   0  0  0  0  0  0  0  0  0  0  0  0
  148.2178  132.3707  153.9611 C   0  0  0  0  0  0  0  0  0  0  0  0
  149.2651  132.9545  154.8944 C   0  0  0  0  0  0  0  0  0  0  0  0
  148.8641  134.3176  155.4966 C   0  0  0  0  0  0  0  0  0  0  0  0
  149.2523  135.4484  154.6586 N   0  0  0  0  0  0  0  0  0  0  0  0
  149.8812  136.5477  155.0955 C   0  0  0  0  0  0  0  0  0  0  0  0
  150.1568  136.7625  156.2760 O   0  0  0  0  0  0  0  0  0  0  0  0
  150.2116  137.3651  154.0868 N   0  0  0  0  0  0  0  0  0  0  0  0
  151.0170  138.5743  154.2313 C   0  0  2  0  0  0  0  0  0  0  0  0
  152.1404  138.3948  155.2605 C   0  0  0  0  0  0  0  0  0  0  0  0
  151.9971  139.6052  156.1677 C   0  0  0  0  0  0  0  0  0  0  0  0
  152.7703  139.8277  157.0987 O   0  0  0  0  0  0  0  0  0  0  0  0
  150.9440  140.3559  155.8233 N   0  0  0  0  0  0  0  0  0  0  0  0
  150.4645  141.4821  156.5721 C   0  0  0  0  0  0  0  0  0  0  0  0
  151.2934  142.1056  157.6797 C   0  0  0  0  0  0  0  0  0  0  0  0
  150.0893  141.2637  158.0205 C   0  0  0  0  0  0  0  0  0  0  0  0
  150.1698  139.7534  154.7477 C   0  0  0  0  0  0  0  0  0  0  0  0
  147.7108  133.1226  152.8793 C   0  0  0  0  0  0  0  0  0  0  0  0
  146.7674  132.6601  152.0314 N   0  0  0  0  0  0  0  0  0  0  0  0
  144.8726  129.9452  151.5145 H   0  0  0  0  0  0  0  0  0  0  0  0
  145.6505  130.8938  150.2433 H   0  0  0  0  0  0  0  0  0  0  0  0
  144.3912  131.6234  151.2487 H   0  0  0  0  0  0  0  0  0  0  0  0
  146.3392  129.5787  153.4030 H   0  0  0  0  0  0  0  0  0  0  0  0
  148.0795  130.4560  154.9733 H   0  0  0  0  0  0  0  0  0  0  0  0
  149.4614  132.2429  155.6969 H   0  0  0  0  0  0  0  0  0  0  0  0
  150.2046  133.0538  154.3492 H   0  0  0  0  0  0  0  0  0  0  0  0
  147.7802  134.3573  155.6075 H   0  0  0  0  0  0  0  0  0  0  0  0
  149.2812  134.4304  156.4985 H   0  0  0  0  0  0  0  0  0  0  0  0
  149.0751  135.3621  153.6686 H   0  0  0  0  0  0  0  0  0  0  0  0
  149.9402  137.1042  153.1501 H   0  0  0  0  0  0  0  0  0  0  0  0
  151.4646  138.8368  153.2705 H   0  0  0  0  0  0  0  0  0  0  0  0
  152.0236  137.4856  155.8521 H   0  0  0  0  0  0  0  0  0  0  0  0
  153.1239  138.3773  154.7899 H   0  0  0  0  0  0  0  0  0  0  0  0
  149.8406  142.1833  156.0196 H   0  0  0  0  0  0  0  0  0  0  0  0
  152.2709  141.6923  157.9177 H   0  0  0  0  0  0  0  0  0  0  0  0
  151.2053  143.1808  157.8209 H   0  0  0  0  0  0  0  0  0  0  0  0
  149.2051  141.7772  158.3923 H   0  0  0  0  0  0  0  0  0  0  0  0
  150.2718  140.2804  158.4498 H   0  0  0  0  0  0  0  0  0  0  0  0
  149.9801  140.4706  153.9483 H   0  0  0  0  0  0  0  0  0  0  0  0
  149.2069  139.4242  155.1435 H   0  0  0  0  0  0  0  0  0  0  0  0
  148.0610  134.1278  152.6952 H   0  0  0  0  0  0  0  0  0  0  0  0
  1  2  1  0  0  0  0
  1 23  1  0  0  0  0
  1 24  1  0  0  0  0
  1 25  1  0  0  0  0
  2 22  1  0  0  0  0
  2  3  2  0  0  0  0
  3  4  1  0  0  0  0
  3 26  1  0  0  0  0
  4  5  2  0  0  0  0
  4 27  1  0  0  0  0
  5  6  1  0  0  0  0
  5 21  1  0  0  0  0
  6  7  1  0  0  0  0
  6 28  1  0  0  0  0
  6 29  1  0  0  0  0
  7  8  1  0  0  0  0
  7 30  1  0  0  0  0
  7 31  1  0  0  0  0
  8  9  1  0  0  0  0
  8 32  1  0  0  0  0
  9 10  2  0  0  0  0
  9 11  1  0  0  0  0
 11 12  1  0  0  0  0
 11 33  1  0  0  0  0
 12 20  1  0  0  0  0
 12 13  1  0  0  0  0
 12 34  1  0  0  0  0
 13 14  1  0  0  0  0
 13 35  1  0  0  0  0
 13 36  1  0  0  0  0
 14 15  2  0  0  0  0
 14 16  1  0  0  0  0
 16 17  1  0  0  0  0
 16 20  1  0  0  0  0
 17 19  1  0  0  0  0
 17 18  1  0  0  0  0
 17 37  1  0  0  0  0
 18 19  1  0  0  0  0
 18 38  1  0  0  0  0
 18 39  1  0  0  0  0
 19 40  1  0  0  0  0
 19 41  1  0  0  0  0
 20 42  1  0  0  0  0
 20 43  1  0  0  0  0
 21 22  2  0  0  0  0
 21 44  1  0  0  0  0
M  END
> <s_m_source_file>
AV-unprocessed.smi

> <i_m_source_file_index>
864

> <i_lp_mmshare_version>
43012

> <i_f3d_flags>
0

> <s_epik_input>
W0NIM11jMVtjSF1bY0hdYyhbY0hdbjEpW0NIMl1bQ0gyXVtOSF1DKD1PKVtOSF1bQ0BASF0yW0NIMl1DKD1PKU4oW0NIMl0yKVtDSF0zW0NIMl1bQ0gyXTM=

> <s_epik_cmdline>
J2VwaWtfcHl0aG9uJywgJy1waCcsICc3LjAnLCAnLXRuJywgJzgnLCAnLW1hJywgJzIwMCcsICctbWV0YWxfYmluZGluZycsICctaW1hZScsICc8aW5maWxlLm1hZT4nLCAnLW9tYWUnLCAnPG91dGZpbGUubWFlPic=

> <r_epik_Ionization_Penalty>
0.0559435

> <r_epik_Ionization_Penalty_Charging>
0

> <r_epik_Ionization_Penalty_Neutral>
0.0559435

> <r_epik_State_Penalty>
0.0481757

> <r_epik_Charging_Adjusted_Penalty>
0.0481757

> <i_epik_Tot_Q>
0

> <i_epik_Tot_abs_Q>
0

> <r_epik_Metal_State_Penalty>
0.0439988

> <b_epik_Metal_Only>
0

> <s_lp_Force_Field>
OPLS_2005

> <r_lp_Energy>
33.3792

> <b_lp_Chiralities_Consistent>
1

> <s_lp_Variant>
AV-unprocessed.smi:864-1

> <Gold.Version>
5.8.1

> <Gold.Id.Protein>
6NUR|6NUR_protein|mol2

> <Gold.PLP.Fitness>
51.7167

> <Gold.PLP.PLP>
-40.8049

> <Gold.PLP.part.hbond>
-3.9287

> <Gold.PLP.part.metal>
0.0000

> <Gold.PLP.part.buried>
-2.2725

> <Gold.PLP.part.nonpolar>
-34.1851

> <Gold.PLP.part.repulsive>
0.2553

> <Gold.PLP.ligand.clash>
0.0000

> <Gold.PLP.ligand.torsion>
0.7034

> <Gold.PLP.Chemscore.Hbond>
3.0000

> <Gold.PLP.Chemscore.CHOScore>
1.0000

> <Gold.PLP.Chemscore.Metal>
0.0000

> <Gold.Chemscore.Hbonds>
donor molecule, donor type, donor heavy atom, donor atom, acceptor molecule, acceptor atom, score
      L1  H     8    32       P1  7948  0.99
      L1  H    11    33       P1  7948  0.95
      P1  H  7997  8008       L1    15  1.00
      L1  C    21    44       P1  7948  1.00

> <Gold.PLP.Chemscore.Internal.Correction>
0.3186

> <Gold.Rescore>
     Score         DG    S(hbond)    S(metal)    S(lipo)     H(rot)  DE(clash)    DE(int)     intcor
     16.72     -20.10       2.68        0.00      86.68       1.75       0.02       3.37       ----

> <Gold.Chemscore.Fitness>
16.7162

> <Gold.Chemscore.DG>
-20.0979

> <Gold.Chemscore.ZeroCoef>
-5.4800

> <Gold.Chemscore.Hbond>
2.6828

> <Gold.Chemscore.Metal>
0.0000

> <Gold.Chemscore.Lipo>
86.6845

> <Gold.Chemscore.Internal_Hbond>
0.0000

> <Gold.Chemscore.DEClash>
0.0167

> <Gold.Chemscore.DEInternal>
3.3650

> <Gold.Chemscore.Rot>
1.7518

> <Gold.Chemscore.Internal.Correction>
   9.000000E+99

> <Gold.Chemscore.Hbonds>
donor molecule, donor type, donor heavy atom, donor atom, acceptor molecule, acceptor atom, score
      L1  H     8    32       P1  7948  0.56
      L1  H    11    33       P1  7948  0.21
      P1  H  7997  8008       L1    15  0.97

> <Gold.Chemscore.Hbond.Weighted>
-8.9604

> <Gold.Chemscore.Metal.Weighted>
-0.0000

> <Gold.Chemscore.Lipo.Weighted>
-10.1421

> <Gold.Chemscore.Internal_Hbond.Weighted>
0.0000

> <Gold.Chemscore.DEClash.Weighted>
0.0167

> <Gold.Chemscore.DEInternal.Weighted>
3.3650

> <Gold.Chemscore.Rot.Weighted>
4.4846

> <Gold.Chemscore.Internal.Correction.Weighted>
   9.000000E+99

> <Gold.Protein.RotatedTorsions>
[ 6907 6896 6895 6894 ] final  122.76 input  -60.11 | X-H torsion
[ 7974 7965 7964 7962 ] final  113.21 input  175.53 | X-H torsion
[ 8008 7997 7996 7995 ] final  -73.82 input   59.86 | X-H torsion
[ 10167 10162 10161 10158 ] final   72.04 input  -65.29 | X-H torsion
[ 10718 10713 10712 10709 ] final   40.76 input   66.30 | X-H torsion
[ 10763 10752 10751 10750 ] final  -48.67 input  -60.55 | X-H torsion
[ 11005 11000 10999 10996 ] final  147.51 input  -57.11 | X-H torsion

> <Gold.Protein.ActiveResidues>
 VAL166  LYS551  ARG553  GLY616  TRP617  ASP618  TYR619  PRO620  LYS621  CYS622 
 ASP623  PHE694  ASN695  SER759  ASP760  ASP761  ALA762  ILE779  LEU786  VAL792 
 PHE793  MET794  SER795  GLU796  ALA797  LYS798  CYS799  TRP800  GLU811  SER814 

> <Gold.Protein.RotatedAtoms>
  152.4216  133.7127  159.6487 H   0  0  0  0  0  0  0  0  0  0  0  0  # atno 6907 bound_to 6896
  150.8092  133.8441  159.3196 H   0  0  0  0  0  0  0  0  0  0  0  0  # atno 6908 bound_to 6896
  151.6156  135.1038  160.0142 H   0  0  0  0  0  0  0  0  0  0  0  0  # atno 6909 bound_to 6896
  145.2198  139.2867  143.4224 H   0  0  0  0  0  0  0  0  0  0  0  0  # atno 7974 bound_to 7965
  154.5279  140.0772  156.8292 H   0  0  0  0  0  0  0  0  0  0  0  0  # atno 8008 bound_to 7997
  155.3437  140.3409  155.4221 H   0  0  0  0  0  0  0  0  0  0  0  0  # atno 8009 bound_to 7997
  156.1751  140.1633  156.8365 H   0  0  0  0  0  0  0  0  0  0  0  0  # atno 8010 bound_to 7997
  140.0396  144.5400  150.7444 H   0  0  0  0  0  0  0  0  0  0  0  0  # atno 10167 bound_to 10162
  157.3858  130.7779  149.7229 H   0  0  0  0  0  0  0  0  0  0  0  0  # atno 10718 bound_to 10713
  154.0815  135.6590  153.4838 H   0  0  0  0  0  0  0  0  0  0  0  0  # atno 10763 bound_to 10752
  153.0354  135.5181  154.7469 H   0  0  0  0  0  0  0  0  0  0  0  0  # atno 10764 bound_to 10752
  154.6565  135.3009  154.9889 H   0  0  0  0  0  0  0  0  0  0  0  0  # atno 10765 bound_to 10752
  140.0882  134.9057  157.1609 H   0  0  0  0  0  0  0  0  0  0  0  0  # atno 11005 bound_to 11000
  146.3378  140.2500  142.8598 LP  0  0  0  0  0  0  0  0  0  0  0  0  # atno 17320 bound_to 7965
  144.9776  140.8429  143.5417 LP  0  0  0  0  0  0  0  0  0  0  0  0  # atno 17321 bound_to 7965
  140.7266  143.2643  151.4099 LP  0  0  0  0  0  0  0  0  0  0  0  0  # atno 17342 bound_to 10162
  139.6023  144.1270  152.2211 LP  0  0  0  0  0  0  0  0  0  0  0  0  # atno 17343 bound_to 10162
  155.9786  130.4049  150.3637 LP  0  0  0  0  0  0  0  0  0  0  0  0  # atno 17370 bound_to 10713
  157.1746  131.0377  151.2778 LP  0  0  0  0  0  0  0  0  0  0  0  0  # atno 17371 bound_to 10713
  140.3390  134.2725  155.7215 LP  0  0  0  0  0  0  0  0  0  0  0  0  # atno 17394 bound_to 11000
  141.2069  133.7820  157.0148 LP  0  0  0  0  0  0  0  0  0  0  0  0  # atno 17395 bound_to 11000

$$$$
