AV-unprocessed.smi:3232|AV-procd|sdf|12343|dock10
  -GOLD-   2272018203D 1   1.00000     0.00000
 Structure written by MMmdl.
 40 41  0  0  0  0  0  0  0  0  2 V2000
  147.1004  139.5015  153.1217 C   0  0  0  0  0  0  0  0  0  0  0  0
  146.6451  139.0302  151.7342 C   0  0  0  0  0  0  0  0  0  0  0  0
  146.4401  137.5625  151.6799 N   0  3  2  0  0  0  0  0  0  0  0  0
  145.9619  137.0516  150.3776 C   0  0  0  0  0  0  0  0  0  0  0  0
  145.2774  135.7291  150.6986 C   0  0  0  0  0  0  0  0  0  0  0  0
  144.6133  136.0104  152.0410 C   0  0  0  0  0  0  0  0  0  0  0  0
  145.5372  137.0332  152.7332 C   0  0  1  0  0  0  0  0  0  0  0  0
  146.3616  136.4371  153.8939 C   0  0  0  0  0  0  0  0  0  0  0  0
  147.1858  135.3167  153.4574 N   0  0  0  0  0  0  0  0  0  0  0  0
  147.0791  134.0587  153.9144 C   0  0  0  0  0  0  0  0  0  0  0  0
  146.3179  133.7434  154.8299 O   0  0  0  0  0  0  0  0  0  0  0  0
  147.9506  133.0056  153.2097 C   0  0  1  0  0  0  0  0  0  0  0  0
  148.9942  132.3606  154.1443 C   0  0  0  0  0  0  0  0  0  0  0  0
  147.1062  132.0046  152.5675 N   0  0  0  0  0  0  0  0  0  0  0  0
  146.1298  132.1526  151.6693 C   0  0  0  0  0  0  0  0  0  0  0  0
  145.5257  131.0200  151.3389 N   0  0  0  0  0  0  0  0  0  0  0  0
  146.2250  130.1499  152.1262 C   0  0  0  0  0  0  0  0  0  0  0  0
  147.1744  130.6887  152.8909 N   0  0  0  0  0  0  0  0  0  0  0  0
  147.1899  140.5878  153.1483 H   0  0  0  0  0  0  0  0  0  0  0  0
  148.0726  139.0876  153.3895 H   0  0  0  0  0  0  0  0  0  0  0  0
  146.3854  139.2097  153.8916 H   0  0  0  0  0  0  0  0  0  0  0  0
  145.7029  139.5235  151.4918 H   0  0  0  0  0  0  0  0  0  0  0  0
  147.3639  139.3364  150.9726 H   0  0  0  0  0  0  0  0  0  0  0  0
  145.2350  137.7442  149.9500 H   0  0  0  0  0  0  0  0  0  0  0  0
  146.7784  136.9342  149.6645 H   0  0  0  0  0  0  0  0  0  0  0  0
  144.5687  135.4189  149.9301 H   0  0  0  0  0  0  0  0  0  0  0  0
  146.0228  134.9407  150.8106 H   0  0  0  0  0  0  0  0  0  0  0  0
  143.6350  136.4629  151.8722 H   0  0  0  0  0  0  0  0  0  0  0  0
  144.4498  135.0995  152.6179 H   0  0  0  0  0  0  0  0  0  0  0  0
  144.9136  137.8440  153.1152 H   0  0  0  0  0  0  0  0  0  0  0  0
  147.0196  137.1978  154.3149 H   0  0  0  0  0  0  0  0  0  0  0  0
  145.7052  136.1138  154.7038 H   0  0  0  0  0  0  0  0  0  0  0  0
  147.8428  135.4958  152.7116 H   0  0  0  0  0  0  0  0  0  0  0  0
  148.4970  133.5219  152.4188 H   0  0  0  0  0  0  0  0  0  0  0  0
  149.6628  133.1119  154.5662 H   0  0  0  0  0  0  0  0  0  0  0  0
  149.6119  131.6450  153.6009 H   0  0  0  0  0  0  0  0  0  0  0  0
  148.5272  131.8288  154.9746 H   0  0  0  0  0  0  0  0  0  0  0  0
  145.8471  133.1103  151.2567 H   0  0  0  0  0  0  0  0  0  0  0  0
  146.0217  129.0893  152.1443 H   0  0  0  0  0  0  0  0  0  0  0  0
  147.3365  137.1269  151.8441 H   0  0  0  0  0  0  0  0  0  0  0  0
  1  2  1  0  0  0  0
  1 19  1  0  0  0  0
  1 20  1  0  0  0  0
  1 21  1  0  0  0  0
  2  3  1  0  0  0  0
  2 22  1  0  0  0  0
  2 23  1  0  0  0  0
  3  7  1  0  0  0  0
  3  4  1  0  0  0  0
  3 40  1  0  0  0  0
  4  5  1  0  0  0  0
  4 24  1  0  0  0  0
  4 25  1  0  0  0  0
  5  6  1  0  0  0  0
  5 26  1  0  0  0  0
  5 27  1  0  0  0  0
  6  7  1  0  0  0  0
  6 28  1  0  0  0  0
  6 29  1  0  0  0  0
  7  8  1  0  0  0  0
  7 30  1  0  0  0  0
  8  9  1  0  0  0  0
  8 31  1  0  0  0  0
  8 32  1  0  0  0  0
  9 10  1  0  0  0  0
  9 33  1  0  0  0  0
 10 11  2  0  0  0  0
 10 12  1  0  0  0  0
 12 13  1  0  0  0  0
 12 14  1  0  0  0  0
 12 34  1  0  0  0  0
 13 35  1  0  0  0  0
 13 36  1  0  0  0  0
 13 37  1  0  0  0  0
 14 18  1  0  0  0  0
 14 15  1  0  0  0  0
 15 16  2  0  0  0  0
 15 38  1  0  0  0  0
 16 17  1  0  0  0  0
 17 18  2  0  0  0  0
 17 39  1  0  0  0  0
M  CHG  1   3   1
M  END
> <s_m_source_file>
AV-unprocessed.smi

> <i_m_source_file_index>
3232

> <i_lp_mmshare_version>
43012

> <i_f3d_flags>
0

> <s_epik_input>
W0NIM11bQ0gyXU4xW0NIMl1bQ0gyXVtDSDJdW0NASF0xW0NIMl1bTkhdQyg9TylbQ0BIXShbQ0gzXSluMltjSF1uW2NIXW4y

> <s_epik_cmdline>
J2VwaWtfcHl0aG9uJywgJy1waCcsICc3LjAnLCAnLXRuJywgJzgnLCAnLW1hJywgJzIwMCcsICctbWV0YWxfYmluZGluZycsICctaW1hZScsICc8aW5maWxlLm1hZT4nLCAnLW9tYWUnLCAnPG91dGZpbGUubWFlPic=

> <r_lp_tautomer_probability>
1

> <r_epik_Ionization_Penalty>
0.00177695

> <r_epik_Ionization_Penalty_Charging>
0.00176881

> <r_epik_Ionization_Penalty_Neutral>
8.13528e-06

> <r_epik_State_Penalty>
0.00119827

> <r_epik_Charging_Adjusted_Penalty>
0.00296709

> <i_epik_Tot_Q>
1

> <i_epik_Tot_abs_Q>
1

> <r_epik_Metal_State_Penalty>
-0

> <b_epik_Metal_Only>
0

> <s_lp_Force_Field>
OPLS_2005

> <r_lp_Energy>
32.1761

> <b_lp_Chiralities_Consistent>
1

> <s_lp_Variant>
AV-unprocessed.smi:3232-5

> <Gold.Version>
5.8.1

> <Gold.Id.Protein>
6NUR|6NUR_protein|mol2

> <Gold.PLP.Fitness>
38.7794

> <Gold.PLP.PLP>
-29.7985

> <Gold.PLP.part.hbond>
-2.0566

> <Gold.PLP.part.metal>
0.0000

> <Gold.PLP.part.buried>
1.4365

> <Gold.PLP.part.nonpolar>
-30.2559

> <Gold.PLP.part.repulsive>
0.3943

> <Gold.PLP.ligand.clash>
0.0000

> <Gold.PLP.ligand.torsion>
0.0676

> <Gold.PLP.Chemscore.Hbond>
3.0000

> <Gold.PLP.Chemscore.CHOScore>
0.0000

> <Gold.PLP.Chemscore.Metal>
0.0000

> <Gold.Chemscore.Hbonds>
donor molecule, donor type, donor heavy atom, donor atom, acceptor molecule, acceptor atom, score
      L1  H     3    40       P1  7948  2.00
      L1  H     9    33       P1  7948  1.00

> <Gold.PLP.Chemscore.Internal.Correction>
0.1161

> <Gold.Rescore>
     Score         DG    S(hbond)    S(metal)    S(lipo)     H(rot)  DE(clash)    DE(int)     intcor
     11.15     -12.53       1.99        0.00      58.05       2.49       1.29       0.10       ----

> <Gold.Chemscore.Fitness>
11.1452

> <Gold.Chemscore.DG>
-12.5319

> <Gold.Chemscore.ZeroCoef>
-5.4800

> <Gold.Chemscore.Hbond>
1.9851

> <Gold.Chemscore.Metal>
0.0000

> <Gold.Chemscore.Lipo>
58.0459

> <Gold.Chemscore.Internal_Hbond>
0.0000

> <Gold.Chemscore.DEClash>
1.2899

> <Gold.Chemscore.DEInternal>
0.0967

> <Gold.Chemscore.Rot>
2.4882

> <Gold.Chemscore.Internal.Correction>
   9.000000E+99

> <Gold.Chemscore.Hbonds>
donor molecule, donor type, donor heavy atom, donor atom, acceptor molecule, acceptor atom, score
      L1  H     3    40       P1  7948  1.00
      L1  H     9    33       P1  7948  0.96

> <Gold.Chemscore.Hbond.Weighted>
-6.6302

> <Gold.Chemscore.Metal.Weighted>
-0.0000

> <Gold.Chemscore.Lipo.Weighted>
-6.7914

> <Gold.Chemscore.Internal_Hbond.Weighted>
0.0000

> <Gold.Chemscore.DEClash.Weighted>
1.2899

> <Gold.Chemscore.DEInternal.Weighted>
0.0967

> <Gold.Chemscore.Rot.Weighted>
6.3697

> <Gold.Chemscore.Internal.Correction.Weighted>
   9.000000E+99

> <Gold.Protein.RotatedTorsions>
[ 6907 6896 6895 6894 ] final   43.62 input  -60.11 | X-H torsion
[ 7974 7965 7964 7962 ] final   30.97 input  175.53 | X-H torsion
[ 8008 7997 7996 7995 ] final   57.25 input   59.86 | X-H torsion
[ 10167 10162 10161 10158 ] final   61.03 input  -65.29 | X-H torsion
[ 10718 10713 10712 10709 ] final  126.56 input   66.30 | X-H torsion
[ 10763 10752 10751 10750 ] final -152.53 input  -60.55 | X-H torsion
[ 11005 11000 10999 10996 ] final  111.64 input  -57.11 | X-H torsion

> <Gold.Protein.ActiveResidues>
 VAL166  LYS551  ARG553  GLY616  TRP617  ASP618  TYR619  PRO620  LYS621  CYS622 
 ASP623  PHE694  ASN695  SER759  ASP760  ASP761  ALA762  ILE779  LEU786  VAL792 
 PHE793  MET794  SER795  GLU796  ALA797  LYS798  CYS799  TRP800  GLU811  SER814 

> <Gold.Protein.RotatedAtoms>
  152.2224  134.8400  160.0483 H   0  0  0  0  0  0  0  0  0  0  0  0  # atno 6907 bound_to 6896
  151.9178  133.3572  159.3894 H   0  0  0  0  0  0  0  0  0  0  0  0  # atno 6908 bound_to 6896
  150.7003  134.4591  159.5416 H   0  0  0  0  0  0  0  0  0  0  0  0  # atno 6909 bound_to 6896
  146.1579  139.6719  142.9054 H   0  0  0  0  0  0  0  0  0  0  0  0  # atno 7974 bound_to 7965
  155.5307  140.3482  155.4425 H   0  0  0  0  0  0  0  0  0  0  0  0  # atno 8008 bound_to 7997
  156.0720  140.1365  156.9843 H   0  0  0  0  0  0  0  0  0  0  0  0  # atno 8009 bound_to 7997
  154.4533  140.0963  156.6659 H   0  0  0  0  0  0  0  0  0  0  0  0  # atno 8010 bound_to 7997
  140.1592  144.4387  150.6718 H   0  0  0  0  0  0  0  0  0  0  0  0  # atno 10167 bound_to 10162
  157.5409  131.1097  150.8860 H   0  0  0  0  0  0  0  0  0  0  0  0  # atno 10718 bound_to 10713
  154.7988  135.3234  154.7602 H   0  0  0  0  0  0  0  0  0  0  0  0  # atno 10763 bound_to 10752
  153.8274  135.6882  153.4823 H   0  0  0  0  0  0  0  0  0  0  0  0  # atno 10764 bound_to 10752
  153.1693  135.4629  154.9823 H   0  0  0  0  0  0  0  0  0  0  0  0  # atno 10765 bound_to 10752
  139.8908  134.9512  156.6463 H   0  0  0  0  0  0  0  0  0  0  0  0  # atno 11005 bound_to 11000
  145.4661  141.0434  143.2724 LP  0  0  0  0  0  0  0  0  0  0  0  0  # atno 17320 bound_to 7965
  144.7988  139.6181  143.7081 LP  0  0  0  0  0  0  0  0  0  0  0  0  # atno 17321 bound_to 7965
  140.6654  143.2266  151.5756 LP  0  0  0  0  0  0  0  0  0  0  0  0  # atno 17342 bound_to 10162
  139.5389  144.2703  152.1310 LP  0  0  0  0  0  0  0  0  0  0  0  0  # atno 17343 bound_to 10162
  156.9413  130.5386  149.5280 LP  0  0  0  0  0  0  0  0  0  0  0  0  # atno 17370 bound_to 10713
  156.0496  130.5567  150.8959 LP  0  0  0  0  0  0  0  0  0  0  0  0  # atno 17371 bound_to 10713
  140.7555  133.8861  155.8378 LP  0  0  0  0  0  0  0  0  0  0  0  0  # atno 17394 bound_to 11000
  140.9965  134.1207  157.4358 LP  0  0  0  0  0  0  0  0  0  0  0  0  # atno 17395 bound_to 11000

$$$$
