AV-unprocessed.smi:1139|AV-procd|sdf|4870|dock10
  -GOLD-   22720 3443D 1   1.00000     0.00000
 Structure written by MMmdl.
 43 44  0  0  0  0  0  0  0  0  2 V2000
  149.4328  141.3612  156.5601 C   0  0  0  0  0  0  0  0  0  0  0  0
  150.6286  140.5177  156.2227 C   0  0  0  0  0  0  0  0  0  0  0  0
  151.6801  140.5351  157.0241 N   0  0  0  0  0  0  0  0  0  0  0  0
  152.6172  139.6733  156.4464 O   0  0  0  0  0  0  0  0  0  0  0  0
  152.0875  139.1675  155.3036 C   0  0  0  0  0  0  0  0  0  0  0  0
  152.9415  138.2228  154.5276 C   0  0  0  0  0  0  0  0  0  0  0  0
  150.8279  139.6607  155.1015 C   0  0  0  0  0  0  0  0  0  0  0  0
  149.8821  139.3728  153.9643 C   0  0  0  0  0  0  0  0  0  0  0  0
  148.5972  138.7536  154.5130 C   0  0  0  0  0  0  0  0  0  0  0  0
  147.9688  139.3242  155.4043 O   0  0  0  0  0  0  0  0  0  0  0  0
  148.2235  137.5795  153.9846 N   0  0  0  0  0  0  0  0  0  0  0  0
  147.0604  136.8157  154.4185 C   0  0  0  0  0  0  0  0  0  0  0  0
  146.0300  136.6245  153.2786 C   0  0  1  0  0  0  0  0  0  0  0  0
  145.8577  137.9289  152.4674 C   0  0  0  0  0  0  0  0  0  0  0  0
  146.4136  135.4957  152.3814 N   0  3  0  0  0  0  0  0  0  0  0  0
  146.4681  134.1583  153.0118 C   0  0  0  0  0  0  0  0  0  0  0  0
  146.3857  133.1715  151.8533 C   0  0  0  0  0  0  0  0  0  0  0  0
  145.4142  133.8487  150.8942 C   0  0  0  0  0  0  0  0  0  0  0  0
  145.5869  135.3515  151.1556 C   0  0  0  0  0  0  0  0  0  0  0  0
  149.5263  142.3559  156.1242 H   0  0  0  0  0  0  0  0  0  0  0  0
  149.3181  141.4797  157.6382 H   0  0  0  0  0  0  0  0  0  0  0  0
  148.5138  140.9160  156.1793 H   0  0  0  0  0  0  0  0  0  0  0  0
  152.9880  138.5182  153.4794 H   0  0  0  0  0  0  0  0  0  0  0  0
  152.5387  137.2112  154.5763 H   0  0  0  0  0  0  0  0  0  0  0  0
  153.9595  138.2007  154.9171 H   0  0  0  0  0  0  0  0  0  0  0  0
  149.6243  140.2835  153.4221 H   0  0  0  0  0  0  0  0  0  0  0  0
  150.3335  138.7042  153.2302 H   0  0  0  0  0  0  0  0  0  0  0  0
  148.7954  137.1808  153.2540 H   0  0  0  0  0  0  0  0  0  0  0  0
  147.3899  135.8441  154.7909 H   0  0  0  0  0  0  0  0  0  0  0  0
  146.6150  137.3474  155.2603 H   0  0  0  0  0  0  0  0  0  0  0  0
  145.0687  136.3745  153.7313 H   0  0  0  0  0  0  0  0  0  0  0  0
  145.5209  138.7529  153.0960 H   0  0  0  0  0  0  0  0  0  0  0  0
  145.1154  137.8289  151.6761 H   0  0  0  0  0  0  0  0  0  0  0  0
  146.7971  138.2311  152.0030 H   0  0  0  0  0  0  0  0  0  0  0  0
  147.3761  134.0189  153.5993 H   0  0  0  0  0  0  0  0  0  0  0  0
  145.6083  134.0249  153.6709 H   0  0  0  0  0  0  0  0  0  0  0  0
  147.3642  133.0709  151.3813 H   0  0  0  0  0  0  0  0  0  0  0  0
  146.0564  132.1791  152.1625 H   0  0  0  0  0  0  0  0  0  0  0  0
  145.6011  133.5795  149.8542 H   0  0  0  0  0  0  0  0  0  0  0  0
  144.3932  133.5494  151.1346 H   0  0  0  0  0  0  0  0  0  0  0  0
  144.6066  135.8162  151.2723 H   0  0  0  0  0  0  0  0  0  0  0  0
  146.0910  135.8436  150.3232 H   0  0  0  0  0  0  0  0  0  0  0  0
  147.3533  135.6817  152.0608 H   0  0  0  0  0  0  0  0  0  0  0  0
  1  2  1  0  0  0  0
  1 20  1  0  0  0  0
  1 21  1  0  0  0  0
  1 22  1  0  0  0  0
  2  7  1  0  0  0  0
  2  3  2  0  0  0  0
  3  4  1  0  0  0  0
  4  5  1  0  0  0  0
  5  6  1  0  0  0  0
  5  7  2  0  0  0  0
  6 23  1  0  0  0  0
  6 24  1  0  0  0  0
  6 25  1  0  0  0  0
  7  8  1  0  0  0  0
  8  9  1  0  0  0  0
  8 26  1  0  0  0  0
  8 27  1  0  0  0  0
  9 10  2  0  0  0  0
  9 11  1  0  0  0  0
 11 12  1  0  0  0  0
 11 28  1  0  0  0  0
 12 13  1  0  0  0  0
 12 29  1  0  0  0  0
 12 30  1  0  0  0  0
 13 14  1  0  0  0  0
 13 15  1  0  0  0  0
 13 31  1  0  0  0  0
 14 32  1  0  0  0  0
 14 33  1  0  0  0  0
 14 34  1  0  0  0  0
 15 19  1  0  0  0  0
 15 16  1  0  0  0  0
 15 43  1  0  0  0  0
 16 17  1  0  0  0  0
 16 35  1  0  0  0  0
 16 36  1  0  0  0  0
 17 18  1  0  0  0  0
 17 37  1  0  0  0  0
 17 38  1  0  0  0  0
 18 19  1  0  0  0  0
 18 39  1  0  0  0  0
 18 40  1  0  0  0  0
 19 41  1  0  0  0  0
 19 42  1  0  0  0  0
M  CHG  1  15   1
M  END
> <s_m_source_file>
AV-unprocessed.smi

> <i_m_source_file_index>
1139

> <i_lp_mmshare_version>
43012

> <i_f3d_flags>
0

> <s_epik_input>
W0NIM11jMW5vYyhbQ0gzXSljMVtDSDJdQyg9TylbTkhdW0NIMl1bQ0BIXShbQ0gzXSlOMltDSDJdW0NIMl1bQ0gyXVtDSDJdMg==

> <s_epik_cmdline>
J2VwaWtfcHl0aG9uJywgJy1waCcsICc3LjAnLCAnLXRuJywgJzgnLCAnLW1hJywgJzIwMCcsICctbWV0YWxfYmluZGluZycsICctaW1hZScsICc8aW5maWxlLm1hZT4nLCAnLW9tYWUnLCAnPG91dGZpbGUubWFlPic=

> <r_epik_Ionization_Penalty>
0.0050436

> <r_epik_Ionization_Penalty_Charging>
0.0050435

> <r_epik_Ionization_Penalty_Neutral>
9.69799e-08

> <r_epik_State_Penalty>
0.00366867

> <r_epik_Charging_Adjusted_Penalty>
0.00871217

> <i_epik_Tot_Q>
1

> <i_epik_Tot_abs_Q>
1

> <r_epik_Metal_State_Penalty>
-0

> <b_epik_Metal_Only>
0

> <s_lp_Force_Field>
OPLS_2005

> <r_lp_Energy>
24.7849

> <b_lp_Chiralities_Consistent>
1

> <s_lp_Variant>
AV-unprocessed.smi:1139-2

> <Gold.Version>
5.8.1

> <Gold.Id.Protein>
6NUR|6NUR_protein|mol2

> <Gold.PLP.Fitness>
41.0613

> <Gold.PLP.PLP>
-29.6590

> <Gold.PLP.part.hbond>
-3.0000

> <Gold.PLP.part.metal>
0.0000

> <Gold.PLP.part.buried>
-0.0870

> <Gold.PLP.part.nonpolar>
-26.5784

> <Gold.PLP.part.repulsive>
0.0397

> <Gold.PLP.ligand.clash>
0.0000

> <Gold.PLP.ligand.torsion>
0.2803

> <Gold.PLP.Chemscore.Hbond>
3.9760

> <Gold.PLP.Chemscore.CHOScore>
0.0000

> <Gold.PLP.Chemscore.Metal>
0.0000

> <Gold.Chemscore.Hbonds>
donor molecule, donor type, donor heavy atom, donor atom, acceptor molecule, acceptor atom, score
      L1  H    11    28       P1  7948  1.00
      L1  H    15    43       P1  7948  2.00
      P1  H  7997  8009       L1     4  1.00

> <Gold.PLP.Chemscore.Internal.Correction>
0.0349

> <Gold.Rescore>
     Score         DG    S(hbond)    S(metal)    S(lipo)     H(rot)  DE(clash)    DE(int)     intcor
     17.29     -18.99       2.78        0.00      73.72       1.72       0.15       1.54       ----

> <Gold.Chemscore.Fitness>
17.2928

> <Gold.Chemscore.DG>
-18.9890

> <Gold.Chemscore.ZeroCoef>
-5.4800

> <Gold.Chemscore.Hbond>
2.7802

> <Gold.Chemscore.Metal>
0.0000

> <Gold.Chemscore.Lipo>
73.7178

> <Gold.Chemscore.Internal_Hbond>
0.0000

> <Gold.Chemscore.DEClash>
0.1538

> <Gold.Chemscore.DEInternal>
1.5424

> <Gold.Chemscore.Rot>
1.7195

> <Gold.Chemscore.Internal.Correction>
   9.000000E+99

> <Gold.Chemscore.Hbonds>
donor molecule, donor type, donor heavy atom, donor atom, acceptor molecule, acceptor atom, score
      L1  H    11    28       P1  7948  0.96
      L1  H    15    43       P1  7948  1.00
      P1  H  7997  8009       L1     4  0.94

> <Gold.Chemscore.Hbond.Weighted>
-9.2859

> <Gold.Chemscore.Metal.Weighted>
-0.0000

> <Gold.Chemscore.Lipo.Weighted>
-8.6250

> <Gold.Chemscore.Internal_Hbond.Weighted>
0.0000

> <Gold.Chemscore.DEClash.Weighted>
0.1538

> <Gold.Chemscore.DEInternal.Weighted>
1.5424

> <Gold.Chemscore.Rot.Weighted>
4.4018

> <Gold.Chemscore.Internal.Correction.Weighted>
   9.000000E+99

> <Gold.Protein.RotatedTorsions>
[ 6907 6896 6895 6894 ] final   52.85 input  -60.11 | X-H torsion
[ 7974 7965 7964 7962 ] final  -13.51 input  175.53 | X-H torsion
[ 8008 7997 7996 7995 ] final  177.98 input   59.86 | X-H torsion
[ 10167 10162 10161 10158 ] final -105.82 input  -65.29 | X-H torsion
[ 10718 10713 10712 10709 ] final  -41.82 input   66.30 | X-H torsion
[ 10763 10752 10751 10750 ] final   53.61 input  -60.55 | X-H torsion
[ 11005 11000 10999 10996 ] final -147.22 input  -57.11 | X-H torsion

> <Gold.Protein.ActiveResidues>
 VAL166  LYS551  ARG553  GLY616  TRP617  ASP618  TYR619  PRO620  LYS621  CYS622 
 ASP623  PHE694  ASN695  SER759  ASP760  ASP761  ALA762  ILE779  LEU786  VAL792 
 PHE793  MET794  SER795  GLU796  ALA797  LYS798  CYS799  TRP800  GLU811  SER814 

> <Gold.Protein.RotatedAtoms>
  152.3276  134.7301  160.0297 H   0  0  0  0  0  0  0  0  0  0  0  0  # atno 6907 bound_to 6896
  151.7728  133.3337  159.3457 H   0  0  0  0  0  0  0  0  0  0  0  0  # atno 6908 bound_to 6896
  150.7404  134.5934  159.6044 H   0  0  0  0  0  0  0  0  0  0  0  0  # atno 6909 bound_to 6896
  146.2111  140.3213  142.8391 H   0  0  0  0  0  0  0  0  0  0  0  0  # atno 7974 bound_to 7965
  156.0597  140.1345  156.9955 H   0  0  0  0  0  0  0  0  0  0  0  0  # atno 8008 bound_to 7997
  154.4475  140.0994  156.6570 H   0  0  0  0  0  0  0  0  0  0  0  0  # atno 8009 bound_to 7997
  155.5396  140.3460  155.4446 H   0  0  0  0  0  0  0  0  0  0  0  0  # atno 8010 bound_to 7997
  140.1945  143.3866  152.1180 H   0  0  0  0  0  0  0  0  0  0  0  0  # atno 10167 bound_to 10162
  156.2663  130.4202  149.8487 H   0  0  0  0  0  0  0  0  0  0  0  0  # atno 10718 bound_to 10713
  152.9797  135.5773  154.4769 H   0  0  0  0  0  0  0  0  0  0  0  0  # atno 10763 bound_to 10752
  154.4323  135.2774  155.1906 H   0  0  0  0  0  0  0  0  0  0  0  0  # atno 10764 bound_to 10752
  154.3609  135.6189  153.5744 H   0  0  0  0  0  0  0  0  0  0  0  0  # atno 10765 bound_to 10752
  140.7739  134.3157  157.5066 H   0  0  0  0  0  0  0  0  0  0  0  0  # atno 11005 bound_to 11000
  144.8918  140.7533  143.5922 LP  0  0  0  0  0  0  0  0  0  0  0  0  # atno 17320 bound_to 7965
  145.3136  139.1811  143.4625 LP  0  0  0  0  0  0  0  0  0  0  0  0  # atno 17321 bound_to 7965
  139.5242  144.7081  151.5291 LP  0  0  0  0  0  0  0  0  0  0  0  0  # atno 17342 bound_to 10162
  140.6433  143.8845  150.6713 LP  0  0  0  0  0  0  0  0  0  0  0  0  # atno 17343 bound_to 10162
  156.5984  130.8536  151.3426 LP  0  0  0  0  0  0  0  0  0  0  0  0  # atno 17370 bound_to 10713
  157.7268  130.9634  150.1673 LP  0  0  0  0  0  0  0  0  0  0  0  0  # atno 17371 bound_to 10713
  139.8752  134.9278  156.3433 LP  0  0  0  0  0  0  0  0  0  0  0  0  # atno 17394 bound_to 11000
  140.9547  133.7428  156.0319 LP  0  0  0  0  0  0  0  0  0  0  0  0  # atno 17395 bound_to 11000

$$$$
