AV-unprocessed.smi:153|AV-procd|sdf|1254|dock3
  -GOLD-   2262018493D 1   1.00000     0.00000
 Structure written by MMmdl.
 60 63  0  0  0  0  0  0  0  0  2 V2000
  152.4199  144.4598  157.9876 C   0  0  0  0  0  0  0  0  0  0  0  0
  152.1872  143.4248  159.0945 C   0  0  2  0  0  0  0  0  0  0  0  0
  153.3333  143.3979  159.9360 O   0  0  0  0  0  0  0  0  0  0  0  0
  153.2968  142.1866  160.6647 C   0  0  0  0  0  0  0  0  0  0  0  0
  152.9261  141.1830  159.5837 C   0  0  0  0  0  0  0  0  0  0  0  0
  151.9384  141.9394  158.6898 C   0  0  1  0  0  0  0  0  0  0  0  0
  150.6343  141.5917  159.1197 O   0  0  0  0  0  0  0  0  0  0  0  0
  152.1389  141.5243  157.2012 C   0  0  0  0  0  0  0  0  0  0  0  0
  150.9374  141.1295  156.4739 N   0  0  0  0  0  0  0  0  0  0  0  0
  149.8224  141.9009  156.2429 C   0  0  0  0  0  0  0  0  0  0  0  0
  148.8838  141.3280  155.5431 N   0  0  0  0  0  0  0  0  0  0  0  0
  149.3958  140.0738  155.2270 C   0  0  0  0  0  0  0  0  0  0  0  0
  148.9216  138.9521  154.4758 C   0  0  0  0  0  0  0  0  0  0  0  0
  147.7048  138.8700  153.8621 N   0  0  0  0  0  0  0  0  0  0  0  0
  147.1077  140.0572  153.2616 C   0  0  0  0  0  0  0  0  0  0  0  0
  147.1656  137.5630  153.4768 C   0  0  0  0  0  0  0  0  0  0  0  0
  146.0242  137.6762  152.4454 C   0  0  1  0  0  0  0  0  0  0  0  0
  146.5935  137.9221  151.1745 O   0  0  0  0  0  0  0  0  0  0  0  0
  145.2192  136.3648  152.3455 C   0  0  0  0  0  0  0  0  0  0  0  0
  146.0838  135.1569  152.3701 N   0  3  0  0  0  0  0  0  0  0  0  0
  146.3035  134.6457  153.7440 C   0  0  0  0  0  0  0  0  0  0  0  0
  147.2546  133.4374  153.7233 C   0  0  0  0  0  0  0  0  0  0  0  0
  146.7233  132.4261  152.8762 O   0  0  0  0  0  0  0  0  0  0  0  0
  146.5890  132.8750  151.5336 C   0  0  0  0  0  0  0  0  0  0  0  0
  145.6152  134.0646  151.4810 C   0  0  0  0  0  0  0  0  0  0  0  0
  149.7644  137.8897  154.3700 N   0  0  0  0  0  0  0  0  0  0  0  0
  150.9706  137.9079  154.9411 C   0  0  0  0  0  0  0  0  0  0  0  0
  151.5341  138.8754  155.6626 N   0  0  0  0  0  0  0  0  0  0  0  0
  150.7007  139.9468  155.7903 C   0  0  0  0  0  0  0  0  0  0  0  0
  151.5190  144.6065  157.3944 H   0  0  0  0  0  0  0  0  0  0  0  0
  153.2390  144.1754  157.3276 H   0  0  0  0  0  0  0  0  0  0  0  0
  152.6735  145.4278  158.4203 H   0  0  0  0  0  0  0  0  0  0  0  0
  151.3634  143.7831  159.7159 H   0  0  0  0  0  0  0  0  0  0  0  0
  154.2554  141.9675  161.1351 H   0  0  0  0  0  0  0  0  0  0  0  0
  152.5297  142.2385  161.4391 H   0  0  0  0  0  0  0  0  0  0  0  0
  153.8287  140.9363  159.0227 H   0  0  0  0  0  0  0  0  0  0  0  0
  152.5326  140.2494  159.9888 H   0  0  0  0  0  0  0  0  0  0  0  0
  150.0281  142.2426  158.8002 H   0  0  0  0  0  0  0  0  0  0  0  0
  152.6387  142.3195  156.6474 H   0  0  0  0  0  0  0  0  0  0  0  0
  152.8197  140.6726  157.1601 H   0  0  0  0  0  0  0  0  0  0  0  0
  149.7206  142.9105  156.6129 H   0  0  0  0  0  0  0  0  0  0  0  0
  147.0584  140.8728  153.9836 H   0  0  0  0  0  0  0  0  0  0  0  0
  146.0895  139.8579  152.9270 H   0  0  0  0  0  0  0  0  0  0  0  0
  147.6837  140.3844  152.3955 H   0  0  0  0  0  0  0  0  0  0  0  0
  147.9405  136.8729  153.1402 H   0  0  0  0  0  0  0  0  0  0  0  0
  146.7726  137.1100  154.3875 H   0  0  0  0  0  0  0  0  0  0  0  0
  145.3681  138.5033  152.7145 H   0  0  0  0  0  0  0  0  0  0  0  0
  145.9155  138.2436  150.5987 H   0  0  0  0  0  0  0  0  0  0  0  0
  144.5139  136.3266  153.1778 H   0  0  0  0  0  0  0  0  0  0  0  0
  144.6165  136.3527  151.4360 H   0  0  0  0  0  0  0  0  0  0  0  0
  146.7274  135.4323  154.3697 H   0  0  0  0  0  0  0  0  0  0  0  0
  145.3469  134.3625  154.1866 H   0  0  0  0  0  0  0  0  0  0  0  0
  148.2494  133.7294  153.3827 H   0  0  0  0  0  0  0  0  0  0  0  0
  147.3687  133.0321  154.7290 H   0  0  0  0  0  0  0  0  0  0  0  0
  147.5646  133.1510  151.1294 H   0  0  0  0  0  0  0  0  0  0  0  0
  146.2125  132.0544  150.9228 H   0  0  0  0  0  0  0  0  0  0  0  0
  144.6189  133.7428  151.7884 H   0  0  0  0  0  0  0  0  0  0  0  0
  145.5349  134.4128  150.4522 H   0  0  0  0  0  0  0  0  0  0  0  0
  151.5685  137.0193  154.8016 H   0  0  0  0  0  0  0  0  0  0  0  0
  146.9886  135.4507  152.0292 H   0  0  0  0  0  0  0  0  0  0  0  0
  1  2  1  0  0  0  0
  1 30  1  0  0  0  0
  1 31  1  0  0  0  0
  1 32  1  0  0  0  0
  2  6  1  0  0  0  0
  2  3  1  0  0  0  0
  2 33  1  0  0  0  0
  3  4  1  0  0  0  0
  4  5  1  0  0  0  0
  4 34  1  0  0  0  0
  4 35  1  0  0  0  0
  5  6  1  0  0  0  0
  5 36  1  0  0  0  0
  5 37  1  0  0  0  0
  6  7  1  0  0  0  0
  6  8  1  0  0  0  0
  7 38  1  0  0  0  0
  8  9  1  0  0  0  0
  8 39  1  0  0  0  0
  8 40  1  0  0  0  0
  9 29  1  0  0  0  0
  9 10  1  0  0  0  0
 10 11  2  0  0  0  0
 10 41  1  0  0  0  0
 11 12  1  0  0  0  0
 12 29  2  0  0  0  0
 12 13  1  0  0  0  0
 13 14  1  0  0  0  0
 13 26  2  0  0  0  0
 14 15  1  0  0  0  0
 14 16  1  0  0  0  0
 15 42  1  0  0  0  0
 15 43  1  0  0  0  0
 15 44  1  0  0  0  0
 16 17  1  0  0  0  0
 16 45  1  0  0  0  0
 16 46  1  0  0  0  0
 17 18  1  0  0  0  0
 17 19  1  0  0  0  0
 17 47  1  0  0  0  0
 18 48  1  0  0  0  0
 19 20  1  0  0  0  0
 19 49  1  0  0  0  0
 19 50  1  0  0  0  0
 20 25  1  0  0  0  0
 20 21  1  0  0  0  0
 20 60  1  0  0  0  0
 21 22  1  0  0  0  0
 21 51  1  0  0  0  0
 21 52  1  0  0  0  0
 22 23  1  0  0  0  0
 22 53  1  0  0  0  0
 22 54  1  0  0  0  0
 23 24  1  0  0  0  0
 24 25  1  0  0  0  0
 24 55  1  0  0  0  0
 24 56  1  0  0  0  0
 25 57  1  0  0  0  0
 25 58  1  0  0  0  0
 26 27  1  0  0  0  0
 27 28  2  0  0  0  0
 27 59  1  0  0  0  0
 28 29  1  0  0  0  0
M  CHG  1  20   1
M  END
> <s_m_source_file>
AV-unprocessed.smi

> <i_m_source_file_index>
153

> <i_lp_mmshare_version>
43012

> <i_f3d_flags>
0

> <s_epik_input>
W0NIMl0xW0NIMl1PW0NAQEhdKFtDSDNdKVtDQEBdMShbT0hdKVtDSDJdbihbY0hdbjIpYyhjMjMpbltjSF1uYzNOKFtDSDNdKVtDSDJdW0NASF0oW09IXSlbQ0gyXU40W0NIMl1bQ0gyXU9bQ0gyXVtDSDJdNA==

> <s_epik_cmdline>
J2VwaWtfcHl0aG9uJywgJy1waCcsICc3LjAnLCAnLXRuJywgJzgnLCAnLW1hJywgJzIwMCcsICctbWV0YWxfYmluZGluZycsICctaW1hZScsICc8aW5maWxlLm1hZT4nLCAnLW9tYWUnLCAnPG91dGZpbGUubWFlPic=

> <r_lp_tautomer_probability>
1

> <r_epik_Ionization_Penalty>
0.403509

> <r_epik_Ionization_Penalty_Charging>
0.40072

> <r_epik_Ionization_Penalty_Neutral>
0.00278876

> <r_epik_State_Penalty>
0.400058

> <r_epik_Charging_Adjusted_Penalty>
0.800778

> <i_epik_Tot_Q>
1

> <i_epik_Tot_abs_Q>
1

> <r_epik_Metal_State_Penalty>
0.400321

> <b_epik_Metal_Only>
0

> <s_lp_Force_Field>
OPLS_2005

> <r_lp_Energy>
49.6176

> <b_lp_Chiralities_Consistent>
1

> <s_lp_Variant>
AV-unprocessed.smi:153-5

> <Gold.Version>
5.8.1

> <Gold.Id.Protein>
6NUR|6NUR_protein|mol2

> <Gold.PLP.Fitness>
57.2087

> <Gold.PLP.PLP>
-46.2146

> <Gold.PLP.part.hbond>
-3.9532

> <Gold.PLP.part.metal>
0.0000

> <Gold.PLP.part.buried>
1.0045

> <Gold.PLP.part.nonpolar>
-43.9890

> <Gold.PLP.part.repulsive>
2.1224

> <Gold.PLP.ligand.clash>
0.3495

> <Gold.PLP.ligand.torsion>
2.2392

> <Gold.PLP.Chemscore.Hbond>
3.9913

> <Gold.PLP.Chemscore.CHOScore>
0.9893

> <Gold.PLP.Chemscore.Metal>
0.0000

> <Gold.Chemscore.Hbonds>
donor molecule, donor type, donor heavy atom, donor atom, acceptor molecule, acceptor atom, score
      L1  H    18    48       P1 10171  0.57
      L1  H    20    60       P1  7948  1.69
      P1  H  7954  7966       L1    18  1.00
      L1  C    10    41       P1  8028  1.00

> <Gold.PLP.Chemscore.Internal.Correction>
0.8803

> <Gold.Rescore>
     Score         DG    S(hbond)    S(metal)    S(lipo)     H(rot)  DE(clash)    DE(int)     intcor
     10.72     -18.35       2.78        0.00     109.85       3.62       5.02       2.61       ----

> <Gold.Chemscore.Fitness>
10.7174

> <Gold.Chemscore.DG>
-18.3478

> <Gold.Chemscore.ZeroCoef>
-5.4800

> <Gold.Chemscore.Hbond>
2.7779

> <Gold.Chemscore.Metal>
0.0000

> <Gold.Chemscore.Lipo>
109.8472

> <Gold.Chemscore.Internal_Hbond>
0.0000

> <Gold.Chemscore.DEClash>
5.0239

> <Gold.Chemscore.DEInternal>
2.6065

> <Gold.Chemscore.Rot>
3.6182

> <Gold.Chemscore.Internal.Correction>
   9.000000E+99

> <Gold.Chemscore.Hbonds>
donor molecule, donor type, donor heavy atom, donor atom, acceptor molecule, acceptor atom, score
      L1  H    18    48       P1 10171  0.56
      L1  H    20    60       P1  7948  0.84
      P1  H  7954  7966       L1    18  0.24

> <Gold.Chemscore.Hbond.Weighted>
-9.2781

> <Gold.Chemscore.Metal.Weighted>
-0.0000

> <Gold.Chemscore.Lipo.Weighted>
-12.8521

> <Gold.Chemscore.Internal_Hbond.Weighted>
0.0000

> <Gold.Chemscore.DEClash.Weighted>
5.0239

> <Gold.Chemscore.DEInternal.Weighted>
2.6065

> <Gold.Chemscore.Rot.Weighted>
9.2625

> <Gold.Chemscore.Internal.Correction.Weighted>
   9.000000E+99

> <Gold.Protein.RotatedTorsions>
[ 6907 6896 6895 6894 ] final   56.85 input  -60.11 | X-H torsion
[ 7974 7965 7964 7962 ] final  129.65 input  175.53 | X-H torsion
[ 8008 7997 7996 7995 ] final  112.67 input   59.86 | X-H torsion
[ 10167 10162 10161 10158 ] final    4.46 input  -65.29 | X-H torsion
[ 10718 10713 10712 10709 ] final   54.04 input   66.30 | X-H torsion
[ 10763 10752 10751 10750 ] final  -35.46 input  -60.55 | X-H torsion
[ 11005 11000 10999 10996 ] final  115.94 input  -57.11 | X-H torsion

> <Gold.Protein.ActiveResidues>
 VAL166  LYS551  ARG553  GLY616  TRP617  ASP618  TYR619  PRO620  LYS621  CYS622 
 ASP623  PHE694  ASN695  SER759  ASP760  ASP761  ALA762  ILE779  LEU786  VAL792 
 PHE793  MET794  SER795  GLU796  ALA797  LYS798  CYS799  TRP800  GLU811  SER814 

> <Gold.Protein.RotatedAtoms>
  152.3675  134.6782  160.0186 H   0  0  0  0  0  0  0  0  0  0  0  0  # atno 6907 bound_to 6896
  151.7086  133.3306  159.3293 H   0  0  0  0  0  0  0  0  0  0  0  0  # atno 6908 bound_to 6896
  150.7649  134.6487  159.6321 H   0  0  0  0  0  0  0  0  0  0  0  0  # atno 6909 bound_to 6896
  145.0263  139.4086  143.5172 H   0  0  0  0  0  0  0  0  0  0  0  0  # atno 7974 bound_to 7965
  156.2207  140.2995  155.9946 H   0  0  0  0  0  0  0  0  0  0  0  0  # atno 8008 bound_to 7997
  155.2488  140.0425  157.3001 H   0  0  0  0  0  0  0  0  0  0  0  0  # atno 8009 bound_to 7997
  154.5837  140.2382  155.8026 H   0  0  0  0  0  0  0  0  0  0  0  0  # atno 8010 bound_to 7997
  140.6533  143.7490  150.7611 H   0  0  0  0  0  0  0  0  0  0  0  0  # atno 10167 bound_to 10162
  157.5222  130.8572  149.8573 H   0  0  0  0  0  0  0  0  0  0  0  0  # atno 10718 bound_to 10713
  153.8635  135.6838  153.4780 H   0  0  0  0  0  0  0  0  0  0  0  0  # atno 10763 bound_to 10752
  153.1328  135.4690  154.9373 H   0  0  0  0  0  0  0  0  0  0  0  0  # atno 10764 bound_to 10752
  154.7747  135.3249  154.8066 H   0  0  0  0  0  0  0  0  0  0  0  0  # atno 10765 bound_to 10752
  139.9025  134.9591  156.7122 H   0  0  0  0  0  0  0  0  0  0  0  0  # atno 11005 bound_to 11000
  146.3492  139.9789  142.8698 LP  0  0  0  0  0  0  0  0  0  0  0  0  # atno 17320 bound_to 7965
  145.1829  140.9775  143.4256 LP  0  0  0  0  0  0  0  0  0  0  0  0  # atno 17321 bound_to 7965
  140.1145  143.4669  152.2350 LP  0  0  0  0  0  0  0  0  0  0  0  0  # atno 17342 bound_to 10162
  139.5752  144.7483  151.3785 LP  0  0  0  0  0  0  0  0  0  0  0  0  # atno 17343 bound_to 10162
  156.0361  130.3751  150.1557 LP  0  0  0  0  0  0  0  0  0  0  0  0  # atno 17370 bound_to 10713
  156.9744  130.9845  151.3451 LP  0  0  0  0  0  0  0  0  0  0  0  0  # atno 17371 bound_to 10713
  140.7067  133.9259  155.8058 LP  0  0  0  0  0  0  0  0  0  0  0  0  # atno 17394 bound_to 11000
  141.0331  134.0727  157.3991 LP  0  0  0  0  0  0  0  0  0  0  0  0  # atno 17395 bound_to 11000

$$$$
