AV-unprocessed.smi:2928|AV-procd|sdf|11234|dock6
  -GOLD-   2272016123D 1   1.00000     0.00000
 Structure written by MMmdl.
 55 58  0  0  0  0  0  0  0  0  2 V2000
  142.7373  133.3039  151.6639 C   0  0  0  0  0  0  0  0  0  0  0  0
  143.8025  133.5654  152.6613 N   0  3  2  0  0  0  0  0  0  0  0  0
  143.7001  134.8721  153.3533 C   0  0  1  0  0  0  0  0  0  0  0  0
  144.5726  134.8377  154.6292 C   0  0  0  0  0  0  0  0  0  0  0  0
  146.0310  134.4078  154.3789 C   0  0  0  0  0  0  0  0  0  0  0  0
  146.1414  133.2422  153.3764 C   0  0  0  0  0  0  0  0  0  0  0  0
  145.1846  133.3586  152.1669 C   0  0  2  0  0  0  0  0  0  0  0  0
  145.5767  134.4263  151.1145 C   0  0  0  0  0  0  0  0  0  0  0  0
  145.2387  135.8929  151.4804 C   0  0  2  0  0  0  0  0  0  0  0  0
  146.4098  136.5987  151.9942 N   0  0  0  0  0  0  0  0  0  0  0  0
  146.4382  137.8692  152.4214 C   0  0  0  0  0  0  0  0  0  0  0  0
  145.4580  138.6134  152.4093 O   0  0  0  0  0  0  0  0  0  0  0  0
  147.6582  138.1944  152.8789 N   0  0  0  0  0  0  0  0  0  0  0  0
  148.0766  139.4068  153.4961 C   0  0  0  0  0  0  0  0  0  0  0  0
  147.3066  140.5944  153.4589 C   0  0  0  0  0  0  0  0  0  0  0  0
  147.8066  141.7545  154.0780 C   0  0  0  0  0  0  0  0  0  0  0  0
  149.0637  141.6895  154.7051 C   0  0  0  0  0  0  0  0  0  0  0  0
  149.8162  140.5707  154.7362 N   0  0  0  0  0  0  0  0  0  0  0  0
  149.3392  139.4504  154.1410 C   0  0  0  0  0  0  0  0  0  0  0  0
  150.1394  138.2947  154.1867 N   0  0  0  0  0  0  0  0  0  0  0  0
  151.4968  138.4879  154.6680 C   0  0  0  0  0  0  0  0  0  0  0  0
  152.0218  137.0831  154.9755 C   0  0  0  0  0  0  0  0  0  0  0  0
  150.7645  136.2254  155.1677 C   0  0  0  0  0  0  0  0  0  0  0  0
  149.5945  137.1900  154.9575 C   0  0  0  0  0  0  0  0  0  0  0  0
  143.9894  136.0495  152.3890 C   0  0  0  0  0  0  0  0  0  0  0  0
  142.7737  134.0020  150.8277 H   0  0  0  0  0  0  0  0  0  0  0  0
  141.7542  133.3846  152.1285 H   0  0  0  0  0  0  0  0  0  0  0  0
  142.8306  132.2936  151.2643 H   0  0  0  0  0  0  0  0  0  0  0  0
  142.6700  134.9848  153.6948 H   0  0  0  0  0  0  0  0  0  0  0  0
  144.5489  135.8041  155.1340 H   0  0  0  0  0  0  0  0  0  0  0  0
  144.1258  134.1272  155.3263 H   0  0  0  0  0  0  0  0  0  0  0  0
  146.6211  135.2540  154.0440 H   0  0  0  0  0  0  0  0  0  0  0  0
  146.4906  134.1174  155.3242 H   0  0  0  0  0  0  0  0  0  0  0  0
  147.1727  133.1350  153.0383 H   0  0  0  0  0  0  0  0  0  0  0  0
  145.9053  132.3182  153.9064 H   0  0  0  0  0  0  0  0  0  0  0  0
  145.2132  132.3903  151.6651 H   0  0  0  0  0  0  0  0  0  0  0  0
  146.6305  134.3264  150.8502 H   0  0  0  0  0  0  0  0  0  0  0  0
  145.0417  134.1891  150.1942 H   0  0  0  0  0  0  0  0  0  0  0  0
  145.0082  136.3917  150.5368 H   0  0  0  0  0  0  0  0  0  0  0  0
  147.2687  136.0706  152.0447 H   0  0  0  0  0  0  0  0  0  0  0  0
  148.3402  137.4501  152.8934 H   0  0  0  0  0  0  0  0  0  0  0  0
  146.3527  140.6405  152.9562 H   0  0  0  0  0  0  0  0  0  0  0  0
  147.2408  142.6744  154.0669 H   0  0  0  0  0  0  0  0  0  0  0  0
  149.4799  142.5605  155.1893 H   0  0  0  0  0  0  0  0  0  0  0  0
  152.1104  138.9923  153.9211 H   0  0  0  0  0  0  0  0  0  0  0  0
  151.5003  139.0956  155.5741 H   0  0  0  0  0  0  0  0  0  0  0  0
  152.6047  136.7036  154.1353 H   0  0  0  0  0  0  0  0  0  0  0  0
  152.6658  137.0803  155.8554 H   0  0  0  0  0  0  0  0  0  0  0  0
  150.7396  135.4302  154.4216 H   0  0  0  0  0  0  0  0  0  0  0  0
  150.7265  135.7589  156.1524 H   0  0  0  0  0  0  0  0  0  0  0  0
  149.2216  137.5421  155.9205 H   0  0  0  0  0  0  0  0  0  0  0  0
  148.7682  136.7119  154.4306 H   0  0  0  0  0  0  0  0  0  0  0  0
  143.1245  136.1549  151.7332 H   0  0  0  0  0  0  0  0  0  0  0  0
  144.0210  136.9862  152.9466 H   0  0  0  0  0  0  0  0  0  0  0  0
  143.6617  132.8666  153.3770 H   0  0  0  0  0  0  0  0  0  0  0  0
  1  2  1  0  0  0  0
  1 26  1  0  0  0  0
  1 27  1  0  0  0  0
  1 28  1  0  0  0  0
  2  7  1  0  0  0  0
  2  3  1  0  0  0  0
  2 55  1  0  0  0  0
  3 25  1  0  0  0  0
  3  4  1  0  0  0  0
  3 29  1  0  0  0  0
  4  5  1  0  0  0  0
  4 30  1  0  0  0  0
  4 31  1  0  0  0  0
  5  6  1  0  0  0  0
  5 32  1  0  0  0  0
  5 33  1  0  0  0  0
  6  7  1  0  0  0  0
  6 34  1  0  0  0  0
  6 35  1  0  0  0  0
  7  8  1  0  0  0  0
  7 36  1  0  0  0  0
  8  9  1  0  0  0  0
  8 37  1  0  0  0  0
  8 38  1  0  0  0  0
  9 10  1  0  0  0  0
  9 25  1  0  0  0  0
  9 39  1  0  0  0  0
 10 11  1  0  0  0  0
 10 40  1  0  0  0  0
 11 12  2  0  0  0  0
 11 13  1  0  0  0  0
 13 14  1  0  0  0  0
 13 41  1  0  0  0  0
 14 19  1  0  0  0  0
 14 15  2  0  0  0  0
 15 16  1  0  0  0  0
 15 42  1  0  0  0  0
 16 17  2  0  0  0  0
 16 43  1  0  0  0  0
 17 18  1  0  0  0  0
 17 44  1  0  0  0  0
 18 19  2  0  0  0  0
 19 20  1  0  0  0  0
 20 24  1  0  0  0  0
 20 21  1  0  0  0  0
 21 22  1  0  0  0  0
 21 45  1  0  0  0  0
 21 46  1  0  0  0  0
 22 23  1  0  0  0  0
 22 47  1  0  0  0  0
 22 48  1  0  0  0  0
 23 24  1  0  0  0  0
 23 49  1  0  0  0  0
 23 50  1  0  0  0  0
 24 51  1  0  0  0  0
 24 52  1  0  0  0  0
 25 53  1  0  0  0  0
 25 54  1  0  0  0  0
M  CHG  1   2   1
M  END
> <s_m_source_file>
AV-unprocessed.smi

> <i_m_source_file_index>
2928

> <i_lp_mmshare_version>
43012

> <i_f3d_flags>
0

> <s_epik_input>
W0NIMl0xW0NIMl1bQ0gyXVtDQEhdKE4oW0NIM10pW0NIXTEyKVtDSDJdW0NASF0oW0NIMl0yKVtOSF1DKD1PKVtOSF1jM1tjSF1bY0hdW2NIXW5jM040W0NIMl1bQ0gyXVtDSDJdW0NIMl00

> <s_epik_cmdline>
J2VwaWtfcHl0aG9uJywgJy1waCcsICc3LjAnLCAnLXRuJywgJzgnLCAnLW1hJywgJzIwMCcsICctbWV0YWxfYmluZGluZycsICctaW1hZScsICc8aW5maWxlLm1hZT4nLCAnLW9tYWUnLCAnPG91dGZpbGUubWFlPic=

> <r_lp_tautomer_probability>
1

> <r_epik_Ionization_Penalty>
0.07954

> <r_epik_Ionization_Penalty_Charging>
0.00089841

> <r_epik_Ionization_Penalty_Neutral>
0.0786416

> <r_epik_State_Penalty>
0.0689917

> <r_epik_Charging_Adjusted_Penalty>
0.0698901

> <i_epik_Tot_Q>
1

> <i_epik_Tot_abs_Q>
1

> <r_epik_Metal_State_Penalty>
0.0608947

> <b_epik_Metal_Only>
0

> <s_lp_Force_Field>
OPLS_2005

> <r_lp_Energy>
66.3718

> <b_lp_Chiralities_Consistent>
1

> <s_lp_Variant>
AV-unprocessed.smi:2928-4

> <Gold.Version>
5.8.1

> <Gold.Id.Protein>
6NUR|6NUR_protein|mol2

> <Gold.PLP.Fitness>
45.4716

> <Gold.PLP.PLP>
-30.4202

> <Gold.PLP.part.hbond>
-4.5802

> <Gold.PLP.part.metal>
0.0000

> <Gold.PLP.part.buried>
4.2454

> <Gold.PLP.part.nonpolar>
-35.9690

> <Gold.PLP.part.repulsive>
4.9724

> <Gold.PLP.ligand.clash>
0.0000

> <Gold.PLP.ligand.torsion>
0.2276

> <Gold.PLP.Chemscore.Hbond>
4.1433

> <Gold.PLP.Chemscore.CHOScore>
1.0000

> <Gold.PLP.Chemscore.Metal>
0.0000

> <Gold.Chemscore.Hbonds>
donor molecule, donor type, donor heavy atom, donor atom, acceptor molecule, acceptor atom, score
      L1  H     2    55       P1 10957  1.98
      L1  H    10    40       P1  7948  0.85
      L1  H    13    41       P1  7948  0.78
      P1  H  7989  7998       L1    18  0.44
      L1  C    17    44       P1  8028  1.00

> <Gold.PLP.Chemscore.Internal.Correction>
0.0768

> <Gold.Rescore>
     Score         DG    S(hbond)    S(metal)    S(lipo)     H(rot)  DE(clash)    DE(int)     intcor
     14.62     -21.23       2.54        0.00      87.78       1.18       2.96       3.66       ----

> <Gold.Chemscore.Fitness>
14.6157

> <Gold.Chemscore.DG>
-21.2328

> <Gold.Chemscore.ZeroCoef>
-5.4800

> <Gold.Chemscore.Hbond>
2.5439

> <Gold.Chemscore.Metal>
0.0000

> <Gold.Chemscore.Lipo>
87.7848

> <Gold.Chemscore.Internal_Hbond>
0.0000

> <Gold.Chemscore.DEClash>
2.9599

> <Gold.Chemscore.DEInternal>
3.6571

> <Gold.Chemscore.Rot>
1.1776

> <Gold.Chemscore.Internal.Correction>
   9.000000E+99

> <Gold.Chemscore.Hbonds>
donor molecule, donor type, donor heavy atom, donor atom, acceptor molecule, acceptor atom, score
      L1  H     2    55       P1 10957  0.60
      L1  H    10    40       P1  7948  0.83
      L1  H    13    41       P1  7948  0.78
      P1  H  7989  7998       L1    18  0.07

> <Gold.Chemscore.Hbond.Weighted>
-8.4967

> <Gold.Chemscore.Metal.Weighted>
-0.0000

> <Gold.Chemscore.Lipo.Weighted>
-10.2708

> <Gold.Chemscore.Internal_Hbond.Weighted>
0.0000

> <Gold.Chemscore.DEClash.Weighted>
2.9599

> <Gold.Chemscore.DEInternal.Weighted>
3.6571

> <Gold.Chemscore.Rot.Weighted>
3.0147

> <Gold.Chemscore.Internal.Correction.Weighted>
   9.000000E+99

> <Gold.Protein.RotatedTorsions>
[ 6907 6896 6895 6894 ] final   63.67 input  -60.11 | X-H torsion
[ 7974 7965 7964 7962 ] final   89.44 input  175.53 | X-H torsion
[ 8008 7997 7996 7995 ] final   99.70 input   59.86 | X-H torsion
[ 10167 10162 10161 10158 ] final -173.09 input  -65.29 | X-H torsion
[ 10718 10713 10712 10709 ] final   43.83 input   66.30 | X-H torsion
[ 10763 10752 10751 10750 ] final  -12.96 input  -60.55 | X-H torsion
[ 11005 11000 10999 10996 ] final  -39.07 input  -57.11 | X-H torsion

> <Gold.Protein.ActiveResidues>
 VAL166  LYS551  ARG553  GLY616  TRP617  ASP618  TYR619  PRO620  LYS621  CYS622 
 ASP623  PHE694  ASN695  SER759  ASP760  ASP761  ALA762  ILE779  LEU786  VAL792 
 PHE793  MET794  SER795  GLU796  ALA797  LYS798  CYS799  TRP800  GLU811  SER814 

> <Gold.Protein.RotatedAtoms>
  152.4271  134.5847  159.9957 H   0  0  0  0  0  0  0  0  0  0  0  0  # atno 6907 bound_to 6896
  151.5980  133.3353  159.3049 H   0  0  0  0  0  0  0  0  0  0  0  0  # atno 6908 bound_to 6896
  150.8162  134.7381  159.6797 H   0  0  0  0  0  0  0  0  0  0  0  0  # atno 6909 bound_to 6896
  145.5324  139.2284  143.2611 H   0  0  0  0  0  0  0  0  0  0  0  0  # atno 7974 bound_to 7965
  156.1131  140.3224  155.8101 H   0  0  0  0  0  0  0  0  0  0  0  0  # atno 8008 bound_to 7997
  155.4637  140.0541  157.3005 H   0  0  0  0  0  0  0  0  0  0  0  0  # atno 8009 bound_to 7997
  154.4774  140.2038  155.9859 H   0  0  0  0  0  0  0  0  0  0  0  0  # atno 8010 bound_to 7997
  139.5708  144.1647  152.1380 H   0  0  0  0  0  0  0  0  0  0  0  0  # atno 10167 bound_to 10162
  157.4202  130.7965  149.7508 H   0  0  0  0  0  0  0  0  0  0  0  0  # atno 10718 bound_to 10713
  153.5062  135.7017  153.5805 H   0  0  0  0  0  0  0  0  0  0  0  0  # atno 10763 bound_to 10752
  153.3915  135.3894  155.1926 H   0  0  0  0  0  0  0  0  0  0  0  0  # atno 10764 bound_to 10752
  154.8707  135.3859  154.4537 H   0  0  0  0  0  0  0  0  0  0  0  0  # atno 10765 bound_to 10752
  141.0075  133.6924  156.2138 H   0  0  0  0  0  0  0  0  0  0  0  0  # atno 11005 bound_to 11000
  146.2035  140.6141  142.9091 LP  0  0  0  0  0  0  0  0  0  0  0  0  # atno 17320 bound_to 7965
  144.7619  140.5442  143.6729 LP  0  0  0  0  0  0  0  0  0  0  0  0  # atno 17321 bound_to 7965
  140.1180  144.5399  150.6881 LP  0  0  0  0  0  0  0  0  0  0  0  0  # atno 17342 bound_to 10162
  140.6992  143.2423  151.4914 LP  0  0  0  0  0  0  0  0  0  0  0  0  # atno 17343 bound_to 10162
  155.9878  130.3964  150.3148 LP  0  0  0  0  0  0  0  0  0  0  0  0  # atno 17370 bound_to 10713
  157.1295  131.0268  151.2975 LP  0  0  0  0  0  0  0  0  0  0  0  0  # atno 17371 bound_to 10713
  140.6789  134.4788  157.5588 LP  0  0  0  0  0  0  0  0  0  0  0  0  # atno 17394 bound_to 11000
  139.9071  134.8425  156.1665 LP  0  0  0  0  0  0  0  0  0  0  0  0  # atno 17395 bound_to 11000

$$$$
