AV-unprocessed.smi:1046|AV-procd|sdf|4549|dock5
  -GOLD-   22720 2573D 1   1.00000     0.00000
 Structure written by MMmdl.
 53 55  0  0  0  0  0  0  0  0  2 V2000
  152.6057  143.7700  161.0691 C   0  0  0  0  0  0  0  0  0  0  0  0
  152.2707  142.9559  159.8319 C   0  0  0  0  0  0  0  0  0  0  0  0
  152.3222  141.5456  159.9029 C   0  0  0  0  0  0  0  0  0  0  0  0
  152.0159  140.7525  158.7760 C   0  0  0  0  0  0  0  0  0  0  0  0
  151.9985  139.3767  158.6229 N   0  0  0  0  0  0  0  0  0  0  0  0
  151.6358  139.2530  157.3499 C   0  0  0  0  0  0  0  0  0  0  0  0
  151.4134  140.3874  156.6584 N   0  0  0  0  0  0  0  0  0  0  0  0
  151.0103  140.4964  155.2677 C   0  0  0  0  0  0  0  0  0  0  0  0
  149.7559  141.3759  155.0870 C   0  0  1  0  0  0  0  0  0  0  0  0
  149.2142  141.1574  153.7999 O   0  0  0  0  0  0  0  0  0  0  0  0
  148.6507  141.0688  156.1188 C   0  0  0  0  0  0  0  0  0  0  0  0
  147.6064  142.1227  156.1914 N   0  3  0  0  0  0  0  0  0  0  0  0
  146.8708  142.1006  157.4819 C   0  0  0  0  0  0  0  0  0  0  0  0
  145.8589  143.2632  157.5443 C   0  0  0  0  0  0  0  0  0  0  0  0
  144.9026  143.2581  156.4375 N   0  0  0  0  0  0  0  0  0  0  0  0
  143.9102  142.1842  156.5476 C   0  0  0  0  0  0  0  0  0  0  0  0
  142.7679  142.2535  155.5213 C   0  0  0  0  0  0  0  0  0  0  0  0
  142.4277  140.9480  155.1100 O   0  0  0  0  0  0  0  0  0  0  0  0
  145.6487  143.2709  155.1769 C   0  0  0  0  0  0  0  0  0  0  0  0
  146.6548  142.1088  155.0481 C   0  0  0  0  0  0  0  0  0  0  0  0
  151.6551  141.4139  157.5655 C   0  0  0  0  0  0  0  0  0  0  0  0
  151.6010  142.8162  157.4823 C   0  0  0  0  0  0  0  0  0  0  0  0
  151.9094  143.5937  158.6181 C   0  0  0  0  0  0  0  0  0  0  0  0
  151.8467  145.1076  158.5189 C   0  0  0  0  0  0  0  0  0  0  0  0
  152.8427  143.1269  161.9171 H   0  0  0  0  0  0  0  0  0  0  0  0
  151.7617  144.3991  161.3525 H   0  0  0  0  0  0  0  0  0  0  0  0
  153.4685  144.4098  160.8827 H   0  0  0  0  0  0  0  0  0  0  0  0
  152.5976  141.0597  160.8274 H   0  0  0  0  0  0  0  0  0  0  0  0
  151.5231  138.2803  156.8934 H   0  0  0  0  0  0  0  0  0  0  0  0
  151.8459  140.8941  154.6900 H   0  0  0  0  0  0  0  0  0  0  0  0
  150.8266  139.4888  154.8932 H   0  0  0  0  0  0  0  0  0  0  0  0
  150.0363  142.4278  155.1338 H   0  0  0  0  0  0  0  0  0  0  0  0
  148.2727  141.1046  153.8724 H   0  0  0  0  0  0  0  0  0  0  0  0
  148.1759  140.1114  155.8974 H   0  0  0  0  0  0  0  0  0  0  0  0
  149.1166  140.9586  157.0996 H   0  0  0  0  0  0  0  0  0  0  0  0
  146.3700  141.1400  157.6092 H   0  0  0  0  0  0  0  0  0  0  0  0
  147.5775  142.1976  158.3069 H   0  0  0  0  0  0  0  0  0  0  0  0
  145.3260  143.2405  158.4957 H   0  0  0  0  0  0  0  0  0  0  0  0
  146.4065  144.2066  157.5354 H   0  0  0  0  0  0  0  0  0  0  0  0
  144.3912  141.2082  156.4866 H   0  0  0  0  0  0  0  0  0  0  0  0
  143.4611  142.2300  157.5406 H   0  0  0  0  0  0  0  0  0  0  0  0
  141.8885  142.7303  155.9550 H   0  0  0  0  0  0  0  0  0  0  0  0
  143.0539  142.8262  154.6397 H   0  0  0  0  0  0  0  0  0  0  0  0
  143.0455  140.6690  154.4513 H   0  0  0  0  0  0  0  0  0  0  0  0
  144.9665  143.2692  154.3277 H   0  0  0  0  0  0  0  0  0  0  0  0
  146.1952  144.2122  155.1034 H   0  0  0  0  0  0  0  0  0  0  0  0
  147.1932  142.2220  154.1084 H   0  0  0  0  0  0  0  0  0  0  0  0
  146.1392  141.1489  154.9997 H   0  0  0  0  0  0  0  0  0  0  0  0
  151.3216  143.2898  156.5528 H   0  0  0  0  0  0  0  0  0  0  0  0
  151.5759  145.4302  157.5132 H   0  0  0  0  0  0  0  0  0  0  0  0
  152.8145  145.5471  158.7613 H   0  0  0  0  0  0  0  0  0  0  0  0
  151.1027  145.5045  159.2098 H   0  0  0  0  0  0  0  0  0  0  0  0
  148.0882  143.0096  156.1607 H   0  0  0  0  0  0  0  0  0  0  0  0
  1  2  1  0  0  0  0
  1 25  1  0  0  0  0
  1 26  1  0  0  0  0
  1 27  1  0  0  0  0
  2 23  1  0  0  0  0
  2  3  2  0  0  0  0
  3  4  1  0  0  0  0
  3 28  1  0  0  0  0
  4 21  2  0  0  0  0
  4  5  1  0  0  0  0
  5  6  2  0  0  0  0
  6  7  1  0  0  0  0
  6 29  1  0  0  0  0
  7  8  1  0  0  0  0
  7 21  1  0  0  0  0
  8  9  1  0  0  0  0
  8 30  1  0  0  0  0
  8 31  1  0  0  0  0
  9 10  1  0  0  0  0
  9 11  1  0  0  0  0
  9 32  1  0  0  0  0
 10 33  1  0  0  0  0
 11 12  1  0  0  0  0
 11 34  1  0  0  0  0
 11 35  1  0  0  0  0
 12 20  1  0  0  0  0
 12 13  1  0  0  0  0
 12 53  1  0  0  0  0
 13 14  1  0  0  0  0
 13 36  1  0  0  0  0
 13 37  1  0  0  0  0
 14 15  1  0  0  0  0
 14 38  1  0  0  0  0
 14 39  1  0  0  0  0
 15 16  1  0  0  0  0
 15 19  1  0  0  0  0
 16 17  1  0  0  0  0
 16 40  1  0  0  0  0
 16 41  1  0  0  0  0
 17 18  1  0  0  0  0
 17 42  1  0  0  0  0
 17 43  1  0  0  0  0
 18 44  1  0  0  0  0
 19 20  1  0  0  0  0
 19 45  1  0  0  0  0
 19 46  1  0  0  0  0
 20 47  1  0  0  0  0
 20 48  1  0  0  0  0
 21 22  1  0  0  0  0
 22 23  2  0  0  0  0
 22 49  1  0  0  0  0
 23 24  1  0  0  0  0
 24 50  1  0  0  0  0
 24 51  1  0  0  0  0
 24 52  1  0  0  0  0
M  CHG  1  12   1
M  END
> <s_m_source_file>
AV-unprocessed.smi

> <i_m_source_file_index>
1046

> <i_lp_mmshare_version>
43012

> <i_f3d_flags>
0

> <s_epik_input>
W0NIM11jKFtjSF0xKWMoW0NIM10pW2NIXWMoYzEyKW4oW2NIXW4yKVtDSDJdW0NASF0oW09IXSlbQ0gyXU4zW0NIMl1bQ0gyXU4oW0NIMl1bQ0gyXTMpW0NIMl1bQ0gyXVtPSF0=

> <s_epik_cmdline>
J2VwaWtfcHl0aG9uJywgJy1waCcsICc3LjAnLCAnLXRuJywgJzgnLCAnLW1hJywgJzIwMCcsICctbWV0YWxfYmluZGluZycsICctaW1hZScsICc8aW5maWxlLm1hZT4nLCAnLW9tYWUnLCAnPG91dGZpbGUubWFlPic=

> <r_epik_Ionization_Penalty>
0.131947

> <r_epik_Ionization_Penalty_Charging>
0.00213896

> <r_epik_Ionization_Penalty_Neutral>
0.129808

> <r_epik_State_Penalty>
0.319681

> <r_epik_Charging_Adjusted_Penalty>
0.32182

> <i_epik_Tot_Q>
1

> <i_epik_Tot_abs_Q>
1

> <r_epik_Metal_State_Penalty>
0.225417

> <b_epik_Metal_Only>
0

> <s_lp_Force_Field>
OPLS_2005

> <r_lp_Energy>
33.7571

> <b_lp_Chiralities_Consistent>
1

> <s_lp_Variant>
AV-unprocessed.smi:1046-2

> <Gold.Version>
5.8.1

> <Gold.Id.Protein>
6NUR|6NUR_protein|mol2

> <Gold.PLP.Fitness>
54.7022

> <Gold.PLP.PLP>
-44.3314

> <Gold.PLP.part.hbond>
-5.2739

> <Gold.PLP.part.metal>
0.0000

> <Gold.PLP.part.buried>
-4.2666

> <Gold.PLP.part.nonpolar>
-34.9197

> <Gold.PLP.part.repulsive>
0.0978

> <Gold.PLP.ligand.clash>
0.0000

> <Gold.PLP.ligand.torsion>
0.7190

> <Gold.PLP.Chemscore.Hbond>
3.8960

> <Gold.PLP.Chemscore.CHOScore>
0.0000

> <Gold.PLP.Chemscore.Metal>
0.0000

> <Gold.Chemscore.Hbonds>
donor molecule, donor type, donor heavy atom, donor atom, acceptor molecule, acceptor atom, score
      L1  H    12    53       P1  8028  2.00
      L1  H    18    44       P1 10175  1.00
      P1  H  8011  8017       L1    10  0.91

> <Gold.PLP.Chemscore.Internal.Correction>
0.1208

> <Gold.Rescore>
     Score         DG    S(hbond)    S(metal)    S(lipo)     H(rot)  DE(clash)    DE(int)     intcor
     15.46     -18.51       2.34        0.00     114.73       3.21       1.62       1.43       ----

> <Gold.Chemscore.Fitness>
15.4571

> <Gold.Chemscore.DG>
-18.5107

> <Gold.Chemscore.ZeroCoef>
-5.4800

> <Gold.Chemscore.Hbond>
2.3394

> <Gold.Chemscore.Metal>
0.0000

> <Gold.Chemscore.Lipo>
114.7342

> <Gold.Chemscore.Internal_Hbond>
0.0000

> <Gold.Chemscore.DEClash>
1.6236

> <Gold.Chemscore.DEInternal>
1.4301

> <Gold.Chemscore.Rot>
3.2058

> <Gold.Chemscore.Internal.Correction>
   9.000000E+99

> <Gold.Chemscore.Hbonds>
donor molecule, donor type, donor heavy atom, donor atom, acceptor molecule, acceptor atom, score
      L1  H    12    53       P1  8028  0.60
      L1  H    18    44       P1 10175  0.81
      P1  H  8011  8017       L1    10  0.64

> <Gold.Chemscore.Hbond.Weighted>
-7.8135

> <Gold.Chemscore.Metal.Weighted>
-0.0000

> <Gold.Chemscore.Lipo.Weighted>
-13.4239

> <Gold.Chemscore.Internal_Hbond.Weighted>
0.0000

> <Gold.Chemscore.DEClash.Weighted>
1.6236

> <Gold.Chemscore.DEInternal.Weighted>
1.4301

> <Gold.Chemscore.Rot.Weighted>
8.2067

> <Gold.Chemscore.Internal.Correction.Weighted>
   9.000000E+99

> <Gold.Protein.RotatedTorsions>
[ 6907 6896 6895 6894 ] final  134.57 input  -60.11 | X-H torsion
[ 7974 7965 7964 7962 ] final   85.50 input  175.53 | X-H torsion
[ 8008 7997 7996 7995 ] final   50.66 input   59.86 | X-H torsion
[ 10167 10162 10161 10158 ] final   60.55 input  -65.29 | X-H torsion
[ 10718 10713 10712 10709 ] final  176.79 input   66.30 | X-H torsion
[ 10763 10752 10751 10750 ] final  113.20 input  -60.55 | X-H torsion
[ 11005 11000 10999 10996 ] final   71.02 input  -57.11 | X-H torsion

> <Gold.Protein.ActiveResidues>
 VAL166  LYS551  ARG553  GLY616  TRP617  ASP618  TYR619  PRO620  LYS621  CYS622 
 ASP623  PHE694  ASN695  SER759  ASP760  ASP761  ALA762  ILE779  LEU786  VAL792 
 PHE793  MET794  SER795  GLU796  ALA797  LYS798  CYS799  TRP800  GLU811  SER814 

> <Gold.Protein.RotatedAtoms>
  152.3099  133.5742  159.5673 H   0  0  0  0  0  0  0  0  0  0  0  0  # atno 6907 bound_to 6896
  150.7318  134.0168  159.3697 H   0  0  0  0  0  0  0  0  0  0  0  0  # atno 6908 bound_to 6896
  151.8061  135.0695  160.0457 H   0  0  0  0  0  0  0  0  0  0  0  0  # atno 6909 bound_to 6896
  145.5847  139.2330  143.2333 H   0  0  0  0  0  0  0  0  0  0  0  0  # atno 7974 bound_to 7965
  155.4225  140.3447  155.4272 H   0  0  0  0  0  0  0  0  0  0  0  0  # atno 8008 bound_to 7997
  156.1385  140.1535  156.8989 H   0  0  0  0  0  0  0  0  0  0  0  0  # atno 8009 bound_to 7997
  154.4951  140.0830  156.7660 H   0  0  0  0  0  0  0  0  0  0  0  0  # atno 8010 bound_to 7997
  140.1643  144.4339  150.6693 H   0  0  0  0  0  0  0  0  0  0  0  0  # atno 10167 bound_to 10162
  156.9149  130.9922  151.3014 H   0  0  0  0  0  0  0  0  0  0  0  0  # atno 10718 bound_to 10713
  153.4890  135.3663  155.2482 H   0  0  0  0  0  0  0  0  0  0  0  0  # atno 10763 bound_to 10752
  154.8753  135.3972  154.3611 H   0  0  0  0  0  0  0  0  0  0  0  0  # atno 10764 bound_to 10752
  153.4227  135.7080  153.6349 H   0  0  0  0  0  0  0  0  0  0  0  0  # atno 10765 bound_to 10752
  139.9566  134.7133  156.0739 H   0  0  0  0  0  0  0  0  0  0  0  0  # atno 11005 bound_to 11000
  146.1690  140.6674  142.9242 LP  0  0  0  0  0  0  0  0  0  0  0  0  # atno 17320 bound_to 7965
  144.7378  140.4857  143.6891 LP  0  0  0  0  0  0  0  0  0  0  0  0  # atno 17321 bound_to 7965
  140.6623  143.2256  151.5827 LP  0  0  0  0  0  0  0  0  0  0  0  0  # atno 17342 bound_to 10162
  139.5366  144.2762  152.1265 LP  0  0  0  0  0  0  0  0  0  0  0  0  # atno 17343 bound_to 10162
  157.5944  130.8467  149.8707 LP  0  0  0  0  0  0  0  0  0  0  0  0  # atno 17370 bound_to 10713
  156.0518  130.3716  150.1183 LP  0  0  0  0  0  0  0  0  0  0  0  0  # atno 17371 bound_to 10713
  141.1238  133.6605  156.3284 LP  0  0  0  0  0  0  0  0  0  0  0  0  # atno 17394 bound_to 11000
  140.5595  134.5948  157.5430 LP  0  0  0  0  0  0  0  0  0  0  0  0  # atno 17395 bound_to 11000

$$$$
