AV-unprocessed.smi:1858|AV-procd|sdf|7542|dock6
  -GOLD-   22720 9253D 1   1.00000     0.00000
 Structure written by MMmdl.
 48 49  0  0  0  0  0  0  0  0  1 V2000
  154.7294  134.7631  164.2954 C   0  0  0  0  0  0  0  0  0  0  0  0
  154.6906  135.0665  162.8735 N   0  0  0  0  0  0  0  0  0  0  0  0
  154.6392  136.3068  162.3563 C   0  0  0  0  0  0  0  0  0  0  0  0
  154.6378  137.3071  163.0748 O   0  0  0  0  0  0  0  0  0  0  0  0
  154.5678  136.3439  160.8928 C   0  0  0  0  0  0  0  0  0  0  0  0
  154.9577  135.1746  160.1296 C   0  0  0  0  0  0  0  0  0  0  0  0
  154.9495  135.1970  158.7819 C   0  0  0  0  0  0  0  0  0  0  0  0
  154.5486  136.3916  158.0319 C   0  0  0  0  0  0  0  0  0  0  0  0
  154.5682  136.4265  156.8015 O   0  0  0  0  0  0  0  0  0  0  0  0
  154.1560  137.4610  158.7877 N   0  0  0  0  0  0  0  0  0  0  0  0
  153.7618  138.7375  158.1726 C   0  0  0  0  0  0  0  0  0  0  0  0
  152.7009  139.4384  159.0261 C   0  0  0  0  0  0  0  0  0  0  0  0
  151.7915  138.7911  159.5437 O   0  0  0  0  0  0  0  0  0  0  0  0
  152.8280  140.7692  159.1402 N   0  0  0  0  0  0  0  0  0  0  0  0
  151.8793  141.6770  159.7791 C   0  0  0  0  0  0  0  0  0  0  0  0
  150.9192  142.3057  158.7377 C   0  0  0  0  0  0  0  0  0  0  0  0
  151.5536  143.0843  157.5679 C   0  0  0  0  0  0  0  0  0  0  0  0
  152.3464  144.3526  157.9325 C   0  0  0  0  0  0  0  0  0  0  0  0
  151.6500  145.2911  158.9390 C   0  0  0  0  0  0  0  0  0  0  0  0
  152.1822  145.2043  160.3846 C   0  0  0  0  0  0  0  0  0  0  0  0
  151.8913  143.9034  161.1626 C   0  0  0  0  0  0  0  0  0  0  0  0
  152.6705  142.6721  160.6585 C   0  0  0  0  0  0  0  0  0  0  0  0
  154.1699  137.4301  160.1965 C   0  0  0  0  0  0  0  0  0  0  0  0
  154.7469  133.6834  164.4433 H   0  0  0  0  0  0  0  0  0  0  0  0
  153.8490  135.1611  164.8012 H   0  0  0  0  0  0  0  0  0  0  0  0
  155.6210  135.1866  164.7594 H   0  0  0  0  0  0  0  0  0  0  0  0
  154.6847  134.2835  162.2361 H   0  0  0  0  0  0  0  0  0  0  0  0
  155.2615  134.2688  160.6344 H   0  0  0  0  0  0  0  0  0  0  0  0
  155.2467  134.3122  158.2383 H   0  0  0  0  0  0  0  0  0  0  0  0
  154.6086  139.4123  158.0385 H   0  0  0  0  0  0  0  0  0  0  0  0
  153.3780  138.5575  157.1666 H   0  0  0  0  0  0  0  0  0  0  0  0
  153.6225  141.1999  158.6907 H   0  0  0  0  0  0  0  0  0  0  0  0
  151.2596  141.0879  160.4577 H   0  0  0  0  0  0  0  0  0  0  0  0
  150.3266  141.5016  158.3001 H   0  0  0  0  0  0  0  0  0  0  0  0
  150.1763  142.9253  159.2366 H   0  0  0  0  0  0  0  0  0  0  0  0
  152.1891  142.4212  156.9820 H   0  0  0  0  0  0  0  0  0  0  0  0
  150.7469  143.3757  156.8944 H   0  0  0  0  0  0  0  0  0  0  0  0
  153.3481  144.0968  158.2738 H   0  0  0  0  0  0  0  0  0  0  0  0
  152.5104  144.9040  157.0058 H   0  0  0  0  0  0  0  0  0  0  0  0
  151.8192  146.3143  158.6015 H   0  0  0  0  0  0  0  0  0  0  0  0
  150.5674  145.1648  158.9140 H   0  0  0  0  0  0  0  0  0  0  0  0
  153.2558  145.3972  160.3874 H   0  0  0  0  0  0  0  0  0  0  0  0
  151.7420  146.0289  160.9463 H   0  0  0  0  0  0  0  0  0  0  0  0
  152.1982  144.0813  162.1940 H   0  0  0  0  0  0  0  0  0  0  0  0
  150.8212  143.7071  161.2227 H   0  0  0  0  0  0  0  0  0  0  0  0
  153.0217  142.1167  161.5293 H   0  0  0  0  0  0  0  0  0  0  0  0
  153.5856  142.9931  160.1621 H   0  0  0  0  0  0  0  0  0  0  0  0
  153.8588  138.3603  160.6504 H   0  0  0  0  0  0  0  0  0  0  0  0
  1  2  1  0  0  0  0
  1 24  1  0  0  0  0
  1 25  1  0  0  0  0
  1 26  1  0  0  0  0
  2  3  1  0  0  0  0
  2 27  1  0  0  0  0
  3  4  2  0  0  0  0
  3  5  1  0  0  0  0
  5 23  2  0  0  0  0
  5  6  1  0  0  0  0
  6  7  2  0  0  0  0
  6 28  1  0  0  0  0
  7  8  1  0  0  0  0
  7 29  1  0  0  0  0
  8  9  2  0  0  0  0
  8 10  1  0  0  0  0
 10 11  1  0  0  0  0
 10 23  1  0  0  0  0
 11 12  1  0  0  0  0
 11 30  1  0  0  0  0
 11 31  1  0  0  0  0
 12 13  2  0  0  0  0
 12 14  1  0  0  0  0
 14 15  1  0  0  0  0
 14 32  1  0  0  0  0
 15 22  1  0  0  0  0
 15 16  1  0  0  0  0
 15 33  1  0  0  0  0
 16 17  1  0  0  0  0
 16 34  1  0  0  0  0
 16 35  1  0  0  0  0
 17 18  1  0  0  0  0
 17 36  1  0  0  0  0
 17 37  1  0  0  0  0
 18 19  1  0  0  0  0
 18 38  1  0  0  0  0
 18 39  1  0  0  0  0
 19 20  1  0  0  0  0
 19 40  1  0  0  0  0
 19 41  1  0  0  0  0
 20 21  1  0  0  0  0
 20 42  1  0  0  0  0
 20 43  1  0  0  0  0
 21 22  1  0  0  0  0
 21 44  1  0  0  0  0
 21 45  1  0  0  0  0
 22 46  1  0  0  0  0
 22 47  1  0  0  0  0
 23 48  1  0  0  0  0
M  END
> <s_m_source_file>
AV-unprocessed.smi

> <i_m_source_file_index>
1858

> <i_lp_mmshare_version>
43012

> <i_f3d_flags>
0

> <s_epik_input>
W0NIM11bTkhdQyg9TyljMVtjSF1bY0hdYyg9TyluKFtjSF0xKVtDSDJdQyg9TylbTkhdW0NIXTJbQ0gyXVtDSDJdW0NIMl1bQ0gyXVtDSDJdW0NIMl1bQ0gyXTI=

> <s_epik_cmdline>
J2VwaWtfcHl0aG9uJywgJy1waCcsICc3LjAnLCAnLXRuJywgJzgnLCAnLW1hJywgJzIwMCcsICctbWV0YWxfYmluZGluZycsICctaW1hZScsICc8aW5maWxlLm1hZT4nLCAnLW9tYWUnLCAnPG91dGZpbGUubWFlPic=

> <r_lp_tautomer_probability>
1

> <r_epik_Ionization_Penalty>
3.70383e-07

> <r_epik_Ionization_Penalty_Charging>
5.00098e-08

> <r_epik_Ionization_Penalty_Neutral>
3.20374e-07

> <r_epik_State_Penalty>
-0

> <r_epik_Charging_Adjusted_Penalty>
5.00098e-08

> <i_epik_Tot_Q>
0

> <i_epik_Tot_abs_Q>
0

> <r_epik_Metal_State_Penalty>
-0

> <b_epik_Metal_Only>
0

> <s_lp_Force_Field>
OPLS_2005

> <r_lp_Energy>
33.6896

> <b_lp_Chiralities_Consistent>
1

> <s_lp_Variant>
AV-unprocessed.smi:1858-1

> <Gold.Version>
5.8.1

> <Gold.Id.Protein>
6NUR|6NUR_protein|mol2

> <Gold.PLP.Fitness>
39.2669

> <Gold.PLP.PLP>
-38.3166

> <Gold.PLP.part.hbond>
-1.0000

> <Gold.PLP.part.metal>
0.0000

> <Gold.PLP.part.buried>
-3.1387

> <Gold.PLP.part.nonpolar>
-32.7641

> <Gold.PLP.part.repulsive>
0.1511

> <Gold.PLP.ligand.clash>
0.0087

> <Gold.PLP.ligand.torsion>
1.0518

> <Gold.PLP.Chemscore.Hbond>
1.0000

> <Gold.PLP.Chemscore.CHOScore>
0.0000

> <Gold.PLP.Chemscore.Metal>
0.0000

> <Gold.Chemscore.Hbonds>
donor molecule, donor type, donor heavy atom, donor atom, acceptor molecule, acceptor atom, score
      P1  H 10752 10764       L1     9  0.99

> <Gold.PLP.Chemscore.Internal.Correction>
0.0626

> <Gold.Rescore>
     Score         DG    S(hbond)    S(metal)    S(lipo)     H(rot)  DE(clash)    DE(int)     intcor
     16.69     -17.61       0.98        0.00     108.23       1.48       0.21       0.71       ----

> <Gold.Chemscore.Fitness>
16.6879

> <Gold.Chemscore.DG>
-17.6139

> <Gold.Chemscore.ZeroCoef>
-5.4800

> <Gold.Chemscore.Hbond>
0.9769

> <Gold.Chemscore.Metal>
0.0000

> <Gold.Chemscore.Lipo>
108.2296

> <Gold.Chemscore.Internal_Hbond>
0.0000

> <Gold.Chemscore.DEClash>
0.2137

> <Gold.Chemscore.DEInternal>
0.7123

> <Gold.Chemscore.Rot>
1.4812

> <Gold.Chemscore.Internal.Correction>
   9.000000E+99

> <Gold.Chemscore.Hbonds>
donor molecule, donor type, donor heavy atom, donor atom, acceptor molecule, acceptor atom, score
      P1  H 10752 10764       L1     9  0.94

> <Gold.Chemscore.Hbond.Weighted>
-3.2630

> <Gold.Chemscore.Metal.Weighted>
-0.0000

> <Gold.Chemscore.Lipo.Weighted>
-12.6629

> <Gold.Chemscore.Internal_Hbond.Weighted>
0.0000

> <Gold.Chemscore.DEClash.Weighted>
0.2137

> <Gold.Chemscore.DEInternal.Weighted>
0.7123

> <Gold.Chemscore.Rot.Weighted>
3.7920

> <Gold.Chemscore.Internal.Correction.Weighted>
   9.000000E+99

> <Gold.Protein.RotatedTorsions>
[ 6907 6896 6895 6894 ] final -133.93 input  -60.11 | X-H torsion
[ 7974 7965 7964 7962 ] final  -28.24 input  175.53 | X-H torsion
[ 8008 7997 7996 7995 ] final -147.46 input   59.86 | X-H torsion
[ 10167 10162 10161 10158 ] final -139.84 input  -65.29 | X-H torsion
[ 10718 10713 10712 10709 ] final   92.60 input   66.30 | X-H torsion
[ 10763 10752 10751 10750 ] final   38.18 input  -60.55 | X-H torsion
[ 11005 11000 10999 10996 ] final   80.90 input  -57.11 | X-H torsion

> <Gold.Protein.ActiveResidues>
 VAL166  LYS551  ARG553  GLY616  TRP617  ASP618  TYR619  PRO620  LYS621  CYS622 
 ASP623  PHE694  ASN695  SER759  ASP760  ASP761  ALA762  ILE779  LEU786  VAL792 
 PHE793  MET794  SER795  GLU796  ALA797  LYS798  CYS799  TRP800  GLU811  SER814 

> <Gold.Protein.RotatedAtoms>
  150.9798  133.6257  159.2724 H   0  0  0  0  0  0  0  0  0  0  0  0  # atno 6907 bound_to 6896
  151.3516  135.0884  159.9414 H   0  0  0  0  0  0  0  0  0  0  0  0  # atno 6908 bound_to 6896
  152.5211  133.9389  159.7671 H   0  0  0  0  0  0  0  0  0  0  0  0  # atno 6909 bound_to 6896
  146.1302  140.5256  142.8697 H   0  0  0  0  0  0  0  0  0  0  0  0  # atno 7974 bound_to 7965
  155.5759  140.0638  157.2795 H   0  0  0  0  0  0  0  0  0  0  0  0  # atno 8008 bound_to 7997
  154.4347  140.1861  156.0973 H   0  0  0  0  0  0  0  0  0  0  0  0  # atno 8009 bound_to 7997
  156.0342  140.3303  155.7176 H   0  0  0  0  0  0  0  0  0  0  0  0  # atno 8010 bound_to 7997
  139.8340  143.7410  152.2665 H   0  0  0  0  0  0  0  0  0  0  0  0  # atno 10167 bound_to 10162
  157.6958  131.0449  150.3906 H   0  0  0  0  0  0  0  0  0  0  0  0  # atno 10718 bound_to 10713
  153.0010  135.6257  154.2263 H   0  0  0  0  0  0  0  0  0  0  0  0  # atno 10763 bound_to 10752
  154.2005  135.2804  155.2994 H   0  0  0  0  0  0  0  0  0  0  0  0  # atno 10764 bound_to 10752
  154.5687  135.5683  153.7134 H   0  0  0  0  0  0  0  0  0  0  0  0  # atno 10765 bound_to 10752
  139.9117  134.7955  156.1970 H   0  0  0  0  0  0  0  0  0  0  0  0  # atno 11005 bound_to 11000
  144.7683  140.5580  143.6688 LP  0  0  0  0  0  0  0  0  0  0  0  0  # atno 17320 bound_to 7965
  145.5277  139.1475  143.3517 LP  0  0  0  0  0  0  0  0  0  0  0  0  # atno 17321 bound_to 7965
  139.7626  144.7502  151.0342 LP  0  0  0  0  0  0  0  0  0  0  0  0  # atno 17342 bound_to 10162
  140.7804  143.4734  151.0115 LP  0  0  0  0  0  0  0  0  0  0  0  0  # atno 17343 bound_to 10162
  156.4310  130.3972  149.6760 LP  0  0  0  0  0  0  0  0  0  0  0  0  # atno 17370 bound_to 10713
  156.3977  130.7659  151.2665 LP  0  0  0  0  0  0  0  0  0  0  0  0  # atno 17371 bound_to 10713
  141.0548  133.6870  156.1840 LP  0  0  0  0  0  0  0  0  0  0  0  0  # atno 17394 bound_to 11000
  140.6753  134.4824  157.5588 LP  0  0  0  0  0  0  0  0  0  0  0  0  # atno 17395 bound_to 11000

$$$$
