AV-unprocessed.smi:16|AV-procd|sdf|95|dock10
  -GOLD-   2262015243D 1   1.00000     0.00000
 Structure written by MMmdl.
 59 63  0  0  0  0  0  0  0  0  1 V2000
  153.6118  138.4060  154.6951 C   0  0  0  0  0  0  0  0  0  0  0  0
  152.1872  138.1552  154.1761 C   0  0  0  0  0  0  0  0  0  0  0  0
  151.1752  138.8286  154.9892 N   0  0  0  0  0  0  0  0  0  0  0  0
  151.5838  140.2209  155.1902 C   0  0  0  0  0  0  0  0  0  0  0  0
  150.6012  140.9407  156.1294 C   0  0  0  0  0  0  0  0  0  0  0  0
  149.1686  140.8999  155.5834 C   0  0  1  0  0  0  0  0  0  0  0  0
  149.0732  141.7315  154.4289 O   0  0  0  0  0  0  0  0  0  0  0  0
  147.7467  141.7818  153.9153 C   0  0  0  0  0  0  0  0  0  0  0  0
  147.3016  140.3745  153.4873 C   0  0  0  0  0  0  0  0  0  0  0  0
  147.4617  139.4343  154.5966 N   0  0  0  0  0  0  0  0  0  0  0  0
  146.8564  138.2208  154.4975 C   0  0  0  0  0  0  0  0  0  0  0  0
  146.6776  137.4662  155.6155 N   0  0  0  0  0  0  0  0  0  0  0  0
  146.0799  136.2741  155.5411 C   0  0  0  0  0  0  0  0  0  0  0  0
  145.5921  135.6519  154.4672 N   0  0  0  0  0  0  0  0  0  0  0  0
  145.7692  136.3985  153.3400 C   0  0  0  0  0  0  0  0  0  0  0  0
  146.3899  137.6786  153.2648 C   0  0  0  0  0  0  0  0  0  0  0  0
  146.4170  138.1084  151.9428 N   0  0  0  0  0  0  0  0  0  0  0  0
  145.8409  137.1442  151.2786 C   0  0  0  0  0  0  0  0  0  0  0  0
  145.3987  136.0888  152.0428 N   0  0  0  0  0  0  0  0  0  0  0  0
  144.7863  134.8825  151.5681 C   0  0  0  0  0  0  0  0  0  0  0  0
  145.4187  133.5104  151.8250 C   0  0  0  0  0  0  0  0  0  0  0  0
  144.8475  133.0121  150.4768 C   0  0  0  0  0  0  0  0  0  0  0  0
  145.7497  132.0807  149.6440 C   0  0  0  0  0  0  0  0  0  0  0  0
  147.1190  132.4171  149.7422 O   0  0  0  0  0  0  0  0  0  0  0  0
  143.4716  132.3278  150.5901 C   0  0  0  0  0  0  0  0  0  0  0  0
  142.8948  132.1049  149.3193 O   0  0  0  0  0  0  0  0  0  0  0  0
  144.8152  134.5073  150.0833 C   0  0  0  0  0  0  0  0  0  0  0  0
  148.7868  139.4499  155.2215 C   0  0  1  0  0  0  0  0  0  0  0  0
  149.8679  138.8001  154.3257 C   0  0  0  0  0  0  0  0  0  0  0  0
  148.4913  141.2845  156.3481 H   0  0  0  0  0  0  0  0  0  0  0  0
  148.7525  138.8898  156.1543 H   0  0  0  0  0  0  0  0  0  0  0  0
  154.3456  138.0053  153.9958 H   0  0  0  0  0  0  0  0  0  0  0  0
  153.7936  137.9276  155.6568 H   0  0  0  0  0  0  0  0  0  0  0  0
  153.8108  139.4726  154.8037 H   0  0  0  0  0  0  0  0  0  0  0  0
  152.1355  138.5428  153.1577 H   0  0  0  0  0  0  0  0  0  0  0  0
  151.9797  137.0859  154.1135 H   0  0  0  0  0  0  0  0  0  0  0  0
  152.5802  140.2511  155.6328 H   0  0  0  0  0  0  0  0  0  0  0  0
  151.6446  140.7393  154.2318 H   0  0  0  0  0  0  0  0  0  0  0  0
  150.6282  140.4647  157.1105 H   0  0  0  0  0  0  0  0  0  0  0  0
  150.9143  141.9739  156.2807 H   0  0  0  0  0  0  0  0  0  0  0  0
  147.0694  142.1902  154.6671 H   0  0  0  0  0  0  0  0  0  0  0  0
  147.7204  142.4592  153.0619 H   0  0  0  0  0  0  0  0  0  0  0  0
  146.2584  140.4081  153.1703 H   0  0  0  0  0  0  0  0  0  0  0  0
  147.8876  140.0397  152.6306 H   0  0  0  0  0  0  0  0  0  0  0  0
  145.9777  135.7432  156.4759 H   0  0  0  0  0  0  0  0  0  0  0  0
  145.7235  137.1785  150.2052 H   0  0  0  0  0  0  0  0  0  0  0  0
  143.7593  134.9075  151.9363 H   0  0  0  0  0  0  0  0  0  0  0  0
  146.5086  133.5566  151.8520 H   0  0  0  0  0  0  0  0  0  0  0  0
  145.0320  132.9951  152.7047 H   0  0  0  0  0  0  0  0  0  0  0  0
  145.6367  131.0439  149.9629 H   0  0  0  0  0  0  0  0  0  0  0  0
  145.4808  132.1161  148.5880 H   0  0  0  0  0  0  0  0  0  0  0  0
  147.6174  131.6203  149.8396 H   0  0  0  0  0  0  0  0  0  0  0  0
  143.5503  131.3729  151.1109 H   0  0  0  0  0  0  0  0  0  0  0  0
  142.7734  132.9321  151.1695 H   0  0  0  0  0  0  0  0  0  0  0  0
  142.4012  132.8727  149.0744 H   0  0  0  0  0  0  0  0  0  0  0  0
  143.9319  134.8204  149.5258 H   0  0  0  0  0  0  0  0  0  0  0  0
  145.7258  134.8491  149.5885 H   0  0  0  0  0  0  0  0  0  0  0  0
  149.9328  139.3080  153.3624 H   0  0  0  0  0  0  0  0  0  0  0  0
  149.5776  137.7704  154.1219 H   0  0  0  0  0  0  0  0  0  0  0  0
  1  2  1  0  0  0  0
  1 32  1  0  0  0  0
  1 33  1  0  0  0  0
  1 34  1  0  0  0  0
  2  3  1  0  0  0  0
  2 35  1  0  0  0  0
  2 36  1  0  0  0  0
  3 29  1  0  0  0  0
  3  4  1  0  0  0  0
  4  5  1  0  0  0  0
  4 37  1  0  0  0  0
  4 38  1  0  0  0  0
  5  6  1  0  0  0  0
  5 39  1  0  0  0  0
  5 40  1  0  0  0  0
  6 30  1  0  0  0  0
  6 28  1  0  0  0  0
  6  7  1  0  0  0  0
  7  8  1  0  0  0  0
  8  9  1  0  0  0  0
  8 41  1  0  0  0  0
  8 42  1  0  0  0  0
  9 10  1  0  0  0  0
  9 43  1  0  0  0  0
  9 44  1  0  0  0  0
 10 11  1  0  0  0  0
 10 28  1  0  0  0  0
 11 16  1  0  0  0  0
 11 12  2  0  0  0  0
 12 13  1  0  0  0  0
 13 14  2  0  0  0  0
 13 45  1  0  0  0  0
 14 15  1  0  0  0  0
 15 19  1  0  0  0  0
 15 16  2  0  0  0  0
 16 17  1  0  0  0  0
 17 18  2  0  0  0  0
 18 19  1  0  0  0  0
 18 46  1  0  0  0  0
 19 20  1  0  0  0  0
 20 27  1  0  0  0  0
 20 21  1  0  0  0  0
 20 47  1  0  0  0  0
 21 22  1  0  0  0  0
 21 48  1  0  0  0  0
 21 49  1  0  0  0  0
 22 23  1  0  0  0  0
 22 25  1  0  0  0  0
 22 27  1  0  0  0  0
 23 24  1  0  0  0  0
 23 50  1  0  0  0  0
 23 51  1  0  0  0  0
 24 52  1  0  0  0  0
 25 26  1  0  0  0  0
 25 53  1  0  0  0  0
 25 54  1  0  0  0  0
 26 55  1  0  0  0  0
 27 56  1  0  0  0  0
 27 57  1  0  0  0  0
 28 31  1  0  0  0  0
 28 29  1  0  0  0  0
 29 58  1  0  0  0  0
 29 59  1  0  0  0  0
M  END
> <s_m_source_file>
AV-unprocessed.smi

> <i_m_source_file_index>
16

> <i_lp_mmshare_version>
43012

> <i_f3d_flags>
0

> <s_epik_input>
W0NIM11bQ0gyXU4oW0NIMl1bQ0gyXTEpW0NIMl1bQ0BASF0oW0NAQEhdMTIpTihbQ0gyXVtDSDJdTzIpYyhuW2NIXW4zKWMoYzM0KW5bY0hdbjRbQ0hdKFtDSDJdNSlbQ0gyXUM1KFtDSDJdW09IXSlbQ0gyXVtPSF0=

> <s_epik_cmdline>
J2VwaWtfcHl0aG9uJywgJy1waCcsICc3LjAnLCAnLXRuJywgJzgnLCAnLW1hJywgJzIwMCcsICctbWV0YWxfYmluZGluZycsICctaW1hZScsICc8aW5maWxlLm1hZT4nLCAnLW9tYWUnLCAnPG91dGZpbGUubWFlPic=

> <r_lp_tautomer_probability>
1

> <r_epik_Ionization_Penalty>
2.27341

> <r_epik_Ionization_Penalty_Charging>
0

> <r_epik_Ionization_Penalty_Neutral>
2.27341

> <r_epik_State_Penalty>
2.41121

> <r_epik_Charging_Adjusted_Penalty>
2.41121

> <i_epik_Tot_Q>
0

> <i_epik_Tot_abs_Q>
0

> <r_epik_Metal_State_Penalty>
2.40177

> <b_epik_Metal_Only>
0

> <s_lp_Force_Field>
OPLS_2005

> <r_lp_Energy>
57.2914

> <b_lp_Chiralities_Consistent>
1

> <s_lp_Variant>
AV-unprocessed.smi:16-9

> <Gold.Version>
5.8.1

> <Gold.Id.Protein>
6NUR|6NUR_protein|mol2

> <Gold.PLP.Fitness>
53.1710

> <Gold.PLP.PLP>
-44.0709

> <Gold.PLP.part.hbond>
-5.6936

> <Gold.PLP.part.metal>
0.0000

> <Gold.PLP.part.buried>
0.8105

> <Gold.PLP.part.nonpolar>
-40.7149

> <Gold.PLP.part.repulsive>
0.7565

> <Gold.PLP.ligand.clash>
0.0000

> <Gold.PLP.ligand.torsion>
0.7917

> <Gold.PLP.Chemscore.Hbond>
2.7245

> <Gold.PLP.Chemscore.CHOScore>
0.5279

> <Gold.PLP.Chemscore.Metal>
0.0000

> <Gold.Chemscore.Hbonds>
donor molecule, donor type, donor heavy atom, donor atom, acceptor molecule, acceptor atom, score
      L1  H    24    52       P1 10747  1.00
      L1  H    26    55       P1 10186  0.76
      P1  H  8011  8017       L1     7  0.05
      P1  H 10785 10796       L1    26  0.91
      L1  C    18    46       P1 10171  0.53

> <Gold.PLP.Chemscore.Internal.Correction>
0.9261

> <Gold.Rescore>
     Score         DG    S(hbond)    S(metal)    S(lipo)     H(rot)  DE(clash)    DE(int)     intcor
     14.36     -17.88       2.48        0.00     107.02       3.28       1.39       2.13       ----

> <Gold.Chemscore.Fitness>
14.3624

> <Gold.Chemscore.DG>
-17.8819

> <Gold.Chemscore.ZeroCoef>
-5.4800

> <Gold.Chemscore.Hbond>
2.4764

> <Gold.Chemscore.Metal>
0.0000

> <Gold.Chemscore.Lipo>
107.0194

> <Gold.Chemscore.Internal_Hbond>
0.0000

> <Gold.Chemscore.DEClash>
1.3894

> <Gold.Chemscore.DEInternal>
2.1301

> <Gold.Chemscore.Rot>
3.2776

> <Gold.Chemscore.Internal.Correction>
   9.000000E+99

> <Gold.Chemscore.Hbonds>
donor molecule, donor type, donor heavy atom, donor atom, acceptor molecule, acceptor atom, score
      L1  H    24    52       P1 10747  0.94
      L1  H    26    55       P1 10186  0.71
      P1  H 10785 10796       L1    26  0.65

> <Gold.Chemscore.Hbond.Weighted>
-8.2713

> <Gold.Chemscore.Metal.Weighted>
-0.0000

> <Gold.Chemscore.Lipo.Weighted>
-12.5213

> <Gold.Chemscore.Internal_Hbond.Weighted>
0.0000

> <Gold.Chemscore.DEClash.Weighted>
1.3894

> <Gold.Chemscore.DEInternal.Weighted>
2.1301

> <Gold.Chemscore.Rot.Weighted>
8.3907

> <Gold.Chemscore.Internal.Correction.Weighted>
   9.000000E+99

> <Gold.Protein.RotatedTorsions>
[ 6907 6896 6895 6894 ] final -114.87 input  -60.11 | X-H torsion
[ 7974 7965 7964 7962 ] final  176.43 input  175.53 | X-H torsion
[ 8008 7997 7996 7995 ] final  133.15 input   59.86 | X-H torsion
[ 10167 10162 10161 10158 ] final -176.16 input  -65.29 | X-H torsion
[ 10718 10713 10712 10709 ] final  -60.56 input   66.30 | X-H torsion
[ 10763 10752 10751 10750 ] final  148.23 input  -60.55 | X-H torsion
[ 11005 11000 10999 10996 ] final -160.17 input  -57.11 | X-H torsion

> <Gold.Protein.ActiveResidues>
 VAL166  LYS551  ARG553  GLY616  TRP617  ASP618  TYR619  PRO620  LYS621  CYS622 
 ASP623  PHE694  ASN695  SER759  ASP760  ASP761  ALA762  ILE779  LEU786  VAL792 
 PHE793  MET794  SER795  GLU796  ALA797  LYS798  CYS799  TRP800  GLU811  SER814 

> <Gold.Protein.RotatedAtoms>
  150.7935  133.8739  159.3266 H   0  0  0  0  0  0  0  0  0  0  0  0  # atno 6907 bound_to 6896
  151.6571  135.0992  160.0181 H   0  0  0  0  0  0  0  0  0  0  0  0  # atno 6908 bound_to 6896
  152.4013  133.6782  159.6353 H   0  0  0  0  0  0  0  0  0  0  0  0  # atno 6909 bound_to 6896
  144.7184  140.0095  143.6440 H   0  0  0  0  0  0  0  0  0  0  0  0  # atno 7974 bound_to 7965
  156.2989  140.2528  156.3206 H   0  0  0  0  0  0  0  0  0  0  0  0  # atno 8008 bound_to 7997
  154.9239  140.0400  157.2031 H   0  0  0  0  0  0  0  0  0  0  0  0  # atno 8009 bound_to 7997
  154.8284  140.2871  155.5743 H   0  0  0  0  0  0  0  0  0  0  0  0  # atno 8010 bound_to 7997
  139.5544  144.2027  152.1133 H   0  0  0  0  0  0  0  0  0  0  0  0  # atno 10167 bound_to 10162
  156.0982  130.4190  150.0871 H   0  0  0  0  0  0  0  0  0  0  0  0  # atno 10718 bound_to 10713
  154.0513  135.2881  155.3340 H   0  0  0  0  0  0  0  0  0  0  0  0  # atno 10763 bound_to 10752
  154.6867  135.5242  153.8339 H   0  0  0  0  0  0  0  0  0  0  0  0  # atno 10764 bound_to 10752
  153.0559  135.6595  154.0709 H   0  0  0  0  0  0  0  0  0  0  0  0  # atno 10765 bound_to 10752
  140.6344  134.4617  157.5231 H   0  0  0  0  0  0  0  0  0  0  0  0  # atno 11005 bound_to 11000
  146.0270  139.3301  143.0778 LP  0  0  0  0  0  0  0  0  0  0  0  0  # atno 17320 bound_to 7965
  145.8499  140.9534  143.0755 LP  0  0  0  0  0  0  0  0  0  0  0  0  # atno 17321 bound_to 7965
  140.1528  144.5098  150.6677 LP  0  0  0  0  0  0  0  0  0  0  0  0  # atno 17342 bound_to 10162
  140.6814  143.2328  151.5375 LP  0  0  0  0  0  0  0  0  0  0  0  0  # atno 17343 bound_to 10162
  156.8865  130.9574  151.3593 LP  0  0  0  0  0  0  0  0  0  0  0  0  # atno 17370 bound_to 10713
  157.6147  130.8609  149.9009 LP  0  0  0  0  0  0  0  0  0  0  0  0  # atno 17371 bound_to 10713
  139.9103  134.8358  156.1551 LP  0  0  0  0  0  0  0  0  0  0  0  0  # atno 17394 bound_to 11000
  141.0652  133.6823  156.2030 LP  0  0  0  0  0  0  0  0  0  0  0  0  # atno 17395 bound_to 11000

$$$$
