AV-unprocessed.smi:1224|AV-procd|sdf|5135|dock5
  -GOLD-   22720 4193D 1   1.00000     0.00000
 Structure written by MMmdl.
 44 46  0  0  0  0  0  0  0  0  2 V2000
  152.8782  143.6587  160.2612 C   0  0  0  0  0  0  0  0  0  0  0  0
  152.4039  142.7459  159.1432 C   0  0  0  0  0  0  0  0  0  0  0  0
  151.4847  143.2573  158.1992 C   0  0  0  0  0  0  0  0  0  0  0  0
  151.0714  142.3992  157.1870 C   0  0  0  0  0  0  0  0  0  0  0  0
  150.1907  142.5963  156.1209 N   0  3  0  0  0  0  0  0  0  0  0  0
  150.1040  141.4532  155.3855 C   0  0  0  0  0  0  0  0  0  0  0  0
  150.9121  140.5281  155.9708 N   0  0  0  0  0  0  0  0  0  0  0  0
  151.1884  139.1365  155.5906 C   0  0  0  0  0  0  0  0  0  0  0  0
  150.4901  138.7231  154.2777 C   0  0  1  0  0  0  0  0  0  0  0  0
  150.8093  137.3763  153.9930 O   0  0  0  0  0  0  0  0  0  0  0  0
  148.9606  138.8431  154.3591 C   0  0  0  0  0  0  0  0  0  0  0  0
  148.3412  138.6619  153.0472 N   0  0  0  0  0  0  0  0  0  0  0  0
  146.9293  139.0324  152.9995 C   0  0  0  0  0  0  0  0  0  0  0  0
  146.6298  140.2741  153.7749 C   0  0  0  0  0  0  0  0  0  0  0  0
  146.9707  141.5651  153.4596 C   0  0  0  0  0  0  0  0  0  0  0  0
  146.5309  142.5137  154.4287 C   0  0  0  0  0  0  0  0  0  0  0  0
  145.8594  141.9338  155.4721 C   0  0  0  0  0  0  0  0  0  0  0  0
  145.7542  140.2051  155.2835 S   0  0  0  0  0  0  0  0  0  0  0  0
  151.5397  141.0746  157.0944 C   0  0  0  0  0  0  0  0  0  0  0  0
  152.4455  140.5542  158.0150 C   0  0  0  0  0  0  0  0  0  0  0  0
  152.8777  141.4110  159.0525 C   0  0  0  0  0  0  0  0  0  0  0  0
  153.8659  140.8719  160.0729 C   0  0  0  0  0  0  0  0  0  0  0  0
  152.4297  144.6497  160.1847 H   0  0  0  0  0  0  0  0  0  0  0  0
  153.9609  143.7794  160.2237 H   0  0  0  0  0  0  0  0  0  0  0  0
  152.6088  143.2455  161.2335 H   0  0  0  0  0  0  0  0  0  0  0  0
  151.1200  144.2722  158.2616 H   0  0  0  0  0  0  0  0  0  0  0  0
  149.5009  141.3059  154.5011 H   0  0  0  0  0  0  0  0  0  0  0  0
  152.2701  139.0317  155.4933 H   0  0  0  0  0  0  0  0  0  0  0  0
  150.8897  138.4913  156.4178 H   0  0  0  0  0  0  0  0  0  0  0  0
  150.8573  139.3288  153.4481 H   0  0  0  0  0  0  0  0  0  0  0  0
  150.1538  137.0312  153.4066 H   0  0  0  0  0  0  0  0  0  0  0  0
  148.5765  138.0857  155.0438 H   0  0  0  0  0  0  0  0  0  0  0  0
  148.6876  139.8105  154.7827 H   0  0  0  0  0  0  0  0  0  0  0  0
  148.4534  137.7015  152.7393 H   0  0  0  0  0  0  0  0  0  0  0  0
  146.6424  139.2003  151.9612 H   0  0  0  0  0  0  0  0  0  0  0  0
  146.3095  138.2061  153.3498 H   0  0  0  0  0  0  0  0  0  0  0  0
  147.5174  141.8576  152.5754 H   0  0  0  0  0  0  0  0  0  0  0  0
  146.7197  143.5722  154.3281 H   0  0  0  0  0  0  0  0  0  0  0  0
  145.4223  142.4132  156.3354 H   0  0  0  0  0  0  0  0  0  0  0  0
  152.8053  139.5382  157.9429 H   0  0  0  0  0  0  0  0  0  0  0  0
  154.1041  139.8248  159.8830 H   0  0  0  0  0  0  0  0  0  0  0  0
  153.4545  140.9413  161.0801 H   0  0  0  0  0  0  0  0  0  0  0  0
  154.7972  141.4376  160.0388 H   0  0  0  0  0  0  0  0  0  0  0  0
  149.6869  143.4477  155.9073 H   0  0  0  0  0  0  0  0  0  0  0  0
  1  2  1  0  0  0  0
  1 23  1  0  0  0  0
  1 24  1  0  0  0  0
  1 25  1  0  0  0  0
  2 21  1  0  0  0  0
  2  3  2  0  0  0  0
  3  4  1  0  0  0  0
  3 26  1  0  0  0  0
  4 19  2  0  0  0  0
  4  5  1  0  0  0  0
  5  6  2  0  0  0  0
  5 44  1  0  0  0  0
  6  7  1  0  0  0  0
  6 27  1  0  0  0  0
  7  8  1  0  0  0  0
  7 19  1  0  0  0  0
  8  9  1  0  0  0  0
  8 28  1  0  0  0  0
  8 29  1  0  0  0  0
  9 10  1  0  0  0  0
  9 11  1  0  0  0  0
  9 30  1  0  0  0  0
 10 31  1  0  0  0  0
 11 12  1  0  0  0  0
 11 32  1  0  0  0  0
 11 33  1  0  0  0  0
 12 13  1  0  0  0  0
 12 34  1  0  0  0  0
 13 14  1  0  0  0  0
 13 35  1  0  0  0  0
 13 36  1  0  0  0  0
 14 18  1  0  0  0  0
 14 15  2  0  0  0  0
 15 16  1  0  0  0  0
 15 37  1  0  0  0  0
 16 17  2  0  0  0  0
 16 38  1  0  0  0  0
 17 18  1  0  0  0  0
 17 39  1  0  0  0  0
 19 20  1  0  0  0  0
 20 21  2  0  0  0  0
 20 40  1  0  0  0  0
 21 22  1  0  0  0  0
 22 41  1  0  0  0  0
 22 42  1  0  0  0  0
 22 43  1  0  0  0  0
M  CHG  1   5   1
M  END
> <s_m_source_file>
AV-unprocessed.smi

> <i_m_source_file_index>
1224

> <i_lp_mmshare_version>
43012

> <i_f3d_flags>
0

> <s_epik_input>
W0NIM11jKFtjSF0xKWMoW0NIM10pW2NIXWMoYzEyKW4oW2NIXW4yKVtDSDJdW0NASF0oW09IXSlbQ0gyXVtOSF1bQ0gyXWMzW2NIXVtjSF1bY0hdczM=

> <s_epik_cmdline>
J2VwaWtfcHl0aG9uJywgJy1waCcsICc3LjAnLCAnLXRuJywgJzgnLCAnLW1hJywgJzIwMCcsICctbWV0YWxfYmluZGluZycsICctaW1hZScsICc8aW5maWxlLm1hZT4nLCAnLW9tYWUnLCAnPG91dGZpbGUubWFlPic=

> <r_epik_Ionization_Penalty>
2.3772

> <r_epik_Ionization_Penalty_Charging>
0.996291

> <r_epik_Ionization_Penalty_Neutral>
1.38091

> <r_epik_State_Penalty>
2.60954

> <r_epik_Charging_Adjusted_Penalty>
3.60583

> <i_epik_Tot_Q>
1

> <i_epik_Tot_abs_Q>
1

> <r_epik_Metal_State_Penalty>
6.5861

> <b_epik_Metal_Only>
0

> <s_lp_Force_Field>
OPLS_2005

> <r_lp_Energy>
14.7648

> <b_lp_Chiralities_Consistent>
1

> <s_lp_Variant>
AV-unprocessed.smi:1224-8

> <Gold.Version>
5.8.1

> <Gold.Id.Protein>
6NUR|6NUR_protein|mol2

> <Gold.PLP.Fitness>
60.2978

> <Gold.PLP.PLP>
-49.1971

> <Gold.PLP.part.hbond>
-5.0000

> <Gold.PLP.part.metal>
0.0000

> <Gold.PLP.part.buried>
-7.2292

> <Gold.PLP.part.nonpolar>
-39.2808

> <Gold.PLP.part.repulsive>
0.1206

> <Gold.PLP.ligand.clash>
0.0000

> <Gold.PLP.ligand.torsion>
0.3072

> <Gold.PLP.Chemscore.Hbond>
3.8799

> <Gold.PLP.Chemscore.CHOScore>
0.0000

> <Gold.PLP.Chemscore.Metal>
0.0000

> <Gold.Chemscore.Hbonds>
donor molecule, donor type, donor heavy atom, donor atom, acceptor molecule, acceptor atom, score
      L1  H     5    44       P1  8028  1.95
      L1  H    10    31       P1  7948  0.73
      L1  H    12    34       P1  7948  1.00

> <Gold.PLP.Chemscore.Internal.Correction>
0.0752

> <Gold.Rescore>
     Score         DG    S(hbond)    S(metal)    S(lipo)     H(rot)  DE(clash)    DE(int)     intcor
     20.19     -20.53       2.01        0.00     123.70       2.40       0.03       0.31       ----

> <Gold.Chemscore.Fitness>
20.1896

> <Gold.Chemscore.DG>
-20.5276

> <Gold.Chemscore.ZeroCoef>
-5.4800

> <Gold.Chemscore.Hbond>
2.0109

> <Gold.Chemscore.Metal>
0.0000

> <Gold.Chemscore.Lipo>
123.6988

> <Gold.Chemscore.Internal_Hbond>
0.0000

> <Gold.Chemscore.DEClash>
0.0291

> <Gold.Chemscore.DEInternal>
0.3089

> <Gold.Chemscore.Rot>
2.3990

> <Gold.Chemscore.Internal.Correction>
   9.000000E+99

> <Gold.Chemscore.Hbonds>
donor molecule, donor type, donor heavy atom, donor atom, acceptor molecule, acceptor atom, score
      L1  H     5    44       P1  8028  0.92
      L1  H    10    31       P1  7948  0.10
      L1  H    12    34       P1  7948  1.00

> <Gold.Chemscore.Hbond.Weighted>
-6.7163

> <Gold.Chemscore.Metal.Weighted>
-0.0000

> <Gold.Chemscore.Lipo.Weighted>
-14.4728

> <Gold.Chemscore.Internal_Hbond.Weighted>
0.0000

> <Gold.Chemscore.DEClash.Weighted>
0.0291

> <Gold.Chemscore.DEInternal.Weighted>
0.3089

> <Gold.Chemscore.Rot.Weighted>
6.1415

> <Gold.Chemscore.Internal.Correction.Weighted>
   9.000000E+99

> <Gold.Protein.RotatedTorsions>
[ 6907 6896 6895 6894 ] final  -12.75 input  -60.11 | X-H torsion
[ 7974 7965 7964 7962 ] final   20.93 input  175.53 | X-H torsion
[ 8008 7997 7996 7995 ] final -160.58 input   59.86 | X-H torsion
[ 10167 10162 10161 10158 ] final  -19.25 input  -65.29 | X-H torsion
[ 10718 10713 10712 10709 ] final   25.05 input   66.30 | X-H torsion
[ 10763 10752 10751 10750 ] final  -27.55 input  -60.55 | X-H torsion
[ 11005 11000 10999 10996 ] final  -83.93 input  -57.11 | X-H torsion

> <Gold.Protein.ActiveResidues>
 VAL166  LYS551  ARG553  GLY616  TRP617  ASP618  TYR619  PRO620  LYS621  CYS622 
 ASP623  PHE694  ASN695  SER759  ASP760  ASP761  ALA762  ILE779  LEU786  VAL792 
 PHE793  MET794  SER795  GLU796  ALA797  LYS798  CYS799  TRP800  GLU811  SER814 

> <Gold.Protein.RotatedAtoms>
  151.3657  135.0913  159.9448 H   0  0  0  0  0  0  0  0  0  0  0  0  # atno 6907 bound_to 6896
  152.5149  133.9214  159.7547 H   0  0  0  0  0  0  0  0  0  0  0  0  # atno 6908 bound_to 6896
  150.9618  133.6383  159.2782 H   0  0  0  0  0  0  0  0  0  0  0  0  # atno 6909 bound_to 6896
  146.2092  139.8099  142.8702 H   0  0  0  0  0  0  0  0  0  0  0  0  # atno 7974 bound_to 7965
  155.7795  140.0863  157.2066 H   0  0  0  0  0  0  0  0  0  0  0  0  # atno 8008 bound_to 7997
  154.3991  140.1510  156.3093 H   0  0  0  0  0  0  0  0  0  0  0  0  # atno 8009 bound_to 7997
  155.8668  140.3427  155.5796 H   0  0  0  0  0  0  0  0  0  0  0  0  # atno 8010 bound_to 7997
  140.7266  143.4837  151.0083 H   0  0  0  0  0  0  0  0  0  0  0  0  # atno 10167 bound_to 10162
  157.1880  130.6833  149.6139 H   0  0  0  0  0  0  0  0  0  0  0  0  # atno 10718 bound_to 10713
  153.7340  135.6937  153.4982 H   0  0  0  0  0  0  0  0  0  0  0  0  # atno 10763 bound_to 10752
  153.2116  135.4401  155.0385 H   0  0  0  0  0  0  0  0  0  0  0  0  # atno 10764 bound_to 10752
  154.8243  135.3438  154.6868 H   0  0  0  0  0  0  0  0  0  0  0  0  # atno 10765 bound_to 10752
  141.1654  133.7319  156.8792 H   0  0  0  0  0  0  0  0  0  0  0  0  # atno 11005 bound_to 11000
  145.3207  141.0243  143.3502 LP  0  0  0  0  0  0  0  0  0  0  0  0  # atno 17320 bound_to 7965
  144.8869  139.4828  143.6696 LP  0  0  0  0  0  0  0  0  0  0  0  0  # atno 17321 bound_to 7965
  139.8537  143.7404  152.3177 LP  0  0  0  0  0  0  0  0  0  0  0  0  # atno 17342 bound_to 10162
  139.7595  144.7510  151.0385 LP  0  0  0  0  0  0  0  0  0  0  0  0  # atno 17343 bound_to 10162
  155.9715  130.4624  150.6144 LP  0  0  0  0  0  0  0  0  0  0  0  0  # atno 17370 bound_to 10713
  157.3888  131.0792  151.1412 LP  0  0  0  0  0  0  0  0  0  0  0  0  # atno 17371 bound_to 10713
  140.1727  134.9089  157.2852 LP  0  0  0  0  0  0  0  0  0  0  0  0  # atno 17394 bound_to 11000
  140.2484  134.3712  155.7452 LP  0  0  0  0  0  0  0  0  0  0  0  0  # atno 17395 bound_to 11000

$$$$
