AV-unprocessed.smi:1726|AV-procd|sdf|6961|dock3
  -GOLD-   22720 8173D 1   1.00000     0.00000
 Structure written by MMmdl.
 42 43  0  0  0  0  0  0  0  0  3 V2000
  145.4042  135.1289  151.4992 C   0  0  0  0  0  0  0  0  0  0  0  0
  145.8493  135.6221  152.8837 C   0  0  0  0  0  0  0  0  0  0  0  0
  146.6371  136.8791  152.8170 N   0  3  1  0  0  0  0  0  0  0  0  0
  145.9211  137.9483  152.0732 C   0  0  0  0  0  0  0  0  0  0  0  0
  146.8051  139.1940  151.8975 C   0  0  0  0  0  0  0  0  0  0  0  0
  147.3025  139.7131  153.2526 C   0  0  0  0  0  0  0  0  0  0  0  0
  148.0177  138.5868  154.0143 C   0  0  1  0  0  0  0  0  0  0  0  0
  148.4399  139.0642  155.3274 N   0  0  0  0  0  0  0  0  0  0  0  0
  149.6490  139.5693  155.6114 C   0  0  0  0  0  0  0  0  0  0  0  0
  150.5445  139.6795  154.7737 O   0  0  0  0  0  0  0  0  0  0  0  0
  149.7376  139.9002  156.9118 N   0  0  0  0  0  0  0  0  0  0  0  0
  150.8136  140.4735  157.6101 C   0  0  0  0  0  0  0  0  0  0  0  0
  150.7926  141.7054  158.1901 C   0  0  0  0  0  0  0  0  0  0  0  0
  151.9344  142.2438  158.9185 C   0  0  0  0  0  0  0  0  0  0  0  0
  151.9811  143.6489  159.4919 C   0  0  0  0  0  0  0  0  0  0  0  0
  152.9031  144.3688  158.8542 F   0  0  0  0  0  0  0  0  0  0  0  0
  150.8056  144.2633  159.3543 F   0  0  0  0  0  0  0  0  0  0  0  0
  152.2945  143.6255  160.7875 F   0  0  0  0  0  0  0  0  0  0  0  0
  153.0056  141.3716  158.9331 C   0  0  0  0  0  0  0  0  0  0  0  0
  153.0980  140.1290  158.4104 N   0  5  0  0  0  0  0  0  0  0  0  0
  152.0235  139.6346  157.7333 C   0  0  0  0  0  0  0  0  0  0  0  0
  152.0411  138.5122  157.2266 O   0  0  0  0  0  0  0  0  0  0  0  0
  147.0960  137.3561  154.1489 C   0  0  0  0  0  0  0  0  0  0  0  0
  144.7467  134.2645  151.5954 H   0  0  0  0  0  0  0  0  0  0  0  0
  146.2471  134.8231  150.8802 H   0  0  0  0  0  0  0  0  0  0  0  0
  144.8542  135.9026  150.9627 H   0  0  0  0  0  0  0  0  0  0  0  0
  144.9503  135.7945  153.4770 H   0  0  0  0  0  0  0  0  0  0  0  0
  146.4181  134.8500  153.4036 H   0  0  0  0  0  0  0  0  0  0  0  0
  145.6261  137.5802  151.0898 H   0  0  0  0  0  0  0  0  0  0  0  0
  145.0034  138.2094  152.6029 H   0  0  0  0  0  0  0  0  0  0  0  0
  147.6580  138.9512  151.2623 H   0  0  0  0  0  0  0  0  0  0  0  0
  146.2483  139.9765  151.3811 H   0  0  0  0  0  0  0  0  0  0  0  0
  147.9753  140.5585  153.1040 H   0  0  0  0  0  0  0  0  0  0  0  0
  146.4578  140.0833  153.8358 H   0  0  0  0  0  0  0  0  0  0  0  0
  148.9049  138.3025  153.4444 H   0  0  0  0  0  0  0  0  0  0  0  0
  147.7642  139.0055  156.0755 H   0  0  0  0  0  0  0  0  0  0  0  0
  148.9418  139.6756  157.4911 H   0  0  0  0  0  0  0  0  0  0  0  0
  149.9090  142.3209  158.1475 H   0  0  0  0  0  0  0  0  0  0  0  0
  153.9290  141.7272  159.4380 H   0  0  0  0  0  0  0  0  0  0  0  0
  146.2295  137.5968  154.7673 H   0  0  0  0  0  0  0  0  0  0  0  0
  147.6354  136.5601  154.6609 H   0  0  0  0  0  0  0  0  0  0  0  0
  147.4663  136.6685  152.2798 H   0  0  0  0  0  0  0  0  0  0  0  0
  1  2  1  0  0  0  0
  1 24  1  0  0  0  0
  1 25  1  0  0  0  0
  1 26  1  0  0  0  0
  2  3  1  0  0  0  0
  2 27  1  0  0  0  0
  2 28  1  0  0  0  0
  3 23  1  0  0  0  0
  3  4  1  0  0  0  0
  3 42  1  0  0  0  0
  4  5  1  0  0  0  0
  4 29  1  0  0  0  0
  4 30  1  0  0  0  0
  5  6  1  0  0  0  0
  5 31  1  0  0  0  0
  5 32  1  0  0  0  0
  6  7  1  0  0  0  0
  6 33  1  0  0  0  0
  6 34  1  0  0  0  0
  7  8  1  0  0  0  0
  7 23  1  0  0  0  0
  7 35  1  0  0  0  0
  8  9  1  0  0  0  0
  8 36  1  0  0  0  0
  9 10  2  0  0  0  0
  9 11  1  0  0  0  0
 11 12  1  0  0  0  0
 11 37  1  0  0  0  0
 12 21  1  0  0  0  0
 12 13  2  0  0  0  0
 13 14  1  0  0  0  0
 13 38  1  0  0  0  0
 14 15  1  0  0  0  0
 14 19  2  0  0  0  0
 15 16  1  0  0  0  0
 15 17  1  0  0  0  0
 15 18  1  0  0  0  0
 19 20  1  0  0  0  0
 19 39  1  0  0  0  0
 20 21  1  0  0  0  0
 21 22  2  0  0  0  0
 23 40  1  0  0  0  0
 23 41  1  0  0  0  0
M  CHG  1   3   1
M  CHG  1  20  -1
M  END
> <s_m_source_file>
AV-unprocessed.smi

> <i_m_source_file_index>
1726

> <i_lp_mmshare_version>
43012

> <i_f3d_flags>
0

> <s_epik_input>
W0NIM11bQ0gyXU4xW0NIMl1bQ0gyXVtDSDJdW0NASF0oW0NIMl0xKVtOSF1DKD1PKVtOSF1jMltjSF1jKEMoRikoRilGKVtjSF1bbkhdYzI9Tw==

> <s_epik_cmdline>
J2VwaWtfcHl0aG9uJywgJy1waCcsICc3LjAnLCAnLXRuJywgJzgnLCAnLW1hJywgJzIwMCcsICctbWV0YWxfYmluZGluZycsICctaW1hZScsICc8aW5maWxlLm1hZT4nLCAnLW9tYWUnLCAnPG91dGZpbGUubWFlPic=

> <r_lp_tautomer_probability>
1

> <r_epik_Ionization_Penalty>
3.01007

> <r_epik_Ionization_Penalty_Charging>
0.14897

> <r_epik_Ionization_Penalty_Neutral>
2.8611

> <r_epik_State_Penalty>
2.85632

> <r_epik_Charging_Adjusted_Penalty>
3.00529

> <i_epik_Tot_Q>
0

> <i_epik_Tot_abs_Q>
2

> <r_epik_Metal_State_Penalty>
0.443826

> <b_epik_Metal_Only>
1

> <s_lp_Force_Field>
OPLS_2005

> <r_lp_Energy>
27.5117

> <b_lp_Chiralities_Consistent>
1

> <s_lp_Variant>
AV-unprocessed.smi:1726-5

> <Gold.Version>
5.8.1

> <Gold.Id.Protein>
6NUR|6NUR_protein|mol2

> <Gold.PLP.Fitness>
50.2039

> <Gold.PLP.PLP>
-37.3516

> <Gold.PLP.part.hbond>
-2.9966

> <Gold.PLP.part.metal>
0.0000

> <Gold.PLP.part.buried>
-0.1892

> <Gold.PLP.part.nonpolar>
-33.9269

> <Gold.PLP.part.repulsive>
0.1232

> <Gold.PLP.ligand.clash>
0.0000

> <Gold.PLP.ligand.torsion>
1.0383

> <Gold.PLP.Chemscore.Hbond>
4.9520

> <Gold.PLP.Chemscore.CHOScore>
0.0000

> <Gold.PLP.Chemscore.Metal>
0.0000

> <Gold.Chemscore.Hbonds>
donor molecule, donor type, donor heavy atom, donor atom, acceptor molecule, acceptor atom, score
      L1  H     3    42       P1  7948  2.00
      P1  H  7989  7998       L1    10  0.94
      P1  H  7997  8010       L1    20  1.93

> <Gold.PLP.Chemscore.Internal.Correction>
0.0728

> <Gold.Rescore>
     Score         DG    S(hbond)    S(metal)    S(lipo)     H(rot)  DE(clash)    DE(int)     intcor
     18.10     -19.19       2.34        0.00      78.51       1.28       0.06       1.03       ----

> <Gold.Chemscore.Fitness>
18.1039

> <Gold.Chemscore.DG>
-19.1943

> <Gold.Chemscore.ZeroCoef>
-5.4800

> <Gold.Chemscore.Hbond>
2.3365

> <Gold.Chemscore.Metal>
0.0000

> <Gold.Chemscore.Lipo>
78.5147

> <Gold.Chemscore.Internal_Hbond>
0.0000

> <Gold.Chemscore.DEClash>
0.0607

> <Gold.Chemscore.DEInternal>
1.0297

> <Gold.Chemscore.Rot>
1.2796

> <Gold.Chemscore.Internal.Correction>
   9.000000E+99

> <Gold.Chemscore.Hbonds>
donor molecule, donor type, donor heavy atom, donor atom, acceptor molecule, acceptor atom, score
      L1  H     3    42       P1  7948  0.98
      P1  H  7989  7998       L1    10  0.90
      P1  H  7997  8010       L1    20  0.22

> <Gold.Chemscore.Hbond.Weighted>
-7.8040

> <Gold.Chemscore.Metal.Weighted>
-0.0000

> <Gold.Chemscore.Lipo.Weighted>
-9.1862

> <Gold.Chemscore.Internal_Hbond.Weighted>
0.0000

> <Gold.Chemscore.DEClash.Weighted>
0.0607

> <Gold.Chemscore.DEInternal.Weighted>
1.0297

> <Gold.Chemscore.Rot.Weighted>
3.2759

> <Gold.Chemscore.Internal.Correction.Weighted>
   9.000000E+99

> <Gold.Protein.RotatedTorsions>
[ 6907 6896 6895 6894 ] final   74.30 input  -60.11 | X-H torsion
[ 7974 7965 7964 7962 ] final -118.49 input  175.53 | X-H torsion
[ 8008 7997 7996 7995 ] final   38.79 input   59.86 | X-H torsion
[ 10167 10162 10161 10158 ] final  -15.19 input  -65.29 | X-H torsion
[ 10718 10713 10712 10709 ] final -177.90 input   66.30 | X-H torsion
[ 10763 10752 10751 10750 ] final -137.88 input  -60.55 | X-H torsion
[ 11005 11000 10999 10996 ] final -125.38 input  -57.11 | X-H torsion

> <Gold.Protein.ActiveResidues>
 VAL166  LYS551  ARG553  GLY616  TRP617  ASP618  TYR619  PRO620  LYS621  CYS622 
 ASP623  PHE694  ASN695  SER759  ASP760  ASP761  ALA762  ILE779  LEU786  VAL792 
 PHE793  MET794  SER795  GLU796  ALA797  LYS798  CYS799  TRP800  GLU811  SER814 

> <Gold.Protein.RotatedAtoms>
  152.4968  134.4293  159.9506 H   0  0  0  0  0  0  0  0  0  0  0  0  # atno 6907 bound_to 6896
  151.4270  133.3675  159.2771 H   0  0  0  0  0  0  0  0  0  0  0  0  # atno 6908 bound_to 6896
  150.9182  134.8622  159.7531 H   0  0  0  0  0  0  0  0  0  0  0  0  # atno 6909 bound_to 6896
  145.0732  140.8374  143.4083 H   0  0  0  0  0  0  0  0  0  0  0  0  # atno 7974 bound_to 7965
  155.2260  140.3334  155.4309 H   0  0  0  0  0  0  0  0  0  0  0  0  # atno 8008 bound_to 7997
  156.2314  140.1852  156.7279 H   0  0  0  0  0  0  0  0  0  0  0  0  # atno 8009 bound_to 7997
  154.5984  140.0627  156.9320 H   0  0  0  0  0  0  0  0  0  0  0  0  # atno 8010 bound_to 7997
  140.7214  143.5244  150.9595 H   0  0  0  0  0  0  0  0  0  0  0  0  # atno 10167 bound_to 10162
  156.8363  130.9671  151.3103 H   0  0  0  0  0  0  0  0  0  0  0  0  # atno 10718 bound_to 10713
  154.8651  135.3629  154.5294 H   0  0  0  0  0  0  0  0  0  0  0  0  # atno 10763 bound_to 10752
  153.5920  135.7015  153.5424 H   0  0  0  0  0  0  0  0  0  0  0  0  # atno 10764 bound_to 10752
  153.3365  135.4110  155.1499 H   0  0  0  0  0  0  0  0  0  0  0  0  # atno 10765 bound_to 10752
  140.9766  134.0731  157.3811 H   0  0  0  0  0  0  0  0  0  0  0  0  # atno 11005 bound_to 11000
  145.1267  139.2658  143.5560 LP  0  0  0  0  0  0  0  0  0  0  0  0  # atno 17320 bound_to 7965
  146.3529  140.0906  142.8613 LP  0  0  0  0  0  0  0  0  0  0  0  0  # atno 17321 bound_to 7965
  139.8962  143.6892  152.3138 LP  0  0  0  0  0  0  0  0  0  0  0  0  # atno 17342 bound_to 10162
  139.7225  144.7599  151.0932 LP  0  0  0  0  0  0  0  0  0  0  0  0  # atno 17343 bound_to 10162
  157.6380  130.8782  149.9394 LP  0  0  0  0  0  0  0  0  0  0  0  0  # atno 17370 bound_to 10713
  156.0905  130.3664  150.0403 LP  0  0  0  0  0  0  0  0  0  0  0  0  # atno 17371 bound_to 10713
  139.8933  135.0129  156.6892 LP  0  0  0  0  0  0  0  0  0  0  0  0  # atno 17394 bound_to 11000
  140.7249  133.9108  155.8172 LP  0  0  0  0  0  0  0  0  0  0  0  0  # atno 17395 bound_to 11000

$$$$
