AV-unprocessed.smi:2229|AV-procd|sdf|9028|dock10
  -GOLD-   2272012233D 1   1.00000     0.00000
 Structure written by MMmdl.
 44 45  0  0  0  0  0  0  0  0  1 V2000
  152.8060  139.1371  155.2013 C   0  0  0  0  0  0  0  0  0  0  0  0
  151.3794  139.5846  155.5649 C   0  0  0  0  0  0  0  0  0  0  0  0
  150.4475  139.4351  154.3528 C   0  0  0  0  0  0  0  0  0  0  0  0
  151.3290  141.0245  156.1180 C   0  0  0  0  0  0  0  0  0  0  0  0
  151.8197  141.1444  157.5709 C   0  0  0  0  0  0  0  0  0  0  0  0
  152.0664  142.5967  158.0379 C   0  0  1  0  0  0  0  0  0  0  0  0
  150.7867  143.3871  158.3304 C   0  0  0  0  0  0  0  0  0  0  0  0
  151.2659  144.5784  159.1533 C   0  0  0  0  0  0  0  0  0  0  0  0
  152.3786  144.0158  160.0403 C   0  0  0  0  0  0  0  0  0  0  0  0
  152.9342  142.7741  159.3133 C   0  0  1  0  0  0  0  0  0  0  0  0
  152.8904  141.6100  160.2003 N   0  0  0  0  0  0  0  0  0  0  0  0
  153.9402  140.8443  160.5362 C   0  0  0  0  0  0  0  0  0  0  0  0
  155.0951  141.0804  160.1801 O   0  0  0  0  0  0  0  0  0  0  0  0
  153.6390  139.6196  161.4061 C   0  0  0  0  0  0  0  0  0  0  0  0
  153.6893  138.3798  160.6299 N   0  0  0  0  0  0  0  0  0  0  0  0
  153.2366  137.1661  161.1022 C   0  0  0  0  0  0  0  0  0  0  0  0
  153.4090  136.2208  160.2422 N   0  0  0  0  0  0  0  0  0  0  0  0
  153.9899  136.8690  159.2041 N   0  0  0  0  0  0  0  0  0  0  0  0
  154.1736  138.1742  159.4077 C   0  0  0  0  0  0  0  0  0  0  0  0
  154.6749  138.9926  158.6388 O   0  0  0  0  0  0  0  0  0  0  0  0
  154.2394  136.3496  158.3747 H   0  0  0  0  0  0  0  0  0  0  0  0
  153.2524  139.7995  154.4590 H   0  0  0  0  0  0  0  0  0  0  0  0
  152.8048  138.1287  154.7870 H   0  0  0  0  0  0  0  0  0  0  0  0
  153.4611  139.1209  156.0717 H   0  0  0  0  0  0  0  0  0  0  0  0
  151.0084  138.9131  156.3406 H   0  0  0  0  0  0  0  0  0  0  0  0
  150.7587  140.0820  153.5319 H   0  0  0  0  0  0  0  0  0  0  0  0
  149.4198  139.6938  154.6098 H   0  0  0  0  0  0  0  0  0  0  0  0
  150.4427  138.4087  153.9843 H   0  0  0  0  0  0  0  0  0  0  0  0
  151.9103  141.6881  155.4768 H   0  0  0  0  0  0  0  0  0  0  0  0
  150.2994  141.3793  156.0667 H   0  0  0  0  0  0  0  0  0  0  0  0
  151.0993  140.6619  158.2323 H   0  0  0  0  0  0  0  0  0  0  0  0
  152.7522  140.5901  157.6685 H   0  0  0  0  0  0  0  0  0  0  0  0
  152.5874  143.1176  157.2327 H   0  0  0  0  0  0  0  0  0  0  0  0
  150.2651  143.6967  157.4243 H   0  0  0  0  0  0  0  0  0  0  0  0
  150.0983  142.7829  158.9231 H   0  0  0  0  0  0  0  0  0  0  0  0
  151.6765  145.3393  158.4882 H   0  0  0  0  0  0  0  0  0  0  0  0
  150.4633  145.0399  159.7295 H   0  0  0  0  0  0  0  0  0  0  0  0
  153.1546  144.7595  160.2246 H   0  0  0  0  0  0  0  0  0  0  0  0
  151.9616  143.7456  161.0121 H   0  0  0  0  0  0  0  0  0  0  0  0
  153.9658  142.9704  159.0154 H   0  0  0  0  0  0  0  0  0  0  0  0
  151.9806  141.3378  160.5436 H   0  0  0  0  0  0  0  0  0  0  0  0
  154.3560  139.5905  162.2281 H   0  0  0  0  0  0  0  0  0  0  0  0
  152.6510  139.7129  161.8608 H   0  0  0  0  0  0  0  0  0  0  0  0
  152.7997  137.1030  162.1003 H   0  0  0  0  0  0  0  0  0  0  0  0
  1  2  1  0  0  0  0
  1 22  1  0  0  0  0
  1 23  1  0  0  0  0
  1 24  1  0  0  0  0
  2  3  1  0  0  0  0
  2  4  1  0  0  0  0
  2 25  1  0  0  0  0
  3 26  1  0  0  0  0
  3 27  1  0  0  0  0
  3 28  1  0  0  0  0
  4  5  1  0  0  0  0
  4 29  1  0  0  0  0
  4 30  1  0  0  0  0
  5  6  1  0  0  0  0
  5 31  1  0  0  0  0
  5 32  1  0  0  0  0
  6 10  1  0  0  0  0
  6  7  1  0  0  0  0
  6 33  1  0  0  0  0
  7  8  1  0  0  0  0
  7 34  1  0  0  0  0
  7 35  1  0  0  0  0
  8  9  1  0  0  0  0
  8 36  1  0  0  0  0
  8 37  1  0  0  0  0
  9 10  1  0  0  0  0
  9 38  1  0  0  0  0
  9 39  1  0  0  0  0
 10 11  1  0  0  0  0
 10 40  1  0  0  0  0
 11 12  1  0  0  0  0
 11 41  1  0  0  0  0
 12 13  2  0  0  0  0
 12 14  1  0  0  0  0
 14 15  1  0  0  0  0
 14 42  1  0  0  0  0
 14 43  1  0  0  0  0
 15 19  1  0  0  0  0
 15 16  1  0  0  0  0
 16 17  2  0  0  0  0
 16 44  1  0  0  0  0
 17 18  1  0  0  0  0
 18 21  1  0  0  0  0
 18 19  1  0  0  0  0
 19 20  2  0  0  0  0
M  END
> <s_m_source_file>
AV-unprocessed.smi

> <i_m_source_file_index>
2229

> <i_lp_mmshare_version>
43012

> <i_f3d_flags>
0

> <s_epik_input>
W0NIM11bQ0hdKFtDSDNdKVtDSDJdW0NIMl1bQ0BASF0xW0NIMl1bQ0gyXVtDSDJdW0NASF0xW05IXUMoPU8pW0NIMl1uMltjSF1uW25IXWMyPU8=

> <s_epik_cmdline>
J2VwaWtfcHl0aG9uJywgJy1waCcsICc3LjAnLCAnLXRuJywgJzgnLCAnLW1hJywgJzIwMCcsICctbWV0YWxfYmluZGluZycsICctaW1hZScsICc8aW5maWxlLm1hZT4nLCAnLW9tYWUnLCAnPG91dGZpbGUubWFlPic=

> <r_lp_tautomer_probability>
1

> <r_epik_Ionization_Penalty>
4.14174e-05

> <r_epik_Ionization_Penalty_Charging>
4.13165e-05

> <r_epik_Ionization_Penalty_Neutral>
1.00911e-07

> <r_epik_State_Penalty>
-0

> <r_epik_Charging_Adjusted_Penalty>
4.13165e-05

> <i_epik_Tot_Q>
0

> <i_epik_Tot_abs_Q>
0

> <r_epik_Metal_State_Penalty>
0.0399369

> <b_epik_Metal_Only>
0

> <s_lp_Force_Field>
OPLS_2005

> <r_lp_Energy>
36.1569

> <b_lp_Chiralities_Consistent>
1

> <s_lp_Variant>
AV-unprocessed.smi:2229-2

> <Gold.Version>
5.8.1

> <Gold.Id.Protein>
6NUR|6NUR_protein|mol2

> <Gold.PLP.Fitness>
44.0453

> <Gold.PLP.PLP>
-39.3209

> <Gold.PLP.part.hbond>
-1.9826

> <Gold.PLP.part.metal>
0.0000

> <Gold.PLP.part.buried>
-5.9585

> <Gold.PLP.part.nonpolar>
-32.0630

> <Gold.PLP.part.repulsive>
0.1625

> <Gold.PLP.ligand.clash>
0.0000

> <Gold.PLP.ligand.torsion>
0.6582

> <Gold.PLP.Chemscore.Hbond>
2.0000

> <Gold.PLP.Chemscore.CHOScore>
0.0000

> <Gold.PLP.Chemscore.Metal>
0.0000

> <Gold.Chemscore.Hbonds>
donor molecule, donor type, donor heavy atom, donor atom, acceptor molecule, acceptor atom, score
      P1  H  6896  6909       L1    17  1.00
      P1  H  7997  8008       L1    20  1.00

> <Gold.PLP.Chemscore.Internal.Correction>
0.0409

> <Gold.Rescore>
     Score         DG    S(hbond)    S(metal)    S(lipo)     H(rot)  DE(clash)    DE(int)     intcor
     13.11     -16.75       1.99        0.00      97.27       2.64       0.02       3.62       ----

> <Gold.Chemscore.Fitness>
13.1085

> <Gold.Chemscore.DG>
-16.7503

> <Gold.Chemscore.ZeroCoef>
-5.4800

> <Gold.Chemscore.Hbond>
1.9879

> <Gold.Chemscore.Metal>
0.0000

> <Gold.Chemscore.Lipo>
97.2724

> <Gold.Chemscore.Internal_Hbond>
0.0000

> <Gold.Chemscore.DEClash>
0.0235

> <Gold.Chemscore.DEInternal>
3.6182

> <Gold.Chemscore.Rot>
2.6368

> <Gold.Chemscore.Internal.Correction>
   9.000000E+99

> <Gold.Chemscore.Hbonds>
donor molecule, donor type, donor heavy atom, donor atom, acceptor molecule, acceptor atom, score
      P1  H  6896  6909       L1    17  0.98
      P1  H  7997  8008       L1    20  1.00

> <Gold.Chemscore.Hbond.Weighted>
-6.6395

> <Gold.Chemscore.Metal.Weighted>
-0.0000

> <Gold.Chemscore.Lipo.Weighted>
-11.3809

> <Gold.Chemscore.Internal_Hbond.Weighted>
0.0000

> <Gold.Chemscore.DEClash.Weighted>
0.0235

> <Gold.Chemscore.DEInternal.Weighted>
3.6182

> <Gold.Chemscore.Rot.Weighted>
6.7501

> <Gold.Chemscore.Internal.Correction.Weighted>
   9.000000E+99

> <Gold.Protein.RotatedTorsions>
[ 6907 6896 6895 6894 ] final  163.36 input  -60.11 | X-H torsion
[ 7974 7965 7964 7962 ] final  127.22 input  175.53 | X-H torsion
[ 8008 7997 7996 7995 ] final -126.62 input   59.86 | X-H torsion
[ 10167 10162 10161 10158 ] final   73.93 input  -65.29 | X-H torsion
[ 10718 10713 10712 10709 ] final  133.31 input   66.30 | X-H torsion
[ 10763 10752 10751 10750 ] final  129.16 input  -60.55 | X-H torsion
[ 11005 11000 10999 10996 ] final   81.13 input  -57.11 | X-H torsion

> <Gold.Protein.ActiveResidues>
 VAL166  LYS551  ARG553  GLY616  TRP617  ASP618  TYR619  PRO620  LYS621  CYS622 
 ASP623  PHE694  ASN695  SER759  ASP760  ASP761  ALA762  ILE779  LEU786  VAL792 
 PHE793  MET794  SER795  GLU796  ALA797  LYS798  CYS799  TRP800  GLU811  SER814 

> <Gold.Protein.RotatedAtoms>
  151.9264  133.3599  159.3914 H   0  0  0  0  0  0  0  0  0  0  0  0  # atno 6907 bound_to 6896
  150.7026  134.4582  159.5377 H   0  0  0  0  0  0  0  0  0  0  0  0  # atno 6908 bound_to 6896
  152.2215  134.8408  160.0536 H   0  0  0  0  0  0  0  0  0  0  0  0  # atno 6909 bound_to 6896
  145.0530  139.3867  143.5044 H   0  0  0  0  0  0  0  0  0  0  0  0  # atno 7974 bound_to 7965
  155.2327  140.0426  157.2964 H   0  0  0  0  0  0  0  0  0  0  0  0  # atno 8008 bound_to 7997
  154.5878  140.2418  155.7933 H   0  0  0  0  0  0  0  0  0  0  0  0  # atno 8009 bound_to 7997
  156.2238  140.2961  156.0025 H   0  0  0  0  0  0  0  0  0  0  0  0  # atno 8010 bound_to 7997
  140.0191  144.5554  150.7596 H   0  0  0  0  0  0  0  0  0  0  0  0  # atno 10167 bound_to 10162
  157.4785  131.1084  150.9712 H   0  0  0  0  0  0  0  0  0  0  0  0  # atno 10718 bound_to 10713
  153.7372  135.3229  155.3297 H   0  0  0  0  0  0  0  0  0  0  0  0  # atno 10763 bound_to 10752
  154.8307  135.4536  154.1062 H   0  0  0  0  0  0  0  0  0  0  0  0  # atno 10764 bound_to 10752
  153.2227  135.6950  153.8063 H   0  0  0  0  0  0  0  0  0  0  0  0  # atno 10765 bound_to 10752
  139.9109  134.7973  156.2001 H   0  0  0  0  0  0  0  0  0  0  0  0  # atno 11005 bound_to 11000
  146.3519  140.0190  142.8660 LP  0  0  0  0  0  0  0  0  0  0  0  0  # atno 17320 bound_to 7965
  145.1503  140.9619  143.4436 LP  0  0  0  0  0  0  0  0  0  0  0  0  # atno 17321 bound_to 7965
  140.7350  143.2735  151.3814 LP  0  0  0  0  0  0  0  0  0  0  0  0  # atno 17342 bound_to 10162
  139.6152  144.1018  152.2338 LP  0  0  0  0  0  0  0  0  0  0  0  0  # atno 17343 bound_to 10162
  157.0453  130.5765  149.5362 LP  0  0  0  0  0  0  0  0  0  0  0  0  # atno 17370 bound_to 10713
  156.0109  130.5201  150.7986 LP  0  0  0  0  0  0  0  0  0  0  0  0  # atno 17371 bound_to 10713
  141.0530  133.6879  156.1808 LP  0  0  0  0  0  0  0  0  0  0  0  0  # atno 17394 bound_to 11000
  140.6780  134.4797  157.5588 LP  0  0  0  0  0  0  0  0  0  0  0  0  # atno 17395 bound_to 11000

$$$$
