AV-unprocessed.smi:658|AV-procd|sdf|3232|dock7
  -GOLD-   22720 0173D 1   1.00000     0.00000
 Structure written by MMmdl.
 38 38  0  0  0  0  0  0  0  0  2 V2000
  145.3472  136.1361  151.7926 C   0  0  0  0  0  0  0  0  0  0  0  0
  146.0477  134.9746  152.5291 C   0  0  2  0  0  0  0  0  0  0  0  0
  147.0949  135.5011  153.4352 N   0  3  0  0  0  0  0  0  0  0  0  0
  146.6877  136.6424  154.2815 C   0  0  0  0  0  0  0  0  0  0  0  0
  147.8469  137.1005  155.1748 C   0  0  0  0  0  0  0  0  0  0  0  0
  148.5318  138.3677  154.6448 C   0  0  0  0  0  0  0  0  0  0  0  0
  150.3605  138.2983  154.8764 S   0  0  0  0  0  0  0  0  0  0  0  0
  150.7869  136.9020  153.9681 N   0  0  0  0  0  0  0  0  0  0  0  0
  150.9770  139.4582  154.2147 O   0  0  0  0  0  0  0  0  0  0  0  0
  150.6406  137.9983  156.2882 O   0  0  0  0  0  0  0  0  0  0  0  0
  146.6695  133.9343  151.5586 C   0  0  1  0  0  0  0  0  0  0  0  0
  147.4892  132.8558  152.2937 C   0  0  0  0  0  0  0  0  0  0  0  0
  145.6680  133.3023  150.7081 N   0  0  0  0  0  0  0  0  0  0  0  0
  145.8666  132.4277  149.6592 C   0  0  0  0  0  0  0  0  0  0  0  0
  144.6378  132.0983  149.1634 C   0  0  0  0  0  0  0  0  0  0  0  0
  143.7343  132.8261  149.9868 C   0  0  0  0  0  0  0  0  0  0  0  0
  144.3527  133.5440  150.9105 N   0  0  0  0  0  0  0  0  0  0  0  0
  144.5297  135.7838  151.1637 H   0  0  0  0  0  0  0  0  0  0  0  0
  146.0462  136.6766  151.1535 H   0  0  0  0  0  0  0  0  0  0  0  0
  144.9119  136.8535  152.4872 H   0  0  0  0  0  0  0  0  0  0  0  0
  145.3025  134.4593  153.1375 H   0  0  0  0  0  0  0  0  0  0  0  0
  147.3596  134.7513  154.0582 H   0  0  0  0  0  0  0  0  0  0  0  0
  146.3582  137.4721  153.6560 H   0  0  0  0  0  0  0  0  0  0  0  0
  145.8392  136.3465  154.8999 H   0  0  0  0  0  0  0  0  0  0  0  0
  147.4774  137.2859  156.1843 H   0  0  0  0  0  0  0  0  0  0  0  0
  148.5805  136.2973  155.2551 H   0  0  0  0  0  0  0  0  0  0  0  0
  148.3402  138.4724  153.5763 H   0  0  0  0  0  0  0  0  0  0  0  0
  148.1574  139.2676  155.1333 H   0  0  0  0  0  0  0  0  0  0  0  0
  150.0583  136.6091  153.3173 H   0  0  0  0  0  0  0  0  0  0  0  0
  151.1807  136.1551  154.5402 H   0  0  0  0  0  0  0  0  0  0  0  0
  147.3503  134.4658  150.8915 H   0  0  0  0  0  0  0  0  0  0  0  0
  148.3308  133.2882  152.8349 H   0  0  0  0  0  0  0  0  0  0  0  0
  147.8982  132.1297  151.5904 H   0  0  0  0  0  0  0  0  0  0  0  0
  146.8784  132.3098  153.0138 H   0  0  0  0  0  0  0  0  0  0  0  0
  146.8548  132.1161  149.3539 H   0  0  0  0  0  0  0  0  0  0  0  0
  144.4171  131.4366  148.3390 H   0  0  0  0  0  0  0  0  0  0  0  0
  142.6555  132.8535  149.9413 H   0  0  0  0  0  0  0  0  0  0  0  0
  147.9026  135.7606  152.8871 H   0  0  0  0  0  0  0  0  0  0  0  0
  1  2  1  0  0  0  0
  1 18  1  0  0  0  0
  1 19  1  0  0  0  0
  1 20  1  0  0  0  0
  2  3  1  0  0  0  0
  2 11  1  0  0  0  0
  2 21  1  0  0  0  0
  3  4  1  0  0  0  0
  3 22  1  0  0  0  0
  3 38  1  0  0  0  0
  4  5  1  0  0  0  0
  4 23  1  0  0  0  0
  4 24  1  0  0  0  0
  5  6  1  0  0  0  0
  5 25  1  0  0  0  0
  5 26  1  0  0  0  0
  6  7  1  0  0  0  0
  6 27  1  0  0  0  0
  6 28  1  0  0  0  0
  7  8  1  0  0  0  0
  7  9  2  0  0  0  0
  7 10  2  0  0  0  0
  8 29  1  0  0  0  0
  8 30  1  0  0  0  0
 11 12  1  0  0  0  0
 11 13  1  0  0  0  0
 11 31  1  0  0  0  0
 12 32  1  0  0  0  0
 12 33  1  0  0  0  0
 12 34  1  0  0  0  0
 13 17  1  0  0  0  0
 13 14  1  0  0  0  0
 14 15  2  0  0  0  0
 14 35  1  0  0  0  0
 15 16  1  0  0  0  0
 15 36  1  0  0  0  0
 16 17  2  0  0  0  0
 16 37  1  0  0  0  0
M  CHG  1   3   1
M  END
> <s_m_source_file>
AV-unprocessed.smi

> <i_m_source_file_index>
658

> <i_lp_mmshare_version>
43012

> <i_f3d_flags>
0

> <s_epik_input>
bjFbY0hdW2NIXVtjSF1uMVtDQEBIXShbQ0gzXSlbQ0BIXShbQ0gzXSlbTkhdW0NIMl1bQ0gyXVtDSDJdUyg9TykoPU8pW05IMl0=

> <s_epik_cmdline>
J2VwaWtfcHl0aG9uJywgJy1waCcsICc3LjAnLCAnLXRuJywgJzgnLCAnLW1hJywgJzIwMCcsICctbWV0YWxfYmluZGluZycsICctaW1hZScsICc8aW5maWxlLm1hZT4nLCAnLW9tYWUnLCAnPG91dGZpbGUubWFlPic=

> <r_lp_tautomer_probability>
1

> <r_epik_Ionization_Penalty>
0.00535781

> <r_epik_Ionization_Penalty_Charging>
0.00511015

> <r_epik_Ionization_Penalty_Neutral>
0.000247661

> <r_epik_State_Penalty>
-0

> <r_epik_Charging_Adjusted_Penalty>
0.00511015

> <i_epik_Tot_Q>
1

> <i_epik_Tot_abs_Q>
1

> <r_epik_Metal_State_Penalty>
0.149106

> <b_epik_Metal_Only>
0

> <s_lp_Force_Field>
OPLS_2005

> <r_lp_Energy>
7.04511

> <b_lp_Chiralities_Consistent>
1

> <s_lp_Variant>
AV-unprocessed.smi:658-3

> <Gold.Version>
5.8.1

> <Gold.Id.Protein>
6NUR|6NUR_protein|mol2

> <Gold.PLP.Fitness>
43.4843

> <Gold.PLP.PLP>
-26.7005

> <Gold.PLP.part.hbond>
-4.0000

> <Gold.PLP.part.metal>
0.0000

> <Gold.PLP.part.buried>
-2.5871

> <Gold.PLP.part.nonpolar>
-21.2662

> <Gold.PLP.part.repulsive>
0.2948

> <Gold.PLP.ligand.clash>
0.0000

> <Gold.PLP.ligand.torsion>
0.7525

> <Gold.PLP.Chemscore.Hbond>
4.0000

> <Gold.PLP.Chemscore.CHOScore>
2.0000

> <Gold.PLP.Chemscore.Metal>
0.0000

> <Gold.Chemscore.Hbonds>
donor molecule, donor type, donor heavy atom, donor atom, acceptor molecule, acceptor atom, score
      L1  H     3    38       P1  7948  2.00
      L1  H     8    29       P1  7948  0.65
      P1  H  7989  7998       L1     9  1.00
      L1  C    14    35       P1 10747  0.80
      L1  C    16    37       P1 10186  1.00

> <Gold.PLP.Chemscore.Internal.Correction>
0.2887

> <Gold.Rescore>
     Score         DG    S(hbond)    S(metal)    S(lipo)     H(rot)  DE(clash)    DE(int)     intcor
     11.85     -13.98       2.82        0.00      60.79       3.13       0.01       2.12       ----

> <Gold.Chemscore.Fitness>
11.8520

> <Gold.Chemscore.DG>
-13.9845

> <Gold.Chemscore.ZeroCoef>
-5.4800

> <Gold.Chemscore.Hbond>
2.8167

> <Gold.Chemscore.Metal>
0.0000

> <Gold.Chemscore.Lipo>
60.7912

> <Gold.Chemscore.Internal_Hbond>
0.0000

> <Gold.Chemscore.DEClash>
0.0130

> <Gold.Chemscore.DEInternal>
2.1194

> <Gold.Chemscore.Rot>
3.1312

> <Gold.Chemscore.Internal.Correction>
   9.000000E+99

> <Gold.Chemscore.Hbonds>
donor molecule, donor type, donor heavy atom, donor atom, acceptor molecule, acceptor atom, score
      L1  H     3    38       P1  7948  0.93
      L1  H     8    29       P1  7948  0.06
      P1  H  7989  7998       L1     9  1.00

> <Gold.Chemscore.Hbond.Weighted>
-9.4078

> <Gold.Chemscore.Metal.Weighted>
-0.0000

> <Gold.Chemscore.Lipo.Weighted>
-7.1126

> <Gold.Chemscore.Internal_Hbond.Weighted>
0.0000

> <Gold.Chemscore.DEClash.Weighted>
0.0130

> <Gold.Chemscore.DEInternal.Weighted>
2.1194

> <Gold.Chemscore.Rot.Weighted>
8.0160

> <Gold.Chemscore.Internal.Correction.Weighted>
   9.000000E+99

> <Gold.Protein.RotatedTorsions>
[ 6907 6896 6895 6894 ] final  103.41 input  -60.11 | X-H torsion
[ 7974 7965 7964 7962 ] final -130.58 input  175.53 | X-H torsion
[ 8008 7997 7996 7995 ] final  -61.22 input   59.86 | X-H torsion
[ 10167 10162 10161 10158 ] final   80.51 input  -65.29 | X-H torsion
[ 10718 10713 10712 10709 ] final   28.63 input   66.30 | X-H torsion
[ 10763 10752 10751 10750 ] final  -91.09 input  -60.55 | X-H torsion
[ 11005 11000 10999 10996 ] final -102.70 input  -57.11 | X-H torsion

> <Gold.Protein.ActiveResidues>
 VAL166  LYS551  ARG553  GLY616  TRP617  ASP618  TYR619  PRO620  LYS621  CYS622 
 ASP623  PHE694  ASN695  SER759  ASP760  ASP761  ALA762  ILE779  LEU786  VAL792 
 PHE793  MET794  SER795  GLU796  ALA797  LYS798  CYS799  TRP800  GLU811  SER814 

> <Gold.Protein.RotatedAtoms>
  152.5296  133.9829  159.7814 H   0  0  0  0  0  0  0  0  0  0  0  0  # atno 6907 bound_to 6896
  151.0080  133.5985  159.2693 H   0  0  0  0  0  0  0  0  0  0  0  0  # atno 6908 bound_to 6896
  151.3070  135.0790  159.9312 H   0  0  0  0  0  0  0  0  0  0  0  0  # atno 6909 bound_to 6896
  144.9461  140.7293  143.4817 H   0  0  0  0  0  0  0  0  0  0  0  0  # atno 7974 bound_to 7965
  154.4437  140.1022  156.6397 H   0  0  0  0  0  0  0  0  0  0  0  0  # atno 8008 bound_to 7997
  155.5515  140.3485  155.4451 H   0  0  0  0  0  0  0  0  0  0  0  0  # atno 8009 bound_to 7997
  156.0525  140.1307  157.0023 H   0  0  0  0  0  0  0  0  0  0  0  0  # atno 8010 bound_to 7997
  139.9490  144.6039  150.8179 H   0  0  0  0  0  0  0  0  0  0  0  0  # atno 10167 bound_to 10162
  157.2359  130.7046  149.6335 H   0  0  0  0  0  0  0  0  0  0  0  0  # atno 10718 bound_to 10713
  154.6725  135.5280  153.8157 H   0  0  0  0  0  0  0  0  0  0  0  0  # atno 10763 bound_to 10752
  153.0511  135.6532  154.0702 H   0  0  0  0  0  0  0  0  0  0  0  0  # atno 10764 bound_to 10752
  154.0600  135.2962  155.3306 H   0  0  0  0  0  0  0  0  0  0  0  0  # atno 10765 bound_to 10752
  141.1178  133.8579  157.1393 H   0  0  0  0  0  0  0  0  0  0  0  0  # atno 11005 bound_to 11000
  145.2916  139.1882  143.4737 LP  0  0  0  0  0  0  0  0  0  0  0  0  # atno 17320 bound_to 7965
  146.3304  140.2893  142.8614 LP  0  0  0  0  0  0  0  0  0  0  0  0  # atno 17321 bound_to 7965
  140.7588  143.3116  151.2831 LP  0  0  0  0  0  0  0  0  0  0  0  0  # atno 17342 bound_to 10162
  139.6644  144.0132  152.2713 LP  0  0  0  0  0  0  0  0  0  0  0  0  # atno 17343 bound_to 10162
  155.9672  130.4473  150.5577 LP  0  0  0  0  0  0  0  0  0  0  0  0  # atno 17370 bound_to 10713
  157.3429  131.0720  151.1774 LP  0  0  0  0  0  0  0  0  0  0  0  0  # atno 17371 bound_to 10713
  140.0112  134.9987  157.0399 LP  0  0  0  0  0  0  0  0  0  0  0  0  # atno 17394 bound_to 11000
  140.4596  134.1498  155.7190 LP  0  0  0  0  0  0  0  0  0  0  0  0  # atno 17395 bound_to 11000

$$$$
