AV-unprocessed.smi:1224|AV-procd|sdf|5131|dock4
  -GOLD-   22720 4193D 1   1.00000     0.00000
 Structure written by MMmdl.
 45 47  0  0  0  0  0  0  0  0  3 V2000
  152.8359  143.5087  160.6734 C   0  0  0  0  0  0  0  0  0  0  0  0
  152.3562  142.5350  159.6105 C   0  0  0  0  0  0  0  0  0  0  0  0
  151.5032  143.0154  158.5911 C   0  0  0  0  0  0  0  0  0  0  0  0
  151.0826  142.1011  157.6326 C   0  0  0  0  0  0  0  0  0  0  0  0
  150.2560  142.2577  156.5178 N   0  3  0  0  0  0  0  0  0  0  0  0
  150.1334  141.0652  155.8714 C   0  0  0  0  0  0  0  0  0  0  0  0
  150.8676  140.1483  156.5595 N   0  0  0  0  0  0  0  0  0  0  0  0
  151.0800  138.7178  156.3005 C   0  0  0  0  0  0  0  0  0  0  0  0
  150.2608  138.1986  155.1021 C   0  0  1  0  0  0  0  0  0  0  0  0
  150.5127  136.8167  154.9316 O   0  0  0  0  0  0  0  0  0  0  0  0
  148.7517  138.4107  155.3023 C   0  0  0  0  0  0  0  0  0  0  0  0
  148.0197  138.3053  154.0216 N   0  3  0  0  0  0  0  0  0  0  0  0
  146.6027  138.7203  154.0765 C   0  0  0  0  0  0  0  0  0  0  0  0
  146.4415  140.1612  154.4384 C   0  0  0  0  0  0  0  0  0  0  0  0
  147.0101  141.2494  153.8260 C   0  0  0  0  0  0  0  0  0  0  0  0
  146.6508  142.4867  154.4363 C   0  0  0  0  0  0  0  0  0  0  0  0
  145.8113  142.3266  155.5064 C   0  0  0  0  0  0  0  0  0  0  0  0
  145.4461  140.6467  155.7879 S   0  0  0  0  0  0  0  0  0  0  0  0
  151.4791  140.7501  157.6645 C   0  0  0  0  0  0  0  0  0  0  0  0
  152.3172  140.2595  158.6626 C   0  0  0  0  0  0  0  0  0  0  0  0
  152.7587  141.1747  159.6449 C   0  0  0  0  0  0  0  0  0  0  0  0
  153.6796  140.6701  160.7428 C   0  0  0  0  0  0  0  0  0  0  0  0
  152.4455  144.5122  160.5008 H   0  0  0  0  0  0  0  0  0  0  0  0
  153.9243  143.5707  160.6737 H   0  0  0  0  0  0  0  0  0  0  0  0
  152.5066  143.1887  161.6623 H   0  0  0  0  0  0  0  0  0  0  0  0
  151.1931  144.0499  158.5579 H   0  0  0  0  0  0  0  0  0  0  0  0
  149.5558  140.8810  154.9770 H   0  0  0  0  0  0  0  0  0  0  0  0
  152.1467  138.5707  156.1252 H   0  0  0  0  0  0  0  0  0  0  0  0
  150.8385  138.1648  157.2090 H   0  0  0  0  0  0  0  0  0  0  0  0
  150.5805  138.7176  154.1975 H   0  0  0  0  0  0  0  0  0  0  0  0
  150.1287  136.5362  154.1144 H   0  0  0  0  0  0  0  0  0  0  0  0
  148.3624  137.6900  156.0226 H   0  0  0  0  0  0  0  0  0  0  0  0
  148.5742  139.4036  155.7175 H   0  0  0  0  0  0  0  0  0  0  0  0
  148.4901  138.8869  153.3432 H   0  0  0  0  0  0  0  0  0  0  0  0
  146.1239  138.5114  153.1190 H   0  0  0  0  0  0  0  0  0  0  0  0
  146.0957  138.1013  154.8169 H   0  0  0  0  0  0  0  0  0  0  0  0
  147.6667  141.2015  152.9697 H   0  0  0  0  0  0  0  0  0  0  0  0
  147.0145  143.4368  154.0734 H   0  0  0  0  0  0  0  0  0  0  0  0
  145.3863  143.0892  156.1427 H   0  0  0  0  0  0  0  0  0  0  0  0
  152.6231  139.2243  158.6895 H   0  0  0  0  0  0  0  0  0  0  0  0
  153.8955  139.6075  160.6263 H   0  0  0  0  0  0  0  0  0  0  0  0
  153.2227  140.8119  161.7223 H   0  0  0  0  0  0  0  0  0  0  0  0
  154.6289  141.2058  160.7221 H   0  0  0  0  0  0  0  0  0  0  0  0
  148.0624  137.3469  153.7046 H   0  0  0  0  0  0  0  0  0  0  0  0
  149.8088  143.1145  156.2171 H   0  0  0  0  0  0  0  0  0  0  0  0
  1  2  1  0  0  0  0
  1 23  1  0  0  0  0
  1 24  1  0  0  0  0
  1 25  1  0  0  0  0
  2 21  1  0  0  0  0
  2  3  2  0  0  0  0
  3  4  1  0  0  0  0
  3 26  1  0  0  0  0
  4 19  2  0  0  0  0
  4  5  1  0  0  0  0
  5  6  2  0  0  0  0
  5 45  1  0  0  0  0
  6  7  1  0  0  0  0
  6 27  1  0  0  0  0
  7  8  1  0  0  0  0
  7 19  1  0  0  0  0
  8  9  1  0  0  0  0
  8 28  1  0  0  0  0
  8 29  1  0  0  0  0
  9 10  1  0  0  0  0
  9 11  1  0  0  0  0
  9 30  1  0  0  0  0
 10 31  1  0  0  0  0
 11 12  1  0  0  0  0
 11 32  1  0  0  0  0
 11 33  1  0  0  0  0
 12 13  1  0  0  0  0
 12 34  1  0  0  0  0
 12 44  1  0  0  0  0
 13 14  1  0  0  0  0
 13 35  1  0  0  0  0
 13 36  1  0  0  0  0
 14 18  1  0  0  0  0
 14 15  2  0  0  0  0
 15 16  1  0  0  0  0
 15 37  1  0  0  0  0
 16 17  2  0  0  0  0
 16 38  1  0  0  0  0
 17 18  1  0  0  0  0
 17 39  1  0  0  0  0
 19 20  1  0  0  0  0
 20 21  2  0  0  0  0
 20 40  1  0  0  0  0
 21 22  1  0  0  0  0
 22 41  1  0  0  0  0
 22 42  1  0  0  0  0
 22 43  1  0  0  0  0
M  CHG  1   5   1
M  CHG  1  12   1
M  END
> <s_m_source_file>
AV-unprocessed.smi

> <i_m_source_file_index>
1224

> <i_lp_mmshare_version>
43012

> <i_f3d_flags>
0

> <s_epik_input>
W0NIM11jKFtjSF0xKWMoW0NIM10pW2NIXWMoYzEyKW4oW2NIXW4yKVtDSDJdW0NASF0oW09IXSlbQ0gyXVtOSF1bQ0gyXWMzW2NIXVtjSF1bY0hdczM=

> <s_epik_cmdline>
J2VwaWtfcHl0aG9uJywgJy1waCcsICc3LjAnLCAnLXRuJywgJzgnLCAnLW1hJywgJzIwMCcsICctbWV0YWxfYmluZGluZycsICctaW1hZScsICc8aW5maWxlLm1hZT4nLCAnLW9tYWUnLCAnPG91dGZpbGUubWFlPic=

> <r_epik_Ionization_Penalty>
1.2222

> <r_epik_Ionization_Penalty_Charging>
1.2222

> <r_epik_Ionization_Penalty_Neutral>
3.40394e-06

> <r_epik_State_Penalty>
1.23781

> <r_epik_Charging_Adjusted_Penalty>
2.46001

> <i_epik_Tot_Q>
2

> <i_epik_Tot_abs_Q>
2

> <r_epik_Metal_State_Penalty>
5.24642

> <b_epik_Metal_Only>
0

> <s_lp_Force_Field>
OPLS_2005

> <r_lp_Energy>
17.2404

> <b_lp_Chiralities_Consistent>
1

> <s_lp_Variant>
AV-unprocessed.smi:1224-4

> <Gold.Version>
5.8.1

> <Gold.Id.Protein>
6NUR|6NUR_protein|mol2

> <Gold.PLP.Fitness>
69.5950

> <Gold.PLP.PLP>
-50.7320

> <Gold.PLP.part.hbond>
-4.3893

> <Gold.PLP.part.metal>
0.0000

> <Gold.PLP.part.buried>
-7.0577

> <Gold.PLP.part.nonpolar>
-39.4024

> <Gold.PLP.part.repulsive>
0.1580

> <Gold.PLP.ligand.clash>
0.0000

> <Gold.PLP.ligand.torsion>
0.2122

> <Gold.PLP.Chemscore.Hbond>
6.4081

> <Gold.PLP.Chemscore.CHOScore>
0.0000

> <Gold.PLP.Chemscore.Metal>
0.0000

> <Gold.Chemscore.Hbonds>
donor molecule, donor type, donor heavy atom, donor atom, acceptor molecule, acceptor atom, score
      L1  H     5    45       P1  8028  2.00
      L1  H    12    44       P1  7948  0.37

> <Gold.PLP.Chemscore.Internal.Correction>
0.0632

> <Gold.Rescore>
     Score         DG    S(hbond)    S(metal)    S(lipo)     H(rot)  DE(clash)    DE(int)     intcor
     23.92     -24.42       2.97        0.00     131.95       2.50       0.15       0.35       ----

> <Gold.Chemscore.Fitness>
23.9170

> <Gold.Chemscore.DG>
-24.4192

> <Gold.Chemscore.ZeroCoef>
-5.4800

> <Gold.Chemscore.Hbond>
2.9678

> <Gold.Chemscore.Metal>
0.0000

> <Gold.Chemscore.Lipo>
131.9459

> <Gold.Chemscore.Internal_Hbond>
0.0000

> <Gold.Chemscore.DEClash>
0.1496

> <Gold.Chemscore.DEInternal>
0.3526

> <Gold.Chemscore.Rot>
2.5042

> <Gold.Chemscore.Internal.Correction>
   9.000000E+99

> <Gold.Chemscore.Hbonds>
donor molecule, donor type, donor heavy atom, donor atom, acceptor molecule, acceptor atom, score
      L1  H     5    45       P1  8028  0.99
      L1  H    12    44       P1  7948  0.19

> <Gold.Chemscore.Hbond.Weighted>
-9.9123

> <Gold.Chemscore.Metal.Weighted>
-0.0000

> <Gold.Chemscore.Lipo.Weighted>
-15.4377

> <Gold.Chemscore.Internal_Hbond.Weighted>
0.0000

> <Gold.Chemscore.DEClash.Weighted>
0.1496

> <Gold.Chemscore.DEInternal.Weighted>
0.3526

> <Gold.Chemscore.Rot.Weighted>
6.4108

> <Gold.Chemscore.Internal.Correction.Weighted>
   9.000000E+99

> <Gold.Protein.RotatedTorsions>
[ 6907 6896 6895 6894 ] final -148.84 input  -60.11 | X-H torsion
[ 7974 7965 7964 7962 ] final -111.22 input  175.53 | X-H torsion
[ 8008 7997 7996 7995 ] final  167.22 input   59.86 | X-H torsion
[ 10167 10162 10161 10158 ] final -172.03 input  -65.29 | X-H torsion
[ 10718 10713 10712 10709 ] final  -51.82 input   66.30 | X-H torsion
[ 10763 10752 10751 10750 ] final  -77.91 input  -60.55 | X-H torsion
[ 11005 11000 10999 10996 ] final   12.57 input  -57.11 | X-H torsion

> <Gold.Protein.ActiveResidues>
 VAL166  LYS551  ARG553  GLY616  TRP617  ASP618  TYR619  PRO620  LYS621  CYS622 
 ASP623  PHE694  ASN695  SER759  ASP760  ASP761  ALA762  ILE779  LEU786  VAL792 
 PHE793  MET794  SER795  GLU796  ALA797  LYS798  CYS799  TRP800  GLU811  SER814 

> <Gold.Protein.RotatedAtoms>
  151.1755  133.4757  159.2593 H   0  0  0  0  0  0  0  0  0  0  0  0  # atno 6907 bound_to 6896
  151.1312  135.0131  159.8593 H   0  0  0  0  0  0  0  0  0  0  0  0  # atno 6908 bound_to 6896
  152.5460  134.1658  159.8629 H   0  0  0  0  0  0  0  0  0  0  0  0  # atno 6909 bound_to 6896
  145.1587  140.8867  143.3604 H   0  0  0  0  0  0  0  0  0  0  0  0  # atno 7974 bound_to 7965
  156.1653  140.1623  156.8543 H   0  0  0  0  0  0  0  0  0  0  0  0  # atno 8008 bound_to 7997
  154.5201  140.0780  156.8190 H   0  0  0  0  0  0  0  0  0  0  0  0  # atno 8009 bound_to 7997
  155.3625  140.3396  155.4243 H   0  0  0  0  0  0  0  0  0  0  0  0  # atno 8010 bound_to 7997
  139.5768  144.1514  152.1461 H   0  0  0  0  0  0  0  0  0  0  0  0  # atno 10167 bound_to 10162
  156.1676  130.4149  149.9696 H   0  0  0  0  0  0  0  0  0  0  0  0  # atno 10718 bound_to 10713
  154.5190  135.5748  153.6665 H   0  0  0  0  0  0  0  0  0  0  0  0  # atno 10763 bound_to 10752
  152.9913  135.6177  154.2779 H   0  0  0  0  0  0  0  0  0  0  0  0  # atno 10764 bound_to 10752
  154.2699  135.2853  155.2722 H   0  0  0  0  0  0  0  0  0  0  0  0  # atno 10765 bound_to 10752
  140.4905  134.0845  155.7770 H   0  0  0  0  0  0  0  0  0  0  0  0  # atno 11005 bound_to 11000
  145.0354  139.3305  143.6003 LP  0  0  0  0  0  0  0  0  0  0  0  0  # atno 17320 bound_to 7965
  146.3485  139.9707  142.8706 LP  0  0  0  0  0  0  0  0  0  0  0  0  # atno 17321 bound_to 7965
  140.1058  144.5500  150.6958 LP  0  0  0  0  0  0  0  0  0  0  0  0  # atno 17342 bound_to 10162
  140.7050  143.2461  151.4753 LP  0  0  0  0  0  0  0  0  0  0  0  0  # atno 17343 bound_to 10162
  156.7506  130.9114  151.3637 LP  0  0  0  0  0  0  0  0  0  0  0  0  # atno 17370 bound_to 10713
  157.6779  130.9112  150.0196 LP  0  0  0  0  0  0  0  0  0  0  0  0  # atno 17371 bound_to 10713
  141.1486  133.9009  157.2153 LP  0  0  0  0  0  0  0  0  0  0  0  0  # atno 17394 bound_to 11000
  139.9772  135.0110  156.9661 LP  0  0  0  0  0  0  0  0  0  0  0  0  # atno 17395 bound_to 11000

$$$$
