AV-unprocessed.smi:89|AV-procd|sdf|827|dock4
  -GOLD-   2262017243D 1   1.00000     0.00000
 Structure written by MMmdl.
 54 56  0  0  0  0  0  0  0  0  1 V2000
  147.1248  141.1719  154.2624 C   0  0  0  0  0  0  0  0  0  0  0  0
  148.2174  140.8062  155.2807 C   0  0  0  0  0  0  0  0  0  0  0  0
  148.7701  139.4638  155.0887 N   0  0  0  0  0  0  0  0  0  0  0  0
  147.8594  138.4599  155.0491 C   0  0  0  0  0  0  0  0  0  0  0  0
  147.8013  137.6336  156.1235 N   0  0  0  0  0  0  0  0  0  0  0  0
  146.9341  136.6182  156.1440 C   0  0  0  0  0  0  0  0  0  0  0  0
  146.0568  136.2517  155.2079 N   0  0  0  0  0  0  0  0  0  0  0  0
  146.1224  137.0697  154.1186 C   0  0  0  0  0  0  0  0  0  0  0  0
  146.9856  138.1903  153.9569 C   0  0  0  0  0  0  0  0  0  0  0  0
  146.7605  138.7840  152.7208 N   0  0  0  0  0  0  0  0  0  0  0  0
  145.8197  138.0573  152.1835 C   0  0  0  0  0  0  0  0  0  0  0  0
  145.3895  136.9953  152.9467 N   0  0  0  0  0  0  0  0  0  0  0  0
  144.3700  136.0213  152.5869 C   0  0  0  0  0  0  0  0  0  0  0  0
  144.7036  135.1655  151.3356 C   0  0  1  0  0  0  0  0  0  0  0  0
  144.6013  136.0094  150.2052 O   0  0  0  0  0  0  0  0  0  0  0  0
  146.0856  134.5157  151.3640 C   0  0  0  0  0  0  0  0  0  0  0  0
  145.8351  133.0881  151.8649 C   0  0  0  0  0  0  0  0  0  0  0  0
  144.4228  132.9270  151.9312 O   0  0  0  0  0  0  0  0  0  0  0  0
  143.8050  133.9393  151.1515 C   0  0  0  0  0  0  0  0  0  0  0  0
  150.0541  139.1709  155.7465 C   0  0  1  0  0  0  0  0  0  0  0  0
  151.2237  139.0730  154.7486 C   0  0  0  0  0  0  0  0  0  0  0  0
  150.4077  140.1342  156.9052 C   0  0  0  0  0  0  0  0  0  0  0  0
  151.7857  139.5186  157.9825 S   0  0  0  0  0  0  0  0  0  0  0  0
  151.3410  138.2707  158.6213 O   0  0  0  0  0  0  0  0  0  0  0  0
  153.0481  139.5476  157.2277 O   0  0  0  0  0  0  0  0  0  0  0  0
  151.8712  140.8159  159.2948 C   0  0  0  0  0  0  0  0  0  0  0  0
  153.2557  141.4685  159.3801 C   0  0  0  0  0  0  0  0  0  0  0  0
  146.8084  142.2063  154.3951 H   0  0  0  0  0  0  0  0  0  0  0  0
  146.2395  140.5449  154.3709 H   0  0  0  0  0  0  0  0  0  0  0  0
  147.4907  141.0657  153.2406 H   0  0  0  0  0  0  0  0  0  0  0  0
  149.0300  141.5276  155.1908 H   0  0  0  0  0  0  0  0  0  0  0  0
  147.8293  140.9129  156.2931 H   0  0  0  0  0  0  0  0  0  0  0  0
  146.9473  136.0119  157.0378 H   0  0  0  0  0  0  0  0  0  0  0  0
  145.4187  138.2717  151.2037 H   0  0  0  0  0  0  0  0  0  0  0  0
  144.1997  135.3746  153.4488 H   0  0  0  0  0  0  0  0  0  0  0  0
  143.4357  136.5616  152.4266 H   0  0  0  0  0  0  0  0  0  0  0  0
  144.7705  135.4946  149.4309 H   0  0  0  0  0  0  0  0  0  0  0  0
  146.5045  134.4604  150.3577 H   0  0  0  0  0  0  0  0  0  0  0  0
  146.8028  135.0614  151.9770 H   0  0  0  0  0  0  0  0  0  0  0  0
  146.2633  132.3540  151.1818 H   0  0  0  0  0  0  0  0  0  0  0  0
  146.2673  132.9226  152.8519 H   0  0  0  0  0  0  0  0  0  0  0  0
  142.7696  134.1123  151.4446 H   0  0  0  0  0  0  0  0  0  0  0  0
  143.8046  133.6098  150.1108 H   0  0  0  0  0  0  0  0  0  0  0  0
  149.9426  138.1791  156.1840 H   0  0  0  0  0  0  0  0  0  0  0  0
  152.1321  138.7358  155.2484 H   0  0  0  0  0  0  0  0  0  0  0  0
  151.4440  140.0381  154.2925 H   0  0  0  0  0  0  0  0  0  0  0  0
  151.0149  138.3621  153.9493 H   0  0  0  0  0  0  0  0  0  0  0  0
  150.7176  141.1025  156.5136 H   0  0  0  0  0  0  0  0  0  0  0  0
  149.5425  140.3364  157.5360 H   0  0  0  0  0  0  0  0  0  0  0  0
  151.1010  141.5607  159.0951 H   0  0  0  0  0  0  0  0  0  0  0  0
  151.6239  140.3395  160.2436 H   0  0  0  0  0  0  0  0  0  0  0  0
  153.2958  142.1770  160.2075 H   0  0  0  0  0  0  0  0  0  0  0  0
  153.4948  142.0172  158.4699 H   0  0  0  0  0  0  0  0  0  0  0  0
  154.0351  140.7239  159.5434 H   0  0  0  0  0  0  0  0  0  0  0  0
  1  2  1  0  0  0  0
  1 28  1  0  0  0  0
  1 29  1  0  0  0  0
  1 30  1  0  0  0  0
  2  3  1  0  0  0  0
  2 31  1  0  0  0  0
  2 32  1  0  0  0  0
  3  4  1  0  0  0  0
  3 20  1  0  0  0  0
  4  9  1  0  0  0  0
  4  5  2  0  0  0  0
  5  6  1  0  0  0  0
  6  7  2  0  0  0  0
  6 33  1  0  0  0  0
  7  8  1  0  0  0  0
  8 12  1  0  0  0  0
  8  9  2  0  0  0  0
  9 10  1  0  0  0  0
 10 11  2  0  0  0  0
 11 12  1  0  0  0  0
 11 34  1  0  0  0  0
 12 13  1  0  0  0  0
 13 14  1  0  0  0  0
 13 35  1  0  0  0  0
 13 36  1  0  0  0  0
 14 19  1  0  0  0  0
 14 15  1  0  0  0  0
 14 16  1  0  0  0  0
 15 37  1  0  0  0  0
 16 17  1  0  0  0  0
 16 38  1  0  0  0  0
 16 39  1  0  0  0  0
 17 18  1  0  0  0  0
 17 40  1  0  0  0  0
 17 41  1  0  0  0  0
 18 19  1  0  0  0  0
 19 42  1  0  0  0  0
 19 43  1  0  0  0  0
 20 21  1  0  0  0  0
 20 22  1  0  0  0  0
 20 44  1  0  0  0  0
 21 45  1  0  0  0  0
 21 46  1  0  0  0  0
 21 47  1  0  0  0  0
 22 23  1  0  0  0  0
 22 48  1  0  0  0  0
 22 49  1  0  0  0  0
 23 24  2  0  0  0  0
 23 25  2  0  0  0  0
 23 26  1  0  0  0  0
 26 27  1  0  0  0  0
 26 50  1  0  0  0  0
 26 51  1  0  0  0  0
 27 52  1  0  0  0  0
 27 53  1  0  0  0  0
 27 54  1  0  0  0  0
M  END
> <s_m_source_file>
AV-unprocessed.smi

> <i_m_source_file_index>
89

> <i_lp_mmshare_version>
43012

> <i_f3d_flags>
0

> <s_epik_input>
W0NIM11bQ0gyXVMoPU8pKD1PKVtDSDJdW0NAQEhdKFtDSDNdKU4oW0NIMl1bQ0gzXSljKG5bY0hdbjEpYyhjMTIpbltjSF1uMltDSDJdW0NAQF0zKFtPSF0pW0NIMl1bQ0gyXU9bQ0gyXTM=

> <s_epik_cmdline>
J2VwaWtfcHl0aG9uJywgJy1waCcsICc3LjAnLCAnLXRuJywgJzgnLCAnLW1hJywgJzIwMCcsICctbWV0YWxfYmluZGluZycsICctaW1hZScsICc8aW5maWxlLm1hZT4nLCAnLW9tYWUnLCAnPG91dGZpbGUubWFlPic=

> <r_lp_tautomer_probability>
1

> <r_epik_Ionization_Penalty>
0.00103773

> <r_epik_Ionization_Penalty_Charging>
0

> <r_epik_Ionization_Penalty_Neutral>
0.00103773

> <r_epik_State_Penalty>
0.000558914

> <r_epik_Charging_Adjusted_Penalty>
0.000558914

> <i_epik_Tot_Q>
0

> <i_epik_Tot_abs_Q>
0

> <r_epik_Metal_State_Penalty>
-0

> <b_epik_Metal_Only>
0

> <s_lp_Force_Field>
OPLS_2005

> <r_lp_Energy>
30.4714

> <b_lp_Chiralities_Consistent>
1

> <s_lp_Variant>
AV-unprocessed.smi:89-3

> <Gold.Version>
5.8.1

> <Gold.Id.Protein>
6NUR|6NUR_protein|mol2

> <Gold.PLP.Fitness>
44.0304

> <Gold.PLP.PLP>
-38.0266

> <Gold.PLP.part.hbond>
-3.0000

> <Gold.PLP.part.metal>
0.0000

> <Gold.PLP.part.buried>
-5.0445

> <Gold.PLP.part.nonpolar>
-31.7406

> <Gold.PLP.part.repulsive>
1.8826

> <Gold.PLP.ligand.clash>
0.0000

> <Gold.PLP.ligand.torsion>
2.1588

> <Gold.PLP.Chemscore.Hbond>
2.0000

> <Gold.PLP.Chemscore.CHOScore>
0.9612

> <Gold.PLP.Chemscore.Metal>
0.0000

> <Gold.Chemscore.Hbonds>
donor molecule, donor type, donor heavy atom, donor atom, acceptor molecule, acceptor atom, score
      L1  H    15    37       P1  7921  0.21
      P1  H  7997  8009       L1    25  1.00
      L1  C    11    34       P1 10171  1.00

> <Gold.PLP.Chemscore.Internal.Correction>
1.4379

> <Gold.Rescore>
     Score         DG    S(hbond)    S(metal)    S(lipo)     H(rot)  DE(clash)    DE(int)     intcor
      9.48     -12.12       1.99        0.00      75.49       3.45       0.36       2.28       ----

> <Gold.Chemscore.Fitness>
9.4759

> <Gold.Chemscore.DG>
-12.1228

> <Gold.Chemscore.ZeroCoef>
-5.4800

> <Gold.Chemscore.Hbond>
1.9906

> <Gold.Chemscore.Metal>
0.0000

> <Gold.Chemscore.Lipo>
75.4908

> <Gold.Chemscore.Internal_Hbond>
0.0000

> <Gold.Chemscore.DEClash>
0.3633

> <Gold.Chemscore.DEInternal>
2.2836

> <Gold.Chemscore.Rot>
3.4524

> <Gold.Chemscore.Internal.Correction>
   9.000000E+99

> <Gold.Chemscore.Hbonds>
donor molecule, donor type, donor heavy atom, donor atom, acceptor molecule, acceptor atom, score
      L1  H    15    37       P1  7921  0.20
      P1  H  7997  8009       L1    25  0.94

> <Gold.Chemscore.Hbond.Weighted>
-6.6486

> <Gold.Chemscore.Metal.Weighted>
-0.0000

> <Gold.Chemscore.Lipo.Weighted>
-8.8324

> <Gold.Chemscore.Internal_Hbond.Weighted>
0.0000

> <Gold.Chemscore.DEClash.Weighted>
0.3633

> <Gold.Chemscore.DEInternal.Weighted>
2.2836

> <Gold.Chemscore.Rot.Weighted>
8.8382

> <Gold.Chemscore.Internal.Correction.Weighted>
   9.000000E+99

> <Gold.Protein.RotatedTorsions>
[ 6907 6896 6895 6894 ] final  -15.32 input  -60.11 | X-H torsion
[ 7974 7965 7964 7962 ] final  114.60 input  175.53 | X-H torsion
[ 8008 7997 7996 7995 ] final  178.19 input   59.86 | X-H torsion
[ 10167 10162 10161 10158 ] final  139.47 input  -65.29 | X-H torsion
[ 10718 10713 10712 10709 ] final    2.45 input   66.30 | X-H torsion
[ 10763 10752 10751 10750 ] final   27.97 input  -60.55 | X-H torsion
[ 11005 11000 10999 10996 ] final   55.72 input  -57.11 | X-H torsion

> <Gold.Protein.ActiveResidues>
 VAL166  LYS551  ARG553  GLY616  TRP617  ASP618  TYR619  PRO620  LYS621  CYS622 
 ASP623  PHE694  ASN695  SER759  ASP760  ASP761  ALA762  ILE779  LEU786  VAL792 
 PHE793  MET794  SER795  GLU796  ALA797  LYS798  CYS799  TRP800  GLU811  SER814 

> <Gold.Protein.RotatedAtoms>
  151.3258  135.0830  159.9321 H   0  0  0  0  0  0  0  0  0  0  0  0  # atno 6907 bound_to 6896
  152.5246  133.9592  159.7719 H   0  0  0  0  0  0  0  0  0  0  0  0  # atno 6908 bound_to 6896
  150.9922  133.6086  159.2736 H   0  0  0  0  0  0  0  0  0  0  0  0  # atno 6909 bound_to 6896
  145.2024  139.2946  143.4311 H   0  0  0  0  0  0  0  0  0  0  0  0  # atno 7974 bound_to 7965
  156.0574  140.1339  156.9981 H   0  0  0  0  0  0  0  0  0  0  0  0  # atno 8008 bound_to 7997
  154.4464  140.0998  156.6536 H   0  0  0  0  0  0  0  0  0  0  0  0  # atno 8009 bound_to 7997
  155.5431  140.3461  155.4453 H   0  0  0  0  0  0  0  0  0  0  0  0  # atno 8010 bound_to 7997
  139.5078  144.6293  151.5859 H   0  0  0  0  0  0  0  0  0  0  0  0  # atno 10167 bound_to 10162
  156.8632  130.5594  149.5661 H   0  0  0  0  0  0  0  0  0  0  0  0  # atno 10718 bound_to 10713
  153.0522  135.6524  154.0666 H   0  0  0  0  0  0  0  0  0  0  0  0  # atno 10763 bound_to 10752
  154.0352  135.2908  155.3364 H   0  0  0  0  0  0  0  0  0  0  0  0  # atno 10764 bound_to 10752
  154.6816  135.5317  153.8338 H   0  0  0  0  0  0  0  0  0  0  0  0  # atno 10765 bound_to 10752
  140.0585  134.5636  155.9180 H   0  0  0  0  0  0  0  0  0  0  0  0  # atno 11005 bound_to 11000
  146.3415  140.2273  142.8592 LP  0  0  0  0  0  0  0  0  0  0  0  0  # atno 17320 bound_to 7965
  144.9935  140.8568  143.5325 LP  0  0  0  0  0  0  0  0  0  0  0  0  # atno 17321 bound_to 7965
  140.6020  143.9592  150.6393 LP  0  0  0  0  0  0  0  0  0  0  0  0  # atno 17342 bound_to 10162
  140.2807  143.3391  152.1153 LP  0  0  0  0  0  0  0  0  0  0  0  0  # atno 17343 bound_to 10162
  156.0765  130.5786  150.9484 LP  0  0  0  0  0  0  0  0  0  0  0  0  # atno 17370 bound_to 10713
  157.6238  131.0927  150.8573 LP  0  0  0  0  0  0  0  0  0  0  0  0  # atno 17371 bound_to 10713
  141.1962  133.6591  156.5683 LP  0  0  0  0  0  0  0  0  0  0  0  0  # atno 17394 bound_to 11000
  140.3807  134.7526  157.4659 LP  0  0  0  0  0  0  0  0  0  0  0  0  # atno 17395 bound_to 11000

$$$$
