AV-unprocessed.smi:2107|AV-procd|sdf|8601|dock4
  -GOLD-   2272011343D 1   1.00000     0.00000
 Structure written by MMmdl.
 47 48  0  0  0  0  0  0  0  0  2 V2000
  144.5866  134.6825  162.7471 C   0  0  0  0  0  0  0  0  0  0  0  0
  145.9079  135.4700  162.7241 C   0  0  0  0  0  0  0  0  0  0  0  0
  146.7306  135.1722  161.5358 N   0  0  0  0  0  0  0  0  0  0  0  0
  147.4969  133.9095  161.5745 C   0  0  0  0  0  0  0  0  0  0  0  0
  146.6050  132.6598  161.5644 C   0  0  0  0  0  0  0  0  0  0  0  0
  147.2848  136.4903  160.5499 S   0  0  0  0  0  0  0  0  0  0  0  0
  146.2092  137.4863  160.4303 O   0  0  0  0  0  0  0  0  0  0  0  0
  148.6314  136.8865  160.9893 O   0  0  0  0  0  0  0  0  0  0  0  0
  147.4252  135.6819  159.0343 N   0  0  0  0  0  0  0  0  0  0  0  0
  148.2233  136.2533  157.9495 C   0  0  0  0  0  0  0  0  0  0  0  0
  148.0429  135.5524  156.6061 C   0  0  0  0  0  0  0  0  0  0  0  0
  147.2528  134.3811  156.5573 C   0  0  0  0  0  0  0  0  0  0  0  0
  147.0420  133.7251  155.3290 C   0  0  0  0  0  0  0  0  0  0  0  0
  147.6273  134.2547  154.1649 C   0  0  0  0  0  0  0  0  0  0  0  0
  148.3784  135.3729  154.2431 N   0  3  0  0  0  0  0  0  0  0  0  0
  148.6144  136.0428  155.3988 C   0  0  0  0  0  0  0  0  0  0  0  0
  149.4233  137.1929  155.3520 N   0  0  0  0  0  0  0  0  0  0  0  0
  150.7922  136.9222  154.9336 C   0  0  0  0  0  0  0  0  0  0  0  0
  151.6586  138.1768  155.1346 C   0  0  0  0  0  0  0  0  0  0  0  0
  151.0805  139.2722  154.4306 O   0  0  0  0  0  0  0  0  0  0  0  0
  149.7724  139.5826  154.9016 C   0  0  0  0  0  0  0  0  0  0  0  0
  148.8506  138.3676  154.7021 C   0  0  0  0  0  0  0  0  0  0  0  0
  143.9873  134.9726  163.6102 H   0  0  0  0  0  0  0  0  0  0  0  0
  144.7594  133.6089  162.8229 H   0  0  0  0  0  0  0  0  0  0  0  0
  143.9835  134.8578  161.8577 H   0  0  0  0  0  0  0  0  0  0  0  0
  145.7052  136.5403  162.7768 H   0  0  0  0  0  0  0  0  0  0  0  0
  146.4869  135.2262  163.6151 H   0  0  0  0  0  0  0  0  0  0  0  0
  148.1783  133.8795  160.7236 H   0  0  0  0  0  0  0  0  0  0  0  0
  148.1300  133.8960  162.4600 H   0  0  0  0  0  0  0  0  0  0  0  0
  147.2097  131.7610  161.6868 H   0  0  0  0  0  0  0  0  0  0  0  0
  146.0694  132.5569  160.6214 H   0  0  0  0  0  0  0  0  0  0  0  0
  145.8760  132.6747  162.3740 H   0  0  0  0  0  0  0  0  0  0  0  0
  146.6118  135.1340  158.7544 H   0  0  0  0  0  0  0  0  0  0  0  0
  147.9580  137.3038  157.8374 H   0  0  0  0  0  0  0  0  0  0  0  0
  149.2720  136.2356  158.2477 H   0  0  0  0  0  0  0  0  0  0  0  0
  146.8004  133.9867  157.4555 H   0  0  0  0  0  0  0  0  0  0  0  0
  146.4371  132.8315  155.2811 H   0  0  0  0  0  0  0  0  0  0  0  0
  147.5191  133.8217  153.1809 H   0  0  0  0  0  0  0  0  0  0  0  0
  151.2104  136.0873  155.4950 H   0  0  0  0  0  0  0  0  0  0  0  0
  150.7945  136.6319  153.8821 H   0  0  0  0  0  0  0  0  0  0  0  0
  151.7517  138.4196  156.1946 H   0  0  0  0  0  0  0  0  0  0  0  0
  152.6662  138.0027  154.7568 H   0  0  0  0  0  0  0  0  0  0  0  0
  149.8147  139.8740  155.9512 H   0  0  0  0  0  0  0  0  0  0  0  0
  149.3887  140.4404  154.3494 H   0  0  0  0  0  0  0  0  0  0  0  0
  148.7250  138.1769  153.6353 H   0  0  0  0  0  0  0  0  0  0  0  0
  147.8631  138.5751  155.1166 H   0  0  0  0  0  0  0  0  0  0  0  0
  148.7925  135.7335  153.3835 H   0  0  0  0  0  0  0  0  0  0  0  0
  1  2  1  0  0  0  0
  1 23  1  0  0  0  0
  1 24  1  0  0  0  0
  1 25  1  0  0  0  0
  2  3  1  0  0  0  0
  2 26  1  0  0  0  0
  2 27  1  0  0  0  0
  3  4  1  0  0  0  0
  3  6  1  0  0  0  0
  4  5  1  0  0  0  0
  4 28  1  0  0  0  0
  4 29  1  0  0  0  0
  5 30  1  0  0  0  0
  5 31  1  0  0  0  0
  5 32  1  0  0  0  0
  6  7  2  0  0  0  0
  6  8  2  0  0  0  0
  6  9  1  0  0  0  0
  9 10  1  0  0  0  0
  9 33  1  0  0  0  0
 10 11  1  0  0  0  0
 10 34  1  0  0  0  0
 10 35  1  0  0  0  0
 11 16  1  0  0  0  0
 11 12  2  0  0  0  0
 12 13  1  0  0  0  0
 12 36  1  0  0  0  0
 13 14  2  0  0  0  0
 13 37  1  0  0  0  0
 14 15  1  0  0  0  0
 14 38  1  0  0  0  0
 15 16  2  0  0  0  0
 15 47  1  0  0  0  0
 16 17  1  0  0  0  0
 17 22  1  0  0  0  0
 17 18  1  0  0  0  0
 18 19  1  0  0  0  0
 18 39  1  0  0  0  0
 18 40  1  0  0  0  0
 19 20  1  0  0  0  0
 19 41  1  0  0  0  0
 19 42  1  0  0  0  0
 20 21  1  0  0  0  0
 21 22  1  0  0  0  0
 21 43  1  0  0  0  0
 21 44  1  0  0  0  0
 22 45  1  0  0  0  0
 22 46  1  0  0  0  0
M  CHG  1  15   1
M  END
> <s_m_source_file>
AV-unprocessed.smi

> <i_m_source_file_index>
2107

> <i_lp_mmshare_version>
43012

> <i_f3d_flags>
0

> <s_epik_input>
W0NIM11bQ0gyXU4oW0NIMl1bQ0gzXSlTKD1PKSg9TylbTkhdW0NIMl1jMVtjSF1bY0hdW2NIXW5jMU4yW0NIMl1bQ0gyXU9bQ0gyXVtDSDJdMg==

> <s_epik_cmdline>
J2VwaWtfcHl0aG9uJywgJy1waCcsICc3LjAnLCAnLXRuJywgJzgnLCAnLW1hJywgJzIwMCcsICctbWV0YWxfYmluZGluZycsICctaW1hZScsICc8aW5maWxlLm1hZT4nLCAnLW9tYWUnLCAnPG91dGZpbGUubWFlPic=

> <r_lp_tautomer_probability>
0.999994

> <r_epik_Ionization_Penalty>
2.66893

> <r_epik_Ionization_Penalty_Charging>
2.61323

> <r_epik_Ionization_Penalty_Neutral>
0.0557011

> <r_epik_State_Penalty>
2.68492

> <r_epik_Charging_Adjusted_Penalty>
5.29815

> <i_epik_Tot_Q>
1

> <i_epik_Tot_abs_Q>
1

> <r_epik_Metal_State_Penalty>
5.63236

> <b_epik_Metal_Only>
0

> <s_lp_Force_Field>
OPLS_2005

> <r_lp_Energy>
23.5693

> <b_lp_Chiralities_Consistent>
1

> <s_lp_Variant>
AV-unprocessed.smi:2107-2

> <Gold.Version>
5.8.1

> <Gold.Id.Protein>
6NUR|6NUR_protein|mol2

> <Gold.PLP.Fitness>
43.0189

> <Gold.PLP.PLP>
-28.6899

> <Gold.PLP.part.hbond>
-4.0353

> <Gold.PLP.part.metal>
0.0000

> <Gold.PLP.part.buried>
-5.2257

> <Gold.PLP.part.nonpolar>
-20.7468

> <Gold.PLP.part.repulsive>
0.2837

> <Gold.PLP.ligand.clash>
0.0000

> <Gold.PLP.ligand.torsion>
2.2731

> <Gold.PLP.Chemscore.Hbond>
5.0000

> <Gold.PLP.Chemscore.CHOScore>
0.0000

> <Gold.PLP.Chemscore.Metal>
0.0000

> <Gold.Chemscore.Hbonds>
donor molecule, donor type, donor heavy atom, donor atom, acceptor molecule, acceptor atom, score
      L1  H    15    47       P1  7948  2.00
      P1  H  6931  6943       L1     8  1.00
      P1  H  6934  6947       L1     7  1.00
      P1  H  7989  7998       L1    20  1.00

> <Gold.PLP.Chemscore.Internal.Correction>
3.8753

> <Gold.Rescore>
     Score         DG    S(hbond)    S(metal)    S(lipo)     H(rot)  DE(clash)    DE(int)     intcor
     18.06     -20.36       3.64        0.00      61.85       1.77       0.00       2.30       ----

> <Gold.Chemscore.Fitness>
18.0600

> <Gold.Chemscore.DG>
-20.3557

> <Gold.Chemscore.ZeroCoef>
-5.4800

> <Gold.Chemscore.Hbond>
3.6424

> <Gold.Chemscore.Metal>
0.0000

> <Gold.Chemscore.Lipo>
61.8484

> <Gold.Chemscore.Internal_Hbond>
0.0000

> <Gold.Chemscore.DEClash>
0.0000

> <Gold.Chemscore.DEInternal>
2.2957

> <Gold.Chemscore.Rot>
1.7680

> <Gold.Chemscore.Internal.Correction>
   9.000000E+99

> <Gold.Chemscore.Hbonds>
donor molecule, donor type, donor heavy atom, donor atom, acceptor molecule, acceptor atom, score
      L1  H    15    47       P1  7948  0.95
      P1  H  6931  6943       L1     8  0.97
      P1  H  6934  6947       L1     7  0.26
      P1  H  7989  7998       L1    20  0.50

> <Gold.Chemscore.Hbond.Weighted>
-12.1655

> <Gold.Chemscore.Metal.Weighted>
-0.0000

> <Gold.Chemscore.Lipo.Weighted>
-7.2363

> <Gold.Chemscore.Internal_Hbond.Weighted>
0.0000

> <Gold.Chemscore.DEClash.Weighted>
0.0000

> <Gold.Chemscore.DEInternal.Weighted>
2.2957

> <Gold.Chemscore.Rot.Weighted>
4.5261

> <Gold.Chemscore.Internal.Correction.Weighted>
   9.000000E+99

> <Gold.Protein.RotatedTorsions>
[ 6907 6896 6895 6894 ] final   54.22 input  -60.11 | X-H torsion
[ 7974 7965 7964 7962 ] final   84.27 input  175.53 | X-H torsion
[ 8008 7997 7996 7995 ] final -132.58 input   59.86 | X-H torsion
[ 10167 10162 10161 10158 ] final  149.45 input  -65.29 | X-H torsion
[ 10718 10713 10712 10709 ] final  -66.58 input   66.30 | X-H torsion
[ 10763 10752 10751 10750 ] final  -33.41 input  -60.55 | X-H torsion
[ 11005 11000 10999 10996 ] final -133.60 input  -57.11 | X-H torsion

> <Gold.Protein.ActiveResidues>
 VAL166  LYS551  ARG553  GLY616  TRP617  ASP618  TYR619  PRO620  LYS621  CYS622 
 ASP623  PHE694  ASN695  SER759  ASP760  ASP761  ALA762  ILE779  LEU786  VAL792 
 PHE793  MET794  SER795  GLU796  ALA797  LYS798  CYS799  TRP800  GLU811  SER814 

> <Gold.Protein.RotatedAtoms>
  152.3417  134.7126  160.0261 H   0  0  0  0  0  0  0  0  0  0  0  0  # atno 6907 bound_to 6896
  151.7509  133.3322  159.3399 H   0  0  0  0  0  0  0  0  0  0  0  0  # atno 6908 bound_to 6896
  150.7483  134.6125  159.6138 H   0  0  0  0  0  0  0  0  0  0  0  0  # atno 6909 bound_to 6896
  145.6009  139.2352  143.2246 H   0  0  0  0  0  0  0  0  0  0  0  0  # atno 7974 bound_to 7965
  155.3313  140.0467  157.3042 H   0  0  0  0  0  0  0  0  0  0  0  0  # atno 8008 bound_to 7997
  154.5327  140.2262  155.8742 H   0  0  0  0  0  0  0  0  0  0  0  0  # atno 8009 bound_to 7997
  156.1804  140.3075  155.9144 H   0  0  0  0  0  0  0  0  0  0  0  0  # atno 8010 bound_to 7997
  139.4861  144.5600  151.7247 H   0  0  0  0  0  0  0  0  0  0  0  0  # atno 10167 bound_to 10162
  156.0604  130.4264  150.1729 H   0  0  0  0  0  0  0  0  0  0  0  0  # atno 10718 bound_to 10713
  153.8297  135.6867  153.4816 H   0  0  0  0  0  0  0  0  0  0  0  0  # atno 10763 bound_to 10752
  153.1518  135.4615  154.9646 H   0  0  0  0  0  0  0  0  0  0  0  0  # atno 10764 bound_to 10752
  154.7892  135.3295  154.7761 H   0  0  0  0  0  0  0  0  0  0  0  0  # atno 10765 bound_to 10752
  140.9066  134.1622  157.4421 H   0  0  0  0  0  0  0  0  0  0  0  0  # atno 11005 bound_to 11000
  146.1577  140.6834  142.9292 LP  0  0  0  0  0  0  0  0  0  0  0  0  # atno 17320 bound_to 7965
  144.7310  140.4672  143.6938 LP  0  0  0  0  0  0  0  0  0  0  0  0  # atno 17321 bound_to 7965
  140.5169  144.0940  150.6011 LP  0  0  0  0  0  0  0  0  0  0  0  0  # atno 17342 bound_to 10162
  140.3884  143.2765  152.0089 LP  0  0  0  0  0  0  0  0  0  0  0  0  # atno 17343 bound_to 10162
  156.9798  130.9861  151.3440 LP  0  0  0  0  0  0  0  0  0  0  0  0  # atno 17370 bound_to 10713
  157.5609  130.8245  149.8264 LP  0  0  0  0  0  0  0  0  0  0  0  0  # atno 17371 bound_to 10713
  139.8750  134.9919  156.5572 LP  0  0  0  0  0  0  0  0  0  0  0  0  # atno 17394 bound_to 11000
  140.8163  133.8389  155.8855 LP  0  0  0  0  0  0  0  0  0  0  0  0  # atno 17395 bound_to 11000

$$$$
