AV-unprocessed.smi:999|AV-procd|sdf|4354|dock9
  -GOLD-   22720 2253D 1   1.00000     0.00000
 Structure written by MMmdl.
 37 38  0  0  0  0  0  0  0  0  2 V2000
  152.8159  144.6529  158.4035 C   0  0  0  0  0  0  0  0  0  0  0  0
  151.8080  143.8418  159.2440 C   0  0  1  0  0  0  0  0  0  0  0  0
  150.9537  142.8879  158.3938 C   0  0  0  0  0  0  0  0  0  0  0  0
  149.9784  143.3040  157.7670 O   0  0  0  0  0  0  0  0  0  0  0  0
  151.3354  141.6009  158.3886 N   0  0  0  0  0  0  0  0  0  0  0  0
  150.6778  140.5230  157.6575 C   0  0  2  0  0  0  0  0  0  0  0  0
  151.3619  139.1729  157.9570 C   0  0  0  0  0  0  0  0  0  0  0  0
  150.7565  138.0342  157.1146 C   0  0  0  0  0  0  0  0  0  0  0  0
  150.8013  138.3347  155.5962 C   0  0  2  0  0  0  0  0  0  0  0  0
  152.2335  138.2704  155.0147 C   0  0  0  0  0  0  0  0  0  0  0  0
  153.0230  139.1964  155.3055 O   0  0  0  0  0  0  0  0  0  0  0  0
  152.5168  137.3135  154.2602 O   0  5  0  0  0  0  0  0  0  0  0  0
  150.1059  139.6899  155.3180 C   0  0  0  0  0  0  0  0  0  0  0  0
  150.7055  140.8393  156.1499 C   0  0  0  0  0  0  0  0  0  0  0  0
  152.4509  143.1120  160.3312 N   0  0  0  0  0  0  0  0  0  0  0  0
  152.3015  143.3108  161.6891 C   0  0  0  0  0  0  0  0  0  0  0  0
  153.0592  142.3720  162.3283 C   0  0  0  0  0  0  0  0  0  0  0  0
  153.6332  141.6209  161.2656 C   0  0  0  0  0  0  0  0  0  0  0  0
  153.2612  142.0585  160.0741 N   0  0  0  0  0  0  0  0  0  0  0  0
  152.3048  145.2439  157.6426 H   0  0  0  0  0  0  0  0  0  0  0  0
  153.5369  144.0123  157.8939 H   0  0  0  0  0  0  0  0  0  0  0  0
  153.3765  145.3456  159.0320 H   0  0  0  0  0  0  0  0  0  0  0  0
  151.1268  144.5604  159.7029 H   0  0  0  0  0  0  0  0  0  0  0  0
  152.1446  141.3457  158.9356 H   0  0  0  0  0  0  0  0  0  0  0  0
  149.6330  140.4638  157.9692 H   0  0  0  0  0  0  0  0  0  0  0  0
  152.4322  139.2484  157.7606 H   0  0  0  0  0  0  0  0  0  0  0  0
  151.2644  138.9301  159.0155 H   0  0  0  0  0  0  0  0  0  0  0  0
  151.2570  137.0929  157.3446 H   0  0  0  0  0  0  0  0  0  0  0  0
  149.7179  137.8889  157.4138 H   0  0  0  0  0  0  0  0  0  0  0  0
  150.2402  137.5543  155.0810 H   0  0  0  0  0  0  0  0  0  0  0  0
  150.1412  139.9402  154.2571 H   0  0  0  0  0  0  0  0  0  0  0  0
  149.0461  139.5967  155.5569 H   0  0  0  0  0  0  0  0  0  0  0  0
  150.1503  141.7573  155.9539 H   0  0  0  0  0  0  0  0  0  0  0  0
  151.7308  141.0294  155.8288 H   0  0  0  0  0  0  0  0  0  0  0  0
  151.6738  144.0967  162.0834 H   0  0  0  0  0  0  0  0  0  0  0  0
  153.1802  142.2379  163.3928 H   0  0  0  0  0  0  0  0  0  0  0  0
  154.3002  140.7736  161.3241 H   0  0  0  0  0  0  0  0  0  0  0  0
  1  2  1  0  0  0  0
  1 20  1  0  0  0  0
  1 21  1  0  0  0  0
  1 22  1  0  0  0  0
  2  3  1  0  0  0  0
  2 15  1  0  0  0  0
  2 23  1  0  0  0  0
  3  4  2  0  0  0  0
  3  5  1  0  0  0  0
  5  6  1  0  0  0  0
  5 24  1  0  0  0  0
  6 14  1  0  0  0  0
  6  7  1  0  0  0  0
  6 25  1  0  0  0  0
  7  8  1  0  0  0  0
  7 26  1  0  0  0  0
  7 27  1  0  0  0  0
  8  9  1  0  0  0  0
  8 28  1  0  0  0  0
  8 29  1  0  0  0  0
  9 10  1  0  0  0  0
  9 13  1  0  0  0  0
  9 30  1  0  0  0  0
 10 11  2  0  0  0  0
 10 12  1  0  0  0  0
 13 14  1  0  0  0  0
 13 31  1  0  0  0  0
 13 32  1  0  0  0  0
 14 33  1  0  0  0  0
 14 34  1  0  0  0  0
 15 19  1  0  0  0  0
 15 16  1  0  0  0  0
 16 17  2  0  0  0  0
 16 35  1  0  0  0  0
 17 18  1  0  0  0  0
 17 36  1  0  0  0  0
 18 19  2  0  0  0  0
 18 37  1  0  0  0  0
M  CHG  1  12  -1
M  END
> <s_m_source_file>
AV-unprocessed.smi

> <i_m_source_file_index>
999

> <i_lp_mmshare_version>
43012

> <i_f3d_flags>
0

> <s_epik_input>
bjFbY0hdW2NIXVtjSF1uMVtDQEhdKFtDSDNdKUMoPU8pW05IXVtDQEBIXTJbQ0gyXVtDSDJdW0NAQEhdKEMoPU8pW09IXSlbQ0gyXVtDSDJdMg==

> <s_epik_cmdline>
J2VwaWtfcHl0aG9uJywgJy1waCcsICc3LjAnLCAnLXRuJywgJzgnLCAnLW1hJywgJzIwMCcsICctbWV0YWxfYmluZGluZycsICctaW1hZScsICc8aW5maWxlLm1hZT4nLCAnLW9tYWUnLCAnPG91dGZpbGUubWFlPic=

> <r_lp_tautomer_probability>
1

> <r_epik_Ionization_Penalty>
0.00221712

> <r_epik_Ionization_Penalty_Charging>
0.00217268

> <r_epik_Ionization_Penalty_Neutral>
4.44343e-05

> <r_epik_State_Penalty>
0.0014925

> <r_epik_Charging_Adjusted_Penalty>
0.00366518

> <i_epik_Tot_Q>
-1

> <i_epik_Tot_abs_Q>
1

> <r_epik_Metal_State_Penalty>
-0

> <b_epik_Metal_Only>
0

> <s_lp_Force_Field>
OPLS_2005

> <r_lp_Energy>
8.81329

> <b_lp_Chiralities_Consistent>
1

> <s_lp_Variant>
AV-unprocessed.smi:999-4

> <Gold.Version>
5.8.1

> <Gold.Id.Protein>
6NUR|6NUR_protein|mol2

> <Gold.PLP.Fitness>
50.7625

> <Gold.PLP.PLP>
-42.0662

> <Gold.PLP.part.hbond>
-2.4958

> <Gold.PLP.part.metal>
0.0000

> <Gold.PLP.part.buried>
-7.1144

> <Gold.PLP.part.nonpolar>
-34.5282

> <Gold.PLP.part.repulsive>
1.5673

> <Gold.PLP.ligand.clash>
0.0000

> <Gold.PLP.ligand.torsion>
0.8833

> <Gold.PLP.Chemscore.Hbond>
3.4400

> <Gold.PLP.Chemscore.CHOScore>
0.0000

> <Gold.PLP.Chemscore.Metal>
0.0000

> <Gold.Chemscore.Hbonds>
donor molecule, donor type, donor heavy atom, donor atom, acceptor molecule, acceptor atom, score
      P1  H  7997  8009       L1    11  1.73
      P1  H 10752 10765       L1    12  1.28

> <Gold.PLP.Chemscore.Internal.Correction>
0.1429

> <Gold.Rescore>
     Score         DG    S(hbond)    S(metal)    S(lipo)     H(rot)  DE(clash)    DE(int)     intcor
     13.26     -16.82       1.78        0.00      89.31       1.98       0.02       3.54       ----

> <Gold.Chemscore.Fitness>
13.2636

> <Gold.Chemscore.DG>
-16.8217

> <Gold.Chemscore.ZeroCoef>
-5.4800

> <Gold.Chemscore.Hbond>
1.7828

> <Gold.Chemscore.Metal>
0.0000

> <Gold.Chemscore.Lipo>
89.3104

> <Gold.Chemscore.Internal_Hbond>
0.0000

> <Gold.Chemscore.DEClash>
0.0222

> <Gold.Chemscore.DEInternal>
3.5360

> <Gold.Chemscore.Rot>
1.9774

> <Gold.Chemscore.Internal.Correction>
   9.000000E+99

> <Gold.Chemscore.Hbonds>
donor molecule, donor type, donor heavy atom, donor atom, acceptor molecule, acceptor atom, score
      P1  H  7997  8009       L1    11  0.84
      P1  H 10752 10765       L1    12  0.64

> <Gold.Chemscore.Hbond.Weighted>
-5.9544

> <Gold.Chemscore.Metal.Weighted>
-0.0000

> <Gold.Chemscore.Lipo.Weighted>
-10.4493

> <Gold.Chemscore.Internal_Hbond.Weighted>
0.0000

> <Gold.Chemscore.DEClash.Weighted>
0.0222

> <Gold.Chemscore.DEInternal.Weighted>
3.5360

> <Gold.Chemscore.Rot.Weighted>
5.0620

> <Gold.Chemscore.Internal.Correction.Weighted>
   9.000000E+99

> <Gold.Protein.RotatedTorsions>
[ 6907 6896 6895 6894 ] final    7.39 input  -60.11 | X-H torsion
[ 7974 7965 7964 7962 ] final   69.52 input  175.53 | X-H torsion
[ 8008 7997 7996 7995 ] final -117.68 input   59.86 | X-H torsion
[ 10167 10162 10161 10158 ] final  -25.08 input  -65.29 | X-H torsion
[ 10718 10713 10712 10709 ] final  173.94 input   66.30 | X-H torsion
[ 10763 10752 10751 10750 ] final  141.00 input  -60.55 | X-H torsion
[ 11005 11000 10999 10996 ] final   14.64 input  -57.11 | X-H torsion

> <Gold.Protein.ActiveResidues>
 VAL166  LYS551  ARG553  GLY616  TRP617  ASP618  TYR619  PRO620  LYS621  CYS622 
 ASP623  PHE694  ASN695  SER759  ASP760  ASP761  ALA762  ILE779  LEU786  VAL792 
 PHE793  MET794  SER795  GLU796  ALA797  LYS798  CYS799  TRP800  GLU811  SER814 

> <Gold.Protein.RotatedAtoms>
  151.6891  135.0949  160.0230 H   0  0  0  0  0  0  0  0  0  0  0  0  # atno 6907 bound_to 6896
  152.3789  133.6515  159.6154 H   0  0  0  0  0  0  0  0  0  0  0  0  # atno 6908 bound_to 6896
  150.7731  133.9063  159.3397 H   0  0  0  0  0  0  0  0  0  0  0  0  # atno 6909 bound_to 6896
  145.7894  139.2926  143.1219 H   0  0  0  0  0  0  0  0  0  0  0  0  # atno 7974 bound_to 7965
  155.0876  140.0394  157.2658 H   0  0  0  0  0  0  0  0  0  0  0  0  # atno 8008 bound_to 7997
  154.6857  140.2642  155.6838 H   0  0  0  0  0  0  0  0  0  0  0  0  # atno 8009 bound_to 7997
  156.2711  140.2769  156.1418 H   0  0  0  0  0  0  0  0  0  0  0  0  # atno 8010 bound_to 7997
  140.7287  143.4296  151.0823 H   0  0  0  0  0  0  0  0  0  0  0  0  # atno 10167 bound_to 10162
  156.9569  131.0048  151.2936 H   0  0  0  0  0  0  0  0  0  0  0  0  # atno 10718 bound_to 10713
  153.9319  135.2989  155.3445 H   0  0  0  0  0  0  0  0  0  0  0  0  # atno 10763 bound_to 10752
  154.7522  135.4975  153.9313 H   0  0  0  0  0  0  0  0  0  0  0  0  # atno 10764 bound_to 10752
  153.1087  135.6753  153.9645 H   0  0  0  0  0  0  0  0  0  0  0  0  # atno 10765 bound_to 10752
  140.4673  134.1067  155.7726 H   0  0  0  0  0  0  0  0  0  0  0  0  # atno 11005 bound_to 11000
  145.9993  140.8535  143.0027 LP  0  0  0  0  0  0  0  0  0  0  0  0  # atno 17320 bound_to 7965
  144.6784  140.2328  143.7353 LP  0  0  0  0  0  0  0  0  0  0  0  0  # atno 17321 bound_to 7965
  139.7951  143.8163  152.3156 LP  0  0  0  0  0  0  0  0  0  0  0  0  # atno 17342 bound_to 10162
  139.8160  144.7316  150.9635 LP  0  0  0  0  0  0  0  0  0  0  0  0  # atno 17343 bound_to 10162
  157.5684  130.8293  149.8358 LP  0  0  0  0  0  0  0  0  0  0  0  0  # atno 17370 bound_to 10713
  156.0339  130.3757  150.1614 LP  0  0  0  0  0  0  0  0  0  0  0  0  # atno 17371 bound_to 10713
  141.1593  133.8822  157.1891 LP  0  0  0  0  0  0  0  0  0  0  0  0  # atno 17394 bound_to 11000
  139.9907  135.0065  156.9969 LP  0  0  0  0  0  0  0  0  0  0  0  0  # atno 17395 bound_to 11000

$$$$
