AV-unprocessed.smi:1056|AV-procd|sdf|4647|dock8
  -GOLD-   22720 3153D 1   1.00000     0.00000
 Structure written by MMmdl.
 45 47  0  0  0  0  0  0  0  0  4 V2000
  152.4365  143.5781  160.1813 C   0  0  0  0  0  0  0  0  0  0  0  0
  152.0554  142.6191  159.0662 C   0  0  0  0  0  0  0  0  0  0  0  0
  151.1445  143.0601  158.0798 C   0  0  0  0  0  0  0  0  0  0  0  0
  150.8166  142.1609  157.0722 C   0  0  0  0  0  0  0  0  0  0  0  0
  149.9629  142.2873  155.9742 N   0  3  0  0  0  0  0  0  0  0  0  0
  149.9663  141.1282  155.2597 C   0  0  0  0  0  0  0  0  0  0  0  0
  150.8087  140.2627  155.8869 N   0  0  0  0  0  0  0  0  0  0  0  0
  151.1757  138.8837  155.5389 C   0  0  0  0  0  0  0  0  0  0  0  0
  149.9729  138.0406  155.0710 C   0  0  1  0  0  0  0  0  0  0  0  0
  149.6197  138.4326  153.7575 O   0  0  0  0  0  0  0  0  0  0  0  0
  150.3039  136.5345  155.0765 C   0  0  0  0  0  0  0  0  0  0  0  0
  149.1496  135.6931  154.6731 N   0  3  2  0  0  0  0  0  0  0  0  0
  147.8761  136.0678  155.3422 C   0  0  0  0  0  0  0  0  0  0  0  0
  146.6885  135.3748  154.6481 C   0  0  0  0  0  0  0  0  0  0  0  0
  146.9751  133.9485  154.4538 N   0  5  0  0  0  0  0  0  0  0  0  0
  148.2135  133.3644  154.4117 C   0  0  0  0  0  0  0  0  0  0  0  0
  148.4390  132.1913  154.1230 O   0  0  0  0  0  0  0  0  0  0  0  0
  149.4351  134.2375  154.8081 C   0  0  0  0  0  0  0  0  0  0  0  0
  151.3617  140.8633  157.0227 C   0  0  0  0  0  0  0  0  0  0  0  0
  152.2598  140.4120  157.9866 C   0  0  0  0  0  0  0  0  0  0  0  0
  152.6054  141.3116  159.0205 C   0  0  0  0  0  0  0  0  0  0  0  0
  153.5823  140.8484  160.0878 C   0  0  0  0  0  0  0  0  0  0  0  0
  151.9149  144.5307  160.0847 H   0  0  0  0  0  0  0  0  0  0  0  0
  153.5073  143.7814  160.1610 H   0  0  0  0  0  0  0  0  0  0  0  0
  152.1818  143.1566  161.1538 H   0  0  0  0  0  0  0  0  0  0  0  0
  150.7216  144.0539  158.1081 H   0  0  0  0  0  0  0  0  0  0  0  0
  149.4004  140.9300  154.3607 H   0  0  0  0  0  0  0  0  0  0  0  0
  151.9310  138.9356  154.7531 H   0  0  0  0  0  0  0  0  0  0  0  0
  151.6604  138.4285  156.4036 H   0  0  0  0  0  0  0  0  0  0  0  0
  149.1263  138.2494  155.7238 H   0  0  0  0  0  0  0  0  0  0  0  0
  149.3457  137.6693  153.2719 H   0  0  0  0  0  0  0  0  0  0  0  0
  151.1440  136.3604  154.4018 H   0  0  0  0  0  0  0  0  0  0  0  0
  150.6407  136.2184  156.0651 H   0  0  0  0  0  0  0  0  0  0  0  0
  147.9219  135.7828  156.3947 H   0  0  0  0  0  0  0  0  0  0  0  0
  147.7200  137.1455  155.3183 H   0  0  0  0  0  0  0  0  0  0  0  0
  145.7847  135.5340  155.2356 H   0  0  0  0  0  0  0  0  0  0  0  0
  146.5119  135.8662  153.6911 H   0  0  0  0  0  0  0  0  0  0  0  0
  150.2818  133.9708  154.1741 H   0  0  0  0  0  0  0  0  0  0  0  0
  149.7125  134.0065  155.8377 H   0  0  0  0  0  0  0  0  0  0  0  0
  152.6782  139.4170  157.9511 H   0  0  0  0  0  0  0  0  0  0  0  0
  153.9245  139.8299  159.9018 H   0  0  0  0  0  0  0  0  0  0  0  0
  153.1119  140.8673  161.0711 H   0  0  0  0  0  0  0  0  0  0  0  0
  154.4600  141.4950  160.1109 H   0  0  0  0  0  0  0  0  0  0  0  0
  149.0053  135.8476  153.6859 H   0  0  0  0  0  0  0  0  0  0  0  0
  149.4170  143.1033  155.7280 H   0  0  0  0  0  0  0  0  0  0  0  0
  1  2  1  0  0  0  0
  1 23  1  0  0  0  0
  1 24  1  0  0  0  0
  1 25  1  0  0  0  0
  2 21  1  0  0  0  0
  2  3  2  0  0  0  0
  3  4  1  0  0  0  0
  3 26  1  0  0  0  0
  4 19  2  0  0  0  0
  4  5  1  0  0  0  0
  5  6  2  0  0  0  0
  5 45  1  0  0  0  0
  6  7  1  0  0  0  0
  6 27  1  0  0  0  0
  7  8  1  0  0  0  0
  7 19  1  0  0  0  0
  8  9  1  0  0  0  0
  8 28  1  0  0  0  0
  8 29  1  0  0  0  0
  9 10  1  0  0  0  0
  9 11  1  0  0  0  0
  9 30  1  0  0  0  0
 10 31  1  0  0  0  0
 11 12  1  0  0  0  0
 11 32  1  0  0  0  0
 11 33  1  0  0  0  0
 12 18  1  0  0  0  0
 12 13  1  0  0  0  0
 12 44  1  0  0  0  0
 13 14  1  0  0  0  0
 13 34  1  0  0  0  0
 13 35  1  0  0  0  0
 14 15  1  0  0  0  0
 14 36  1  0  0  0  0
 14 37  1  0  0  0  0
 15 16  1  0  0  0  0
 16 17  2  0  0  0  0
 16 18  1  0  0  0  0
 18 38  1  0  0  0  0
 18 39  1  0  0  0  0
 19 20  1  0  0  0  0
 20 21  2  0  0  0  0
 20 40  1  0  0  0  0
 21 22  1  0  0  0  0
 22 41  1  0  0  0  0
 22 42  1  0  0  0  0
 22 43  1  0  0  0  0
M  CHG  1   5   1
M  CHG  1  12   1
M  CHG  1  15  -1
M  END
> <s_m_source_file>
AV-unprocessed.smi

> <i_m_source_file_index>
1056

> <i_lp_mmshare_version>
43012

> <i_f3d_flags>
0

> <s_epik_input>
W0NIM11jKFtjSF0xKWMoW0NIM10pW2NIXWMoYzEyKW4oW2NIXW4yKVtDSDJdW0NASF0oW09IXSlbQ0gyXU4zW0NIMl1bQ0gyXVtOSF1DKD1PKVtDSDJdMw==

> <s_epik_cmdline>
J2VwaWtfcHl0aG9uJywgJy1waCcsICc3LjAnLCAnLXRuJywgJzgnLCAnLW1hJywgJzIwMCcsICctbWV0YWxfYmluZGluZycsICctaW1hZScsICc8aW5maWxlLm1hZT4nLCAnLW9tYWUnLCAnPG91dGZpbGUubWFlPic=

> <r_epik_Ionization_Penalty>
6.22415

> <r_epik_Ionization_Penalty_Charging>
6.22415

> <r_epik_Ionization_Penalty_Neutral>
4.02797e-07

> <r_epik_State_Penalty>
6.37716

> <r_epik_Charging_Adjusted_Penalty>
12.6013

> <i_epik_Tot_Q>
1

> <i_epik_Tot_abs_Q>
3

> <r_epik_Metal_State_Penalty>
2.53509

> <b_epik_Metal_Only>
1

> <s_lp_Force_Field>
OPLS_2005

> <r_lp_Energy>
25.2777

> <b_lp_Chiralities_Consistent>
1

> <s_lp_Variant>
AV-unprocessed.smi:1056-18

> <Gold.Version>
5.8.1

> <Gold.Id.Protein>
6NUR|6NUR_protein|mol2

> <Gold.PLP.Fitness>
56.1383

> <Gold.PLP.PLP>
-41.9653

> <Gold.PLP.part.hbond>
-4.0000

> <Gold.PLP.part.metal>
0.0000

> <Gold.PLP.part.buried>
-4.2815

> <Gold.PLP.part.nonpolar>
-33.5884

> <Gold.PLP.part.repulsive>
0.3364

> <Gold.PLP.ligand.clash>
0.0000

> <Gold.PLP.ligand.torsion>
0.4156

> <Gold.PLP.Chemscore.Hbond>
4.9913

> <Gold.PLP.Chemscore.CHOScore>
0.0000

> <Gold.PLP.Chemscore.Metal>
0.0000

> <Gold.Chemscore.Hbonds>
donor molecule, donor type, donor heavy atom, donor atom, acceptor molecule, acceptor atom, score
      L1  H     5    45       P1  8028  2.00
      L1  H    10    31       P1  7948  1.00
      L1  H    12    44       P1  7948  2.00

> <Gold.PLP.Chemscore.Internal.Correction>
0.0304

> <Gold.Rescore>
     Score         DG    S(hbond)    S(metal)    S(lipo)     H(rot)  DE(clash)    DE(int)     intcor
     20.07     -20.46       2.94        0.00      95.92       2.37       0.06       0.33       ----

> <Gold.Chemscore.Fitness>
20.0660

> <Gold.Chemscore.DG>
-20.4556

> <Gold.Chemscore.ZeroCoef>
-5.4800

> <Gold.Chemscore.Hbond>
2.9421

> <Gold.Chemscore.Metal>
0.0000

> <Gold.Chemscore.Lipo>
95.9167

> <Gold.Chemscore.Internal_Hbond>
0.0000

> <Gold.Chemscore.DEClash>
0.0554

> <Gold.Chemscore.DEInternal>
0.3343

> <Gold.Chemscore.Rot>
2.3724

> <Gold.Chemscore.Internal.Correction>
   9.000000E+99

> <Gold.Chemscore.Hbonds>
donor molecule, donor type, donor heavy atom, donor atom, acceptor molecule, acceptor atom, score
      L1  H     5    45       P1  8028  1.00
      L1  H    10    31       P1  7948  0.91
      L1  H    12    44       P1  7948  0.93

> <Gold.Chemscore.Hbond.Weighted>
-9.8268

> <Gold.Chemscore.Metal.Weighted>
-0.0000

> <Gold.Chemscore.Lipo.Weighted>
-11.2223

> <Gold.Chemscore.Internal_Hbond.Weighted>
0.0000

> <Gold.Chemscore.DEClash.Weighted>
0.0554

> <Gold.Chemscore.DEInternal.Weighted>
0.3343

> <Gold.Chemscore.Rot.Weighted>
6.0734

> <Gold.Chemscore.Internal.Correction.Weighted>
   9.000000E+99

> <Gold.Protein.RotatedTorsions>
[ 6907 6896 6895 6894 ] final   47.00 input  -60.11 | X-H torsion
[ 7974 7965 7964 7962 ] final  133.80 input  175.53 | X-H torsion
[ 8008 7997 7996 7995 ] final   11.57 input   59.86 | X-H torsion
[ 10167 10162 10161 10158 ] final -128.20 input  -65.29 | X-H torsion
[ 10718 10713 10712 10709 ] final    8.51 input   66.30 | X-H torsion
[ 10763 10752 10751 10750 ] final  123.35 input  -60.55 | X-H torsion
[ 11005 11000 10999 10996 ] final  -48.09 input  -57.11 | X-H torsion

> <Gold.Protein.ActiveResidues>
 VAL166  LYS551  ARG553  GLY616  TRP617  ASP618  TYR619  PRO620  LYS621  CYS622 
 ASP623  PHE694  ASN695  SER759  ASP760  ASP761  ALA762  ILE779  LEU786  VAL792 
 PHE793  MET794  SER795  GLU796  ALA797  LYS798  CYS799  TRP800  GLU811  SER814 

> <Gold.Protein.RotatedAtoms>
  152.2630  134.8014  160.0427 H   0  0  0  0  0  0  0  0  0  0  0  0  # atno 6907 bound_to 6896
  151.8653  133.3460  159.3725 H   0  0  0  0  0  0  0  0  0  0  0  0  # atno 6908 bound_to 6896
  150.7123  134.5093  159.5644 H   0  0  0  0  0  0  0  0  0  0  0  0  # atno 6909 bound_to 6896
  144.9828  139.4486  143.5377 H   0  0  0  0  0  0  0  0  0  0  0  0  # atno 7974 bound_to 7965
  154.8087  140.2864  155.5868 H   0  0  0  0  0  0  0  0  0  0  0  0  # atno 8008 bound_to 7997
  156.2986  140.2572  156.2901 H   0  0  0  0  0  0  0  0  0  0  0  0  # atno 8009 bound_to 7997
  154.9472  140.0380  157.2116 H   0  0  0  0  0  0  0  0  0  0  0  0  # atno 8010 bound_to 7997
  139.9528  143.6036  152.2470 H   0  0  0  0  0  0  0  0  0  0  0  0  # atno 10167 bound_to 10162
  156.9526  130.5903  149.5657 H   0  0  0  0  0  0  0  0  0  0  0  0  # atno 10718 bound_to 10713
  153.6441  135.3374  155.3080 H   0  0  0  0  0  0  0  0  0  0  0  0  # atno 10763 bound_to 10752
  154.8553  135.4325  154.1973 H   0  0  0  0  0  0  0  0  0  0  0  0  # atno 10764 bound_to 10752
  153.2900  135.7016  153.7377 H   0  0  0  0  0  0  0  0  0  0  0  0  # atno 10765 bound_to 10752
  141.0680  133.6688  156.3391 H   0  0  0  0  0  0  0  0  0  0  0  0  # atno 11005 bound_to 11000
  146.3412  139.9112  142.8780 LP  0  0  0  0  0  0  0  0  0  0  0  0  # atno 17320 bound_to 7965
  145.2396  141.0004  143.3943 LP  0  0  0  0  0  0  0  0  0  0  0  0  # atno 17321 bound_to 7965
  139.6615  144.7662  151.1954 LP  0  0  0  0  0  0  0  0  0  0  0  0  # atno 17342 bound_to 10162
  140.7577  143.6003  150.8706 LP  0  0  0  0  0  0  0  0  0  0  0  0  # atno 17343 bound_to 10162
  156.0356  130.5444  150.8645 LP  0  0  0  0  0  0  0  0  0  0  0  0  # atno 17370 bound_to 10713
  157.5711  131.0946  150.9416 LP  0  0  0  0  0  0  0  0  0  0  0  0  # atno 17371 bound_to 10713
  140.5733  134.5818  157.5463 LP  0  0  0  0  0  0  0  0  0  0  0  0  # atno 17394 bound_to 11000
  139.9495  134.7642  156.0482 LP  0  0  0  0  0  0  0  0  0  0  0  0  # atno 17395 bound_to 11000

$$$$
