AV-unprocessed.smi:3185|AV-procd|sdf|12166|dock7
  -GOLD-   2272018 03D 1   1.00000     0.00000
 Structure written by MMmdl.
 38 39  0  0  0  0  0  0  0  0  2 V2000
  151.9496  137.1018  155.3975 N   0  0  0  0  0  0  0  0  0  0  0  0
  151.4531  138.0700  155.0060 C   0  0  0  0  0  0  0  0  0  0  0  0
  150.8227  139.3019  154.5086 C   0  0  0  0  0  0  0  0  0  0  0  0
  150.4064  140.2488  155.6399 C   0  0  0  0  0  0  0  0  0  0  0  0
  151.6072  140.7493  156.4514 C   0  0  0  0  0  0  0  0  0  0  0  0
  151.1822  141.2125  157.7887 N   0  3  0  0  0  0  0  0  0  0  0  0
  151.1565  142.6816  157.9832 C   0  0  1  0  0  0  0  0  0  0  0  0
  149.9514  143.1381  158.8439 C   0  0  0  0  0  0  0  0  0  0  0  0
  149.9734  144.6527  159.1045 C   0  0  0  0  0  0  0  0  0  0  0  0
  151.3094  145.1066  159.7095 C   0  0  0  0  0  0  0  0  0  0  0  0
  152.4835  144.7061  158.8023 C   0  0  0  0  0  0  0  0  0  0  0  0
  152.5257  143.1889  158.5243 C   0  0  1  0  0  0  0  0  0  0  0  0
  153.0612  142.4516  159.6716 N   0  0  0  0  0  0  0  0  0  0  0  0
  153.1316  142.8877  160.9799 C   0  0  0  0  0  0  0  0  0  0  0  0
  153.6619  141.8765  161.7281 C   0  0  0  0  0  0  0  0  0  0  0  0
  153.8715  140.8348  160.7842 C   0  0  0  0  0  0  0  0  0  0  0  0
  153.5058  141.1789  159.5608 N   0  0  0  0  0  0  0  0  0  0  0  0
  151.5310  139.7928  153.8405 H   0  0  0  0  0  0  0  0  0  0  0  0
  149.9571  139.0152  153.9108 H   0  0  0  0  0  0  0  0  0  0  0  0
  149.8691  141.0995  155.2183 H   0  0  0  0  0  0  0  0  0  0  0  0
  149.7054  139.7353  156.2997 H   0  0  0  0  0  0  0  0  0  0  0  0
  152.3389  139.9476  156.5604 H   0  0  0  0  0  0  0  0  0  0  0  0
  152.0942  141.5627  155.9138 H   0  0  0  0  0  0  0  0  0  0  0  0
  150.2625  140.8462  157.9918 H   0  0  0  0  0  0  0  0  0  0  0  0
  151.0338  143.1305  156.9960 H   0  0  0  0  0  0  0  0  0  0  0  0
  149.0154  142.8916  158.3431 H   0  0  0  0  0  0  0  0  0  0  0  0
  149.9241  142.6061  159.7937 H   0  0  0  0  0  0  0  0  0  0  0  0
  149.8003  145.1853  158.1686 H   0  0  0  0  0  0  0  0  0  0  0  0
  149.1532  144.9256  159.7693 H   0  0  0  0  0  0  0  0  0  0  0  0
  151.3021  146.1884  159.8458 H   0  0  0  0  0  0  0  0  0  0  0  0
  151.4347  144.6748  160.7027 H   0  0  0  0  0  0  0  0  0  0  0  0
  152.3941  145.2399  157.8553 H   0  0  0  0  0  0  0  0  0  0  0  0
  153.4247  145.0359  159.2436 H   0  0  0  0  0  0  0  0  0  0  0  0
  153.2509  143.0381  157.7228 H   0  0  0  0  0  0  0  0  0  0  0  0
  152.8009  143.8747  161.2689 H   0  0  0  0  0  0  0  0  0  0  0  0
  153.8605  141.8775  162.7897 H   0  0  0  0  0  0  0  0  0  0  0  0
  154.2717  139.8453  160.9503 H   0  0  0  0  0  0  0  0  0  0  0  0
  151.8315  140.8292  158.4606 H   0  0  0  0  0  0  0  0  0  0  0  0
  1  2  3  0  0  0  0
  2  3  1  0  0  0  0
  3  4  1  0  0  0  0
  3 18  1  0  0  0  0
  3 19  1  0  0  0  0
  4  5  1  0  0  0  0
  4 20  1  0  0  0  0
  4 21  1  0  0  0  0
  5  6  1  0  0  0  0
  5 22  1  0  0  0  0
  5 23  1  0  0  0  0
  6  7  1  0  0  0  0
  6 24  1  0  0  0  0
  6 38  1  0  0  0  0
  7 12  1  0  0  0  0
  7  8  1  0  0  0  0
  7 25  1  0  0  0  0
  8  9  1  0  0  0  0
  8 26  1  0  0  0  0
  8 27  1  0  0  0  0
  9 10  1  0  0  0  0
  9 28  1  0  0  0  0
  9 29  1  0  0  0  0
 10 11  1  0  0  0  0
 10 30  1  0  0  0  0
 10 31  1  0  0  0  0
 11 12  1  0  0  0  0
 11 32  1  0  0  0  0
 11 33  1  0  0  0  0
 12 13  1  0  0  0  0
 12 34  1  0  0  0  0
 13 17  1  0  0  0  0
 13 14  1  0  0  0  0
 14 15  2  0  0  0  0
 14 35  1  0  0  0  0
 15 16  1  0  0  0  0
 15 36  1  0  0  0  0
 16 17  2  0  0  0  0
 16 37  1  0  0  0  0
M  CHG  1   6   1
M  END
> <s_m_source_file>
AV-unprocessed.smi

> <i_m_source_file_index>
3185

> <i_lp_mmshare_version>
43012

> <i_f3d_flags>
0

> <s_epik_input>
TiNDW0NIMl1bQ0gyXVtDSDJdW05IXVtDQEBIXTFbQ0gyXVtDSDJdW0NIMl1bQ0gyXVtDQEhdMW4yW2NIXVtjSF1bY0hdbjI=

> <s_epik_cmdline>
J2VwaWtfcHl0aG9uJywgJy1waCcsICc3LjAnLCAnLXRuJywgJzgnLCAnLW1hJywgJzIwMCcsICctbWV0YWxfYmluZGluZycsICctaW1hZScsICc8aW5maWxlLm1hZT4nLCAnLW9tYWUnLCAnPG91dGZpbGUubWFlPic=

> <r_lp_tautomer_probability>
1

> <r_epik_Ionization_Penalty>
0.0143465

> <r_epik_Ionization_Penalty_Charging>
0.0143338

> <r_epik_Ionization_Penalty_Neutral>
1.27047e-05

> <r_epik_State_Penalty>
0.0112058

> <r_epik_Charging_Adjusted_Penalty>
0.0255397

> <i_epik_Tot_Q>
1

> <i_epik_Tot_abs_Q>
1

> <r_epik_Metal_State_Penalty>
0.0112253

> <b_epik_Metal_Only>
0

> <s_lp_Force_Field>
OPLS_2005

> <r_lp_Energy>
18.1439

> <b_lp_Chiralities_Consistent>
1

> <s_lp_Variant>
AV-unprocessed.smi:3185-2

> <Gold.Version>
5.8.1

> <Gold.Id.Protein>
6NUR|6NUR_protein|mol2

> <Gold.PLP.Fitness>
42.6626

> <Gold.PLP.PLP>
-42.0286

> <Gold.PLP.part.hbond>
-1.0000

> <Gold.PLP.part.metal>
0.0000

> <Gold.PLP.part.buried>
-3.4745

> <Gold.PLP.part.nonpolar>
-37.4526

> <Gold.PLP.part.repulsive>
0.1204

> <Gold.PLP.ligand.clash>
0.0000

> <Gold.PLP.ligand.torsion>
1.2504

> <Gold.PLP.Chemscore.Hbond>
1.0000

> <Gold.PLP.Chemscore.CHOScore>
0.0000

> <Gold.PLP.Chemscore.Metal>
0.0000

> <Gold.Chemscore.Hbonds>
donor molecule, donor type, donor heavy atom, donor atom, acceptor molecule, acceptor atom, score
      P1  H 10752 10765       L1     1  0.99

> <Gold.PLP.Chemscore.Internal.Correction>
0.1348

> <Gold.Rescore>
     Score         DG    S(hbond)    S(metal)    S(lipo)     H(rot)  DE(clash)    DE(int)     intcor
     14.48     -16.90       0.99        0.00     110.43       1.88       0.05       2.38       ----

> <Gold.Chemscore.Fitness>
14.4771

> <Gold.Chemscore.DG>
-16.9031

> <Gold.Chemscore.ZeroCoef>
-5.4800

> <Gold.Chemscore.Hbond>
0.9905

> <Gold.Chemscore.Metal>
0.0000

> <Gold.Chemscore.Lipo>
110.4265

> <Gold.Chemscore.Internal_Hbond>
0.0000

> <Gold.Chemscore.DEClash>
0.0456

> <Gold.Chemscore.DEInternal>
2.3804

> <Gold.Chemscore.Rot>
1.8769

> <Gold.Chemscore.Internal.Correction>
   9.000000E+99

> <Gold.Chemscore.Hbonds>
donor molecule, donor type, donor heavy atom, donor atom, acceptor molecule, acceptor atom, score
      P1  H 10752 10765       L1     1  0.92

> <Gold.Chemscore.Hbond.Weighted>
-3.3082

> <Gold.Chemscore.Metal.Weighted>
-0.0000

> <Gold.Chemscore.Lipo.Weighted>
-12.9199

> <Gold.Chemscore.Internal_Hbond.Weighted>
0.0000

> <Gold.Chemscore.DEClash.Weighted>
0.0456

> <Gold.Chemscore.DEInternal.Weighted>
2.3804

> <Gold.Chemscore.Rot.Weighted>
4.8049

> <Gold.Chemscore.Internal.Correction.Weighted>
   9.000000E+99

> <Gold.Protein.RotatedTorsions>
[ 6907 6896 6895 6894 ] final  -24.80 input  -60.11 | X-H torsion
[ 7974 7965 7964 7962 ] final  116.48 input  175.53 | X-H torsion
[ 8008 7997 7996 7995 ] final -109.27 input   59.86 | X-H torsion
[ 10167 10162 10161 10158 ] final   42.79 input  -65.29 | X-H torsion
[ 10718 10713 10712 10709 ] final -121.25 input   66.30 | X-H torsion
[ 10763 10752 10751 10750 ] final -168.37 input  -60.55 | X-H torsion
[ 11005 11000 10999 10996 ] final  160.96 input  -57.11 | X-H torsion

> <Gold.Protein.ActiveResidues>
 VAL166  LYS551  ARG553  GLY616  TRP617  ASP618  TYR619  PRO620  LYS621  CYS622 
 ASP623  PHE694  ASN695  SER759  ASP760  ASP761  ALA762  ILE779  LEU786  VAL792 
 PHE793  MET794  SER795  GLU796  ALA797  LYS798  CYS799  TRP800  GLU811  SER814 

> <Gold.Protein.RotatedAtoms>
  151.1843  135.0375  159.8805 H   0  0  0  0  0  0  0  0  0  0  0  0  # atno 6907 bound_to 6896
  152.5443  134.1028  159.8335 H   0  0  0  0  0  0  0  0  0  0  0  0  # atno 6908 bound_to 6896
  151.1148  133.5099  159.2636 H   0  0  0  0  0  0  0  0  0  0  0  0  # atno 6909 bound_to 6896
  145.1791  139.3059  143.4427 H   0  0  0  0  0  0  0  0  0  0  0  0  # atno 7974 bound_to 7965
  154.9568  140.0400  157.2171 H   0  0  0  0  0  0  0  0  0  0  0  0  # atno 8008 bound_to 7997
  154.7926  140.2838  155.5958 H   0  0  0  0  0  0  0  0  0  0  0  0  # atno 8009 bound_to 7997
  156.2951  140.2570  156.2777 H   0  0  0  0  0  0  0  0  0  0  0  0  # atno 8010 bound_to 7997
  140.3509  144.2351  150.6146 H   0  0  0  0  0  0  0  0  0  0  0  0  # atno 10167 bound_to 10162
  156.1323  130.6404  150.9640 H   0  0  0  0  0  0  0  0  0  0  0  0  # atno 10718 bound_to 10713
  154.6635  135.2928  154.9835 H   0  0  0  0  0  0  0  0  0  0  0  0  # atno 10763 bound_to 10752
  154.0887  135.6594  153.4853 H   0  0  0  0  0  0  0  0  0  0  0  0  # atno 10764 bound_to 10752
  153.0444  135.5214  154.7597 H   0  0  0  0  0  0  0  0  0  0  0  0  # atno 10765 bound_to 10752
  140.2111  134.8267  157.3122 H   0  0  0  0  0  0  0  0  0  0  0  0  # atno 11005 bound_to 11000
  146.3456  140.1964  142.8589 LP  0  0  0  0  0  0  0  0  0  0  0  0  # atno 17320 bound_to 7965
  145.0154  140.8750  143.5198 LP  0  0  0  0  0  0  0  0  0  0  0  0  # atno 17321 bound_to 7965
  140.5220  143.2263  151.8374 LP  0  0  0  0  0  0  0  0  0  0  0  0  # atno 17342 bound_to 10162
  139.4826  144.4825  151.9288 LP  0  0  0  0  0  0  0  0  0  0  0  0  # atno 17343 bound_to 10162
  157.6499  131.0898  150.8073 LP  0  0  0  0  0  0  0  0  0  0  0  0  # atno 17370 bound_to 10713
  156.8156  130.4967  149.5350 LP  0  0  0  0  0  0  0  0  0  0  0  0  # atno 17371 bound_to 10713
  140.1950  134.4325  155.7694 LP  0  0  0  0  0  0  0  0  0  0  0  0  # atno 17394 bound_to 11000
  141.2226  133.7045  156.8089 LP  0  0  0  0  0  0  0  0  0  0  0  0  # atno 17395 bound_to 11000

$$$$
