AV-unprocessed.smi:1965|AV-procd|sdf|7937|dock1
  -GOLD-   2272010103D 1   1.00000     0.00000
 Structure written by MMmdl.
 37 39  0  0  0  0  0  0  0  0  2 V2000
  145.5755  138.0470  154.2415 O   0  0  0  0  0  0  0  0  0  0  0  0
  146.5086  137.6325  153.5563 C   0  0  0  0  0  0  0  0  0  0  0  0
  147.6121  138.3840  153.3549 N   0  0  0  0  0  0  0  0  0  0  0  0
  147.9657  139.6885  153.8087 C   0  0  0  0  0  0  0  0  0  0  0  0
  147.1587  140.7575  153.7982 N   0  0  0  0  0  0  0  0  0  0  0  0
  147.7875  141.8996  154.3006 C   0  0  0  0  0  0  0  0  0  0  0  0
  149.0852  141.6838  154.6903 C   0  0  0  0  0  0  0  0  0  0  0  0
  149.5706  140.0283  154.4411 S   0  0  0  0  0  0  0  0  0  0  0  0
  146.4965  136.4229  152.9731 N   0  0  0  0  0  0  0  0  0  0  0  0
  145.4189  135.4438  153.0678 C   0  0  1  0  0  0  0  0  0  0  0  0
  144.0234  136.0761  152.9206 C   0  0  0  0  0  0  0  0  0  0  0  0
  143.1990  135.0619  152.1033 C   0  0  0  0  0  0  0  0  0  0  0  0
  144.0843  133.8963  151.9198 N   0  3  1  0  0  0  0  0  0  0  0  0
  143.8105  133.0178  150.7616 C   0  0  0  0  0  0  0  0  0  0  0  0
  144.7810  131.8201  150.7915 C   0  0  0  0  0  0  0  0  0  0  0  0
  146.2509  132.2776  150.8847 C   0  0  0  0  0  0  0  0  0  0  0  0
  146.4547  133.2631  152.0516 C   0  0  0  0  0  0  0  0  0  0  0  0
  145.4561  134.4263  151.9248 C   0  0  2  0  0  0  0  0  0  0  0  0
  148.3047  137.9527  152.7599 H   0  0  0  0  0  0  0  0  0  0  0  0
  147.2361  142.8273  154.3446 H   0  0  0  0  0  0  0  0  0  0  0  0
  149.7825  142.3955  155.1069 H   0  0  0  0  0  0  0  0  0  0  0  0
  147.3045  136.1622  152.4250 H   0  0  0  0  0  0  0  0  0  0  0  0
  145.4586  134.9192  154.0250 H   0  0  0  0  0  0  0  0  0  0  0  0
  143.5766  136.2701  153.8963 H   0  0  0  0  0  0  0  0  0  0  0  0
  144.0697  137.0271  152.3876 H   0  0  0  0  0  0  0  0  0  0  0  0
  142.2770  134.7714  152.6078 H   0  0  0  0  0  0  0  0  0  0  0  0
  142.9353  135.4892  151.1346 H   0  0  0  0  0  0  0  0  0  0  0  0
  142.7787  132.6675  150.8030 H   0  0  0  0  0  0  0  0  0  0  0  0
  143.9249  133.5797  149.8334 H   0  0  0  0  0  0  0  0  0  0  0  0
  144.5474  131.1885  151.6498 H   0  0  0  0  0  0  0  0  0  0  0  0
  144.6376  131.2002  149.9061 H   0  0  0  0  0  0  0  0  0  0  0  0
  146.9066  131.4144  151.0030 H   0  0  0  0  0  0  0  0  0  0  0  0
  146.5398  132.7590  149.9496 H   0  0  0  0  0  0  0  0  0  0  0  0
  146.3148  132.7480  153.0029 H   0  0  0  0  0  0  0  0  0  0  0  0
  147.4785  133.6373  152.0449 H   0  0  0  0  0  0  0  0  0  0  0  0
  145.6290  134.9524  150.9827 H   0  0  0  0  0  0  0  0  0  0  0  0
  143.9943  133.3332  152.7535 H   0  0  0  0  0  0  0  0  0  0  0  0
  1  2  2  0  0  0  0
  2  3  1  0  0  0  0
  2  9  1  0  0  0  0
  3  4  1  0  0  0  0
  3 19  1  0  0  0  0
  4  8  1  0  0  0  0
  4  5  2  0  0  0  0
  5  6  1  0  0  0  0
  6  7  2  0  0  0  0
  6 20  1  0  0  0  0
  7  8  1  0  0  0  0
  7 21  1  0  0  0  0
  9 10  1  0  0  0  0
  9 22  1  0  0  0  0
 10 18  1  0  0  0  0
 10 11  1  0  0  0  0
 10 23  1  0  0  0  0
 11 12  1  0  0  0  0
 11 24  1  0  0  0  0
 11 25  1  0  0  0  0
 12 13  1  0  0  0  0
 12 26  1  0  0  0  0
 12 27  1  0  0  0  0
 13 18  1  0  0  0  0
 13 14  1  0  0  0  0
 13 37  1  0  0  0  0
 14 15  1  0  0  0  0
 14 28  1  0  0  0  0
 14 29  1  0  0  0  0
 15 16  1  0  0  0  0
 15 30  1  0  0  0  0
 15 31  1  0  0  0  0
 16 17  1  0  0  0  0
 16 32  1  0  0  0  0
 16 33  1  0  0  0  0
 17 18  1  0  0  0  0
 17 34  1  0  0  0  0
 17 35  1  0  0  0  0
 18 36  1  0  0  0  0
M  CHG  1  13   1
M  END
> <s_m_source_file>
AV-unprocessed.smi

> <i_m_source_file_index>
1965

> <i_lp_mmshare_version>
43012

> <i_f3d_flags>
0

> <s_epik_input>
czFbY0hdW2NIXW5jMVtOSF1DKD1PKVtOSF1bQ0BIXShbQ0gyXVtDSDJdMilbQ0BASF0oTjIzKVtDSDJdW0NIMl1bQ0gyXVtDSDJdMw==

> <s_epik_cmdline>
J2VwaWtfcHl0aG9uJywgJy1waCcsICc3LjAnLCAnLXRuJywgJzgnLCAnLW1hJywgJzIwMCcsICctbWV0YWxfYmluZGluZycsICctaW1hZScsICc8aW5maWxlLm1hZT4nLCAnLW9tYWUnLCAnPG91dGZpbGUubWFlPic=

> <r_lp_tautomer_probability>
1

> <r_epik_Ionization_Penalty>
0.00125962

> <r_epik_Ionization_Penalty_Charging>
0.00107044

> <r_epik_Ionization_Penalty_Neutral>
0.000189176

> <r_epik_State_Penalty>
-0

> <r_epik_Charging_Adjusted_Penalty>
0.00107044

> <i_epik_Tot_Q>
1

> <i_epik_Tot_abs_Q>
1

> <r_epik_Metal_State_Penalty>
0.0179285

> <b_epik_Metal_Only>
0

> <s_lp_Force_Field>
OPLS_2005

> <r_lp_Energy>
35.2761

> <b_lp_Chiralities_Consistent>
1

> <s_lp_Variant>
AV-unprocessed.smi:1965-6

> <Gold.Version>
5.8.1

> <Gold.Id.Protein>
6NUR|6NUR_protein|mol2

> <Gold.PLP.Fitness>
36.8133

> <Gold.PLP.PLP>
-29.4017

> <Gold.PLP.part.hbond>
-2.0000

> <Gold.PLP.part.metal>
0.0000

> <Gold.PLP.part.buried>
-1.3901

> <Gold.PLP.part.nonpolar>
-25.4086

> <Gold.PLP.part.repulsive>
0.3040

> <Gold.PLP.ligand.clash>
0.0000

> <Gold.PLP.ligand.torsion>
0.6313

> <Gold.PLP.Chemscore.Hbond>
1.9600

> <Gold.PLP.Chemscore.CHOScore>
0.9283

> <Gold.PLP.Chemscore.Metal>
0.0000

> <Gold.Chemscore.Hbonds>
donor molecule, donor type, donor heavy atom, donor atom, acceptor molecule, acceptor atom, score
      L1  H     3    19       P1  7948  0.96
      L1  H     9    22       P1  7948  1.00
      L1  C     6    20       P1  8028  0.20
      L1  C     7    21       P1  8028  0.71

> <Gold.PLP.Chemscore.Internal.Correction>
0.0093

> <Gold.Rescore>
     Score         DG    S(hbond)    S(metal)    S(lipo)     H(rot)  DE(clash)    DE(int)     intcor
     15.64     -17.87       1.92        0.00      72.85       1.00       0.31       1.92       ----

> <Gold.Chemscore.Fitness>
15.6430

> <Gold.Chemscore.DG>
-17.8657

> <Gold.Chemscore.ZeroCoef>
-5.4800

> <Gold.Chemscore.Hbond>
1.9230

> <Gold.Chemscore.Metal>
0.0000

> <Gold.Chemscore.Lipo>
72.8457

> <Gold.Chemscore.Internal_Hbond>
0.0000

> <Gold.Chemscore.DEClash>
0.3060

> <Gold.Chemscore.DEInternal>
1.9167

> <Gold.Chemscore.Rot>
1.0000

> <Gold.Chemscore.Internal.Correction>
   9.000000E+99

> <Gold.Chemscore.Hbonds>
donor molecule, donor type, donor heavy atom, donor atom, acceptor molecule, acceptor atom, score
      L1  H     3    19       P1  7948  0.86
      L1  H     9    22       P1  7948  0.99

> <Gold.Chemscore.Hbond.Weighted>
-6.4228

> <Gold.Chemscore.Metal.Weighted>
-0.0000

> <Gold.Chemscore.Lipo.Weighted>
-8.5229

> <Gold.Chemscore.Internal_Hbond.Weighted>
0.0000

> <Gold.Chemscore.DEClash.Weighted>
0.3060

> <Gold.Chemscore.DEInternal.Weighted>
1.9167

> <Gold.Chemscore.Rot.Weighted>
2.5600

> <Gold.Chemscore.Internal.Correction.Weighted>
   9.000000E+99

> <Gold.Protein.RotatedTorsions>
[ 6907 6896 6895 6894 ] final   36.38 input  -60.11 | X-H torsion
[ 7974 7965 7964 7962 ] final  -35.11 input  175.53 | X-H torsion
[ 8008 7997 7996 7995 ] final -155.61 input   59.86 | X-H torsion
[ 10167 10162 10161 10158 ] final  -31.09 input  -65.29 | X-H torsion
[ 10718 10713 10712 10709 ] final  109.15 input   66.30 | X-H torsion
[ 10763 10752 10751 10750 ] final   -9.98 input  -60.55 | X-H torsion
[ 11005 11000 10999 10996 ] final   42.16 input  -57.11 | X-H torsion

> <Gold.Protein.ActiveResidues>
 VAL166  LYS551  ARG553  GLY616  TRP617  ASP618  TYR619  PRO620  LYS621  CYS622 
 ASP623  PHE694  ASN695  SER759  ASP760  ASP761  ALA762  ILE779  LEU786  VAL792 
 PHE793  MET794  SER795  GLU796  ALA797  LYS798  CYS799  TRP800  GLU811  SER814 

> <Gold.Protein.RotatedAtoms>
  152.1290  134.9149  160.0559 H   0  0  0  0  0  0  0  0  0  0  0  0  # atno 6907 bound_to 6896
  152.0261  133.3913  159.4286 H   0  0  0  0  0  0  0  0  0  0  0  0  # atno 6908 bound_to 6896
  150.6855  134.3494  159.4946 H   0  0  0  0  0  0  0  0  0  0  0  0  # atno 6909 bound_to 6896
  146.0773  140.6120  142.8924 H   0  0  0  0  0  0  0  0  0  0  0  0  # atno 7974 bound_to 7965
  155.7045  140.0771  157.2396 H   0  0  0  0  0  0  0  0  0  0  0  0  # atno 8008 bound_to 7997
  154.4068  140.1641  156.2281 H   0  0  0  0  0  0  0  0  0  0  0  0  # atno 8009 bound_to 7997
  155.9338  140.3389  155.6274 H   0  0  0  0  0  0  0  0  0  0  0  0  # atno 8010 bound_to 7997
  140.7241  143.3797  151.1623 H   0  0  0  0  0  0  0  0  0  0  0  0  # atno 10167 bound_to 10162
  157.6554  131.0908  150.6410 H   0  0  0  0  0  0  0  0  0  0  0  0  # atno 10718 bound_to 10713
  153.4626  135.7016  153.6041 H   0  0  0  0  0  0  0  0  0  0  0  0  # atno 10763 bound_to 10752
  153.4329  135.3798  155.2181 H   0  0  0  0  0  0  0  0  0  0  0  0  # atno 10764 bound_to 10752
  154.8727  135.3955  154.4054 H   0  0  0  0  0  0  0  0  0  0  0  0  # atno 10765 bound_to 10752
  140.1765  134.4157  155.8225 H   0  0  0  0  0  0  0  0  0  0  0  0  # atno 11005 bound_to 11000
  144.7270  140.4555  143.6966 LP  0  0  0  0  0  0  0  0  0  0  0  0  # atno 17320 bound_to 7965
  145.6282  139.1533  143.2984 LP  0  0  0  0  0  0  0  0  0  0  0  0  # atno 17321 bound_to 7965
  139.7384  143.8962  152.3042 LP  0  0  0  0  0  0  0  0  0  0  0  0  # atno 17342 bound_to 10162
  139.8775  144.7035  150.8916 LP  0  0  0  0  0  0  0  0  0  0  0  0  # atno 17343 bound_to 10162
  156.6717  130.4541  149.5655 LP  0  0  0  0  0  0  0  0  0  0  0  0  # atno 17370 bound_to 10713
  156.1992  130.6609  151.1149 LP  0  0  0  0  0  0  0  0  0  0  0  0  # atno 17371 bound_to 10713
  141.2220  133.6980  156.7856 LP  0  0  0  0  0  0  0  0  0  0  0  0  # atno 17394 bound_to 11000
  140.2316  134.8681  157.3483 LP  0  0  0  0  0  0  0  0  0  0  0  0  # atno 17395 bound_to 11000

$$$$
