AV-unprocessed.smi:2999|AV-procd|sdf|11425|dock5
  -GOLD-   2272016353D 1   1.00000     0.00000
 Structure written by MMmdl.
 37 39  0  0  0  0  0  0  0  0  3 V2000
  150.8479  134.9322  156.2547 O   0  0  0  0  0  0  0  0  0  0  0  0
  150.6512  135.2511  155.0800 C   0  0  0  0  0  0  0  0  0  0  0  0
  149.6945  134.6376  154.3731 N   0  0  0  0  0  0  0  0  0  0  0  0
  148.8097  133.5951  154.8769 C   0  0  0  0  0  0  0  0  0  0  0  0
  148.6029  132.4948  153.8256 C   0  0  2  0  0  0  0  0  0  0  0  0
  147.2086  132.5507  153.1648 C   0  0  0  0  0  0  0  0  0  0  0  0
  147.0408  131.4258  152.2176 N   0  3  2  0  0  0  0  0  0  0  0  0
  145.7342  131.4603  151.5263 C   0  0  0  0  0  0  0  0  0  0  0  0
  145.8304  131.8274  150.0639 C   0  0  0  0  0  0  0  0  0  0  0  0
  145.3272  132.8410  151.0678 C   0  0  0  0  0  0  0  0  0  0  0  0
  147.2895  130.1333  152.8945 C   0  0  0  0  0  0  0  0  0  0  0  0
  148.6726  130.1429  153.5651 C   0  0  0  0  0  0  0  0  0  0  0  0
  148.7541  131.2350  154.4732 O   0  0  0  0  0  0  0  0  0  0  0  0
  151.3173  136.1959  154.3792 N   0  5  0  0  0  0  0  0  0  0  0  0
  151.5425  137.4031  154.9234 C   0  0  0  0  0  0  0  0  0  0  0  0
  150.8296  137.8849  155.9479 N   0  0  0  0  0  0  0  0  0  0  0  0
  151.2268  139.1621  156.3483 C   0  0  0  0  0  0  0  0  0  0  0  0
  152.2606  139.6679  155.6056 C   0  0  0  0  0  0  0  0  0  0  0  0
  152.7705  138.5479  154.3750 S   0  0  0  0  0  0  0  0  0  0  0  0
  149.5719  134.9249  153.4133 H   0  0  0  0  0  0  0  0  0  0  0  0
  149.2486  133.1710  155.7809 H   0  0  0  0  0  0  0  0  0  0  0  0
  147.8467  134.0242  155.1590 H   0  0  0  0  0  0  0  0  0  0  0  0
  149.3762  132.5930  153.0608 H   0  0  0  0  0  0  0  0  0  0  0  0
  146.4280  132.5065  153.9263 H   0  0  0  0  0  0  0  0  0  0  0  0
  147.0794  133.4923  152.6299 H   0  0  0  0  0  0  0  0  0  0  0  0
  144.9844  130.7502  151.8711 H   0  0  0  0  0  0  0  0  0  0  0  0
  146.8180  131.9923  149.6367 H   0  0  0  0  0  0  0  0  0  0  0  0
  145.0985  131.3905  149.3876 H   0  0  0  0  0  0  0  0  0  0  0  0
  144.2638  133.0715  151.0539 H   0  0  0  0  0  0  0  0  0  0  0  0
  145.9805  133.6778  151.3089 H   0  0  0  0  0  0  0  0  0  0  0  0
  146.5136  129.9550  153.6406 H   0  0  0  0  0  0  0  0  0  0  0  0
  147.2326  129.3195  152.1709 H   0  0  0  0  0  0  0  0  0  0  0  0
  148.8309  129.2146  154.1140 H   0  0  0  0  0  0  0  0  0  0  0  0
  149.4672  130.2121  152.8205 H   0  0  0  0  0  0  0  0  0  0  0  0
  150.7153  139.6380  157.1715 H   0  0  0  0  0  0  0  0  0  0  0  0
  152.7496  140.6253  155.7050 H   0  0  0  0  0  0  0  0  0  0  0  0
  147.7527  131.5305  151.5087 H   0  0  0  0  0  0  0  0  0  0  0  0
  1  2  2  0  0  0  0
  2  3  1  0  0  0  0
  2 14  1  0  0  0  0
  3  4  1  0  0  0  0
  3 20  1  0  0  0  0
  4  5  1  0  0  0  0
  4 21  1  0  0  0  0
  4 22  1  0  0  0  0
  5 13  1  0  0  0  0
  5  6  1  0  0  0  0
  5 23  1  0  0  0  0
  6  7  1  0  0  0  0
  6 24  1  0  0  0  0
  6 25  1  0  0  0  0
  7  8  1  0  0  0  0
  7 11  1  0  0  0  0
  7 37  1  0  0  0  0
  8 10  1  0  0  0  0
  8  9  1  0  0  0  0
  8 26  1  0  0  0  0
  9 10  1  0  0  0  0
  9 27  1  0  0  0  0
  9 28  1  0  0  0  0
 10 29  1  0  0  0  0
 10 30  1  0  0  0  0
 11 12  1  0  0  0  0
 11 31  1  0  0  0  0
 11 32  1  0  0  0  0
 12 13  1  0  0  0  0
 12 33  1  0  0  0  0
 12 34  1  0  0  0  0
 14 15  1  0  0  0  0
 15 19  1  0  0  0  0
 15 16  2  0  0  0  0
 16 17  1  0  0  0  0
 17 18  2  0  0  0  0
 17 35  1  0  0  0  0
 18 19  1  0  0  0  0
 18 36  1  0  0  0  0
M  CHG  1   7   1
M  CHG  1  14  -1
M  END
> <s_m_source_file>
AV-unprocessed.smi

> <i_m_source_file_index>
2999

> <i_lp_mmshare_version>
43012

> <i_f3d_flags>
0

> <s_epik_input>
czFbY0hdW2NIXW5jMVtOSF1DKD1PKVtOSF1bQ0gyXVtDQEBIXTJbQ0gyXU4oW0NIMl1bQ0gyXU8yKVtDSF0zW0NIMl1bQ0gyXTM=

> <s_epik_cmdline>
J2VwaWtfcHl0aG9uJywgJy1waCcsICc3LjAnLCAnLXRuJywgJzgnLCAnLW1hJywgJzIwMCcsICctbWV0YWxfYmluZGluZycsICctaW1hZScsICc8aW5maWxlLm1hZT4nLCAnLW9tYWUnLCAnPG91dGZpbGUubWFlPic=

> <r_lp_tautomer_probability>
0.999

> <r_epik_Ionization_Penalty>
7.79196

> <r_epik_Ionization_Penalty_Charging>
6.93299

> <r_epik_Ionization_Penalty_Neutral>
0.858963

> <r_epik_State_Penalty>
7.05108

> <r_epik_Charging_Adjusted_Penalty>
13.9841

> <i_epik_Tot_Q>
0

> <i_epik_Tot_abs_Q>
2

> <r_epik_Metal_State_Penalty>
3.05936

> <b_epik_Metal_Only>
1

> <s_lp_Force_Field>
OPLS_2005

> <r_lp_Energy>
14.1159

> <b_lp_Chiralities_Consistent>
1

> <s_lp_Variant>
AV-unprocessed.smi:2999-9

> <Gold.Version>
5.8.1

> <Gold.Id.Protein>
6NUR|6NUR_protein|mol2

> <Gold.PLP.Fitness>
39.7910

> <Gold.PLP.PLP>
-32.0523

> <Gold.PLP.part.hbond>
-3.0000

> <Gold.PLP.part.metal>
0.0000

> <Gold.PLP.part.buried>
-4.1189

> <Gold.PLP.part.nonpolar>
-25.9354

> <Gold.PLP.part.repulsive>
1.5337

> <Gold.PLP.ligand.clash>
0.0000

> <Gold.PLP.ligand.torsion>
2.0900

> <Gold.PLP.Chemscore.Hbond>
3.5500

> <Gold.PLP.Chemscore.CHOScore>
0.0000

> <Gold.PLP.Chemscore.Metal>
0.0000

> <Gold.Chemscore.Hbonds>
donor molecule, donor type, donor heavy atom, donor atom, acceptor molecule, acceptor atom, score
      L1  H     3    20       P1  7948  0.36
      L1  H     7    37       P1 10747  1.00
      P1  H 10752 10763       L1    14  1.80

> <Gold.PLP.Chemscore.Internal.Correction>
1.2687

> <Gold.Rescore>
     Score         DG    S(hbond)    S(metal)    S(lipo)     H(rot)  DE(clash)    DE(int)     intcor
     13.75     -16.27       1.82        0.00      74.21       1.55       0.10       2.42       ----

> <Gold.Chemscore.Fitness>
13.7484

> <Gold.Chemscore.DG>
-16.2671

> <Gold.Chemscore.ZeroCoef>
-5.4800

> <Gold.Chemscore.Hbond>
1.8185

> <Gold.Chemscore.Metal>
0.0000

> <Gold.Chemscore.Lipo>
74.2073

> <Gold.Chemscore.Internal_Hbond>
0.0000

> <Gold.Chemscore.DEClash>
0.1013

> <Gold.Chemscore.DEInternal>
2.4175

> <Gold.Chemscore.Rot>
1.5504

> <Gold.Chemscore.Internal.Correction>
   9.000000E+99

> <Gold.Chemscore.Hbonds>
donor molecule, donor type, donor heavy atom, donor atom, acceptor molecule, acceptor atom, score
      L1  H     3    20       P1  7948  0.01
      L1  H     7    37       P1 10747  0.97
      P1  H 10752 10763       L1    14  0.07

> <Gold.Chemscore.Hbond.Weighted>
-6.0739

> <Gold.Chemscore.Metal.Weighted>
-0.0000

> <Gold.Chemscore.Lipo.Weighted>
-8.6823

> <Gold.Chemscore.Internal_Hbond.Weighted>
0.0000

> <Gold.Chemscore.DEClash.Weighted>
0.1013

> <Gold.Chemscore.DEInternal.Weighted>
2.4175

> <Gold.Chemscore.Rot.Weighted>
3.9690

> <Gold.Chemscore.Internal.Correction.Weighted>
   9.000000E+99

> <Gold.Protein.RotatedTorsions>
[ 6907 6896 6895 6894 ] final   79.76 input  -60.11 | X-H torsion
[ 7974 7965 7964 7962 ] final  -32.23 input  175.53 | X-H torsion
[ 8008 7997 7996 7995 ] final   45.15 input   59.86 | X-H torsion
[ 10167 10162 10161 10158 ] final -109.81 input  -65.29 | X-H torsion
[ 10718 10713 10712 10709 ] final  153.19 input   66.30 | X-H torsion
[ 10763 10752 10751 10750 ] final   48.30 input  -60.55 | X-H torsion
[ 11005 11000 10999 10996 ] final -116.89 input  -57.11 | X-H torsion

> <Gold.Protein.ActiveResidues>
 VAL166  LYS551  ARG553  GLY616  TRP617  ASP618  TYR619  PRO620  LYS621  CYS622 
 ASP623  PHE694  ASN695  SER759  ASP760  ASP761  ALA762  ILE779  LEU786  VAL792 
 PHE793  MET794  SER795  GLU796  ALA797  LYS798  CYS799  TRP800  GLU811  SER814 

> <Gold.Protein.RotatedAtoms>
  152.5210  134.3461  159.9234 H   0  0  0  0  0  0  0  0  0  0  0  0  # atno 6907 bound_to 6896
  151.3411  133.3955  159.2679 H   0  0  0  0  0  0  0  0  0  0  0  0  # atno 6908 bound_to 6896
  150.9802  134.9177  159.7898 H   0  0  0  0  0  0  0  0  0  0  0  0  # atno 6909 bound_to 6896
  146.1006  140.5767  142.8823 H   0  0  0  0  0  0  0  0  0  0  0  0  # atno 7974 bound_to 7965
  155.3311  140.3402  155.4239 H   0  0  0  0  0  0  0  0  0  0  0  0  # atno 8008 bound_to 7997
  156.1861  140.1681  156.8219 H   0  0  0  0  0  0  0  0  0  0  0  0  # atno 8009 bound_to 7997
  154.5388  140.0729  156.8457 H   0  0  0  0  0  0  0  0  0  0  0  0  # atno 8010 bound_to 7997
  140.1512  143.4197  152.1493 H   0  0  0  0  0  0  0  0  0  0  0  0  # atno 10167 bound_to 10162
  157.2480  131.0773  151.1748 H   0  0  0  0  0  0  0  0  0  0  0  0  # atno 10718 bound_to 10713
  152.9793  135.5948  154.3904 H   0  0  0  0  0  0  0  0  0  0  0  0  # atno 10763 bound_to 10752
  154.3559  135.2767  155.2348 H   0  0  0  0  0  0  0  0  0  0  0  0  # atno 10764 bound_to 10752
  154.4367  135.6023  153.6158 H   0  0  0  0  0  0  0  0  0  0  0  0  # atno 10765 bound_to 10752
  141.0392  133.9862  157.3022 H   0  0  0  0  0  0  0  0  0  0  0  0  # atno 11005 bound_to 11000
  144.7429  140.4992  143.6856 LP  0  0  0  0  0  0  0  0  0  0  0  0  # atno 17320 bound_to 7965
  145.5862  139.1492  143.3207 LP  0  0  0  0  0  0  0  0  0  0  0  0  # atno 17321 bound_to 7965
  139.5425  144.7269  151.4689 LP  0  0  0  0  0  0  0  0  0  0  0  0  # atno 17342 bound_to 10162
  140.6701  143.8313  150.6989 LP  0  0  0  0  0  0  0  0  0  0  0  0  # atno 17343 bound_to 10162
  157.3308  130.6984  149.6323 LP  0  0  0  0  0  0  0  0  0  0  0  0  # atno 17370 bound_to 10713
  155.9667  130.4308  150.4892 LP  0  0  0  0  0  0  0  0  0  0  0  0  # atno 17371 bound_to 10713
  139.9263  135.0201  156.8245 LP  0  0  0  0  0  0  0  0  0  0  0  0  # atno 17394 bound_to 11000
  140.6266  133.9944  155.7642 LP  0  0  0  0  0  0  0  0  0  0  0  0  # atno 17395 bound_to 11000

$$$$
