AV-unprocessed.smi:34|AV-procd|sdf|216|dock2
  -GOLD-   2262015523D 1   1.00000     0.00000
 Structure written by MMmdl.
 55 59  0  0  0  0  0  0  0  0  1 V2000
  145.0864  132.0603  151.0804 O   0  0  0  0  0  0  0  0  0  0  0  0
  145.8961  131.9069  151.9954 C   0  0  0  0  0  0  0  0  0  0  0  0
  146.3275  133.0078  152.8390 N   0  0  0  0  0  0  0  0  0  0  0  0
  146.0117  134.3196  152.7289 C   0  0  0  0  0  0  0  0  0  0  0  0
  145.2240  134.7984  151.7304 N   0  0  0  0  0  0  0  0  0  0  0  0
  144.9423  136.1024  151.6637 C   0  0  0  0  0  0  0  0  0  0  0  0
  145.3400  137.0817  152.4774 N   0  0  0  0  0  0  0  0  0  0  0  0
  146.1342  136.6135  153.4821 C   0  0  0  0  0  0  0  0  0  0  0  0
  146.5124  135.2545  153.6723 C   0  0  0  0  0  0  0  0  0  0  0  0
  147.3243  135.1446  154.7933 N   0  0  0  0  0  0  0  0  0  0  0  0
  147.4175  136.3690  155.2368 C   0  0  0  0  0  0  0  0  0  0  0  0
  146.7307  137.3172  154.5115 N   0  0  0  0  0  0  0  0  0  0  0  0
  146.6550  138.7869  154.7967 C   0  0  1  0  0  0  0  0  0  0  0  0
  147.3604  139.0897  155.9658 O   0  0  0  0  0  0  0  0  0  0  0  0
  148.1491  140.2728  155.8010 C   0  0  1  0  0  0  0  0  0  0  0  0
  149.6372  139.8866  155.8148 C   0  0  0  0  0  0  0  0  0  0  0  0
  150.3170  140.6938  156.7629 O   0  0  0  0  0  0  0  0  0  0  0  0
  151.6216  140.4792  157.0251 C   0  0  0  0  0  0  0  0  0  0  0  0
  152.3311  139.7063  156.3779 O   0  0  0  0  0  0  0  0  0  0  0  0
  152.1160  141.2669  158.1907 C   0  0  0  0  0  0  0  0  0  0  0  0
  153.0754  140.6933  159.0573 C   0  0  0  0  0  0  0  0  0  0  0  0
  153.5596  141.4118  160.1678 C   0  0  0  0  0  0  0  0  0  0  0  0
  153.0901  142.7128  160.4251 C   0  0  0  0  0  0  0  0  0  0  0  0
  152.1348  143.2942  159.5712 C   0  0  0  0  0  0  0  0  0  0  0  0
  151.6491  142.5772  158.4603 C   0  0  0  0  0  0  0  0  0  0  0  0
  147.6757  140.8592  154.4668 C   0  0  1  0  0  0  0  0  0  0  0  0
  148.5668  141.6267  153.8363 F   0  0  0  0  0  0  0  0  0  0  0  0
  147.2368  139.6474  153.6677 C   0  0  1  0  0  0  0  0  0  0  0  0
  148.3105  139.0259  152.9820 O   0  0  0  0  0  0  0  0  0  0  0  0
  146.4270  130.5505  152.3591 C   0  0  0  0  0  0  0  0  0  0  0  0
  146.1165  129.4306  151.5548 C   0  0  0  0  0  0  0  0  0  0  0  0
  146.6242  128.1573  151.8785 C   0  0  0  0  0  0  0  0  0  0  0  0
  147.4528  127.9941  153.0045 C   0  0  0  0  0  0  0  0  0  0  0  0
  147.7768  129.1060  153.8045 C   0  0  0  0  0  0  0  0  0  0  0  0
  147.2697  130.3799  153.4819 C   0  0  0  0  0  0  0  0  0  0  0  0
  146.9514  132.7658  153.5948 H   0  0  0  0  0  0  0  0  0  0  0  0
  144.3077  136.4042  150.8433 H   0  0  0  0  0  0  0  0  0  0  0  0
  147.9926  136.6168  156.1171 H   0  0  0  0  0  0  0  0  0  0  0  0
  145.5953  138.9830  154.9664 H   0  0  0  0  0  0  0  0  0  0  0  0
  147.9476  140.9740  156.6116 H   0  0  0  0  0  0  0  0  0  0  0  0
  149.7563  138.8280  156.0451 H   0  0  0  0  0  0  0  0  0  0  0  0
  150.0824  140.0570  154.8342 H   0  0  0  0  0  0  0  0  0  0  0  0
  153.4499  139.6952  158.8803 H   0  0  0  0  0  0  0  0  0  0  0  0
  154.2921  140.9632  160.8225 H   0  0  0  0  0  0  0  0  0  0  0  0
  153.4615  143.2639  161.2765 H   0  0  0  0  0  0  0  0  0  0  0  0
  151.7730  144.2927  159.7681 H   0  0  0  0  0  0  0  0  0  0  0  0
  150.9161  143.0528  157.8253 H   0  0  0  0  0  0  0  0  0  0  0  0
  146.8065  141.4923  154.6509 H   0  0  0  0  0  0  0  0  0  0  0  0
  146.4555  139.8891  152.9467 H   0  0  0  0  0  0  0  0  0  0  0  0
  148.7067  139.6617  152.4060 H   0  0  0  0  0  0  0  0  0  0  0  0
  145.4831  129.5394  150.6859 H   0  0  0  0  0  0  0  0  0  0  0  0
  146.3786  127.3057  151.2612 H   0  0  0  0  0  0  0  0  0  0  0  0
  147.8427  127.0177  153.2518 H   0  0  0  0  0  0  0  0  0  0  0  0
  148.4178  128.9825  154.6651 H   0  0  0  0  0  0  0  0  0  0  0  0
  147.5393  131.2214  154.1037 H   0  0  0  0  0  0  0  0  0  0  0  0
  1  2  2  0  0  0  0
  2  3  1  0  0  0  0
  2 30  1  0  0  0  0
  3  4  1  0  0  0  0
  3 36  1  0  0  0  0
  4  9  1  0  0  0  0
  4  5  2  0  0  0  0
  5  6  1  0  0  0  0
  6  7  2  0  0  0  0
  6 37  1  0  0  0  0
  7  8  1  0  0  0  0
  8 12  1  0  0  0  0
  8  9  2  0  0  0  0
  9 10  1  0  0  0  0
 10 11  2  0  0  0  0
 11 12  1  0  0  0  0
 11 38  1  0  0  0  0
 12 13  1  0  0  0  0
 13 28  1  0  0  0  0
 13 14  1  0  0  0  0
 13 39  1  0  0  0  0
 14 15  1  0  0  0  0
 15 16  1  0  0  0  0
 15 26  1  0  0  0  0
 15 40  1  0  0  0  0
 16 17  1  0  0  0  0
 16 41  1  0  0  0  0
 16 42  1  0  0  0  0
 17 18  1  0  0  0  0
 18 19  2  0  0  0  0
 18 20  1  0  0  0  0
 20 25  1  0  0  0  0
 20 21  2  0  0  0  0
 21 22  1  0  0  0  0
 21 43  1  0  0  0  0
 22 23  2  0  0  0  0
 22 44  1  0  0  0  0
 23 24  1  0  0  0  0
 23 45  1  0  0  0  0
 24 25  2  0  0  0  0
 24 46  1  0  0  0  0
 25 47  1  0  0  0  0
 26 27  1  0  0  0  0
 26 28  1  0  0  0  0
 26 48  1  0  0  0  0
 28 29  1  0  0  0  0
 28 49  1  0  0  0  0
 29 50  1  0  0  0  0
 30 35  1  0  0  0  0
 30 31  2  0  0  0  0
 31 32  1  0  0  0  0
 31 51  1  0  0  0  0
 32 33  2  0  0  0  0
 32 52  1  0  0  0  0
 33 34  1  0  0  0  0
 33 53  1  0  0  0  0
 34 35  2  0  0  0  0
 34 54  1  0  0  0  0
 35 55  1  0  0  0  0
M  END
> <s_m_source_file>
AV-unprocessed.smi

> <i_m_source_file_index>
34

> <i_lp_mmshare_version>
43012

> <i_f3d_flags>
0

> <s_epik_input>
W2NIXTFbY0hdW2NIXVtjSF1bY0hdYzFDKD1PKVtOSF1jKG5bY0hdbjIpYyhjMjMpbltjSF1uM1tDQEBIXTRPW0NASF0oW0NAQEhdKEYpW0NASF00W09IXSlbQ0gyXU9DKD1PKWM1W2NIXVtjSF1bY0hdW2NIXVtjSF01

> <s_epik_cmdline>
J2VwaWtfcHl0aG9uJywgJy1waCcsICc3LjAnLCAnLXRuJywgJzgnLCAnLW1hJywgJzIwMCcsICctbWV0YWxfYmluZGluZycsICctaW1hZScsICc8aW5maWxlLm1hZT4nLCAnLW9tYWUnLCAnPG91dGZpbGUubWFlPic=

> <r_lp_tautomer_probability>
1

> <r_epik_Ionization_Penalty>
0.00257489

> <r_epik_Ionization_Penalty_Charging>
0

> <r_epik_Ionization_Penalty_Neutral>
0.00257489

> <r_epik_State_Penalty>
0.00519398

> <r_epik_Charging_Adjusted_Penalty>
0.00519398

> <i_epik_Tot_Q>
0

> <i_epik_Tot_abs_Q>
0

> <r_epik_Metal_State_Penalty>
0.335891

> <b_epik_Metal_Only>
0

> <s_epik_Chemistry_Notes>
This compound has an ester and may undergo hydrolysis at high or low pH. This compound contains an acetal/aminal-like group ( X-CH(R)-Y where X, Y are N, S, or O) that may be acid/base labile, releasing an aldehyde.

> <s_lp_Force_Field>
OPLS_2005

> <r_lp_Energy>
55.8297

> <b_lp_Chiralities_Consistent>
1

> <s_lp_Variant>
AV-unprocessed.smi:34-2

> <Gold.Version>
5.8.1

> <Gold.Id.Protein>
6NUR|6NUR_protein|mol2

> <Gold.PLP.Fitness>
55.5089

> <Gold.PLP.PLP>
-48.5952

> <Gold.PLP.part.hbond>
-2.5647

> <Gold.PLP.part.metal>
0.0000

> <Gold.PLP.part.buried>
-4.4532

> <Gold.PLP.part.nonpolar>
-41.7581

> <Gold.PLP.part.repulsive>
0.5689

> <Gold.PLP.ligand.clash>
0.0000

> <Gold.PLP.ligand.torsion>
1.3355

> <Gold.PLP.Chemscore.Hbond>
2.0000

> <Gold.PLP.Chemscore.CHOScore>
1.0000

> <Gold.PLP.Chemscore.Metal>
0.0000

> <Gold.Chemscore.Hbonds>
donor molecule, donor type, donor heavy atom, donor atom, acceptor molecule, acceptor atom, score
      L1  H    29    50       P1  7957  1.00
      P1  H  7997  8009       L1    19  0.98
      L1  C     6    37       P1 10171  1.00

> <Gold.PLP.Chemscore.Internal.Correction>
0.5847

> <Gold.Rescore>
     Score         DG    S(hbond)    S(metal)    S(lipo)     H(rot)  DE(clash)    DE(int)     intcor
     15.72     -19.02       1.75        0.00     125.47       2.72       0.69       2.61       ----

> <Gold.Chemscore.Fitness>
15.7229

> <Gold.Chemscore.DG>
-19.0216

> <Gold.Chemscore.ZeroCoef>
-5.4800

> <Gold.Chemscore.Hbond>
1.7451

> <Gold.Chemscore.Metal>
0.0000

> <Gold.Chemscore.Lipo>
125.4689

> <Gold.Chemscore.Internal_Hbond>
0.0000

> <Gold.Chemscore.DEClash>
0.6902

> <Gold.Chemscore.DEInternal>
2.6085

> <Gold.Chemscore.Rot>
2.7215

> <Gold.Chemscore.Internal.Correction>
   9.000000E+99

> <Gold.Chemscore.Hbonds>
donor molecule, donor type, donor heavy atom, donor atom, acceptor molecule, acceptor atom, score
      L1  H    29    50       P1  7957  0.93
      P1  H  7997  8009       L1    19  0.85

> <Gold.Chemscore.Hbond.Weighted>
-5.8288

> <Gold.Chemscore.Metal.Weighted>
-0.0000

> <Gold.Chemscore.Lipo.Weighted>
-14.6799

> <Gold.Chemscore.Internal_Hbond.Weighted>
0.0000

> <Gold.Chemscore.DEClash.Weighted>
0.6902

> <Gold.Chemscore.DEInternal.Weighted>
2.6085

> <Gold.Chemscore.Rot.Weighted>
6.9670

> <Gold.Chemscore.Internal.Correction.Weighted>
   9.000000E+99

> <Gold.Protein.RotatedTorsions>
[ 6907 6896 6895 6894 ] final   46.72 input  -60.11 | X-H torsion
[ 7974 7965 7964 7962 ] final   17.03 input  175.53 | X-H torsion
[ 8008 7997 7996 7995 ] final -162.87 input   59.86 | X-H torsion
[ 10167 10162 10161 10158 ] final   61.65 input  -65.29 | X-H torsion
[ 10718 10713 10712 10709 ] final   16.46 input   66.30 | X-H torsion
[ 10763 10752 10751 10750 ] final   65.06 input  -60.55 | X-H torsion
[ 11005 11000 10999 10996 ] final  -39.32 input  -57.11 | X-H torsion

> <Gold.Protein.ActiveResidues>
 VAL166  LYS551  ARG553  GLY616  TRP617  ASP618  TYR619  PRO620  LYS621  CYS622 
 ASP623  PHE694  ASN695  SER759  ASP760  ASP761  ALA762  ILE779  LEU786  VAL792 
 PHE793  MET794  SER795  GLU796  ALA797  LYS798  CYS799  TRP800  GLU811  SER814 

> <Gold.Protein.RotatedAtoms>
  152.2597  134.8047  160.0432 H   0  0  0  0  0  0  0  0  0  0  0  0  # atno 6907 bound_to 6896
  151.8698  133.3468  159.3739 H   0  0  0  0  0  0  0  0  0  0  0  0  # atno 6908 bound_to 6896
  150.7112  134.5051  159.5624 H   0  0  0  0  0  0  0  0  0  0  0  0  # atno 6909 bound_to 6896
  146.2231  139.8661  142.8596 H   0  0  0  0  0  0  0  0  0  0  0  0  # atno 7974 bound_to 7965
  155.8130  140.0908  157.1893 H   0  0  0  0  0  0  0  0  0  0  0  0  # atno 8008 bound_to 7997
  154.3979  140.1451  156.3469 H   0  0  0  0  0  0  0  0  0  0  0  0  # atno 8009 bound_to 7997
  155.8345  140.3441  155.5595 H   0  0  0  0  0  0  0  0  0  0  0  0  # atno 8010 bound_to 7997
  140.1525  144.4449  150.6752 H   0  0  0  0  0  0  0  0  0  0  0  0  # atno 10167 bound_to 10162
  157.0682  130.6337  149.5800 H   0  0  0  0  0  0  0  0  0  0  0  0  # atno 10718 bound_to 10713
  153.0081  135.5370  154.6608 H   0  0  0  0  0  0  0  0  0  0  0  0  # atno 10763 bound_to 10752
  154.5817  135.2850  155.0728 H   0  0  0  0  0  0  0  0  0  0  0  0  # atno 10764 bound_to 10752
  154.1854  135.6509  153.5098 H   0  0  0  0  0  0  0  0  0  0  0  0  # atno 10765 bound_to 10752
  141.0093  133.6916  156.2171 H   0  0  0  0  0  0  0  0  0  0  0  0  # atno 11005 bound_to 11000
  145.2655  141.0091  143.3801 LP  0  0  0  0  0  0  0  0  0  0  0  0  # atno 17320 bound_to 7965
  144.9264  139.4350  143.6516 LP  0  0  0  0  0  0  0  0  0  0  0  0  # atno 17321 bound_to 7965
  140.6694  143.2280  151.5663 LP  0  0  0  0  0  0  0  0  0  0  0  0  # atno 17342 bound_to 10162
  139.5419  144.2624  152.1368 LP  0  0  0  0  0  0  0  0  0  0  0  0  # atno 17343 bound_to 10162
  155.9958  130.5026  150.7473 LP  0  0  0  0  0  0  0  0  0  0  0  0  # atno 17370 bound_to 10713
  157.4900  131.0910  151.0438 LP  0  0  0  0  0  0  0  0  0  0  0  0  # atno 17371 bound_to 10713
  140.6760  134.4817  157.5588 LP  0  0  0  0  0  0  0  0  0  0  0  0  # atno 17394 bound_to 11000
  139.9081  134.8405  156.1630 LP  0  0  0  0  0  0  0  0  0  0  0  0  # atno 17395 bound_to 11000

$$$$
