AV-unprocessed.smi:1601|AV-procd|sdf|6436|dock9
  -GOLD-   22720 7 83D 1   1.00000     0.00000
 Structure written by MMmdl.
 42 43  0  0  0  0  0  0  0  0  2 V2000
  146.8388  143.2403  154.3250 C   0  0  0  0  0  0  0  0  0  0  0  0
  146.3289  141.9920  155.0885 C   0  0  1  0  0  0  0  0  0  0  0  0
  146.9266  141.9596  156.5208 C   0  0  0  0  0  0  0  0  0  0  0  0
  148.3763  141.8047  156.5157 N   0  0  0  0  0  0  0  0  0  0  0  0
  149.1131  141.4772  157.5877 C   0  0  0  0  0  0  0  0  0  0  0  0
  148.6216  141.2456  158.6930 O   0  0  0  0  0  0  0  0  0  0  0  0
  150.6328  141.4096  157.3676 C   0  0  2  0  0  0  0  0  0  0  0  0
  151.1888  139.9744  157.4317 C   0  0  0  0  0  0  0  0  0  0  0  0
  151.3171  142.2813  158.3144 N   0  0  0  0  0  0  0  0  0  0  0  0
  151.2781  143.6591  158.4084 C   0  0  0  0  0  0  0  0  0  0  0  0
  152.0946  144.0222  159.4405 C   0  0  0  0  0  0  0  0  0  0  0  0
  152.6004  142.7832  159.9226 C   0  0  0  0  0  0  0  0  0  0  0  0
  152.1378  141.7451  159.2449 N   0  0  0  0  0  0  0  0  0  0  0  0
  144.8283  141.9242  155.0985 N   0  3  0  0  0  0  0  0  0  0  0  0
  144.2930  140.6400  155.6331 C   0  0  0  0  0  0  0  0  0  0  0  0
  142.7556  140.6129  155.6076 C   0  0  0  0  0  0  0  0  0  0  0  0
  142.2459  141.7096  156.3485 O   0  0  0  0  0  0  0  0  0  0  0  0
  142.6399  142.9438  155.7716 C   0  0  0  0  0  0  0  0  0  0  0  0
  144.1729  143.0664  155.7971 C   0  0  0  0  0  0  0  0  0  0  0  0
  147.9232  143.3396  154.3697 H   0  0  0  0  0  0  0  0  0  0  0  0
  146.4119  144.1560  154.7349 H   0  0  0  0  0  0  0  0  0  0  0  0
  146.6036  143.2016  153.2625 H   0  0  0  0  0  0  0  0  0  0  0  0
  146.6925  141.1088  154.5604 H   0  0  0  0  0  0  0  0  0  0  0  0
  146.6509  142.8701  157.0562 H   0  0  0  0  0  0  0  0  0  0  0  0
  146.5450  141.1156  157.0939 H   0  0  0  0  0  0  0  0  0  0  0  0
  148.8572  141.9801  155.6447 H   0  0  0  0  0  0  0  0  0  0  0  0
  150.8247  141.7856  156.3605 H   0  0  0  0  0  0  0  0  0  0  0  0
  150.6981  139.3274  156.7039 H   0  0  0  0  0  0  0  0  0  0  0  0
  151.0527  139.5292  158.4182 H   0  0  0  0  0  0  0  0  0  0  0  0
  152.2563  139.9625  157.2094 H   0  0  0  0  0  0  0  0  0  0  0  0
  150.6791  144.2594  157.7392 H   0  0  0  0  0  0  0  0  0  0  0  0
  152.3002  145.0207  159.7964 H   0  0  0  0  0  0  0  0  0  0  0  0
  153.2876  142.6086  160.7374 H   0  0  0  0  0  0  0  0  0  0  0  0
  144.6379  139.7931  155.0431 H   0  0  0  0  0  0  0  0  0  0  0  0
  144.6508  140.4922  156.6532 H   0  0  0  0  0  0  0  0  0  0  0  0
  142.3805  140.6398  154.5830 H   0  0  0  0  0  0  0  0  0  0  0  0
  142.3901  139.6882  156.0541 H   0  0  0  0  0  0  0  0  0  0  0  0
  142.2586  143.0236  154.7524 H   0  0  0  0  0  0  0  0  0  0  0  0
  142.1903  143.7571  156.3418 H   0  0  0  0  0  0  0  0  0  0  0  0
  144.5269  143.1167  156.8281 H   0  0  0  0  0  0  0  0  0  0  0  0
  144.4199  144.0130  155.3207 H   0  0  0  0  0  0  0  0  0  0  0  0
  144.5340  141.9763  154.1335 H   0  0  0  0  0  0  0  0  0  0  0  0
  1  2  1  0  0  0  0
  1 20  1  0  0  0  0
  1 21  1  0  0  0  0
  1 22  1  0  0  0  0
  2  3  1  0  0  0  0
  2 14  1  0  0  0  0
  2 23  1  0  0  0  0
  3  4  1  0  0  0  0
  3 24  1  0  0  0  0
  3 25  1  0  0  0  0
  4  5  1  0  0  0  0
  4 26  1  0  0  0  0
  5  6  2  0  0  0  0
  5  7  1  0  0  0  0
  7  8  1  0  0  0  0
  7  9  1  0  0  0  0
  7 27  1  0  0  0  0
  8 28  1  0  0  0  0
  8 29  1  0  0  0  0
  8 30  1  0  0  0  0
  9 13  1  0  0  0  0
  9 10  1  0  0  0  0
 10 11  2  0  0  0  0
 10 31  1  0  0  0  0
 11 12  1  0  0  0  0
 11 32  1  0  0  0  0
 12 13  2  0  0  0  0
 12 33  1  0  0  0  0
 14 19  1  0  0  0  0
 14 15  1  0  0  0  0
 14 42  1  0  0  0  0
 15 16  1  0  0  0  0
 15 34  1  0  0  0  0
 15 35  1  0  0  0  0
 16 17  1  0  0  0  0
 16 36  1  0  0  0  0
 16 37  1  0  0  0  0
 17 18  1  0  0  0  0
 18 19  1  0  0  0  0
 18 38  1  0  0  0  0
 18 39  1  0  0  0  0
 19 40  1  0  0  0  0
 19 41  1  0  0  0  0
M  CHG  1  14   1
M  END
> <s_m_source_file>
AV-unprocessed.smi

> <i_m_source_file_index>
1601

> <i_lp_mmshare_version>
43012

> <i_f3d_flags>
0

> <s_epik_input>
W0NIMl0xW0NIMl1PW0NIMl1bQ0gyXU4xW0NASF0oW0NIM10pW0NIMl1bTkhdQyg9TylbQ0BIXShbQ0gzXSluMltjSF1bY0hdW2NIXW4y

> <s_epik_cmdline>
J2VwaWtfcHl0aG9uJywgJy1waCcsICc3LjAnLCAnLXRuJywgJzgnLCAnLW1hJywgJzIwMCcsICctbWV0YWxfYmluZGluZycsICctaW1hZScsICc8aW5maWxlLm1hZT4nLCAnLW9tYWUnLCAnPG91dGZpbGUubWFlPic=

> <r_lp_tautomer_probability>
1

> <r_epik_Ionization_Penalty>
0.732551

> <r_epik_Ionization_Penalty_Charging>
0.732531

> <r_epik_Ionization_Penalty_Neutral>
2.04647e-05

> <r_epik_State_Penalty>
0.757939

> <r_epik_Charging_Adjusted_Penalty>
1.49047

> <i_epik_Tot_Q>
1

> <i_epik_Tot_abs_Q>
1

> <r_epik_Metal_State_Penalty>
0.757952

> <b_epik_Metal_Only>
0

> <s_lp_Force_Field>
OPLS_2005

> <r_lp_Energy>
25.0975

> <b_lp_Chiralities_Consistent>
1

> <s_lp_Variant>
AV-unprocessed.smi:1601-6

> <Gold.Version>
5.8.1

> <Gold.Id.Protein>
6NUR|6NUR_protein|mol2

> <Gold.PLP.Fitness>
40.6023

> <Gold.PLP.PLP>
-32.2795

> <Gold.PLP.part.hbond>
-2.4638

> <Gold.PLP.part.metal>
0.0000

> <Gold.PLP.part.buried>
-4.0012

> <Gold.PLP.part.nonpolar>
-26.1696

> <Gold.PLP.part.repulsive>
0.1833

> <Gold.PLP.ligand.clash>
0.0000

> <Gold.PLP.ligand.torsion>
0.4028

> <Gold.PLP.Chemscore.Hbond>
2.0000

> <Gold.PLP.Chemscore.CHOScore>
1.0000

> <Gold.PLP.Chemscore.Metal>
0.0000

> <Gold.Chemscore.Hbonds>
donor molecule, donor type, donor heavy atom, donor atom, acceptor molecule, acceptor atom, score
      L1  H    14    42       P1 10175  0.16
      L1  C    10    31       P1  8028  0.44

> <Gold.PLP.Chemscore.Internal.Correction>
0.1284

> <Gold.Rescore>
     Score         DG    S(hbond)    S(metal)    S(lipo)     H(rot)  DE(clash)    DE(int)     intcor
     11.54     -12.17       0.98        0.00      70.10       1.86       0.07       0.57       ----

> <Gold.Chemscore.Fitness>
11.5354

> <Gold.Chemscore.DG>
-12.1728

> <Gold.Chemscore.ZeroCoef>
-5.4800

> <Gold.Chemscore.Hbond>
0.9761

> <Gold.Chemscore.Metal>
0.0000

> <Gold.Chemscore.Lipo>
70.1046

> <Gold.Chemscore.Internal_Hbond>
0.0000

> <Gold.Chemscore.DEClash>
0.0659

> <Gold.Chemscore.DEInternal>
0.5715

> <Gold.Chemscore.Rot>
1.8631

> <Gold.Chemscore.Internal.Correction>
   9.000000E+99

> <Gold.Chemscore.Hbonds>
donor molecule, donor type, donor heavy atom, donor atom, acceptor molecule, acceptor atom, score
      L1  H    14    42       P1 10175  0.01

> <Gold.Chemscore.Hbond.Weighted>
-3.2602

> <Gold.Chemscore.Metal.Weighted>
-0.0000

> <Gold.Chemscore.Lipo.Weighted>
-8.2022

> <Gold.Chemscore.Internal_Hbond.Weighted>
0.0000

> <Gold.Chemscore.DEClash.Weighted>
0.0659

> <Gold.Chemscore.DEInternal.Weighted>
0.5715

> <Gold.Chemscore.Rot.Weighted>
4.7697

> <Gold.Chemscore.Internal.Correction.Weighted>
   9.000000E+99

> <Gold.Protein.RotatedTorsions>
[ 6907 6896 6895 6894 ] final -125.75 input  -60.11 | X-H torsion
[ 7974 7965 7964 7962 ] final -100.75 input  175.53 | X-H torsion
[ 8008 7997 7996 7995 ] final  -79.05 input   59.86 | X-H torsion
[ 10167 10162 10161 10158 ] final   35.51 input  -65.29 | X-H torsion
[ 10718 10713 10712 10709 ] final   69.13 input   66.30 | X-H torsion
[ 10763 10752 10751 10750 ] final  175.36 input  -60.55 | X-H torsion
[ 11005 11000 10999 10996 ] final -130.49 input  -57.11 | X-H torsion

> <Gold.Protein.ActiveResidues>
 VAL166  LYS551  ARG553  GLY616  TRP617  ASP618  TYR619  PRO620  LYS621  CYS622 
 ASP623  PHE694  ASN695  SER759  ASP760  ASP761  ALA762  ILE779  LEU786  VAL792 
 PHE793  MET794  SER795  GLU796  ALA797  LYS798  CYS799  TRP800  GLU811  SER814 

> <Gold.Protein.RotatedAtoms>
  150.8899  133.7257  159.2907 H   0  0  0  0  0  0  0  0  0  0  0  0  # atno 6907 bound_to 6896
  151.4810  135.1050  159.9787 H   0  0  0  0  0  0  0  0  0  0  0  0  # atno 6908 bound_to 6896
  152.4814  133.8216  159.7112 H   0  0  0  0  0  0  0  0  0  0  0  0  # atno 6909 bound_to 6896
  145.2905  140.9351  143.2880 H   0  0  0  0  0  0  0  0  0  0  0  0  # atno 7974 bound_to 7965
  154.5748  140.0684  156.9017 H   0  0  0  0  0  0  0  0  0  0  0  0  # atno 8008 bound_to 7997
  155.2569  140.3355  155.4258 H   0  0  0  0  0  0  0  0  0  0  0  0  # atno 8009 bound_to 7997
  156.2145  140.1773  156.7605 H   0  0  0  0  0  0  0  0  0  0  0  0  # atno 8010 bound_to 7997
  140.4215  144.1453  150.6148 H   0  0  0  0  0  0  0  0  0  0  0  0  # atno 10167 bound_to 10162
  157.6328  130.9409  150.0471 H   0  0  0  0  0  0  0  0  0  0  0  0  # atno 10718 bound_to 10713
  154.4666  135.2769  155.1674 H   0  0  0  0  0  0  0  0  0  0  0  0  # atno 10763 bound_to 10752
  154.3440  135.6164  153.5614 H   0  0  0  0  0  0  0  0  0  0  0  0  # atno 10764 bound_to 10752
  152.9860  135.5795  154.5038 H   0  0  0  0  0  0  0  0  0  0  0  0  # atno 10765 bound_to 10752
  140.9341  134.1281  157.4209 H   0  0  0  0  0  0  0  0  0  0  0  0  # atno 11005 bound_to 11000
  144.9177  139.4450  143.6556 LP  0  0  0  0  0  0  0  0  0  0  0  0  # atno 17320 bound_to 7965
  146.3186  139.8020  142.8963 LP  0  0  0  0  0  0  0  0  0  0  0  0  # atno 17321 bound_to 7965
  140.4528  143.2480  151.9324 LP  0  0  0  0  0  0  0  0  0  0  0  0  # atno 17342 bound_to 10162
  139.4783  144.5545  151.8335 LP  0  0  0  0  0  0  0  0  0  0  0  0  # atno 17343 bound_to 10162
  156.1544  130.3643  149.9390 LP  0  0  0  0  0  0  0  0  0  0  0  0  # atno 17370 bound_to 10713
  156.7402  130.9076  151.3631 LP  0  0  0  0  0  0  0  0  0  0  0  0  # atno 17371 bound_to 10713
  139.8803  135.0015  156.6070 LP  0  0  0  0  0  0  0  0  0  0  0  0  # atno 17394 bound_to 11000
  140.7823  133.8650  155.8578 LP  0  0  0  0  0  0  0  0  0  0  0  0  # atno 17395 bound_to 11000

$$$$
