AV-unprocessed.smi:1600|AV-procd|sdf|6428|dock7
  -GOLD-   22720 7 73D 1   1.00000     0.00000
 Structure written by MMmdl.
 46 47  0  0  0  0  0  0  0  0  2 V2000
  150.2935  141.9864  156.2831 C   0  0  0  0  0  0  0  0  0  0  0  0
  150.5482  140.6160  155.7283 C   0  0  0  0  0  0  0  0  0  0  0  0
  149.5986  139.5875  155.4609 C   0  0  0  0  0  0  0  0  0  0  0  0
  150.3801  138.5749  154.9749 C   0  0  0  0  0  0  0  0  0  0  0  0
  150.0092  137.3377  154.5501 N   0  0  0  0  0  0  0  0  0  0  0  0
  150.1283  136.1614  155.1904 C   0  0  0  0  0  0  0  0  0  0  0  0
  150.5982  136.0055  156.3177 O   0  0  0  0  0  0  0  0  0  0  0  0
  149.6814  135.1490  154.4328 N   0  0  0  0  0  0  0  0  0  0  0  0
  149.6655  133.7409  154.8243 C   0  0  0  0  0  0  0  0  0  0  0  0
  149.1472  132.7947  153.7189 C   0  0  1  0  0  0  0  0  0  0  0  0
  148.7368  131.3968  154.1810 C   0  0  0  0  0  0  0  0  0  0  0  0
  147.7977  130.8889  153.0773 C   0  0  0  0  0  0  0  0  0  0  0  0
  147.4220  132.0598  152.2433 N   0  3  1  0  0  0  0  0  0  0  0  0
  145.9961  132.0978  151.8107 C   0  0  0  0  0  0  0  0  0  0  0  0
  145.6492  130.8751  150.9406 C   0  0  0  0  0  0  0  0  0  0  0  0
  145.6663  133.3886  151.0367 C   0  0  0  0  0  0  0  0  0  0  0  0
  147.9058  133.2618  152.9569 C   0  0  0  0  0  0  0  0  0  0  0  0
  151.6918  138.9938  154.9587 N   0  0  0  0  0  0  0  0  0  0  0  0
  152.8804  138.2837  154.5286 C   0  0  0  0  0  0  0  0  0  0  0  0
  151.7913  140.2559  155.4288 N   0  0  0  0  0  0  0  0  0  0  0  0
  149.2250  142.1940  156.3439 H   0  0  0  0  0  0  0  0  0  0  0  0
  150.7446  142.7558  155.6559 H   0  0  0  0  0  0  0  0  0  0  0  0
  150.7082  142.0860  157.2863 H   0  0  0  0  0  0  0  0  0  0  0  0
  148.5294  139.6121  155.6065 H   0  0  0  0  0  0  0  0  0  0  0  0
  149.6147  137.3027  153.6216 H   0  0  0  0  0  0  0  0  0  0  0  0
  149.3109  135.3688  153.5193 H   0  0  0  0  0  0  0  0  0  0  0  0
  150.6568  133.4223  155.1511 H   0  0  0  0  0  0  0  0  0  0  0  0
  149.0227  133.6525  155.7003 H   0  0  0  0  0  0  0  0  0  0  0  0
  149.9493  132.6757  152.9885 H   0  0  0  0  0  0  0  0  0  0  0  0
  149.5945  130.7411  154.3350 H   0  0  0  0  0  0  0  0  0  0  0  0
  148.1877  131.4464  155.1219 H   0  0  0  0  0  0  0  0  0  0  0  0
  148.2926  130.1500  152.4465 H   0  0  0  0  0  0  0  0  0  0  0  0
  146.9265  130.4109  153.5277 H   0  0  0  0  0  0  0  0  0  0  0  0
  145.3700  132.0730  152.7041 H   0  0  0  0  0  0  0  0  0  0  0  0
  144.6090  130.9103  150.6151 H   0  0  0  0  0  0  0  0  0  0  0  0
  145.7811  129.9359  151.4774 H   0  0  0  0  0  0  0  0  0  0  0  0
  146.2725  130.8371  150.0465 H   0  0  0  0  0  0  0  0  0  0  0  0
  144.6334  133.3799  150.6872 H   0  0  0  0  0  0  0  0  0  0  0  0
  146.3086  133.5030  150.1629 H   0  0  0  0  0  0  0  0  0  0  0  0
  145.7796  134.2783  151.6559 H   0  0  0  0  0  0  0  0  0  0  0  0
  147.1297  133.5965  153.6453 H   0  0  0  0  0  0  0  0  0  0  0  0
  148.1307  134.0796  152.2718 H   0  0  0  0  0  0  0  0  0  0  0  0
  152.9903  137.3677  155.1095 H   0  0  0  0  0  0  0  0  0  0  0  0
  153.7691  138.9005  154.6694 H   0  0  0  0  0  0  0  0  0  0  0  0
  152.7918  138.0284  153.4726 H   0  0  0  0  0  0  0  0  0  0  0  0
  147.9825  131.9960  151.4056 H   0  0  0  0  0  0  0  0  0  0  0  0
  1  2  1  0  0  0  0
  1 21  1  0  0  0  0
  1 22  1  0  0  0  0
  1 23  1  0  0  0  0
  2 20  2  0  0  0  0
  2  3  1  0  0  0  0
  3  4  2  0  0  0  0
  3 24  1  0  0  0  0
  4  5  1  0  0  0  0
  4 18  1  0  0  0  0
  5  6  1  0  0  0  0
  5 25  1  0  0  0  0
  6  7  2  0  0  0  0
  6  8  1  0  0  0  0
  8  9  1  0  0  0  0
  8 26  1  0  0  0  0
  9 10  1  0  0  0  0
  9 27  1  0  0  0  0
  9 28  1  0  0  0  0
 10 17  1  0  0  0  0
 10 11  1  0  0  0  0
 10 29  1  0  0  0  0
 11 12  1  0  0  0  0
 11 30  1  0  0  0  0
 11 31  1  0  0  0  0
 12 13  1  0  0  0  0
 12 32  1  0  0  0  0
 12 33  1  0  0  0  0
 13 14  1  0  0  0  0
 13 17  1  0  0  0  0
 13 46  1  0  0  0  0
 14 15  1  0  0  0  0
 14 16  1  0  0  0  0
 14 34  1  0  0  0  0
 15 35  1  0  0  0  0
 15 36  1  0  0  0  0
 15 37  1  0  0  0  0
 16 38  1  0  0  0  0
 16 39  1  0  0  0  0
 16 40  1  0  0  0  0
 17 41  1  0  0  0  0
 17 42  1  0  0  0  0
 18 19  1  0  0  0  0
 18 20  1  0  0  0  0
 19 43  1  0  0  0  0
 19 44  1  0  0  0  0
 19 45  1  0  0  0  0
M  CHG  1  13   1
M  END
> <s_m_source_file>
AV-unprocessed.smi

> <i_m_source_file_index>
1600

> <i_lp_mmshare_version>
43012

> <i_f3d_flags>
0

> <s_epik_input>
W0NIM11jMVtjSF1jKG4objEpW0NIM10pW05IXUMoPU8pW05IXVtDSDJdW0NAQEhdMltDSDJdW0NIMl1OKFtDSDJdMilbQ0hdKFtDSDNdKVtDSDNd

> <s_epik_cmdline>
J2VwaWtfcHl0aG9uJywgJy1waCcsICc3LjAnLCAnLXRuJywgJzgnLCAnLW1hJywgJzIwMCcsICctbWV0YWxfYmluZGluZycsICctaW1hZScsICc8aW5maWxlLm1hZT4nLCAnLW9tYWUnLCAnPG91dGZpbGUubWFlPic=

> <r_lp_tautomer_probability>
1

> <r_epik_Ionization_Penalty>
0.000297652

> <r_epik_Ionization_Penalty_Charging>
0.000213653

> <r_epik_Ionization_Penalty_Neutral>
8.3999e-05

> <r_epik_State_Penalty>
-0

> <r_epik_Charging_Adjusted_Penalty>
0.000213653

> <i_epik_Tot_Q>
1

> <i_epik_Tot_abs_Q>
1

> <r_epik_Metal_State_Penalty>
-0

> <b_epik_Metal_Only>
0

> <s_lp_Force_Field>
OPLS_2005

> <r_lp_Energy>
33.4544

> <b_lp_Chiralities_Consistent>
1

> <s_lp_Variant>
AV-unprocessed.smi:1600-2

> <Gold.Version>
5.8.1

> <Gold.Id.Protein>
6NUR|6NUR_protein|mol2

> <Gold.PLP.Fitness>
46.7989

> <Gold.PLP.PLP>
-38.7902

> <Gold.PLP.part.hbond>
-4.0000

> <Gold.PLP.part.metal>
0.0000

> <Gold.PLP.part.buried>
-2.9597

> <Gold.PLP.part.nonpolar>
-31.8025

> <Gold.PLP.part.repulsive>
0.1179

> <Gold.PLP.ligand.clash>
0.0000

> <Gold.PLP.ligand.torsion>
0.8863

> <Gold.PLP.Chemscore.Hbond>
3.2532

> <Gold.PLP.Chemscore.CHOScore>
0.0000

> <Gold.PLP.Chemscore.Metal>
0.0000

> <Gold.Chemscore.Hbonds>
donor molecule, donor type, donor heavy atom, donor atom, acceptor molecule, acceptor atom, score
      L1  H     5    25       P1  7948  0.75
      L1  H     8    26       P1  7948  1.00
      L1  H    13    46       P1 10747  0.93
      P1  H  7989  7998       L1    20  0.20

> <Gold.PLP.Chemscore.Internal.Correction>
0.0218

> <Gold.Rescore>
     Score         DG    S(hbond)    S(metal)    S(lipo)     H(rot)  DE(clash)    DE(int)     intcor
     17.31     -18.49       2.24        0.00      78.73       1.44       0.07       1.12       ----

> <Gold.Chemscore.Fitness>
17.3084

> <Gold.Chemscore.DG>
-18.4931

> <Gold.Chemscore.ZeroCoef>
-5.4800

> <Gold.Chemscore.Hbond>
2.2397

> <Gold.Chemscore.Metal>
0.0000

> <Gold.Chemscore.Lipo>
78.7270

> <Gold.Chemscore.Internal_Hbond>
0.0000

> <Gold.Chemscore.DEClash>
0.0673

> <Gold.Chemscore.DEInternal>
1.1174

> <Gold.Chemscore.Rot>
1.4369

> <Gold.Chemscore.Internal.Correction>
   9.000000E+99

> <Gold.Chemscore.Hbonds>
donor molecule, donor type, donor heavy atom, donor atom, acceptor molecule, acceptor atom, score
      L1  H     5    25       P1  7948  0.61
      L1  H     8    26       P1  7948  0.26
      L1  H    13    46       P1 10747  0.89

> <Gold.Chemscore.Hbond.Weighted>
-7.4806

> <Gold.Chemscore.Metal.Weighted>
-0.0000

> <Gold.Chemscore.Lipo.Weighted>
-9.2111

> <Gold.Chemscore.Internal_Hbond.Weighted>
0.0000

> <Gold.Chemscore.DEClash.Weighted>
0.0673

> <Gold.Chemscore.DEInternal.Weighted>
1.1174

> <Gold.Chemscore.Rot.Weighted>
3.6785

> <Gold.Chemscore.Internal.Correction.Weighted>
   9.000000E+99

> <Gold.Protein.RotatedTorsions>
[ 6907 6896 6895 6894 ] final -134.55 input  -60.11 | X-H torsion
[ 7974 7965 7964 7962 ] final  138.21 input  175.53 | X-H torsion
[ 8008 7997 7996 7995 ] final -126.53 input   59.86 | X-H torsion
[ 10167 10162 10161 10158 ] final -175.73 input  -65.29 | X-H torsion
[ 10718 10713 10712 10709 ] final  111.78 input   66.30 | X-H torsion
[ 10763 10752 10751 10750 ] final   -5.42 input  -60.55 | X-H torsion
[ 11005 11000 10999 10996 ] final -150.69 input  -57.11 | X-H torsion

> <Gold.Protein.ActiveResidues>
 VAL166  LYS551  ARG553  GLY616  TRP617  ASP618  TYR619  PRO620  LYS621  CYS622 
 ASP623  PHE694  ASN695  SER759  ASP760  ASP761  ALA762  ILE779  LEU786  VAL792 
 PHE793  MET794  SER795  GLU796  ALA797  LYS798  CYS799  TRP800  GLU811  SER814 

> <Gold.Protein.RotatedAtoms>
  150.9871  133.6186  159.2713 H   0  0  0  0  0  0  0  0  0  0  0  0  # atno 6907 bound_to 6896
  151.3420  135.0864  159.9384 H   0  0  0  0  0  0  0  0  0  0  0  0  # atno 6908 bound_to 6896
  152.5234  133.9481  159.7713 H   0  0  0  0  0  0  0  0  0  0  0  0  # atno 6909 bound_to 6896
  144.9394  139.4950  143.5579 H   0  0  0  0  0  0  0  0  0  0  0  0  # atno 7974 bound_to 7965
  155.2313  140.0425  157.2962 H   0  0  0  0  0  0  0  0  0  0  0  0  # atno 8008 bound_to 7997
  154.5887  140.2420  155.7922 H   0  0  0  0  0  0  0  0  0  0  0  0  # atno 8009 bound_to 7997
  156.2244  140.2959  156.0039 H   0  0  0  0  0  0  0  0  0  0  0  0  # atno 8010 bound_to 7997
  139.5566  144.1974  152.1169 H   0  0  0  0  0  0  0  0  0  0  0  0  # atno 10167 bound_to 10162
  157.6427  131.0956  150.6799 H   0  0  0  0  0  0  0  0  0  0  0  0  # atno 10718 bound_to 10713
  153.3983  135.7004  153.6445 H   0  0  0  0  0  0  0  0  0  0  0  0  # atno 10763 bound_to 10752
  153.4989  135.3656  155.2530 H   0  0  0  0  0  0  0  0  0  0  0  0  # atno 10764 bound_to 10752
  154.8708  135.4107  154.3313 H   0  0  0  0  0  0  0  0  0  0  0  0  # atno 10765 bound_to 10752
  140.7375  134.3552  157.5154 H   0  0  0  0  0  0  0  0  0  0  0  0  # atno 11005 bound_to 11000
  146.3279  139.8401  142.8892 LP  0  0  0  0  0  0  0  0  0  0  0  0  # atno 17320 bound_to 7965
  145.3016  141.0195  143.3606 LP  0  0  0  0  0  0  0  0  0  0  0  0  # atno 17321 bound_to 7965
  140.1479  144.5142  150.6705 LP  0  0  0  0  0  0  0  0  0  0  0  0  # atno 17342 bound_to 10162
  140.6840  143.2340  151.5310 LP  0  0  0  0  0  0  0  0  0  0  0  0  # atno 17343 bound_to 10162
  156.7121  130.4655  149.5544 LP  0  0  0  0  0  0  0  0  0  0  0  0  # atno 17370 bound_to 10713
  156.1723  130.6445  151.0852 LP  0  0  0  0  0  0  0  0  0  0  0  0  # atno 17371 bound_to 10713
  139.8813  134.9059  156.2909 LP  0  0  0  0  0  0  0  0  0  0  0  0  # atno 17394 bound_to 11000
  140.9867  133.7234  156.0752 LP  0  0  0  0  0  0  0  0  0  0  0  0  # atno 17395 bound_to 11000

$$$$
