AV-unprocessed.smi:25|AV-procd|sdf|182|dock3
  -GOLD-   2262015443D 1   1.00000     0.00000
 Structure written by MMmdl.
 47 50  0  0  0  0  0  0  0  0  1 V2000
  148.7054  140.1423  157.8367 C   0  0  0  0  0  0  0  0  0  0  0  0
  150.1092  140.5120  157.3151 C   0  0  1  0  0  0  0  0  0  0  0  0
  150.2625  142.0417  157.1628 C   0  0  0  0  0  0  0  0  0  0  0  0
  151.3645  142.3730  158.1200 C   0  0  0  0  0  0  0  0  0  0  0  0
  151.8506  143.6616  158.4002 C   0  0  0  0  0  0  0  0  0  0  0  0
  152.8974  143.7934  159.3335 C   0  0  0  0  0  0  0  0  0  0  0  0
  153.4332  142.6487  159.9625 C   0  0  0  0  0  0  0  0  0  0  0  0
  152.9319  141.3616  159.6690 C   0  0  0  0  0  0  0  0  0  0  0  0
  151.8781  141.2299  158.7315 C   0  0  0  0  0  0  0  0  0  0  0  0
  151.1816  140.0816  158.2432 N   0  0  0  0  0  0  0  0  0  0  0  0
  151.4584  138.7589  158.4111 C   0  0  0  0  0  0  0  0  0  0  0  0
  152.2676  138.3844  159.2635 O   0  0  0  0  0  0  0  0  0  0  0  0
  150.7573  137.6793  157.5648 C   0  0  0  0  0  0  0  0  0  0  0  0
  149.4960  137.1817  158.1627 N   0  0  0  0  0  0  0  0  0  0  0  0
  148.3145  137.1989  157.3807 C   0  0  0  0  0  0  0  0  0  0  0  0
  148.3149  137.6334  156.2281 O   0  0  0  0  0  0  0  0  0  0  0  0
  147.1230  136.6680  158.0318 C   0  0  0  0  0  0  0  0  0  0  0  0
  145.9716  136.5813  157.3443 F   0  0  0  0  0  0  0  0  0  0  0  0
  147.1609  136.2437  159.3114 C   0  0  0  0  0  0  0  0  0  0  0  0
  148.3021  136.3041  160.0918 N   0  0  0  0  0  0  0  0  0  0  0  0
  148.3347  135.7475  161.5006 C   0  0  1  0  0  0  0  0  0  0  0  0
  147.3849  136.4574  162.4815 C   0  0  0  0  0  0  0  0  0  0  0  0
  146.2657  135.4465  162.6364 C   0  0  0  0  0  0  0  0  0  0  0  0
  147.0131  134.1310  162.4565 C   0  0  0  0  0  0  0  0  0  0  0  0
  147.9572  134.4049  161.4296 O   0  0  0  0  0  0  0  0  0  0  0  0
  149.5160  136.7269  159.5042 C   0  0  0  0  0  0  0  0  0  0  0  0
  150.5681  136.7110  160.1474 O   0  0  0  0  0  0  0  0  0  0  0  0
  147.9317  140.5170  157.1663 H   0  0  0  0  0  0  0  0  0  0  0  0
  148.5265  140.5724  158.8228 H   0  0  0  0  0  0  0  0  0  0  0  0
  148.5666  139.0643  157.9159 H   0  0  0  0  0  0  0  0  0  0  0  0
  150.2633  140.0486  156.3388 H   0  0  0  0  0  0  0  0  0  0  0  0
  150.5558  142.3167  156.1491 H   0  0  0  0  0  0  0  0  0  0  0  0
  149.3553  142.5892  157.4218 H   0  0  0  0  0  0  0  0  0  0  0  0
  151.4317  144.5297  157.9128 H   0  0  0  0  0  0  0  0  0  0  0  0
  153.2900  144.7716  159.5687 H   0  0  0  0  0  0  0  0  0  0  0  0
  154.2351  142.7591  160.6776 H   0  0  0  0  0  0  0  0  0  0  0  0
  153.3823  140.5337  160.1851 H   0  0  0  0  0  0  0  0  0  0  0  0
  150.5770  138.0831  156.5685 H   0  0  0  0  0  0  0  0  0  0  0  0
  151.4406  136.8404  157.4308 H   0  0  0  0  0  0  0  0  0  0  0  0
  146.2506  135.8377  159.7225 H   0  0  0  0  0  0  0  0  0  0  0  0
  149.3663  135.8434  161.8426 H   0  0  0  0  0  0  0  0  0  0  0  0
  147.9075  136.5770  163.4316 H   0  0  0  0  0  0  0  0  0  0  0  0
  147.0715  137.4462  162.1468 H   0  0  0  0  0  0  0  0  0  0  0  0
  145.7553  135.5182  163.5969 H   0  0  0  0  0  0  0  0  0  0  0  0
  145.5238  135.5666  161.8465 H   0  0  0  0  0  0  0  0  0  0  0  0
  147.5460  133.8636  163.3703 H   0  0  0  0  0  0  0  0  0  0  0  0
  146.3559  133.3042  162.1874 H   0  0  0  0  0  0  0  0  0  0  0  0
  1  2  1  0  0  0  0
  1 28  1  0  0  0  0
  1 29  1  0  0  0  0
  1 30  1  0  0  0  0
  2 10  1  0  0  0  0
  2  3  1  0  0  0  0
  2 31  1  0  0  0  0
  3  4  1  0  0  0  0
  3 32  1  0  0  0  0
  3 33  1  0  0  0  0
  4  9  2  0  0  0  0
  4  5  1  0  0  0  0
  5  6  2  0  0  0  0
  5 34  1  0  0  0  0
  6  7  1  0  0  0  0
  6 35  1  0  0  0  0
  7  8  2  0  0  0  0
  7 36  1  0  0  0  0
  8  9  1  0  0  0  0
  8 37  1  0  0  0  0
  9 10  1  0  0  0  0
 10 11  1  0  0  0  0
 11 12  2  0  0  0  0
 11 13  1  0  0  0  0
 13 14  1  0  0  0  0
 13 38  1  0  0  0  0
 13 39  1  0  0  0  0
 14 26  1  0  0  0  0
 14 15  1  0  0  0  0
 15 16  2  0  0  0  0
 15 17  1  0  0  0  0
 17 18  1  0  0  0  0
 17 19  2  0  0  0  0
 19 20  1  0  0  0  0
 19 40  1  0  0  0  0
 20 21  1  0  0  0  0
 20 26  1  0  0  0  0
 21 25  1  0  0  0  0
 21 22  1  0  0  0  0
 21 41  1  0  0  0  0
 22 23  1  0  0  0  0
 22 42  1  0  0  0  0
 22 43  1  0  0  0  0
 23 24  1  0  0  0  0
 23 44  1  0  0  0  0
 23 45  1  0  0  0  0
 24 25  1  0  0  0  0
 24 46  1  0  0  0  0
 24 47  1  0  0  0  0
 26 27  2  0  0  0  0
M  END
> <s_m_source_file>
AV-unprocessed.smi

> <i_m_source_file_index>
25

> <i_lp_mmshare_version>
43012

> <i_f3d_flags>
0

> <s_epik_input>
W2NIXTFbY0hdW2NIXVtjSF1jKGMxMilOKFtDQEhdKFtDSDNdKVtDSDJdMilDKD1PKVtDSDJdbjNjKD1PKWMoRilbY0hdbihjMz1PKVtDQEBIXTRbQ0gyXVtDSDJdW0NIMl1PNA==

> <s_epik_cmdline>
J2VwaWtfcHl0aG9uJywgJy1waCcsICc3LjAnLCAnLXRuJywgJzgnLCAnLW1hJywgJzIwMCcsICctbWV0YWxfYmluZGluZycsICctaW1hZScsICc8aW5maWxlLm1hZT4nLCAnLW9tYWUnLCAnPG91dGZpbGUubWFlPic=

> <r_lp_tautomer_probability>
1

> <r_epik_Ionization_Penalty>
1.67943e-06

> <r_epik_Ionization_Penalty_Charging>
3.79603e-09

> <r_epik_Ionization_Penalty_Neutral>
1.67563e-06

> <r_epik_State_Penalty>
-0

> <r_epik_Charging_Adjusted_Penalty>
3.79603e-09

> <i_epik_Tot_Q>
0

> <i_epik_Tot_abs_Q>
0

> <r_epik_Metal_State_Penalty>
-0

> <b_epik_Metal_Only>
0

> <s_epik_Chemistry_Notes>
This compound contains an acetal/aminal-like group ( X-CH(R)-Y where X, Y are N, S, or O) that may be acid/base labile, releasing an aldehyde.

> <s_lp_Force_Field>
OPLS_2005

> <r_lp_Energy>
55.1146

> <b_lp_Chiralities_Consistent>
1

> <s_lp_Variant>
AV-unprocessed.smi:25-4

> <Gold.Version>
5.8.1

> <Gold.Id.Protein>
6NUR|6NUR_protein|mol2

> <Gold.PLP.Fitness>
47.0279

> <Gold.PLP.PLP>
-44.8808

> <Gold.PLP.part.hbond>
-2.0000

> <Gold.PLP.part.metal>
0.0000

> <Gold.PLP.part.buried>
-5.3378

> <Gold.PLP.part.nonpolar>
-38.8443

> <Gold.PLP.part.repulsive>
0.0261

> <Gold.PLP.ligand.clash>
0.0000

> <Gold.PLP.ligand.torsion>
0.5153

> <Gold.PLP.Chemscore.Hbond>
1.0000

> <Gold.PLP.Chemscore.CHOScore>
0.0000

> <Gold.PLP.Chemscore.Metal>
0.0000

> <Gold.Chemscore.Hbonds>
donor molecule, donor type, donor heavy atom, donor atom, acceptor molecule, acceptor atom, score
      P1  H  6896  6907       L1    27  1.00

> <Gold.PLP.Chemscore.Internal.Correction>
0.1776

> <Gold.Rescore>
     Score         DG    S(hbond)    S(metal)    S(lipo)     H(rot)  DE(clash)    DE(int)     intcor
     13.13     -17.68       0.99        0.00     109.80       1.55       0.01       4.54       ----

> <Gold.Chemscore.Fitness>
13.1279

> <Gold.Chemscore.DG>
-17.6766

> <Gold.Chemscore.ZeroCoef>
-5.4800

> <Gold.Chemscore.Hbond>
0.9926

> <Gold.Chemscore.Metal>
0.0000

> <Gold.Chemscore.Lipo>
109.7994

> <Gold.Chemscore.Internal_Hbond>
0.0000

> <Gold.Chemscore.DEClash>
0.0130

> <Gold.Chemscore.DEInternal>
4.5356

> <Gold.Chemscore.Rot>
1.5489

> <Gold.Chemscore.Internal.Correction>
   9.000000E+99

> <Gold.Chemscore.Hbonds>
donor molecule, donor type, donor heavy atom, donor atom, acceptor molecule, acceptor atom, score
      P1  H  6896  6907       L1    27  0.35

> <Gold.Chemscore.Hbond.Weighted>
-3.3152

> <Gold.Chemscore.Metal.Weighted>
-0.0000

> <Gold.Chemscore.Lipo.Weighted>
-12.8465

> <Gold.Chemscore.Internal_Hbond.Weighted>
0.0000

> <Gold.Chemscore.DEClash.Weighted>
0.0130

> <Gold.Chemscore.DEInternal.Weighted>
4.5356

> <Gold.Chemscore.Rot.Weighted>
3.9651

> <Gold.Chemscore.Internal.Correction.Weighted>
   9.000000E+99

> <Gold.Protein.RotatedTorsions>
[ 6907 6896 6895 6894 ] final  -27.51 input  -60.11 | X-H torsion
[ 7974 7965 7964 7962 ] final   70.44 input  175.53 | X-H torsion
[ 8008 7997 7996 7995 ] final  137.98 input   59.86 | X-H torsion
[ 10167 10162 10161 10158 ] final  128.19 input  -65.29 | X-H torsion
[ 10718 10713 10712 10709 ] final   80.22 input   66.30 | X-H torsion
[ 10763 10752 10751 10750 ] final   36.01 input  -60.55 | X-H torsion
[ 11005 11000 10999 10996 ] final -101.24 input  -57.11 | X-H torsion

> <Gold.Protein.ActiveResidues>
 VAL166  LYS551  ARG553  GLY616  TRP617  ASP618  TYR619  PRO620  LYS621  CYS622 
 ASP623  PHE694  ASN695  SER759  ASP760  ASP761  ALA762  ILE779  LEU786  VAL792 
 PHE793  MET794  SER795  GLU796  ALA797  LYS798  CYS799  TRP800  GLU811  SER814 

> <Gold.Protein.RotatedAtoms>
  151.1460  135.0203  159.8646 H   0  0  0  0  0  0  0  0  0  0  0  0  # atno 6907 bound_to 6896
  152.5453  134.1444  159.8502 H   0  0  0  0  0  0  0  0  0  0  0  0  # atno 6908 bound_to 6896
  151.1525  133.4853  159.2628 H   0  0  0  0  0  0  0  0  0  0  0  0  # atno 6909 bound_to 6896
  145.7781  139.2875  143.1281 H   0  0  0  0  0  0  0  0  0  0  0  0  # atno 7974 bound_to 7965
  156.3000  140.2405  156.3999 H   0  0  0  0  0  0  0  0  0  0  0  0  # atno 8008 bound_to 7997
  154.8536  140.0423  157.1640 H   0  0  0  0  0  0  0  0  0  0  0  0  # atno 8009 bound_to 7997
  154.8971  140.2971  155.5342 H   0  0  0  0  0  0  0  0  0  0  0  0  # atno 8010 bound_to 7997
  139.5540  144.6834  151.4239 H   0  0  0  0  0  0  0  0  0  0  0  0  # atno 10167 bound_to 10162
  157.6800  130.9949  150.2047 H   0  0  0  0  0  0  0  0  0  0  0  0  # atno 10718 bound_to 10713
  153.0095  135.6317  154.1917 H   0  0  0  0  0  0  0  0  0  0  0  0  # atno 10763 bound_to 10752
  154.1659  135.2821  155.3097 H   0  0  0  0  0  0  0  0  0  0  0  0  # atno 10764 bound_to 10752
  154.5945  135.5607  153.7372 H   0  0  0  0  0  0  0  0  0  0  0  0  # atno 10765 bound_to 10752
  141.1239  133.8462  157.1206 H   0  0  0  0  0  0  0  0  0  0  0  0  # atno 11005 bound_to 11000
  146.0101  140.8443  142.9975 LP  0  0  0  0  0  0  0  0  0  0  0  0  # atno 17320 bound_to 7965
  144.6801  140.2478  143.7335 LP  0  0  0  0  0  0  0  0  0  0  0  0  # atno 17321 bound_to 7965
  140.6808  143.8085  150.7119 LP  0  0  0  0  0  0  0  0  0  0  0  0  # atno 17342 bound_to 10162
  140.1538  143.4335  152.2113 LP  0  0  0  0  0  0  0  0  0  0  0  0  # atno 17343 bound_to 10162
  156.2730  130.3724  149.8012 LP  0  0  0  0  0  0  0  0  0  0  0  0  # atno 17370 bound_to 10713
  156.5723  130.8430  151.3360 LP  0  0  0  0  0  0  0  0  0  0  0  0  # atno 17371 bound_to 10713
  140.0219  134.9941  157.0610 LP  0  0  0  0  0  0  0  0  0  0  0  0  # atno 17394 bound_to 11000
  140.4425  134.1666  155.7175 LP  0  0  0  0  0  0  0  0  0  0  0  0  # atno 17395 bound_to 11000

$$$$
