AV-unprocessed.smi:101|AV-procd|sdf|936|dock4
  -GOLD-   2262017453D 1   1.00000     0.00000
 Structure written by MMmdl.
 43 45  0  0  0  0  0  0  0  0  2 V2000
  145.1899  141.0673  159.4129 C   0  0  0  0  0  0  0  0  0  0  0  0
  145.2075  141.5744  157.9813 C   0  0  0  0  0  0  0  0  0  0  0  0
  146.2980  141.4625  157.1912 C   0  0  0  0  0  0  0  0  0  0  0  0
  146.3121  141.9280  155.8864 N   0  0  0  0  0  0  0  0  0  0  0  0
  147.5474  141.8114  155.0095 C   0  0  1  0  0  0  0  0  0  0  0  0
  148.6628  141.5410  155.8082 O   0  0  0  0  0  0  0  0  0  0  0  0
  149.0346  140.1747  155.6679 C   0  0  2  0  0  0  0  0  0  0  0  0
  150.4781  139.9422  156.1327 C   0  0  0  0  0  0  0  0  0  0  0  0
  150.6740  140.6556  157.3425 O   0  0  0  0  0  0  0  0  0  0  0  0
  151.9071  141.0520  157.7071 C   0  0  0  0  0  0  0  0  0  0  0  0
  152.9398  140.4717  157.3662 O   0  0  0  0  0  0  0  0  0  0  0  0
  151.8906  142.2702  158.5680 C   0  0  0  0  0  0  0  0  0  0  0  0
  151.0513  143.3543  158.2200 C   0  0  0  0  0  0  0  0  0  0  0  0
  151.0161  144.5178  159.0131 C   0  0  0  0  0  0  0  0  0  0  0  0
  151.8205  144.6119  160.1638 C   0  0  0  0  0  0  0  0  0  0  0  0
  152.6587  143.5399  160.5217 C   0  0  0  0  0  0  0  0  0  0  0  0
  152.6946  142.3751  159.7304 C   0  0  0  0  0  0  0  0  0  0  0  0
  148.7458  139.8975  154.1915 C   0  0  2  0  0  0  0  0  0  0  0  0
  149.7886  140.3969  153.3745 O   0  0  0  0  0  0  0  0  0  0  0  0
  147.4553  140.6750  153.9566 C   0  0  1  0  0  0  0  0  0  0  0  0
  146.3456  139.8114  154.1360 O   0  0  0  0  0  0  0  0  0  0  0  0
  145.1546  142.5563  155.3559 C   0  0  0  0  0  0  0  0  0  0  0  0
  145.2020  142.9679  154.1963 O   0  0  0  0  0  0  0  0  0  0  0  0
  144.0490  142.6716  156.1454 N   0  5  0  0  0  0  0  0  0  0  0  0
  144.0070  142.2130  157.4292 C   0  0  0  0  0  0  0  0  0  0  0  0
  143.0013  142.3206  158.1300 O   0  0  0  0  0  0  0  0  0  0  0  0
  146.1483  140.6272  159.6905 H   0  0  0  0  0  0  0  0  0  0  0  0
  144.4199  140.3053  159.5370 H   0  0  0  0  0  0  0  0  0  0  0  0
  144.9812  141.8847  160.1039 H   0  0  0  0  0  0  0  0  0  0  0  0
  147.1781  140.9985  157.6077 H   0  0  0  0  0  0  0  0  0  0  0  0
  147.6863  142.8003  154.5696 H   0  0  0  0  0  0  0  0  0  0  0  0
  148.3606  139.5571  156.2641 H   0  0  0  0  0  0  0  0  0  0  0  0
  150.6474  138.8807  156.3175 H   0  0  0  0  0  0  0  0  0  0  0  0
  151.1864  140.2659  155.3685 H   0  0  0  0  0  0  0  0  0  0  0  0
  150.4248  143.3056  157.3408 H   0  0  0  0  0  0  0  0  0  0  0  0
  150.3709  145.3389  158.7376 H   0  0  0  0  0  0  0  0  0  0  0  0
  151.7938  145.5045  160.7713 H   0  0  0  0  0  0  0  0  0  0  0  0
  153.2760  143.6105  161.4051 H   0  0  0  0  0  0  0  0  0  0  0  0
  153.3494  141.5713  160.0347 H   0  0  0  0  0  0  0  0  0  0  0  0
  148.6403  138.8305  153.9896 H   0  0  0  0  0  0  0  0  0  0  0  0
  149.5174  140.3288  152.4716 H   0  0  0  0  0  0  0  0  0  0  0  0
  147.4029  141.1004  152.9534 H   0  0  0  0  0  0  0  0  0  0  0  0
  145.6338  140.1238  153.5989 H   0  0  0  0  0  0  0  0  0  0  0  0
  1  2  1  0  0  0  0
  1 27  1  0  0  0  0
  1 28  1  0  0  0  0
  1 29  1  0  0  0  0
  2 25  1  0  0  0  0
  2  3  2  0  0  0  0
  3  4  1  0  0  0  0
  3 30  1  0  0  0  0
  4  5  1  0  0  0  0
  4 22  1  0  0  0  0
  5 20  1  0  0  0  0
  5  6  1  0  0  0  0
  5 31  1  0  0  0  0
  6  7  1  0  0  0  0
  7  8  1  0  0  0  0
  7 18  1  0  0  0  0
  7 32  1  0  0  0  0
  8  9  1  0  0  0  0
  8 33  1  0  0  0  0
  8 34  1  0  0  0  0
  9 10  1  0  0  0  0
 10 11  2  0  0  0  0
 10 12  1  0  0  0  0
 12 17  1  0  0  0  0
 12 13  2  0  0  0  0
 13 14  1  0  0  0  0
 13 35  1  0  0  0  0
 14 15  2  0  0  0  0
 14 36  1  0  0  0  0
 15 16  1  0  0  0  0
 15 37  1  0  0  0  0
 16 17  2  0  0  0  0
 16 38  1  0  0  0  0
 17 39  1  0  0  0  0
 18 19  1  0  0  0  0
 18 20  1  0  0  0  0
 18 40  1  0  0  0  0
 19 41  1  0  0  0  0
 20 21  1  0  0  0  0
 20 42  1  0  0  0  0
 21 43  1  0  0  0  0
 22 23  2  0  0  0  0
 22 24  1  0  0  0  0
 24 25  1  0  0  0  0
 25 26  2  0  0  0  0
M  CHG  1  24  -1
M  END
> <s_m_source_file>
AV-unprocessed.smi

> <i_m_source_file_index>
101

> <i_lp_mmshare_version>
43012

> <i_f3d_flags>
0

> <s_epik_input>
Tz1jMVtuSF1jKD1PKW4oW2NIXWMxW0NIM10pW0NAQEhdMk9bQ0BIXShbQ0BASF0oW09IXSlbQ0BIXTJbT0hdKVtDSDJdT0MoPU8pYzNbY0hdW2NIXVtjSF1bY0hdW2NIXTM=

> <s_epik_cmdline>
J2VwaWtfcHl0aG9uJywgJy1waCcsICc3LjAnLCAnLXRuJywgJzgnLCAnLW1hJywgJzIwMCcsICctbWV0YWxfYmluZGluZycsICctaW1hZScsICc8aW5maWxlLm1hZT4nLCAnLW9tYWUnLCAnPG91dGZpbGUubWFlPic=

> <r_lp_tautomer_probability>
0.999537

> <r_epik_Ionization_Penalty>
3.21006

> <r_epik_Ionization_Penalty_Charging>
5.75142e-08

> <r_epik_Ionization_Penalty_Neutral>
3.21006

> <r_epik_State_Penalty>
3.20925

> <r_epik_Charging_Adjusted_Penalty>
3.20925

> <i_epik_Tot_Q>
-1

> <i_epik_Tot_abs_Q>
1

> <r_epik_Metal_State_Penalty>
0.119957

> <b_epik_Metal_Only>
1

> <s_epik_Chemistry_Notes>
This compound has an ester and may undergo hydrolysis at high or low pH. This compound contains an acetal/aminal-like group ( X-CH(R)-Y where X, Y are N, S, or O) that may be acid/base labile, releasing an aldehyde.

> <s_lp_Force_Field>
OPLS_2005

> <r_lp_Energy>
44.1701

> <b_lp_Chiralities_Consistent>
1

> <s_lp_Variant>
AV-unprocessed.smi:101-24

> <Gold.Version>
5.8.1

> <Gold.Id.Protein>
6NUR|6NUR_protein|mol2

> <Gold.PLP.Fitness>
49.1046

> <Gold.PLP.PLP>
-43.0759

> <Gold.PLP.part.hbond>
-3.3906

> <Gold.PLP.part.metal>
0.0000

> <Gold.PLP.part.buried>
-5.3743

> <Gold.PLP.part.nonpolar>
-34.8269

> <Gold.PLP.part.repulsive>
1.1671

> <Gold.PLP.ligand.clash>
0.0000

> <Gold.PLP.ligand.torsion>
1.8498

> <Gold.PLP.Chemscore.Hbond>
3.1734

> <Gold.PLP.Chemscore.CHOScore>
0.0000

> <Gold.PLP.Chemscore.Metal>
0.0000

> <Gold.Chemscore.Hbonds>
donor molecule, donor type, donor heavy atom, donor atom, acceptor molecule, acceptor atom, score
      L1  H    19    41       P1  7957  0.54
      L1  H    21    43       P1 10175  0.37
      P1  H  7989  7998       L1    19  0.45
      P1  H  7997  8008       L1    11  0.83

> <Gold.PLP.Chemscore.Internal.Correction>
0.2080

> <Gold.Rescore>
     Score         DG    S(hbond)    S(metal)    S(lipo)     H(rot)  DE(clash)    DE(int)     intcor
     15.92     -17.73       2.75        0.00      97.55       3.27       0.13       1.68       ----

> <Gold.Chemscore.Fitness>
15.9162

> <Gold.Chemscore.DG>
-17.7293

> <Gold.Chemscore.ZeroCoef>
-5.4800

> <Gold.Chemscore.Hbond>
2.7532

> <Gold.Chemscore.Metal>
0.0000

> <Gold.Chemscore.Lipo>
97.5498

> <Gold.Chemscore.Internal_Hbond>
0.0000

> <Gold.Chemscore.DEClash>
0.1296

> <Gold.Chemscore.DEInternal>
1.6834

> <Gold.Chemscore.Rot>
3.2656

> <Gold.Chemscore.Internal.Correction>
   9.000000E+99

> <Gold.Chemscore.Hbonds>
donor molecule, donor type, donor heavy atom, donor atom, acceptor molecule, acceptor atom, score
      L1  H    19    41       P1  7957  0.54
      L1  H    21    43       P1 10175  0.37
      P1  H  7989  7998       L1    19  0.32
      P1  H  7997  8008       L1    11  0.81

> <Gold.Chemscore.Hbond.Weighted>
-9.1958

> <Gold.Chemscore.Metal.Weighted>
-0.0000

> <Gold.Chemscore.Lipo.Weighted>
-11.4133

> <Gold.Chemscore.Internal_Hbond.Weighted>
0.0000

> <Gold.Chemscore.DEClash.Weighted>
0.1296

> <Gold.Chemscore.DEInternal.Weighted>
1.6834

> <Gold.Chemscore.Rot.Weighted>
8.3598

> <Gold.Chemscore.Internal.Correction.Weighted>
   9.000000E+99

> <Gold.Protein.RotatedTorsions>
[ 6907 6896 6895 6894 ] final    1.51 input  -60.11 | X-H torsion
[ 7974 7965 7964 7962 ] final   89.86 input  175.53 | X-H torsion
[ 8008 7997 7996 7995 ] final  -67.47 input   59.86 | X-H torsion
[ 10167 10162 10161 10158 ] final  -86.95 input  -65.29 | X-H torsion
[ 10718 10713 10712 10709 ] final  -37.22 input   66.30 | X-H torsion
[ 10763 10752 10751 10750 ] final   36.84 input  -60.55 | X-H torsion
[ 11005 11000 10999 10996 ] final  170.97 input  -57.11 | X-H torsion

> <Gold.Protein.ActiveResidues>
 VAL166  LYS551  ARG553  GLY616  TRP617  ASP618  TYR619  PRO620  LYS621  CYS622 
 ASP623  PHE694  ASN695  SER759  ASP760  ASP761  ALA762  ILE779  LEU786  VAL792 
 PHE793  MET794  SER795  GLU796  ALA797  LYS798  CYS799  TRP800  GLU811  SER814 

> <Gold.Protein.RotatedAtoms>
  151.5939  135.1052  160.0044 H   0  0  0  0  0  0  0  0  0  0  0  0  # atno 6907 bound_to 6896
  152.4292  133.7244  159.6562 H   0  0  0  0  0  0  0  0  0  0  0  0  # atno 6908 bound_to 6896
  150.8183  133.8226  159.3173 H   0  0  0  0  0  0  0  0  0  0  0  0  # atno 6909 bound_to 6896
  145.5268  139.2281  143.2641 H   0  0  0  0  0  0  0  0  0  0  0  0  # atno 7974 bound_to 7965
  154.4802  140.0892  156.7359 H   0  0  0  0  0  0  0  0  0  0  0  0  # atno 8008 bound_to 7997
  155.4490  140.3456  155.4280 H   0  0  0  0  0  0  0  0  0  0  0  0  # atno 8009 bound_to 7997
  156.1179  140.1466  156.9234 H   0  0  0  0  0  0  0  0  0  0  0  0  # atno 8010 bound_to 7997
  140.3892  143.2713  151.9286 H   0  0  0  0  0  0  0  0  0  0  0  0  # atno 10167 bound_to 10162
  156.3177  130.4261  149.7989 H   0  0  0  0  0  0  0  0  0  0  0  0  # atno 10718 bound_to 10713
  153.0061  135.6294  154.2049 H   0  0  0  0  0  0  0  0  0  0  0  0  # atno 10763 bound_to 10752
  154.1793  135.2814  155.3059 H   0  0  0  0  0  0  0  0  0  0  0  0  # atno 10764 bound_to 10752
  154.5847  135.5636  153.7280 H   0  0  0  0  0  0  0  0  0  0  0  0  # atno 10765 bound_to 10752
  140.3140  134.7493  157.4013 H   0  0  0  0  0  0  0  0  0  0  0  0  # atno 11005 bound_to 11000
  146.2070  140.6082  142.9076 LP  0  0  0  0  0  0  0  0  0  0  0  0  # atno 17320 bound_to 7965
  144.7647  140.5503  143.6711 LP  0  0  0  0  0  0  0  0  0  0  0  0  # atno 17321 bound_to 7965
  139.4790  144.5744  151.8035 LP  0  0  0  0  0  0  0  0  0  0  0  0  # atno 17342 bound_to 10162
  140.4858  144.1383  150.5940 LP  0  0  0  0  0  0  0  0  0  0  0  0  # atno 17343 bound_to 10162
  156.5309  130.8257  151.3236 LP  0  0  0  0  0  0  0  0  0  0  0  0  # atno 17370 bound_to 10713
  157.7405  130.9852  150.2382 LP  0  0  0  0  0  0  0  0  0  0  0  0  # atno 17371 bound_to 10713
  140.1000  134.5486  155.8362 LP  0  0  0  0  0  0  0  0  0  0  0  0  # atno 17394 bound_to 11000
  141.2102  133.6692  156.6490 LP  0  0  0  0  0  0  0  0  0  0  0  0  # atno 17395 bound_to 11000

$$$$
