AV-unprocessed.smi:1432|AV-procd|sdf|5831|dock7
  -GOLD-   22720 5493D 1   1.00000     0.00000
 Structure written by MMmdl.
 47 48  0  0  0  0  0  0  0  0  2 V2000
  149.2280  137.4019  155.0752 C   0  0  0  0  0  0  0  0  0  0  0  0
  147.9921  138.1291  154.5082 C   0  0  2  0  0  0  0  0  0  0  0  0
  146.8880  137.0896  154.2140 C   0  0  0  0  0  0  0  0  0  0  0  0
  145.6314  137.7366  153.6235 C   0  0  0  0  0  0  0  0  0  0  0  0
  146.0076  138.5282  152.3698 C   0  0  0  0  0  0  0  0  0  0  0  0
  147.0922  139.5645  152.6955 C   0  0  0  0  0  0  0  0  0  0  0  0
  148.3055  138.9344  153.2848 N   0  3  1  0  0  0  0  0  0  0  0  0
  149.3961  139.9307  153.4704 C   0  0  0  0  0  0  0  0  0  0  0  0
  149.0741  140.9058  154.6121 C   0  0  0  0  0  0  0  0  0  0  0  0
  149.5490  140.3774  155.8824 N   0  0  0  0  0  0  0  0  0  0  0  0
  150.8359  140.1253  156.1714 C   0  0  0  0  0  0  0  0  0  0  0  0
  151.7473  140.3388  155.3734 O   0  0  0  0  0  0  0  0  0  0  0  0
  151.1738  139.5405  157.5543 C   0  0  0  0  0  0  0  0  0  0  0  0
  151.8560  140.4699  158.4733 N   0  0  0  0  0  0  0  0  0  0  0  0
  151.5339  141.8365  158.3586 C   0  0  0  0  0  0  0  0  0  0  0  0
  152.0911  142.7884  159.1312 C   0  0  0  0  0  0  0  0  0  0  0  0
  151.6727  144.2467  159.0239 C   0  0  0  0  0  0  0  0  0  0  0  0
  152.2479  144.9846  159.9735 F   0  0  0  0  0  0  0  0  0  0  0  0
  152.0342  144.7365  157.8390 F   0  0  0  0  0  0  0  0  0  0  0  0
  150.3501  144.3732  159.1394 F   0  0  0  0  0  0  0  0  0  0  0  0
  153.0408  142.3355  160.1288 C   0  0  0  0  0  0  0  0  0  0  0  0
  153.3492  141.0306  160.2617 C   0  0  0  0  0  0  0  0  0  0  0  0
  152.7424  140.0085  159.4062 C   0  0  0  0  0  0  0  0  0  0  0  0
  153.0062  138.8122  159.5265 O   0  0  0  0  0  0  0  0  0  0  0  0
  148.9556  136.7895  155.9352 H   0  0  0  0  0  0  0  0  0  0  0  0
  149.9985  138.0919  155.4177 H   0  0  0  0  0  0  0  0  0  0  0  0
  149.6747  136.7403  154.3322 H   0  0  0  0  0  0  0  0  0  0  0  0
  147.6204  138.8146  155.2721 H   0  0  0  0  0  0  0  0  0  0  0  0
  147.2655  136.3371  153.5197 H   0  0  0  0  0  0  0  0  0  0  0  0
  146.6233  136.5566  155.1281 H   0  0  0  0  0  0  0  0  0  0  0  0
  144.8917  136.9731  153.3812 H   0  0  0  0  0  0  0  0  0  0  0  0
  145.1718  138.3980  154.3593 H   0  0  0  0  0  0  0  0  0  0  0  0
  146.3652  137.8489  151.5948 H   0  0  0  0  0  0  0  0  0  0  0  0
  145.1259  139.0255  151.9645 H   0  0  0  0  0  0  0  0  0  0  0  0
  147.3635  140.0889  151.7779 H   0  0  0  0  0  0  0  0  0  0  0  0
  146.6989  140.3129  153.3853 H   0  0  0  0  0  0  0  0  0  0  0  0
  150.3339  139.4279  153.7134 H   0  0  0  0  0  0  0  0  0  0  0  0
  149.5961  140.4659  152.5412 H   0  0  0  0  0  0  0  0  0  0  0  0
  149.5399  141.8765  154.4423 H   0  0  0  0  0  0  0  0  0  0  0  0
  147.9964  141.0718  154.6609 H   0  0  0  0  0  0  0  0  0  0  0  0
  148.8552  140.1766  156.5881 H   0  0  0  0  0  0  0  0  0  0  0  0
  150.2531  139.1688  158.0078 H   0  0  0  0  0  0  0  0  0  0  0  0
  151.7865  138.6510  157.4011 H   0  0  0  0  0  0  0  0  0  0  0  0
  150.7923  142.0616  157.6054 H   0  0  0  0  0  0  0  0  0  0  0  0
  153.5180  143.0542  160.7789 H   0  0  0  0  0  0  0  0  0  0  0  0
  154.0629  140.7294  161.0146 H   0  0  0  0  0  0  0  0  0  0  0  0
  148.6385  138.2800  152.5911 H   0  0  0  0  0  0  0  0  0  0  0  0
  1  2  1  0  0  0  0
  1 25  1  0  0  0  0
  1 26  1  0  0  0  0
  1 27  1  0  0  0  0
  2  7  1  0  0  0  0
  2  3  1  0  0  0  0
  2 28  1  0  0  0  0
  3  4  1  0  0  0  0
  3 29  1  0  0  0  0
  3 30  1  0  0  0  0
  4  5  1  0  0  0  0
  4 31  1  0  0  0  0
  4 32  1  0  0  0  0
  5  6  1  0  0  0  0
  5 33  1  0  0  0  0
  5 34  1  0  0  0  0
  6  7  1  0  0  0  0
  6 35  1  0  0  0  0
  6 36  1  0  0  0  0
  7  8  1  0  0  0  0
  7 47  1  0  0  0  0
  8  9  1  0  0  0  0
  8 37  1  0  0  0  0
  8 38  1  0  0  0  0
  9 10  1  0  0  0  0
  9 39  1  0  0  0  0
  9 40  1  0  0  0  0
 10 11  1  0  0  0  0
 10 41  1  0  0  0  0
 11 12  2  0  0  0  0
 11 13  1  0  0  0  0
 13 14  1  0  0  0  0
 13 42  1  0  0  0  0
 13 43  1  0  0  0  0
 14 23  1  0  0  0  0
 14 15  1  0  0  0  0
 15 16  2  0  0  0  0
 15 44  1  0  0  0  0
 16 17  1  0  0  0  0
 16 21  1  0  0  0  0
 17 18  1  0  0  0  0
 17 19  1  0  0  0  0
 17 20  1  0  0  0  0
 21 22  2  0  0  0  0
 21 45  1  0  0  0  0
 22 23  1  0  0  0  0
 22 46  1  0  0  0  0
 23 24  2  0  0  0  0
M  CHG  1   7   1
M  END
> <s_m_source_file>
AV-unprocessed.smi

> <i_m_source_file_index>
1432

> <i_lp_mmshare_version>
43012

> <i_f3d_flags>
0

> <s_epik_input>
W0NIM11bQ0BASF0xW0NIMl1bQ0gyXVtDSDJdW0NIMl1OMVtDSDJdW0NIMl1bTkhdQyg9TylbQ0gyXW4yW2NIXWMoQyhGKShGKUYpW2NIXVtjSF1jMj1P

> <s_epik_cmdline>
J2VwaWtfcHl0aG9uJywgJy1waCcsICc3LjAnLCAnLXRuJywgJzgnLCAnLW1hJywgJzIwMCcsICctbWV0YWxfYmluZGluZycsICctaW1hZScsICc8aW5maWxlLm1hZT4nLCAnLW9tYWUnLCAnPG91dGZpbGUubWFlPic=

> <r_lp_tautomer_probability>
1

> <r_epik_Ionization_Penalty>
0.00237222

> <r_epik_Ionization_Penalty_Charging>
0.00237213

> <r_epik_Ionization_Penalty_Neutral>
8.2065e-08

> <r_epik_State_Penalty>
0.00163922

> <r_epik_Charging_Adjusted_Penalty>
0.00401135

> <i_epik_Tot_Q>
1

> <i_epik_Tot_abs_Q>
1

> <r_epik_Metal_State_Penalty>
-0

> <b_epik_Metal_Only>
0

> <s_lp_Force_Field>
OPLS_2005

> <r_lp_Energy>
33.1317

> <b_lp_Chiralities_Consistent>
1

> <s_lp_Variant>
AV-unprocessed.smi:1432-1

> <Gold.Version>
5.8.1

> <Gold.Id.Protein>
6NUR|6NUR_protein|mol2

> <Gold.PLP.Fitness>
52.7554

> <Gold.PLP.PLP>
-45.6630

> <Gold.PLP.part.hbond>
-3.0000

> <Gold.PLP.part.metal>
0.0000

> <Gold.PLP.part.buried>
-0.9935

> <Gold.PLP.part.nonpolar>
-41.8327

> <Gold.PLP.part.repulsive>
0.0950

> <Gold.PLP.ligand.clash>
0.0000

> <Gold.PLP.ligand.torsion>
0.7783

> <Gold.PLP.Chemscore.Hbond>
2.8480

> <Gold.PLP.Chemscore.CHOScore>
0.0000

> <Gold.PLP.Chemscore.Metal>
0.0000

> <Gold.Chemscore.Hbonds>
donor molecule, donor type, donor heavy atom, donor atom, acceptor molecule, acceptor atom, score
      L1  H     7    47       P1  7948  1.33
      P1  H  7989  7998       L1    12  0.82

> <Gold.PLP.Chemscore.Internal.Correction>
0.1051

> <Gold.Rescore>
     Score         DG    S(hbond)    S(metal)    S(lipo)     H(rot)  DE(clash)    DE(int)     intcor
     14.45     -17.84       1.81        0.00      99.49       2.08       2.70       0.69       ----

> <Gold.Chemscore.Fitness>
14.4453

> <Gold.Chemscore.DG>
-17.8402

> <Gold.Chemscore.ZeroCoef>
-5.4800

> <Gold.Chemscore.Hbond>
1.8069

> <Gold.Chemscore.Metal>
0.0000

> <Gold.Chemscore.Lipo>
99.4883

> <Gold.Chemscore.Internal_Hbond>
0.0000

> <Gold.Chemscore.DEClash>
2.7030

> <Gold.Chemscore.DEInternal>
0.6919

> <Gold.Chemscore.Rot>
2.0762

> <Gold.Chemscore.Internal.Correction>
   9.000000E+99

> <Gold.Chemscore.Hbonds>
donor molecule, donor type, donor heavy atom, donor atom, acceptor molecule, acceptor atom, score
      L1  H     7    47       P1  7948  0.65
      P1  H  7989  7998       L1    12  0.81

> <Gold.Chemscore.Hbond.Weighted>
-6.0351

> <Gold.Chemscore.Metal.Weighted>
-0.0000

> <Gold.Chemscore.Lipo.Weighted>
-11.6401

> <Gold.Chemscore.Internal_Hbond.Weighted>
0.0000

> <Gold.Chemscore.DEClash.Weighted>
2.7030

> <Gold.Chemscore.DEInternal.Weighted>
0.6919

> <Gold.Chemscore.Rot.Weighted>
5.3150

> <Gold.Chemscore.Internal.Correction.Weighted>
   9.000000E+99

> <Gold.Protein.RotatedTorsions>
[ 6907 6896 6895 6894 ] final -122.49 input  -60.11 | X-H torsion
[ 7974 7965 7964 7962 ] final  -80.38 input  175.53 | X-H torsion
[ 8008 7997 7996 7995 ] final  118.63 input   59.86 | X-H torsion
[ 10167 10162 10161 10158 ] final   54.03 input  -65.29 | X-H torsion
[ 10718 10713 10712 10709 ] final   49.59 input   66.30 | X-H torsion
[ 10763 10752 10751 10750 ] final  -67.51 input  -60.55 | X-H torsion
[ 11005 11000 10999 10996 ] final   75.94 input  -57.11 | X-H torsion

> <Gold.Protein.ActiveResidues>
 VAL166  LYS551  ARG553  GLY616  TRP617  ASP618  TYR619  PRO620  LYS621  CYS622 
 ASP623  PHE694  ASN695  SER759  ASP760  ASP761  ALA762  ILE779  LEU786  VAL792 
 PHE793  MET794  SER795  GLU796  ALA797  LYS798  CYS799  TRP800  GLU811  SER814 

> <Gold.Protein.RotatedAtoms>
  150.8581  133.7685  159.3001 H   0  0  0  0  0  0  0  0  0  0  0  0  # atno 6907 bound_to 6896
  151.5335  135.1067  159.9918 H   0  0  0  0  0  0  0  0  0  0  0  0  # atno 6908 bound_to 6896
  152.4605  133.7769  159.6885 H   0  0  0  0  0  0  0  0  0  0  0  0  # atno 6909 bound_to 6896
  145.5607  140.9482  143.1448 H   0  0  0  0  0  0  0  0  0  0  0  0  # atno 7974 bound_to 7965
  156.2556  140.2870  156.0865 H   0  0  0  0  0  0  0  0  0  0  0  0  # atno 8008 bound_to 7997
  155.1509  140.0397  157.2838 H   0  0  0  0  0  0  0  0  0  0  0  0  # atno 8009 bound_to 7997
  154.6461  140.2534  155.7273 H   0  0  0  0  0  0  0  0  0  0  0  0  # atno 8010 bound_to 7997
  140.2344  144.3651  150.6402 H   0  0  0  0  0  0  0  0  0  0  0  0  # atno 10167 bound_to 10162
  157.4802  130.8310  149.8084 H   0  0  0  0  0  0  0  0  0  0  0  0  # atno 10718 bound_to 10713
  154.3755  135.6085  153.5763 H   0  0  0  0  0  0  0  0  0  0  0  0  # atno 10763 bound_to 10752
  152.9789  135.5848  154.4471 H   0  0  0  0  0  0  0  0  0  0  0  0  # atno 10764 bound_to 10752
  154.4232  135.2846  155.1939 H   0  0  0  0  0  0  0  0  0  0  0  0  # atno 10765 bound_to 10752
  139.9321  134.7559  156.1333 H   0  0  0  0  0  0  0  0  0  0  0  0  # atno 11005 bound_to 11000
  144.7484  139.7258  143.7283 LP  0  0  0  0  0  0  0  0  0  0  0  0  # atno 17320 bound_to 7965
  146.1853  139.5065  142.9840 LP  0  0  0  0  0  0  0  0  0  0  0  0  # atno 17321 bound_to 7965
  140.6161  143.2172  151.6789 LP  0  0  0  0  0  0  0  0  0  0  0  0  # atno 17342 bound_to 10162
  139.5099  144.3562  152.0605 LP  0  0  0  0  0  0  0  0  0  0  0  0  # atno 17343 bound_to 10162
  156.0117  130.3830  150.2241 LP  0  0  0  0  0  0  0  0  0  0  0  0  # atno 17370 bound_to 10713
  157.0427  131.0040  151.3278 LP  0  0  0  0  0  0  0  0  0  0  0  0  # atno 17371 bound_to 10713
  141.0915  133.6712  156.2551 LP  0  0  0  0  0  0  0  0  0  0  0  0  # atno 17394 bound_to 11000
  140.6174  134.5396  157.5542 LP  0  0  0  0  0  0  0  0  0  0  0  0  # atno 17395 bound_to 11000

$$$$
