AV-unprocessed.smi:3337|AV-procd|sdf|12862|dock7
  -GOLD-   2272019263D 1   1.00000     0.00000
 Structure written by MMmdl.
 46 47  0  0  0  0  0  0  0  0  2 V2000
  143.2624  135.5083  152.0116 C   0  0  0  0  0  0  0  0  0  0  0  0
  144.4268  134.6234  152.4784 C   0  0  1  0  0  0  0  0  0  0  0  0
  144.3721  133.2331  151.8220 C   0  0  0  0  0  0  0  0  0  0  0  0
  145.5659  132.3682  152.2627 C   0  0  1  0  0  0  0  0  0  0  0  0
  145.5314  130.9866  151.5943 C   0  0  0  0  0  0  0  0  0  0  0  0
  146.8898  133.1043  151.9671 C   0  0  0  0  0  0  0  0  0  0  0  0
  146.9424  134.4448  152.6078 N   0  3  2  0  0  0  0  0  0  0  0  0
  147.1904  134.3935  154.0736 C   0  0  0  0  0  0  0  0  0  0  0  0
  147.1632  135.7908  154.7240 C   0  0  0  0  0  0  0  0  0  0  0  0
  148.2557  136.6284  154.2432 N   0  0  0  0  0  0  0  0  0  0  0  0
  149.0515  137.3735  155.0271 C   0  0  0  0  0  0  0  0  0  0  0  0
  148.9441  137.4021  156.2538 O   0  0  0  0  0  0  0  0  0  0  0  0
  150.1259  138.2093  154.3135 C   0  0  2  0  0  0  0  0  0  0  0  0
  151.5489  137.9050  154.8238 C   0  0  0  0  0  0  0  0  0  0  0  0
  149.8025  139.6280  154.4003 N   0  0  0  0  0  0  0  0  0  0  0  0
  148.6812  140.2739  154.0728 C   0  0  0  0  0  0  0  0  0  0  0  0
  148.7155  141.5748  154.3241 N   0  0  0  0  0  0  0  0  0  0  0  0
  149.9717  141.6723  154.8515 C   0  0  0  0  0  0  0  0  0  0  0  0
  150.6615  140.5346  154.9300 N   0  0  0  0  0  0  0  0  0  0  0  0
  145.7899  135.2948  152.1989 C   0  0  0  0  0  0  0  0  0  0  0  0
  143.3050  135.6887  150.9369 H   0  0  0  0  0  0  0  0  0  0  0  0
  143.2802  136.4765  152.5130 H   0  0  0  0  0  0  0  0  0  0  0  0
  142.3016  135.0424  152.2329 H   0  0  0  0  0  0  0  0  0  0  0  0
  144.3132  134.4941  153.5548 H   0  0  0  0  0  0  0  0  0  0  0  0
  143.4366  132.7360  152.0824 H   0  0  0  0  0  0  0  0  0  0  0  0
  144.3746  133.3377  150.7357 H   0  0  0  0  0  0  0  0  0  0  0  0
  145.4913  132.2081  153.3391 H   0  0  0  0  0  0  0  0  0  0  0  0
  145.6136  131.0671  150.5098 H   0  0  0  0  0  0  0  0  0  0  0  0
  144.6005  130.4649  151.8188 H   0  0  0  0  0  0  0  0  0  0  0  0
  146.3517  130.3597  151.9449 H   0  0  0  0  0  0  0  0  0  0  0  0
  147.7441  132.5047  152.2840 H   0  0  0  0  0  0  0  0  0  0  0  0
  146.9999  133.2376  150.8896 H   0  0  0  0  0  0  0  0  0  0  0  0
  146.4787  133.7245  154.5566 H   0  0  0  0  0  0  0  0  0  0  0  0
  148.1766  133.9625  154.2520 H   0  0  0  0  0  0  0  0  0  0  0  0
  146.2238  136.2919  154.4890 H   0  0  0  0  0  0  0  0  0  0  0  0
  147.2176  135.7309  155.8111 H   0  0  0  0  0  0  0  0  0  0  0  0
  148.4064  136.6594  153.2451 H   0  0  0  0  0  0  0  0  0  0  0  0
  150.1006  137.9400  153.2560 H   0  0  0  0  0  0  0  0  0  0  0  0
  151.7908  136.8483  154.7045 H   0  0  0  0  0  0  0  0  0  0  0  0
  151.6698  138.1539  155.8788 H   0  0  0  0  0  0  0  0  0  0  0  0
  152.2914  138.4750  154.2647 H   0  0  0  0  0  0  0  0  0  0  0  0
  147.8202  139.7826  153.6438 H   0  0  0  0  0  0  0  0  0  0  0  0
  150.3877  142.6085  155.1939 H   0  0  0  0  0  0  0  0  0  0  0  0
  145.8825  135.4899  151.1295 H   0  0  0  0  0  0  0  0  0  0  0  0
  145.8389  136.2698  152.6818 H   0  0  0  0  0  0  0  0  0  0  0  0
  147.7650  134.8881  152.2246 H   0  0  0  0  0  0  0  0  0  0  0  0
  1  2  1  0  0  0  0
  1 21  1  0  0  0  0
  1 22  1  0  0  0  0
  1 23  1  0  0  0  0
  2 20  1  0  0  0  0
  2  3  1  0  0  0  0
  2 24  1  0  0  0  0
  3  4  1  0  0  0  0
  3 25  1  0  0  0  0
  3 26  1  0  0  0  0
  4  5  1  0  0  0  0
  4  6  1  0  0  0  0
  4 27  1  0  0  0  0
  5 28  1  0  0  0  0
  5 29  1  0  0  0  0
  5 30  1  0  0  0  0
  6  7  1  0  0  0  0
  6 31  1  0  0  0  0
  6 32  1  0  0  0  0
  7  8  1  0  0  0  0
  7 20  1  0  0  0  0
  7 46  1  0  0  0  0
  8  9  1  0  0  0  0
  8 33  1  0  0  0  0
  8 34  1  0  0  0  0
  9 10  1  0  0  0  0
  9 35  1  0  0  0  0
  9 36  1  0  0  0  0
 10 11  1  0  0  0  0
 10 37  1  0  0  0  0
 11 12  2  0  0  0  0
 11 13  1  0  0  0  0
 13 14  1  0  0  0  0
 13 15  1  0  0  0  0
 13 38  1  0  0  0  0
 14 39  1  0  0  0  0
 14 40  1  0  0  0  0
 14 41  1  0  0  0  0
 15 19  1  0  0  0  0
 15 16  1  0  0  0  0
 16 17  2  0  0  0  0
 16 42  1  0  0  0  0
 17 18  1  0  0  0  0
 18 19  2  0  0  0  0
 18 43  1  0  0  0  0
 20 44  1  0  0  0  0
 20 45  1  0  0  0  0
M  CHG  1   7   1
M  END
> <s_m_source_file>
AV-unprocessed.smi

> <i_m_source_file_index>
3337

> <i_lp_mmshare_version>
43012

> <i_f3d_flags>
0

> <s_epik_input>
W0NIM11bQ0BASF0xW0NIMl1bQ0BASF0oW0NIM10pW0NIMl1OKFtDSDJdMSlbQ0gyXVtDSDJdW05IXUMoPU8pW0NASF0oW0NIM10pbjJbY0hdbltjSF1uMg==

> <s_epik_cmdline>
J2VwaWtfcHl0aG9uJywgJy1waCcsICc3LjAnLCAnLXRuJywgJzgnLCAnLW1hJywgJzIwMCcsICctbWV0YWxfYmluZGluZycsICctaW1hZScsICc8aW5maWxlLm1hZT4nLCAnLW9tYWUnLCAnPG91dGZpbGUubWFlPic=

> <r_lp_tautomer_probability>
1

> <r_epik_Ionization_Penalty>
0.00175613

> <r_epik_Ionization_Penalty_Charging>
0.00174812

> <r_epik_Ionization_Penalty_Neutral>
8.01354e-06

> <r_epik_State_Penalty>
0.00118332

> <r_epik_Charging_Adjusted_Penalty>
0.00293143

> <i_epik_Tot_Q>
1

> <i_epik_Tot_abs_Q>
1

> <r_epik_Metal_State_Penalty>
-0

> <b_epik_Metal_Only>
0

> <s_lp_Force_Field>
OPLS_2005

> <r_lp_Energy>
24.5444

> <b_lp_Chiralities_Consistent>
1

> <s_lp_Variant>
AV-unprocessed.smi:3337-2

> <Gold.Version>
5.8.1

> <Gold.Id.Protein>
6NUR|6NUR_protein|mol2

> <Gold.PLP.Fitness>
45.6246

> <Gold.PLP.PLP>
-31.2393

> <Gold.PLP.part.hbond>
-2.7810

> <Gold.PLP.part.metal>
0.0000

> <Gold.PLP.part.buried>
-3.5549

> <Gold.PLP.part.nonpolar>
-25.2300

> <Gold.PLP.part.repulsive>
0.2572

> <Gold.PLP.ligand.clash>
0.0000

> <Gold.PLP.ligand.torsion>
0.2768

> <Gold.PLP.Chemscore.Hbond>
3.9353

> <Gold.PLP.Chemscore.CHOScore>
1.0000

> <Gold.PLP.Chemscore.Metal>
0.0000

> <Gold.Chemscore.Hbonds>
donor molecule, donor type, donor heavy atom, donor atom, acceptor molecule, acceptor atom, score
      L1  H     7    46       P1  7948  2.00
      L1  H    10    37       P1  7948  1.00
      P1  H  7989  7998       L1    19  0.70
      L1  C    18    43       P1  8028  0.65

> <Gold.PLP.Chemscore.Internal.Correction>
0.1332

> <Gold.Rescore>
     Score         DG    S(hbond)    S(metal)    S(lipo)     H(rot)  DE(clash)    DE(int)     intcor
     13.34     -14.03       2.42        0.00      59.03       2.51       0.12       0.56       ----

> <Gold.Chemscore.Fitness>
13.3438

> <Gold.Chemscore.DG>
-14.0266

> <Gold.Chemscore.ZeroCoef>
-5.4800

> <Gold.Chemscore.Hbond>
2.4172

> <Gold.Chemscore.Metal>
0.0000

> <Gold.Chemscore.Lipo>
59.0268

> <Gold.Chemscore.Internal_Hbond>
0.0000

> <Gold.Chemscore.DEClash>
0.1238

> <Gold.Chemscore.DEInternal>
0.5590

> <Gold.Chemscore.Rot>
2.5129

> <Gold.Chemscore.Internal.Correction>
   9.000000E+99

> <Gold.Chemscore.Hbonds>
donor molecule, donor type, donor heavy atom, donor atom, acceptor molecule, acceptor atom, score
      L1  H     7    46       P1  7948  0.82
      L1  H    10    37       P1  7948  0.94
      P1  H  7989  7998       L1    19  0.02

> <Gold.Chemscore.Hbond.Weighted>
-8.0735

> <Gold.Chemscore.Metal.Weighted>
-0.0000

> <Gold.Chemscore.Lipo.Weighted>
-6.9061

> <Gold.Chemscore.Internal_Hbond.Weighted>
0.0000

> <Gold.Chemscore.DEClash.Weighted>
0.1238

> <Gold.Chemscore.DEInternal.Weighted>
0.5590

> <Gold.Chemscore.Rot.Weighted>
6.4331

> <Gold.Chemscore.Internal.Correction.Weighted>
   9.000000E+99

> <Gold.Protein.RotatedTorsions>
[ 6907 6896 6895 6894 ] final  -95.64 input  -60.11 | X-H torsion
[ 7974 7965 7964 7962 ] final  110.61 input  175.53 | X-H torsion
[ 8008 7997 7996 7995 ] final  173.94 input   59.86 | X-H torsion
[ 10167 10162 10161 10158 ] final  179.32 input  -65.29 | X-H torsion
[ 10718 10713 10712 10709 ] final -154.08 input   66.30 | X-H torsion
[ 10763 10752 10751 10750 ] final -129.48 input  -60.55 | X-H torsion
[ 11005 11000 10999 10996 ] final   81.91 input  -57.11 | X-H torsion

> <Gold.Protein.ActiveResidues>
 VAL166  LYS551  ARG553  GLY616  TRP617  ASP618  TYR619  PRO620  LYS621  CYS622 
 ASP623  PHE694  ASN695  SER759  ASP760  ASP761  ALA762  ILE779  LEU786  VAL792 
 PHE793  MET794  SER795  GLU796  ALA797  LYS798  CYS799  TRP800  GLU811  SER814 

> <Gold.Protein.RotatedAtoms>
  150.6969  134.1626  159.4181 H   0  0  0  0  0  0  0  0  0  0  0  0  # atno 6907 bound_to 6896
  151.9606  135.0123  160.0556 H   0  0  0  0  0  0  0  0  0  0  0  0  # atno 6908 bound_to 6896
  152.1930  133.4752  159.5055 H   0  0  0  0  0  0  0  0  0  0  0  0  # atno 6909 bound_to 6896
  145.2528  139.2733  143.4058 H   0  0  0  0  0  0  0  0  0  0  0  0  # atno 7974 bound_to 7965
  156.1025  140.1447  156.9448 H   0  0  0  0  0  0  0  0  0  0  0  0  # atno 8008 bound_to 7997
  154.4712  140.0909  156.7193 H   0  0  0  0  0  0  0  0  0  0  0  0  # atno 8009 bound_to 7997
  155.4736  140.3442  155.4331 H   0  0  0  0  0  0  0  0  0  0  0  0  # atno 8010 bound_to 7997
  139.5331  144.2575  152.0734 H   0  0  0  0  0  0  0  0  0  0  0  0  # atno 10167 bound_to 10162
  156.4945  130.8362  151.2584 H   0  0  0  0  0  0  0  0  0  0  0  0  # atno 10718 bound_to 10713
  154.8757  135.3894  154.3926 H   0  0  0  0  0  0  0  0  0  0  0  0  # atno 10763 bound_to 10752
  153.4660  135.7029  153.6027 H   0  0  0  0  0  0  0  0  0  0  0  0  # atno 10764 bound_to 10752
  153.4505  135.3835  155.2249 H   0  0  0  0  0  0  0  0  0  0  0  0  # atno 10765 bound_to 10752
  139.9081  134.8032  156.2105 H   0  0  0  0  0  0  0  0  0  0  0  0  # atno 11005 bound_to 11000
  146.3297  140.2924  142.8616 LP  0  0  0  0  0  0  0  0  0  0  0  0  # atno 17320 bound_to 7965
  144.9487  140.8156  143.5585 LP  0  0  0  0  0  0  0  0  0  0  0  0  # atno 17321 bound_to 7965
  140.2041  144.4628  150.6417 LP  0  0  0  0  0  0  0  0  0  0  0  0  # atno 17342 bound_to 10162
  140.6522  143.2228  151.6051 LP  0  0  0  0  0  0  0  0  0  0  0  0  # atno 17343 bound_to 10162
  157.7470  131.0002  150.2919 LP  0  0  0  0  0  0  0  0  0  0  0  0  # atno 17370 bound_to 10713
  156.3394  130.3813  149.7422 LP  0  0  0  0  0  0  0  0  0  0  0  0  # atno 17371 bound_to 10713
  141.0469  133.6909  156.1699 LP  0  0  0  0  0  0  0  0  0  0  0  0  # atno 17394 bound_to 11000
  140.6871  134.4706  157.5589 LP  0  0  0  0  0  0  0  0  0  0  0  0  # atno 17395 bound_to 11000

$$$$
