AV-unprocessed.smi:250|AV-procd|sdf|1931|dock8
  -GOLD-   2262021 53D 1   1.00000     0.00000
 Structure written by MMmdl.
 56 60  0  0  0  0  0  0  0  0  1 V2000
  153.0914  143.9236  163.5530 C   0  0  0  0  0  0  0  0  0  0  0  0
  153.5170  142.7315  162.8315 N   0  0  0  0  0  0  0  0  0  0  0  0
  154.3883  141.7915  163.2543 C   0  0  0  0  0  0  0  0  0  0  0  0
  155.0004  141.7920  164.3205 O   0  0  0  0  0  0  0  0  0  0  0  0
  154.4783  140.8416  162.3075 N   0  0  0  0  0  0  0  0  0  0  0  0
  153.8353  141.2926  161.0958 C   0  0  1  0  0  0  0  0  0  0  0  0
  153.1382  140.3161  160.1523 C   0  0  0  0  0  0  0  0  0  0  0  0
  152.5264  141.1138  159.0771 N   0  0  0  0  0  0  0  0  0  0  0  0
  152.1669  140.4091  157.9754 C   0  0  0  0  0  0  0  0  0  0  0  0
  152.8341  139.2678  157.6570 N   0  0  0  0  0  0  0  0  0  0  0  0
  152.4980  138.5717  156.5672 C   0  0  0  0  0  0  0  0  0  0  0  0
  151.5428  138.8321  155.6729 N   0  0  0  0  0  0  0  0  0  0  0  0
  150.8644  139.9720  155.9894 C   0  0  0  0  0  0  0  0  0  0  0  0
  151.1041  140.8083  157.1164 C   0  0  0  0  0  0  0  0  0  0  0  0
  150.1935  141.8582  157.1276 N   0  0  0  0  0  0  0  0  0  0  0  0
  149.4656  141.6598  156.0634 C   0  0  0  0  0  0  0  0  0  0  0  0
  149.8134  140.5627  155.3078 N   0  0  0  0  0  0  0  0  0  0  0  0
  149.1703  140.1137  154.0815 C   0  0  0  0  0  0  0  0  0  0  0  0
  147.6485  140.4308  153.9597 C   0  0  0  0  0  0  0  0  0  0  0  0
  147.0162  139.6731  152.7532 C   0  0  0  0  0  0  0  0  0  0  0  0
  146.9514  138.2721  152.9277 O   0  0  0  0  0  0  0  0  0  0  0  0
  146.9066  140.1235  155.2861 C   0  0  0  0  0  0  0  0  0  0  0  0
  145.4870  140.7141  155.3207 C   0  0  0  0  0  0  0  0  0  0  0  0
  145.5485  142.1219  155.1333 O   0  0  0  0  0  0  0  0  0  0  0  0
  146.0832  142.4871  153.8679 C   0  0  0  0  0  0  0  0  0  0  0  0
  147.5242  141.9583  153.7247 C   0  0  0  0  0  0  0  0  0  0  0  0
  151.6806  142.2624  159.4638 C   0  0  0  0  0  0  0  0  0  0  0  0
  152.3399  143.1650  160.5426 C   0  0  0  0  0  0  0  0  0  0  0  0
  152.8066  142.2390  161.6672 C   0  0  2  0  0  0  0  0  0  0  0  0
  154.5955  141.8389  160.5311 H   0  0  0  0  0  0  0  0  0  0  0  0
  151.9424  141.6864  162.0457 H   0  0  0  0  0  0  0  0  0  0  0  0
  153.7965  144.1921  164.3408 H   0  0  0  0  0  0  0  0  0  0  0  0
  152.1150  143.7592  164.0092 H   0  0  0  0  0  0  0  0  0  0  0  0
  153.0142  144.7723  162.8733 H   0  0  0  0  0  0  0  0  0  0  0  0
  155.0784  140.0311  162.3545 H   0  0  0  0  0  0  0  0  0  0  0  0
  153.8598  139.5970  159.7677 H   0  0  0  0  0  0  0  0  0  0  0  0
  152.3653  139.7503  160.6742 H   0  0  0  0  0  0  0  0  0  0  0  0
  153.0787  137.6796  156.3842 H   0  0  0  0  0  0  0  0  0  0  0  0
  148.6561  142.3209  155.7901 H   0  0  0  0  0  0  0  0  0  0  0  0
  149.7141  140.5621  153.2490 H   0  0  0  0  0  0  0  0  0  0  0  0
  149.3333  139.0387  153.9924 H   0  0  0  0  0  0  0  0  0  0  0  0
  145.9963  140.0027  152.5649 H   0  0  0  0  0  0  0  0  0  0  0  0
  147.5735  139.8837  151.8400 H   0  0  0  0  0  0  0  0  0  0  0  0
  147.7484  137.8903  152.5927 H   0  0  0  0  0  0  0  0  0  0  0  0
  146.8626  139.0512  155.4763 H   0  0  0  0  0  0  0  0  0  0  0  0
  147.4673  140.5505  156.1185 H   0  0  0  0  0  0  0  0  0  0  0  0
  144.8450  140.2571  154.5667 H   0  0  0  0  0  0  0  0  0  0  0  0
  145.0264  140.5128  156.2879 H   0  0  0  0  0  0  0  0  0  0  0  0
  145.4356  142.1273  153.0687 H   0  0  0  0  0  0  0  0  0  0  0  0
  146.0824  143.5748  153.7946 H   0  0  0  0  0  0  0  0  0  0  0  0
  148.1418  142.4896  154.4505 H   0  0  0  0  0  0  0  0  0  0  0  0
  147.9195  142.2253  152.7439 H   0  0  0  0  0  0  0  0  0  0  0  0
  151.4503  142.8632  158.5829 H   0  0  0  0  0  0  0  0  0  0  0  0
  150.7314  141.8825  159.8444 H   0  0  0  0  0  0  0  0  0  0  0  0
  153.1804  143.7180  160.1210 H   0  0  0  0  0  0  0  0  0  0  0  0
  151.6234  143.8991  160.9111 H   0  0  0  0  0  0  0  0  0  0  0  0
  1  2  1  0  0  0  0
  1 32  1  0  0  0  0
  1 33  1  0  0  0  0
  1 34  1  0  0  0  0
  2 29  1  0  0  0  0
  2  3  1  0  0  0  0
  3  4  2  0  0  0  0
  3  5  1  0  0  0  0
  5  6  1  0  0  0  0
  5 35  1  0  0  0  0
  6 30  1  0  0  0  0
  6 29  1  0  0  0  0
  6  7  1  0  0  0  0
  7  8  1  0  0  0  0
  7 36  1  0  0  0  0
  7 37  1  0  0  0  0
  8  9  1  0  0  0  0
  8 27  1  0  0  0  0
  9 14  1  0  0  0  0
  9 10  2  0  0  0  0
 10 11  1  0  0  0  0
 11 12  2  0  0  0  0
 11 38  1  0  0  0  0
 12 13  1  0  0  0  0
 13 17  1  0  0  0  0
 13 14  2  0  0  0  0
 14 15  1  0  0  0  0
 15 16  2  0  0  0  0
 16 17  1  0  0  0  0
 16 39  1  0  0  0  0
 17 18  1  0  0  0  0
 18 19  1  0  0  0  0
 18 40  1  0  0  0  0
 18 41  1  0  0  0  0
 19 26  1  0  0  0  0
 19 20  1  0  0  0  0
 19 22  1  0  0  0  0
 20 21  1  0  0  0  0
 20 42  1  0  0  0  0
 20 43  1  0  0  0  0
 21 44  1  0  0  0  0
 22 23  1  0  0  0  0
 22 45  1  0  0  0  0
 22 46  1  0  0  0  0
 23 24  1  0  0  0  0
 23 47  1  0  0  0  0
 23 48  1  0  0  0  0
 24 25  1  0  0  0  0
 25 26  1  0  0  0  0
 25 49  1  0  0  0  0
 25 50  1  0  0  0  0
 26 51  1  0  0  0  0
 26 52  1  0  0  0  0
 27 28  1  0  0  0  0
 27 53  1  0  0  0  0
 27 54  1  0  0  0  0
 28 29  1  0  0  0  0
 28 55  1  0  0  0  0
 28 56  1  0  0  0  0
 29 31  1  0  0  0  0
M  END
> <s_m_source_file>
AV-unprocessed.smi

> <i_m_source_file_index>
250

> <i_lp_mmshare_version>
43012

> <i_f3d_flags>
0

> <s_epik_input>
Tz1DKFtOSF0xKU4oW0NIM10pW0NASF0oW0NASF0xMilbQ0gyXVtDSDJdTihbQ0gyXTIpYyhuW2NIXW4zKWMoYzM0KW5bY0hdbjRbQ0gyXUM1KFtDSDJdW09IXSlbQ0gyXVtDSDJdT1tDSDJdW0NIMl01

> <s_epik_cmdline>
J2VwaWtfcHl0aG9uJywgJy1waCcsICc3LjAnLCAnLXRuJywgJzgnLCAnLW1hJywgJzIwMCcsICctbWV0YWxfYmluZGluZycsICctaW1hZScsICc8aW5maWxlLm1hZT4nLCAnLW9tYWUnLCAnPG91dGZpbGUubWFlPic=

> <r_lp_tautomer_probability>
1

> <r_epik_Ionization_Penalty>
0.00229024

> <r_epik_Ionization_Penalty_Charging>
0

> <r_epik_Ionization_Penalty_Neutral>
0.00229024

> <r_epik_State_Penalty>
0.0013961

> <r_epik_Charging_Adjusted_Penalty>
0.0013961

> <i_epik_Tot_Q>
0

> <i_epik_Tot_abs_Q>
0

> <r_epik_Metal_State_Penalty>
-0

> <b_epik_Metal_Only>
0

> <s_lp_Force_Field>
OPLS_2005

> <r_lp_Energy>
73.7244

> <b_lp_Chiralities_Consistent>
1

> <s_lp_Variant>
AV-unprocessed.smi:250-2

> <Gold.Version>
5.8.1

> <Gold.Id.Protein>
6NUR|6NUR_protein|mol2

> <Gold.PLP.Fitness>
59.8459

> <Gold.PLP.PLP>
-52.2925

> <Gold.PLP.part.hbond>
-4.0000

> <Gold.PLP.part.metal>
0.0000

> <Gold.PLP.part.buried>
-0.1950

> <Gold.PLP.part.nonpolar>
-46.3357

> <Gold.PLP.part.repulsive>
0.2285

> <Gold.PLP.ligand.clash>
0.0000

> <Gold.PLP.ligand.torsion>
0.7019

> <Gold.PLP.Chemscore.Hbond>
1.9500

> <Gold.PLP.Chemscore.CHOScore>
0.9394

> <Gold.PLP.Chemscore.Metal>
0.0000

> <Gold.Chemscore.Hbonds>
donor molecule, donor type, donor heavy atom, donor atom, acceptor molecule, acceptor atom, score
      L1  H    21    44       P1  7948  0.68
      P1  H  7997  8008       L1    10  0.74
      L1  C    16    39       P1  8028  0.88

> <Gold.PLP.Chemscore.Internal.Correction>
0.2891

> <Gold.Rescore>
     Score         DG    S(hbond)    S(metal)    S(lipo)     H(rot)  DE(clash)    DE(int)     intcor
     10.19     -16.08       1.00        0.00     110.70       2.22       2.79       3.10       ----

> <Gold.Chemscore.Fitness>
10.1938

> <Gold.Chemscore.DG>
-16.0802

> <Gold.Chemscore.ZeroCoef>
-5.4800

> <Gold.Chemscore.Hbond>
0.9953

> <Gold.Chemscore.Metal>
0.0000

> <Gold.Chemscore.Lipo>
110.6954

> <Gold.Chemscore.Internal_Hbond>
0.0000

> <Gold.Chemscore.DEClash>
2.7898

> <Gold.Chemscore.DEInternal>
3.0966

> <Gold.Chemscore.Rot>
2.2170

> <Gold.Chemscore.Internal.Correction>
   9.000000E+99

> <Gold.Chemscore.Hbonds>
donor molecule, donor type, donor heavy atom, donor atom, acceptor molecule, acceptor atom, score
      L1  H    21    44       P1  7948  0.65
      P1  H  7997  8008       L1    10  0.07

> <Gold.Chemscore.Hbond.Weighted>
-3.3244

> <Gold.Chemscore.Metal.Weighted>
-0.0000

> <Gold.Chemscore.Lipo.Weighted>
-12.9514

> <Gold.Chemscore.Internal_Hbond.Weighted>
0.0000

> <Gold.Chemscore.DEClash.Weighted>
2.7898

> <Gold.Chemscore.DEInternal.Weighted>
3.0966

> <Gold.Chemscore.Rot.Weighted>
5.6756

> <Gold.Chemscore.Internal.Correction.Weighted>
   9.000000E+99

> <Gold.Protein.RotatedTorsions>
[ 6907 6896 6895 6894 ] final -173.82 input  -60.11 | X-H torsion
[ 7974 7965 7964 7962 ] final   -3.36 input  175.53 | X-H torsion
[ 8008 7997 7996 7995 ] final  -97.78 input   59.86 | X-H torsion
[ 10167 10162 10161 10158 ] final  -74.14 input  -65.29 | X-H torsion
[ 10718 10713 10712 10709 ] final   46.86 input   66.30 | X-H torsion
[ 10763 10752 10751 10750 ] final   -5.72 input  -60.55 | X-H torsion
[ 11005 11000 10999 10996 ] final   37.57 input  -57.11 | X-H torsion

> <Gold.Protein.ActiveResidues>
 VAL166  LYS551  ARG553  GLY616  TRP617  ASP618  TYR619  PRO620  LYS621  CYS622 
 ASP623  PHE694  ASN695  SER759  ASP760  ASP761  ALA762  ILE779  LEU786  VAL792 
 PHE793  MET794  SER795  GLU796  ALA797  LYS798  CYS799  TRP800  GLU811  SER814 

> <Gold.Protein.RotatedAtoms>
  151.5623  133.3401  159.2973 H   0  0  0  0  0  0  0  0  0  0  0  0  # atno 6907 bound_to 6896
  150.8415  134.7712  159.6948 H   0  0  0  0  0  0  0  0  0  0  0  0  # atno 6908 bound_to 6896
  152.4482  134.5457  159.9904 H   0  0  0  0  0  0  0  0  0  0  0  0  # atno 6909 bound_to 6896
  146.2391  140.1709  142.8332 H   0  0  0  0  0  0  0  0  0  0  0  0  # atno 7974 bound_to 7965
  154.7923  140.0460  157.1210 H   0  0  0  0  0  0  0  0  0  0  0  0  # atno 8008 bound_to 7997
  154.9576  140.3073  155.5026 H   0  0  0  0  0  0  0  0  0  0  0  0  # atno 8009 bound_to 7997
  156.2951  140.2276  156.4659 H   0  0  0  0  0  0  0  0  0  0  0  0  # atno 8010 bound_to 7997
  140.5052  143.2354  151.7686 H   0  0  0  0  0  0  0  0  0  0  0  0  # atno 10167 bound_to 10162
  157.4525  130.8147  149.7803 H   0  0  0  0  0  0  0  0  0  0  0  0  # atno 10718 bound_to 10713
  153.4024  135.7005  153.6417 H   0  0  0  0  0  0  0  0  0  0  0  0  # atno 10763 bound_to 10752
  153.4944  135.3665  155.2509 H   0  0  0  0  0  0  0  0  0  0  0  0  # atno 10764 bound_to 10752
  154.8711  135.4097  154.3361 H   0  0  0  0  0  0  0  0  0  0  0  0  # atno 10765 bound_to 10752
  140.2213  134.3638  155.8004 H   0  0  0  0  0  0  0  0  0  0  0  0  # atno 11005 bound_to 11000
  145.0012  140.8634  143.5280 LP  0  0  0  0  0  0  0  0  0  0  0  0  # atno 17320 bound_to 7965
  145.1728  139.2394  143.5333 LP  0  0  0  0  0  0  0  0  0  0  0  0  # atno 17321 bound_to 7965
  139.4882  144.4468  151.9701 LP  0  0  0  0  0  0  0  0  0  0  0  0  # atno 17342 bound_to 10162
  140.3558  144.3033  150.5941 LP  0  0  0  0  0  0  0  0  0  0  0  0  # atno 17343 bound_to 10162
  155.9993  130.3889  150.2669 LP  0  0  0  0  0  0  0  0  0  0  0  0  # atno 17370 bound_to 10713
  157.0841  131.0151  151.3145 LP  0  0  0  0  0  0  0  0  0  0  0  0  # atno 17371 bound_to 10713
  141.2223  133.7195  156.8580 LP  0  0  0  0  0  0  0  0  0  0  0  0  # atno 17394 bound_to 11000
  140.1847  134.9008  157.2990 LP  0  0  0  0  0  0  0  0  0  0  0  0  # atno 17395 bound_to 11000

$$$$
