AV-unprocessed.smi:113|AV-procd|sdf|1104|dock6
  -GOLD-   2262018213D 1   1.00000     0.00000
 Structure written by MMmdl.
 53 56  0  0  0  0  0  0  0  0  2 V2000
  149.0863  141.6840  154.5353 C   0  0  0  0  0  0  0  0  0  0  0  0
  150.0535  141.4868  155.6830 C   0  0  0  0  0  0  0  0  0  0  0  0
  150.6063  140.2289  155.9907 C   0  0  0  0  0  0  0  0  0  0  0  0
  151.5087  140.0982  157.0754 C   0  0  0  0  0  0  0  0  0  0  0  0
  152.1268  138.7412  157.4296 C   0  0  0  0  0  0  0  0  0  0  0  0
  151.2399  137.5865  157.3971 N   0  0  0  0  0  0  0  0  0  0  0  0
  150.3543  137.4065  158.4878 C   0  0  0  0  0  0  0  0  0  0  0  0
  150.3199  138.2041  159.4273 O   0  0  0  0  0  0  0  0  0  0  0  0
  149.4890  136.2277  158.3996 C   0  0  0  0  0  0  0  0  0  0  0  0
  148.5446  135.9427  159.5569 C   0  0  0  0  0  0  0  0  0  0  0  0
  149.5540  135.4268  157.3092 C   0  0  0  0  0  0  0  0  0  0  0  0
  150.3993  135.6520  156.2360 N   0  0  0  0  0  0  0  0  0  0  0  0
  150.4067  134.7237  155.0421 C   0  0  1  0  0  0  0  0  0  0  0  0
  150.6379  133.2766  155.4807 C   0  0  0  0  0  0  0  0  0  0  0  0
  149.7200  132.5260  154.5382 C   0  0  1  0  0  0  0  0  0  0  0  0
  149.3406  131.2819  155.0906 O   0  0  0  0  0  0  0  0  0  0  0  0
  148.5445  133.4987  154.4056 C   0  0  2  0  0  0  0  0  0  0  0  0
  147.7086  133.3327  153.1273 C   0  0  0  0  0  0  0  0  0  0  0  0
  147.1155  134.5604  152.7616 O   0  0  0  0  0  0  0  0  0  0  0  0
  149.1633  134.7841  154.4051 O   0  0  0  0  0  0  0  0  0  0  0  0
  151.2878  136.7462  156.2617 C   0  0  0  0  0  0  0  0  0  0  0  0
  152.0626  136.9604  155.3265 O   0  0  0  0  0  0  0  0  0  0  0  0
  151.8327  141.2618  157.8263 C   0  0  0  0  0  0  0  0  0  0  0  0
  152.7310  141.2291  158.9202 C   0  0  0  0  0  0  0  0  0  0  0  0
  153.0222  142.4031  159.6426 C   0  0  0  0  0  0  0  0  0  0  0  0
  152.4229  143.6246  159.2835 C   0  0  0  0  0  0  0  0  0  0  0  0
  151.5303  143.6759  158.1969 C   0  0  0  0  0  0  0  0  0  0  0  0
  151.2384  142.5032  157.4722 C   0  0  0  0  0  0  0  0  0  0  0  0
  150.3845  142.5608  156.4284 N   0  3  0  0  0  0  0  0  0  0  0  0
  149.1367  140.8495  153.8351 H   0  0  0  0  0  0  0  0  0  0  0  0
  149.3182  142.5984  153.9883 H   0  0  0  0  0  0  0  0  0  0  0  0
  148.0652  141.7556  154.9103 H   0  0  0  0  0  0  0  0  0  0  0  0
  150.3302  139.3776  155.3868 H   0  0  0  0  0  0  0  0  0  0  0  0
  152.9689  138.5307  156.7687 H   0  0  0  0  0  0  0  0  0  0  0  0
  152.5697  138.7740  158.4263 H   0  0  0  0  0  0  0  0  0  0  0  0
  147.9336  135.0582  159.3745 H   0  0  0  0  0  0  0  0  0  0  0  0
  147.8703  136.7847  159.7179 H   0  0  0  0  0  0  0  0  0  0  0  0
  149.1083  135.7747  160.4753 H   0  0  0  0  0  0  0  0  0  0  0  0
  148.9090  134.5617  157.2830 H   0  0  0  0  0  0  0  0  0  0  0  0
  151.1548  135.0910  154.3385 H   0  0  0  0  0  0  0  0  0  0  0  0
  151.6885  132.9981  155.3935 H   0  0  0  0  0  0  0  0  0  0  0  0
  150.3191  133.1514  156.5173 H   0  0  0  0  0  0  0  0  0  0  0  0
  150.2117  132.3786  153.5754 H   0  0  0  0  0  0  0  0  0  0  0  0
  148.4035  131.1889  155.0095 H   0  0  0  0  0  0  0  0  0  0  0  0
  147.9047  133.4399  155.2878 H   0  0  0  0  0  0  0  0  0  0  0  0
  148.3461  133.0079  152.3045 H   0  0  0  0  0  0  0  0  0  0  0  0
  146.9369  132.5732  153.2565 H   0  0  0  0  0  0  0  0  0  0  0  0
  147.8014  135.1696  152.5335 H   0  0  0  0  0  0  0  0  0  0  0  0
  153.2114  140.3119  159.2247 H   0  0  0  0  0  0  0  0  0  0  0  0
  153.7085  142.3654  160.4761 H   0  0  0  0  0  0  0  0  0  0  0  0
  152.6490  144.5222  159.8407 H   0  0  0  0  0  0  0  0  0  0  0  0
  151.0740  144.6169  157.9249 H   0  0  0  0  0  0  0  0  0  0  0  0
  149.9706  143.4617  156.1897 H   0  0  0  0  0  0  0  0  0  0  0  0
  1  2  1  0  0  0  0
  1 30  1  0  0  0  0
  1 31  1  0  0  0  0
  1 32  1  0  0  0  0
  2 29  1  0  0  0  0
  2  3  2  0  0  0  0
  3  4  1  0  0  0  0
  3 33  1  0  0  0  0
  4  5  1  0  0  0  0
  4 23  2  0  0  0  0
  5  6  1  0  0  0  0
  5 34  1  0  0  0  0
  5 35  1  0  0  0  0
  6 21  1  0  0  0  0
  6  7  1  0  0  0  0
  7  8  2  0  0  0  0
  7  9  1  0  0  0  0
  9 10  1  0  0  0  0
  9 11  2  0  0  0  0
 10 36  1  0  0  0  0
 10 37  1  0  0  0  0
 10 38  1  0  0  0  0
 11 12  1  0  0  0  0
 11 39  1  0  0  0  0
 12 13  1  0  0  0  0
 12 21  1  0  0  0  0
 13 20  1  0  0  0  0
 13 14  1  0  0  0  0
 13 40  1  0  0  0  0
 14 15  1  0  0  0  0
 14 41  1  0  0  0  0
 14 42  1  0  0  0  0
 15 16  1  0  0  0  0
 15 17  1  0  0  0  0
 15 43  1  0  0  0  0
 16 44  1  0  0  0  0
 17 18  1  0  0  0  0
 17 20  1  0  0  0  0
 17 45  1  0  0  0  0
 18 19  1  0  0  0  0
 18 46  1  0  0  0  0
 18 47  1  0  0  0  0
 19 48  1  0  0  0  0
 21 22  2  0  0  0  0
 23 28  1  0  0  0  0
 23 24  1  0  0  0  0
 24 25  2  0  0  0  0
 24 49  1  0  0  0  0
 25 26  1  0  0  0  0
 25 50  1  0  0  0  0
 26 27  2  0  0  0  0
 26 51  1  0  0  0  0
 27 28  1  0  0  0  0
 27 52  1  0  0  0  0
 28 29  2  0  0  0  0
 29 53  1  0  0  0  0
M  CHG  1  29   1
M  END
> <s_m_source_file>
AV-unprocessed.smi

> <i_m_source_file_index>
113

> <i_lp_mmshare_version>
43012

> <i_f3d_flags>
0

> <s_epik_input>
W2NIXTFbY0hdW2NIXVtjSF1jKGMxMiluYyhbQ0gzXSlbY0hdYzJbQ0gyXW4zYyg9TyljKFtDSDNdKVtjSF1uKGMzPU8pW0NAQEhdNFtDSDJdW0NAQEhdKFtPSF0pW0NASF0oTzQpW0NIMl1bT0hd

> <s_epik_cmdline>
J2VwaWtfcHl0aG9uJywgJy1waCcsICc3LjAnLCAnLXRuJywgJzgnLCAnLW1hJywgJzIwMCcsICctbWV0YWxfYmluZGluZycsICctaW1hZScsICc8aW5maWxlLm1hZT4nLCAnLW9tYWUnLCAnPG91dGZpbGUubWFlPic=

> <r_lp_tautomer_probability>
1

> <r_epik_Ionization_Penalty>
0.705471

> <r_epik_Ionization_Penalty_Charging>
0.70547

> <r_epik_Ionization_Penalty_Neutral>
1.19947e-07

> <r_epik_State_Penalty>
0.728574

> <r_epik_Charging_Adjusted_Penalty>
1.43404

> <i_epik_Tot_Q>
1

> <i_epik_Tot_abs_Q>
1

> <r_epik_Metal_State_Penalty>
4.61665

> <b_epik_Metal_Only>
0

> <s_epik_Chemistry_Notes>
This compound contains an acetal/aminal-like group ( X-CH(R)-Y where X, Y are N, S, or O) that may be acid/base labile, releasing an aldehyde.

> <s_lp_Force_Field>
OPLS_2005

> <r_lp_Energy>
41.2196

> <b_lp_Chiralities_Consistent>
1

> <s_lp_Variant>
AV-unprocessed.smi:113-14

> <Gold.Version>
5.8.1

> <Gold.Id.Protein>
6NUR|6NUR_protein|mol2

> <Gold.PLP.Fitness>
59.8223

> <Gold.PLP.PLP>
-49.4968

> <Gold.PLP.part.hbond>
-4.0000

> <Gold.PLP.part.metal>
0.0000

> <Gold.PLP.part.buried>
-6.3852

> <Gold.PLP.part.nonpolar>
-40.4402

> <Gold.PLP.part.repulsive>
1.6872

> <Gold.PLP.ligand.clash>
0.0000

> <Gold.PLP.ligand.torsion>
0.8330

> <Gold.PLP.Chemscore.Hbond>
3.9920

> <Gold.PLP.Chemscore.CHOScore>
0.0000

> <Gold.PLP.Chemscore.Metal>
0.0000

> <Gold.Chemscore.Hbonds>
donor molecule, donor type, donor heavy atom, donor atom, acceptor molecule, acceptor atom, score
      L1  H    19    48       P1  7948  1.00
      L1  H    29    53       P1  8028  2.00
      P1  H 10752 10765       L1    22  0.99

> <Gold.PLP.Chemscore.Internal.Correction>
0.0155

> <Gold.Rescore>
     Score         DG    S(hbond)    S(metal)    S(lipo)     H(rot)  DE(clash)    DE(int)     intcor
     20.79     -22.29       2.91        0.00     126.61       3.01       0.61       0.89       ----

> <Gold.Chemscore.Fitness>
20.7858

> <Gold.Chemscore.DG>
-22.2914

> <Gold.Chemscore.ZeroCoef>
-5.4800

> <Gold.Chemscore.Hbond>
2.9067

> <Gold.Chemscore.Metal>
0.0000

> <Gold.Chemscore.Lipo>
126.6135

> <Gold.Chemscore.Internal_Hbond>
0.0000

> <Gold.Chemscore.DEClash>
0.6111

> <Gold.Chemscore.DEInternal>
0.8945

> <Gold.Chemscore.Rot>
3.0120

> <Gold.Chemscore.Internal.Correction>
   9.000000E+99

> <Gold.Chemscore.Hbonds>
donor molecule, donor type, donor heavy atom, donor atom, acceptor molecule, acceptor atom, score
      L1  H    19    48       P1  7948  0.99
      L1  H    29    53       P1  8028  1.00
      P1  H 10752 10765       L1    22  0.88

> <Gold.Chemscore.Hbond.Weighted>
-9.7084

> <Gold.Chemscore.Metal.Weighted>
-0.0000

> <Gold.Chemscore.Lipo.Weighted>
-14.8138

> <Gold.Chemscore.Internal_Hbond.Weighted>
0.0000

> <Gold.Chemscore.DEClash.Weighted>
0.6111

> <Gold.Chemscore.DEInternal.Weighted>
0.8945

> <Gold.Chemscore.Rot.Weighted>
7.7108

> <Gold.Chemscore.Internal.Correction.Weighted>
   9.000000E+99

> <Gold.Protein.RotatedTorsions>
[ 6907 6896 6895 6894 ] final  103.51 input  -60.11 | X-H torsion
[ 7974 7965 7964 7962 ] final -176.17 input  175.53 | X-H torsion
[ 8008 7997 7996 7995 ] final   64.54 input   59.86 | X-H torsion
[ 10167 10162 10161 10158 ] final  113.97 input  -65.29 | X-H torsion
[ 10718 10713 10712 10709 ] final   54.59 input   66.30 | X-H torsion
[ 10763 10752 10751 10750 ] final -172.99 input  -60.55 | X-H torsion
[ 11005 11000 10999 10996 ] final   29.96 input  -57.11 | X-H torsion

> <Gold.Protein.ActiveResidues>
 VAL166  LYS551  ARG553  GLY616  TRP617  ASP618  TYR619  PRO620  LYS621  CYS622 
 ASP623  PHE694  ASN695  SER759  ASP760  ASP761  ALA762  ILE779  LEU786  VAL792 
 PHE793  MET794  SER795  GLU796  ALA797  LYS798  CYS799  TRP800  GLU811  SER814 

> <Gold.Protein.RotatedAtoms>
  152.5293  133.9815  159.7808 H   0  0  0  0  0  0  0  0  0  0  0  0  # atno 6907 bound_to 6896
  151.0067  133.5996  159.2695 H   0  0  0  0  0  0  0  0  0  0  0  0  # atno 6908 bound_to 6896
  151.3085  135.0794  159.9317 H   0  0  0  0  0  0  0  0  0  0  0  0  # atno 6909 bound_to 6896
  144.7127  140.1210  143.6405 H   0  0  0  0  0  0  0  0  0  0  0  0  # atno 7974 bound_to 7965
  155.6477  140.3497  155.4737 H   0  0  0  0  0  0  0  0  0  0  0  0  # atno 8008 bound_to 7997
  155.9874  140.1186  157.0694 H   0  0  0  0  0  0  0  0  0  0  0  0  # atno 8009 bound_to 7997
  154.4209  140.1126  156.5504 H   0  0  0  0  0  0  0  0  0  0  0  0  # atno 8010 bound_to 7997
  139.6422  144.7124  151.2214 H   0  0  0  0  0  0  0  0  0  0  0  0  # atno 10167 bound_to 10162
  157.5271  130.8604  149.8636 H   0  0  0  0  0  0  0  0  0  0  0  0  # atno 10718 bound_to 10713
  154.6130  135.2866  155.0411 H   0  0  0  0  0  0  0  0  0  0  0  0  # atno 10763 bound_to 10752
  154.1634  135.6484  153.4995 H   0  0  0  0  0  0  0  0  0  0  0  0  # atno 10764 bound_to 10752
  153.0203  135.5384  154.6890 H   0  0  0  0  0  0  0  0  0  0  0  0  # atno 10765 bound_to 10752
  140.2995  134.2773  155.7757 H   0  0  0  0  0  0  0  0  0  0  0  0  # atno 11005 bound_to 11000
  145.9371  139.2644  143.1291 LP  0  0  0  0  0  0  0  0  0  0  0  0  # atno 17320 bound_to 7965
  145.9462  140.8943  143.0282 LP  0  0  0  0  0  0  0  0  0  0  0  0  # atno 17321 bound_to 7965
  140.7497  143.6292  150.8439 LP  0  0  0  0  0  0  0  0  0  0  0  0  # atno 17342 bound_to 10162
  139.9931  143.5826  152.2903 LP  0  0  0  0  0  0  0  0  0  0  0  0  # atno 17343 bound_to 10162
  156.0395  130.3742  150.1473 LP  0  0  0  0  0  0  0  0  0  0  0  0  # atno 17370 bound_to 10713
  156.9659  130.9819  151.3469 LP  0  0  0  0  0  0  0  0  0  0  0  0  # atno 17371 bound_to 10713
  141.2131  133.7637  156.9745 LP  0  0  0  0  0  0  0  0  0  0  0  0  # atno 17394 bound_to 11000
  140.1122  134.9469  157.2082 LP  0  0  0  0  0  0  0  0  0  0  0  0  # atno 17395 bound_to 11000

$$$$
