AV-unprocessed.smi:3228|AV-procd|sdf|12326|dock1
  -GOLD-   2272018173D 1   1.00000     0.00000
 Structure written by MMmdl.
 30 31  0  0  0  0  0  0  0  0  2 V2000
  150.3609  136.5930  159.0455 O   0  0  0  0  0  0  0  0  0  0  0  0
  149.5112  137.4724  158.8851 C   0  0  0  0  0  0  0  0  0  0  0  0
  149.7701  138.5102  158.0788 N   0  0  0  0  0  0  0  0  0  0  0  0
  151.0117  138.7136  157.3425 C   0  0  0  0  0  0  0  0  0  0  0  0
  151.6373  140.0782  157.6816 C   0  0  1  0  0  0  0  0  0  0  0  0
  150.6103  141.1796  157.9837 C   0  0  0  0  0  0  0  0  0  0  0  0
  151.3176  142.1865  158.9039 C   0  0  0  0  0  0  0  0  0  0  0  0
  152.6485  141.5410  159.3129 C   0  0  0  0  0  0  0  0  0  0  0  0
  152.5156  140.0635  158.9363 C   0  0  2  0  0  0  0  0  0  0  0  0
  153.7784  139.4754  158.7016 O   0  0  0  0  0  0  0  0  0  0  0  0
  148.2848  137.5173  159.4541 N   0  5  0  0  0  0  0  0  0  0  0  0
  148.0065  136.7389  160.5122 C   0  0  0  0  0  0  0  0  0  0  0  0
  147.7016  137.2300  161.7189 N   0  0  0  0  0  0  0  0  0  0  0  0
  147.4409  136.2425  162.6706 C   0  0  0  0  0  0  0  0  0  0  0  0
  147.5407  134.9697  162.1747 C   0  0  0  0  0  0  0  0  0  0  0  0
  147.9686  134.9734  160.4875 S   0  0  0  0  0  0  0  0  0  0  0  0
  149.0514  139.2109  157.9732 H   0  0  0  0  0  0  0  0  0  0  0  0
  151.7085  137.9077  157.5789 H   0  0  0  0  0  0  0  0  0  0  0  0
  150.8066  138.6553  156.2725 H   0  0  0  0  0  0  0  0  0  0  0  0
  152.2465  140.4096  156.8382 H   0  0  0  0  0  0  0  0  0  0  0  0
  150.2338  141.6476  157.0734 H   0  0  0  0  0  0  0  0  0  0  0  0
  149.7520  140.7567  158.5083 H   0  0  0  0  0  0  0  0  0  0  0  0
  151.4917  143.1346  158.3940 H   0  0  0  0  0  0  0  0  0  0  0  0
  150.7005  142.3959  159.7784 H   0  0  0  0  0  0  0  0  0  0  0  0
  153.4561  142.0020  158.7419 H   0  0  0  0  0  0  0  0  0  0  0  0
  152.8743  141.6805  160.3705 H   0  0  0  0  0  0  0  0  0  0  0  0
  152.0110  139.5257  159.7404 H   0  0  0  0  0  0  0  0  0  0  0  0
  153.6783  138.5359  158.7153 H   0  0  0  0  0  0  0  0  0  0  0  0
  147.1899  136.5365  163.6790 H   0  0  0  0  0  0  0  0  0  0  0  0
  147.3891  134.0357  162.6941 H   0  0  0  0  0  0  0  0  0  0  0  0
  1  2  2  0  0  0  0
  2  3  1  0  0  0  0
  2 11  1  0  0  0  0
  3  4  1  0  0  0  0
  3 17  1  0  0  0  0
  4  5  1  0  0  0  0
  4 18  1  0  0  0  0
  4 19  1  0  0  0  0
  5  9  1  0  0  0  0
  5  6  1  0  0  0  0
  5 20  1  0  0  0  0
  6  7  1  0  0  0  0
  6 21  1  0  0  0  0
  6 22  1  0  0  0  0
  7  8  1  0  0  0  0
  7 23  1  0  0  0  0
  7 24  1  0  0  0  0
  8  9  1  0  0  0  0
  8 25  1  0  0  0  0
  8 26  1  0  0  0  0
  9 10  1  0  0  0  0
  9 27  1  0  0  0  0
 10 28  1  0  0  0  0
 11 12  1  0  0  0  0
 12 16  1  0  0  0  0
 12 13  2  0  0  0  0
 13 14  1  0  0  0  0
 14 15  2  0  0  0  0
 14 29  1  0  0  0  0
 15 16  1  0  0  0  0
 15 30  1  0  0  0  0
M  CHG  1  11  -1
M  END
> <s_m_source_file>
AV-unprocessed.smi

> <i_m_source_file_index>
3228

> <i_lp_mmshare_version>
43012

> <i_f3d_flags>
0

> <s_epik_input>
czFbY0hdW2NIXW5jMVtOSF1DKD1PKVtOSF1bQ0gyXVtDQEBIXTJbQ0gyXVtDSDJdW0NIMl1bQ0BIXTJbT0hd

> <s_epik_cmdline>
J2VwaWtfcHl0aG9uJywgJy1waCcsICc3LjAnLCAnLXRuJywgJzgnLCAnLW1hJywgJzIwMCcsICctbWV0YWxfYmluZGluZycsICctaW1hZScsICc8aW5maWxlLm1hZT4nLCAnLW9tYWUnLCAnPG91dGZpbGUubWFlPic=

> <r_lp_tautomer_probability>
0.999

> <r_epik_Ionization_Penalty>
8.49756

> <r_epik_Ionization_Penalty_Charging>
6.79645

> <r_epik_Ionization_Penalty_Neutral>
1.70111

> <r_epik_State_Penalty>
6.79662

> <r_epik_Charging_Adjusted_Penalty>
13.5931

> <i_epik_Tot_Q>
-1

> <i_epik_Tot_abs_Q>
1

> <r_epik_Metal_State_Penalty>
2.71629

> <b_epik_Metal_Only>
1

> <s_lp_Force_Field>
OPLS_2005

> <r_lp_Energy>
17.8369

> <b_lp_Chiralities_Consistent>
1

> <s_lp_Variant>
AV-unprocessed.smi:3228-8

> <Gold.Version>
5.8.1

> <Gold.Id.Protein>
6NUR|6NUR_protein|mol2

> <Gold.PLP.Fitness>
38.1148

> <Gold.PLP.PLP>
-29.4937

> <Gold.PLP.part.hbond>
-5.1312

> <Gold.PLP.part.metal>
0.0000

> <Gold.PLP.part.buried>
-3.4999

> <Gold.PLP.part.nonpolar>
-20.2771

> <Gold.PLP.part.repulsive>
0.1128

> <Gold.PLP.ligand.clash>
0.0000

> <Gold.PLP.ligand.torsion>
0.9660

> <Gold.PLP.Chemscore.Hbond>
3.5040

> <Gold.PLP.Chemscore.CHOScore>
0.0000

> <Gold.PLP.Chemscore.Metal>
0.0000

> <Gold.Chemscore.Hbonds>
donor molecule, donor type, donor heavy atom, donor atom, acceptor molecule, acceptor atom, score
      P1  H  6896  6909       L1     1  1.00
      P1  H  6931  6943       L1    13  0.95
      P1  H  6934  6947       L1    13  0.45
      P1  H  7997  8008       L1    10  1.00

> <Gold.PLP.Chemscore.Internal.Correction>
0.0411

> <Gold.Rescore>
     Score         DG    S(hbond)    S(metal)    S(lipo)     H(rot)  DE(clash)    DE(int)     intcor
     16.75     -17.80       3.04        0.00      58.95       1.85       0.00       1.05       ----

> <Gold.Chemscore.Fitness>
16.7535

> <Gold.Chemscore.DG>
-17.8003

> <Gold.Chemscore.ZeroCoef>
-5.4800

> <Gold.Chemscore.Hbond>
3.0401

> <Gold.Chemscore.Metal>
0.0000

> <Gold.Chemscore.Lipo>
58.9536

> <Gold.Chemscore.Internal_Hbond>
0.0000

> <Gold.Chemscore.DEClash>
0.0009

> <Gold.Chemscore.DEInternal>
1.0459

> <Gold.Chemscore.Rot>
1.8481

> <Gold.Chemscore.Internal.Correction>
   9.000000E+99

> <Gold.Chemscore.Hbonds>
donor molecule, donor type, donor heavy atom, donor atom, acceptor molecule, acceptor atom, score
      P1  H  6896  6909       L1     1  0.98
      P1  H  6931  6943       L1    13  0.20
      P1  H  6934  6947       L1    13  0.04
      P1  H  7997  8008       L1    10  0.77

> <Gold.Chemscore.Hbond.Weighted>
-10.1540

> <Gold.Chemscore.Metal.Weighted>
-0.0000

> <Gold.Chemscore.Lipo.Weighted>
-6.8976

> <Gold.Chemscore.Internal_Hbond.Weighted>
0.0000

> <Gold.Chemscore.DEClash.Weighted>
0.0009

> <Gold.Chemscore.DEInternal.Weighted>
1.0459

> <Gold.Chemscore.Rot.Weighted>
4.7313

> <Gold.Chemscore.Internal.Correction.Weighted>
   9.000000E+99

> <Gold.Protein.RotatedTorsions>
[ 6907 6896 6895 6894 ] final   71.13 input  -60.11 | X-H torsion
[ 7974 7965 7964 7962 ] final  112.17 input  175.53 | X-H torsion
[ 8008 7997 7996 7995 ] final -103.05 input   59.86 | X-H torsion
[ 10167 10162 10161 10158 ] final   -6.45 input  -65.29 | X-H torsion
[ 10718 10713 10712 10709 ] final  137.13 input   66.30 | X-H torsion
[ 10763 10752 10751 10750 ] final   84.84 input  -60.55 | X-H torsion
[ 11005 11000 10999 10996 ] final -102.96 input  -57.11 | X-H torsion

> <Gold.Protein.ActiveResidues>
 VAL166  LYS551  ARG553  GLY616  TRP617  ASP618  TYR619  PRO620  LYS621  CYS622 
 ASP623  PHE694  ASN695  SER759  ASP760  ASP761  ALA762  ILE779  LEU786  VAL792 
 PHE793  MET794  SER795  GLU796  ALA797  LYS798  CYS799  TRP800  GLU811  SER814 

> <Gold.Protein.RotatedAtoms>
  152.4792  134.4765  159.9651 H   0  0  0  0  0  0  0  0  0  0  0  0  # atno 6907 bound_to 6896
  151.4775  133.3548  159.2841 H   0  0  0  0  0  0  0  0  0  0  0  0  # atno 6908 bound_to 6896
  150.8851  134.8274  159.7314 H   0  0  0  0  0  0  0  0  0  0  0  0  # atno 6909 bound_to 6896
  145.2329  139.2812  143.4158 H   0  0  0  0  0  0  0  0  0  0  0  0  # atno 7974 bound_to 7965
  154.8654  140.0425  157.1691 H   0  0  0  0  0  0  0  0  0  0  0  0  # atno 8008 bound_to 7997
  154.8796  140.2970  155.5412 H   0  0  0  0  0  0  0  0  0  0  0  0  # atno 8009 bound_to 7997
  156.2999  140.2414  156.3796 H   0  0  0  0  0  0  0  0  0  0  0  0  # atno 8010 bound_to 7997
  140.6997  143.6192  150.8629 H   0  0  0  0  0  0  0  0  0  0  0  0  # atno 10167 bound_to 10162
  157.4393  131.1056  151.0161 H   0  0  0  0  0  0  0  0  0  0  0  0  # atno 10718 bound_to 10713
  153.1419  135.4639  154.9509 H   0  0  0  0  0  0  0  0  0  0  0  0  # atno 10763 bound_to 10752
  154.7754  135.3171  154.8104 H   0  0  0  0  0  0  0  0  0  0  0  0  # atno 10764 bound_to 10752
  153.8626  135.6911  153.4835 H   0  0  0  0  0  0  0  0  0  0  0  0  # atno 10765 bound_to 10752
  141.1166  133.8601  157.1426 H   0  0  0  0  0  0  0  0  0  0  0  0  # atno 11005 bound_to 11000
  146.3348  140.2669  142.8604 LP  0  0  0  0  0  0  0  0  0  0  0  0  # atno 17320 bound_to 7965
  144.9660  140.8322  143.5484 LP  0  0  0  0  0  0  0  0  0  0  0  0  # atno 17321 bound_to 7965
  139.9913  143.5844  152.2909 LP  0  0  0  0  0  0  0  0  0  0  0  0  # atno 17342 bound_to 10162
  139.6500  144.7660  151.2167 LP  0  0  0  0  0  0  0  0  0  0  0  0  # atno 17343 bound_to 10162
  157.1030  130.5989  149.5464 LP  0  0  0  0  0  0  0  0  0  0  0  0  # atno 17370 bound_to 10713
  155.9942  130.5006  150.7413 LP  0  0  0  0  0  0  0  0  0  0  0  0  # atno 17371 bound_to 10713
  140.0093  134.9995  157.0361 LP  0  0  0  0  0  0  0  0  0  0  0  0  # atno 17394 bound_to 11000
  140.4627  134.1467  155.7193 LP  0  0  0  0  0  0  0  0  0  0  0  0  # atno 17395 bound_to 11000

$$$$
