AV-unprocessed.smi:1867|AV-procd|sdf|7561|dock10
  -GOLD-   22720 9283D 1   1.00000     0.00000
 Structure written by MMmdl.
 52 55  0  0  0  0  0  0  0  0  2 V2000
  147.6383  140.0265  155.0716 O   0  0  0  0  0  0  0  0  0  0  0  0
  148.4226  139.2364  154.5524 C   0  0  0  0  0  0  0  0  0  0  0  0
  149.7030  139.0621  154.9340 N   0  0  0  0  0  0  0  0  0  0  0  0
  150.4357  139.7639  155.9280 C   0  0  0  0  0  0  0  0  0  0  0  0
  149.7633  140.7547  156.6687 C   0  0  0  0  0  0  0  0  0  0  0  0
  150.4574  141.4542  157.6735 C   0  0  0  0  0  0  0  0  0  0  0  0
  151.8148  141.1386  157.9174 C   0  0  0  0  0  0  0  0  0  0  0  0
  152.5477  141.8139  158.9136 N   0  0  0  0  0  0  0  0  0  0  0  0
  153.6492  141.1701  159.6168 C   0  0  0  0  0  0  0  0  0  0  0  0
  153.7333  141.8630  160.9820 C   0  0  0  0  0  0  0  0  0  0  0  0
  153.0084  143.1927  160.7737 C   0  0  0  0  0  0  0  0  0  0  0  0
  151.9390  142.8450  159.7400 C   0  0  0  0  0  0  0  0  0  0  0  0
  152.4557  140.1699  157.2212 N   0  0  0  0  0  0  0  0  0  0  0  0
  151.7871  139.5036  156.2569 C   0  0  0  0  0  0  0  0  0  0  0  0
  148.0374  138.4488  153.5315 N   0  0  0  0  0  0  0  0  0  0  0  0
  146.7296  138.3769  152.8720 C   0  0  1  0  0  0  0  0  0  0  0  0
  146.7878  138.8029  151.3921 C   0  0  0  0  0  0  0  0  0  0  0  0
  145.8694  137.8152  150.6664 C   0  0  0  0  0  0  0  0  0  0  0  0
  146.0481  136.5787  151.4350 N   0  3  2  0  0  0  0  0  0  0  0  0
  145.1320  135.4490  151.1788 C   0  0  0  0  0  0  0  0  0  0  0  0
  145.6429  134.2206  151.9620 C   0  0  0  0  0  0  0  0  0  0  0  0
  145.8709  134.5339  153.4583 C   0  0  0  0  0  0  0  0  0  0  0  0
  146.7293  135.8023  153.6563 C   0  0  0  0  0  0  0  0  0  0  0  0
  146.1033  136.9602  152.8572 C   0  0  1  0  0  0  0  0  0  0  0  0
  150.2020  138.3105  154.4818 H   0  0  0  0  0  0  0  0  0  0  0  0
  148.7255  140.9809  156.4708 H   0  0  0  0  0  0  0  0  0  0  0  0
  149.9415  142.2120  158.2442 H   0  0  0  0  0  0  0  0  0  0  0  0
  153.4909  140.0978  159.7358 H   0  0  0  0  0  0  0  0  0  0  0  0
  154.5674  141.3214  159.0486 H   0  0  0  0  0  0  0  0  0  0  0  0
  153.1986  141.2698  161.7246 H   0  0  0  0  0  0  0  0  0  0  0  0
  154.7591  141.9877  161.3298 H   0  0  0  0  0  0  0  0  0  0  0  0
  152.5917  143.6026  161.6940 H   0  0  0  0  0  0  0  0  0  0  0  0
  153.6995  143.9274  160.3581 H   0  0  0  0  0  0  0  0  0  0  0  0
  151.6490  143.7155  159.1506 H   0  0  0  0  0  0  0  0  0  0  0  0
  151.0490  142.4441  160.2270 H   0  0  0  0  0  0  0  0  0  0  0  0
  152.3590  138.7333  155.7640 H   0  0  0  0  0  0  0  0  0  0  0  0
  148.7452  137.8303  153.1623 H   0  0  0  0  0  0  0  0  0  0  0  0
  146.0357  139.0551  153.3719 H   0  0  0  0  0  0  0  0  0  0  0  0
  146.4869  139.8401  151.2403 H   0  0  0  0  0  0  0  0  0  0  0  0
  147.8034  138.6961  151.0067 H   0  0  0  0  0  0  0  0  0  0  0  0
  144.8296  138.1412  150.7257 H   0  0  0  0  0  0  0  0  0  0  0  0
  146.1342  137.6863  149.6165 H   0  0  0  0  0  0  0  0  0  0  0  0
  144.1170  135.7106  151.4816 H   0  0  0  0  0  0  0  0  0  0  0  0
  145.1063  135.2294  150.1109 H   0  0  0  0  0  0  0  0  0  0  0  0
  144.9423  133.3918  151.8558 H   0  0  0  0  0  0  0  0  0  0  0  0
  146.5829  133.8838  151.5231 H   0  0  0  0  0  0  0  0  0  0  0  0
  144.9050  134.6750  153.9452 H   0  0  0  0  0  0  0  0  0  0  0  0
  146.3407  133.6826  153.9518 H   0  0  0  0  0  0  0  0  0  0  0  0
  146.7779  136.0466  154.7174 H   0  0  0  0  0  0  0  0  0  0  0  0
  147.7520  135.6186  153.3239 H   0  0  0  0  0  0  0  0  0  0  0  0
  145.0739  137.0813  153.2022 H   0  0  0  0  0  0  0  0  0  0  0  0
  146.9747  136.2519  151.2007 H   0  0  0  0  0  0  0  0  0  0  0  0
  1  2  2  0  0  0  0
  2  3  1  0  0  0  0
  2 15  1  0  0  0  0
  3  4  1  0  0  0  0
  3 25  1  0  0  0  0
  4 14  1  0  0  0  0
  4  5  2  0  0  0  0
  5  6  1  0  0  0  0
  5 26  1  0  0  0  0
  6  7  2  0  0  0  0
  6 27  1  0  0  0  0
  7  8  1  0  0  0  0
  7 13  1  0  0  0  0
  8 12  1  0  0  0  0
  8  9  1  0  0  0  0
  9 10  1  0  0  0  0
  9 28  1  0  0  0  0
  9 29  1  0  0  0  0
 10 11  1  0  0  0  0
 10 30  1  0  0  0  0
 10 31  1  0  0  0  0
 11 12  1  0  0  0  0
 11 32  1  0  0  0  0
 11 33  1  0  0  0  0
 12 34  1  0  0  0  0
 12 35  1  0  0  0  0
 13 14  2  0  0  0  0
 14 36  1  0  0  0  0
 15 16  1  0  0  0  0
 15 37  1  0  0  0  0
 16 24  1  0  0  0  0
 16 17  1  0  0  0  0
 16 38  1  0  0  0  0
 17 18  1  0  0  0  0
 17 39  1  0  0  0  0
 17 40  1  0  0  0  0
 18 19  1  0  0  0  0
 18 41  1  0  0  0  0
 18 42  1  0  0  0  0
 19 24  1  0  0  0  0
 19 20  1  0  0  0  0
 19 52  1  0  0  0  0
 20 21  1  0  0  0  0
 20 43  1  0  0  0  0
 20 44  1  0  0  0  0
 21 22  1  0  0  0  0
 21 45  1  0  0  0  0
 21 46  1  0  0  0  0
 22 23  1  0  0  0  0
 22 47  1  0  0  0  0
 22 48  1  0  0  0  0
 23 24  1  0  0  0  0
 23 49  1  0  0  0  0
 23 50  1  0  0  0  0
 24 51  1  0  0  0  0
M  CHG  1  19   1
M  END
> <s_m_source_file>
AV-unprocessed.smi

> <i_m_source_file_index>
1867

> <i_lp_mmshare_version>
43012

> <i_f3d_flags>
0

> <s_epik_input>
W0NIMl0xW0NIMl1bQ0gyXVtDSDJdW0NASF0oTjEyKVtDQEBIXShbQ0gyXVtDSDJdMilbTkhdQyg9TylbTkhdYzNbY0hdW2NIXWMobltjSF0zKU40W0NIMl1bQ0gyXVtDSDJdW0NIMl00

> <s_epik_cmdline>
J2VwaWtfcHl0aG9uJywgJy1waCcsICc3LjAnLCAnLXRuJywgJzgnLCAnLW1hJywgJzIwMCcsICctbWV0YWxfYmluZGluZycsICctaW1hZScsICc8aW5maWxlLm1hZT4nLCAnLW9tYWUnLCAnPG91dGZpbGUubWFlPic=

> <r_lp_tautomer_probability>
1

> <r_epik_Ionization_Penalty>
0.0751123

> <r_epik_Ionization_Penalty_Charging>
0.000974069

> <r_epik_Ionization_Penalty_Neutral>
0.0741382

> <r_epik_State_Penalty>
0.0647261

> <r_epik_Charging_Adjusted_Penalty>
0.0657002

> <i_epik_Tot_Q>
1

> <i_epik_Tot_abs_Q>
1

> <r_epik_Metal_State_Penalty>
0.0580571

> <b_epik_Metal_Only>
0

> <s_lp_Force_Field>
OPLS_2005

> <r_lp_Energy>
77.0679

> <b_lp_Chiralities_Consistent>
1

> <s_lp_Variant>
AV-unprocessed.smi:1867-2

> <Gold.Version>
5.8.1

> <Gold.Id.Protein>
6NUR|6NUR_protein|mol2

> <Gold.PLP.Fitness>
48.0956

> <Gold.PLP.PLP>
-37.5566

> <Gold.PLP.part.hbond>
-3.3372

> <Gold.PLP.part.metal>
0.0000

> <Gold.PLP.part.buried>
6.8418

> <Gold.PLP.part.nonpolar>
-41.1687

> <Gold.PLP.part.repulsive>
0.2006

> <Gold.PLP.ligand.clash>
0.0000

> <Gold.PLP.ligand.torsion>
0.1931

> <Gold.PLP.Chemscore.Hbond>
3.5740

> <Gold.PLP.Chemscore.CHOScore>
0.0000

> <Gold.PLP.Chemscore.Metal>
0.0000

> <Gold.Chemscore.Hbonds>
donor molecule, donor type, donor heavy atom, donor atom, acceptor molecule, acceptor atom, score
      L1  H    15    37       P1  7948  0.78
      L1  H    19    52       P1  7948  1.75
      P1  H  7997  8008       L1    13  1.00

> <Gold.PLP.Chemscore.Internal.Correction>
0.2033

> <Gold.Rescore>
     Score         DG    S(hbond)    S(metal)    S(lipo)     H(rot)  DE(clash)    DE(int)     intcor
     19.83     -23.84       2.38        0.00     110.76       1.00       2.36       1.65       ----

> <Gold.Chemscore.Fitness>
19.8288

> <Gold.Chemscore.DG>
-23.8379

> <Gold.Chemscore.ZeroCoef>
-5.4800

> <Gold.Chemscore.Hbond>
2.3830

> <Gold.Chemscore.Metal>
0.0000

> <Gold.Chemscore.Lipo>
110.7577

> <Gold.Chemscore.Internal_Hbond>
0.0000

> <Gold.Chemscore.DEClash>
2.3598

> <Gold.Chemscore.DEInternal>
1.6493

> <Gold.Chemscore.Rot>
1.0000

> <Gold.Chemscore.Internal.Correction>
   9.000000E+99

> <Gold.Chemscore.Hbonds>
donor molecule, donor type, donor heavy atom, donor atom, acceptor molecule, acceptor atom, score
      L1  H    15    37       P1  7948  0.73
      L1  H    19    52       P1  7948  0.80
      P1  H  7997  8008       L1    13  0.42

> <Gold.Chemscore.Hbond.Weighted>
-7.9593

> <Gold.Chemscore.Metal.Weighted>
-0.0000

> <Gold.Chemscore.Lipo.Weighted>
-12.9587

> <Gold.Chemscore.Internal_Hbond.Weighted>
0.0000

> <Gold.Chemscore.DEClash.Weighted>
2.3598

> <Gold.Chemscore.DEInternal.Weighted>
1.6493

> <Gold.Chemscore.Rot.Weighted>
2.5600

> <Gold.Chemscore.Internal.Correction.Weighted>
   9.000000E+99

> <Gold.Protein.RotatedTorsions>
[ 6907 6896 6895 6894 ] final -111.91 input  -60.11 | X-H torsion
[ 7974 7965 7964 7962 ] final  168.15 input  175.53 | X-H torsion
[ 8008 7997 7996 7995 ] final  -57.79 input   59.86 | X-H torsion
[ 10167 10162 10161 10158 ] final -153.84 input  -65.29 | X-H torsion
[ 10718 10713 10712 10709 ] final -157.20 input   66.30 | X-H torsion
[ 10763 10752 10751 10750 ] final   91.26 input  -60.55 | X-H torsion
[ 11005 11000 10999 10996 ] final  -78.01 input  -57.11 | X-H torsion

> <Gold.Protein.ActiveResidues>
 VAL166  LYS551  ARG553  GLY616  TRP617  ASP618  TYR619  PRO620  LYS621  CYS622 
 ASP623  PHE694  ASN695  SER759  ASP760  ASP761  ALA762  ILE779  LEU786  VAL792 
 PHE793  MET794  SER795  GLU796  ALA797  LYS798  CYS799  TRP800  GLU811  SER814 

> <Gold.Protein.RotatedAtoms>
  150.7722  133.9167  159.3385 H   0  0  0  0  0  0  0  0  0  0  0  0  # atno 6907 bound_to 6896
  151.7050  135.0921  160.0267 H   0  0  0  0  0  0  0  0  0  0  0  0  # atno 6908 bound_to 6896
  152.3744  133.6423  159.6148 H   0  0  0  0  0  0  0  0  0  0  0  0  # atno 6909 bound_to 6896
  144.7398  139.8866  143.6400 H   0  0  0  0  0  0  0  0  0  0  0  0  # atno 7974 bound_to 7965
  154.4282  140.1099  156.5854 H   0  0  0  0  0  0  0  0  0  0  0  0  # atno 8008 bound_to 7997
  155.6068  140.3494  155.4591 H   0  0  0  0  0  0  0  0  0  0  0  0  # atno 8009 bound_to 7997
  156.0130  140.1223  157.0424 H   0  0  0  0  0  0  0  0  0  0  0  0  # atno 8010 bound_to 7997
  139.7063  143.9180  152.2450 H   0  0  0  0  0  0  0  0  0  0  0  0  # atno 10167 bound_to 10162
  156.5370  130.8546  151.2736 H   0  0  0  0  0  0  0  0  0  0  0  0  # atno 10718 bound_to 10713
  153.2064  135.4404  155.0328 H   0  0  0  0  0  0  0  0  0  0  0  0  # atno 10763 bound_to 10752
  154.8176  135.3322  154.7135 H   0  0  0  0  0  0  0  0  0  0  0  0  # atno 10764 bound_to 10752
  153.7576  135.6994  153.4988 H   0  0  0  0  0  0  0  0  0  0  0  0  # atno 10765 bound_to 10752
  141.1663  133.7046  156.7908 H   0  0  0  0  0  0  0  0  0  0  0  0  # atno 11005 bound_to 11000
  146.1172  139.4185  143.0250 LP  0  0  0  0  0  0  0  0  0  0  0  0  # atno 17320 bound_to 7965
  145.7357  141.0026  143.1328 LP  0  0  0  0  0  0  0  0  0  0  0  0  # atno 17321 bound_to 7965
  139.9037  144.6897  150.8637 LP  0  0  0  0  0  0  0  0  0  0  0  0  # atno 17342 bound_to 10162
  140.7722  143.3494  151.2044 LP  0  0  0  0  0  0  0  0  0  0  0  0  # atno 17343 bound_to 10162
  157.7412  130.9865  150.2429 LP  0  0  0  0  0  0  0  0  0  0  0  0  # atno 17370 bound_to 10713
  156.3007  130.3758  149.7753 LP  0  0  0  0  0  0  0  0  0  0  0  0  # atno 17371 bound_to 10713
  140.2327  134.8674  157.3493 LP  0  0  0  0  0  0  0  0  0  0  0  0  # atno 17394 bound_to 11000
  140.1875  134.4413  155.7735 LP  0  0  0  0  0  0  0  0  0  0  0  0  # atno 17395 bound_to 11000

$$$$
