AV-unprocessed.smi:189|AV-procd|sdf|1490|dock5
  -GOLD-   2262019313D 1   1.00000     0.00000
 Structure written by MMmdl.
 53 57  0  0  0  0  0  0  0  0  1 V2000
  147.7185  142.0373  153.1337 C   0  0  0  0  0  0  0  0  0  0  0  0
  148.1419  141.5796  154.5397 C   0  0  1  0  0  0  0  0  0  0  0  0
  146.9375  141.3408  155.4620 C   0  0  0  0  0  0  0  0  0  0  0  0
  146.5834  139.8607  155.2582 C   0  0  2  0  0  0  0  0  0  0  0  0
  146.2427  139.1054  156.5552 C   0  0  0  0  0  0  0  0  0  0  0  0
  146.0129  137.5997  156.3063 C   0  0  0  0  0  0  0  0  0  0  0  0
  146.9637  136.9911  155.2508 C   0  0  0  0  0  0  0  0  0  0  0  0
  148.2135  137.8539  155.0248 C   0  0  0  0  0  0  0  0  0  0  0  0
  147.8011  139.2615  154.5210 C   0  0  2  0  0  0  0  0  0  0  0  0
  148.8401  140.2968  154.4938 N   0  0  0  0  0  0  0  0  0  0  0  0
  149.9024  140.1465  155.3240 C   0  0  0  0  0  0  0  0  0  0  0  0
  150.9694  139.3864  154.9596 N   0  0  0  0  0  0  0  0  0  0  0  0
  152.0205  139.2713  155.7768 C   0  0  0  0  0  0  0  0  0  0  0  0
  152.2082  139.8218  156.9783 N   0  0  0  0  0  0  0  0  0  0  0  0
  151.1385  140.5841  157.3465 C   0  0  0  0  0  0  0  0  0  0  0  0
  149.9570  140.7993  156.5839 C   0  0  0  0  0  0  0  0  0  0  0  0
  149.0902  141.6388  157.2718 N   0  0  0  0  0  0  0  0  0  0  0  0
  149.7242  141.9054  158.3809 C   0  0  0  0  0  0  0  0  0  0  0  0
  150.9576  141.3067  158.5128 N   0  0  0  0  0  0  0  0  0  0  0  0
  151.8690  141.4262  159.6399 C   0  0  0  0  0  0  0  0  0  0  0  0
  152.3685  142.8706  159.8765 C   0  0  2  0  0  0  0  0  0  0  0  0
  153.1894  142.8946  161.0312 O   0  0  0  0  0  0  0  0  0  0  0  0
  151.2517  143.8961  160.0567 C   0  0  0  0  0  0  0  0  0  0  0  0
  151.8486  145.1594  159.4527 C   0  0  0  0  0  0  0  0  0  0  0  0
  152.5465  144.6599  158.3251 O   0  0  0  0  0  0  0  0  0  0  0  0
  153.1760  143.4361  158.6910 C   0  0  0  0  0  0  0  0  0  0  0  0
  147.2079  142.9995  153.1761 H   0  0  0  0  0  0  0  0  0  0  0  0
  147.0425  141.3264  152.6578 H   0  0  0  0  0  0  0  0  0  0  0  0
  148.5875  142.1552  152.4857 H   0  0  0  0  0  0  0  0  0  0  0  0
  148.7806  142.3573  154.9618 H   0  0  0  0  0  0  0  0  0  0  0  0
  147.2321  141.5184  156.4969 H   0  0  0  0  0  0  0  0  0  0  0  0
  146.0999  142.0061  155.2498 H   0  0  0  0  0  0  0  0  0  0  0  0
  145.7231  139.7968  154.5904 H   0  0  0  0  0  0  0  0  0  0  0  0
  147.0653  139.2256  157.2620 H   0  0  0  0  0  0  0  0  0  0  0  0
  145.3662  139.5433  157.0335 H   0  0  0  0  0  0  0  0  0  0  0  0
  146.1252  137.0695  157.2527 H   0  0  0  0  0  0  0  0  0  0  0  0
  144.9828  137.4320  155.9904 H   0  0  0  0  0  0  0  0  0  0  0  0
  147.2473  135.9801  155.5446 H   0  0  0  0  0  0  0  0  0  0  0  0
  146.4325  136.8921  154.3032 H   0  0  0  0  0  0  0  0  0  0  0  0
  148.7581  137.9064  155.9683 H   0  0  0  0  0  0  0  0  0  0  0  0
  148.8799  137.3775  154.3054 H   0  0  0  0  0  0  0  0  0  0  0  0
  147.5056  139.1316  153.4789 H   0  0  0  0  0  0  0  0  0  0  0  0
  152.8271  138.6511  155.4151 H   0  0  0  0  0  0  0  0  0  0  0  0
  149.3039  142.5483  159.1404 H   0  0  0  0  0  0  0  0  0  0  0  0
  151.3682  141.0478  160.5320 H   0  0  0  0  0  0  0  0  0  0  0  0
  152.7155  140.7620  159.4606 H   0  0  0  0  0  0  0  0  0  0  0  0
  152.9383  143.6341  161.5633 H   0  0  0  0  0  0  0  0  0  0  0  0
  150.3777  143.6100  159.4702 H   0  0  0  0  0  0  0  0  0  0  0  0
  150.9302  144.0229  161.0914 H   0  0  0  0  0  0  0  0  0  0  0  0
  151.0918  145.8904  159.1678 H   0  0  0  0  0  0  0  0  0  0  0  0
  152.5491  145.6336  160.1418 H   0  0  0  0  0  0  0  0  0  0  0  0
  154.2170  143.6265  158.9566 H   0  0  0  0  0  0  0  0  0  0  0  0
  153.1783  142.7654  157.8313 H   0  0  0  0  0  0  0  0  0  0  0  0
  1  2  1  0  0  0  0
  1 27  1  0  0  0  0
  1 28  1  0  0  0  0
  1 29  1  0  0  0  0
  2 10  1  0  0  0  0
  2  3  1  0  0  0  0
  2 30  1  0  0  0  0
  3  4  1  0  0  0  0
  3 31  1  0  0  0  0
  3 32  1  0  0  0  0
  4  9  1  0  0  0  0
  4  5  1  0  0  0  0
  4 33  1  0  0  0  0
  5  6  1  0  0  0  0
  5 34  1  0  0  0  0
  5 35  1  0  0  0  0
  6  7  1  0  0  0  0
  6 36  1  0  0  0  0
  6 37  1  0  0  0  0
  7  8  1  0  0  0  0
  7 38  1  0  0  0  0
  7 39  1  0  0  0  0
  8  9  1  0  0  0  0
  8 40  1  0  0  0  0
  8 41  1  0  0  0  0
  9 10  1  0  0  0  0
  9 42  1  0  0  0  0
 10 11  1  0  0  0  0
 11 16  1  0  0  0  0
 11 12  2  0  0  0  0
 12 13  1  0  0  0  0
 13 14  2  0  0  0  0
 13 43  1  0  0  0  0
 14 15  1  0  0  0  0
 15 19  1  0  0  0  0
 15 16  2  0  0  0  0
 16 17  1  0  0  0  0
 17 18  2  0  0  0  0
 18 19  1  0  0  0  0
 18 44  1  0  0  0  0
 19 20  1  0  0  0  0
 20 21  1  0  0  0  0
 20 45  1  0  0  0  0
 20 46  1  0  0  0  0
 21 26  1  0  0  0  0
 21 22  1  0  0  0  0
 21 23  1  0  0  0  0
 22 47  1  0  0  0  0
 23 24  1  0  0  0  0
 23 48  1  0  0  0  0
 23 49  1  0  0  0  0
 24 25  1  0  0  0  0
 24 50  1  0  0  0  0
 24 51  1  0  0  0  0
 25 26  1  0  0  0  0
 26 52  1  0  0  0  0
 26 53  1  0  0  0  0
M  END
> <s_m_source_file>
AV-unprocessed.smi

> <i_m_source_file_index>
189

> <i_lp_mmshare_version>
43012

> <i_f3d_flags>
0

> <s_epik_input>
W0NIMl0xW0NIMl1bQ0gyXVtDSDJdW0NASF0oW0NASF0xMilOKFtDQEhdKFtDSDNdKVtDSDJdMiljKG5bY0hdbjMpYyhjMzQpbltjSF1uNFtDSDJdW0NAQF01KFtPSF0pW0NIMl1bQ0gyXU9bQ0gyXTU=

> <s_epik_cmdline>
J2VwaWtfcHl0aG9uJywgJy1waCcsICc3LjAnLCAnLXRuJywgJzgnLCAnLW1hJywgJzIwMCcsICctbWV0YWxfYmluZGluZycsICctaW1hZScsICc8aW5maWxlLm1hZT4nLCAnLW9tYWUnLCAnPG91dGZpbGUubWFlPic=

> <r_lp_tautomer_probability>
1

> <r_epik_Ionization_Penalty>
0.00594261

> <r_epik_Ionization_Penalty_Charging>
0

> <r_epik_Ionization_Penalty_Neutral>
0.00594261

> <r_epik_State_Penalty>
0.00429776

> <r_epik_Charging_Adjusted_Penalty>
0.00429776

> <i_epik_Tot_Q>
0

> <i_epik_Tot_abs_Q>
0

> <r_epik_Metal_State_Penalty>
-0

> <b_epik_Metal_Only>
0

> <s_lp_Force_Field>
OPLS_2005

> <r_lp_Energy>
66.7565

> <b_lp_Chiralities_Consistent>
1

> <s_lp_Variant>
AV-unprocessed.smi:189-16

> <Gold.Version>
5.8.1

> <Gold.Id.Protein>
6NUR|6NUR_protein|mol2

> <Gold.PLP.Fitness>
39.8675

> <Gold.PLP.PLP>
-35.9834

> <Gold.PLP.part.hbond>
-2.0000

> <Gold.PLP.part.metal>
0.0000

> <Gold.PLP.part.buried>
-6.5974

> <Gold.PLP.part.nonpolar>
-27.6367

> <Gold.PLP.part.repulsive>
0.3537

> <Gold.PLP.ligand.clash>
0.0000

> <Gold.PLP.ligand.torsion>
0.7218

> <Gold.PLP.Chemscore.Hbond>
1.7500

> <Gold.PLP.Chemscore.CHOScore>
0.0000

> <Gold.PLP.Chemscore.Metal>
0.0000

> <Gold.Chemscore.Hbonds>
donor molecule, donor type, donor heavy atom, donor atom, acceptor molecule, acceptor atom, score
      P1  H  7989  7998       L1    12  0.40
      P1  H  7997  8008       L1    14  0.31

> <Gold.PLP.Chemscore.Internal.Correction>
0.0777

> <Gold.Rescore>
     Score         DG    S(hbond)    S(metal)    S(lipo)     H(rot)  DE(clash)    DE(int)     intcor
      6.15     -10.96       0.14        0.00      87.19       2.03       1.38       3.42       ----

> <Gold.Chemscore.Fitness>
6.1522

> <Gold.Chemscore.DG>
-10.9572

> <Gold.Chemscore.ZeroCoef>
-5.4800

> <Gold.Chemscore.Hbond>
0.1413

> <Gold.Chemscore.Metal>
0.0000

> <Gold.Chemscore.Lipo>
87.1912

> <Gold.Chemscore.Internal_Hbond>
0.0000

> <Gold.Chemscore.DEClash>
1.3825

> <Gold.Chemscore.DEInternal>
3.4225

> <Gold.Chemscore.Rot>
2.0297

> <Gold.Chemscore.Internal.Correction>
   9.000000E+99

> <Gold.Chemscore.Hbonds>
donor molecule, donor type, donor heavy atom, donor atom, acceptor molecule, acceptor atom, score
      P1  H  7989  7998       L1    12  0.01
      P1  H  7997  8008       L1    14  0.02

> <Gold.Chemscore.Hbond.Weighted>
-0.4718

> <Gold.Chemscore.Metal.Weighted>
-0.0000

> <Gold.Chemscore.Lipo.Weighted>
-10.2014

> <Gold.Chemscore.Internal_Hbond.Weighted>
0.0000

> <Gold.Chemscore.DEClash.Weighted>
1.3825

> <Gold.Chemscore.DEInternal.Weighted>
3.4225

> <Gold.Chemscore.Rot.Weighted>
5.1960

> <Gold.Chemscore.Internal.Correction.Weighted>
   9.000000E+99

> <Gold.Protein.RotatedTorsions>
[ 6907 6896 6895 6894 ] final  161.87 input  -60.11 | X-H torsion
[ 7974 7965 7964 7962 ] final   28.26 input  175.53 | X-H torsion
[ 8008 7997 7996 7995 ] final  -55.10 input   59.86 | X-H torsion
[ 10167 10162 10161 10158 ] final -105.65 input  -65.29 | X-H torsion
[ 10718 10713 10712 10709 ] final  -19.35 input   66.30 | X-H torsion
[ 10763 10752 10751 10750 ] final -143.40 input  -60.55 | X-H torsion
[ 11005 11000 10999 10996 ] final   28.34 input  -57.11 | X-H torsion

> <Gold.Protein.ActiveResidues>
 VAL166  LYS551  ARG553  GLY616  TRP617  ASP618  TYR619  PRO620  LYS621  CYS622 
 ASP623  PHE694  ASN695  SER759  ASP760  ASP761  ALA762  ILE779  LEU786  VAL792 
 PHE793  MET794  SER795  GLU796  ALA797  LYS798  CYS799  TRP800  GLU811  SER814 

> <Gold.Protein.RotatedAtoms>
  151.9491  133.3660  159.3993 H   0  0  0  0  0  0  0  0  0  0  0  0  # atno 6907 bound_to 6896
  150.6984  134.4359  159.5279 H   0  0  0  0  0  0  0  0  0  0  0  0  # atno 6908 bound_to 6896
  152.2029  134.8571  160.0556 H   0  0  0  0  0  0  0  0  0  0  0  0  # atno 6909 bound_to 6896
  146.1739  139.7080  142.8948 H   0  0  0  0  0  0  0  0  0  0  0  0  # atno 7974 bound_to 7965
  154.4184  140.1161  156.5422 H   0  0  0  0  0  0  0  0  0  0  0  0  # atno 8008 bound_to 7997
  155.6496  140.3496  155.4724 H   0  0  0  0  0  0  0  0  0  0  0  0  # atno 8009 bound_to 7997
  155.9803  140.1159  157.0722 H   0  0  0  0  0  0  0  0  0  0  0  0  # atno 8010 bound_to 7997
  140.1962  143.3853  152.1166 H   0  0  0  0  0  0  0  0  0  0  0  0  # atno 10167 bound_to 10162
  156.5468  130.4692  149.6471 H   0  0  0  0  0  0  0  0  0  0  0  0  # atno 10718 bound_to 10713
  154.8471  135.3469  154.6181 H   0  0  0  0  0  0  0  0  0  0  0  0  # atno 10763 bound_to 10752
  153.6789  135.6981  153.5128 H   0  0  0  0  0  0  0  0  0  0  0  0  # atno 10764 bound_to 10752
  153.2684  135.4301  155.0919 H   0  0  0  0  0  0  0  0  0  0  0  0  # atno 10765 bound_to 10752
  140.3166  134.2590  155.7724 H   0  0  0  0  0  0  0  0  0  0  0  0  # atno 11005 bound_to 11000
  145.4266  141.0411  143.2934 LP  0  0  0  0  0  0  0  0  0  0  0  0  # atno 17320 bound_to 7965
  144.8205  139.5800  143.6989 LP  0  0  0  0  0  0  0  0  0  0  0  0  # atno 17321 bound_to 7965
  139.5235  144.7073  151.5316 LP  0  0  0  0  0  0  0  0  0  0  0  0  # atno 17342 bound_to 10162
  140.6422  143.8867  150.6702 LP  0  0  0  0  0  0  0  0  0  0  0  0  # atno 17343 bound_to 10162
  156.2921  130.7130  151.1981 LP  0  0  0  0  0  0  0  0  0  0  0  0  # atno 17370 bound_to 10713
  157.7395  131.0528  150.5227 LP  0  0  0  0  0  0  0  0  0  0  0  0  # atno 17371 bound_to 10713
  141.2096  133.7743  156.9985 LP  0  0  0  0  0  0  0  0  0  0  0  0  # atno 17394 bound_to 11000
  140.0978  134.9553  157.1877 LP  0  0  0  0  0  0  0  0  0  0  0  0  # atno 17395 bound_to 11000

$$$$
