AV-unprocessed.smi:318|AV-procd|sdf|2330|dock4
  -GOLD-   2262022233D 1   1.00000     0.00000
 Structure written by MMmdl.
 38 39  0  0  0  0  0  0  0  0  1 V2000
  150.6254  140.6921  157.5377 O   0  0  0  0  0  0  0  0  0  0  0  0
  150.5442  141.8303  157.0732 C   0  0  0  0  0  0  0  0  0  0  0  0
  151.5002  142.9427  157.5291 C   0  0  0  0  0  0  0  0  0  0  0  0
  152.0937  142.7051  158.8565 N   0  0  0  0  0  0  0  0  0  0  0  0
  151.8501  143.6764  159.8440 C   0  0  0  0  0  0  0  0  0  0  0  0
  152.3418  143.5598  161.0847 C   0  0  0  0  0  0  0  0  0  0  0  0
  153.1396  142.3989  161.3959 C   0  0  0  0  0  0  0  0  0  0  0  0
  153.3959  141.4503  160.4655 C   0  0  0  0  0  0  0  0  0  0  0  0
  154.2365  140.2145  160.7792 C   0  0  0  0  0  0  0  0  0  0  0  0
  153.5374  139.1013  160.5538 F   0  0  0  0  0  0  0  0  0  0  0  0
  155.3275  140.1837  160.0129 F   0  0  0  0  0  0  0  0  0  0  0  0
  154.6322  140.1951  162.0529 F   0  0  0  0  0  0  0  0  0  0  0  0
  152.8514  141.5906  159.0993 C   0  0  0  0  0  0  0  0  0  0  0  0
  153.0613  140.7565  158.2170 O   0  0  0  0  0  0  0  0  0  0  0  0
  149.6454  142.1811  156.1411 N   0  0  0  0  0  0  0  0  0  0  0  0
  148.6419  141.2961  155.5570 C   0  0  0  0  0  0  0  0  0  0  0  0
  149.3089  140.2205  154.6734 C   0  0  0  0  0  0  0  0  0  0  0  0
  148.2630  139.3308  153.9822 C   0  0  0  0  0  0  0  0  0  0  0  0
  147.2660  140.1705  153.1688 C   0  0  0  0  0  0  0  0  0  0  0  0
  146.5935  141.2363  154.0478 C   0  0  0  0  0  0  0  0  0  0  0  0
  147.6370  142.1291  154.7385 C   0  0  0  0  0  0  0  0  0  0  0  0
  152.2824  143.0471  156.7758 H   0  0  0  0  0  0  0  0  0  0  0  0
  150.9690  143.8964  157.5191 H   0  0  0  0  0  0  0  0  0  0  0  0
  151.2499  144.5171  159.5276 H   0  0  0  0  0  0  0  0  0  0  0  0
  152.1492  144.3163  161.8312 H   0  0  0  0  0  0  0  0  0  0  0  0
  153.5331  142.3012  162.3964 H   0  0  0  0  0  0  0  0  0  0  0  0
  149.6536  143.1360  155.8129 H   0  0  0  0  0  0  0  0  0  0  0  0
  148.0950  140.8020  156.3625 H   0  0  0  0  0  0  0  0  0  0  0  0
  149.9322  140.6988  153.9162 H   0  0  0  0  0  0  0  0  0  0  0  0
  149.9748  139.5984  155.2725 H   0  0  0  0  0  0  0  0  0  0  0  0
  148.7595  138.6103  153.3317 H   0  0  0  0  0  0  0  0  0  0  0  0
  147.7254  138.7500  154.7325 H   0  0  0  0  0  0  0  0  0  0  0  0
  147.7852  140.6537  152.3402 H   0  0  0  0  0  0  0  0  0  0  0  0
  146.5095  139.5230  152.7245 H   0  0  0  0  0  0  0  0  0  0  0  0
  145.9235  141.8481  153.4431 H   0  0  0  0  0  0  0  0  0  0  0  0
  145.9729  140.7499  154.8016 H   0  0  0  0  0  0  0  0  0  0  0  0
  147.1329  142.8480  155.3858 H   0  0  0  0  0  0  0  0  0  0  0  0
  148.1675  142.7114  153.9837 H   0  0  0  0  0  0  0  0  0  0  0  0
  1  2  2  0  0  0  0
  2  3  1  0  0  0  0
  2 15  1  0  0  0  0
  3  4  1  0  0  0  0
  3 22  1  0  0  0  0
  3 23  1  0  0  0  0
  4 13  1  0  0  0  0
  4  5  1  0  0  0  0
  5  6  2  0  0  0  0
  5 24  1  0  0  0  0
  6  7  1  0  0  0  0
  6 25  1  0  0  0  0
  7  8  2  0  0  0  0
  7 26  1  0  0  0  0
  8  9  1  0  0  0  0
  8 13  1  0  0  0  0
  9 10  1  0  0  0  0
  9 11  1  0  0  0  0
  9 12  1  0  0  0  0
 13 14  2  0  0  0  0
 15 16  1  0  0  0  0
 15 27  1  0  0  0  0
 16 21  1  0  0  0  0
 16 17  1  0  0  0  0
 16 28  1  0  0  0  0
 17 18  1  0  0  0  0
 17 29  1  0  0  0  0
 17 30  1  0  0  0  0
 18 19  1  0  0  0  0
 18 31  1  0  0  0  0
 18 32  1  0  0  0  0
 19 20  1  0  0  0  0
 19 33  1  0  0  0  0
 19 34  1  0  0  0  0
 20 21  1  0  0  0  0
 20 35  1  0  0  0  0
 20 36  1  0  0  0  0
 21 37  1  0  0  0  0
 21 38  1  0  0  0  0
M  END
> <s_m_source_file>
AV-unprocessed.smi

> <i_m_source_file_index>
318

> <i_lp_mmshare_version>
43012

> <i_f3d_flags>
0

> <s_epik_input>
W0NIMl0xW0NIMl1bQ0gyXVtDSDJdW0NIMl1bQ0hdMVtOSF1DKD1PKVtDSDJdbjJbY0hdW2NIXVtjSF1jKEMoRikoRilGKWMyPU8=

> <s_epik_cmdline>
J2VwaWtfcHl0aG9uJywgJy1waCcsICc3LjAnLCAnLXRuJywgJzgnLCAnLW1hJywgJzIwMCcsICctbWV0YWxfYmluZGluZycsICctaW1hZScsICc8aW5maWxlLm1hZT4nLCAnLW9tYWUnLCAnPG91dGZpbGUubWFlPic=

> <r_lp_tautomer_probability>
1

> <r_epik_Ionization_Penalty>
2.11101e-08

> <r_epik_Ionization_Penalty_Charging>
2.0632e-09

> <r_epik_Ionization_Penalty_Neutral>
1.90469e-08

> <r_epik_State_Penalty>
-0

> <r_epik_Charging_Adjusted_Penalty>
2.0632e-09

> <i_epik_Tot_Q>
0

> <i_epik_Tot_abs_Q>
0

> <r_epik_Metal_State_Penalty>
-0

> <b_epik_Metal_Only>
0

> <s_lp_Force_Field>
OPLS_2005

> <r_lp_Energy>
18.6605

> <b_lp_Chiralities_Consistent>
1

> <s_lp_Variant>
AV-unprocessed.smi:318-1

> <Gold.Version>
5.8.1

> <Gold.Id.Protein>
6NUR|6NUR_protein|mol2

> <Gold.PLP.Fitness>
47.8717

> <Gold.PLP.PLP>
-43.7264

> <Gold.PLP.part.hbond>
-2.0000

> <Gold.PLP.part.metal>
0.0000

> <Gold.PLP.part.buried>
0.6775

> <Gold.PLP.part.nonpolar>
-42.3524

> <Gold.PLP.part.repulsive>
0.1077

> <Gold.PLP.ligand.clash>
0.3043

> <Gold.PLP.ligand.torsion>
0.4185

> <Gold.PLP.Chemscore.Hbond>
1.6560

> <Gold.PLP.Chemscore.CHOScore>
0.0000

> <Gold.PLP.Chemscore.Metal>
0.0000

> <Gold.Chemscore.Hbonds>
donor molecule, donor type, donor heavy atom, donor atom, acceptor molecule, acceptor atom, score
      L1  H    15    27       P1  8028  1.00
      P1  H  7997  8010       L1    14  0.62

> <Gold.PLP.Chemscore.Internal.Correction>
0.3187

> <Gold.Rescore>
     Score         DG    S(hbond)    S(metal)    S(lipo)     H(rot)  DE(clash)    DE(int)     intcor
     11.59     -18.74       1.82        0.00      95.07       1.54       0.20       6.95       ----

> <Gold.Chemscore.Fitness>
11.5867

> <Gold.Chemscore.DG>
-18.7362

> <Gold.Chemscore.ZeroCoef>
-5.4800

> <Gold.Chemscore.Hbond>
1.8176

> <Gold.Chemscore.Metal>
0.0000

> <Gold.Chemscore.Lipo>
95.0719

> <Gold.Chemscore.Internal_Hbond>
0.0000

> <Gold.Chemscore.DEClash>
0.1996

> <Gold.Chemscore.DEInternal>
6.9499

> <Gold.Chemscore.Rot>
1.5383

> <Gold.Chemscore.Internal.Correction>
   9.000000E+99

> <Gold.Chemscore.Hbonds>
donor molecule, donor type, donor heavy atom, donor atom, acceptor molecule, acceptor atom, score
      L1  H    15    27       P1  8028  0.95
      P1  H  7997  8010       L1    14  0.59

> <Gold.Chemscore.Hbond.Weighted>
-6.0707

> <Gold.Chemscore.Metal.Weighted>
-0.0000

> <Gold.Chemscore.Lipo.Weighted>
-11.1234

> <Gold.Chemscore.Internal_Hbond.Weighted>
0.0000

> <Gold.Chemscore.DEClash.Weighted>
0.1996

> <Gold.Chemscore.DEInternal.Weighted>
6.9499

> <Gold.Chemscore.Rot.Weighted>
3.9380

> <Gold.Chemscore.Internal.Correction.Weighted>
   9.000000E+99

> <Gold.Protein.RotatedTorsions>
[ 6907 6896 6895 6894 ] final  -55.74 input  -60.11 | X-H torsion
[ 7974 7965 7964 7962 ] final -174.70 input  175.53 | X-H torsion
[ 8008 7997 7996 7995 ] final   41.88 input   59.86 | X-H torsion
[ 10167 10162 10161 10158 ] final -104.22 input  -65.29 | X-H torsion
[ 10718 10713 10712 10709 ] final   15.10 input   66.30 | X-H torsion
[ 10763 10752 10751 10750 ] final  -55.16 input  -60.55 | X-H torsion
[ 11005 11000 10999 10996 ] final   94.00 input  -57.11 | X-H torsion

> <Gold.Protein.ActiveResidues>
 VAL166  LYS551  ARG553  GLY616  TRP617  ASP618  TYR619  PRO620  LYS621  CYS622 
 ASP623  PHE694  ASN695  SER759  ASP760  ASP761  ALA762  ILE779  LEU786  VAL792 
 PHE793  MET794  SER795  GLU796  ALA797  LYS798  CYS799  TRP800  GLU811  SER814 

> <Gold.Protein.RotatedAtoms>
  150.8226  134.7441  159.6785 H   0  0  0  0  0  0  0  0  0  0  0  0  # atno 6907 bound_to 6896
  152.4340  134.5719  159.9933 H   0  0  0  0  0  0  0  0  0  0  0  0  # atno 6908 bound_to 6896
  151.5899  133.3330  159.3061 H   0  0  0  0  0  0  0  0  0  0  0  0  # atno 6909 bound_to 6896
  144.7131  140.1432  143.6390 H   0  0  0  0  0  0  0  0  0  0  0  0  # atno 7974 bound_to 7965
  155.2770  140.3370  155.4261 H   0  0  0  0  0  0  0  0  0  0  0  0  # atno 8008 bound_to 7997
  156.2107  140.1769  156.7742 H   0  0  0  0  0  0  0  0  0  0  0  0  # atno 8009 bound_to 7997
  154.5682  140.0675  156.8909 H   0  0  0  0  0  0  0  0  0  0  0  0  # atno 8010 bound_to 7997
  140.2116  143.3742  152.1045 H   0  0  0  0  0  0  0  0  0  0  0  0  # atno 10167 bound_to 10162
  157.0486  130.6261  149.5764 H   0  0  0  0  0  0  0  0  0  0  0  0  # atno 10718 bound_to 10713
  154.1864  135.6435  153.5048 H   0  0  0  0  0  0  0  0  0  0  0  0  # atno 10763 bound_to 10752
  153.0046  135.5418  154.6461 H   0  0  0  0  0  0  0  0  0  0  0  0  # atno 10764 bound_to 10752
  154.5838  135.2927  155.0678 H   0  0  0  0  0  0  0  0  0  0  0  0  # atno 10765 bound_to 10752
  139.8803  134.8821  156.3800 H   0  0  0  0  0  0  0  0  0  0  0  0  # atno 11005 bound_to 11000
  145.9183  139.2530  143.1396 LP  0  0  0  0  0  0  0  0  0  0  0  0  # atno 17320 bound_to 7965
  145.9646  140.8808  143.0193 LP  0  0  0  0  0  0  0  0  0  0  0  0  # atno 17321 bound_to 7965
  139.5178  144.6996  151.5531 LP  0  0  0  0  0  0  0  0  0  0  0  0  # atno 17342 bound_to 10162
  140.6319  143.9059  150.6613 LP  0  0  0  0  0  0  0  0  0  0  0  0  # atno 17343 bound_to 10162
  156.0015  130.5094  150.7678 LP  0  0  0  0  0  0  0  0  0  0  0  0  # atno 17370 bound_to 10713
  157.5048  131.0921  151.0271 LP  0  0  0  0  0  0  0  0  0  0  0  0  # atno 17371 bound_to 10713
  140.9405  133.7517  156.0141 LP  0  0  0  0  0  0  0  0  0  0  0  0  # atno 17394 bound_to 11000
  140.8224  134.3273  157.5377 LP  0  0  0  0  0  0  0  0  0  0  0  0  # atno 17395 bound_to 11000

$$$$
