AV-unprocessed.smi:1679|AV-procd|sdf|6731|dock5
  -GOLD-   22720 7473D 1   1.00000     0.00000
 Structure written by MMmdl.
 45 46  0  0  0  0  0  0  0  0  1 V2000
  153.7799  140.8344  159.9125 C   0  0  0  0  0  0  0  0  0  0  0  0
  153.4443  142.3147  160.1510 C   0  0  2  0  0  0  0  0  0  0  0  0
  152.5319  142.5047  161.3815 C   0  0  0  0  0  0  0  0  0  0  0  0
  152.2287  143.9893  161.6388 C   0  0  0  0  0  0  0  0  0  0  0  0
  151.6431  144.6644  160.3901 C   0  0  0  0  0  0  0  0  0  0  0  0
  152.5575  144.4759  159.1701 C   0  0  0  0  0  0  0  0  0  0  0  0
  152.8309  142.9807  158.8985 C   0  0  2  0  0  0  0  0  0  0  0  0
  151.6254  142.2910  158.5903 O   0  0  0  0  0  0  0  0  0  0  0  0
  150.9876  142.6642  157.3787 C   0  0  0  0  0  0  0  0  0  0  0  0
  150.8991  141.4305  156.4660 C   0  0  0  0  0  0  0  0  0  0  0  0
  149.5143  141.0360  156.2220 N   0  0  0  0  0  0  0  0  0  0  0  0
  148.8565  141.1987  155.0628 C   0  0  0  0  0  0  0  0  0  0  0  0
  149.3536  141.7492  154.0804 O   0  0  0  0  0  0  0  0  0  0  0  0
  147.4108  140.6841  155.0120 C   0  0  0  0  0  0  0  0  0  0  0  0
  146.4351  141.7799  154.9134 N   0  0  0  0  0  0  0  0  0  0  0  0
  146.4817  142.6497  153.8329 C   0  0  0  0  0  0  0  0  0  0  0  0
  145.6446  143.7035  153.6842 C   0  0  0  0  0  0  0  0  0  0  0  0
  144.6216  143.9805  154.6861 C   0  0  0  0  0  0  0  0  0  0  0  0
  143.8243  144.9146  154.6459 O   0  0  0  0  0  0  0  0  0  0  0  0
  144.5983  143.0786  155.7527 N   0  0  0  0  0  0  0  0  0  0  0  0
  145.4551  141.9879  155.9098 C   0  0  0  0  0  0  0  0  0  0  0  0
  145.3434  141.2531  156.8900 O   0  0  0  0  0  0  0  0  0  0  0  0
  143.9052  143.2284  156.4714 H   0  0  0  0  0  0  0  0  0  0  0  0
  152.8833  140.2492  159.7059 H   0  0  0  0  0  0  0  0  0  0  0  0
  154.2655  140.3981  160.7854 H   0  0  0  0  0  0  0  0  0  0  0  0
  154.4566  140.7171  159.0659 H   0  0  0  0  0  0  0  0  0  0  0  0
  154.3872  142.8213  160.3624 H   0  0  0  0  0  0  0  0  0  0  0  0
  151.5959  141.9632  161.2385 H   0  0  0  0  0  0  0  0  0  0  0  0
  153.0021  142.0723  162.2651 H   0  0  0  0  0  0  0  0  0  0  0  0
  151.5347  144.0867  162.4739 H   0  0  0  0  0  0  0  0  0  0  0  0
  153.1441  144.5028  161.9352 H   0  0  0  0  0  0  0  0  0  0  0  0
  150.6656  144.2362  160.1720 H   0  0  0  0  0  0  0  0  0  0  0  0
  151.4828  145.7257  160.5801 H   0  0  0  0  0  0  0  0  0  0  0  0
  152.1205  144.9623  158.2991 H   0  0  0  0  0  0  0  0  0  0  0  0
  153.5045  144.9867  159.3495 H   0  0  0  0  0  0  0  0  0  0  0  0
  153.5302  142.8806  158.0665 H   0  0  0  0  0  0  0  0  0  0  0  0
  149.9904  143.0668  157.5544 H   0  0  0  0  0  0  0  0  0  0  0  0
  151.5732  143.4439  156.8902 H   0  0  0  0  0  0  0  0  0  0  0  0
  151.3489  141.6623  155.5005 H   0  0  0  0  0  0  0  0  0  0  0  0
  151.4726  140.6007  156.8822 H   0  0  0  0  0  0  0  0  0  0  0  0
  149.0277  140.5872  156.9842 H   0  0  0  0  0  0  0  0  0  0  0  0
  147.2851  139.9966  154.1733 H   0  0  0  0  0  0  0  0  0  0  0  0
  147.2250  140.0803  155.9019 H   0  0  0  0  0  0  0  0  0  0  0  0
  147.2319  142.4913  153.0712 H   0  0  0  0  0  0  0  0  0  0  0  0
  145.7380  144.3497  152.8234 H   0  0  0  0  0  0  0  0  0  0  0  0
  1  2  1  0  0  0  0
  1 24  1  0  0  0  0
  1 25  1  0  0  0  0
  1 26  1  0  0  0  0
  2  7  1  0  0  0  0
  2  3  1  0  0  0  0
  2 27  1  0  0  0  0
  3  4  1  0  0  0  0
  3 28  1  0  0  0  0
  3 29  1  0  0  0  0
  4  5  1  0  0  0  0
  4 30  1  0  0  0  0
  4 31  1  0  0  0  0
  5  6  1  0  0  0  0
  5 32  1  0  0  0  0
  5 33  1  0  0  0  0
  6  7  1  0  0  0  0
  6 34  1  0  0  0  0
  6 35  1  0  0  0  0
  7  8  1  0  0  0  0
  7 36  1  0  0  0  0
  8  9  1  0  0  0  0
  9 10  1  0  0  0  0
  9 37  1  0  0  0  0
  9 38  1  0  0  0  0
 10 11  1  0  0  0  0
 10 39  1  0  0  0  0
 10 40  1  0  0  0  0
 11 12  1  0  0  0  0
 11 41  1  0  0  0  0
 12 13  2  0  0  0  0
 12 14  1  0  0  0  0
 14 15  1  0  0  0  0
 14 42  1  0  0  0  0
 14 43  1  0  0  0  0
 15 21  1  0  0  0  0
 15 16  1  0  0  0  0
 16 17  2  0  0  0  0
 16 44  1  0  0  0  0
 17 18  1  0  0  0  0
 17 45  1  0  0  0  0
 18 19  2  0  0  0  0
 18 20  1  0  0  0  0
 20 23  1  0  0  0  0
 20 21  1  0  0  0  0
 21 22  2  0  0  0  0
M  END
> <s_m_source_file>
AV-unprocessed.smi

> <i_m_source_file_index>
1679

> <i_lp_mmshare_version>
43012

> <i_f3d_flags>
0

> <s_epik_input>
W0NIM11bQ0BASF0xW0NIMl1bQ0gyXVtDSDJdW0NIMl1bQ0BIXTFPW0NIMl1bQ0gyXVtOSF1DKD1PKVtDSDJdbjJbY0hdW2NIXWMoPU8pW25IXWMyPU8=

> <s_epik_cmdline>
J2VwaWtfcHl0aG9uJywgJy1waCcsICc3LjAnLCAnLXRuJywgJzgnLCAnLW1hJywgJzIwMCcsICctbWV0YWxfYmluZGluZycsICctaW1hZScsICc8aW5maWxlLm1hZT4nLCAnLW9tYWUnLCAnPG91dGZpbGUubWFlPic=

> <r_lp_tautomer_probability>
0.999537

> <r_epik_Ionization_Penalty>
0.0033132

> <r_epik_Ionization_Penalty_Charging>
0.00331317

> <r_epik_Ionization_Penalty_Neutral>
2.78599e-08

> <r_epik_State_Penalty>
0.002342

> <r_epik_Charging_Adjusted_Penalty>
0.00565517

> <i_epik_Tot_Q>
0

> <i_epik_Tot_abs_Q>
0

> <r_epik_Metal_State_Penalty>
0.365595

> <b_epik_Metal_Only>
0

> <s_lp_Force_Field>
OPLS_2005

> <r_lp_Energy>
9.94053

> <b_lp_Chiralities_Consistent>
1

> <s_lp_Variant>
AV-unprocessed.smi:1679-3

> <Gold.Version>
5.8.1

> <Gold.Id.Protein>
6NUR|6NUR_protein|mol2

> <Gold.PLP.Fitness>
51.2446

> <Gold.PLP.PLP>
-51.2726

> <Gold.PLP.part.hbond>
-2.0000

> <Gold.PLP.part.metal>
0.0000

> <Gold.PLP.part.buried>
-6.8108

> <Gold.PLP.part.nonpolar>
-42.6425

> <Gold.PLP.part.repulsive>
0.3718

> <Gold.PLP.ligand.clash>
0.0000

> <Gold.PLP.ligand.torsion>
0.8966

> <Gold.PLP.Chemscore.Hbond>
0.5600

> <Gold.PLP.Chemscore.CHOScore>
0.0000

> <Gold.PLP.Chemscore.Metal>
0.0000

> <Gold.Chemscore.Hbonds>
donor molecule, donor type, donor heavy atom, donor atom, acceptor molecule, acceptor atom, score
      P1  H  8011  8017       L1    13  0.53

> <Gold.PLP.Chemscore.Internal.Correction>
0.0851

> <Gold.Rescore>
     Score         DG    S(hbond)    S(metal)    S(lipo)     H(rot)  DE(clash)    DE(int)     intcor
     13.36     -15.58       0.81        0.00     118.27       2.52       0.11       2.11       ----

> <Gold.Chemscore.Fitness>
13.3588

> <Gold.Chemscore.DG>
-15.5763

> <Gold.Chemscore.ZeroCoef>
-5.4800

> <Gold.Chemscore.Hbond>
0.8101

> <Gold.Chemscore.Metal>
0.0000

> <Gold.Chemscore.Lipo>
118.2721

> <Gold.Chemscore.Internal_Hbond>
0.0000

> <Gold.Chemscore.DEClash>
0.1068

> <Gold.Chemscore.DEInternal>
2.1107

> <Gold.Chemscore.Rot>
2.5185

> <Gold.Chemscore.Internal.Correction>
   9.000000E+99

> <Gold.Chemscore.Hbonds>
donor molecule, donor type, donor heavy atom, donor atom, acceptor molecule, acceptor atom, score
      P1  H  8011  8017       L1    13  0.54

> <Gold.Chemscore.Hbond.Weighted>
-2.7057

> <Gold.Chemscore.Metal.Weighted>
-0.0000

> <Gold.Chemscore.Lipo.Weighted>
-13.8378

> <Gold.Chemscore.Internal_Hbond.Weighted>
0.0000

> <Gold.Chemscore.DEClash.Weighted>
0.1068

> <Gold.Chemscore.DEInternal.Weighted>
2.1107

> <Gold.Chemscore.Rot.Weighted>
6.4472

> <Gold.Chemscore.Internal.Correction.Weighted>
   9.000000E+99

> <Gold.Protein.RotatedTorsions>
[ 6907 6896 6895 6894 ] final   83.13 input  -60.11 | X-H torsion
[ 7974 7965 7964 7962 ] final  128.87 input  175.53 | X-H torsion
[ 8008 7997 7996 7995 ] final  -40.36 input   59.86 | X-H torsion
[ 10167 10162 10161 10158 ] final -128.82 input  -65.29 | X-H torsion
[ 10718 10713 10712 10709 ] final   22.69 input   66.30 | X-H torsion
[ 10763 10752 10751 10750 ] final  157.94 input  -60.55 | X-H torsion
[ 11005 11000 10999 10996 ] final   31.55 input  -57.11 | X-H torsion

> <Gold.Protein.ActiveResidues>
 VAL166  LYS551  ARG553  GLY616  TRP617  ASP618  TYR619  PRO620  LYS621  CYS622 
 ASP623  PHE694  ASN695  SER759  ASP760  ASP761  ALA762  ILE779  LEU786  VAL792 
 PHE793  MET794  SER795  GLU796  ALA797  LYS798  CYS799  TRP800  GLU811  SER814 

> <Gold.Protein.RotatedAtoms>
  152.5318  134.2943  159.9054 H   0  0  0  0  0  0  0  0  0  0  0  0  # atno 6907 bound_to 6896
  151.2895  133.4165  159.2640 H   0  0  0  0  0  0  0  0  0  0  0  0  # atno 6908 bound_to 6896
  151.0213  134.9487  159.8118 H   0  0  0  0  0  0  0  0  0  0  0  0  # atno 6909 bound_to 6896
  145.0348  139.4014  143.5131 H   0  0  0  0  0  0  0  0  0  0  0  0  # atno 7974 bound_to 7965
  154.4013  140.1527  156.3015 H   0  0  0  0  0  0  0  0  0  0  0  0  # atno 8008 bound_to 7997
  155.8696  140.3449  155.5790 H   0  0  0  0  0  0  0  0  0  0  0  0  # atno 8009 bound_to 7997
  155.7789  140.0840  157.2060 H   0  0  0  0  0  0  0  0  0  0  0  0  # atno 8010 bound_to 7997
  139.9463  143.6106  152.2489 H   0  0  0  0  0  0  0  0  0  0  0  0  # atno 10167 bound_to 10162
  157.1558  130.6695  149.6027 H   0  0  0  0  0  0  0  0  0  0  0  0  # atno 10718 bound_to 10713
  154.2082  135.2787  155.2967 H   0  0  0  0  0  0  0  0  0  0  0  0  # atno 10763 bound_to 10752
  154.5800  135.5592  153.7179 H   0  0  0  0  0  0  0  0  0  0  0  0  # atno 10764 bound_to 10752
  153.0071  135.6342  154.2221 H   0  0  0  0  0  0  0  0  0  0  0  0  # atno 10765 bound_to 10752
  140.2827  134.2955  155.7796 H   0  0  0  0  0  0  0  0  0  0  0  0  # atno 11005 bound_to 11000
  146.3503  139.9917  142.8685 LP  0  0  0  0  0  0  0  0  0  0  0  0  # atno 17320 bound_to 7965
  145.1724  140.9727  143.4314 LP  0  0  0  0  0  0  0  0  0  0  0  0  # atno 17321 bound_to 7965
  139.6664  144.7662  151.1865 LP  0  0  0  0  0  0  0  0  0  0  0  0  # atno 17342 bound_to 10162
  140.7596  143.5931  150.8776 LP  0  0  0  0  0  0  0  0  0  0  0  0  # atno 17343 bound_to 10162
  155.9762  130.4728  150.6514 LP  0  0  0  0  0  0  0  0  0  0  0  0  # atno 17370 bound_to 10713
  157.4178  131.0832  151.1160 LP  0  0  0  0  0  0  0  0  0  0  0  0  # atno 17371 bound_to 10713
  141.2160  133.7535  156.9505 LP  0  0  0  0  0  0  0  0  0  0  0  0  # atno 17394 bound_to 11000
  140.1268  134.9381  157.2282 LP  0  0  0  0  0  0  0  0  0  0  0  0  # atno 17395 bound_to 11000

$$$$
