AV-unprocessed.smi:2322|AV-procd|sdf|9285|dock8
  -GOLD-   2272012513D 1   1.00000     0.00000
 Structure written by MMmdl.
 38 40  0  0  0  0  0  0  0  0  1 V2000
  148.3672  132.6635  153.1070 C   0  0  0  0  0  0  0  0  0  0  0  0
  149.2638  132.7550  154.2432 N   0  0  0  0  0  0  0  0  0  0  0  0
  149.7077  131.6399  154.8693 N   0  0  0  0  0  0  0  0  0  0  0  0
  150.4861  132.1339  155.8312 C   0  0  0  0  0  0  0  0  0  0  0  0
  150.5855  133.4951  155.8799 N   0  0  0  0  0  0  0  0  0  0  0  0
  149.7960  133.8162  154.8580 C   0  0  0  0  0  0  0  0  0  0  0  0
  149.4869  135.1286  154.3914 N   0  0  0  0  0  0  0  0  0  0  0  0
  149.5084  136.3234  155.0183 C   0  0  0  0  0  0  0  0  0  0  0  0
  149.8381  136.4131  156.1997 O   0  0  0  0  0  0  0  0  0  0  0  0
  149.1539  137.3877  154.2796 N   0  0  0  0  0  0  0  0  0  0  0  0
  149.1122  138.7693  154.7473 C   0  0  2  0  0  0  0  0  0  0  0  0
  148.1355  139.5786  153.8840 C   0  0  0  0  0  0  0  0  0  0  0  0
  148.1657  141.0634  154.2765 C   0  0  0  0  0  0  0  0  0  0  0  0
  149.4915  141.5779  154.1725 O   0  0  0  0  0  0  0  0  0  0  0  0
  150.4650  140.9220  154.9866 C   0  0  1  0  0  0  0  0  0  0  0  0
  150.2643  141.2252  156.4652 C   0  0  0  0  0  0  0  0  0  0  0  0
  150.9974  142.3717  157.1201 C   0  0  0  0  0  0  0  0  0  0  0  0
  151.3605  140.9471  157.4670 C   0  0  0  0  0  0  0  0  0  0  0  0
  150.5080  139.4134  154.6725 C   0  0  0  0  0  0  0  0  0  0  0  0
  148.8761  133.0174  152.2102 H   0  0  0  0  0  0  0  0  0  0  0  0
  147.4855  133.2798  153.2840 H   0  0  0  0  0  0  0  0  0  0  0  0
  148.0495  131.6317  152.9506 H   0  0  0  0  0  0  0  0  0  0  0  0
  151.0032  131.4878  156.5254 H   0  0  0  0  0  0  0  0  0  0  0  0
  149.1884  135.1680  153.4278 H   0  0  0  0  0  0  0  0  0  0  0  0
  148.8963  137.2247  153.3162 H   0  0  0  0  0  0  0  0  0  0  0  0
  148.7562  138.7861  155.7788 H   0  0  0  0  0  0  0  0  0  0  0  0
  148.4019  139.4812  152.8303 H   0  0  0  0  0  0  0  0  0  0  0  0
  147.1235  139.1856  153.9881 H   0  0  0  0  0  0  0  0  0  0  0  0
  147.5205  141.6353  153.6096 H   0  0  0  0  0  0  0  0  0  0  0  0
  147.7740  141.2080  155.2835 H   0  0  0  0  0  0  0  0  0  0  0  0
  151.4288  141.3456  154.7014 H   0  0  0  0  0  0  0  0  0  0  0  0
  149.2524  141.0540  156.8257 H   0  0  0  0  0  0  0  0  0  0  0  0
  151.7015  142.9358  156.5115 H   0  0  0  0  0  0  0  0  0  0  0  0
  150.4579  142.9504  157.8668 H   0  0  0  0  0  0  0  0  0  0  0  0
  151.0625  140.5747  158.4449 H   0  0  0  0  0  0  0  0  0  0  0  0
  152.3075  140.5645  157.0913 H   0  0  0  0  0  0  0  0  0  0  0  0
  151.2012  138.9094  155.3472 H   0  0  0  0  0  0  0  0  0  0  0  0
  150.9097  139.2797  153.6669 H   0  0  0  0  0  0  0  0  0  0  0  0
  1  2  1  0  0  0  0
  1 20  1  0  0  0  0
  1 21  1  0  0  0  0
  1 22  1  0  0  0  0
  2  6  1  0  0  0  0
  2  3  1  0  0  0  0
  3  4  2  0  0  0  0
  4  5  1  0  0  0  0
  4 23  1  0  0  0  0
  5  6  2  0  0  0  0
  6  7  1  0  0  0  0
  7  8  1  0  0  0  0
  7 24  1  0  0  0  0
  8  9  2  0  0  0  0
  8 10  1  0  0  0  0
 10 11  1  0  0  0  0
 10 25  1  0  0  0  0
 11 19  1  0  0  0  0
 11 12  1  0  0  0  0
 11 26  1  0  0  0  0
 12 13  1  0  0  0  0
 12 27  1  0  0  0  0
 12 28  1  0  0  0  0
 13 14  1  0  0  0  0
 13 29  1  0  0  0  0
 13 30  1  0  0  0  0
 14 15  1  0  0  0  0
 15 16  1  0  0  0  0
 15 19  1  0  0  0  0
 15 31  1  0  0  0  0
 16 18  1  0  0  0  0
 16 17  1  0  0  0  0
 16 32  1  0  0  0  0
 17 18  1  0  0  0  0
 17 33  1  0  0  0  0
 17 34  1  0  0  0  0
 18 35  1  0  0  0  0
 18 36  1  0  0  0  0
 19 37  1  0  0  0  0
 19 38  1  0  0  0  0
M  END
> <s_m_source_file>
AV-unprocessed.smi

> <i_m_source_file_index>
2322

> <i_lp_mmshare_version>
43012

> <i_f3d_flags>
0

> <s_epik_input>
W0NIM11uMW5bY0hdbmMxW05IXUMoPU8pW05IXVtDQEBIXTJbQ0gyXVtDSDJdT1tDQEhdKFtDSDJdMilbQ0hdM1tDSDJdW0NIMl0z

> <s_epik_cmdline>
J2VwaWtfcHl0aG9uJywgJy1waCcsICc3LjAnLCAnLXRuJywgJzgnLCAnLW1hJywgJzIwMCcsICctbWV0YWxfYmluZGluZycsICctaW1hZScsICc8aW5maWxlLm1hZT4nLCAnLW9tYWUnLCAnPG91dGZpbGUubWFlPic=

> <r_lp_tautomer_probability>
1

> <r_epik_Ionization_Penalty>
2.16399e-05

> <r_epik_Ionization_Penalty_Charging>
0

> <r_epik_Ionization_Penalty_Neutral>
2.16399e-05

> <r_epik_State_Penalty>
-0

> <r_epik_Charging_Adjusted_Penalty>
0

> <i_epik_Tot_Q>
0

> <i_epik_Tot_abs_Q>
0

> <r_epik_Metal_State_Penalty>
-0

> <b_epik_Metal_Only>
0

> <s_lp_Force_Field>
OPLS_2005

> <r_lp_Energy>
22.5256

> <b_lp_Chiralities_Consistent>
1

> <s_lp_Variant>
AV-unprocessed.smi:2322-1

> <Gold.Version>
5.8.1

> <Gold.Id.Protein>
6NUR|6NUR_protein|mol2

> <Gold.PLP.Fitness>
37.4388

> <Gold.PLP.PLP>
-30.7919

> <Gold.PLP.part.hbond>
-4.0000

> <Gold.PLP.part.metal>
0.0000

> <Gold.PLP.part.buried>
1.7696

> <Gold.PLP.part.nonpolar>
-26.7320

> <Gold.PLP.part.repulsive>
0.2744

> <Gold.PLP.ligand.clash>
0.0000

> <Gold.PLP.ligand.torsion>
1.0355

> <Gold.PLP.Chemscore.Hbond>
2.5468

> <Gold.PLP.Chemscore.CHOScore>
0.0000

> <Gold.PLP.Chemscore.Metal>
0.0000

> <Gold.Chemscore.Hbonds>
donor molecule, donor type, donor heavy atom, donor atom, acceptor molecule, acceptor atom, score
      L1  H     7    24       P1  7948  0.91
      L1  H    10    25       P1  7948  1.00
      P1  H  8011  8017       L1    14  0.58

> <Gold.PLP.Chemscore.Internal.Correction>
1.0775

> <Gold.Rescore>
     Score         DG    S(hbond)    S(metal)    S(lipo)     H(rot)  DE(clash)    DE(int)     intcor
     13.07     -16.27       2.19        0.00      58.42       1.31       1.22       1.98       ----

> <Gold.Chemscore.Fitness>
13.0734

> <Gold.Chemscore.DG>
-16.2717

> <Gold.Chemscore.ZeroCoef>
-5.4800

> <Gold.Chemscore.Hbond>
2.1865

> <Gold.Chemscore.Metal>
0.0000

> <Gold.Chemscore.Lipo>
58.4211

> <Gold.Chemscore.Internal_Hbond>
0.0000

> <Gold.Chemscore.DEClash>
1.2181

> <Gold.Chemscore.DEInternal>
1.9802

> <Gold.Chemscore.Rot>
1.3072

> <Gold.Chemscore.Internal.Correction>
   9.000000E+99

> <Gold.Chemscore.Hbonds>
donor molecule, donor type, donor heavy atom, donor atom, acceptor molecule, acceptor atom, score
      L1  H     7    24       P1  7948  0.20
      L1  H    10    25       P1  7948  0.94
      P1  H  8011  8017       L1    14  0.43

> <Gold.Chemscore.Hbond.Weighted>
-7.3028

> <Gold.Chemscore.Metal.Weighted>
-0.0000

> <Gold.Chemscore.Lipo.Weighted>
-6.8353

> <Gold.Chemscore.Internal_Hbond.Weighted>
0.0000

> <Gold.Chemscore.DEClash.Weighted>
1.2181

> <Gold.Chemscore.DEInternal.Weighted>
1.9802

> <Gold.Chemscore.Rot.Weighted>
3.3464

> <Gold.Chemscore.Internal.Correction.Weighted>
   9.000000E+99

> <Gold.Protein.RotatedTorsions>
[ 6907 6896 6895 6894 ] final   31.29 input  -60.11 | X-H torsion
[ 7974 7965 7964 7962 ] final  141.67 input  175.53 | X-H torsion
[ 8008 7997 7996 7995 ] final  118.68 input   59.86 | X-H torsion
[ 10167 10162 10161 10158 ] final  127.14 input  -65.29 | X-H torsion
[ 10718 10713 10712 10709 ] final   95.85 input   66.30 | X-H torsion
[ 10763 10752 10751 10750 ] final  125.24 input  -60.55 | X-H torsion
[ 11005 11000 10999 10996 ] final  -59.69 input  -57.11 | X-H torsion

> <Gold.Protein.ActiveResidues>
 VAL166  LYS551  ARG553  GLY616  TRP617  ASP618  TYR619  PRO620  LYS621  CYS622 
 ASP623  PHE694  ASN695  SER759  ASP760  ASP761  ALA762  ILE779  LEU786  VAL792 
 PHE793  MET794  SER795  GLU796  ALA797  LYS798  CYS799  TRP800  GLU811  SER814 

> <Gold.Protein.RotatedAtoms>
  152.0581  134.9611  160.0574 H   0  0  0  0  0  0  0  0  0  0  0  0  # atno 6907 bound_to 6896
  152.0985  133.4233  159.4584 H   0  0  0  0  0  0  0  0  0  0  0  0  # atno 6908 bound_to 6896
  150.6838  134.2707  159.4630 H   0  0  0  0  0  0  0  0  0  0  0  0  # atno 6909 bound_to 6896
  144.9075  139.5337  143.5724 H   0  0  0  0  0  0  0  0  0  0  0  0  # atno 7974 bound_to 7965
  156.2558  140.2869  156.0872 H   0  0  0  0  0  0  0  0  0  0  0  0  # atno 8008 bound_to 7997
  155.1502  140.0397  157.2836 H   0  0  0  0  0  0  0  0  0  0  0  0  # atno 8009 bound_to 7997
  154.6466  140.2535  155.7267 H   0  0  0  0  0  0  0  0  0  0  0  0  # atno 8010 bound_to 7997
  139.5594  144.6871  151.4087 H   0  0  0  0  0  0  0  0  0  0  0  0  # atno 10167 bound_to 10162
  157.6934  131.0559  150.4402 H   0  0  0  0  0  0  0  0  0  0  0  0  # atno 10718 bound_to 10713
  153.6742  135.3325  155.3161 H   0  0  0  0  0  0  0  0  0  0  0  0  # atno 10763 bound_to 10752
  154.8483  135.4393  154.1674 H   0  0  0  0  0  0  0  0  0  0  0  0  # atno 10764 bound_to 10752
  153.2673  135.6997  153.7593 H   0  0  0  0  0  0  0  0  0  0  0  0  # atno 10765 bound_to 10752
  141.1258  133.6617  156.5109 H   0  0  0  0  0  0  0  0  0  0  0  0  # atno 11005 bound_to 11000
  146.3141  139.7855  142.8997 LP  0  0  0  0  0  0  0  0  0  0  0  0  # atno 17320 bound_to 7965
  145.3510  141.0307  143.3338 LP  0  0  0  0  0  0  0  0  0  0  0  0  # atno 17321 bound_to 7965
  140.6872  143.7947  150.7202 LP  0  0  0  0  0  0  0  0  0  0  0  0  # atno 17342 bound_to 10162
  140.1418  143.4434  152.2189 LP  0  0  0  0  0  0  0  0  0  0  0  0  # atno 17343 bound_to 10162
  156.4761  130.4063  149.6489 LP  0  0  0  0  0  0  0  0  0  0  0  0  # atno 17370 bound_to 10713
  156.3552  130.7452  151.2417 LP  0  0  0  0  0  0  0  0  0  0  0  0  # atno 17371 bound_to 10713
  140.4369  134.7051  157.4971 LP  0  0  0  0  0  0  0  0  0  0  0  0  # atno 17394 bound_to 11000
  140.0255  134.6483  155.9179 LP  0  0  0  0  0  0  0  0  0  0  0  0  # atno 17395 bound_to 11000

$$$$
