AV-unprocessed.smi:3287|AV-procd|sdf|12604|dock10
  -GOLD-   2272018533D 1   1.00000     0.00000
 Structure written by MMmdl.
 43 44  0  0  0  0  0  0  0  0  2 V2000
  149.2928  141.1929  156.2404 C   0  0  0  0  0  0  0  0  0  0  0  0
  149.3061  141.2346  154.6990 C   0  0  2  0  0  0  0  0  0  0  0  0
  148.0393  141.9140  154.1395 C   0  0  0  0  0  0  0  0  0  0  0  0
  146.7896  141.0248  154.2625 C   0  0  0  0  0  0  0  0  0  0  0  0
  147.0052  139.6555  153.5856 C   0  0  2  0  0  0  0  0  0  0  0  0
  145.8301  138.7697  153.7420 N   0  3  0  0  0  0  0  0  0  0  0  0
  145.9984  137.3943  153.2245 C   0  0  0  0  0  0  0  0  0  0  0  0
  145.4546  137.2602  151.7917 C   0  0  1  0  0  0  0  0  0  0  0  0
  146.4777  137.6079  150.8789 O   0  0  0  0  0  0  0  0  0  0  0  0
  144.9248  135.8571  151.5406 C   0  0  0  0  0  0  0  0  0  0  0  0
  145.2723  135.1416  150.3739 C   0  0  0  0  0  0  0  0  0  0  0  0
  144.7615  133.8392  150.2048 C   0  0  0  0  0  0  0  0  0  0  0  0
  143.9559  133.2366  151.1052 N   0  0  0  0  0  0  0  0  0  0  0  0
  143.6275  133.9244  152.2196 C   0  0  0  0  0  0  0  0  0  0  0  0
  144.0842  135.2312  152.4848 C   0  0  0  0  0  0  0  0  0  0  0  0
  148.2575  138.9645  154.1567 C   0  0  0  0  0  0  0  0  0  0  0  0
  149.5109  139.8530  154.0259 C   0  0  2  0  0  0  0  0  0  0  0  0
  150.7785  139.1244  154.5021 C   0  0  0  0  0  0  0  0  0  0  0  0
  148.5100  140.5424  156.6289 H   0  0  0  0  0  0  0  0  0  0  0  0
  149.1259  142.1883  156.6529 H   0  0  0  0  0  0  0  0  0  0  0  0
  150.2443  140.8421  156.6393 H   0  0  0  0  0  0  0  0  0  0  0  0
  150.1528  141.8628  154.4181 H   0  0  0  0  0  0  0  0  0  0  0  0
  147.8689  142.8671  154.6419 H   0  0  0  0  0  0  0  0  0  0  0  0
  148.1985  142.1550  153.0874 H   0  0  0  0  0  0  0  0  0  0  0  0
  146.5348  140.8856  155.3137 H   0  0  0  0  0  0  0  0  0  0  0  0
  145.9466  141.5474  153.8110 H   0  0  0  0  0  0  0  0  0  0  0  0
  147.1678  139.8119  152.5180 H   0  0  0  0  0  0  0  0  0  0  0  0
  145.6343  138.6961  154.7300 H   0  0  0  0  0  0  0  0  0  0  0  0
  147.0502  137.1087  153.2527 H   0  0  0  0  0  0  0  0  0  0  0  0
  145.4615  136.7070  153.8799 H   0  0  0  0  0  0  0  0  0  0  0  0
  144.6369  137.9684  151.6491 H   0  0  0  0  0  0  0  0  0  0  0  0
  147.2596  137.1282  151.1087 H   0  0  0  0  0  0  0  0  0  0  0  0
  145.9177  135.5750  149.6238 H   0  0  0  0  0  0  0  0  0  0  0  0
  145.0096  133.2656  149.3240 H   0  0  0  0  0  0  0  0  0  0  0  0
  142.9835  133.4179  152.9232 H   0  0  0  0  0  0  0  0  0  0  0  0
  143.7935  135.7353  153.3950 H   0  0  0  0  0  0  0  0  0  0  0  0
  148.0951  138.7012  155.2028 H   0  0  0  0  0  0  0  0  0  0  0  0
  148.4237  138.0238  153.6302 H   0  0  0  0  0  0  0  0  0  0  0  0
  149.6538  140.0425  152.9606 H   0  0  0  0  0  0  0  0  0  0  0  0
  150.6995  138.8119  155.5435 H   0  0  0  0  0  0  0  0  0  0  0  0
  151.6581  139.7617  154.4076 H   0  0  0  0  0  0  0  0  0  0  0  0
  150.9581  138.2284  153.9074 H   0  0  0  0  0  0  0  0  0  0  0  0
  145.0323  139.1943  153.2905 H   0  0  0  0  0  0  0  0  0  0  0  0
  1  2  1  0  0  0  0
  1 19  1  0  0  0  0
  1 20  1  0  0  0  0
  1 21  1  0  0  0  0
  2 17  1  0  0  0  0
  2  3  1  0  0  0  0
  2 22  1  0  0  0  0
  3  4  1  0  0  0  0
  3 23  1  0  0  0  0
  3 24  1  0  0  0  0
  4  5  1  0  0  0  0
  4 25  1  0  0  0  0
  4 26  1  0  0  0  0
  5  6  1  0  0  0  0
  5 16  1  0  0  0  0
  5 27  1  0  0  0  0
  6  7  1  0  0  0  0
  6 28  1  0  0  0  0
  6 43  1  0  0  0  0
  7  8  1  0  0  0  0
  7 29  1  0  0  0  0
  7 30  1  0  0  0  0
  8  9  1  0  0  0  0
  8 10  1  0  0  0  0
  8 31  1  0  0  0  0
  9 32  1  0  0  0  0
 10 15  1  0  0  0  0
 10 11  2  0  0  0  0
 11 12  1  0  0  0  0
 11 33  1  0  0  0  0
 12 13  2  0  0  0  0
 12 34  1  0  0  0  0
 13 14  1  0  0  0  0
 14 15  2  0  0  0  0
 14 35  1  0  0  0  0
 15 36  1  0  0  0  0
 16 17  1  0  0  0  0
 16 37  1  0  0  0  0
 16 38  1  0  0  0  0
 17 18  1  0  0  0  0
 17 39  1  0  0  0  0
 18 40  1  0  0  0  0
 18 41  1  0  0  0  0
 18 42  1  0  0  0  0
M  CHG  1   6   1
M  END
> <s_m_source_file>
AV-unprocessed.smi

> <i_m_source_file_index>
3287

> <i_lp_mmshare_version>
43012

> <i_f3d_flags>
0

> <s_epik_input>
W0NIM11bQ0BASF0xW0NIMl1bQ0gyXVtDQEhdKFtDSDJdW0NASF0xW0NIM10pW05IXVtDSDJdW0NASF0oW09IXSljMltjSF1bY0hdbltjSF1bY0hdMg==

> <s_epik_cmdline>
J2VwaWtfcHl0aG9uJywgJy1waCcsICc3LjAnLCAnLXRuJywgJzgnLCAnLW1hJywgJzIwMCcsICctbWV0YWxfYmluZGluZycsICctaW1hZScsICc8aW5maWxlLm1hZT4nLCAnLW9tYWUnLCAnPG91dGZpbGUubWFlPic=

> <r_lp_tautomer_probability>
1

> <r_epik_Ionization_Penalty>
0.00537262

> <r_epik_Ionization_Penalty_Charging>
0.00321624

> <r_epik_Ionization_Penalty_Neutral>
0.00215638

> <r_epik_State_Penalty>
-0

> <r_epik_Charging_Adjusted_Penalty>
0.00321624

> <i_epik_Tot_Q>
1

> <i_epik_Tot_abs_Q>
1

> <r_epik_Metal_State_Penalty>
-0

> <b_epik_Metal_Only>
0

> <s_lp_Force_Field>
OPLS_2005

> <r_lp_Energy>
17.5476

> <b_lp_Chiralities_Consistent>
1

> <s_lp_Variant>
AV-unprocessed.smi:3287-15

> <Gold.Version>
5.8.1

> <Gold.Id.Protein>
6NUR|6NUR_protein|mol2

> <Gold.PLP.Fitness>
44.4547

> <Gold.PLP.PLP>
-32.5950

> <Gold.PLP.part.hbond>
-4.0000

> <Gold.PLP.part.metal>
0.0000

> <Gold.PLP.part.buried>
3.6745

> <Gold.PLP.part.nonpolar>
-31.7731

> <Gold.PLP.part.repulsive>
0.1753

> <Gold.PLP.ligand.clash>
0.0000

> <Gold.PLP.ligand.torsion>
0.8906

> <Gold.PLP.Chemscore.Hbond>
3.0000

> <Gold.PLP.Chemscore.CHOScore>
1.5411

> <Gold.PLP.Chemscore.Metal>
0.0000

> <Gold.Chemscore.Hbonds>
donor molecule, donor type, donor heavy atom, donor atom, acceptor molecule, acceptor atom, score
      L1  H     6    43       P1 10175  2.00
      L1  H     9    32       P1  7948  1.00
      L1  C    12    34       P1  7921  0.57
      L1  C    14    35       P1 10957  1.00

> <Gold.PLP.Chemscore.Internal.Correction>
0.0176

> <Gold.Rescore>
     Score         DG    S(hbond)    S(metal)    S(lipo)     H(rot)  DE(clash)    DE(int)     intcor
     16.40     -17.53       1.97        0.00      88.51       1.90       0.52       0.61       ----

> <Gold.Chemscore.Fitness>
16.3978

> <Gold.Chemscore.DG>
-17.5308

> <Gold.Chemscore.ZeroCoef>
-5.4800

> <Gold.Chemscore.Hbond>
1.9664

> <Gold.Chemscore.Metal>
0.0000

> <Gold.Chemscore.Lipo>
88.5123

> <Gold.Chemscore.Internal_Hbond>
0.0000

> <Gold.Chemscore.DEClash>
0.5238

> <Gold.Chemscore.DEInternal>
0.6092

> <Gold.Chemscore.Rot>
1.9035

> <Gold.Chemscore.Internal.Correction>
   9.000000E+99

> <Gold.Chemscore.Hbonds>
donor molecule, donor type, donor heavy atom, donor atom, acceptor molecule, acceptor atom, score
      L1  H     6    43       P1 10175  0.93
      L1  H     9    32       P1  7948  0.95

> <Gold.Chemscore.Hbond.Weighted>
-6.5678

> <Gold.Chemscore.Metal.Weighted>
-0.0000

> <Gold.Chemscore.Lipo.Weighted>
-10.3559

> <Gold.Chemscore.Internal_Hbond.Weighted>
0.0000

> <Gold.Chemscore.DEClash.Weighted>
0.5238

> <Gold.Chemscore.DEInternal.Weighted>
0.6092

> <Gold.Chemscore.Rot.Weighted>
4.8729

> <Gold.Chemscore.Internal.Correction.Weighted>
   9.000000E+99

> <Gold.Protein.RotatedTorsions>
[ 6907 6896 6895 6894 ] final   56.65 input  -60.11 | X-H torsion
[ 7974 7965 7964 7962 ] final  -25.63 input  175.53 | X-H torsion
[ 8008 7997 7996 7995 ] final -161.10 input   59.86 | X-H torsion
[ 10167 10162 10161 10158 ] final  -51.03 input  -65.29 | X-H torsion
[ 10718 10713 10712 10709 ] final -123.33 input   66.30 | X-H torsion
[ 10763 10752 10751 10750 ] final  160.94 input  -60.55 | X-H torsion
[ 11005 11000 10999 10996 ] final   39.63 input  -57.11 | X-H torsion

> <Gold.Protein.ActiveResidues>
 VAL166  LYS551  ARG553  GLY616  TRP617  ASP618  TYR619  PRO620  LYS621  CYS622 
 ASP623  PHE694  ASN695  SER759  ASP760  ASP761  ALA762  ILE779  LEU786  VAL792 
 PHE793  MET794  SER795  GLU796  ALA797  LYS798  CYS799  TRP800  GLU811  SER814 

> <Gold.Protein.RotatedAtoms>
  152.3656  134.6809  160.0192 H   0  0  0  0  0  0  0  0  0  0  0  0  # atno 6907 bound_to 6896
  151.7118  133.3307  159.3301 H   0  0  0  0  0  0  0  0  0  0  0  0  # atno 6908 bound_to 6896
  150.7636  134.6460  159.6307 H   0  0  0  0  0  0  0  0  0  0  0  0  # atno 6909 bound_to 6896
  146.1478  140.4912  142.8624 H   0  0  0  0  0  0  0  0  0  0  0  0  # atno 7974 bound_to 7965
  155.7872  140.0873  157.2028 H   0  0  0  0  0  0  0  0  0  0  0  0  # atno 8008 bound_to 7997
  154.3987  140.1497  156.3179 H   0  0  0  0  0  0  0  0  0  0  0  0  # atno 8009 bound_to 7997
  155.8595  140.3431  155.5749 H   0  0  0  0  0  0  0  0  0  0  0  0  # atno 8010 bound_to 7997
  140.6608  143.2635  151.4445 H   0  0  0  0  0  0  0  0  0  0  0  0  # atno 10167 bound_to 10162
  156.1493  130.6523  150.9890 H   0  0  0  0  0  0  0  0  0  0  0  0  # atno 10718 bound_to 10713
  154.2552  135.2770  155.2800 H   0  0  0  0  0  0  0  0  0  0  0  0  # atno 10763 bound_to 10752
  154.5431  135.5697  153.6860 H   0  0  0  0  0  0  0  0  0  0  0  0  # atno 10764 bound_to 10752
  152.9973  135.6256  154.2700 H   0  0  0  0  0  0  0  0  0  0  0  0  # atno 10765 bound_to 10752
  140.2010  134.3871  155.8096 H   0  0  0  0  0  0  0  0  0  0  0  0  # atno 11005 bound_to 11000
  144.7868  140.5952  143.6568 LP  0  0  0  0  0  0  0  0  0  0  0  0  # atno 17320 bound_to 7965
  145.4895  139.1489  143.3717 LP  0  0  0  0  0  0  0  0  0  0  0  0  # atno 17321 bound_to 7965
  139.5842  144.1642  152.2007 LP  0  0  0  0  0  0  0  0  0  0  0  0  # atno 17342 bound_to 10162
  140.0976  144.5567  150.7011 LP  0  0  0  0  0  0  0  0  0  0  0  0  # atno 17343 bound_to 10162
  157.6643  131.0874  150.7764 LP  0  0  0  0  0  0  0  0  0  0  0  0  # atno 17370 bound_to 10713
  156.7833  130.4866  149.5397 LP  0  0  0  0  0  0  0  0  0  0  0  0  # atno 17371 bound_to 10713
  141.2227  133.7094  156.8257 LP  0  0  0  0  0  0  0  0  0  0  0  0  # atno 17394 bound_to 11000
  140.2055  134.8866  157.3216 LP  0  0  0  0  0  0  0  0  0  0  0  0  # atno 17395 bound_to 11000

$$$$
