AV-unprocessed.smi:378|AV-procd|sdf|2457|dock5
  -GOLD-   2262022393D 1   1.00000     0.00000
 Structure written by MMmdl.
 34 35  0  0  0  0  0  0  0  0  1 V2000
  145.2855  143.4823  156.9422 N   0  0  0  0  0  0  0  0  0  0  0  0
  145.4955  143.2858  155.8216 C   0  0  0  0  0  0  0  0  0  0  0  0
  145.7632  143.0372  154.3964 C   0  0  0  0  0  0  0  0  0  0  0  0
  146.8375  141.9638  154.1622 C   0  0  0  0  0  0  0  0  0  0  0  0
  148.1226  142.3460  154.7362 N   0  0  0  0  0  0  0  0  0  0  0  0
  149.0590  141.4862  155.1631 C   0  0  0  0  0  0  0  0  0  0  0  0
  148.9136  140.2632  155.1307 O   0  0  0  0  0  0  0  0  0  0  0  0
  150.3478  142.1157  155.7136 C   0  0  0  0  0  0  0  0  0  0  0  0
  151.0709  141.2378  156.6600 N   0  0  0  0  0  0  0  0  0  0  0  0
  151.5393  139.9788  156.2044 C   0  0  0  0  0  0  0  0  0  0  0  0
  151.3281  139.6018  155.0504 O   0  0  0  0  0  0  0  0  0  0  0  0
  152.2868  139.1939  157.1842 C   0  0  0  0  0  0  0  0  0  0  0  0
  152.8030  137.9366  156.7545 C   0  0  0  0  0  0  0  0  0  0  0  0
  153.2226  136.9079  156.4297 N   0  0  0  0  0  0  0  0  0  0  0  0
  152.4816  139.6509  158.4384 C   0  0  0  0  0  0  0  0  0  0  0  0
  151.9844  140.8605  158.8724 N   0  0  0  0  0  0  0  0  0  0  0  0
  152.3369  141.3972  160.1566 C   0  0  0  0  0  0  0  0  0  0  0  0
  152.9603  142.7739  160.2306 C   0  0  0  0  0  0  0  0  0  0  0  0
  153.7936  141.5558  160.5468 C   0  0  0  0  0  0  0  0  0  0  0  0
  151.3074  141.7129  157.9730 C   0  0  0  0  0  0  0  0  0  0  0  0
  150.9427  142.8413  158.3135 O   0  0  0  0  0  0  0  0  0  0  0  0
  144.8239  142.7276  153.9385 H   0  0  0  0  0  0  0  0  0  0  0  0
  146.0457  143.9828  153.9328 H   0  0  0  0  0  0  0  0  0  0  0  0
  146.5239  141.0212  154.6118 H   0  0  0  0  0  0  0  0  0  0  0  0
  146.9538  141.7746  153.0938 H   0  0  0  0  0  0  0  0  0  0  0  0
  148.3194  143.3346  154.8012 H   0  0  0  0  0  0  0  0  0  0  0  0
  150.9943  142.3887  154.8775 H   0  0  0  0  0  0  0  0  0  0  0  0
  150.0919  143.0720  156.1720 H   0  0  0  0  0  0  0  0  0  0  0  0
  153.0453  139.0450  159.1334 H   0  0  0  0  0  0  0  0  0  0  0  0
  151.6558  141.1433  160.9670 H   0  0  0  0  0  0  0  0  0  0  0  0
  153.1712  143.2926  159.2973 H   0  0  0  0  0  0  0  0  0  0  0  0
  152.6679  143.4125  161.0618 H   0  0  0  0  0  0  0  0  0  0  0  0
  154.0544  141.3794  161.5882 H   0  0  0  0  0  0  0  0  0  0  0  0
  154.5555  141.2745  159.8222 H   0  0  0  0  0  0  0  0  0  0  0  0
  1  2  3  0  0  0  0
  2  3  1  0  0  0  0
  3  4  1  0  0  0  0
  3 22  1  0  0  0  0
  3 23  1  0  0  0  0
  4  5  1  0  0  0  0
  4 24  1  0  0  0  0
  4 25  1  0  0  0  0
  5  6  1  0  0  0  0
  5 26  1  0  0  0  0
  6  7  2  0  0  0  0
  6  8  1  0  0  0  0
  8  9  1  0  0  0  0
  8 27  1  0  0  0  0
  8 28  1  0  0  0  0
  9 20  1  0  0  0  0
  9 10  1  0  0  0  0
 10 11  2  0  0  0  0
 10 12  1  0  0  0  0
 12 13  1  0  0  0  0
 12 15  2  0  0  0  0
 13 14  3  0  0  0  0
 15 16  1  0  0  0  0
 15 29  1  0  0  0  0
 16 17  1  0  0  0  0
 16 20  1  0  0  0  0
 17 19  1  0  0  0  0
 17 18  1  0  0  0  0
 17 30  1  0  0  0  0
 18 19  1  0  0  0  0
 18 31  1  0  0  0  0
 18 32  1  0  0  0  0
 19 33  1  0  0  0  0
 19 34  1  0  0  0  0
 20 21  2  0  0  0  0
M  END
> <s_m_source_file>
AV-unprocessed.smi

> <i_m_source_file_index>
378

> <i_lp_mmshare_version>
43012

> <i_f3d_flags>
0

> <s_epik_input>
TiNDW0NIMl1bQ0gyXVtOSF1DKD1PKVtDSDJdbjFjKD1PKWMoQyNOKVtjSF1uKGMxPU8pW0NIXTJbQ0gyXVtDSDJdMg==

> <s_epik_cmdline>
J2VwaWtfcHl0aG9uJywgJy1waCcsICc3LjAnLCAnLXRuJywgJzgnLCAnLW1hJywgJzIwMCcsICctbWV0YWxfYmluZGluZycsICctaW1hZScsICc8aW5maWxlLm1hZT4nLCAnLW9tYWUnLCAnPG91dGZpbGUubWFlPic=

> <r_lp_tautomer_probability>
1

> <r_epik_Ionization_Penalty>
1.80062e-07

> <r_epik_Ionization_Penalty_Charging>
6.75485e-11

> <r_epik_Ionization_Penalty_Neutral>
1.79994e-07

> <r_epik_State_Penalty>
-0

> <r_epik_Charging_Adjusted_Penalty>
6.75485e-11

> <i_epik_Tot_Q>
0

> <i_epik_Tot_abs_Q>
0

> <r_epik_Metal_State_Penalty>
-0

> <b_epik_Metal_Only>
0

> <s_lp_Force_Field>
OPLS_2005

> <r_lp_Energy>
28.3727

> <b_lp_Chiralities_Consistent>
1

> <s_lp_Variant>
AV-unprocessed.smi:378-1

> <Gold.Version>
5.8.1

> <Gold.Id.Protein>
6NUR|6NUR_protein|mol2

> <Gold.PLP.Fitness>
46.5337

> <Gold.PLP.PLP>
-39.3287

> <Gold.PLP.part.hbond>
-3.0000

> <Gold.PLP.part.metal>
0.0000

> <Gold.PLP.part.buried>
-5.7347

> <Gold.PLP.part.nonpolar>
-31.7376

> <Gold.PLP.part.repulsive>
0.5577

> <Gold.PLP.ligand.clash>
0.0000

> <Gold.PLP.ligand.torsion>
0.6531

> <Gold.PLP.Chemscore.Hbond>
2.7600

> <Gold.PLP.Chemscore.CHOScore>
0.0000

> <Gold.PLP.Chemscore.Metal>
0.0000

> <Gold.Chemscore.Hbonds>
donor molecule, donor type, donor heavy atom, donor atom, acceptor molecule, acceptor atom, score
      L1  H     5    26       P1  8028  1.00
      P1  H  7989  7998       L1    11  1.00
      P1  H 10752 10765       L1    14  0.77

> <Gold.PLP.Chemscore.Internal.Correction>
0.2312

> <Gold.Rescore>
     Score         DG    S(hbond)    S(metal)    S(lipo)     H(rot)  DE(clash)    DE(int)     intcor
      9.60     -14.81       2.68        0.00      57.80       2.50       0.72       4.49       ----

> <Gold.Chemscore.Fitness>
9.6029

> <Gold.Chemscore.DG>
-14.8086

> <Gold.Chemscore.ZeroCoef>
-5.4800

> <Gold.Chemscore.Hbond>
2.6838

> <Gold.Chemscore.Metal>
0.0000

> <Gold.Chemscore.Lipo>
57.8040

> <Gold.Chemscore.Internal_Hbond>
0.0000

> <Gold.Chemscore.DEClash>
0.7193

> <Gold.Chemscore.DEInternal>
4.4864

> <Gold.Chemscore.Rot>
2.4994

> <Gold.Chemscore.Internal.Correction>
   9.000000E+99

> <Gold.Chemscore.Hbonds>
donor molecule, donor type, donor heavy atom, donor atom, acceptor molecule, acceptor atom, score
      L1  H     5    26       P1  8028  0.96
      P1  H  7989  7998       L1    11  0.91
      P1  H 10752 10765       L1    14  0.78

> <Gold.Chemscore.Hbond.Weighted>
-8.9640

> <Gold.Chemscore.Metal.Weighted>
-0.0000

> <Gold.Chemscore.Lipo.Weighted>
-6.7631

> <Gold.Chemscore.Internal_Hbond.Weighted>
0.0000

> <Gold.Chemscore.DEClash.Weighted>
0.7193

> <Gold.Chemscore.DEInternal.Weighted>
4.4864

> <Gold.Chemscore.Rot.Weighted>
6.3984

> <Gold.Chemscore.Internal.Correction.Weighted>
   9.000000E+99

> <Gold.Protein.RotatedTorsions>
[ 6907 6896 6895 6894 ] final   40.76 input  -60.11 | X-H torsion
[ 7974 7965 7964 7962 ] final  -12.52 input  175.53 | X-H torsion
[ 8008 7997 7996 7995 ] final  -28.38 input   59.86 | X-H torsion
[ 10167 10162 10161 10158 ] final -141.50 input  -65.29 | X-H torsion
[ 10718 10713 10712 10709 ] final   98.03 input   66.30 | X-H torsion
[ 10763 10752 10751 10750 ] final -132.91 input  -60.55 | X-H torsion
[ 11005 11000 10999 10996 ] final  -50.04 input  -57.11 | X-H torsion

> <Gold.Protein.ActiveResidues>
 VAL166  LYS551  ARG553  GLY616  TRP617  ASP618  TYR619  PRO620  LYS621  CYS622 
 ASP623  PHE694  ASN695  SER759  ASP760  ASP761  ALA762  ILE779  LEU786  VAL792 
 PHE793  MET794  SER795  GLU796  ALA797  LYS798  CYS799  TRP800  GLU811  SER814 

> <Gold.Protein.RotatedAtoms>
  152.1866  134.8708  160.0521 H   0  0  0  0  0  0  0  0  0  0  0  0  # atno 6907 bound_to 6896
  151.9612  133.3691  159.4044 H   0  0  0  0  0  0  0  0  0  0  0  0  # atno 6908 bound_to 6896
  150.6927  134.4161  159.5228 H   0  0  0  0  0  0  0  0  0  0  0  0  # atno 6909 bound_to 6896
  146.2149  140.3069  142.8379 H   0  0  0  0  0  0  0  0  0  0  0  0  # atno 7974 bound_to 7965
  154.4335  140.1847  156.1080 H   0  0  0  0  0  0  0  0  0  0  0  0  # atno 8008 bound_to 7997
  156.0240  140.3338  155.7043 H   0  0  0  0  0  0  0  0  0  0  0  0  # atno 8009 bound_to 7997
  155.5935  140.0633  157.2743 H   0  0  0  0  0  0  0  0  0  0  0  0  # atno 8010 bound_to 7997
  139.8179  143.7614  152.2665 H   0  0  0  0  0  0  0  0  0  0  0  0  # atno 10167 bound_to 10162
  157.6902  131.0628  150.4735 H   0  0  0  0  0  0  0  0  0  0  0  0  # atno 10718 bound_to 10713
  154.8738  135.3783  154.4487 H   0  0  0  0  0  0  0  0  0  0  0  0  # atno 10763 bound_to 10752
  153.5165  135.7029  153.5759 H   0  0  0  0  0  0  0  0  0  0  0  0  # atno 10764 bound_to 10752
  153.4025  135.3945  155.1963 H   0  0  0  0  0  0  0  0  0  0  0  0  # atno 10765 bound_to 10752
  141.0793  133.6657  156.3672 H   0  0  0  0  0  0  0  0  0  0  0  0  # atno 11005 bound_to 11000
  144.9016  140.7650  143.5863 LP  0  0  0  0  0  0  0  0  0  0  0  0  # atno 17320 bound_to 7965
  145.2995  139.1855  143.4697 LP  0  0  0  0  0  0  0  0  0  0  0  0  # atno 17321 bound_to 7965
  139.7783  144.7453  151.0125 LP  0  0  0  0  0  0  0  0  0  0  0  0  # atno 17342 bound_to 10162
  140.7815  143.4570  151.0332 LP  0  0  0  0  0  0  0  0  0  0  0  0  # atno 17343 bound_to 10162
  156.5071  130.4130  149.6321 LP  0  0  0  0  0  0  0  0  0  0  0  0  # atno 17370 bound_to 10713
  156.3275  130.7313  151.2237 LP  0  0  0  0  0  0  0  0  0  0  0  0  # atno 17371 bound_to 10713
  140.5504  134.6033  157.5406 LP  0  0  0  0  0  0  0  0  0  0  0  0  # atno 17394 bound_to 11000
  139.9606  134.7459  156.0245 LP  0  0  0  0  0  0  0  0  0  0  0  0  # atno 17395 bound_to 11000

$$$$
