AV-unprocessed.smi:3158|AV-procd|sdf|12043|dock3
  -GOLD-   2272017463D 1   1.00000     0.00000
 Structure written by MMmdl.
 40 40  0  0  0  0  0  0  0  0  2 V2000
  151.9794  143.5264  161.5950 C   0  0  0  0  0  0  0  0  0  0  0  0
  152.3999  143.4674  160.1189 C   0  0  0  0  0  0  0  0  0  0  0  0
  151.7974  144.5838  159.2406 C   0  0  2  0  0  0  0  0  0  0  0  0
  150.3243  144.8384  159.5885 C   0  0  0  0  0  0  0  0  0  0  0  0
  151.8991  144.2509  157.8203 N   0  0  0  0  0  0  0  0  0  0  0  0
  151.5656  143.0754  157.2644 C   0  0  0  0  0  0  0  0  0  0  0  0
  151.1233  142.1214  157.9059 O   0  0  0  0  0  0  0  0  0  0  0  0
  151.7593  142.9542  155.7471 C   0  0  1  0  0  0  0  0  0  0  0  0
  152.7646  141.8359  155.4337 C   0  0  0  0  0  0  0  0  0  0  0  0
  150.4702  142.6745  155.0782 N   0  3  0  0  0  0  0  0  0  0  0  0
  150.5459  142.5519  153.6057 C   0  0  0  0  0  0  0  0  0  0  0  0
  149.5658  141.4883  153.0851 C   0  0  0  0  0  0  0  0  0  0  0  0
  148.1798  141.8925  153.2500 N   0  0  0  0  0  0  0  0  0  0  0  0
  147.5179  142.9491  152.6600 C   0  0  0  0  0  0  0  0  0  0  0  0
  146.2315  142.9293  153.1178 C   0  0  0  0  0  0  0  0  0  0  0  0
  146.2042  141.8165  154.0043 C   0  0  0  0  0  0  0  0  0  0  0  0
  147.3737  141.2037  154.0874 N   0  0  0  0  0  0  0  0  0  0  0  0
  152.3619  142.6633  162.1403 H   0  0  0  0  0  0  0  0  0  0  0  0
  150.8937  143.5290  161.6965 H   0  0  0  0  0  0  0  0  0  0  0  0
  152.3652  144.4189  162.0866 H   0  0  0  0  0  0  0  0  0  0  0  0
  153.4885  143.4917  160.0545 H   0  0  0  0  0  0  0  0  0  0  0  0
  152.0969  142.5001  159.7159 H   0  0  0  0  0  0  0  0  0  0  0  0
  152.3396  145.5090  159.4441 H   0  0  0  0  0  0  0  0  0  0  0  0
  150.2126  145.1296  160.6333 H   0  0  0  0  0  0  0  0  0  0  0  0
  149.7165  143.9478  159.4252 H   0  0  0  0  0  0  0  0  0  0  0  0
  149.9095  145.6419  158.9788 H   0  0  0  0  0  0  0  0  0  0  0  0
  152.2545  144.9760  157.2138 H   0  0  0  0  0  0  0  0  0  0  0  0
  152.1579  143.8908  155.3527 H   0  0  0  0  0  0  0  0  0  0  0  0
  153.7276  142.0237  155.9104 H   0  0  0  0  0  0  0  0  0  0  0  0
  152.9426  141.7599  154.3607 H   0  0  0  0  0  0  0  0  0  0  0  0
  152.4068  140.8647  155.7788 H   0  0  0  0  0  0  0  0  0  0  0  0
  150.0883  141.8150  155.4452 H   0  0  0  0  0  0  0  0  0  0  0  0
  150.3312  143.5096  153.1298 H   0  0  0  0  0  0  0  0  0  0  0  0
  151.5681  142.2928  153.3293 H   0  0  0  0  0  0  0  0  0  0  0  0
  149.7421  141.3037  152.0247 H   0  0  0  0  0  0  0  0  0  0  0  0
  149.7219  140.5398  153.6007 H   0  0  0  0  0  0  0  0  0  0  0  0
  148.0087  143.6175  151.9675 H   0  0  0  0  0  0  0  0  0  0  0  0
  145.4318  143.6084  152.8612 H   0  0  0  0  0  0  0  0  0  0  0  0
  145.3768  141.4399  154.5877 H   0  0  0  0  0  0  0  0  0  0  0  0
  149.8422  143.4322  155.3077 H   0  0  0  0  0  0  0  0  0  0  0  0
  1  2  1  0  0  0  0
  1 18  1  0  0  0  0
  1 19  1  0  0  0  0
  1 20  1  0  0  0  0
  2  3  1  0  0  0  0
  2 21  1  0  0  0  0
  2 22  1  0  0  0  0
  3  4  1  0  0  0  0
  3  5  1  0  0  0  0
  3 23  1  0  0  0  0
  4 24  1  0  0  0  0
  4 25  1  0  0  0  0
  4 26  1  0  0  0  0
  5  6  1  0  0  0  0
  5 27  1  0  0  0  0
  6  7  2  0  0  0  0
  6  8  1  0  0  0  0
  8  9  1  0  0  0  0
  8 10  1  0  0  0  0
  8 28  1  0  0  0  0
  9 29  1  0  0  0  0
  9 30  1  0  0  0  0
  9 31  1  0  0  0  0
 10 11  1  0  0  0  0
 10 32  1  0  0  0  0
 10 40  1  0  0  0  0
 11 12  1  0  0  0  0
 11 33  1  0  0  0  0
 11 34  1  0  0  0  0
 12 13  1  0  0  0  0
 12 35  1  0  0  0  0
 12 36  1  0  0  0  0
 13 17  1  0  0  0  0
 13 14  1  0  0  0  0
 14 15  2  0  0  0  0
 14 37  1  0  0  0  0
 15 16  1  0  0  0  0
 15 38  1  0  0  0  0
 16 17  2  0  0  0  0
 16 39  1  0  0  0  0
M  CHG  1  10   1
M  END
> <s_m_source_file>
AV-unprocessed.smi

> <i_m_source_file_index>
3158

> <i_lp_mmshare_version>
43012

> <i_f3d_flags>
0

> <s_epik_input>
W0NIM11bQ0gyXVtDQEhdKFtDSDNdKVtOSF1DKD1PKVtDQEhdKFtDSDNdKVtOSF1bQ0gyXVtDSDJdbjFbY0hdW2NIXVtjSF1uMQ==

> <s_epik_cmdline>
J2VwaWtfcHl0aG9uJywgJy1waCcsICc3LjAnLCAnLXRuJywgJzgnLCAnLW1hJywgJzIwMCcsICctbWV0YWxfYmluZGluZycsICctaW1hZScsICc8aW5maWxlLm1hZT4nLCAnLW9tYWUnLCAnPG91dGZpbGUubWFlPic=

> <r_lp_tautomer_probability>
1

> <r_epik_Ionization_Penalty>
0.20724

> <r_epik_Ionization_Penalty_Charging>
0.207237

> <r_epik_Ionization_Penalty_Neutral>
3.33806e-06

> <r_epik_State_Penalty>
0.197234

> <r_epik_Charging_Adjusted_Penalty>
0.404471

> <i_epik_Tot_Q>
1

> <i_epik_Tot_abs_Q>
1

> <r_epik_Metal_State_Penalty>
0.197524

> <b_epik_Metal_Only>
0

> <s_lp_Force_Field>
OPLS_2005

> <r_lp_Energy>
5.46656

> <b_lp_Chiralities_Consistent>
1

> <s_lp_Variant>
AV-unprocessed.smi:3158-3

> <Gold.Version>
5.8.1

> <Gold.Id.Protein>
6NUR|6NUR_protein|mol2

> <Gold.PLP.Fitness>
47.6703

> <Gold.PLP.PLP>
-42.7952

> <Gold.PLP.part.hbond>
-1.0000

> <Gold.PLP.part.metal>
0.0000

> <Gold.PLP.part.buried>
-5.2835

> <Gold.PLP.part.nonpolar>
-34.9647

> <Gold.PLP.part.repulsive>
0.2666

> <Gold.PLP.ligand.clash>
0.0000

> <Gold.PLP.ligand.torsion>
0.6087

> <Gold.PLP.Chemscore.Hbond>
2.0000

> <Gold.PLP.Chemscore.CHOScore>
0.0000

> <Gold.PLP.Chemscore.Metal>
0.0000

> <Gold.Chemscore.Hbonds>
donor molecule, donor type, donor heavy atom, donor atom, acceptor molecule, acceptor atom, score
      L1  H    10    40       P1  8028  2.00
      L1  C    16    39       P1 10175  0.08

> <Gold.PLP.Chemscore.Internal.Correction>
0.0925

> <Gold.Rescore>
     Score         DG    S(hbond)    S(metal)    S(lipo)     H(rot)  DE(clash)    DE(int)     intcor
     12.29     -14.33       1.00        0.00      95.56       2.21       0.16       1.88       ----

> <Gold.Chemscore.Fitness>
12.2924

> <Gold.Chemscore.DG>
-14.3343

> <Gold.Chemscore.ZeroCoef>
-5.4800

> <Gold.Chemscore.Hbond>
1.0000

> <Gold.Chemscore.Metal>
0.0000

> <Gold.Chemscore.Lipo>
95.5567

> <Gold.Chemscore.Internal_Hbond>
0.0000

> <Gold.Chemscore.DEClash>
0.1571

> <Gold.Chemscore.DEInternal>
1.8848

> <Gold.Chemscore.Rot>
2.2132

> <Gold.Chemscore.Internal.Correction>
   9.000000E+99

> <Gold.Chemscore.Hbonds>
donor molecule, donor type, donor heavy atom, donor atom, acceptor molecule, acceptor atom, score
      L1  H    10    40       P1  8028  1.00

> <Gold.Chemscore.Hbond.Weighted>
-3.3400

> <Gold.Chemscore.Metal.Weighted>
-0.0000

> <Gold.Chemscore.Lipo.Weighted>
-11.1801

> <Gold.Chemscore.Internal_Hbond.Weighted>
0.0000

> <Gold.Chemscore.DEClash.Weighted>
0.1571

> <Gold.Chemscore.DEInternal.Weighted>
1.8848

> <Gold.Chemscore.Rot.Weighted>
5.6658

> <Gold.Chemscore.Internal.Correction.Weighted>
   9.000000E+99

> <Gold.Protein.RotatedTorsions>
[ 6907 6896 6895 6894 ] final  140.13 input  -60.11 | X-H torsion
[ 7974 7965 7964 7962 ] final  118.49 input  175.53 | X-H torsion
[ 8008 7997 7996 7995 ] final   82.54 input   59.86 | X-H torsion
[ 10167 10162 10161 10158 ] final -141.48 input  -65.29 | X-H torsion
[ 10718 10713 10712 10709 ] final  128.15 input   66.30 | X-H torsion
[ 10763 10752 10751 10750 ] final  -26.52 input  -60.55 | X-H torsion
[ 11005 11000 10999 10996 ] final   22.97 input  -57.11 | X-H torsion

> <Gold.Protein.ActiveResidues>
 VAL166  LYS551  ARG553  GLY616  TRP617  ASP618  TYR619  PRO620  LYS621  CYS622 
 ASP623  PHE694  ASN695  SER759  ASP760  ASP761  ALA762  ILE779  LEU786  VAL792 
 PHE793  MET794  SER795  GLU796  ALA797  LYS798  CYS799  TRP800  GLU811  SER814 

> <Gold.Protein.RotatedAtoms>
  152.2467  133.5180  159.5301 H   0  0  0  0  0  0  0  0  0  0  0  0  # atno 6907 bound_to 6896
  150.7081  134.1016  159.3977 H   0  0  0  0  0  0  0  0  0  0  0  0  # atno 6908 bound_to 6896
  151.8936  135.0406  160.0551 H   0  0  0  0  0  0  0  0  0  0  0  0  # atno 6909 bound_to 6896
  145.1546  139.3190  143.4549 H   0  0  0  0  0  0  0  0  0  0  0  0  # atno 7974 bound_to 7965
  155.9120  140.3427  155.6106 H   0  0  0  0  0  0  0  0  0  0  0  0  # atno 8008 bound_to 7997
  155.7376  140.0803  157.2279 H   0  0  0  0  0  0  0  0  0  0  0  0  # atno 8009 bound_to 7997
  154.4057  140.1576  156.2567 H   0  0  0  0  0  0  0  0  0  0  0  0  # atno 8010 bound_to 7997
  139.8180  143.7612  152.2665 H   0  0  0  0  0  0  0  0  0  0  0  0  # atno 10167 bound_to 10162
  157.5270  131.1098  150.9067 H   0  0  0  0  0  0  0  0  0  0  0  0  # atno 10718 bound_to 10713
  153.7173  135.6947  153.5022 H   0  0  0  0  0  0  0  0  0  0  0  0  # atno 10763 bound_to 10752
  153.2229  135.4363  155.0509 H   0  0  0  0  0  0  0  0  0  0  0  0  # atno 10764 bound_to 10752
  154.8296  135.3465  154.6707 H   0  0  0  0  0  0  0  0  0  0  0  0  # atno 10765 bound_to 10752
  140.3747  134.1985  155.7665 H   0  0  0  0  0  0  0  0  0  0  0  0  # atno 11005 bound_to 11000
  146.3490  140.1633  142.8590 LP  0  0  0  0  0  0  0  0  0  0  0  0  # atno 17320 bound_to 7965
  145.0395  140.8934  143.5061 LP  0  0  0  0  0  0  0  0  0  0  0  0  # atno 17321 bound_to 7965
  139.7781  144.7454  151.0127 LP  0  0  0  0  0  0  0  0  0  0  0  0  # atno 17342 bound_to 10162
  140.7815  143.4571  151.0330 LP  0  0  0  0  0  0  0  0  0  0  0  0  # atno 17343 bound_to 10162
  156.9660  130.5473  149.5288 LP  0  0  0  0  0  0  0  0  0  0  0  0  # atno 17370 bound_to 10713
  156.0394  130.5478  150.8734 LP  0  0  0  0  0  0  0  0  0  0  0  0  # atno 17371 bound_to 10713
  141.1943  133.8131  157.0762 LP  0  0  0  0  0  0  0  0  0  0  0  0  # atno 17394 bound_to 11000
  140.0525  134.9798  157.1161 LP  0  0  0  0  0  0  0  0  0  0  0  0  # atno 17395 bound_to 11000

$$$$
