AV-unprocessed.smi:102|AV-procd|sdf|964|dock1
  -GOLD-   2262017503D 1   1.00000     0.00000
 Structure written by MMmdl.
 43 44  0  0  0  0  0  0  0  0  2 V2000
  150.9944  141.8514  157.3328 C   0  0  0  0  0  0  0  0  0  0  0  0
  151.8766  140.6222  157.1540 C   0  0  0  0  0  0  0  0  0  0  0  0
  152.7774  140.3593  157.9510 O   0  0  0  0  0  0  0  0  0  0  0  0
  151.5510  139.9057  156.0679 O   0  0  0  0  0  0  0  0  0  0  0  0
  151.8915  138.5309  156.0100 C   0  0  0  0  0  0  0  0  0  0  0  0
  151.0667  137.8457  154.9036 C   0  0  1  0  0  0  0  0  0  0  0  0
  151.3470  136.4502  154.9096 O   0  0  0  0  0  0  0  0  0  0  0  0
  150.5215  135.8156  155.8395 C   0  0  2  0  0  0  0  0  0  0  0  0
  150.1738  134.4344  155.3319 N   0  0  0  0  0  0  0  0  0  0  0  0
  149.3996  134.3156  154.1912 C   0  0  0  0  0  0  0  0  0  0  0  0
  149.0326  133.1087  153.7141 C   0  0  0  0  0  0  0  0  0  0  0  0
  148.2847  133.0282  152.6001 F   0  0  0  0  0  0  0  0  0  0  0  0
  149.4505  131.8971  154.4162 C   0  0  0  0  0  0  0  0  0  0  0  0
  149.1254  130.7981  153.9692 O   0  0  0  0  0  0  0  0  0  0  0  0
  150.1911  132.0431  155.5528 N   0  5  0  0  0  0  0  0  0  0  0  0
  150.5567  133.2631  156.0449 C   0  0  0  0  0  0  0  0  0  0  0  0
  151.2019  133.3966  157.0832 O   0  0  0  0  0  0  0  0  0  0  0  0
  149.2886  136.7074  156.0772 C   0  0  1  0  0  0  0  0  0  0  0  0
  149.2754  137.1021  157.4465 O   0  0  0  0  0  0  0  0  0  0  0  0
  149.1416  136.1864  158.4220 C   0  0  0  0  0  0  0  0  0  0  0  0
  148.9474  136.8242  159.7910 C   0  0  0  0  0  0  0  0  0  0  0  0
  149.1553  134.9640  158.2794 O   0  0  0  0  0  0  0  0  0  0  0  0
  149.5485  137.8801  155.1306 C   0  0  1  0  0  0  0  0  0  0  0  0
  149.0567  139.1196  155.6314 O   0  0  0  0  0  0  0  0  0  0  0  0
  149.0916  140.2246  154.8676 C   0  0  0  0  0  0  0  0  0  0  0  0
  147.9684  141.1965  155.2032 C   0  0  0  0  0  0  0  0  0  0  0  0
  149.9201  140.4768  153.9929 O   0  0  0  0  0  0  0  0  0  0  0  0
  150.3092  141.9658  156.4924 H   0  0  0  0  0  0  0  0  0  0  0  0
  151.6082  142.7496  157.4013 H   0  0  0  0  0  0  0  0  0  0  0  0
  150.4074  141.7633  158.2471 H   0  0  0  0  0  0  0  0  0  0  0  0
  152.9613  138.4075  155.8382 H   0  0  0  0  0  0  0  0  0  0  0  0
  151.6646  138.0835  156.9784 H   0  0  0  0  0  0  0  0  0  0  0  0
  151.3150  138.2811  153.9351 H   0  0  0  0  0  0  0  0  0  0  0  0
  151.0934  135.6547  156.7547 H   0  0  0  0  0  0  0  0  0  0  0  0
  149.0813  135.2024  153.6632 H   0  0  0  0  0  0  0  0  0  0  0  0
  148.3773  136.1710  155.8095 H   0  0  0  0  0  0  0  0  0  0  0  0
  149.6479  137.6478  159.9305 H   0  0  0  0  0  0  0  0  0  0  0  0
  149.1146  136.0922  160.5814 H   0  0  0  0  0  0  0  0  0  0  0  0
  147.9326  137.2108  159.8860 H   0  0  0  0  0  0  0  0  0  0  0  0
  149.0548  137.6531  154.1850 H   0  0  0  0  0  0  0  0  0  0  0  0
  147.0503  140.6560  155.4342 H   0  0  0  0  0  0  0  0  0  0  0  0
  147.7752  141.8617  154.3615 H   0  0  0  0  0  0  0  0  0  0  0  0
  148.2414  141.8021  156.0675 H   0  0  0  0  0  0  0  0  0  0  0  0
  1  2  1  0  0  0  0
  1 28  1  0  0  0  0
  1 29  1  0  0  0  0
  1 30  1  0  0  0  0
  2  3  2  0  0  0  0
  2  4  1  0  0  0  0
  4  5  1  0  0  0  0
  5  6  1  0  0  0  0
  5 31  1  0  0  0  0
  5 32  1  0  0  0  0
  6 23  1  0  0  0  0
  6  7  1  0  0  0  0
  6 33  1  0  0  0  0
  7  8  1  0  0  0  0
  8  9  1  0  0  0  0
  8 18  1  0  0  0  0
  8 34  1  0  0  0  0
  9 16  1  0  0  0  0
  9 10  1  0  0  0  0
 10 11  2  0  0  0  0
 10 35  1  0  0  0  0
 11 12  1  0  0  0  0
 11 13  1  0  0  0  0
 13 14  2  0  0  0  0
 13 15  1  0  0  0  0
 15 16  1  0  0  0  0
 16 17  2  0  0  0  0
 18 19  1  0  0  0  0
 18 23  1  0  0  0  0
 18 36  1  0  0  0  0
 19 20  1  0  0  0  0
 20 21  1  0  0  0  0
 20 22  2  0  0  0  0
 21 37  1  0  0  0  0
 21 38  1  0  0  0  0
 21 39  1  0  0  0  0
 23 24  1  0  0  0  0
 23 40  1  0  0  0  0
 24 25  1  0  0  0  0
 25 26  1  0  0  0  0
 25 27  2  0  0  0  0
 26 41  1  0  0  0  0
 26 42  1  0  0  0  0
 26 43  1  0  0  0  0
M  CHG  1  15  -1
M  END
> <s_m_source_file>
AV-unprocessed.smi

> <i_m_source_file_index>
102

> <i_lp_mmshare_version>
43012

> <i_f3d_flags>
0

> <s_epik_input>
W0NIM11DKD1PKU9bQ0gyXVtDQEBIXTFPW0NASF0oW0NAQEhdKE9DKD1PKVtDSDNdKVtDQEhdMU9DKD1PKVtDSDNdKW4yW2NIXWMoRiljKD1PKVtuSF1jMj1P

> <s_epik_cmdline>
J2VwaWtfcHl0aG9uJywgJy1waCcsICc3LjAnLCAnLXRuJywgJzgnLCAnLW1hJywgJzIwMCcsICctbWV0YWxfYmluZGluZycsICctaW1hZScsICc8aW5maWxlLm1hZT4nLCAnLW9tYWUnLCAnPG91dGZpbGUubWFlPic=

> <r_epik_Ionization_Penalty>
1.40304

> <r_epik_Ionization_Penalty_Charging>
1.43915e-08

> <r_epik_Ionization_Penalty_Neutral>
1.40304

> <r_epik_State_Penalty>
1.48536

> <r_epik_Charging_Adjusted_Penalty>
1.48536

> <i_epik_Tot_Q>
-1

> <i_epik_Tot_abs_Q>
1

> <r_epik_Metal_State_Penalty>
0.00663881

> <b_epik_Metal_Only>
0

> <s_epik_Chemistry_Notes>
This compound has an ester and may undergo hydrolysis at high or low pH. This compound contains an acetal/aminal-like group ( X-CH(R)-Y where X, Y are N, S, or O) that may be acid/base labile, releasing an aldehyde.

> <s_lp_Force_Field>
OPLS_2005

> <r_lp_Energy>
22.8402

> <b_lp_Chiralities_Consistent>
1

> <s_lp_Variant>
AV-unprocessed.smi:102-20

> <Gold.Version>
5.8.1

> <Gold.Id.Protein>
6NUR|6NUR_protein|mol2

> <Gold.PLP.Fitness>
49.0982

> <Gold.PLP.PLP>
-36.7963

> <Gold.PLP.part.hbond>
-5.0000

> <Gold.PLP.part.metal>
0.0000

> <Gold.PLP.part.buried>
-4.7513

> <Gold.PLP.part.nonpolar>
-28.8215

> <Gold.PLP.part.repulsive>
2.1297

> <Gold.PLP.ligand.clash>
0.0000

> <Gold.PLP.ligand.torsion>
0.9098

> <Gold.PLP.Chemscore.Hbond>
3.6264

> <Gold.PLP.Chemscore.CHOScore>
1.0000

> <Gold.PLP.Chemscore.Metal>
0.0000

> <Gold.Chemscore.Hbonds>
donor molecule, donor type, donor heavy atom, donor atom, acceptor molecule, acceptor atom, score
      P1  H  6896  6907       L1    17  0.14
      P1  H  6896  6908       L1    22  0.85
      P1  H  7989  7998       L1    27  0.70
      P1  H  7997  8010       L1     3  0.64
      P1  H 10752 10765       L1     7  1.00
      L1  C    10    35       P1  7948  1.00

> <Gold.PLP.Chemscore.Internal.Correction>
0.2425

> <Gold.Rescore>
     Score         DG    S(hbond)    S(metal)    S(lipo)     H(rot)  DE(clash)    DE(int)     intcor
      2.92      -9.57       2.67        0.00      46.30       4.00       0.49       6.16       ----

> <Gold.Chemscore.Fitness>
2.9250

> <Gold.Chemscore.DG>
-9.5722

> <Gold.Chemscore.ZeroCoef>
-5.4800

> <Gold.Chemscore.Hbond>
2.6653

> <Gold.Chemscore.Metal>
0.0000

> <Gold.Chemscore.Lipo>
46.3044

> <Gold.Chemscore.Internal_Hbond>
0.0000

> <Gold.Chemscore.DEClash>
0.4914

> <Gold.Chemscore.DEInternal>
6.1559

> <Gold.Chemscore.Rot>
3.9951

> <Gold.Chemscore.Internal.Correction>
   9.000000E+99

> <Gold.Chemscore.Hbonds>
donor molecule, donor type, donor heavy atom, donor atom, acceptor molecule, acceptor atom, score
      P1  H  6896  6907       L1    17  0.13
      P1  H  6896  6908       L1    22  0.14
      P1  H  7989  7998       L1    27  0.70
      P1  H  7997  8010       L1     3  0.16
      P1  H 10752 10765       L1     7  0.94

> <Gold.Chemscore.Hbond.Weighted>
-8.9020

> <Gold.Chemscore.Metal.Weighted>
-0.0000

> <Gold.Chemscore.Lipo.Weighted>
-5.4176

> <Gold.Chemscore.Internal_Hbond.Weighted>
0.0000

> <Gold.Chemscore.DEClash.Weighted>
0.4914

> <Gold.Chemscore.DEInternal.Weighted>
6.1559

> <Gold.Chemscore.Rot.Weighted>
10.2274

> <Gold.Chemscore.Internal.Correction.Weighted>
   9.000000E+99

> <Gold.Protein.RotatedTorsions>
[ 6907 6896 6895 6894 ] final  170.18 input  -60.11 | X-H torsion
[ 7974 7965 7964 7962 ] final -148.34 input  175.53 | X-H torsion
[ 8008 7997 7996 7995 ] final   62.95 input   59.86 | X-H torsion
[ 10167 10162 10161 10158 ] final  157.79 input  -65.29 | X-H torsion
[ 10718 10713 10712 10709 ] final   44.59 input   66.30 | X-H torsion
[ 10763 10752 10751 10750 ] final  174.46 input  -60.55 | X-H torsion
[ 11005 11000 10999 10996 ] final  -61.54 input  -57.11 | X-H torsion

> <Gold.Protein.ActiveResidues>
 VAL166  LYS551  ARG553  GLY616  TRP617  ASP618  TYR619  PRO620  LYS621  CYS622 
 ASP623  PHE694  ASN695  SER759  ASP760  ASP761  ALA762  ILE779  LEU786  VAL792 
 PHE793  MET794  SER795  GLU796  ALA797  LYS798  CYS799  TRP800  GLU811  SER814 

> <Gold.Protein.RotatedAtoms>
  151.8202  133.3393  159.3581 H   0  0  0  0  0  0  0  0  0  0  0  0  # atno 6907 bound_to 6896
  150.7297  134.5581  159.5838 H   0  0  0  0  0  0  0  0  0  0  0  0  # atno 6908 bound_to 6896
  152.3012  134.7610  160.0408 H   0  0  0  0  0  0  0  0  0  0  0  0  # atno 6909 bound_to 6896
  144.8035  140.5209  143.5691 H   0  0  0  0  0  0  0  0  0  0  0  0  # atno 7974 bound_to 7965
  155.6225  140.3496  155.4656 H   0  0  0  0  0  0  0  0  0  0  0  0  # atno 8008 bound_to 7997
  156.0068  140.1225  157.0517 H   0  0  0  0  0  0  0  0  0  0  0  0  # atno 8009 bound_to 7997
  154.4267  140.1089  156.5759 H   0  0  0  0  0  0  0  0  0  0  0  0  # atno 8010 bound_to 7997
  139.4824  144.4885  151.8343 H   0  0  0  0  0  0  0  0  0  0  0  0  # atno 10167 bound_to 10162
  157.4284  130.8010  149.7580 H   0  0  0  0  0  0  0  0  0  0  0  0  # atno 10718 bound_to 10713
  154.4542  135.2765  155.1759 H   0  0  0  0  0  0  0  0  0  0  0  0  # atno 10763 bound_to 10752
  154.3574  135.6137  153.5676 H   0  0  0  0  0  0  0  0  0  0  0  0  # atno 10764 bound_to 10752
  152.9849  135.5826  154.4892 H   0  0  0  0  0  0  0  0  0  0  0  0  # atno 10765 bound_to 10752
  141.1328  133.6631  156.5390 H   0  0  0  0  0  0  0  0  0  0  0  0  # atno 11005 bound_to 11000
  145.5494  139.1476  143.3402 LP  0  0  0  0  0  0  0  0  0  0  0  0  # atno 17320 bound_to 7965
  146.2322  140.5633  142.8970 LP  0  0  0  0  0  0  0  0  0  0  0  0  # atno 17321 bound_to 7965
  140.4366  144.2043  150.5889 LP  0  0  0  0  0  0  0  0  0  0  0  0  # atno 17342 bound_to 10162
  140.4725  143.2408  151.9069 LP  0  0  0  0  0  0  0  0  0  0  0  0  # atno 17343 bound_to 10162
  155.9905  130.3944  150.3027 LP  0  0  0  0  0  0  0  0  0  0  0  0  # atno 17370 bound_to 10713
  157.1182  131.0239  151.3020 LP  0  0  0  0  0  0  0  0  0  0  0  0  # atno 17371 bound_to 10713
  140.4155  134.7234  157.4860 LP  0  0  0  0  0  0  0  0  0  0  0  0  # atno 17394 bound_to 11000
  140.0397  134.6285  155.8997 LP  0  0  0  0  0  0  0  0  0  0  0  0  # atno 17395 bound_to 11000

$$$$
