AV-unprocessed.smi:110|AV-procd|sdf|1072|dock4
  -GOLD-   2262018153D 1   1.00000     0.00000
 Structure written by MMmdl.
 46 50  0  0  0  0  0  0  0  0  1 V2000
  144.5659  143.6865  154.0228 O   0  0  0  0  0  0  0  0  0  0  0  0
  145.9339  143.5415  153.7022 C   0  0  0  0  0  0  0  0  0  0  0  0
  146.6116  142.4369  154.5327 C   0  0  2  0  0  0  0  0  0  0  0  0
  147.8664  142.0798  153.9745 O   0  0  0  0  0  0  0  0  0  0  0  0
  148.2686  140.8600  154.5177 C   0  0  1  0  0  0  0  0  0  0  0  0
  149.1343  141.1276  155.7122 N   0  0  0  0  0  0  0  0  0  0  0  0
  148.9070  141.9444  156.7995 C   0  0  0  0  0  0  0  0  0  0  0  0
  149.8684  141.9766  157.6822 N   0  0  0  0  0  0  0  0  0  0  0  0
  150.8520  141.1506  157.1512 C   0  0  0  0  0  0  0  0  0  0  0  0
  152.1483  140.7357  157.5717 C   0  0  0  0  0  0  0  0  0  0  0  0
  152.7449  141.1195  158.7245 N   0  0  0  0  0  0  0  0  0  0  0  0
  153.5734  140.1548  159.4616 C   0  0  0  0  0  0  0  0  0  0  0  0
  153.7211  140.6750  160.9038 C   0  0  0  0  0  0  0  0  0  0  0  0
  153.0387  142.0006  160.7995 C   0  0  0  0  0  0  0  0  0  0  0  0
  152.9261  142.9812  161.8003 C   0  0  0  0  0  0  0  0  0  0  0  0
  152.2582  144.1827  161.4816 C   0  0  0  0  0  0  0  0  0  0  0  0
  151.7306  144.3850  160.1851 C   0  0  0  0  0  0  0  0  0  0  0  0
  151.8572  143.3861  159.1948 C   0  0  0  0  0  0  0  0  0  0  0  0
  152.5064  142.1788  159.5263 C   0  0  0  0  0  0  0  0  0  0  0  0
  152.8116  139.8522  156.7826 N   0  0  0  0  0  0  0  0  0  0  0  0
  152.2673  139.4326  155.6373 C   0  0  0  0  0  0  0  0  0  0  0  0
  151.0836  139.7507  155.1107 N   0  0  0  0  0  0  0  0  0  0  0  0
  150.3963  140.6124  155.9150 C   0  0  0  0  0  0  0  0  0  0  0  0
  146.9904  140.1032  154.9418 C   0  0  2  0  0  0  0  0  0  0  0  0
  146.8077  138.9320  154.1726 O   0  0  0  0  0  0  0  0  0  0  0  0
  145.8658  141.1048  154.6724 C   0  0  1  0  0  0  0  0  0  0  0  0
  144.9734  141.1632  155.7675 O   0  0  0  0  0  0  0  0  0  0  0  0
  146.8146  142.8390  155.5271 H   0  0  0  0  0  0  0  0  0  0  0  0
  148.9192  140.3133  153.8336 H   0  0  0  0  0  0  0  0  0  0  0  0
  147.0449  139.8335  155.9980 H   0  0  0  0  0  0  0  0  0  0  0  0
  145.3287  140.8458  153.7592 H   0  0  0  0  0  0  0  0  0  0  0  0
  144.0520  143.2786  153.3426 H   0  0  0  0  0  0  0  0  0  0  0  0
  146.0396  143.3376  152.6363 H   0  0  0  0  0  0  0  0  0  0  0  0
  146.4240  144.4964  153.8939 H   0  0  0  0  0  0  0  0  0  0  0  0
  148.0016  142.5190  156.9286 H   0  0  0  0  0  0  0  0  0  0  0  0
  153.1219  139.1617  159.4478 H   0  0  0  0  0  0  0  0  0  0  0  0
  154.5499  140.0842  158.9809 H   0  0  0  0  0  0  0  0  0  0  0  0
  153.2050  140.0379  161.6225 H   0  0  0  0  0  0  0  0  0  0  0  0
  154.7642  140.7867  161.1999 H   0  0  0  0  0  0  0  0  0  0  0  0
  153.3439  142.8221  162.7834 H   0  0  0  0  0  0  0  0  0  0  0  0
  152.1571  144.9554  162.2293 H   0  0  0  0  0  0  0  0  0  0  0  0
  151.2313  145.3130  159.9486 H   0  0  0  0  0  0  0  0  0  0  0  0
  151.4664  143.5553  158.2026 H   0  0  0  0  0  0  0  0  0  0  0  0
  152.8648  138.7405  155.0625 H   0  0  0  0  0  0  0  0  0  0  0  0
  146.0616  139.0610  153.6071 H   0  0  0  0  0  0  0  0  0  0  0  0
  145.2785  141.8269  156.3668 H   0  0  0  0  0  0  0  0  0  0  0  0
  1  2  1  0  0  0  0
  1 32  1  0  0  0  0
  2  3  1  0  0  0  0
  2 33  1  0  0  0  0
  2 34  1  0  0  0  0
  3 28  1  0  0  0  0
  3 26  1  0  0  0  0
  3  4  1  0  0  0  0
  4  5  1  0  0  0  0
  5 29  1  0  0  0  0
  5  6  1  0  0  0  0
  5 24  1  0  0  0  0
  6 23  1  0  0  0  0
  6  7  1  0  0  0  0
  7  8  2  0  0  0  0
  7 35  1  0  0  0  0
  8  9  1  0  0  0  0
  9 23  2  0  0  0  0
  9 10  1  0  0  0  0
 10 11  1  0  0  0  0
 10 20  2  0  0  0  0
 11 19  1  0  0  0  0
 11 12  1  0  0  0  0
 12 13  1  0  0  0  0
 12 36  1  0  0  0  0
 12 37  1  0  0  0  0
 13 14  1  0  0  0  0
 13 38  1  0  0  0  0
 13 39  1  0  0  0  0
 14 19  2  0  0  0  0
 14 15  1  0  0  0  0
 15 16  2  0  0  0  0
 15 40  1  0  0  0  0
 16 17  1  0  0  0  0
 16 41  1  0  0  0  0
 17 18  2  0  0  0  0
 17 42  1  0  0  0  0
 18 19  1  0  0  0  0
 18 43  1  0  0  0  0
 20 21  1  0  0  0  0
 21 22  2  0  0  0  0
 21 44  1  0  0  0  0
 22 23  1  0  0  0  0
 24 30  1  0  0  0  0
 24 25  1  0  0  0  0
 24 26  1  0  0  0  0
 25 45  1  0  0  0  0
 26 31  1  0  0  0  0
 26 27  1  0  0  0  0
 27 46  1  0  0  0  0
M  END
> <s_m_source_file>
AV-unprocessed.smi

> <i_m_source_file_index>
110

> <i_lp_mmshare_version>
43012

> <i_f3d_flags>
0

> <s_epik_input>
W09IXVtDSDJdW0NASF0xT1tDQEhdKFtDQEhdKFtPSF0pW0NAQEhdMVtPSF0pbihbY0hdbjIpYyhjMjMpbltjSF1uYzNOKFtDSDJdW0NIMl00KWMoYzQ1KVtjSF1bY0hdW2NIXVtjSF01

> <s_epik_cmdline>
J2VwaWtfcHl0aG9uJywgJy1waCcsICc3LjAnLCAnLXRuJywgJzgnLCAnLW1hJywgJzIwMCcsICctbWV0YWxfYmluZGluZycsICctaW1hZScsICc8aW5maWxlLm1hZT4nLCAnLW9tYWUnLCAnPG91dGZpbGUubWFlPic=

> <r_lp_tautomer_probability>
1

> <r_epik_Ionization_Penalty>
0.00068475

> <r_epik_Ionization_Penalty_Charging>
0

> <r_epik_Ionization_Penalty_Neutral>
0.00068475

> <r_epik_State_Penalty>
0.000417442

> <r_epik_Charging_Adjusted_Penalty>
0.000417442

> <i_epik_Tot_Q>
0

> <i_epik_Tot_abs_Q>
0

> <r_epik_Metal_State_Penalty>
-0

> <b_epik_Metal_Only>
0

> <s_epik_Chemistry_Notes>
This compound contains an acetal/aminal-like group ( X-CH(R)-Y where X, Y are N, S, or O) that may be acid/base labile, releasing an aldehyde.

> <s_lp_Force_Field>
OPLS_2005

> <r_lp_Energy>
55.1552

> <b_lp_Chiralities_Consistent>
1

> <s_lp_Variant>
AV-unprocessed.smi:110-10

> <Gold.Version>
5.8.1

> <Gold.Id.Protein>
6NUR|6NUR_protein|mol2

> <Gold.PLP.Fitness>
60.2841

> <Gold.PLP.PLP>
-51.7549

> <Gold.PLP.part.hbond>
-3.6566

> <Gold.PLP.part.metal>
0.0000

> <Gold.PLP.part.buried>
-3.2010

> <Gold.PLP.part.nonpolar>
-44.5650

> <Gold.PLP.part.repulsive>
0.3108

> <Gold.PLP.ligand.clash>
0.0000

> <Gold.PLP.ligand.torsion>
0.5335

> <Gold.PLP.Chemscore.Hbond>
3.0000

> <Gold.PLP.Chemscore.CHOScore>
0.1723

> <Gold.PLP.Chemscore.Metal>
0.0000

> <Gold.Chemscore.Hbonds>
donor molecule, donor type, donor heavy atom, donor atom, acceptor molecule, acceptor atom, score
      L1  H     1    32       P1 10174  0.85
      P1  H  7989  7998       L1    22  0.99
      P1  H  7997  8008       L1    20  1.00
      L1  C     7    35       P1  8028  0.22

> <Gold.PLP.Chemscore.Internal.Correction>
0.0794

> <Gold.Rescore>
     Score         DG    S(hbond)    S(metal)    S(lipo)     H(rot)  DE(clash)    DE(int)     intcor
     12.19     -14.30       1.47        0.00     107.35       3.38       0.31       1.80       ----

> <Gold.Chemscore.Fitness>
12.1930

> <Gold.Chemscore.DG>
-14.3035

> <Gold.Chemscore.ZeroCoef>
-5.4800

> <Gold.Chemscore.Hbond>
1.4746

> <Gold.Chemscore.Metal>
0.0000

> <Gold.Chemscore.Lipo>
107.3536

> <Gold.Chemscore.Internal_Hbond>
0.0000

> <Gold.Chemscore.DEClash>
0.3083

> <Gold.Chemscore.DEInternal>
1.8021

> <Gold.Chemscore.Rot>
3.3837

> <Gold.Chemscore.Internal.Correction>
   9.000000E+99

> <Gold.Chemscore.Hbonds>
donor molecule, donor type, donor heavy atom, donor atom, acceptor molecule, acceptor atom, score
      L1  H     1    32       P1 10174  0.14
      P1  H  7989  7998       L1    22  0.14
      P1  H  7997  8008       L1    20  0.42

> <Gold.Chemscore.Hbond.Weighted>
-4.9253

> <Gold.Chemscore.Metal.Weighted>
-0.0000

> <Gold.Chemscore.Lipo.Weighted>
-12.5604

> <Gold.Chemscore.Internal_Hbond.Weighted>
0.0000

> <Gold.Chemscore.DEClash.Weighted>
0.3083

> <Gold.Chemscore.DEInternal.Weighted>
1.8021

> <Gold.Chemscore.Rot.Weighted>
8.6622

> <Gold.Chemscore.Internal.Correction.Weighted>
   9.000000E+99

> <Gold.Protein.RotatedTorsions>
[ 6907 6896 6895 6894 ] final  -58.16 input  -60.11 | X-H torsion
[ 7974 7965 7964 7962 ] final  -64.46 input  175.53 | X-H torsion
[ 8008 7997 7996 7995 ] final  -46.62 input   59.86 | X-H torsion
[ 10167 10162 10161 10158 ] final   75.13 input  -65.29 | X-H torsion
[ 10718 10713 10712 10709 ] final -163.49 input   66.30 | X-H torsion
[ 10763 10752 10751 10750 ] final -174.73 input  -60.55 | X-H torsion
[ 11005 11000 10999 10996 ] final  165.65 input  -57.11 | X-H torsion

> <Gold.Protein.ActiveResidues>
 VAL166  LYS551  ARG553  GLY616  TRP617  ASP618  TYR619  PRO620  LYS621  CYS622 
 ASP623  PHE694  ASN695  SER759  ASP760  ASP761  ALA762  ILE779  LEU786  VAL792 
 PHE793  MET794  SER795  GLU796  ALA797  LYS798  CYS799  TRP800  GLU811  SER814 

> <Gold.Protein.RotatedAtoms>
  150.8029  134.7134  159.6616 H   0  0  0  0  0  0  0  0  0  0  0  0  # atno 6907 bound_to 6896
  152.4146  134.6060  160.0022 H   0  0  0  0  0  0  0  0  0  0  0  0  # atno 6908 bound_to 6896
  151.6293  133.3296  159.3141 H   0  0  0  0  0  0  0  0  0  0  0  0  # atno 6909 bound_to 6896
  145.7665  140.8835  143.0403 H   0  0  0  0  0  0  0  0  0  0  0  0  # atno 7974 bound_to 7965
  154.4009  140.1367  156.4041 H   0  0  0  0  0  0  0  0  0  0  0  0  # atno 8008 bound_to 7997
  155.7796  140.3482  155.5270 H   0  0  0  0  0  0  0  0  0  0  0  0  # atno 8009 bound_to 7997
  155.8687  140.0968  157.1555 H   0  0  0  0  0  0  0  0  0  0  0  0  # atno 8010 bound_to 7997
  140.0063  144.5648  150.7695 H   0  0  0  0  0  0  0  0  0  0  0  0  # atno 10167 bound_to 10162
  156.6254  130.8908  151.2966 H   0  0  0  0  0  0  0  0  0  0  0  0  # atno 10718 bound_to 10713
  154.5928  135.2846  155.0618 H   0  0  0  0  0  0  0  0  0  0  0  0  # atno 10763 bound_to 10752
  154.1912  135.6440  153.5064 H   0  0  0  0  0  0  0  0  0  0  0  0  # atno 10764 bound_to 10752
  153.0127  135.5447  154.6619 H   0  0  0  0  0  0  0  0  0  0  0  0  # atno 10765 bound_to 10752
  140.2583  134.7922  157.3566 H   0  0  0  0  0  0  0  0  0  0  0  0  # atno 11005 bound_to 11000
  144.6820  139.9795  143.7483 LP  0  0  0  0  0  0  0  0  0  0  0  0  # atno 17320 bound_to 7965
  146.0213  139.3253  143.0811 LP  0  0  0  0  0  0  0  0  0  0  0  0  # atno 17321 bound_to 7965
  140.7399  143.2797  151.3634 LP  0  0  0  0  0  0  0  0  0  0  0  0  # atno 17342 bound_to 10162
  139.6236  144.0858  152.2414 LP  0  0  0  0  0  0  0  0  0  0  0  0  # atno 17343 bound_to 10162
  157.7215  130.9565  150.1459 LP  0  0  0  0  0  0  0  0  0  0  0  0  # atno 17370 bound_to 10713
  156.2277  130.3679  149.8481 LP  0  0  0  0  0  0  0  0  0  0  0  0  # atno 17371 bound_to 10713
  140.1490  134.4875  155.7975 LP  0  0  0  0  0  0  0  0  0  0  0  0  # atno 17394 bound_to 11000
  141.2193  133.6855  156.7344 LP  0  0  0  0  0  0  0  0  0  0  0  0  # atno 17395 bound_to 11000

$$$$
