AV-unprocessed.smi:2954|AV-procd|sdf|11300|dock5
  -GOLD-   2272016193D 1   1.00000     0.00000
 Structure written by MMmdl.
 43 45  0  0  0  0  0  0  0  0  2 V2000
  153.0163  138.6662  154.3783 C   0  0  0  0  0  0  0  0  0  0  0  0
  151.6919  138.0244  154.8166 C   0  0  1  0  0  0  0  0  0  0  0  0
  151.7828  137.6541  156.2254 N   0  0  0  0  0  0  0  0  0  0  0  0
  151.6878  136.4022  156.6880 C   0  0  0  0  0  0  0  0  0  0  0  0
  151.5080  135.4304  155.9589 O   0  0  0  0  0  0  0  0  0  0  0  0
  150.5428  138.9523  154.5431 C   0  0  0  0  0  0  0  0  0  0  0  0
  149.4747  138.6961  153.7330 N   0  3  0  0  0  0  0  0  0  0  0  0
  148.5894  139.7736  153.7573 C   0  0  0  0  0  0  0  0  0  0  0  0
  147.3777  139.9722  153.1028 C   0  0  0  0  0  0  0  0  0  0  0  0
  146.7154  141.1917  153.3550 C   0  0  0  0  0  0  0  0  0  0  0  0
  147.2587  142.1552  154.2297 C   0  0  0  0  0  0  0  0  0  0  0  0
  148.4879  141.9416  154.8874 C   0  0  0  0  0  0  0  0  0  0  0  0
  149.1385  140.7354  154.6288 C   0  0  0  0  0  0  0  0  0  0  0  0
  150.3450  140.1915  155.0833 N   0  0  0  0  0  0  0  0  0  0  0  0
  151.1722  140.9692  156.0196 C   0  0  0  0  0  0  0  0  0  0  0  0
  150.3784  141.4994  157.2242 C   0  0  0  0  0  0  0  0  0  0  0  0
  150.9196  142.7437  157.6485 O   0  0  0  0  0  0  0  0  0  0  0  0
  151.6516  142.7696  158.8170 C   0  0  0  0  0  0  0  0  0  0  0  0
  152.3804  141.6592  159.3153 C   0  0  0  0  0  0  0  0  0  0  0  0
  153.1138  141.7638  160.5129 C   0  0  0  0  0  0  0  0  0  0  0  0
  153.1289  142.9748  161.2283 C   0  0  0  0  0  0  0  0  0  0  0  0
  152.4074  144.0813  160.7450 C   0  0  0  0  0  0  0  0  0  0  0  0
  151.6731  143.9791  159.5470 C   0  0  0  0  0  0  0  0  0  0  0  0
  150.7810  145.3470  158.9868 Cl  0  0  0  0  0  0  0  0  0  0  0  0
  153.0085  138.9067  153.3150 H   0  0  0  0  0  0  0  0  0  0  0  0
  153.8563  137.9933  154.5544 H   0  0  0  0  0  0  0  0  0  0  0  0
  153.2098  139.5902  154.9245 H   0  0  0  0  0  0  0  0  0  0  0  0
  151.5417  137.1194  154.2246 H   0  0  0  0  0  0  0  0  0  0  0  0
  151.9211  138.3993  156.8925 H   0  0  0  0  0  0  0  0  0  0  0  0
  151.7854  136.3587  157.7833 H   0  0  0  0  0  0  0  0  0  0  0  0
  146.9580  139.2345  152.4347 H   0  0  0  0  0  0  0  0  0  0  0  0
  145.7711  141.3909  152.8693 H   0  0  0  0  0  0  0  0  0  0  0  0
  146.7214  143.0770  154.4006 H   0  0  0  0  0  0  0  0  0  0  0  0
  148.8936  142.6848  155.5572 H   0  0  0  0  0  0  0  0  0  0  0  0
  152.0122  140.3529  156.3422 H   0  0  0  0  0  0  0  0  0  0  0  0
  151.5983  141.8078  155.4698 H   0  0  0  0  0  0  0  0  0  0  0  0
  149.3316  141.6316  156.9481 H   0  0  0  0  0  0  0  0  0  0  0  0
  150.4194  140.7662  158.0307 H   0  0  0  0  0  0  0  0  0  0  0  0
  152.3981  140.7147  158.7935 H   0  0  0  0  0  0  0  0  0  0  0  0
  153.6676  140.9130  160.8820 H   0  0  0  0  0  0  0  0  0  0  0  0
  153.6917  143.0543  162.1467 H   0  0  0  0  0  0  0  0  0  0  0  0
  152.4163  145.0101  161.2963 H   0  0  0  0  0  0  0  0  0  0  0  0
  149.3639  137.8413  153.2029 H   0  0  0  0  0  0  0  0  0  0  0  0
  1  2  1  0  0  0  0
  1 25  1  0  0  0  0
  1 26  1  0  0  0  0
  1 27  1  0  0  0  0
  2  3  1  0  0  0  0
  2  6  1  0  0  0  0
  2 28  1  0  0  0  0
  3  4  1  0  0  0  0
  3 29  1  0  0  0  0
  4  5  2  0  0  0  0
  4 30  1  0  0  0  0
  6 14  1  0  0  0  0
  6  7  2  0  0  0  0
  7  8  1  0  0  0  0
  7 43  1  0  0  0  0
  8 13  2  0  0  0  0
  8  9  1  0  0  0  0
  9 10  2  0  0  0  0
  9 31  1  0  0  0  0
 10 11  1  0  0  0  0
 10 32  1  0  0  0  0
 11 12  2  0  0  0  0
 11 33  1  0  0  0  0
 12 13  1  0  0  0  0
 12 34  1  0  0  0  0
 13 14  1  0  0  0  0
 14 15  1  0  0  0  0
 15 16  1  0  0  0  0
 15 35  1  0  0  0  0
 15 36  1  0  0  0  0
 16 17  1  0  0  0  0
 16 37  1  0  0  0  0
 16 38  1  0  0  0  0
 17 18  1  0  0  0  0
 18 23  1  0  0  0  0
 18 19  2  0  0  0  0
 19 20  1  0  0  0  0
 19 39  1  0  0  0  0
 20 21  2  0  0  0  0
 20 40  1  0  0  0  0
 21 22  1  0  0  0  0
 21 41  1  0  0  0  0
 22 23  2  0  0  0  0
 22 42  1  0  0  0  0
 23 24  1  0  0  0  0
M  CHG  1   7   1
M  END
> <s_m_source_file>
AV-unprocessed.smi

> <i_m_source_file_index>
2954

> <i_lp_mmshare_version>
43012

> <i_f3d_flags>
0

> <s_epik_input>
Tz1bQ0hdW05IXVtDQEBIXShbQ0gzXSljKG4xKW4oYyhjMTIpW2NIXVtjSF1bY0hdW2NIXTIpW0NIMl1bQ0gyXU9jM1tjSF1bY0hdW2NIXVtjSF1jM0Ns

> <s_epik_cmdline>
J2VwaWtfcHl0aG9uJywgJy1waCcsICc3LjAnLCAnLXRuJywgJzgnLCAnLW1hJywgJzIwMCcsICctbWV0YWxfYmluZGluZycsICctaW1hZScsICc8aW5maWxlLm1hZT4nLCAnLW9tYWUnLCAnPG91dGZpbGUubWFlPic=

> <r_lp_tautomer_probability>
1

> <r_epik_Ionization_Penalty>
1.18508

> <r_epik_Ionization_Penalty_Charging>
1.18508

> <r_epik_Ionization_Penalty_Neutral>
5.5802e-08

> <r_epik_State_Penalty>
1.24934

> <r_epik_Charging_Adjusted_Penalty>
2.43443

> <i_epik_Tot_Q>
1

> <i_epik_Tot_abs_Q>
1

> <r_epik_Metal_State_Penalty>
1.32564

> <b_epik_Metal_Only>
0

> <s_lp_Force_Field>
OPLS_2005

> <r_lp_Energy>
18.4095

> <b_lp_Chiralities_Consistent>
1

> <s_lp_Variant>
AV-unprocessed.smi:2954-4

> <Gold.Version>
5.8.1

> <Gold.Id.Protein>
6NUR|6NUR_protein|mol2

> <Gold.PLP.Fitness>
59.6024

> <Gold.PLP.PLP>
-53.1844

> <Gold.PLP.part.hbond>
-3.0000

> <Gold.PLP.part.metal>
0.0000

> <Gold.PLP.part.buried>
-0.3608

> <Gold.PLP.part.nonpolar>
-50.5999

> <Gold.PLP.part.repulsive>
0.2745

> <Gold.PLP.ligand.clash>
0.0000

> <Gold.PLP.ligand.torsion>
1.0029

> <Gold.PLP.Chemscore.Hbond>
2.7936

> <Gold.PLP.Chemscore.CHOScore>
0.0000

> <Gold.PLP.Chemscore.Metal>
0.0000

> <Gold.Chemscore.Hbonds>
donor molecule, donor type, donor heavy atom, donor atom, acceptor molecule, acceptor atom, score
      L1  H     7    43       P1  7948  1.62
      P1  H 10752 10763       L1     5  1.00

> <Gold.PLP.Chemscore.Internal.Correction>
0.0429

> <Gold.Rescore>
     Score         DG    S(hbond)    S(metal)    S(lipo)     H(rot)  DE(clash)    DE(int)     intcor
     18.26     -20.39       1.21        0.00     144.40       2.35       1.06       1.08       ----

> <Gold.Chemscore.Fitness>
18.2592

> <Gold.Chemscore.DG>
-20.3920

> <Gold.Chemscore.ZeroCoef>
-5.4800

> <Gold.Chemscore.Hbond>
1.2051

> <Gold.Chemscore.Metal>
0.0000

> <Gold.Chemscore.Lipo>
144.3993

> <Gold.Chemscore.Internal_Hbond>
0.0000

> <Gold.Chemscore.DEClash>
1.0560

> <Gold.Chemscore.DEInternal>
1.0769

> <Gold.Chemscore.Rot>
2.3467

> <Gold.Chemscore.Internal.Correction>
   9.000000E+99

> <Gold.Chemscore.Hbonds>
donor molecule, donor type, donor heavy atom, donor atom, acceptor molecule, acceptor atom, score
      L1  H     7    43       P1  7948  0.77
      P1  H 10752 10763       L1     5  0.38

> <Gold.Chemscore.Hbond.Weighted>
-4.0250

> <Gold.Chemscore.Metal.Weighted>
-0.0000

> <Gold.Chemscore.Lipo.Weighted>
-16.8947

> <Gold.Chemscore.Internal_Hbond.Weighted>
0.0000

> <Gold.Chemscore.DEClash.Weighted>
1.0560

> <Gold.Chemscore.DEInternal.Weighted>
1.0769

> <Gold.Chemscore.Rot.Weighted>
6.0077

> <Gold.Chemscore.Internal.Correction.Weighted>
   9.000000E+99

> <Gold.Protein.RotatedTorsions>
[ 6907 6896 6895 6894 ] final  -84.09 input  -60.11 | X-H torsion
[ 7974 7965 7964 7962 ] final   31.50 input  175.53 | X-H torsion
[ 8008 7997 7996 7995 ] final  109.67 input   59.86 | X-H torsion
[ 10167 10162 10161 10158 ] final  -87.99 input  -65.29 | X-H torsion
[ 10718 10713 10712 10709 ] final  -17.66 input   66.30 | X-H torsion
[ 10763 10752 10751 10750 ] final   70.02 input  -60.55 | X-H torsion
[ 11005 11000 10999 10996 ] final -113.93 input  -57.11 | X-H torsion

> <Gold.Protein.ActiveResidues>
 VAL166  LYS551  ARG553  GLY616  TRP617  ASP618  TYR619  PRO620  LYS621  CYS622 
 ASP623  PHE694  ASN695  SER759  ASP760  ASP761  ALA762  ILE779  LEU786  VAL792 
 PHE793  MET794  SER795  GLU796  ALA797  LYS798  CYS799  TRP800  GLU811  SER814 

> <Gold.Protein.RotatedAtoms>
  150.6879  134.3412  159.4868 H   0  0  0  0  0  0  0  0  0  0  0  0  # atno 6907 bound_to 6896
  152.1265  134.9164  160.0570 H   0  0  0  0  0  0  0  0  0  0  0  0  # atno 6908 bound_to 6896
  152.0350  133.3918  159.4350 H   0  0  0  0  0  0  0  0  0  0  0  0  # atno 6909 bound_to 6896
  146.1546  139.6649  142.9075 H   0  0  0  0  0  0  0  0  0  0  0  0  # atno 7974 bound_to 7965
  156.1997  140.3053  155.9500 H   0  0  0  0  0  0  0  0  0  0  0  0  # atno 8008 bound_to 7997
  155.2983  140.0445  157.3045 H   0  0  0  0  0  0  0  0  0  0  0  0  # atno 8009 bound_to 7997
  154.5554  140.2304  155.8427 H   0  0  0  0  0  0  0  0  0  0  0  0  # atno 8010 bound_to 7997
  140.3791  143.2757  151.9406 H   0  0  0  0  0  0  0  0  0  0  0  0  # atno 10167 bound_to 10162
  156.5704  130.4748  149.6365 H   0  0  0  0  0  0  0  0  0  0  0  0  # atno 10718 bound_to 10713
  153.0318  135.5189  154.7377 H   0  0  0  0  0  0  0  0  0  0  0  0  # atno 10763 bound_to 10752
  154.6386  135.2909  155.0133 H   0  0  0  0  0  0  0  0  0  0  0  0  # atno 10764 bound_to 10752
  154.1059  135.6629  153.4929 H   0  0  0  0  0  0  0  0  0  0  0  0  # atno 10765 bound_to 10752
  141.0583  133.9576  157.2713 H   0  0  0  0  0  0  0  0  0  0  0  0  # atno 11005 bound_to 11000
  145.4739  141.0436  143.2683 LP  0  0  0  0  0  0  0  0  0  0  0  0  # atno 17320 bound_to 7965
  144.7947  139.6258  143.7098 LP  0  0  0  0  0  0  0  0  0  0  0  0  # atno 17321 bound_to 7965
  139.4797  144.5836  151.7891 LP  0  0  0  0  0  0  0  0  0  0  0  0  # atno 17342 bound_to 10162
  140.4956  144.1245  150.5959 LP  0  0  0  0  0  0  0  0  0  0  0  0  # atno 17343 bound_to 10162
  156.2719  130.7022  151.1822 LP  0  0  0  0  0  0  0  0  0  0  0  0  # atno 17370 bound_to 10713
  157.7349  131.0577  150.5498 LP  0  0  0  0  0  0  0  0  0  0  0  0  # atno 17371 bound_to 10713
  139.9410  135.0191  156.8707 LP  0  0  0  0  0  0  0  0  0  0  0  0  # atno 17394 bound_to 11000
  140.5919  134.0253  155.7503 LP  0  0  0  0  0  0  0  0  0  0  0  0  # atno 17395 bound_to 11000

$$$$
