AV-unprocessed.smi:1702|AV-procd|sdf|6847|dock8
  -GOLD-   22720 8 23D 1   1.00000     0.00000
 Structure written by MMmdl.
 44 46  0  0  0  0  0  0  0  0  2 V2000
  143.7555  134.5629  152.8277 C   0  0  0  0  0  0  0  0  0  0  0  0
  145.1261  134.7287  152.1486 C   0  0  2  0  0  0  0  0  0  0  0  0
  146.3009  134.4573  153.1062 C   0  0  0  0  0  0  0  0  0  0  0  0
  146.5131  135.6050  154.1102 C   0  0  0  0  0  0  0  0  0  0  0  0
  146.6982  136.9022  153.4107 N   0  3  2  0  0  0  0  0  0  0  0  0
  147.0551  138.0029  154.3428 C   0  0  0  0  0  0  0  0  0  0  0  0
  147.4929  139.2831  153.6038 C   0  0  2  0  0  0  0  0  0  0  0  0
  148.4627  138.9376  152.6325 O   0  0  0  0  0  0  0  0  0  0  0  0
  148.0844  140.3284  154.5694 C   0  0  0  0  0  0  0  0  0  0  0  0
  147.1308  140.7568  155.5778 N   0  0  0  0  0  0  0  0  0  0  0  0
  146.9654  140.2334  156.8079 C   0  0  0  0  0  0  0  0  0  0  0  0
  146.0284  140.7752  157.5800 N   0  0  0  0  0  0  0  0  0  0  0  0
  145.5275  141.7690  156.7568 C   0  0  0  0  0  0  0  0  0  0  0  0
  144.5027  142.7156  156.9816 C   0  0  0  0  0  0  0  0  0  0  0  0
  144.1580  143.6475  155.9808 C   0  0  0  0  0  0  0  0  0  0  0  0
  143.1738  144.5481  156.2127 F   0  0  0  0  0  0  0  0  0  0  0  0
  144.8318  143.6463  154.7413 C   0  0  0  0  0  0  0  0  0  0  0  0
  144.4952  144.5444  153.7855 F   0  0  0  0  0  0  0  0  0  0  0  0
  145.8558  142.7121  154.4940 C   0  0  0  0  0  0  0  0  0  0  0  0
  146.1970  141.7848  155.4958 C   0  0  0  0  0  0  0  0  0  0  0  0
  145.5371  137.2214  152.5382 C   0  0  0  0  0  0  0  0  0  0  0  0
  145.3056  136.1119  151.4967 C   0  0  0  0  0  0  0  0  0  0  0  0
  143.6142  135.2658  153.6483 H   0  0  0  0  0  0  0  0  0  0  0  0
  143.6411  133.5572  153.2334 H   0  0  0  0  0  0  0  0  0  0  0  0
  142.9454  134.7210  152.1155 H   0  0  0  0  0  0  0  0  0  0  0  0
  145.1683  133.9824  151.3541 H   0  0  0  0  0  0  0  0  0  0  0  0
  146.1469  133.5177  153.6379 H   0  0  0  0  0  0  0  0  0  0  0  0
  147.2131  134.3265  152.5226 H   0  0  0  0  0  0  0  0  0  0  0  0
  145.6707  135.6754  154.7994 H   0  0  0  0  0  0  0  0  0  0  0  0
  147.3944  135.3852  154.7140 H   0  0  0  0  0  0  0  0  0  0  0  0
  146.2065  138.2077  154.9974 H   0  0  0  0  0  0  0  0  0  0  0  0
  147.8703  137.6881  154.9964 H   0  0  0  0  0  0  0  0  0  0  0  0
  146.6446  139.7320  153.0879 H   0  0  0  0  0  0  0  0  0  0  0  0
  148.2397  138.0954  152.2657 H   0  0  0  0  0  0  0  0  0  0  0  0
  148.9553  139.9166  155.0811 H   0  0  0  0  0  0  0  0  0  0  0  0
  148.4328  141.2050  154.0216 H   0  0  0  0  0  0  0  0  0  0  0  0
  147.5660  139.4054  157.1551 H   0  0  0  0  0  0  0  0  0  0  0  0
  143.9797  142.7259  157.9263 H   0  0  0  0  0  0  0  0  0  0  0  0
  146.3710  142.7108  153.5453 H   0  0  0  0  0  0  0  0  0  0  0  0
  144.6453  137.3611  153.1506 H   0  0  0  0  0  0  0  0  0  0  0  0
  145.7032  138.1622  152.0152 H   0  0  0  0  0  0  0  0  0  0  0  0
  146.1610  136.0792  150.8206 H   0  0  0  0  0  0  0  0  0  0  0  0
  144.4412  136.3532  150.8770 H   0  0  0  0  0  0  0  0  0  0  0  0
  147.4971  136.7799  152.8043 H   0  0  0  0  0  0  0  0  0  0  0  0
  1  2  1  0  0  0  0
  1 23  1  0  0  0  0
  1 24  1  0  0  0  0
  1 25  1  0  0  0  0
  2 22  1  0  0  0  0
  2  3  1  0  0  0  0
  2 26  1  0  0  0  0
  3  4  1  0  0  0  0
  3 27  1  0  0  0  0
  3 28  1  0  0  0  0
  4  5  1  0  0  0  0
  4 29  1  0  0  0  0
  4 30  1  0  0  0  0
  5  6  1  0  0  0  0
  5 21  1  0  0  0  0
  5 44  1  0  0  0  0
  6  7  1  0  0  0  0
  6 31  1  0  0  0  0
  6 32  1  0  0  0  0
  7  8  1  0  0  0  0
  7  9  1  0  0  0  0
  7 33  1  0  0  0  0
  8 34  1  0  0  0  0
  9 10  1  0  0  0  0
  9 35  1  0  0  0  0
  9 36  1  0  0  0  0
 10 20  1  0  0  0  0
 10 11  1  0  0  0  0
 11 12  2  0  0  0  0
 11 37  1  0  0  0  0
 12 13  1  0  0  0  0
 13 20  2  0  0  0  0
 13 14  1  0  0  0  0
 14 15  2  0  0  0  0
 14 38  1  0  0  0  0
 15 16  1  0  0  0  0
 15 17  1  0  0  0  0
 17 18  1  0  0  0  0
 17 19  2  0  0  0  0
 19 20  1  0  0  0  0
 19 39  1  0  0  0  0
 21 22  1  0  0  0  0
 21 40  1  0  0  0  0
 21 41  1  0  0  0  0
 22 42  1  0  0  0  0
 22 43  1  0  0  0  0
M  CHG  1   5   1
M  END
> <s_m_source_file>
AV-unprocessed.smi

> <i_m_source_file_index>
1702

> <i_lp_mmshare_version>
43012

> <i_f3d_flags>
0

> <s_epik_input>
W0NIM11bQ0hdMVtDSDJdW0NIMl1OKFtDSDJdW0NIMl0xKVtDSDJdW0NASF0oW09IXSlbQ0gyXW4oW2NIXW4yKWMoYzIzKVtjSF1jKEYpYyhGKVtjSF0z

> <s_epik_cmdline>
J2VwaWtfcHl0aG9uJywgJy1waCcsICc3LjAnLCAnLXRuJywgJzgnLCAnLW1hJywgJzIwMCcsICctbWV0YWxfYmluZGluZycsICctaW1hZScsICc8aW5maWxlLm1hZT4nLCAnLW9tYWUnLCAnPG91dGZpbGUubWFlPic=

> <r_epik_Ionization_Penalty>
0.0135195

> <r_epik_Ionization_Penalty_Charging>
0.00181365

> <r_epik_Ionization_Penalty_Neutral>
0.0117059

> <r_epik_State_Penalty>
0.00902283

> <r_epik_Charging_Adjusted_Penalty>
0.0108365

> <i_epik_Tot_Q>
1

> <i_epik_Tot_abs_Q>
1

> <r_epik_Metal_State_Penalty>
9.09181e-06

> <b_epik_Metal_Only>
0

> <s_lp_Force_Field>
OPLS_2005

> <r_lp_Energy>
24.0829

> <b_lp_Chiralities_Consistent>
1

> <s_lp_Variant>
AV-unprocessed.smi:1702-3

> <Gold.Version>
5.8.1

> <Gold.Id.Protein>
6NUR|6NUR_protein|mol2

> <Gold.PLP.Fitness>
45.6961

> <Gold.PLP.PLP>
-37.5615

> <Gold.PLP.part.hbond>
-2.4057

> <Gold.PLP.part.metal>
0.0000

> <Gold.PLP.part.buried>
-6.2810

> <Gold.PLP.part.nonpolar>
-29.4446

> <Gold.PLP.part.repulsive>
0.0056

> <Gold.PLP.ligand.clash>
0.0000

> <Gold.PLP.ligand.torsion>
0.4502

> <Gold.PLP.Chemscore.Hbond>
3.0000

> <Gold.PLP.Chemscore.CHOScore>
0.0000

> <Gold.PLP.Chemscore.Metal>
0.0000

> <Gold.Chemscore.Hbonds>
donor molecule, donor type, donor heavy atom, donor atom, acceptor molecule, acceptor atom, score
      L1  H     5    44       P1  7948  2.00
      L1  H     8    34       P1  7948  0.88

> <Gold.PLP.Chemscore.Internal.Correction>
0.0350

> <Gold.Rescore>
     Score         DG    S(hbond)    S(metal)    S(lipo)     H(rot)  DE(clash)    DE(int)     intcor
     13.95     -14.68       1.97        0.00      71.89       2.26       0.17       0.56       ----

> <Gold.Chemscore.Fitness>
13.9457

> <Gold.Chemscore.DG>
-14.6782

> <Gold.Chemscore.ZeroCoef>
-5.4800

> <Gold.Chemscore.Hbond>
1.9692

> <Gold.Chemscore.Metal>
0.0000

> <Gold.Chemscore.Lipo>
71.8929

> <Gold.Chemscore.Internal_Hbond>
0.0000

> <Gold.Chemscore.DEClash>
0.1705

> <Gold.Chemscore.DEInternal>
0.5620

> <Gold.Chemscore.Rot>
2.2619

> <Gold.Chemscore.Internal.Correction>
   9.000000E+99

> <Gold.Chemscore.Hbonds>
donor molecule, donor type, donor heavy atom, donor atom, acceptor molecule, acceptor atom, score
      L1  H     5    44       P1  7948  1.00
      L1  H     8    34       P1  7948  0.82

> <Gold.Chemscore.Hbond.Weighted>
-6.5771

> <Gold.Chemscore.Metal.Weighted>
-0.0000

> <Gold.Chemscore.Lipo.Weighted>
-8.4115

> <Gold.Chemscore.Internal_Hbond.Weighted>
0.0000

> <Gold.Chemscore.DEClash.Weighted>
0.1705

> <Gold.Chemscore.DEInternal.Weighted>
0.5620

> <Gold.Chemscore.Rot.Weighted>
5.7904

> <Gold.Chemscore.Internal.Correction.Weighted>
   9.000000E+99

> <Gold.Protein.RotatedTorsions>
[ 6907 6896 6895 6894 ] final  160.65 input  -60.11 | X-H torsion
[ 7974 7965 7964 7962 ] final -162.18 input  175.53 | X-H torsion
[ 8008 7997 7996 7995 ] final  134.73 input   59.86 | X-H torsion
[ 10167 10162 10161 10158 ] final -130.88 input  -65.29 | X-H torsion
[ 10718 10713 10712 10709 ] final  152.43 input   66.30 | X-H torsion
[ 10763 10752 10751 10750 ] final   60.41 input  -60.55 | X-H torsion
[ 11005 11000 10999 10996 ] final -134.67 input  -57.11 | X-H torsion

> <Gold.Protein.ActiveResidues>
 VAL166  LYS551  ARG553  GLY616  TRP617  ASP618  TYR619  PRO620  LYS621  CYS622 
 ASP623  PHE694  ASN695  SER759  ASP760  ASP761  ALA762  ILE779  LEU786  VAL792 
 PHE793  MET794  SER795  GLU796  ALA797  LYS798  CYS799  TRP800  GLU811  SER814 

> <Gold.Protein.RotatedAtoms>
  151.9674  133.3714  159.4057 H   0  0  0  0  0  0  0  0  0  0  0  0  # atno 6907 bound_to 6896
  150.6954  134.4176  159.5199 H   0  0  0  0  0  0  0  0  0  0  0  0  # atno 6908 bound_to 6896
  152.1875  134.8701  160.0571 H   0  0  0  0  0  0  0  0  0  0  0  0  # atno 6909 bound_to 6896
  144.7366  140.3289  143.6157 H   0  0  0  0  0  0  0  0  0  0  0  0  # atno 7974 bound_to 7965
  156.3000  140.2488  156.3466 H   0  0  0  0  0  0  0  0  0  0  0  0  # atno 8008 bound_to 7997
  154.9005  140.0406  157.1910 H   0  0  0  0  0  0  0  0  0  0  0  0  # atno 8009 bound_to 7997
  154.8505  140.2905  155.5605 H   0  0  0  0  0  0  0  0  0  0  0  0  # atno 8010 bound_to 7997
  139.9247  143.6341  152.2545 H   0  0  0  0  0  0  0  0  0  0  0  0  # atno 10167 bound_to 10162
  157.2579  131.0792  151.1686 H   0  0  0  0  0  0  0  0  0  0  0  0  # atno 10718 bound_to 10713
  152.9920  135.5537  154.5870 H   0  0  0  0  0  0  0  0  0  0  0  0  # atno 10763 bound_to 10752
  154.5239  135.2809  155.1241 H   0  0  0  0  0  0  0  0  0  0  0  0  # atno 10764 bound_to 10752
  154.2583  135.6386  153.5318 H   0  0  0  0  0  0  0  0  0  0  0  0  # atno 10765 bound_to 10752
  140.8969  134.1741  157.4488 H   0  0  0  0  0  0  0  0  0  0  0  0  # atno 11005 bound_to 11000
  145.7492  139.1788  143.2331 LP  0  0  0  0  0  0  0  0  0  0  0  0  # atno 17320 bound_to 7965
  146.1074  140.7470  142.9520 LP  0  0  0  0  0  0  0  0  0  0  0  0  # atno 17321 bound_to 7965
  139.6832  144.7654  151.1571 LP  0  0  0  0  0  0  0  0  0  0  0  0  # atno 17342 bound_to 10162
  140.7653  143.5694  150.9012 LP  0  0  0  0  0  0  0  0  0  0  0  0  # atno 17343 bound_to 10162
  157.3208  130.6936  149.6268 LP  0  0  0  0  0  0  0  0  0  0  0  0  # atno 17370 bound_to 10713
  155.9664  130.4336  150.5013 LP  0  0  0  0  0  0  0  0  0  0  0  0  # atno 17371 bound_to 10713
  139.8737  134.9882  156.5401 LP  0  0  0  0  0  0  0  0  0  0  0  0  # atno 17394 bound_to 11000
  140.8278  133.8302  155.8956 LP  0  0  0  0  0  0  0  0  0  0  0  0  # atno 17395 bound_to 11000

$$$$
