AV-unprocessed.smi:236|AV-procd|sdf|1810|dock4
  -GOLD-   2262020393D 1   1.00000     0.00000
 Structure written by MMmdl.
 58 62  0  0  0  0  0  0  0  0  1 V2000
  145.2538  132.8319  151.2046 C   0  0  0  0  0  0  0  0  0  0  0  0
  145.6442  134.0683  152.0304 C   0  0  1  0  0  0  0  0  0  0  0  0
  145.8881  135.1539  151.1410 O   0  0  0  0  0  0  0  0  0  0  0  0
  145.5870  136.3629  151.8143 C   0  0  0  0  0  0  0  0  0  0  0  0
  144.3136  136.0037  152.5622 C   0  0  0  0  0  0  0  0  0  0  0  0
  144.5957  134.5834  153.0561 C   0  0  1  0  0  0  0  0  0  0  0  0
  143.3830  133.8496  153.0129 O   0  0  0  0  0  0  0  0  0  0  0  0
  145.1560  134.5219  154.5017 C   0  0  0  0  0  0  0  0  0  0  0  0
  146.2538  135.4424  154.7597 N   0  0  0  0  0  0  0  0  0  0  0  0
  146.1546  136.7643  155.1331 C   0  0  0  0  0  0  0  0  0  0  0  0
  147.2917  137.3814  155.3050 N   0  0  0  0  0  0  0  0  0  0  0  0
  148.2485  136.4064  155.0494 C   0  0  0  0  0  0  0  0  0  0  0  0
  149.6721  136.3817  155.0505 C   0  0  0  0  0  0  0  0  0  0  0  0
  150.4636  137.4383  155.3284 N   0  0  0  0  0  0  0  0  0  0  0  0
  151.5312  137.6311  154.3568 C   0  0  0  0  0  0  0  0  0  0  0  0
  152.4763  138.7443  154.8360 C   0  0  0  0  0  0  0  0  0  0  0  0
  151.7252  139.9296  155.0808 O   0  0  0  0  0  0  0  0  0  0  0  0
  150.7444  139.7532  156.1019 C   0  0  1  0  0  0  0  0  0  0  0  0
  150.0520  141.1014  156.3378 C   0  0  0  0  0  0  0  0  0  0  0  0
  151.0260  142.0599  156.7160 O   0  0  0  0  0  0  0  0  0  0  0  0
  150.9319  142.4254  158.0816 C   0  0  0  0  0  0  0  0  0  0  0  0
  151.3607  143.8691  158.2358 C   0  0  0  0  0  0  0  0  0  0  0  0
  152.7958  144.2192  158.5594 C   0  0  0  0  0  0  0  0  0  0  0  0
  151.7219  144.4155  159.5985 C   0  0  0  0  0  0  0  0  0  0  0  0
  149.7499  138.6710  155.6384 C   0  0  0  0  0  0  0  0  0  0  0  0
  150.2893  135.2176  154.7327 N   0  0  0  0  0  0  0  0  0  0  0  0
  149.5625  134.1350  154.4390 C   0  0  0  0  0  0  0  0  0  0  0  0
  148.2343  134.0061  154.3991 N   0  0  0  0  0  0  0  0  0  0  0  0
  147.6119  135.1794  154.7108 C   0  0  0  0  0  0  0  0  0  0  0  0
  145.0684  131.9712  151.8473 H   0  0  0  0  0  0  0  0  0  0  0  0
  146.0518  132.5612  150.5129 H   0  0  0  0  0  0  0  0  0  0  0  0
  144.3555  133.0148  150.6142 H   0  0  0  0  0  0  0  0  0  0  0  0
  146.5859  133.8585  152.5397 H   0  0  0  0  0  0  0  0  0  0  0  0
  146.3929  136.6184  152.5043 H   0  0  0  0  0  0  0  0  0  0  0  0
  145.4491  137.1892  151.1168 H   0  0  0  0  0  0  0  0  0  0  0  0
  144.0658  136.7192  153.3444 H   0  0  0  0  0  0  0  0  0  0  0  0
  143.4854  136.0048  151.8514 H   0  0  0  0  0  0  0  0  0  0  0  0
  143.4116  133.1857  153.6846 H   0  0  0  0  0  0  0  0  0  0  0  0
  144.3618  134.7360  155.2181 H   0  0  0  0  0  0  0  0  0  0  0  0
  145.5013  133.5123  154.7277 H   0  0  0  0  0  0  0  0  0  0  0  0
  145.2051  137.2616  155.2690 H   0  0  0  0  0  0  0  0  0  0  0  0
  152.0859  136.7018  154.2212 H   0  0  0  0  0  0  0  0  0  0  0  0
  151.1053  137.8986  153.3891 H   0  0  0  0  0  0  0  0  0  0  0  0
  153.0068  138.4432  155.7407 H   0  0  0  0  0  0  0  0  0  0  0  0
  153.2311  138.9503  154.0772 H   0  0  0  0  0  0  0  0  0  0  0  0
  151.2262  139.4312  157.0272 H   0  0  0  0  0  0  0  0  0  0  0  0
  149.5185  141.4185  155.4402 H   0  0  0  0  0  0  0  0  0  0  0  0
  149.3187  141.0070  157.1405 H   0  0  0  0  0  0  0  0  0  0  0  0
  149.9032  142.3226  158.4298 H   0  0  0  0  0  0  0  0  0  0  0  0
  151.5623  141.7829  158.6985 H   0  0  0  0  0  0  0  0  0  0  0  0
  150.8305  144.5578  157.5807 H   0  0  0  0  0  0  0  0  0  0  0  0
  153.4971  143.4006  158.7102 H   0  0  0  0  0  0  0  0  0  0  0  0
  153.2120  145.1087  158.0908 H   0  0  0  0  0  0  0  0  0  0  0  0
  151.4230  145.4369  159.8251 H   0  0  0  0  0  0  0  0  0  0  0  0
  151.7078  143.7278  160.4419 H   0  0  0  0  0  0  0  0  0  0  0  0
  149.2098  139.0226  154.7589 H   0  0  0  0  0  0  0  0  0  0  0  0
  149.0107  138.4811  156.4178 H   0  0  0  0  0  0  0  0  0  0  0  0
  150.1260  133.2450  154.2001 H   0  0  0  0  0  0  0  0  0  0  0  0
  1  2  1  0  0  0  0
  1 30  1  0  0  0  0
  1 31  1  0  0  0  0
  1 32  1  0  0  0  0
  2  6  1  0  0  0  0
  2  3  1  0  0  0  0
  2 33  1  0  0  0  0
  3  4  1  0  0  0  0
  4  5  1  0  0  0  0
  4 34  1  0  0  0  0
  4 35  1  0  0  0  0
  5  6  1  0  0  0  0
  5 36  1  0  0  0  0
  5 37  1  0  0  0  0
  6  7  1  0  0  0  0
  6  8  1  0  0  0  0
  7 38  1  0  0  0  0
  8  9  1  0  0  0  0
  8 39  1  0  0  0  0
  8 40  1  0  0  0  0
  9 29  1  0  0  0  0
  9 10  1  0  0  0  0
 10 11  2  0  0  0  0
 10 41  1  0  0  0  0
 11 12  1  0  0  0  0
 12 29  2  0  0  0  0
 12 13  1  0  0  0  0
 13 14  1  0  0  0  0
 13 26  2  0  0  0  0
 14 25  1  0  0  0  0
 14 15  1  0  0  0  0
 15 16  1  0  0  0  0
 15 42  1  0  0  0  0
 15 43  1  0  0  0  0
 16 17  1  0  0  0  0
 16 44  1  0  0  0  0
 16 45  1  0  0  0  0
 17 18  1  0  0  0  0
 18 19  1  0  0  0  0
 18 25  1  0  0  0  0
 18 46  1  0  0  0  0
 19 20  1  0  0  0  0
 19 47  1  0  0  0  0
 19 48  1  0  0  0  0
 20 21  1  0  0  0  0
 21 22  1  0  0  0  0
 21 49  1  0  0  0  0
 21 50  1  0  0  0  0
 22 24  1  0  0  0  0
 22 23  1  0  0  0  0
 22 51  1  0  0  0  0
 23 24  1  0  0  0  0
 23 52  1  0  0  0  0
 23 53  1  0  0  0  0
 24 54  1  0  0  0  0
 24 55  1  0  0  0  0
 25 56  1  0  0  0  0
 25 57  1  0  0  0  0
 26 27  1  0  0  0  0
 27 28  2  0  0  0  0
 27 58  1  0  0  0  0
 28 29  1  0  0  0  0
M  END
> <s_m_source_file>
AV-unprocessed.smi

> <i_m_source_file_index>
236

> <i_lp_mmshare_version>
43012

> <i_f3d_flags>
0

> <s_epik_input>
W0NIMl0xW0NIMl1PW0NAQEhdKFtDSDNdKVtDQEBdMShbT0hdKVtDSDJdbihbY0hdbjIpYyhjMjMpbltjSF1uYzNONFtDSDJdW0NIMl1PW0NASF0oW0NIMl00KVtDSDJdT1tDSDJdW0NIXTVbQ0gyXVtDSDJdNQ==

> <s_epik_cmdline>
J2VwaWtfcHl0aG9uJywgJy1waCcsICc3LjAnLCAnLXRuJywgJzgnLCAnLW1hJywgJzIwMCcsICctbWV0YWxfYmluZGluZycsICctaW1hZScsICc8aW5maWxlLm1hZT4nLCAnLW9tYWUnLCAnPG91dGZpbGUubWFlPic=

> <r_lp_tautomer_probability>
1

> <r_epik_Ionization_Penalty>
7.21838e-05

> <r_epik_Ionization_Penalty_Charging>
0

> <r_epik_Ionization_Penalty_Neutral>
7.21838e-05

> <r_epik_State_Penalty>
-0

> <r_epik_Charging_Adjusted_Penalty>
0

> <i_epik_Tot_Q>
0

> <i_epik_Tot_abs_Q>
0

> <r_epik_Metal_State_Penalty>
-0

> <b_epik_Metal_Only>
0

> <s_lp_Force_Field>
OPLS_2005

> <r_lp_Energy>
50.1764

> <b_lp_Chiralities_Consistent>
1

> <s_lp_Variant>
AV-unprocessed.smi:236-2

> <Gold.Version>
5.8.1

> <Gold.Id.Protein>
6NUR|6NUR_protein|mol2

> <Gold.PLP.Fitness>
48.2665

> <Gold.PLP.PLP>
-44.1607

> <Gold.PLP.part.hbond>
-2.0000

> <Gold.PLP.part.metal>
0.0000

> <Gold.PLP.part.buried>
-7.7887

> <Gold.PLP.part.nonpolar>
-36.9286

> <Gold.PLP.part.repulsive>
0.7751

> <Gold.PLP.ligand.clash>
0.0000

> <Gold.PLP.ligand.torsion>
1.3980

> <Gold.PLP.Chemscore.Hbond>
2.0000

> <Gold.PLP.Chemscore.CHOScore>
0.0000

> <Gold.PLP.Chemscore.Metal>
0.0000

> <Gold.Chemscore.Hbonds>
donor molecule, donor type, donor heavy atom, donor atom, acceptor molecule, acceptor atom, score
      L1  H     7    38       P1 10957  1.00
      P1  H  7989  7998       L1    17  1.00

> <Gold.PLP.Chemscore.Internal.Correction>
0.9017

> <Gold.Rescore>
     Score         DG    S(hbond)    S(metal)    S(lipo)     H(rot)  DE(clash)    DE(int)     intcor
     14.33     -17.33       1.91        0.00     109.42       2.87       0.22       2.78       ----

> <Gold.Chemscore.Fitness>
14.3295

> <Gold.Chemscore.DG>
-17.3297

> <Gold.Chemscore.ZeroCoef>
-5.4800

> <Gold.Chemscore.Hbond>
1.9113

> <Gold.Chemscore.Metal>
0.0000

> <Gold.Chemscore.Lipo>
109.4174

> <Gold.Chemscore.Internal_Hbond>
0.0000

> <Gold.Chemscore.DEClash>
0.2195

> <Gold.Chemscore.DEInternal>
2.7807

> <Gold.Chemscore.Rot>
2.8655

> <Gold.Chemscore.Internal.Correction>
   9.000000E+99

> <Gold.Chemscore.Hbonds>
donor molecule, donor type, donor heavy atom, donor atom, acceptor molecule, acceptor atom, score
      L1  H     7    38       P1 10957  0.95
      P1  H  7989  7998       L1    17  0.57

> <Gold.Chemscore.Hbond.Weighted>
-6.3836

> <Gold.Chemscore.Metal.Weighted>
-0.0000

> <Gold.Chemscore.Lipo.Weighted>
-12.8018

> <Gold.Chemscore.Internal_Hbond.Weighted>
0.0000

> <Gold.Chemscore.DEClash.Weighted>
0.2195

> <Gold.Chemscore.DEInternal.Weighted>
2.7807

> <Gold.Chemscore.Rot.Weighted>
7.3358

> <Gold.Chemscore.Internal.Correction.Weighted>
   9.000000E+99

> <Gold.Protein.RotatedTorsions>
[ 6907 6896 6895 6894 ] final -147.34 input  -60.11 | X-H torsion
[ 7974 7965 7964 7962 ] final  149.80 input  175.53 | X-H torsion
[ 8008 7997 7996 7995 ] final -144.24 input   59.86 | X-H torsion
[ 10167 10162 10161 10158 ] final -153.86 input  -65.29 | X-H torsion
[ 10718 10713 10712 10709 ] final  -36.69 input   66.30 | X-H torsion
[ 10763 10752 10751 10750 ] final   98.28 input  -60.55 | X-H torsion
[ 11005 11000 10999 10996 ] final -145.49 input  -57.11 | X-H torsion

> <Gold.Protein.ActiveResidues>
 VAL166  LYS551  ARG553  GLY616  TRP617  ASP618  TYR619  PRO620  LYS621  CYS622 
 ASP623  PHE694  ASN695  SER759  ASP760  ASP761  ALA762  ILE779  LEU786  VAL792 
 PHE793  MET794  SER795  GLU796  ALA797  LYS798  CYS799  TRP800  GLU811  SER814 

> <Gold.Protein.RotatedAtoms>
  151.1544  133.4886  159.2594 H   0  0  0  0  0  0  0  0  0  0  0  0  # atno 6907 bound_to 6896
  151.1520  135.0231  159.8682 H   0  0  0  0  0  0  0  0  0  0  0  0  # atno 6908 bound_to 6896
  152.5463  134.1427  159.8538 H   0  0  0  0  0  0  0  0  0  0  0  0  # atno 6909 bound_to 6896
  144.8411  139.6326  143.6016 H   0  0  0  0  0  0  0  0  0  0  0  0  # atno 7974 bound_to 7965
  155.5238  140.0593  157.2902 H   0  0  0  0  0  0  0  0  0  0  0  0  # atno 8008 bound_to 7997
  154.4508  140.1948  156.0470 H   0  0  0  0  0  0  0  0  0  0  0  0  # atno 8009 bound_to 7997
  156.0700  140.3261  155.7569 H   0  0  0  0  0  0  0  0  0  0  0  0  # atno 8010 bound_to 7997
  139.7061  143.9184  152.2449 H   0  0  0  0  0  0  0  0  0  0  0  0  # atno 10167 bound_to 10162
  156.3239  130.4269  149.7934 H   0  0  0  0  0  0  0  0  0  0  0  0  # atno 10718 bound_to 10713
  153.2872  135.4154  155.1133 H   0  0  0  0  0  0  0  0  0  0  0  0  # atno 10763 bound_to 10752
  154.8508  135.3509  154.6031 H   0  0  0  0  0  0  0  0  0  0  0  0  # atno 10764 bound_to 10752
  153.6453  135.7055  153.5285 H   0  0  0  0  0  0  0  0  0  0  0  0  # atno 10765 bound_to 10752
  140.7917  134.2961  157.5011 H   0  0  0  0  0  0  0  0  0  0  0  0  # atno 11005 bound_to 11000
  146.2703  139.6620  142.9300 LP  0  0  0  0  0  0  0  0  0  0  0  0  # atno 17320 bound_to 7965
  145.4691  141.0435  143.2708 LP  0  0  0  0  0  0  0  0  0  0  0  0  # atno 17321 bound_to 7965
  139.9040  144.6895  150.8634 LP  0  0  0  0  0  0  0  0  0  0  0  0  # atno 17342 bound_to 10162
  140.7722  143.3492  151.2048 LP  0  0  0  0  0  0  0  0  0  0  0  0  # atno 17343 bound_to 10162
  156.5232  130.8224  151.3211 LP  0  0  0  0  0  0  0  0  0  0  0  0  # atno 17370 bound_to 10713
  157.7417  130.9876  150.2466 LP  0  0  0  0  0  0  0  0  0  0  0  0  # atno 17371 bound_to 10713
  139.8730  134.9378  156.3697 LP  0  0  0  0  0  0  0  0  0  0  0  0  # atno 17394 bound_to 11000
  140.9383  133.7532  156.0113 LP  0  0  0  0  0  0  0  0  0  0  0  0  # atno 17395 bound_to 11000

$$$$
