AV-unprocessed.smi:1946|AV-procd|sdf|7862|dock1
  -GOLD-   2272010 13D 1   1.00000     0.00000
 Structure written by MMmdl.
 38 40  0  0  0  0  0  0  0  0  1 V2000
  143.6681  144.9040  154.0110 C   0  0  0  0  0  0  0  0  0  0  0  0
  143.6267  143.7921  155.4748 S   0  0  0  0  0  0  0  0  0  0  0  0
  143.6836  144.6279  156.6841 O   0  0  0  0  0  0  0  0  0  0  0  0
  142.5152  142.8446  155.2969 O   0  0  0  0  0  0  0  0  0  0  0  0
  145.1603  142.8785  155.3554 C   0  0  0  0  0  0  0  0  0  0  0  0
  145.6798  142.5518  154.0873 C   0  0  0  0  0  0  0  0  0  0  0  0
  146.9008  141.8564  153.9930 C   0  0  0  0  0  0  0  0  0  0  0  0
  147.6075  141.4931  155.1615 C   0  0  0  0  0  0  0  0  0  0  0  0
  148.9269  140.7429  155.0622 C   0  0  1  0  0  0  0  0  0  0  0  0
  149.0753  140.0935  153.8139 O   0  0  0  0  0  0  0  0  0  0  0  0
  150.1258  141.6788  155.3147 C   0  0  0  0  0  0  0  0  0  0  0  0
  150.6408  141.5750  156.6689 N   0  0  0  0  0  0  0  0  0  0  0  0
  150.7178  140.4621  157.4234 C   0  0  0  0  0  0  0  0  0  0  0  0
  151.2271  140.5876  158.6455 N   0  0  0  0  0  0  0  0  0  0  0  0
  151.5154  141.9410  158.6899 C   0  0  0  0  0  0  0  0  0  0  0  0
  152.0817  142.7243  159.7209 C   0  0  0  0  0  0  0  0  0  0  0  0
  152.2869  144.1077  159.5365 C   0  0  0  0  0  0  0  0  0  0  0  0
  151.9307  144.7279  158.3212 C   0  0  0  0  0  0  0  0  0  0  0  0
  151.3643  143.9680  157.2797 C   0  0  0  0  0  0  0  0  0  0  0  0
  151.1601  142.5882  157.4679 C   0  0  0  0  0  0  0  0  0  0  0  0
  147.0872  141.8431  156.4268 C   0  0  0  0  0  0  0  0  0  0  0  0
  145.8667  142.5394  156.5264 C   0  0  0  0  0  0  0  0  0  0  0  0
  142.7633  145.5111  153.9921 H   0  0  0  0  0  0  0  0  0  0  0  0
  143.7230  144.3070  153.1009 H   0  0  0  0  0  0  0  0  0  0  0  0
  144.5400  145.5547  154.0720 H   0  0  0  0  0  0  0  0  0  0  0  0
  145.1490  142.8303  153.1888 H   0  0  0  0  0  0  0  0  0  0  0  0
  147.2955  141.6041  153.0196 H   0  0  0  0  0  0  0  0  0  0  0  0
  148.9322  139.9590  155.8206 H   0  0  0  0  0  0  0  0  0  0  0  0
  149.4235  140.7145  153.1925 H   0  0  0  0  0  0  0  0  0  0  0  0
  150.9361  141.4623  154.6172 H   0  0  0  0  0  0  0  0  0  0  0  0
  149.8351  142.7156  155.1407 H   0  0  0  0  0  0  0  0  0  0  0  0
  150.3815  139.5043  157.0539 H   0  0  0  0  0  0  0  0  0  0  0  0
  152.3598  142.2598  160.6553 H   0  0  0  0  0  0  0  0  0  0  0  0
  152.7211  144.6959  160.3316 H   0  0  0  0  0  0  0  0  0  0  0  0
  152.0937  145.7874  158.1882 H   0  0  0  0  0  0  0  0  0  0  0  0
  151.0934  144.4384  156.3463 H   0  0  0  0  0  0  0  0  0  0  0  0
  147.6231  141.5804  157.3272 H   0  0  0  0  0  0  0  0  0  0  0  0
  145.4790  142.8076  157.4981 H   0  0  0  0  0  0  0  0  0  0  0  0
  1  2  1  0  0  0  0
  1 23  1  0  0  0  0
  1 24  1  0  0  0  0
  1 25  1  0  0  0  0
  2  3  2  0  0  0  0
  2  4  2  0  0  0  0
  2  5  1  0  0  0  0
  5 22  1  0  0  0  0
  5  6  2  0  0  0  0
  6  7  1  0  0  0  0
  6 26  1  0  0  0  0
  7  8  2  0  0  0  0
  7 27  1  0  0  0  0
  8  9  1  0  0  0  0
  8 21  1  0  0  0  0
  9 10  1  0  0  0  0
  9 11  1  0  0  0  0
  9 28  1  0  0  0  0
 10 29  1  0  0  0  0
 11 12  1  0  0  0  0
 11 30  1  0  0  0  0
 11 31  1  0  0  0  0
 12 20  1  0  0  0  0
 12 13  1  0  0  0  0
 13 14  2  0  0  0  0
 13 32  1  0  0  0  0
 14 15  1  0  0  0  0
 15 20  2  0  0  0  0
 15 16  1  0  0  0  0
 16 17  2  0  0  0  0
 16 33  1  0  0  0  0
 17 18  1  0  0  0  0
 17 34  1  0  0  0  0
 18 19  2  0  0  0  0
 18 35  1  0  0  0  0
 19 20  1  0  0  0  0
 19 36  1  0  0  0  0
 21 22  2  0  0  0  0
 21 37  1  0  0  0  0
 22 38  1  0  0  0  0
M  END
> <s_m_source_file>
AV-unprocessed.smi

> <i_m_source_file_index>
1946

> <i_lp_mmshare_version>
43012

> <i_f3d_flags>
0

> <s_epik_input>
W0NIM11TKD1PKSg9TyljMVtjSF1bY0hdYyhbY0hdW2NIXTEpW0NASF0oW09IXSlbQ0gyXW4oW2NIXW4yKWMoYzIzKVtjSF1bY0hdW2NIXVtjSF0z

> <s_epik_cmdline>
J2VwaWtfcHl0aG9uJywgJy1waCcsICc3LjAnLCAnLXRuJywgJzgnLCAnLW1hJywgJzIwMCcsICctbWV0YWxfYmluZGluZycsICctaW1hZScsICc8aW5maWxlLm1hZT4nLCAnLW9tYWUnLCAnPG91dGZpbGUubWFlPic=

> <r_epik_Ionization_Penalty>
0.0696512

> <r_epik_Ionization_Penalty_Charging>
0

> <r_epik_Ionization_Penalty_Neutral>
0.0696512

> <r_epik_State_Penalty>
0.0610247

> <r_epik_Charging_Adjusted_Penalty>
0.0610247

> <i_epik_Tot_Q>
0

> <i_epik_Tot_abs_Q>
0

> <r_epik_Metal_State_Penalty>
6.42746e-05

> <b_epik_Metal_Only>
0

> <s_lp_Force_Field>
OPLS_2005

> <r_lp_Energy>
10.2228

> <b_lp_Chiralities_Consistent>
1

> <s_lp_Variant>
AV-unprocessed.smi:1946-2

> <Gold.Version>
5.8.1

> <Gold.Id.Protein>
6NUR|6NUR_protein|mol2

> <Gold.PLP.Fitness>
45.0780

> <Gold.PLP.PLP>
-47.2856

> <Gold.PLP.part.hbond>
-1.0000

> <Gold.PLP.part.metal>
0.0000

> <Gold.PLP.part.buried>
-5.2236

> <Gold.PLP.part.nonpolar>
-40.9167

> <Gold.PLP.part.repulsive>
0.2082

> <Gold.PLP.ligand.clash>
0.0000

> <Gold.PLP.ligand.torsion>
2.5949

> <Gold.PLP.Chemscore.Hbond>
0.2925

> <Gold.PLP.Chemscore.CHOScore>
0.0000

> <Gold.PLP.Chemscore.Metal>
0.0000

> <Gold.Chemscore.Hbonds>
donor molecule, donor type, donor heavy atom, donor atom, acceptor molecule, acceptor atom, score
      L1  H    10    29       P1  7957  0.24

> <Gold.PLP.Chemscore.Internal.Correction>
2.1046

> <Gold.Rescore>
     Score         DG    S(hbond)    S(metal)    S(lipo)     H(rot)  DE(clash)    DE(int)     intcor
     12.47     -15.14       0.36        0.00     115.62       1.98       0.29       2.39       ----

> <Gold.Chemscore.Fitness>
12.4657

> <Gold.Chemscore.DG>
-15.1438

> <Gold.Chemscore.ZeroCoef>
-5.4800

> <Gold.Chemscore.Hbond>
0.3640

> <Gold.Chemscore.Metal>
0.0000

> <Gold.Chemscore.Lipo>
115.6153

> <Gold.Chemscore.Internal_Hbond>
0.0000

> <Gold.Chemscore.DEClash>
0.2888

> <Gold.Chemscore.DEInternal>
2.3893

> <Gold.Chemscore.Rot>
1.9840

> <Gold.Chemscore.Internal.Correction>
   9.000000E+99

> <Gold.Chemscore.Hbonds>
donor molecule, donor type, donor heavy atom, donor atom, acceptor molecule, acceptor atom, score
      L1  H    10    29       P1  7957  0.24

> <Gold.Chemscore.Hbond.Weighted>
-1.2159

> <Gold.Chemscore.Metal.Weighted>
-0.0000

> <Gold.Chemscore.Lipo.Weighted>
-13.5270

> <Gold.Chemscore.Internal_Hbond.Weighted>
0.0000

> <Gold.Chemscore.DEClash.Weighted>
0.2888

> <Gold.Chemscore.DEInternal.Weighted>
2.3893

> <Gold.Chemscore.Rot.Weighted>
5.0791

> <Gold.Chemscore.Internal.Correction.Weighted>
   9.000000E+99

> <Gold.Protein.RotatedTorsions>
[ 6907 6896 6895 6894 ] final   23.76 input  -60.11 | X-H torsion
[ 7974 7965 7964 7962 ] final  -86.66 input  175.53 | X-H torsion
[ 8008 7997 7996 7995 ] final  162.87 input   59.86 | X-H torsion
[ 10167 10162 10161 10158 ] final  148.19 input  -65.29 | X-H torsion
[ 10718 10713 10712 10709 ] final   26.64 input   66.30 | X-H torsion
[ 10763 10752 10751 10750 ] final  -81.53 input  -60.55 | X-H torsion
[ 11005 11000 10999 10996 ] final  101.04 input  -57.11 | X-H torsion

> <Gold.Protein.ActiveResidues>
 VAL166  LYS551  ARG553  GLY616  TRP617  ASP618  TYR619  PRO620  LYS621  CYS622 
 ASP623  PHE694  ASN695  SER759  ASP760  ASP761  ALA762  ILE779  LEU786  VAL792 
 PHE793  MET794  SER795  GLU796  ALA797  LYS798  CYS799  TRP800  GLU811  SER814 

> <Gold.Protein.RotatedAtoms>
  151.9472  135.0186  160.0539 H   0  0  0  0  0  0  0  0  0  0  0  0  # atno 6907 bound_to 6896
  152.1984  133.4819  159.5054 H   0  0  0  0  0  0  0  0  0  0  0  0  # atno 6908 bound_to 6896
  150.6949  134.1539  159.4193 H   0  0  0  0  0  0  0  0  0  0  0  0  # atno 6909 bound_to 6896
  145.4769  140.9558  143.1886 H   0  0  0  0  0  0  0  0  0  0  0  0  # atno 7974 bound_to 7965
  156.2000  140.1739  156.7920 H   0  0  0  0  0  0  0  0  0  0  0  0  # atno 8008 bound_to 7997
  154.5579  140.0705  156.8803 H   0  0  0  0  0  0  0  0  0  0  0  0  # atno 8009 bound_to 7997
  155.2904  140.3355  155.4255 H   0  0  0  0  0  0  0  0  0  0  0  0  # atno 8010 bound_to 7997
  139.4878  144.5698  151.7076 H   0  0  0  0  0  0  0  0  0  0  0  0  # atno 10167 bound_to 10162
  157.2095  130.6928  149.6222 H   0  0  0  0  0  0  0  0  0  0  0  0  # atno 10718 bound_to 10713
  154.5647  135.5623  153.7039 H   0  0  0  0  0  0  0  0  0  0  0  0  # atno 10763 bound_to 10752
  153.0029  135.6282  154.2197 H   0  0  0  0  0  0  0  0  0  0  0  0  # atno 10764 bound_to 10752
  154.2135  135.2872  155.2930 H   0  0  0  0  0  0  0  0  0  0  0  0  # atno 10765 bound_to 10752
  139.8772  134.9166  156.4847 H   0  0  0  0  0  0  0  0  0  0  0  0  # atno 11005 bound_to 11000
  144.7912  139.6325  143.7112 LP  0  0  0  0  0  0  0  0  0  0  0  0  # atno 17320 bound_to 7965
  146.2364  139.5914  142.9521 LP  0  0  0  0  0  0  0  0  0  0  0  0  # atno 17321 bound_to 7965
  140.5283  144.0770  150.6045 LP  0  0  0  0  0  0  0  0  0  0  0  0  # atno 17342 bound_to 10162
  140.3752  143.2833  152.0233 LP  0  0  0  0  0  0  0  0  0  0  0  0  # atno 17343 bound_to 10162
  155.9692  130.4556  150.5892 LP  0  0  0  0  0  0  0  0  0  0  0  0  # atno 17370 bound_to 10713
  157.3686  131.0762  151.1577 LP  0  0  0  0  0  0  0  0  0  0  0  0  # atno 17371 bound_to 10713
  140.8702  133.7994  155.9356 LP  0  0  0  0  0  0  0  0  0  0  0  0  # atno 17394 bound_to 11000
  140.8961  134.2436  157.5068 LP  0  0  0  0  0  0  0  0  0  0  0  0  # atno 17395 bound_to 11000

$$$$
