AV-unprocessed.smi:565|AV-procd|sdf|2951|dock6
  -GOLD-   2262023453D 1   1.00000     0.00000
 Structure written by MMmdl.
 50 51  0  0  0  0  0  0  0  0  2 V2000
  150.6556  145.1007  160.0958 C   0  0  0  0  0  0  0  0  0  0  0  0
  151.6957  144.1136  160.5435 C   0  0  0  0  0  0  0  0  0  0  0  0
  152.0263  144.0625  161.8228 N   0  0  0  0  0  0  0  0  0  0  0  0
  152.9611  143.0946  161.8993 N   0  0  0  0  0  0  0  0  0  0  0  0
  153.5485  142.7723  163.1852 C   0  0  0  0  0  0  0  0  0  0  0  0
  153.2227  142.5326  160.6650 C   0  0  0  0  0  0  0  0  0  0  0  0
  154.2256  141.4382  160.4884 C   0  0  0  0  0  0  0  0  0  0  0  0
  152.4200  143.1699  159.7561 C   0  0  0  0  0  0  0  0  0  0  0  0
  152.3141  142.9457  158.2681 C   0  0  0  0  0  0  0  0  0  0  0  0
  151.0163  142.2013  157.9537 C   0  0  0  0  0  0  0  0  0  0  0  0
  150.3976  141.6325  158.8527 O   0  0  0  0  0  0  0  0  0  0  0  0
  150.6057  142.2238  156.6763 N   0  0  0  0  0  0  0  0  0  0  0  0
  149.3667  141.6326  156.1878 C   0  0  0  0  0  0  0  0  0  0  0  0
  149.3090  140.1251  156.5030 C   0  0  0  0  0  0  0  0  0  0  0  0
  150.4958  139.3905  155.9971 N   0  3  1  0  0  0  0  0  0  0  0  0
  150.8937  139.8419  154.6383 C   0  0  0  0  0  0  0  0  0  0  0  0
  152.0307  138.9739  154.0765 C   0  0  0  0  0  0  0  0  0  0  0  0
  153.2373  138.9703  155.0231 C   0  0  0  0  0  0  0  0  0  0  0  0
  152.8074  138.5301  156.4325 C   0  0  1  0  0  0  0  0  0  0  0  0
  153.9920  138.5425  157.4092 C   0  0  0  0  0  0  0  0  0  0  0  0
  151.6484  139.4128  156.9381 C   0  0  0  0  0  0  0  0  0  0  0  0
  150.8288  145.4194  159.0680 H   0  0  0  0  0  0  0  0  0  0  0  0
  150.6577  145.9954  160.7194 H   0  0  0  0  0  0  0  0  0  0  0  0
  149.6583  144.6636  160.1443 H   0  0  0  0  0  0  0  0  0  0  0  0
  154.6290  142.9095  163.1399 H   0  0  0  0  0  0  0  0  0  0  0  0
  153.3307  141.7343  163.4374 H   0  0  0  0  0  0  0  0  0  0  0  0
  153.1447  143.4174  163.9668 H   0  0  0  0  0  0  0  0  0  0  0  0
  154.3478  141.1757  159.4379 H   0  0  0  0  0  0  0  0  0  0  0  0
  153.9152  140.5404  161.0233 H   0  0  0  0  0  0  0  0  0  0  0  0
  155.2009  141.7405  160.8703 H   0  0  0  0  0  0  0  0  0  0  0  0
  152.3314  143.8846  157.7137 H   0  0  0  0  0  0  0  0  0  0  0  0
  153.1583  142.3639  157.8961 H   0  0  0  0  0  0  0  0  0  0  0  0
  151.1791  142.7115  156.0032 H   0  0  0  0  0  0  0  0  0  0  0  0
  148.5459  142.1642  156.6672 H   0  0  0  0  0  0  0  0  0  0  0  0
  149.2656  141.8053  155.1150 H   0  0  0  0  0  0  0  0  0  0  0  0
  149.2565  140.0052  157.5861 H   0  0  0  0  0  0  0  0  0  0  0  0
  148.3978  139.6792  156.1015 H   0  0  0  0  0  0  0  0  0  0  0  0
  150.0383  139.7863  153.9635 H   0  0  0  0  0  0  0  0  0  0  0  0
  151.2007  140.8885  154.6762 H   0  0  0  0  0  0  0  0  0  0  0  0
  151.6753  137.9531  153.9298 H   0  0  0  0  0  0  0  0  0  0  0  0
  152.3293  139.3414  153.0941 H   0  0  0  0  0  0  0  0  0  0  0  0
  154.0097  138.3041  154.6372 H   0  0  0  0  0  0  0  0  0  0  0  0
  153.6767  139.9682  155.0611 H   0  0  0  0  0  0  0  0  0  0  0  0
  152.4456  137.5026  156.3702 H   0  0  0  0  0  0  0  0  0  0  0  0
  154.4036  139.5461  157.5223 H   0  0  0  0  0  0  0  0  0  0  0  0
  154.7944  137.8915  157.0605 H   0  0  0  0  0  0  0  0  0  0  0  0
  153.6910  138.1927  158.3970 H   0  0  0  0  0  0  0  0  0  0  0  0
  151.9875  140.4415  157.0722 H   0  0  0  0  0  0  0  0  0  0  0  0
  151.3376  139.0548  157.9188 H   0  0  0  0  0  0  0  0  0  0  0  0
  150.2129  138.4257  155.8992 H   0  0  0  0  0  0  0  0  0  0  0  0
  1  2  1  0  0  0  0
  1 22  1  0  0  0  0
  1 23  1  0  0  0  0
  1 24  1  0  0  0  0
  2  8  1  0  0  0  0
  2  3  2  0  0  0  0
  3  4  1  0  0  0  0
  4  5  1  0  0  0  0
  4  6  1  0  0  0  0
  5 25  1  0  0  0  0
  5 26  1  0  0  0  0
  5 27  1  0  0  0  0
  6  7  1  0  0  0  0
  6  8  2  0  0  0  0
  7 28  1  0  0  0  0
  7 29  1  0  0  0  0
  7 30  1  0  0  0  0
  8  9  1  0  0  0  0
  9 10  1  0  0  0  0
  9 31  1  0  0  0  0
  9 32  1  0  0  0  0
 10 11  2  0  0  0  0
 10 12  1  0  0  0  0
 12 13  1  0  0  0  0
 12 33  1  0  0  0  0
 13 14  1  0  0  0  0
 13 34  1  0  0  0  0
 13 35  1  0  0  0  0
 14 15  1  0  0  0  0
 14 36  1  0  0  0  0
 14 37  1  0  0  0  0
 15 21  1  0  0  0  0
 15 16  1  0  0  0  0
 15 50  1  0  0  0  0
 16 17  1  0  0  0  0
 16 38  1  0  0  0  0
 16 39  1  0  0  0  0
 17 18  1  0  0  0  0
 17 40  1  0  0  0  0
 17 41  1  0  0  0  0
 18 19  1  0  0  0  0
 18 42  1  0  0  0  0
 18 43  1  0  0  0  0
 19 20  1  0  0  0  0
 19 21  1  0  0  0  0
 19 44  1  0  0  0  0
 20 45  1  0  0  0  0
 20 46  1  0  0  0  0
 20 47  1  0  0  0  0
 21 48  1  0  0  0  0
 21 49  1  0  0  0  0
M  CHG  1  15   1
M  END
> <s_m_source_file>
AV-unprocessed.smi

> <i_m_source_file_index>
565

> <i_lp_mmshare_version>
43012

> <i_f3d_flags>
0

> <s_epik_input>
W0NIM11jMW5uKFtDSDNdKWMoW0NIM10pYzFbQ0gyXUMoPU8pW05IXVtDSDJdW0NIMl1OMltDSDJdW0NIMl1bQ0gyXVtDQEBIXShbQ0gzXSlbQ0gyXTI=

> <s_epik_cmdline>
J2VwaWtfcHl0aG9uJywgJy1waCcsICc3LjAnLCAnLXRuJywgJzgnLCAnLW1hJywgJzIwMCcsICctbWV0YWxfYmluZGluZycsICctaW1hZScsICc8aW5maWxlLm1hZT4nLCAnLW9tYWUnLCAnPG91dGZpbGUubWFlPic=

> <r_lp_tautomer_probability>
1

> <r_epik_Ionization_Penalty>
0.00411138

> <r_epik_Ionization_Penalty_Charging>
0.0019503

> <r_epik_Ionization_Penalty_Neutral>
0.00216107

> <r_epik_State_Penalty>
-0

> <r_epik_Charging_Adjusted_Penalty>
0.0019503

> <i_epik_Tot_Q>
1

> <i_epik_Tot_abs_Q>
1

> <r_epik_Metal_State_Penalty>
-0

> <b_epik_Metal_Only>
0

> <s_lp_Force_Field>
OPLS_2005

> <r_lp_Energy>
10.3148

> <b_lp_Chiralities_Consistent>
1

> <s_lp_Variant>
AV-unprocessed.smi:565-1

> <Gold.Version>
5.8.1

> <Gold.Id.Protein>
6NUR|6NUR_protein|mol2

> <Gold.PLP.Fitness>
43.9444

> <Gold.PLP.PLP>
-45.1525

> <Gold.PLP.part.hbond>
-1.1725

> <Gold.PLP.part.metal>
0.0000

> <Gold.PLP.part.buried>
-5.4249

> <Gold.PLP.part.nonpolar>
-37.8353

> <Gold.PLP.part.repulsive>
0.2874

> <Gold.PLP.ligand.clash>
0.0000

> <Gold.PLP.ligand.torsion>
0.6180

> <Gold.PLP.Chemscore.Hbond>
0.0000

> <Gold.PLP.Chemscore.CHOScore>
0.0000

> <Gold.PLP.Chemscore.Metal>
0.0000

> <Gold.PLP.Chemscore.Internal.Correction>
0.0277

> <Gold.Rescore>
     Score         DG    S(hbond)    S(metal)    S(lipo)     H(rot)  DE(clash)    DE(int)     intcor
     13.78     -15.57       0.00        0.00     121.60       1.61       0.04       1.76       ----

> <Gold.Chemscore.Fitness>
13.7762

> <Gold.Chemscore.DG>
-15.5749

> <Gold.Chemscore.ZeroCoef>
-5.4800

> <Gold.Chemscore.Hbond>
0.0000

> <Gold.Chemscore.Metal>
0.0000

> <Gold.Chemscore.Lipo>
121.6012

> <Gold.Chemscore.Internal_Hbond>
0.0000

> <Gold.Chemscore.DEClash>
0.0423

> <Gold.Chemscore.DEInternal>
1.7564

> <Gold.Chemscore.Rot>
1.6142

> <Gold.Chemscore.Internal.Correction>
   9.000000E+99

> <Gold.Chemscore.Hbond.Weighted>
-0.0000

> <Gold.Chemscore.Metal.Weighted>
-0.0000

> <Gold.Chemscore.Lipo.Weighted>
-14.2273

> <Gold.Chemscore.Internal_Hbond.Weighted>
0.0000

> <Gold.Chemscore.DEClash.Weighted>
0.0423

> <Gold.Chemscore.DEInternal.Weighted>
1.7564

> <Gold.Chemscore.Rot.Weighted>
4.1324

> <Gold.Chemscore.Internal.Correction.Weighted>
   9.000000E+99

> <Gold.Protein.RotatedTorsions>
[ 6907 6896 6895 6894 ] final  171.48 input  -60.11 | X-H torsion
[ 7974 7965 7964 7962 ] final  -51.13 input  175.53 | X-H torsion
[ 8008 7997 7996 7995 ] final  -93.61 input   59.86 | X-H torsion
[ 10167 10162 10161 10158 ] final   -7.92 input  -65.29 | X-H torsion
[ 10718 10713 10712 10709 ] final -108.05 input   66.30 | X-H torsion
[ 10763 10752 10751 10750 ] final  157.07 input  -60.55 | X-H torsion
[ 11005 11000 10999 10996 ] final  144.20 input  -57.11 | X-H torsion

> <Gold.Protein.ActiveResidues>
 VAL166  LYS551  ARG553  GLY616  TRP617  ASP618  TYR619  PRO620  LYS621  CYS622 
 ASP623  PHE694  ASN695  SER759  ASP760  ASP761  ALA762  ILE779  LEU786  VAL792 
 PHE793  MET794  SER795  GLU796  ALA797  LYS798  CYS799  TRP800  GLU811  SER814 

> <Gold.Protein.RotatedAtoms>
  151.7995  133.3368  159.3522 H   0  0  0  0  0  0  0  0  0  0  0  0  # atno 6907 bound_to 6896
  150.7363  134.5767  159.5927 H   0  0  0  0  0  0  0  0  0  0  0  0  # atno 6908 bound_to 6896
  152.3153  134.7449  160.0378 H   0  0  0  0  0  0  0  0  0  0  0  0  # atno 6909 bound_to 6896
  145.9223  140.7822  142.9641 H   0  0  0  0  0  0  0  0  0  0  0  0  # atno 7974 bound_to 7965
  154.7379  140.0497  157.0785 H   0  0  0  0  0  0  0  0  0  0  0  0  # atno 8008 bound_to 7997
  155.0217  140.3148  155.4772 H   0  0  0  0  0  0  0  0  0  0  0  0  # atno 8009 bound_to 7997
  156.2857  140.2166  156.5335 H   0  0  0  0  0  0  0  0  0  0  0  0  # atno 8010 bound_to 7997
  140.7043  143.6026  150.8782 H   0  0  0  0  0  0  0  0  0  0  0  0  # atno 10167 bound_to 10162
  156.0466  130.5693  150.7907 H   0  0  0  0  0  0  0  0  0  0  0  0  # atno 10718 bound_to 10713
  154.1943  135.2793  155.3012 H   0  0  0  0  0  0  0  0  0  0  0  0  # atno 10763 bound_to 10752
  154.5904  135.5561  153.7276 H   0  0  0  0  0  0  0  0  0  0  0  0  # atno 10764 bound_to 10752
  153.0104  135.6367  154.2082 H   0  0  0  0  0  0  0  0  0  0  0  0  # atno 10765 bound_to 10752
  140.0613  134.9203  157.1189 H   0  0  0  0  0  0  0  0  0  0  0  0  # atno 11005 bound_to 11000
  144.6754  140.1996  143.7388 LP  0  0  0  0  0  0  0  0  0  0  0  0  # atno 17320 bound_to 7965
  145.8533  139.2186  143.1759 LP  0  0  0  0  0  0  0  0  0  0  0  0  # atno 17321 bound_to 7965
  139.9751  143.6014  152.2961 LP  0  0  0  0  0  0  0  0  0  0  0  0  # atno 17342 bound_to 10162
  139.6614  144.7662  151.1955 LP  0  0  0  0  0  0  0  0  0  0  0  0  # atno 17343 bound_to 10162
  157.5348  131.0938  150.9907 LP  0  0  0  0  0  0  0  0  0  0  0  0  # atno 17370 bound_to 10713
  157.0204  130.5671  149.5331 LP  0  0  0  0  0  0  0  0  0  0  0  0  # atno 17371 bound_to 10713
  140.3766  134.2333  155.7174 LP  0  0  0  0  0  0  0  0  0  0  0  0  # atno 17394 bound_to 11000
  141.1974  133.8059  157.0628 LP  0  0  0  0  0  0  0  0  0  0  0  0  # atno 17395 bound_to 11000

$$$$
