AV-unprocessed.smi:91|AV-procd|sdf|836|dock2
  -GOLD-   2262017263D 1   1.00000     0.00000
 Structure written by MMmdl.
 60 63  0  0  0  0  0  0  0  0  1 V2000
  154.7826  139.7208  161.0444 C   0  0  0  0  0  0  0  0  0  0  0  0
  155.1251  141.0535  160.7073 O   0  0  0  0  0  0  0  0  0  0  0  0
  154.1644  141.9932  161.1606 C   0  0  0  0  0  0  0  0  0  0  0  0
  153.2797  142.4244  159.9837 C   0  0  1  0  0  0  0  0  0  0  0  0
  152.2325  141.3563  159.6243 C   0  0  0  0  0  0  0  0  0  0  0  0
  151.3194  141.8667  158.6069 N   0  0  0  0  0  0  0  0  0  0  0  0
  150.6010  140.9351  157.9267 C   0  0  0  0  0  0  0  0  0  0  0  0
  149.6963  141.3915  157.0209 N   0  0  0  0  0  0  0  0  0  0  0  0
  148.9493  140.5393  156.3144 C   0  0  0  0  0  0  0  0  0  0  0  0
  148.9455  139.2067  156.3510 N   0  0  0  0  0  0  0  0  0  0  0  0
  149.8503  138.7365  157.2554 C   0  0  0  0  0  0  0  0  0  0  0  0
  150.7095  139.5186  158.0816 C   0  0  0  0  0  0  0  0  0  0  0  0
  151.4911  138.6730  158.8637 N   0  0  0  0  0  0  0  0  0  0  0  0
  151.1139  137.4710  158.5255 C   0  0  0  0  0  0  0  0  0  0  0  0
  150.1383  137.4181  157.5580 N   0  0  0  0  0  0  0  0  0  0  0  0
  149.5448  136.2235  156.9839 C   0  0  0  0  0  0  0  0  0  0  0  0
  149.8352  136.0645  155.4705 C   0  0  1  0  0  0  0  0  0  0  0  0
  151.2311  136.5999  155.0679 C   0  0  0  0  0  0  0  0  0  0  0  0
  152.2583  135.9732  155.8090 O   0  0  0  0  0  0  0  0  0  0  0  0
  149.6032  134.6067  154.9997 C   0  0  2  0  0  0  0  0  0  0  0  0
  150.4598  133.5629  155.6947 C   0  0  0  0  0  0  0  0  0  0  0  0
  150.3643  132.3795  154.7383 C   0  0  0  0  0  0  0  0  0  0  0  0
  150.2387  132.9450  153.4383 O   0  0  0  0  0  0  0  0  0  0  0  0
  149.9781  134.3416  153.5378 C   0  0  0  0  0  0  0  0  0  0  0  0
  150.6870  143.1279  158.9744 C   0  0  0  0  0  0  0  0  0  0  0  0
  151.7386  144.1885  159.3682 C   0  0  0  0  0  0  0  0  0  0  0  0
  152.5214  144.7066  158.1429 C   0  0  0  0  0  0  0  0  0  0  0  0
  151.0453  145.3725  160.0599 C   0  0  0  0  0  0  0  0  0  0  0  0
  152.6214  143.6371  160.3516 O   0  0  0  0  0  0  0  0  0  0  0  0
  155.5520  139.0412  160.6782 H   0  0  0  0  0  0  0  0  0  0  0  0
  153.8340  139.4310  160.5907 H   0  0  0  0  0  0  0  0  0  0  0  0
  154.7076  139.5935  162.1251 H   0  0  0  0  0  0  0  0  0  0  0  0
  153.5555  141.5698  161.9612 H   0  0  0  0  0  0  0  0  0  0  0  0
  154.6802  142.8638  161.5689 H   0  0  0  0  0  0  0  0  0  0  0  0
  153.9277  142.6109  159.1273 H   0  0  0  0  0  0  0  0  0  0  0  0
  152.7420  140.4515  159.2919 H   0  0  0  0  0  0  0  0  0  0  0  0
  151.6524  141.0858  160.5074 H   0  0  0  0  0  0  0  0  0  0  0  0
  148.2571  140.9903  155.6190 H   0  0  0  0  0  0  0  0  0  0  0  0
  151.5477  136.5850  158.9658 H   0  0  0  0  0  0  0  0  0  0  0  0
  149.9160  135.3568  157.5322 H   0  0  0  0  0  0  0  0  0  0  0  0
  148.4710  136.2669  157.1676 H   0  0  0  0  0  0  0  0  0  0  0  0
  149.1104  136.6878  154.9445 H   0  0  0  0  0  0  0  0  0  0  0  0
  151.4177  136.4395  154.0064 H   0  0  0  0  0  0  0  0  0  0  0  0
  151.2964  137.6773  155.2200 H   0  0  0  0  0  0  0  0  0  0  0  0
  151.8749  135.2846  156.3304 H   0  0  0  0  0  0  0  0  0  0  0  0
  148.5542  134.3398  155.1397 H   0  0  0  0  0  0  0  0  0  0  0  0
  151.4939  133.9037  155.7668 H   0  0  0  0  0  0  0  0  0  0  0  0
  150.1101  133.3152  156.6971 H   0  0  0  0  0  0  0  0  0  0  0  0
  151.2279  131.7176  154.8054 H   0  0  0  0  0  0  0  0  0  0  0  0
  149.4697  131.7923  154.9488 H   0  0  0  0  0  0  0  0  0  0  0  0
  149.1926  134.6422  152.8441 H   0  0  0  0  0  0  0  0  0  0  0  0
  150.8887  134.8783  153.2679 H   0  0  0  0  0  0  0  0  0  0  0  0
  150.0815  143.5041  158.1489 H   0  0  0  0  0  0  0  0  0  0  0  0
  150.0155  142.9440  159.8143 H   0  0  0  0  0  0  0  0  0  0  0  0
  151.8621  145.2401  157.4573 H   0  0  0  0  0  0  0  0  0  0  0  0
  152.9836  143.9019  157.5720 H   0  0  0  0  0  0  0  0  0  0  0  0
  153.3111  145.3956  158.4435 H   0  0  0  0  0  0  0  0  0  0  0  0
  150.3302  145.8576  159.3948 H   0  0  0  0  0  0  0  0  0  0  0  0
  151.7694  146.1246  160.3747 H   0  0  0  0  0  0  0  0  0  0  0  0
  150.5027  145.0483  160.9487 H   0  0  0  0  0  0  0  0  0  0  0  0
  1  2  1  0  0  0  0
  1 30  1  0  0  0  0
  1 31  1  0  0  0  0
  1 32  1  0  0  0  0
  2  3  1  0  0  0  0
  3  4  1  0  0  0  0
  3 33  1  0  0  0  0
  3 34  1  0  0  0  0
  4 29  1  0  0  0  0
  4  5  1  0  0  0  0
  4 35  1  0  0  0  0
  5  6  1  0  0  0  0
  5 36  1  0  0  0  0
  5 37  1  0  0  0  0
  6  7  1  0  0  0  0
  6 25  1  0  0  0  0
  7 12  1  0  0  0  0
  7  8  2  0  0  0  0
  8  9  1  0  0  0  0
  9 10  2  0  0  0  0
  9 38  1  0  0  0  0
 10 11  1  0  0  0  0
 11 15  1  0  0  0  0
 11 12  2  0  0  0  0
 12 13  1  0  0  0  0
 13 14  2  0  0  0  0
 14 15  1  0  0  0  0
 14 39  1  0  0  0  0
 15 16  1  0  0  0  0
 16 17  1  0  0  0  0
 16 40  1  0  0  0  0
 16 41  1  0  0  0  0
 17 18  1  0  0  0  0
 17 20  1  0  0  0  0
 17 42  1  0  0  0  0
 18 19  1  0  0  0  0
 18 43  1  0  0  0  0
 18 44  1  0  0  0  0
 19 45  1  0  0  0  0
 20 24  1  0  0  0  0
 20 21  1  0  0  0  0
 20 46  1  0  0  0  0
 21 22  1  0  0  0  0
 21 47  1  0  0  0  0
 21 48  1  0  0  0  0
 22 23  1  0  0  0  0
 22 49  1  0  0  0  0
 22 50  1  0  0  0  0
 23 24  1  0  0  0  0
 24 51  1  0  0  0  0
 24 52  1  0  0  0  0
 25 26  1  0  0  0  0
 25 53  1  0  0  0  0
 25 54  1  0  0  0  0
 26 27  1  0  0  0  0
 26 28  1  0  0  0  0
 26 29  1  0  0  0  0
 27 55  1  0  0  0  0
 27 56  1  0  0  0  0
 27 57  1  0  0  0  0
 28 58  1  0  0  0  0
 28 59  1  0  0  0  0
 28 60  1  0  0  0  0
M  END
> <s_m_source_file>
AV-unprocessed.smi

> <i_m_source_file_index>
91

> <i_lp_mmshare_version>
43012

> <i_f3d_flags>
0

> <s_epik_input>
W0NIM11PW0NIMl1bQ0BASF0oTzEpW0NIMl1OKFtDSDJdQzEoW0NIM10pW0NIM10pYyhuW2NIXW4yKWMoYzIzKW5bY0hdbjNbQ0gyXVtDQEhdKFtDSDJdW09IXSlbQ0BASF00W0NIMl1bQ0gyXU9bQ0gyXTQ=

> <s_epik_cmdline>
J2VwaWtfcHl0aG9uJywgJy1waCcsICc3LjAnLCAnLXRuJywgJzgnLCAnLW1hJywgJzIwMCcsICctbWV0YWxfYmluZGluZycsICctaW1hZScsICc8aW5maWxlLm1hZT4nLCAnLW9tYWUnLCAnPG91dGZpbGUubWFlPic=

> <r_lp_tautomer_probability>
1

> <r_epik_Ionization_Penalty>
8.63591e-05

> <r_epik_Ionization_Penalty_Charging>
0

> <r_epik_Ionization_Penalty_Neutral>
8.63591e-05

> <r_epik_State_Penalty>
-0

> <r_epik_Charging_Adjusted_Penalty>
0

> <i_epik_Tot_Q>
0

> <i_epik_Tot_abs_Q>
0

> <r_epik_Metal_State_Penalty>
-0

> <b_epik_Metal_Only>
0

> <s_lp_Force_Field>
OPLS_2005

> <r_lp_Energy>
46.7978

> <b_lp_Chiralities_Consistent>
1

> <s_lp_Variant>
AV-unprocessed.smi:91-4

> <Gold.Version>
5.8.1

> <Gold.Id.Protein>
6NUR|6NUR_protein|mol2

> <Gold.PLP.Fitness>
46.4795

> <Gold.PLP.PLP>
-45.0744

> <Gold.PLP.part.hbond>
-2.1548

> <Gold.PLP.part.metal>
0.0000

> <Gold.PLP.part.buried>
-5.6234

> <Gold.PLP.part.nonpolar>
-35.7157

> <Gold.PLP.part.repulsive>
0.1944

> <Gold.PLP.ligand.clash>
0.0000

> <Gold.PLP.ligand.torsion>
1.1348

> <Gold.PLP.Chemscore.Hbond>
1.0000

> <Gold.PLP.Chemscore.CHOScore>
0.0000

> <Gold.PLP.Chemscore.Metal>
0.0000

> <Gold.Chemscore.Hbonds>
donor molecule, donor type, donor heavy atom, donor atom, acceptor molecule, acceptor atom, score
      P1  H 10752 10765       L1    19  0.55

> <Gold.PLP.Chemscore.Internal.Correction>
0.6748

> <Gold.Rescore>
     Score         DG    S(hbond)    S(metal)    S(lipo)     H(rot)  DE(clash)    DE(int)     intcor
     10.55     -14.06       0.96        0.00     112.28       3.03       0.03       3.48       ----

> <Gold.Chemscore.Fitness>
10.5506

> <Gold.Chemscore.DG>
-14.0556

> <Gold.Chemscore.ZeroCoef>
-5.4800

> <Gold.Chemscore.Hbond>
0.9556

> <Gold.Chemscore.Metal>
0.0000

> <Gold.Chemscore.Lipo>
112.2804

> <Gold.Chemscore.Internal_Hbond>
0.0000

> <Gold.Chemscore.DEClash>
0.0289

> <Gold.Chemscore.DEInternal>
3.4762

> <Gold.Chemscore.Rot>
3.0284

> <Gold.Chemscore.Internal.Correction>
   9.000000E+99

> <Gold.Chemscore.Hbonds>
donor molecule, donor type, donor heavy atom, donor atom, acceptor molecule, acceptor atom, score
      P1  H 10752 10765       L1    19  0.26

> <Gold.Chemscore.Hbond.Weighted>
-3.1916

> <Gold.Chemscore.Metal.Weighted>
-0.0000

> <Gold.Chemscore.Lipo.Weighted>
-13.1368

> <Gold.Chemscore.Internal_Hbond.Weighted>
0.0000

> <Gold.Chemscore.DEClash.Weighted>
0.0289

> <Gold.Chemscore.DEInternal.Weighted>
3.4762

> <Gold.Chemscore.Rot.Weighted>
7.7528

> <Gold.Chemscore.Internal.Correction.Weighted>
   9.000000E+99

> <Gold.Protein.RotatedTorsions>
[ 6907 6896 6895 6894 ] final  -95.11 input  -60.11 | X-H torsion
[ 7974 7965 7964 7962 ] final  101.98 input  175.53 | X-H torsion
[ 8008 7997 7996 7995 ] final -158.71 input   59.86 | X-H torsion
[ 10167 10162 10161 10158 ] final  -12.20 input  -65.29 | X-H torsion
[ 10718 10713 10712 10709 ] final  -66.46 input   66.30 | X-H torsion
[ 10763 10752 10751 10750 ] final -129.56 input  -60.55 | X-H torsion
[ 11005 11000 10999 10996 ] final -147.19 input  -57.11 | X-H torsion

> <Gold.Protein.ActiveResidues>
 VAL166  LYS551  ARG553  GLY616  TRP617  ASP618  TYR619  PRO620  LYS621  CYS622 
 ASP623  PHE694  ASN695  SER759  ASP760  ASP761  ALA762  ILE779  LEU786  VAL792 
 PHE793  MET794  SER795  GLU796  ALA797  LYS798  CYS799  TRP800  GLU811  SER814 

> <Gold.Protein.RotatedAtoms>
  150.6956  134.1707  159.4211 H   0  0  0  0  0  0  0  0  0  0  0  0  # atno 6907 bound_to 6896
  151.9685  135.0086  160.0561 H   0  0  0  0  0  0  0  0  0  0  0  0  # atno 6908 bound_to 6896
  152.1863  133.4707  159.5021 H   0  0  0  0  0  0  0  0  0  0  0  0  # atno 6909 bound_to 6896
  145.3651  139.2409  143.3485 H   0  0  0  0  0  0  0  0  0  0  0  0  # atno 7974 bound_to 7965
  155.7517  140.0827  157.2198 H   0  0  0  0  0  0  0  0  0  0  0  0  # atno 8008 bound_to 7997
  154.4011  140.1559  156.2787 H   0  0  0  0  0  0  0  0  0  0  0  0  # atno 8009 bound_to 7997
  155.8924  140.3414  155.5969 H   0  0  0  0  0  0  0  0  0  0  0  0  # atno 8010 bound_to 7997
  140.7156  143.5558  150.9250 H   0  0  0  0  0  0  0  0  0  0  0  0  # atno 10167 bound_to 10162
  156.0611  130.4262  150.1712 H   0  0  0  0  0  0  0  0  0  0  0  0  # atno 10718 bound_to 10713
  154.8757  135.3891  154.3940 H   0  0  0  0  0  0  0  0  0  0  0  0  # atno 10763 bound_to 10752
  153.4672  135.7029  153.6020 H   0  0  0  0  0  0  0  0  0  0  0  0  # atno 10764 bound_to 10752
  153.4493  135.3837  155.2242 H   0  0  0  0  0  0  0  0  0  0  0  0  # atno 10765 bound_to 10752
  140.7742  134.3154  157.5066 H   0  0  0  0  0  0  0  0  0  0  0  0  # atno 11005 bound_to 11000
  146.2910  140.4292  142.8739 LP  0  0  0  0  0  0  0  0  0  0  0  0  # atno 17320 bound_to 7965
  144.8617  140.7149  143.6103 LP  0  0  0  0  0  0  0  0  0  0  0  0  # atno 17321 bound_to 7965
  139.9283  143.6524  152.3082 LP  0  0  0  0  0  0  0  0  0  0  0  0  # atno 17342 bound_to 10162
  139.6965  144.7640  151.1347 LP  0  0  0  0  0  0  0  0  0  0  0  0  # atno 17343 bound_to 10162
  156.9781  130.9855  151.3444 LP  0  0  0  0  0  0  0  0  0  0  0  0  # atno 17370 bound_to 10713
  157.5620  130.8252  149.8278 LP  0  0  0  0  0  0  0  0  0  0  0  0  # atno 17371 bound_to 10713
  139.8751  134.9279  156.3437 LP  0  0  0  0  0  0  0  0  0  0  0  0  # atno 17394 bound_to 11000
  140.9545  133.7429  156.0316 LP  0  0  0  0  0  0  0  0  0  0  0  0  # atno 17395 bound_to 11000

$$$$
