AV-unprocessed.smi:1144|AV-procd|sdf|4877|dock1
  -GOLD-   22720 3453D 1   1.00000     0.00000
 Structure written by MMmdl.
 35 36  0  0  0  0  0  0  0  0  2 V2000
  144.4206  135.2436  150.4628 C   0  0  0  0  0  0  0  0  0  0  0  0
  145.0471  134.0460  149.8570 N   0  3  2  0  0  0  0  0  0  0  0  0
  144.0970  132.9355  149.6123 C   0  0  0  0  0  0  0  0  0  0  0  0
  143.7975  132.1598  150.9079 C   0  0  0  0  0  0  0  0  0  0  0  0
  145.0172  131.7074  151.4828 O   0  0  0  0  0  0  0  0  0  0  0  0
  145.8806  132.7790  151.8516 C   0  0  1  0  0  0  0  0  0  0  0  0
  147.1243  132.1802  152.5222 C   0  0  0  0  0  0  0  0  0  0  0  0
  147.8704  133.1812  153.2698 N   0  0  0  0  0  0  0  0  0  0  0  0
  148.9230  132.8866  154.1154 C   0  0  0  0  0  0  0  0  0  0  0  0
  149.4882  133.8906  154.7957 N   0  0  0  0  0  0  0  0  0  0  0  0
  150.5159  133.5756  155.6135 C   0  0  0  0  0  0  0  0  0  0  0  0
  150.9764  132.2511  155.7481 C   0  0  0  0  0  0  0  0  0  0  0  0
  150.3058  131.2734  154.9820 C   0  0  0  0  0  0  0  0  0  0  0  0
  150.7200  129.8114  155.0500 C   0  0  0  0  0  0  0  0  0  0  0  0
  149.9767  129.0991  154.2034 F   0  0  0  0  0  0  0  0  0  0  0  0
  152.0004  129.6961  154.6987 F   0  0  0  0  0  0  0  0  0  0  0  0
  150.5683  129.3070  156.2762 F   0  0  0  0  0  0  0  0  0  0  0  0
  149.2755  131.6006  154.1663 N   0  0  0  0  0  0  0  0  0  0  0  0
  146.2521  133.5707  150.5786 C   0  0  0  0  0  0  0  0  0  0  0  0
  144.0231  135.0386  151.4566 H   0  0  0  0  0  0  0  0  0  0  0  0
  143.6015  135.6016  149.8381 H   0  0  0  0  0  0  0  0  0  0  0  0
  145.1465  136.0527  150.5482 H   0  0  0  0  0  0  0  0  0  0  0  0
  143.1777  133.3123  149.1625 H   0  0  0  0  0  0  0  0  0  0  0  0
  144.5433  132.2582  148.8831 H   0  0  0  0  0  0  0  0  0  0  0  0
  143.2469  132.7733  151.6224 H   0  0  0  0  0  0  0  0  0  0  0  0
  143.1714  131.2948  150.6884 H   0  0  0  0  0  0  0  0  0  0  0  0
  145.3750  133.4348  152.5627 H   0  0  0  0  0  0  0  0  0  0  0  0
  146.8401  131.3640  153.1875 H   0  0  0  0  0  0  0  0  0  0  0  0
  147.7837  131.7594  151.7621 H   0  0  0  0  0  0  0  0  0  0  0  0
  147.5503  134.1386  153.2468 H   0  0  0  0  0  0  0  0  0  0  0  0
  150.9731  134.3849  156.1634 H   0  0  0  0  0  0  0  0  0  0  0  0
  151.7977  131.9985  156.4022 H   0  0  0  0  0  0  0  0  0  0  0  0
  146.8188  132.9280  149.9033 H   0  0  0  0  0  0  0  0  0  0  0  0
  146.9013  134.4135  150.8201 H   0  0  0  0  0  0  0  0  0  0  0  0
  145.3654  134.3502  148.9477 H   0  0  0  0  0  0  0  0  0  0  0  0
  1  2  1  0  0  0  0
  1 20  1  0  0  0  0
  1 21  1  0  0  0  0
  1 22  1  0  0  0  0
  2 19  1  0  0  0  0
  2  3  1  0  0  0  0
  2 35  1  0  0  0  0
  3  4  1  0  0  0  0
  3 23  1  0  0  0  0
  3 24  1  0  0  0  0
  4  5  1  0  0  0  0
  4 25  1  0  0  0  0
  4 26  1  0  0  0  0
  5  6  1  0  0  0  0
  6  7  1  0  0  0  0
  6 19  1  0  0  0  0
  6 27  1  0  0  0  0
  7  8  1  0  0  0  0
  7 28  1  0  0  0  0
  7 29  1  0  0  0  0
  8  9  1  0  0  0  0
  8 30  1  0  0  0  0
  9 18  1  0  0  0  0
  9 10  2  0  0  0  0
 10 11  1  0  0  0  0
 11 12  2  0  0  0  0
 11 31  1  0  0  0  0
 12 13  1  0  0  0  0
 12 32  1  0  0  0  0
 13 14  1  0  0  0  0
 13 18  2  0  0  0  0
 14 15  1  0  0  0  0
 14 16  1  0  0  0  0
 14 17  1  0  0  0  0
 19 33  1  0  0  0  0
 19 34  1  0  0  0  0
M  CHG  1   2   1
M  END
> <s_m_source_file>
AV-unprocessed.smi

> <i_m_source_file_index>
1144

> <i_lp_mmshare_version>
43012

> <i_f3d_flags>
0

> <s_epik_input>
W0NIM11OMVtDSDJdW0NIMl1PW0NASF0oW0NIMl0xKVtDSDJdW05IXWMybltjSF1bY0hdYyhuMilDKEYpKEYpRg==

> <s_epik_cmdline>
J2VwaWtfcHl0aG9uJywgJy1waCcsICc3LjAnLCAnLXRuJywgJzgnLCAnLW1hJywgJzIwMCcsICctbWV0YWxfYmluZGluZycsICctaW1hZScsICc8aW5maWxlLm1hZT4nLCAnLW9tYWUnLCAnPG91dGZpbGUubWFlPic=

> <r_lp_tautomer_probability>
1

> <r_epik_Ionization_Penalty>
0.178506

> <r_epik_Ionization_Penalty_Charging>
0.178504

> <r_epik_Ionization_Penalty_Neutral>
2.47225e-06

> <r_epik_State_Penalty>
0.167974

> <r_epik_Charging_Adjusted_Penalty>
0.346478

> <i_epik_Tot_Q>
1

> <i_epik_Tot_abs_Q>
1

> <r_epik_Metal_State_Penalty>
0.167974

> <b_epik_Metal_Only>
0

> <s_lp_Force_Field>
OPLS_2005

> <r_lp_Energy>
13.0579

> <b_lp_Chiralities_Consistent>
1

> <s_lp_Variant>
AV-unprocessed.smi:1144-2

> <Gold.Version>
5.8.1

> <Gold.Id.Protein>
6NUR|6NUR_protein|mol2

> <Gold.PLP.Fitness>
37.1638

> <Gold.PLP.PLP>
-34.5435

> <Gold.PLP.part.hbond>
-1.0000

> <Gold.PLP.part.metal>
0.0000

> <Gold.PLP.part.buried>
-5.4436

> <Gold.PLP.part.nonpolar>
-27.7486

> <Gold.PLP.part.repulsive>
0.3876

> <Gold.PLP.ligand.clash>
0.0000

> <Gold.PLP.ligand.torsion>
0.1926

> <Gold.PLP.Chemscore.Hbond>
1.0000

> <Gold.PLP.Chemscore.CHOScore>
0.0000

> <Gold.PLP.Chemscore.Metal>
0.0000

> <Gold.Chemscore.Hbonds>
donor molecule, donor type, donor heavy atom, donor atom, acceptor molecule, acceptor atom, score
      L1  H     2    35       P1  7921  1.00

> <Gold.PLP.Chemscore.Internal.Correction>
0.0055

> <Gold.Rescore>
     Score         DG    S(hbond)    S(metal)    S(lipo)     H(rot)  DE(clash)    DE(int)     intcor
     13.00     -13.16       0.98        0.00      66.88       1.34       0.01       0.16       ----

> <Gold.Chemscore.Fitness>
12.9952

> <Gold.Chemscore.DG>
-13.1641

> <Gold.Chemscore.ZeroCoef>
-5.4800

> <Gold.Chemscore.Hbond>
0.9833

> <Gold.Chemscore.Metal>
0.0000

> <Gold.Chemscore.Lipo>
66.8785

> <Gold.Chemscore.Internal_Hbond>
0.0000

> <Gold.Chemscore.DEClash>
0.0089

> <Gold.Chemscore.DEInternal>
0.1600

> <Gold.Chemscore.Rot>
1.3379

> <Gold.Chemscore.Internal.Correction>
   9.000000E+99

> <Gold.Chemscore.Hbonds>
donor molecule, donor type, donor heavy atom, donor atom, acceptor molecule, acceptor atom, score
      L1  H     2    35       P1  7921  0.97

> <Gold.Chemscore.Hbond.Weighted>
-3.2843

> <Gold.Chemscore.Metal.Weighted>
-0.0000

> <Gold.Chemscore.Lipo.Weighted>
-7.8248

> <Gold.Chemscore.Internal_Hbond.Weighted>
0.0000

> <Gold.Chemscore.DEClash.Weighted>
0.0089

> <Gold.Chemscore.DEInternal.Weighted>
0.1600

> <Gold.Chemscore.Rot.Weighted>
3.4250

> <Gold.Chemscore.Internal.Correction.Weighted>
   9.000000E+99

> <Gold.Protein.RotatedTorsions>
[ 6907 6896 6895 6894 ] final   -2.66 input  -60.11 | X-H torsion
[ 7974 7965 7964 7962 ] final -168.39 input  175.53 | X-H torsion
[ 8008 7997 7996 7995 ] final  -64.66 input   59.86 | X-H torsion
[ 10167 10162 10161 10158 ] final -178.87 input  -65.29 | X-H torsion
[ 10718 10713 10712 10709 ] final  -21.07 input   66.30 | X-H torsion
[ 10763 10752 10751 10750 ] final  148.75 input  -60.55 | X-H torsion
[ 11005 11000 10999 10996 ] final   24.78 input  -57.11 | X-H torsion

> <Gold.Protein.ActiveResidues>
 VAL166  LYS551  ARG553  GLY616  TRP617  ASP618  TYR619  PRO620  LYS621  CYS622 
 ASP623  PHE694  ASN695  SER759  ASP760  ASP761  ALA762  ILE779  LEU786  VAL792 
 PHE793  MET794  SER795  GLU796  ALA797  LYS798  CYS799  TRP800  GLU811  SER814 

> <Gold.Protein.RotatedAtoms>
  151.5263  135.1068  159.9890 H   0  0  0  0  0  0  0  0  0  0  0  0  # atno 6907 bound_to 6896
  152.4598  133.7795  159.6853 H   0  0  0  0  0  0  0  0  0  0  0  0  # atno 6908 bound_to 6896
  150.8556  133.7656  159.3035 H   0  0  0  0  0  0  0  0  0  0  0  0  # atno 6909 bound_to 6896
  144.7204  140.2377  143.6296 H   0  0  0  0  0  0  0  0  0  0  0  0  # atno 7974 bound_to 7965
  154.4625  140.0949  156.6931 H   0  0  0  0  0  0  0  0  0  0  0  0  # atno 8008 bound_to 7997
  155.4953  140.3472  155.4343 H   0  0  0  0  0  0  0  0  0  0  0  0  # atno 8009 bound_to 7997
  156.0896  140.1394  156.9597 H   0  0  0  0  0  0  0  0  0  0  0  0  # atno 8010 bound_to 7997
  139.5412  144.2357  152.0899 H   0  0  0  0  0  0  0  0  0  0  0  0  # atno 10167 bound_to 10162
  156.5232  130.4637  149.6586 H   0  0  0  0  0  0  0  0  0  0  0  0  # atno 10718 bound_to 10713
  154.0599  135.2875  155.3326 H   0  0  0  0  0  0  0  0  0  0  0  0  # atno 10763 bound_to 10752
  154.6815  135.5261  153.8272 H   0  0  0  0  0  0  0  0  0  0  0  0  # atno 10764 bound_to 10752
  153.0527  135.6582  154.0788 H   0  0  0  0  0  0  0  0  0  0  0  0  # atno 10765 bound_to 10752
  140.3550  134.2187  155.7676 H   0  0  0  0  0  0  0  0  0  0  0  0  # atno 11005 bound_to 11000
  145.8350  139.2103  143.1861 LP  0  0  0  0  0  0  0  0  0  0  0  0  # atno 17320 bound_to 7965
  146.0397  140.8177  142.9835 LP  0  0  0  0  0  0  0  0  0  0  0  0  # atno 17321 bound_to 7965
  140.1836  144.4820  150.6515 LP  0  0  0  0  0  0  0  0  0  0  0  0  # atno 17342 bound_to 10162
  140.6643  143.2262  151.5781 LP  0  0  0  0  0  0  0  0  0  0  0  0  # atno 17343 bound_to 10162
  156.3130  130.7239  151.2136 LP  0  0  0  0  0  0  0  0  0  0  0  0  # atno 17370 bound_to 10713
  157.7433  131.0476  150.4953 LP  0  0  0  0  0  0  0  0  0  0  0  0  # atno 17371 bound_to 10713
  141.2001  133.7996  157.0505 LP  0  0  0  0  0  0  0  0  0  0  0  0  # atno 17394 bound_to 11000
  140.0672  134.9722  157.1406 LP  0  0  0  0  0  0  0  0  0  0  0  0  # atno 17395 bound_to 11000

$$$$
