AV-unprocessed.smi:1430|AV-procd|sdf|5822|dock8
  -GOLD-   22720 5483D 1   1.00000     0.00000
 Structure written by MMmdl.
 46 47  0  0  0  0  0  0  0  0  1 V2000
  149.4726  130.3319  153.5851 C   0  0  0  0  0  0  0  0  0  0  0  0
  150.2159  130.9335  154.6396 O   0  0  0  0  0  0  0  0  0  0  0  0
  150.2143  132.3097  154.7398 C   0  0  0  0  0  0  0  0  0  0  0  0
  151.0194  132.9147  155.7248 C   0  0  0  0  0  0  0  0  0  0  0  0
  151.0176  134.3181  155.8336 C   0  0  0  0  0  0  0  0  0  0  0  0
  150.2083  135.0758  154.9633 C   0  0  0  0  0  0  0  0  0  0  0  0
  150.2404  136.4911  155.0922 N   0  0  0  0  0  0  0  0  0  0  0  0
  151.2243  137.2709  155.5730 C   0  0  0  0  0  0  0  0  0  0  0  0
  152.3109  136.8734  155.9921 O   0  0  0  0  0  0  0  0  0  0  0  0
  150.8804  138.5655  155.5252 N   0  0  0  0  0  0  0  0  0  0  0  0
  151.7249  139.6738  155.9539 C   0  0  0  0  0  0  0  0  0  0  0  0
  151.0401  140.5046  157.0551 C   0  0  0  0  0  0  0  0  0  0  0  0
  151.9117  141.4548  157.7443 N   0  0  0  0  0  0  0  0  0  0  0  0
  151.2560  142.7345  158.0031 C   0  0  0  0  0  0  0  0  0  0  0  0
  152.1771  143.7147  158.7552 C   0  0  1  0  0  0  0  0  0  0  0  0
  151.4643  145.0247  159.1068 C   0  0  0  0  0  0  0  0  0  0  0  0
  152.6195  143.1067  159.9657 O   0  0  0  0  0  0  0  0  0  0  0  0
  153.3113  141.8786  159.7574 C   0  0  1  0  0  0  0  0  0  0  0  0
  153.7482  141.3333  161.1212 C   0  0  0  0  0  0  0  0  0  0  0  0
  152.3836  140.9025  159.0091 C   0  0  0  0  0  0  0  0  0  0  0  0
  149.4447  134.3748  153.9977 C   0  0  0  0  0  0  0  0  0  0  0  0
  149.4430  133.0290  153.8879 N   0  0  0  0  0  0  0  0  0  0  0  0
  149.5734  129.2485  153.6459 H   0  0  0  0  0  0  0  0  0  0  0  0
  149.8431  130.6438  152.6076 H   0  0  0  0  0  0  0  0  0  0  0  0
  148.4104  130.5699  153.6583 H   0  0  0  0  0  0  0  0  0  0  0  0
  151.6275  132.3133  156.3844 H   0  0  0  0  0  0  0  0  0  0  0  0
  151.6285  134.8036  156.5808 H   0  0  0  0  0  0  0  0  0  0  0  0
  149.4360  136.9750  154.7213 H   0  0  0  0  0  0  0  0  0  0  0  0
  149.9687  138.8031  155.1629 H   0  0  0  0  0  0  0  0  0  0  0  0
  152.6902  139.3006  156.3005 H   0  0  0  0  0  0  0  0  0  0  0  0
  151.9237  140.2847  155.0740 H   0  0  0  0  0  0  0  0  0  0  0  0
  150.1815  141.0307  156.6349 H   0  0  0  0  0  0  0  0  0  0  0  0
  150.6334  139.8102  157.7918 H   0  0  0  0  0  0  0  0  0  0  0  0
  150.9497  143.1978  157.0658 H   0  0  0  0  0  0  0  0  0  0  0  0
  150.3468  142.5715  158.5841 H   0  0  0  0  0  0  0  0  0  0  0  0
  153.0470  143.9447  158.1376 H   0  0  0  0  0  0  0  0  0  0  0  0
  151.1169  145.5353  158.2083 H   0  0  0  0  0  0  0  0  0  0  0  0
  152.1338  145.7030  159.6365 H   0  0  0  0  0  0  0  0  0  0  0  0
  150.5992  144.8439  159.7454 H   0  0  0  0  0  0  0  0  0  0  0  0
  154.2013  142.0714  159.1557 H   0  0  0  0  0  0  0  0  0  0  0  0
  154.2933  140.3955  161.0121 H   0  0  0  0  0  0  0  0  0  0  0  0
  152.8887  141.1480  161.7662 H   0  0  0  0  0  0  0  0  0  0  0  0
  154.4022  142.0406  161.6320 H   0  0  0  0  0  0  0  0  0  0  0  0
  151.5307  140.6547  159.6432 H   0  0  0  0  0  0  0  0  0  0  0  0
  152.9167  139.9686  158.8264 H   0  0  0  0  0  0  0  0  0  0  0  0
  148.8284  134.8827  153.2730 H   0  0  0  0  0  0  0  0  0  0  0  0
  1  2  1  0  0  0  0
  1 23  1  0  0  0  0
  1 24  1  0  0  0  0
  1 25  1  0  0  0  0
  2  3  1  0  0  0  0
  3 22  1  0  0  0  0
  3  4  2  0  0  0  0
  4  5  1  0  0  0  0
  4 26  1  0  0  0  0
  5  6  2  0  0  0  0
  5 27  1  0  0  0  0
  6  7  1  0  0  0  0
  6 21  1  0  0  0  0
  7  8  1  0  0  0  0
  7 28  1  0  0  0  0
  8  9  2  0  0  0  0
  8 10  1  0  0  0  0
 10 11  1  0  0  0  0
 10 29  1  0  0  0  0
 11 12  1  0  0  0  0
 11 30  1  0  0  0  0
 11 31  1  0  0  0  0
 12 13  1  0  0  0  0
 12 32  1  0  0  0  0
 12 33  1  0  0  0  0
 13 20  1  0  0  0  0
 13 14  1  0  0  0  0
 14 15  1  0  0  0  0
 14 34  1  0  0  0  0
 14 35  1  0  0  0  0
 15 16  1  0  0  0  0
 15 17  1  0  0  0  0
 15 36  1  0  0  0  0
 16 37  1  0  0  0  0
 16 38  1  0  0  0  0
 16 39  1  0  0  0  0
 17 18  1  0  0  0  0
 18 19  1  0  0  0  0
 18 20  1  0  0  0  0
 18 40  1  0  0  0  0
 19 41  1  0  0  0  0
 19 42  1  0  0  0  0
 19 43  1  0  0  0  0
 20 44  1  0  0  0  0
 20 45  1  0  0  0  0
 21 22  2  0  0  0  0
 21 46  1  0  0  0  0
M  END
> <s_m_source_file>
AV-unprocessed.smi

> <i_m_source_file_index>
1430

> <i_lp_mmshare_version>
43012

> <i_f3d_flags>
0

> <s_epik_input>
W0NIM11PYzFbY0hdW2NIXWMoW2NIXW4xKVtOSF1DKD1PKVtOSF1bQ0gyXVtDSDJdTjJbQ0gyXVtDQEBIXShbQ0gzXSlPW0NAQEhdKFtDSDNdKVtDSDJdMg==

> <s_epik_cmdline>
J2VwaWtfcHl0aG9uJywgJy1waCcsICc3LjAnLCAnLXRuJywgJzgnLCAnLW1hJywgJzIwMCcsICctbWV0YWxfYmluZGluZycsICctaW1hZScsICc8aW5maWxlLm1hZT4nLCAnLW9tYWUnLCAnPG91dGZpbGUubWFlPic=

> <r_lp_tautomer_probability>
1

> <r_epik_Ionization_Penalty>
0.266083

> <r_epik_Ionization_Penalty_Charging>
0

> <r_epik_Ionization_Penalty_Neutral>
0.266083

> <r_epik_State_Penalty>
0.257924

> <r_epik_Charging_Adjusted_Penalty>
0.257924

> <i_epik_Tot_Q>
0

> <i_epik_Tot_abs_Q>
0

> <r_epik_Metal_State_Penalty>
0.257922

> <b_epik_Metal_Only>
0

> <s_lp_Force_Field>
OPLS_2005

> <r_lp_Energy>
23.3408

> <b_lp_Chiralities_Consistent>
1

> <s_lp_Variant>
AV-unprocessed.smi:1430-1

> <Gold.Version>
5.8.1

> <Gold.Id.Protein>
6NUR|6NUR_protein|mol2

> <Gold.PLP.Fitness>
45.5291

> <Gold.PLP.PLP>
-41.0150

> <Gold.PLP.part.hbond>
-1.0000

> <Gold.PLP.part.metal>
0.0000

> <Gold.PLP.part.buried>
-5.9438

> <Gold.PLP.part.nonpolar>
-34.1659

> <Gold.PLP.part.repulsive>
0.2128

> <Gold.PLP.ligand.clash>
0.0000

> <Gold.PLP.ligand.torsion>
0.7607

> <Gold.PLP.Chemscore.Hbond>
1.0000

> <Gold.PLP.Chemscore.CHOScore>
1.0000

> <Gold.PLP.Chemscore.Metal>
0.0000

> <Gold.Chemscore.Hbonds>
donor molecule, donor type, donor heavy atom, donor atom, acceptor molecule, acceptor atom, score
      P1  H 10752 10763       L1     9  0.98
      L1  C    21    46       P1  7948  0.72

> <Gold.PLP.Chemscore.Internal.Correction>
0.0354

> <Gold.Rescore>
     Score         DG    S(hbond)    S(metal)    S(lipo)     H(rot)  DE(clash)    DE(int)     intcor
     14.01     -16.04       0.98        0.00      99.83       1.71       0.02       2.01       ----

> <Gold.Chemscore.Fitness>
14.0077

> <Gold.Chemscore.DG>
-16.0377

> <Gold.Chemscore.ZeroCoef>
-5.4800

> <Gold.Chemscore.Hbond>
0.9752

> <Gold.Chemscore.Metal>
0.0000

> <Gold.Chemscore.Lipo>
99.8299

> <Gold.Chemscore.Internal_Hbond>
0.0000

> <Gold.Chemscore.DEClash>
0.0170

> <Gold.Chemscore.DEInternal>
2.0131

> <Gold.Chemscore.Rot>
1.7107

> <Gold.Chemscore.Internal.Correction>
   9.000000E+99

> <Gold.Chemscore.Hbonds>
donor molecule, donor type, donor heavy atom, donor atom, acceptor molecule, acceptor atom, score
      P1  H 10752 10763       L1     9  0.85

> <Gold.Chemscore.Hbond.Weighted>
-3.2571

> <Gold.Chemscore.Metal.Weighted>
-0.0000

> <Gold.Chemscore.Lipo.Weighted>
-11.6801

> <Gold.Chemscore.Internal_Hbond.Weighted>
0.0000

> <Gold.Chemscore.DEClash.Weighted>
0.0170

> <Gold.Chemscore.DEInternal.Weighted>
2.0131

> <Gold.Chemscore.Rot.Weighted>
4.3794

> <Gold.Chemscore.Internal.Correction.Weighted>
   9.000000E+99

> <Gold.Protein.RotatedTorsions>
[ 6907 6896 6895 6894 ] final  -92.35 input  -60.11 | X-H torsion
[ 7974 7965 7964 7962 ] final -131.33 input  175.53 | X-H torsion
[ 8008 7997 7996 7995 ] final  150.71 input   59.86 | X-H torsion
[ 10167 10162 10161 10158 ] final  -54.25 input  -65.29 | X-H torsion
[ 10718 10713 10712 10709 ] final  100.09 input   66.30 | X-H torsion
[ 10763 10752 10751 10750 ] final   83.94 input  -60.55 | X-H torsion
[ 11005 11000 10999 10996 ] final  112.92 input  -57.11 | X-H torsion

> <Gold.Protein.ActiveResidues>
 VAL166  LYS551  ARG553  GLY616  TRP617  ASP618  TYR619  PRO620  LYS621  CYS622 
 ASP623  PHE694  ASN695  SER759  ASP760  ASP761  ALA762  ILE779  LEU786  VAL792 
 PHE793  MET794  SER795  GLU796  ALA797  LYS798  CYS799  TRP800  GLU811  SER814 

> <Gold.Protein.RotatedAtoms>
  150.6905  134.2136  159.4368 H   0  0  0  0  0  0  0  0  0  0  0  0  # atno 6907 bound_to 6896
  152.0096  134.9881  160.0577 H   0  0  0  0  0  0  0  0  0  0  0  0  # atno 6908 bound_to 6896
  152.1501  133.4481  159.4846 H   0  0  0  0  0  0  0  0  0  0  0  0  # atno 6909 bound_to 6896
  144.9389  140.7216  143.4859 H   0  0  0  0  0  0  0  0  0  0  0  0  # atno 7974 bound_to 7965
  156.2704  140.2067  156.6060 H   0  0  0  0  0  0  0  0  0  0  0  0  # atno 8008 bound_to 7997
  154.6869  140.0534  157.0347 H   0  0  0  0  0  0  0  0  0  0  0  0  # atno 8009 bound_to 7997
  155.0922  140.3197  155.4573 H   0  0  0  0  0  0  0  0  0  0  0  0  # atno 8010 bound_to 7997
  140.6441  143.2524  151.4909 H   0  0  0  0  0  0  0  0  0  0  0  0  # atno 10167 bound_to 10162
  157.6862  131.0688  150.5048 H   0  0  0  0  0  0  0  0  0  0  0  0  # atno 10718 bound_to 10713
  153.1337  135.4672  154.9388 H   0  0  0  0  0  0  0  0  0  0  0  0  # atno 10763 bound_to 10752
  154.7687  135.3152  154.8237 H   0  0  0  0  0  0  0  0  0  0  0  0  # atno 10764 bound_to 10752
  153.8774  135.6897  153.4823 H   0  0  0  0  0  0  0  0  0  0  0  0  # atno 10765 bound_to 10752
  139.8939  134.9539  156.6659 H   0  0  0  0  0  0  0  0  0  0  0  0  # atno 11005 bound_to 11000
  145.3022  139.1846  143.4683 LP  0  0  0  0  0  0  0  0  0  0  0  0  # atno 17320 bound_to 7965
  146.3278  140.3015  142.8621 LP  0  0  0  0  0  0  0  0  0  0  0  0  # atno 17321 bound_to 7965
  139.5651  144.2063  152.1752 LP  0  0  0  0  0  0  0  0  0  0  0  0  # atno 17342 bound_to 10162
  140.1342  144.5261  150.6784 LP  0  0  0  0  0  0  0  0  0  0  0  0  # atno 17343 bound_to 10162
  156.5368  130.4198  149.6174 LP  0  0  0  0  0  0  0  0  0  0  0  0  # atno 17370 bound_to 10713
  156.3020  130.7182  151.2056 LP  0  0  0  0  0  0  0  0  0  0  0  0  # atno 17371 bound_to 10713
  140.7411  133.8977  155.8278 LP  0  0  0  0  0  0  0  0  0  0  0  0  # atno 17394 bound_to 11000
  141.0077  134.1063  157.4253 LP  0  0  0  0  0  0  0  0  0  0  0  0  # atno 17395 bound_to 11000

$$$$
