AV-unprocessed.smi:21|AV-procd|sdf|155|dock8
  -GOLD-   2262015383D 1   1.00000     0.00000
 Structure written by MMmdl.
 61 64  0  0  0  0  0  0  0  0  1 V2000
  154.4897  140.6364  162.1124 C   0  0  0  0  0  0  0  0  0  0  0  0
  153.6580  141.6635  161.5972 O   0  0  0  0  0  0  0  0  0  0  0  0
  153.6877  141.7558  160.1800 C   0  0  1  0  0  0  0  0  0  0  0  0
  153.2895  140.4139  159.5458 C   0  0  0  0  0  0  0  0  0  0  0  0
  152.0141  140.7229  158.7450 C   0  0  2  0  0  0  0  0  0  0  0  0
  151.8115  139.8015  157.5223 C   0  0  0  0  0  0  0  0  0  0  0  0
  151.2710  138.4895  157.8909 N   0  0  0  0  0  0  0  0  0  0  0  0
  151.4388  138.0562  159.2729 C   0  0  0  0  0  0  0  0  0  0  0  0
  150.8809  137.5964  156.9338 C   0  0  0  0  0  0  0  0  0  0  0  0
  151.1987  137.8616  155.6381 N   0  0  0  0  0  0  0  0  0  0  0  0
  150.8548  137.0246  154.6575 C   0  0  0  0  0  0  0  0  0  0  0  0
  150.1907  135.8735  154.7425 N   0  0  0  0  0  0  0  0  0  0  0  0
  149.8519  135.5938  156.0319 C   0  0  0  0  0  0  0  0  0  0  0  0
  150.1525  136.3888  157.1785 C   0  0  0  0  0  0  0  0  0  0  0  0
  149.6479  135.7601  158.3134 N   0  0  0  0  0  0  0  0  0  0  0  0
  149.0840  134.6727  157.8668 C   0  0  0  0  0  0  0  0  0  0  0  0
  149.1551  134.4953  156.5057 N   0  0  0  0  0  0  0  0  0  0  0  0
  148.6142  133.3754  155.7534 C   0  0  0  0  0  0  0  0  0  0  0  0
  147.9259  133.8271  154.4366 C   0  0  2  0  0  0  0  0  0  0  0  0
  147.1336  135.1365  154.6505 C   0  0  0  0  0  0  0  0  0  0  0  0
  146.9345  135.8129  153.4264 O   0  0  0  0  0  0  0  0  0  0  0  0
  147.0154  132.7170  153.8515 C   0  0  2  0  0  0  0  0  0  0  0  0
  147.6896  131.3693  153.6609 C   0  0  0  0  0  0  0  0  0  0  0  0
  146.7640  130.6763  152.6684 C   0  0  0  0  0  0  0  0  0  0  0  0
  146.2350  131.7113  151.8491 O   0  0  0  0  0  0  0  0  0  0  0  0
  146.5235  132.9818  152.4231 C   0  0  0  0  0  0  0  0  0  0  0  0
  152.1171  142.1383  158.4262 N   0  0  0  0  0  0  0  0  0  0  0  0
  150.8584  142.7428  158.0106 C   0  0  0  0  0  0  0  0  0  0  0  0
  152.6312  142.7315  159.6448 C   0  0  0  0  0  0  0  0  0  0  0  0
  154.6844  142.0327  159.8309 H   0  0  0  0  0  0  0  0  0  0  0  0
  151.1669  140.5904  159.4205 H   0  0  0  0  0  0  0  0  0  0  0  0
  154.4093  140.6138  163.1990 H   0  0  0  0  0  0  0  0  0  0  0  0
  155.5370  140.8017  161.8580 H   0  0  0  0  0  0  0  0  0  0  0  0
  154.1880  139.6589  161.7341 H   0  0  0  0  0  0  0  0  0  0  0  0
  154.0903  140.0793  158.8857 H   0  0  0  0  0  0  0  0  0  0  0  0
  153.1206  139.6290  160.2841 H   0  0  0  0  0  0  0  0  0  0  0  0
  151.0958  140.2567  156.8382 H   0  0  0  0  0  0  0  0  0  0  0  0
  152.7349  139.7272  156.9482 H   0  0  0  0  0  0  0  0  0  0  0  0
  150.5313  137.5790  159.6436 H   0  0  0  0  0  0  0  0  0  0  0  0
  151.6523  138.9045  159.9238 H   0  0  0  0  0  0  0  0  0  0  0  0
  152.2702  137.3560  159.3589 H   0  0  0  0  0  0  0  0  0  0  0  0
  151.1551  137.3204  153.6633 H   0  0  0  0  0  0  0  0  0  0  0  0
  148.5970  133.9666  158.5230 H   0  0  0  0  0  0  0  0  0  0  0  0
  149.4129  132.6581  155.5640 H   0  0  0  0  0  0  0  0  0  0  0  0
  147.9145  132.8516  156.4058 H   0  0  0  0  0  0  0  0  0  0  0  0
  148.6944  134.0367  153.6897 H   0  0  0  0  0  0  0  0  0  0  0  0
  146.1483  134.9367  155.0705 H   0  0  0  0  0  0  0  0  0  0  0  0
  147.6514  135.7947  155.3488 H   0  0  0  0  0  0  0  0  0  0  0  0
  147.7703  135.9063  152.9951 H   0  0  0  0  0  0  0  0  0  0  0  0
  146.1471  132.5787  154.4982 H   0  0  0  0  0  0  0  0  0  0  0  0
  148.6823  131.4947  153.2259 H   0  0  0  0  0  0  0  0  0  0  0  0
  147.7891  130.8021  154.5856 H   0  0  0  0  0  0  0  0  0  0  0  0
  147.2788  129.9198  152.0760 H   0  0  0  0  0  0  0  0  0  0  0  0
  145.9387  130.1930  153.1926 H   0  0  0  0  0  0  0  0  0  0  0  0
  145.6445  133.6260  152.3964 H   0  0  0  0  0  0  0  0  0  0  0  0
  147.3048  133.4538  151.8258 H   0  0  0  0  0  0  0  0  0  0  0  0
  150.9854  143.8128  157.8436 H   0  0  0  0  0  0  0  0  0  0  0  0
  150.0844  142.6077  158.7670 H   0  0  0  0  0  0  0  0  0  0  0  0
  150.5031  142.3060  157.0777 H   0  0  0  0  0  0  0  0  0  0  0  0
  151.8261  142.8281  160.3757 H   0  0  0  0  0  0  0  0  0  0  0  0
  153.0376  143.7276  159.4670 H   0  0  0  0  0  0  0  0  0  0  0  0
  1  2  1  0  0  0  0
  1 32  1  0  0  0  0
  1 33  1  0  0  0  0
  1 34  1  0  0  0  0
  2  3  1  0  0  0  0
  3 30  1  0  0  0  0
  3 29  1  0  0  0  0
  3  4  1  0  0  0  0
  4  5  1  0  0  0  0
  4 35  1  0  0  0  0
  4 36  1  0  0  0  0
  5 31  1  0  0  0  0
  5  6  1  0  0  0  0
  5 27  1  0  0  0  0
  6  7  1  0  0  0  0
  6 37  1  0  0  0  0
  6 38  1  0  0  0  0
  7  8  1  0  0  0  0
  7  9  1  0  0  0  0
  8 39  1  0  0  0  0
  8 40  1  0  0  0  0
  8 41  1  0  0  0  0
  9 14  1  0  0  0  0
  9 10  2  0  0  0  0
 10 11  1  0  0  0  0
 11 12  2  0  0  0  0
 11 42  1  0  0  0  0
 12 13  1  0  0  0  0
 13 17  1  0  0  0  0
 13 14  2  0  0  0  0
 14 15  1  0  0  0  0
 15 16  2  0  0  0  0
 16 17  1  0  0  0  0
 16 43  1  0  0  0  0
 17 18  1  0  0  0  0
 18 19  1  0  0  0  0
 18 44  1  0  0  0  0
 18 45  1  0  0  0  0
 19 20  1  0  0  0  0
 19 22  1  0  0  0  0
 19 46  1  0  0  0  0
 20 21  1  0  0  0  0
 20 47  1  0  0  0  0
 20 48  1  0  0  0  0
 21 49  1  0  0  0  0
 22 26  1  0  0  0  0
 22 23  1  0  0  0  0
 22 50  1  0  0  0  0
 23 24  1  0  0  0  0
 23 51  1  0  0  0  0
 23 52  1  0  0  0  0
 24 25  1  0  0  0  0
 24 53  1  0  0  0  0
 24 54  1  0  0  0  0
 25 26  1  0  0  0  0
 26 55  1  0  0  0  0
 26 56  1  0  0  0  0
 27 28  1  0  0  0  0
 27 29  1  0  0  0  0
 28 57  1  0  0  0  0
 28 58  1  0  0  0  0
 28 59  1  0  0  0  0
 29 60  1  0  0  0  0
 29 61  1  0  0  0  0
M  END
> <s_m_source_file>
AV-unprocessed.smi

> <i_m_source_file_index>
21

> <i_lp_mmshare_version>
43012

> <i_f3d_flags>
0

> <s_epik_input>
W0NIM11PW0NASF0xW0NIMl1bQ0BIXShOKFtDSDNdKVtDSDJdMSlbQ0gyXU4oW0NIM10pYyhuW2NIXW4yKWMoYzIzKW5bY0hdbjNbQ0gyXVtDQEhdKFtDSDJdW09IXSlbQ0BASF00W0NIMl1bQ0gyXU9bQ0gyXTQ=

> <s_epik_cmdline>
J2VwaWtfcHl0aG9uJywgJy1waCcsICc3LjAnLCAnLXRuJywgJzgnLCAnLW1hJywgJzIwMCcsICctbWV0YWxfYmluZGluZycsICctaW1hZScsICc8aW5maWxlLm1hZT4nLCAnLW9tYWUnLCAnPG91dGZpbGUubWFlPic=

> <r_lp_tautomer_probability>
1

> <r_epik_Ionization_Penalty>
2.17574

> <r_epik_Ionization_Penalty_Charging>
0

> <r_epik_Ionization_Penalty_Neutral>
2.17574

> <r_epik_State_Penalty>
2.31336

> <r_epik_Charging_Adjusted_Penalty>
2.31336

> <i_epik_Tot_Q>
0

> <i_epik_Tot_abs_Q>
0

> <r_epik_Metal_State_Penalty>
2.31025

> <b_epik_Metal_Only>
0

> <s_lp_Force_Field>
OPLS_2005

> <r_lp_Energy>
70.8096

> <b_lp_Chiralities_Consistent>
1

> <s_lp_Variant>
AV-unprocessed.smi:21-35

> <Gold.Version>
5.8.1

> <Gold.Id.Protein>
6NUR|6NUR_protein|mol2

> <Gold.PLP.Fitness>
42.9595

> <Gold.PLP.PLP>
-36.3444

> <Gold.PLP.part.hbond>
-2.0000

> <Gold.PLP.part.metal>
0.0000

> <Gold.PLP.part.buried>
-5.2609

> <Gold.PLP.part.nonpolar>
-30.6708

> <Gold.PLP.part.repulsive>
0.5650

> <Gold.PLP.ligand.clash>
0.0000

> <Gold.PLP.ligand.torsion>
1.1610

> <Gold.PLP.Chemscore.Hbond>
1.8112

> <Gold.PLP.Chemscore.CHOScore>
0.9638

> <Gold.PLP.Chemscore.Metal>
0.0000

> <Gold.Chemscore.Hbonds>
donor molecule, donor type, donor heavy atom, donor atom, acceptor molecule, acceptor atom, score
      L1  H    21    49       P1  7948  1.00
      P1  H  6896  6907       L1    15  0.77
      L1  C    11    42       P1  7949  0.96

> <Gold.PLP.Chemscore.Internal.Correction>
0.6120

> <Gold.Rescore>
     Score         DG    S(hbond)    S(metal)    S(lipo)     H(rot)  DE(clash)    DE(int)     intcor
     10.38     -12.92       1.22        0.00      94.39       3.00       0.05       2.49       ----

> <Gold.Chemscore.Fitness>
10.3789

> <Gold.Chemscore.DG>
-12.9185

> <Gold.Chemscore.ZeroCoef>
-5.4800

> <Gold.Chemscore.Hbond>
1.2223

> <Gold.Chemscore.Metal>
0.0000

> <Gold.Chemscore.Lipo>
94.3938

> <Gold.Chemscore.Internal_Hbond>
0.0000

> <Gold.Chemscore.DEClash>
0.0502

> <Gold.Chemscore.DEInternal>
2.4894

> <Gold.Chemscore.Rot>
3.0031

> <Gold.Chemscore.Internal.Correction>
   9.000000E+99

> <Gold.Chemscore.Hbonds>
donor molecule, donor type, donor heavy atom, donor atom, acceptor molecule, acceptor atom, score
      L1  H    21    49       P1  7948  1.00
      P1  H  6896  6907       L1    15  0.18

> <Gold.Chemscore.Hbond.Weighted>
-4.0824

> <Gold.Chemscore.Metal.Weighted>
-0.0000

> <Gold.Chemscore.Lipo.Weighted>
-11.0441

> <Gold.Chemscore.Internal_Hbond.Weighted>
0.0000

> <Gold.Chemscore.DEClash.Weighted>
0.0502

> <Gold.Chemscore.DEInternal.Weighted>
2.4894

> <Gold.Chemscore.Rot.Weighted>
7.6880

> <Gold.Chemscore.Internal.Correction.Weighted>
   9.000000E+99

> <Gold.Protein.RotatedTorsions>
[ 6907 6896 6895 6894 ] final  -41.65 input  -60.11 | X-H torsion
[ 7974 7965 7964 7962 ] final  123.01 input  175.53 | X-H torsion
[ 8008 7997 7996 7995 ] final  133.57 input   59.86 | X-H torsion
[ 10167 10162 10161 10158 ] final -121.50 input  -65.29 | X-H torsion
[ 10718 10713 10712 10709 ] final -140.01 input   66.30 | X-H torsion
[ 10763 10752 10751 10750 ] final   21.57 input  -60.55 | X-H torsion
[ 11005 11000 10999 10996 ] final  -22.26 input  -57.11 | X-H torsion

> <Gold.Protein.ActiveResidues>
 VAL166  LYS551  ARG553  GLY616  TRP617  ASP618  TYR619  PRO620  LYS621  CYS622 
 ASP623  PHE694  ASN695  SER759  ASP760  ASP761  ALA762  ILE779  LEU786  VAL792 
 PHE793  MET794  SER795  GLU796  ALA797  LYS798  CYS799  TRP800  GLU811  SER814 

> <Gold.Protein.RotatedAtoms>
  150.9642  134.9026  159.7748 H   0  0  0  0  0  0  0  0  0  0  0  0  # atno 6907 bound_to 6896
  152.5167  134.3630  159.9301 H   0  0  0  0  0  0  0  0  0  0  0  0  # atno 6908 bound_to 6896
  151.3641  133.3838  159.2727 H   0  0  0  0  0  0  0  0  0  0  0  0  # atno 6909 bound_to 6896
  145.1008  139.3520  143.4813 H   0  0  0  0  0  0  0  0  0  0  0  0  # atno 7974 bound_to 7965
  156.2993  140.2518  156.3274 H   0  0  0  0  0  0  0  0  0  0  0  0  # atno 8008 bound_to 7997
  154.9177  140.0401  157.2000 H   0  0  0  0  0  0  0  0  0  0  0  0  # atno 8009 bound_to 7997
  154.8342  140.2880  155.5706 H   0  0  0  0  0  0  0  0  0  0  0  0  # atno 8010 bound_to 7997
  140.0244  143.5311  152.2206 H   0  0  0  0  0  0  0  0  0  0  0  0  # atno 10167 bound_to 10162
  156.3173  130.7515  151.1605 H   0  0  0  0  0  0  0  0  0  0  0  0  # atno 10718 bound_to 10713
  153.0984  135.6666  153.9718 H   0  0  0  0  0  0  0  0  0  0  0  0  # atno 10763 bound_to 10752
  153.9296  135.3005  155.3447 H   0  0  0  0  0  0  0  0  0  0  0  0  # atno 10764 bound_to 10752
  154.7404  135.5082  153.9188 H   0  0  0  0  0  0  0  0  0  0  0  0  # atno 10765 bound_to 10752
  140.8640  133.7768  156.0108 H   0  0  0  0  0  0  0  0  0  0  0  0  # atno 11005 bound_to 11000
  146.3530  140.0885  142.8614 LP  0  0  0  0  0  0  0  0  0  0  0  0  # atno 17320 bound_to 7965
  145.0957  140.9313  143.4742 LP  0  0  0  0  0  0  0  0  0  0  0  0  # atno 17321 bound_to 7965
  139.6118  144.7610  151.2935 LP  0  0  0  0  0  0  0  0  0  0  0  0  # atno 17342 bound_to 10162
  140.7329  143.6811  150.8000 LP  0  0  0  0  0  0  0  0  0  0  0  0  # atno 17343 bound_to 10162
  157.7404  131.0517  150.5166 LP  0  0  0  0  0  0  0  0  0  0  0  0  # atno 17370 bound_to 10713
  156.5314  130.4185  149.6200 LP  0  0  0  0  0  0  0  0  0  0  0  0  # atno 17371 bound_to 10713
  140.8650  134.2795  157.5217 LP  0  0  0  0  0  0  0  0  0  0  0  0  # atno 17394 bound_to 11000
  139.8708  134.9538  156.4155 LP  0  0  0  0  0  0  0  0  0  0  0  0  # atno 17395 bound_to 11000

$$$$
