AV-unprocessed.smi:1336|AV-procd|sdf|5496|dock1
  -GOLD-   22720 5 73D 1   1.00000     0.00000
 Structure written by MMmdl.
 43 43  0  0  0  0  0  0  0  0  1 V2000
  142.5301  135.3616  153.5491 C   0  0  0  0  0  0  0  0  0  0  0  0
  143.4602  136.4415  152.9787 C   0  0  0  0  0  0  0  0  0  0  0  0
  144.2101  137.2392  154.0573 C   0  0  0  0  0  0  0  0  0  0  0  0
  144.9755  138.3328  153.4680 N   0  0  0  0  0  0  0  0  0  0  0  0
  146.2752  138.5845  153.6838 C   0  0  0  0  0  0  0  0  0  0  0  0
  146.9826  137.9087  154.4336 O   0  0  0  0  0  0  0  0  0  0  0  0
  146.8664  139.7764  152.9122 C   0  0  2  0  0  0  0  0  0  0  0  0
  146.7750  139.4595  151.4103 C   0  0  0  0  0  0  0  0  0  0  0  0
  148.2765  139.9492  153.2524 N   0  0  0  0  0  0  0  0  0  0  0  0
  148.7514  140.2536  154.4720 C   0  0  0  0  0  0  0  0  0  0  0  0
  148.0281  140.5134  155.4335 O   0  0  0  0  0  0  0  0  0  0  0  0
  150.2747  140.2590  154.6363 C   0  0  0  0  0  0  0  0  0  0  0  0
  150.6549  140.5459  156.0628 C   0  0  0  0  0  0  0  0  0  0  0  0
  150.3989  139.7564  157.1565 C   0  0  0  0  0  0  0  0  0  0  0  0
  150.9652  140.4871  158.6332 S   0  0  0  0  0  0  0  0  0  0  0  0
  151.5469  141.8596  157.6974 C   0  0  0  0  0  0  0  0  0  0  0  0
  152.2094  143.0517  158.3118 C   0  0  0  0  0  0  0  0  0  0  0  0
  152.3229  142.9205  159.8381 C   0  0  0  0  0  0  0  0  0  0  0  0
  151.5585  144.3690  157.8665 C   0  0  0  0  0  0  0  0  0  0  0  0
  151.3271  141.7296  156.3861 N   0  0  0  0  0  0  0  0  0  0  0  0
  141.9888  134.8560  152.7492 H   0  0  0  0  0  0  0  0  0  0  0  0
  141.7943  135.7946  154.2271 H   0  0  0  0  0  0  0  0  0  0  0  0
  143.0875  134.6032  154.0994 H   0  0  0  0  0  0  0  0  0  0  0  0
  144.1765  135.9800  152.2979 H   0  0  0  0  0  0  0  0  0  0  0  0
  142.8707  137.1322  152.3748 H   0  0  0  0  0  0  0  0  0  0  0  0
  143.4959  137.6666  154.7616 H   0  0  0  0  0  0  0  0  0  0  0  0
  144.8460  136.5646  154.6328 H   0  0  0  0  0  0  0  0  0  0  0  0
  144.4781  138.9429  152.8358 H   0  0  0  0  0  0  0  0  0  0  0  0
  146.3085  140.6889  153.1320 H   0  0  0  0  0  0  0  0  0  0  0  0
  145.7394  139.3196  151.0975 H   0  0  0  0  0  0  0  0  0  0  0  0
  147.3264  138.5543  151.1509 H   0  0  0  0  0  0  0  0  0  0  0  0
  147.1849  140.2763  150.8153 H   0  0  0  0  0  0  0  0  0  0  0  0
  148.9454  139.7476  152.5234 H   0  0  0  0  0  0  0  0  0  0  0  0
  150.6643  139.2918  154.3171 H   0  0  0  0  0  0  0  0  0  0  0  0
  150.7097  141.0047  153.9697 H   0  0  0  0  0  0  0  0  0  0  0  0
  149.9005  138.7989  157.1852 H   0  0  0  0  0  0  0  0  0  0  0  0
  153.2300  143.0673  157.9275 H   0  0  0  0  0  0  0  0  0  0  0  0
  152.8599  142.0127  160.1150 H   0  0  0  0  0  0  0  0  0  0  0  0
  151.3391  142.8794  160.3072 H   0  0  0  0  0  0  0  0  0  0  0  0
  152.8601  143.7668  160.2665 H   0  0  0  0  0  0  0  0  0  0  0  0
  151.5636  144.4611  156.7799 H   0  0  0  0  0  0  0  0  0  0  0  0
  152.0929  145.2279  158.2732 H   0  0  0  0  0  0  0  0  0  0  0  0
  150.5230  144.4328  158.2020 H   0  0  0  0  0  0  0  0  0  0  0  0
  1  2  1  0  0  0  0
  1 21  1  0  0  0  0
  1 22  1  0  0  0  0
  1 23  1  0  0  0  0
  2  3  1  0  0  0  0
  2 24  1  0  0  0  0
  2 25  1  0  0  0  0
  3  4  1  0  0  0  0
  3 26  1  0  0  0  0
  3 27  1  0  0  0  0
  4  5  1  0  0  0  0
  4 28  1  0  0  0  0
  5  6  2  0  0  0  0
  5  7  1  0  0  0  0
  7  8  1  0  0  0  0
  7  9  1  0  0  0  0
  7 29  1  0  0  0  0
  8 30  1  0  0  0  0
  8 31  1  0  0  0  0
  8 32  1  0  0  0  0
  9 10  1  0  0  0  0
  9 33  1  0  0  0  0
 10 11  2  0  0  0  0
 10 12  1  0  0  0  0
 12 13  1  0  0  0  0
 12 34  1  0  0  0  0
 12 35  1  0  0  0  0
 13 20  1  0  0  0  0
 13 14  2  0  0  0  0
 14 15  1  0  0  0  0
 14 36  1  0  0  0  0
 15 16  1  0  0  0  0
 16 17  1  0  0  0  0
 16 20  2  0  0  0  0
 17 18  1  0  0  0  0
 17 19  1  0  0  0  0
 17 37  1  0  0  0  0
 18 38  1  0  0  0  0
 18 39  1  0  0  0  0
 18 40  1  0  0  0  0
 19 41  1  0  0  0  0
 19 42  1  0  0  0  0
 19 43  1  0  0  0  0
M  END
> <s_m_source_file>
AV-unprocessed.smi

> <i_m_source_file_index>
1336

> <i_lp_mmshare_version>
43012

> <i_f3d_flags>
0

> <s_epik_input>
W0NIM11bQ0gyXVtDSDJdW05IXUMoPU8pW0NASF0oW0NIM10pW05IXUMoPU8pW0NIMl1jMVtjSF1zYyhuMSlbQ0hdKFtDSDNdKVtDSDNd

> <s_epik_cmdline>
J2VwaWtfcHl0aG9uJywgJy1waCcsICc3LjAnLCAnLXRuJywgJzgnLCAnLW1hJywgJzIwMCcsICctbWV0YWxfYmluZGluZycsICctaW1hZScsICc8aW5maWxlLm1hZT4nLCAnLW9tYWUnLCAnPG91dGZpbGUubWFlPic=

> <r_lp_tautomer_probability>
1

> <r_epik_Ionization_Penalty>
3.10785e-05

> <r_epik_Ionization_Penalty_Charging>
0

> <r_epik_Ionization_Penalty_Neutral>
3.10785e-05

> <r_epik_State_Penalty>
-0

> <r_epik_Charging_Adjusted_Penalty>
0

> <i_epik_Tot_Q>
0

> <i_epik_Tot_abs_Q>
0

> <r_epik_Metal_State_Penalty>
-0

> <b_epik_Metal_Only>
0

> <s_lp_Force_Field>
OPLS_2005

> <r_lp_Energy>
-3.8093

> <b_lp_Chiralities_Consistent>
1

> <s_lp_Variant>
AV-unprocessed.smi:1336-1

> <Gold.Version>
5.8.1

> <Gold.Id.Protein>
6NUR|6NUR_protein|mol2

> <Gold.PLP.Fitness>
39.2819

> <Gold.PLP.PLP>
-33.4010

> <Gold.PLP.part.hbond>
-1.7952

> <Gold.PLP.part.metal>
0.0000

> <Gold.PLP.part.buried>
1.5496

> <Gold.PLP.part.nonpolar>
-32.5150

> <Gold.PLP.part.repulsive>
0.3259

> <Gold.PLP.ligand.clash>
0.0000

> <Gold.PLP.ligand.torsion>
0.1671

> <Gold.PLP.Chemscore.Hbond>
1.9920

> <Gold.PLP.Chemscore.CHOScore>
0.0000

> <Gold.PLP.Chemscore.Metal>
0.0000

> <Gold.Chemscore.Hbonds>
donor molecule, donor type, donor heavy atom, donor atom, acceptor molecule, acceptor atom, score
      L1  H     4    28       P1 10175  1.00
      L1  H     9    33       P1  7957  1.00

> <Gold.PLP.Chemscore.Internal.Correction>
0.2391

> <Gold.Rescore>
     Score         DG    S(hbond)    S(metal)    S(lipo)     H(rot)  DE(clash)    DE(int)     intcor
     15.68     -17.54       1.97        0.00      91.22       2.04       1.50       0.35       ----

> <Gold.Chemscore.Fitness>
15.6809

> <Gold.Chemscore.DG>
-17.5376

> <Gold.Chemscore.ZeroCoef>
-5.4800

> <Gold.Chemscore.Hbond>
1.9746

> <Gold.Chemscore.Metal>
0.0000

> <Gold.Chemscore.Lipo>
91.2222

> <Gold.Chemscore.Internal_Hbond>
0.0000

> <Gold.Chemscore.DEClash>
1.5025

> <Gold.Chemscore.DEInternal>
0.3542

> <Gold.Chemscore.Rot>
2.0353

> <Gold.Chemscore.Internal.Correction>
   9.000000E+99

> <Gold.Chemscore.Hbonds>
donor molecule, donor type, donor heavy atom, donor atom, acceptor molecule, acceptor atom, score
      L1  H     4    28       P1 10175  0.96
      L1  H     9    33       P1  7957  0.91

> <Gold.Chemscore.Hbond.Weighted>
-6.5950

> <Gold.Chemscore.Metal.Weighted>
-0.0000

> <Gold.Chemscore.Lipo.Weighted>
-10.6730

> <Gold.Chemscore.Internal_Hbond.Weighted>
0.0000

> <Gold.Chemscore.DEClash.Weighted>
1.5025

> <Gold.Chemscore.DEInternal.Weighted>
0.3542

> <Gold.Chemscore.Rot.Weighted>
5.2104

> <Gold.Chemscore.Internal.Correction.Weighted>
   9.000000E+99

> <Gold.Protein.RotatedTorsions>
[ 6907 6896 6895 6894 ] final  -29.42 input  -60.11 | X-H torsion
[ 7974 7965 7964 7962 ] final -151.53 input  175.53 | X-H torsion
[ 8008 7997 7996 7995 ] final -166.74 input   59.86 | X-H torsion
[ 10167 10162 10161 10158 ] final  -81.60 input  -65.29 | X-H torsion
[ 10718 10713 10712 10709 ] final -168.44 input   66.30 | X-H torsion
[ 10763 10752 10751 10750 ] final   87.77 input  -60.55 | X-H torsion
[ 11005 11000 10999 10996 ] final  -34.64 input  -57.11 | X-H torsion

> <Gold.Protein.ActiveResidues>
 VAL166  LYS551  ARG553  GLY616  TRP617  ASP618  TYR619  PRO620  LYS621  CYS622 
 ASP623  PHE694  ASN695  SER759  ASP760  ASP761  ALA762  ILE779  LEU786  VAL792 
 PHE793  MET794  SER795  GLU796  ALA797  LYS798  CYS799  TRP800  GLU811  SER814 

> <Gold.Protein.RotatedAtoms>
  151.1194  135.0071  159.8531 H   0  0  0  0  0  0  0  0  0  0  0  0  # atno 6907 bound_to 6896
  152.5447  134.1740  159.8618 H   0  0  0  0  0  0  0  0  0  0  0  0  # atno 6908 bound_to 6896
  151.1797  133.4687  159.2627 H   0  0  0  0  0  0  0  0  0  0  0  0  # atno 6909 bound_to 6896
  144.7845  140.4785  143.5816 H   0  0  0  0  0  0  0  0  0  0  0  0  # atno 7974 bound_to 7965
  155.8680  140.0989  157.1569 H   0  0  0  0  0  0  0  0  0  0  0  0  # atno 8008 bound_to 7997
  154.3995  140.1352  156.4106 H   0  0  0  0  0  0  0  0  0  0  0  0  # atno 8009 bound_to 7997
  155.7782  140.3459  155.5285 H   0  0  0  0  0  0  0  0  0  0  0  0  # atno 8010 bound_to 7997
  140.4397  143.2519  151.8643 H   0  0  0  0  0  0  0  0  0  0  0  0  # atno 10167 bound_to 10162
  156.6970  130.9181  151.3075 H   0  0  0  0  0  0  0  0  0  0  0  0  # atno 10718 bound_to 10713
  153.1701  135.4531  154.9891 H   0  0  0  0  0  0  0  0  0  0  0  0  # atno 10763 bound_to 10752
  154.7960  135.3238  154.7668 H   0  0  0  0  0  0  0  0  0  0  0  0  # atno 10764 bound_to 10752
  153.8145  135.6952  153.4890 H   0  0  0  0  0  0  0  0  0  0  0  0  # atno 10765 bound_to 10752
  140.9733  133.7097  156.1560 H   0  0  0  0  0  0  0  0  0  0  0  0  # atno 11005 bound_to 11000
  145.5960  139.1499  143.3156 LP  0  0  0  0  0  0  0  0  0  0  0  0  # atno 17320 bound_to 7965
  146.2070  140.6084  142.9077 LP  0  0  0  0  0  0  0  0  0  0  0  0  # atno 17321 bound_to 7965
  139.4789  144.5243  151.8757 LP  0  0  0  0  0  0  0  0  0  0  0  0  # atno 17342 bound_to 10162
  140.4333  144.2086  150.5888 LP  0  0  0  0  0  0  0  0  0  0  0  0  # atno 17343 bound_to 10162
  157.6987  130.9310  150.0722 LP  0  0  0  0  0  0  0  0  0  0  0  0  # atno 17370 bound_to 10713
  156.1756  130.3648  149.9105 LP  0  0  0  0  0  0  0  0  0  0  0  0  # atno 17371 bound_to 10713
  140.7297  134.4268  157.5567 LP  0  0  0  0  0  0  0  0  0  0  0  0  # atno 17394 bound_to 11000
  139.8920  134.8764  156.2290 LP  0  0  0  0  0  0  0  0  0  0  0  0  # atno 17395 bound_to 11000

$$$$
