AV-unprocessed.smi:2063|AV-procd|sdf|8414|dock4
  -GOLD-   2272011103D 1   1.00000     0.00000
 Structure written by MMmdl.
 38 39  0  0  0  0  0  0  0  0  2 V2000
  145.6301  133.2631  162.5015 C   0  0  0  0  0  0  0  0  0  0  0  0
  145.7340  134.7770  162.7372 C   0  0  0  0  0  0  0  0  0  0  0  0
  144.3799  135.4954  162.6491 C   0  0  0  0  0  0  0  0  0  0  0  0
  146.7682  135.4147  161.8630 C   0  0  0  0  0  0  0  0  0  0  0  0
  147.0400  136.7234  161.8877 N   0  0  0  0  0  0  0  0  0  0  0  0
  148.0374  137.0693  160.9879 N   0  0  0  0  0  0  0  0  0  0  0  0
  148.5137  136.0208  160.3025 C   0  0  0  0  0  0  0  0  0  0  0  0
  149.4817  136.1436  159.3794 N   0  5  0  0  0  0  0  0  0  0  0  0
  149.8728  137.3714  158.9682 C   0  0  0  0  0  0  0  0  0  0  0  0
  149.1946  138.4011  158.9953 O   0  0  0  0  0  0  0  0  0  0  0  0
  151.1275  137.4068  158.4965 N   0  0  0  0  0  0  0  0  0  0  0  0
  151.8304  138.5854  157.9939 C   0  0  2  0  0  0  0  0  0  0  0  0
  152.8870  138.1577  156.9593 C   0  0  0  0  0  0  0  0  0  0  0  0
  152.4537  139.3423  159.1825 C   0  0  1  0  0  0  0  0  0  0  0  0
  153.3337  138.4893  160.0989 C   0  0  0  0  0  0  0  0  0  0  0  0
  154.3124  139.4874  160.6998 C   0  0  0  0  0  0  0  0  0  0  0  0
  154.1279  140.7489  159.8529 C   0  0  0  0  0  0  0  0  0  0  0  0
  153.3727  140.3249  158.7284 O   0  0  0  0  0  0  0  0  0  0  0  0
  147.7289  134.4966  160.7147 S   0  0  0  0  0  0  0  0  0  0  0  0
  146.5937  132.7762  162.6540 H   0  0  0  0  0  0  0  0  0  0  0  0
  145.3016  133.0414  161.4855 H   0  0  0  0  0  0  0  0  0  0  0  0
  144.9167  132.8069  163.1880 H   0  0  0  0  0  0  0  0  0  0  0  0
  146.0804  134.9027  163.7639 H   0  0  0  0  0  0  0  0  0  0  0  0
  144.4790  136.5506  162.9051 H   0  0  0  0  0  0  0  0  0  0  0  0
  143.6563  135.0551  163.3356 H   0  0  0  0  0  0  0  0  0  0  0  0
  143.9635  135.4343  161.6432 H   0  0  0  0  0  0  0  0  0  0  0  0
  151.6438  136.5397  158.4992 H   0  0  0  0  0  0  0  0  0  0  0  0
  151.1118  139.2476  157.5075 H   0  0  0  0  0  0  0  0  0  0  0  0
  153.4002  139.0205  156.5350 H   0  0  0  0  0  0  0  0  0  0  0  0
  152.4320  137.6146  156.1305 H   0  0  0  0  0  0  0  0  0  0  0  0
  153.6401  137.5088  157.4078 H   0  0  0  0  0  0  0  0  0  0  0  0
  151.6762  139.8343  159.7706 H   0  0  0  0  0  0  0  0  0  0  0  0
  152.7567  137.9577  160.8559 H   0  0  0  0  0  0  0  0  0  0  0  0
  153.8829  137.7496  159.5146 H   0  0  0  0  0  0  0  0  0  0  0  0
  154.0919  139.6893  161.7485 H   0  0  0  0  0  0  0  0  0  0  0  0
  155.3334  139.1098  160.6372 H   0  0  0  0  0  0  0  0  0  0  0  0
  153.5596  141.5006  160.4024 H   0  0  0  0  0  0  0  0  0  0  0  0
  155.0753  141.1935  159.5480 H   0  0  0  0  0  0  0  0  0  0  0  0
  1  2  1  0  0  0  0
  1 20  1  0  0  0  0
  1 21  1  0  0  0  0
  1 22  1  0  0  0  0
  2  3  1  0  0  0  0
  2  4  1  0  0  0  0
  2 23  1  0  0  0  0
  3 24  1  0  0  0  0
  3 25  1  0  0  0  0
  3 26  1  0  0  0  0
  4 19  1  0  0  0  0
  4  5  2  0  0  0  0
  5  6  1  0  0  0  0
  6  7  2  0  0  0  0
  7  8  1  0  0  0  0
  7 19  1  0  0  0  0
  8  9  1  0  0  0  0
  9 10  2  0  0  0  0
  9 11  1  0  0  0  0
 11 12  1  0  0  0  0
 11 27  1  0  0  0  0
 12 13  1  0  0  0  0
 12 14  1  0  0  0  0
 12 28  1  0  0  0  0
 13 29  1  0  0  0  0
 13 30  1  0  0  0  0
 13 31  1  0  0  0  0
 14 18  1  0  0  0  0
 14 15  1  0  0  0  0
 14 32  1  0  0  0  0
 15 16  1  0  0  0  0
 15 33  1  0  0  0  0
 15 34  1  0  0  0  0
 16 17  1  0  0  0  0
 16 35  1  0  0  0  0
 16 36  1  0  0  0  0
 17 18  1  0  0  0  0
 17 37  1  0  0  0  0
 17 38  1  0  0  0  0
M  CHG  1   8  -1
M  END
> <s_m_source_file>
AV-unprocessed.smi

> <i_m_source_file_index>
2063

> <i_lp_mmshare_version>
43012

> <i_f3d_flags>
0

> <s_epik_input>
W0NIM11bQ0hdKFtDSDNdKWMxbm5jKHMxKVtOSF1DKD1PKVtOSF1bQ0BIXShbQ0gzXSlbQ0BASF0yW0NIMl1bQ0gyXVtDSDJdTzI=

> <s_epik_cmdline>
J2VwaWtfcHl0aG9uJywgJy1waCcsICc3LjAnLCAnLXRuJywgJzgnLCAnLW1hJywgJzIwMCcsICctbWV0YWxfYmluZGluZycsICctaW1hZScsICc8aW5maWxlLm1hZT4nLCAnLW9tYWUnLCAnPG91dGZpbGUubWFlPic=

> <r_lp_tautomer_probability>
1

> <r_epik_Ionization_Penalty>
4.37022

> <r_epik_Ionization_Penalty_Charging>
4.21437

> <r_epik_Ionization_Penalty_Neutral>
0.15585

> <r_epik_State_Penalty>
4.21389

> <r_epik_Charging_Adjusted_Penalty>
8.42826

> <i_epik_Tot_Q>
-1

> <i_epik_Tot_abs_Q>
1

> <r_epik_Metal_State_Penalty>
0.693772

> <b_epik_Metal_Only>
1

> <s_lp_Force_Field>
OPLS_2005

> <r_lp_Energy>
10.221

> <b_lp_Chiralities_Consistent>
1

> <s_lp_Variant>
AV-unprocessed.smi:2063-7

> <Gold.Version>
5.8.1

> <Gold.Id.Protein>
6NUR|6NUR_protein|mol2

> <Gold.PLP.Fitness>
42.0937

> <Gold.PLP.PLP>
-30.9902

> <Gold.PLP.part.hbond>
-5.5702

> <Gold.PLP.part.metal>
0.0000

> <Gold.PLP.part.buried>
-3.9995

> <Gold.PLP.part.nonpolar>
-22.0513

> <Gold.PLP.part.repulsive>
0.1145

> <Gold.PLP.ligand.clash>
0.0000

> <Gold.PLP.ligand.torsion>
0.7028

> <Gold.PLP.Chemscore.Hbond>
4.1324

> <Gold.PLP.Chemscore.CHOScore>
0.0000

> <Gold.PLP.Chemscore.Metal>
0.0000

> <Gold.Chemscore.Hbonds>
donor molecule, donor type, donor heavy atom, donor atom, acceptor molecule, acceptor atom, score
      P1  H  6896  6909       L1     8  2.00
      P1  H  6931  6943       L1     6  0.99
      P1  H  6934  6947       L1     6  0.22
      P1  H  7997  8010       L1    18  0.74

> <Gold.PLP.Chemscore.Internal.Correction>
0.1119

> <Gold.Rescore>
     Score         DG    S(hbond)    S(metal)    S(lipo)     H(rot)  DE(clash)    DE(int)     intcor
     15.33     -17.80       2.21        0.00      72.66       1.39       0.03       2.43       ----

> <Gold.Chemscore.Fitness>
15.3314

> <Gold.Chemscore.DG>
-17.7978

> <Gold.Chemscore.ZeroCoef>
-5.4800

> <Gold.Chemscore.Hbond>
2.2075

> <Gold.Chemscore.Metal>
0.0000

> <Gold.Chemscore.Lipo>
72.6625

> <Gold.Chemscore.Internal_Hbond>
0.0000

> <Gold.Chemscore.DEClash>
0.0349

> <Gold.Chemscore.DEInternal>
2.4315

> <Gold.Chemscore.Rot>
1.3893

> <Gold.Chemscore.Internal.Correction>
   9.000000E+99

> <Gold.Chemscore.Hbonds>
donor molecule, donor type, donor heavy atom, donor atom, acceptor molecule, acceptor atom, score
      P1  H  6896  6909       L1     8  0.56
      P1  H  6931  6943       L1     6  0.42
      P1  H  6934  6947       L1     6  0.01
      P1  H  7997  8010       L1    18  0.39

> <Gold.Chemscore.Hbond.Weighted>
-7.3730

> <Gold.Chemscore.Metal.Weighted>
-0.0000

> <Gold.Chemscore.Lipo.Weighted>
-8.5015

> <Gold.Chemscore.Internal_Hbond.Weighted>
0.0000

> <Gold.Chemscore.DEClash.Weighted>
0.0349

> <Gold.Chemscore.DEInternal.Weighted>
2.4315

> <Gold.Chemscore.Rot.Weighted>
3.5567

> <Gold.Chemscore.Internal.Correction.Weighted>
   9.000000E+99

> <Gold.Protein.RotatedTorsions>
[ 6907 6896 6895 6894 ] final   48.42 input  -60.11 | X-H torsion
[ 7974 7965 7964 7962 ] final   20.14 input  175.53 | X-H torsion
[ 8008 7997 7996 7995 ] final   22.36 input   59.86 | X-H torsion
[ 10167 10162 10161 10158 ] final   70.32 input  -65.29 | X-H torsion
[ 10718 10713 10712 10709 ] final   43.73 input   66.30 | X-H torsion
[ 10763 10752 10751 10750 ] final  -82.02 input  -60.55 | X-H torsion
[ 11005 11000 10999 10996 ] final  -27.45 input  -57.11 | X-H torsion

> <Gold.Protein.ActiveResidues>
 VAL166  LYS551  ARG553  GLY616  TRP617  ASP618  TYR619  PRO620  LYS621  CYS622 
 ASP623  PHE694  ASN695  SER759  ASP760  ASP761  ALA762  ILE779  LEU786  VAL792 
 PHE793  MET794  SER795  GLU796  ALA797  LYS798  CYS799  TRP800  GLU811  SER814 

> <Gold.Protein.RotatedAtoms>
  152.2793  134.7846  160.0399 H   0  0  0  0  0  0  0  0  0  0  0  0  # atno 6907 bound_to 6896
  151.8431  133.3422  159.3657 H   0  0  0  0  0  0  0  0  0  0  0  0  # atno 6908 bound_to 6896
  150.7183  134.5300  159.5740 H   0  0  0  0  0  0  0  0  0  0  0  0  # atno 6909 bound_to 6896
  146.2122  139.8212  142.8679 H   0  0  0  0  0  0  0  0  0  0  0  0  # atno 7974 bound_to 7965
  154.9646  140.3082  155.5015 H   0  0  0  0  0  0  0  0  0  0  0  0  # atno 8008 bound_to 7997
  156.2973  140.2295  156.4672 H   0  0  0  0  0  0  0  0  0  0  0  0  # atno 8009 bound_to 7997
  154.7933  140.0438  157.1206 H   0  0  0  0  0  0  0  0  0  0  0  0  # atno 8010 bound_to 7997
  140.0582  144.5255  150.7313 H   0  0  0  0  0  0  0  0  0  0  0  0  # atno 10167 bound_to 10162
  157.4191  130.7958  149.7499 H   0  0  0  0  0  0  0  0  0  0  0  0  # atno 10718 bound_to 10713
  154.5707  135.5606  153.7092 H   0  0  0  0  0  0  0  0  0  0  0  0  # atno 10763 bound_to 10752
  153.0047  135.6296  154.2119 H   0  0  0  0  0  0  0  0  0  0  0  0  # atno 10764 bound_to 10752
  154.2058  135.2876  155.2955 H   0  0  0  0  0  0  0  0  0  0  0  0  # atno 10765 bound_to 10752
  140.9121  133.7454  156.0684 H   0  0  0  0  0  0  0  0  0  0  0  0  # atno 11005 bound_to 11000
  145.3095  141.0216  143.3563 LP  0  0  0  0  0  0  0  0  0  0  0  0  # atno 17320 bound_to 7965
  144.8946  139.4728  143.6661 LP  0  0  0  0  0  0  0  0  0  0  0  0  # atno 17321 bound_to 7965
  140.7184  143.2566  151.4358 LP  0  0  0  0  0  0  0  0  0  0  0  0  # atno 17342 bound_to 10162
  139.5910  144.1499  152.2088 LP  0  0  0  0  0  0  0  0  0  0  0  0  # atno 17343 bound_to 10162
  155.9874  130.3967  150.3164 LP  0  0  0  0  0  0  0  0  0  0  0  0  # atno 17370 bound_to 10713
  157.1310  131.0272  151.2969 LP  0  0  0  0  0  0  0  0  0  0  0  0  # atno 17371 bound_to 10713
  140.8097  134.3413  157.5415 LP  0  0  0  0  0  0  0  0  0  0  0  0  # atno 17394 bound_to 11000
  139.8759  134.9247  156.3356 LP  0  0  0  0  0  0  0  0  0  0  0  0  # atno 17395 bound_to 11000

$$$$
