AV-unprocessed.smi:36|AV-procd|sdf|299|dock7
  -GOLD-   2262016103D 1   1.00000     0.00000
 Structure written by MMmdl.
 63 66  0  0  0  0  0  0  0  0  2 V2000
  143.8916  133.5961  151.7378 C   0  0  0  0  0  0  0  0  0  0  0  0
  144.4588  134.9605  152.1628 C   0  0  0  0  0  0  0  0  0  0  0  0
  145.0055  135.6991  150.9295 C   0  0  0  0  0  0  0  0  0  0  0  0
  143.3573  135.8005  152.8300 C   0  0  0  0  0  0  0  0  0  0  0  0
  145.8855  134.6858  153.4036 Si  0  0  0  0  0  0  0  0  0  0  0  0
  145.2495  133.8449  154.9866 C   0  0  0  0  0  0  0  0  0  0  0  0
  147.2664  133.6294  152.6389 C   0  0  0  0  0  0  0  0  0  0  0  0
  146.5389  136.2019  153.7861 O   0  0  0  0  0  0  0  0  0  0  0  0
  145.8104  137.2657  154.3673 C   0  0  0  0  0  0  0  0  0  0  0  0
  146.6381  138.5557  154.2633 C   0  0  2  0  0  0  0  0  0  0  0  0
  145.9309  139.6738  154.7821 O   0  0  0  0  0  0  0  0  0  0  0  0
  146.5841  140.8392  154.3815 C   0  0  1  0  0  0  0  0  0  0  0  0
  147.5906  141.2065  155.4320 N   0  0  0  0  0  0  0  0  0  0  0  0
  147.4155  141.9071  156.5735 C   0  0  0  0  0  0  0  0  0  0  0  0
  148.4869  142.1238  157.3333 N   0  0  0  0  0  0  0  0  0  0  0  0
  149.4849  141.5128  156.5890 C   0  0  0  0  0  0  0  0  0  0  0  0
  150.8845  141.3723  156.7951 C   0  0  0  0  0  0  0  0  0  0  0  0
  151.5107  141.8623  157.8758 N   0  5  0  0  0  0  0  0  0  0  0  0
  152.4821  141.1325  158.4809 C   0  0  0  0  0  0  0  0  0  0  0  0
  153.0361  140.1138  158.0621 O   0  0  0  0  0  0  0  0  0  0  0  0
  152.8360  141.6372  159.8539 C   0  0  0  0  0  0  0  0  0  0  0  0
  152.2261  142.8140  160.3453 C   0  0  0  0  0  0  0  0  0  0  0  0
  152.5260  143.2908  161.6362 C   0  0  0  0  0  0  0  0  0  0  0  0
  153.4318  142.5896  162.4537 C   0  0  0  0  0  0  0  0  0  0  0  0
  154.0340  141.4085  161.9811 C   0  0  0  0  0  0  0  0  0  0  0  0
  153.7356  140.9317  160.6897 C   0  0  0  0  0  0  0  0  0  0  0  0
  151.5809  140.6956  155.8460 N   0  0  0  0  0  0  0  0  0  0  0  0
  150.9563  140.2101  154.7663 C   0  0  0  0  0  0  0  0  0  0  0  0
  149.6611  140.2772  154.4428 N   0  0  0  0  0  0  0  0  0  0  0  0
  148.9489  140.9427  155.3981 C   0  0  0  0  0  0  0  0  0  0  0  0
  147.2838  140.5122  153.0482 C   0  0  0  0  0  0  0  0  0  0  0  0
  147.0094  139.0254  152.8539 C   0  0  2  0  0  0  0  0  0  0  0  0
  145.9490  138.8279  151.9376 O   0  0  0  0  0  0  0  0  0  0  0  0
  143.0853  133.7104  151.0124 H   0  0  0  0  0  0  0  0  0  0  0  0
  143.4902  133.0480  152.5904 H   0  0  0  0  0  0  0  0  0  0  0  0
  144.6608  132.9738  151.2793 H   0  0  0  0  0  0  0  0  0  0  0  0
  145.7932  135.1238  150.4422 H   0  0  0  0  0  0  0  0  0  0  0  0
  145.4247  136.6695  151.1967 H   0  0  0  0  0  0  0  0  0  0  0  0
  144.2222  135.8737  150.1910 H   0  0  0  0  0  0  0  0  0  0  0  0
  142.5255  135.9771  152.1471 H   0  0  0  0  0  0  0  0  0  0  0  0
  143.7350  136.7736  153.1451 H   0  0  0  0  0  0  0  0  0  0  0  0
  142.9565  135.3012  153.7125 H   0  0  0  0  0  0  0  0  0  0  0  0
  144.8577  132.8494  154.7792 H   0  0  0  0  0  0  0  0  0  0  0  0
  144.4465  134.4153  155.4533 H   0  0  0  0  0  0  0  0  0  0  0  0
  146.0414  133.7311  155.7263 H   0  0  0  0  0  0  0  0  0  0  0  0
  146.9042  132.6421  152.3532 H   0  0  0  0  0  0  0  0  0  0  0  0
  148.0902  133.4826  153.3373 H   0  0  0  0  0  0  0  0  0  0  0  0
  147.6797  134.0959  151.7451 H   0  0  0  0  0  0  0  0  0  0  0  0
  144.8603  137.3798  153.8440 H   0  0  0  0  0  0  0  0  0  0  0  0
  145.5821  137.0251  155.4059 H   0  0  0  0  0  0  0  0  0  0  0  0
  147.5621  138.4382  154.8282 H   0  0  0  0  0  0  0  0  0  0  0  0
  145.9070  141.6930  154.3398 H   0  0  0  0  0  0  0  0  0  0  0  0
  146.4466  142.2801  156.8700 H   0  0  0  0  0  0  0  0  0  0  0  0
  151.5273  143.3627  159.7302 H   0  0  0  0  0  0  0  0  0  0  0  0
  152.0593  144.1947  161.9986 H   0  0  0  0  0  0  0  0  0  0  0  0
  153.6612  142.9549  163.4437 H   0  0  0  0  0  0  0  0  0  0  0  0
  154.7238  140.8651  162.6100 H   0  0  0  0  0  0  0  0  0  0  0  0
  154.2003  140.0176  160.3489 H   0  0  0  0  0  0  0  0  0  0  0  0
  151.5863  139.6910  154.0594 H   0  0  0  0  0  0  0  0  0  0  0  0
  146.8786  141.1291  152.2450 H   0  0  0  0  0  0  0  0  0  0  0  0
  148.3551  140.7043  153.1194 H   0  0  0  0  0  0  0  0  0  0  0  0
  147.8875  138.4993  152.4780 H   0  0  0  0  0  0  0  0  0  0  0  0
  145.1534  139.1660  152.3195 H   0  0  0  0  0  0  0  0  0  0  0  0
  1  2  1  0  0  0  0
  1 34  1  0  0  0  0
  1 35  1  0  0  0  0
  1 36  1  0  0  0  0
  2  3  1  0  0  0  0
  2  4  1  0  0  0  0
  2  5  1  0  0  0  0
  3 37  1  0  0  0  0
  3 38  1  0  0  0  0
  3 39  1  0  0  0  0
  4 40  1  0  0  0  0
  4 41  1  0  0  0  0
  4 42  1  0  0  0  0
  5  6  1  0  0  0  0
  5  7  1  0  0  0  0
  5  8  1  0  0  0  0
  6 43  1  0  0  0  0
  6 44  1  0  0  0  0
  6 45  1  0  0  0  0
  7 46  1  0  0  0  0
  7 47  1  0  0  0  0
  7 48  1  0  0  0  0
  8  9  1  0  0  0  0
  9 10  1  0  0  0  0
  9 49  1  0  0  0  0
  9 50  1  0  0  0  0
 10 32  1  0  0  0  0
 10 11  1  0  0  0  0
 10 51  1  0  0  0  0
 11 12  1  0  0  0  0
 12 13  1  0  0  0  0
 12 31  1  0  0  0  0
 12 52  1  0  0  0  0
 13 30  1  0  0  0  0
 13 14  1  0  0  0  0
 14 15  2  0  0  0  0
 14 53  1  0  0  0  0
 15 16  1  0  0  0  0
 16 30  2  0  0  0  0
 16 17  1  0  0  0  0
 17 18  1  0  0  0  0
 17 27  2  0  0  0  0
 18 19  1  0  0  0  0
 19 20  2  0  0  0  0
 19 21  1  0  0  0  0
 21 26  1  0  0  0  0
 21 22  2  0  0  0  0
 22 23  1  0  0  0  0
 22 54  1  0  0  0  0
 23 24  2  0  0  0  0
 23 55  1  0  0  0  0
 24 25  1  0  0  0  0
 24 56  1  0  0  0  0
 25 26  2  0  0  0  0
 25 57  1  0  0  0  0
 26 58  1  0  0  0  0
 27 28  1  0  0  0  0
 28 29  2  0  0  0  0
 28 59  1  0  0  0  0
 29 30  1  0  0  0  0
 31 32  1  0  0  0  0
 31 60  1  0  0  0  0
 31 61  1  0  0  0  0
 32 33  1  0  0  0  0
 32 62  1  0  0  0  0
 33 63  1  0  0  0  0
M  CHG  1  18  -1
M  END
> <s_m_source_file>
AV-unprocessed.smi

> <i_m_source_file_index>
36

> <i_lp_mmshare_version>
43012

> <i_f3d_flags>
0

> <s_epik_input>
W0NIM11DKFtDSDNdKShbQ0gzXSlbU2ldKFtDSDNdKShbQ0gzXSlPW0NIMl1bQ0BASF0xT1tDQEhdKFtDSDJdW0NASF0xW09IXSluKFtjSF1uMiljKGMyMyluW2NIXW5jM1tOSF1DKD1PKWM0W2NIXVtjSF1bY0hdW2NIXVtjSF00

> <s_epik_cmdline>
J2VwaWtfcHl0aG9uJywgJy1waCcsICc3LjAnLCAnLXRuJywgJzgnLCAnLW1hJywgJzIwMCcsICctbWV0YWxfYmluZGluZycsICctaW1hZScsICc8aW5maWxlLm1hZT4nLCAnLW9tYWUnLCAnPG91dGZpbGUubWFlPic=

> <r_lp_tautomer_probability>
1

> <r_epik_Ionization_Penalty>
4.75685

> <r_epik_Ionization_Penalty_Charging>
3.55822

> <r_epik_Ionization_Penalty_Neutral>
1.19863

> <r_epik_State_Penalty>
3.564

> <r_epik_Charging_Adjusted_Penalty>
7.12222

> <i_epik_Tot_Q>
-1

> <i_epik_Tot_abs_Q>
1

> <r_epik_Metal_State_Penalty>
0.523258

> <b_epik_Metal_Only>
1

> <s_epik_Chemistry_Notes>
This compound contains an acetal/aminal-like group ( X-CH(R)-Y where X, Y are N, S, or O) that may be acid/base labile, releasing an aldehyde.

> <s_lp_Force_Field>
OPLS_2005

> <r_lp_Energy>
31.8214

> <b_lp_Chiralities_Consistent>
1

> <s_lp_Variant>
AV-unprocessed.smi:36-21

> <Gold.Version>
5.8.1

> <Gold.Id.Protein>
6NUR|6NUR_protein|mol2

> <Gold.PLP.Fitness>
58.4102

> <Gold.PLP.PLP>
-54.3820

> <Gold.PLP.part.hbond>
-4.2030

> <Gold.PLP.part.metal>
0.0000

> <Gold.PLP.part.buried>
-1.9791

> <Gold.PLP.part.nonpolar>
-47.5751

> <Gold.PLP.part.repulsive>
0.7450

> <Gold.PLP.ligand.clash>
0.3097

> <Gold.PLP.ligand.torsion>
1.0062

> <Gold.PLP.Chemscore.Hbond>
2.0000

> <Gold.PLP.Chemscore.CHOScore>
0.0000

> <Gold.PLP.Chemscore.Metal>
0.0000

> <Gold.Chemscore.Hbonds>
donor molecule, donor type, donor heavy atom, donor atom, acceptor molecule, acceptor atom, score
      L1  H    33    63       P1 10175  1.00
      P1  H  7997  8008       L1    20  0.99

> <Gold.PLP.Chemscore.Internal.Correction>
0.3503

> <Gold.Rescore>
     Score         DG    S(hbond)    S(metal)    S(lipo)     H(rot)  DE(clash)    DE(int)     intcor
     12.67     -18.02       1.95        0.00     110.04       2.67       1.49       3.86       ----

> <Gold.Chemscore.Fitness>
12.6740

> <Gold.Chemscore.DG>
-18.0218

> <Gold.Chemscore.ZeroCoef>
-5.4800

> <Gold.Chemscore.Hbond>
1.9471

> <Gold.Chemscore.Metal>
0.0000

> <Gold.Chemscore.Lipo>
110.0377

> <Gold.Chemscore.Internal_Hbond>
0.0000

> <Gold.Chemscore.DEClash>
1.4904

> <Gold.Chemscore.DEInternal>
3.8574

> <Gold.Chemscore.Rot>
2.6702

> <Gold.Chemscore.Internal.Correction>
   9.000000E+99

> <Gold.Chemscore.Hbonds>
donor molecule, donor type, donor heavy atom, donor atom, acceptor molecule, acceptor atom, score
      L1  H    33    63       P1 10175  0.95
      P1  H  7997  8008       L1    20  0.93

> <Gold.Chemscore.Hbond.Weighted>
-6.5032

> <Gold.Chemscore.Metal.Weighted>
-0.0000

> <Gold.Chemscore.Lipo.Weighted>
-12.8744

> <Gold.Chemscore.Internal_Hbond.Weighted>
0.0000

> <Gold.Chemscore.DEClash.Weighted>
1.4904

> <Gold.Chemscore.DEInternal.Weighted>
3.8574

> <Gold.Chemscore.Rot.Weighted>
6.8358

> <Gold.Chemscore.Internal.Correction.Weighted>
   9.000000E+99

> <Gold.Protein.RotatedTorsions>
[ 6907 6896 6895 6894 ] final  -43.41 input  -60.11 | X-H torsion
[ 7974 7965 7964 7962 ] final   72.15 input  175.53 | X-H torsion
[ 8008 7997 7996 7995 ] final  -87.56 input   59.86 | X-H torsion
[ 10167 10162 10161 10158 ] final  -45.43 input  -65.29 | X-H torsion
[ 10718 10713 10712 10709 ] final -163.27 input   66.30 | X-H torsion
[ 10763 10752 10751 10750 ] final  126.96 input  -60.55 | X-H torsion
[ 11005 11000 10999 10996 ] final  140.64 input  -57.11 | X-H torsion

> <Gold.Protein.ActiveResidues>
 VAL166  LYS551  ARG553  GLY616  TRP617  ASP618  TYR619  PRO620  LYS621  CYS622 
 ASP623  PHE694  ASN695  SER759  ASP760  ASP761  ALA762  ILE779  LEU786  VAL792 
 PHE793  MET794  SER795  GLU796  ALA797  LYS798  CYS799  TRP800  GLU811  SER814 

> <Gold.Protein.RotatedAtoms>
  150.9442  134.8848  159.7631 H   0  0  0  0  0  0  0  0  0  0  0  0  # atno 6907 bound_to 6896
  152.5093  134.3898  159.9390 H   0  0  0  0  0  0  0  0  0  0  0  0  # atno 6908 bound_to 6896
  151.3918  133.3746  159.2756 H   0  0  0  0  0  0  0  0  0  0  0  0  # atno 6909 bound_to 6896
  145.7570  139.2784  143.1398 H   0  0  0  0  0  0  0  0  0  0  0  0  # atno 7974 bound_to 7965
  154.6646  140.0564  157.0100 H   0  0  0  0  0  0  0  0  0  0  0  0  # atno 8008 bound_to 7997
  155.1178  140.3244  155.4486 H   0  0  0  0  0  0  0  0  0  0  0  0  # atno 8009 bound_to 7997
  156.2632  140.2003  156.6300 H   0  0  0  0  0  0  0  0  0  0  0  0  # atno 8010 bound_to 7997
  140.6858  143.2880  151.3637 H   0  0  0  0  0  0  0  0  0  0  0  0  # atno 10167 bound_to 10162
  156.6223  130.8895  151.2960 H   0  0  0  0  0  0  0  0  0  0  0  0  # atno 10718 bound_to 10713
  153.7017  135.3282  155.3226 H   0  0  0  0  0  0  0  0  0  0  0  0  # atno 10763 bound_to 10752
  154.8411  135.4456  154.1404 H   0  0  0  0  0  0  0  0  0  0  0  0  # atno 10764 bound_to 10752
  153.2473  135.6977  153.7796 H   0  0  0  0  0  0  0  0  0  0  0  0  # atno 10765 bound_to 10752
  140.0342  134.9337  157.0721 H   0  0  0  0  0  0  0  0  0  0  0  0  # atno 11005 bound_to 11000
  146.0301  140.8266  142.9880 LP  0  0  0  0  0  0  0  0  0  0  0  0  # atno 17320 bound_to 7965
  144.6838  140.2756  143.7299 LP  0  0  0  0  0  0  0  0  0  0  0  0  # atno 17321 bound_to 7965
  139.6216  144.0896  152.2396 LP  0  0  0  0  0  0  0  0  0  0  0  0  # atno 17342 bound_to 10162
  140.0342  144.6058  150.7463 LP  0  0  0  0  0  0  0  0  0  0  0  0  # atno 17343 bound_to 10162
  157.7224  130.9576  150.1492 LP  0  0  0  0  0  0  0  0  0  0  0  0  # atno 17370 bound_to 10713
  156.2301  130.3681  149.8454 LP  0  0  0  0  0  0  0  0  0  0  0  0  # atno 17371 bound_to 10713
  140.4175  134.1916  155.7164 LP  0  0  0  0  0  0  0  0  0  0  0  0  # atno 17394 bound_to 11000
  141.1848  133.8336  157.1127 LP  0  0  0  0  0  0  0  0  0  0  0  0  # atno 17395 bound_to 11000

$$$$
