AV-unprocessed.smi:752|AV-procd|sdf|3595|dock5
  -GOLD-   22720 0583D 1   1.00000     0.00000
 Structure written by MMmdl.
 41 42  0  0  0  0  0  0  0  0  1 V2000
  153.0713  142.5613  160.3528 C   0  0  0  0  0  0  0  0  0  0  0  0
  153.3030  141.4162  159.3616 C   0  0  0  0  0  0  0  0  0  0  0  0
  152.3455  141.4447  158.2177 C   0  0  0  0  0  0  0  0  0  0  0  0
  152.3429  140.5387  157.2369 N   0  0  0  0  0  0  0  0  0  0  0  0
  151.3513  140.7812  156.2790 C   0  0  0  0  0  0  0  0  0  0  0  0
  151.1570  139.8244  155.1371 C   0  0  0  0  0  0  0  0  0  0  0  0
  149.7996  140.0920  154.4866 C   0  0  0  0  0  0  0  0  0  0  0  0
  149.6016  141.1440  153.8794 O   0  0  0  0  0  0  0  0  0  0  0  0
  148.8622  139.1496  154.6729 N   0  0  0  0  0  0  0  0  0  0  0  0
  147.4408  139.2902  154.3786 C   0  0  0  0  0  0  0  0  0  0  0  0
  146.8633  137.9776  153.8083 C   0  0  2  0  0  0  0  0  0  0  0  0
  147.2374  136.7742  154.6949 C   0  0  0  0  0  0  0  0  0  0  0  0
  146.6247  135.4696  154.1613 C   0  0  0  0  0  0  0  0  0  0  0  0
  147.0484  135.2040  152.7073 C   0  0  0  0  0  0  0  0  0  0  0  0
  146.7360  136.3960  151.7841 C   0  0  1  0  0  0  0  0  0  0  0  0
  145.3403  136.5124  151.5873 O   0  0  0  0  0  0  0  0  0  0  0  0
  147.2982  137.7150  152.3458 C   0  0  0  0  0  0  0  0  0  0  0  0
  150.6235  141.9174  156.5336 C   0  0  0  0  0  0  0  0  0  0  0  0
  151.1425  142.7092  157.9960 S   0  0  0  0  0  0  0  0  0  0  0  0
  153.7829  142.5109  161.1771 H   0  0  0  0  0  0  0  0  0  0  0  0
  152.0670  142.5183  160.7755 H   0  0  0  0  0  0  0  0  0  0  0  0
  153.1907  143.5308  159.8682 H   0  0  0  0  0  0  0  0  0  0  0  0
  154.3203  141.4606  158.9710 H   0  0  0  0  0  0  0  0  0  0  0  0
  153.2070  140.4576  159.8721 H   0  0  0  0  0  0  0  0  0  0  0  0
  151.9459  139.9431  154.3937 H   0  0  0  0  0  0  0  0  0  0  0  0
  151.2038  138.7896  155.4789 H   0  0  0  0  0  0  0  0  0  0  0  0
  149.1344  138.3176  155.1768 H   0  0  0  0  0  0  0  0  0  0  0  0
  146.8771  139.6046  155.2584 H   0  0  0  0  0  0  0  0  0  0  0  0
  147.3347  140.0902  153.6454 H   0  0  0  0  0  0  0  0  0  0  0  0
  145.7759  138.0694  153.8230 H   0  0  0  0  0  0  0  0  0  0  0  0
  148.3224  136.6749  154.7455 H   0  0  0  0  0  0  0  0  0  0  0  0
  146.8951  136.9427  155.7164 H   0  0  0  0  0  0  0  0  0  0  0  0
  146.9264  134.6332  154.7923 H   0  0  0  0  0  0  0  0  0  0  0  0
  145.5371  135.5244  154.2236 H   0  0  0  0  0  0  0  0  0  0  0  0
  148.1212  135.0090  152.6833 H   0  0  0  0  0  0  0  0  0  0  0  0
  146.5672  134.2993  152.3344 H   0  0  0  0  0  0  0  0  0  0  0  0
  147.1774  136.2114  150.8043 H   0  0  0  0  0  0  0  0  0  0  0  0
  145.1887  137.0927  150.8572 H   0  0  0  0  0  0  0  0  0  0  0  0
  146.9923  138.5338  151.6949 H   0  0  0  0  0  0  0  0  0  0  0  0
  148.3876  137.6852  152.2989 H   0  0  0  0  0  0  0  0  0  0  0  0
  149.8071  142.3273  155.9574 H   0  0  0  0  0  0  0  0  0  0  0  0
  1  2  1  0  0  0  0
  1 20  1  0  0  0  0
  1 21  1  0  0  0  0
  1 22  1  0  0  0  0
  2  3  1  0  0  0  0
  2 23  1  0  0  0  0
  2 24  1  0  0  0  0
  3 19  1  0  0  0  0
  3  4  2  0  0  0  0
  4  5  1  0  0  0  0
  5  6  1  0  0  0  0
  5 18  2  0  0  0  0
  6  7  1  0  0  0  0
  6 25  1  0  0  0  0
  6 26  1  0  0  0  0
  7  8  2  0  0  0  0
  7  9  1  0  0  0  0
  9 10  1  0  0  0  0
  9 27  1  0  0  0  0
 10 11  1  0  0  0  0
 10 28  1  0  0  0  0
 10 29  1  0  0  0  0
 11 17  1  0  0  0  0
 11 12  1  0  0  0  0
 11 30  1  0  0  0  0
 12 13  1  0  0  0  0
 12 31  1  0  0  0  0
 12 32  1  0  0  0  0
 13 14  1  0  0  0  0
 13 33  1  0  0  0  0
 13 34  1  0  0  0  0
 14 15  1  0  0  0  0
 14 35  1  0  0  0  0
 14 36  1  0  0  0  0
 15 16  1  0  0  0  0
 15 17  1  0  0  0  0
 15 37  1  0  0  0  0
 16 38  1  0  0  0  0
 17 39  1  0  0  0  0
 17 40  1  0  0  0  0
 18 19  1  0  0  0  0
 18 41  1  0  0  0  0
M  END
> <s_m_source_file>
AV-unprocessed.smi

> <i_m_source_file_index>
752

> <i_lp_mmshare_version>
43012

> <i_f3d_flags>
0

> <s_epik_input>
W0NIM11bQ0gyXWMxbmMoW2NIXXMxKVtDSDJdQyg9TylbTkhdW0NIMl1bQ0BASF0yW0NIMl1bQ0gyXVtDSDJdW0NAQEhdKFtPSF0pW0NIMl0y

> <s_epik_cmdline>
J2VwaWtfcHl0aG9uJywgJy1waCcsICc3LjAnLCAnLXRuJywgJzgnLCAnLW1hJywgJzIwMCcsICctbWV0YWxfYmluZGluZycsICctaW1hZScsICc8aW5maWxlLm1hZT4nLCAnLW9tYWUnLCAnPG91dGZpbGUubWFlPic=

> <r_lp_tautomer_probability>
1

> <r_epik_Ionization_Penalty>
5.44903e-05

> <r_epik_Ionization_Penalty_Charging>
0

> <r_epik_Ionization_Penalty_Neutral>
5.44903e-05

> <r_epik_State_Penalty>
-0

> <r_epik_Charging_Adjusted_Penalty>
0

> <i_epik_Tot_Q>
0

> <i_epik_Tot_abs_Q>
0

> <r_epik_Metal_State_Penalty>
-0

> <b_epik_Metal_Only>
0

> <s_lp_Force_Field>
OPLS_2005

> <r_lp_Energy>
4.55991

> <b_lp_Chiralities_Consistent>
1

> <s_lp_Variant>
AV-unprocessed.smi:752-1

> <Gold.Version>
5.8.1

> <Gold.Id.Protein>
6NUR|6NUR_protein|mol2

> <Gold.PLP.Fitness>
39.0530

> <Gold.PLP.PLP>
-30.3608

> <Gold.PLP.part.hbond>
-3.6891

> <Gold.PLP.part.metal>
0.0000

> <Gold.PLP.part.buried>
-4.5523

> <Gold.PLP.part.nonpolar>
-24.8970

> <Gold.PLP.part.repulsive>
1.6000

> <Gold.PLP.ligand.clash>
0.0000

> <Gold.PLP.ligand.torsion>
0.5009

> <Gold.PLP.Chemscore.Hbond>
2.2144

> <Gold.PLP.Chemscore.CHOScore>
1.0000

> <Gold.PLP.Chemscore.Metal>
0.0000

> <Gold.Chemscore.Hbonds>
donor molecule, donor type, donor heavy atom, donor atom, acceptor molecule, acceptor atom, score
      L1  H    16    38       P1 10171  0.45
      P1  H  7989  7998       L1     8  0.02
      P1  H  8011  8017       L1     8  0.86
      L1  C    18    41       P1  8028  0.87

> <Gold.PLP.Chemscore.Internal.Correction>
0.0508

> <Gold.Rescore>
     Score         DG    S(hbond)    S(metal)    S(lipo)     H(rot)  DE(clash)    DE(int)     intcor
     13.73     -15.77       1.83        0.00      81.37       2.08       0.45       1.58       ----

> <Gold.Chemscore.Fitness>
13.7293

> <Gold.Chemscore.DG>
-15.7662

> <Gold.Chemscore.ZeroCoef>
-5.4800

> <Gold.Chemscore.Hbond>
1.8267

> <Gold.Chemscore.Metal>
0.0000

> <Gold.Chemscore.Lipo>
81.3683

> <Gold.Chemscore.Internal_Hbond>
0.0000

> <Gold.Chemscore.DEClash>
0.4539

> <Gold.Chemscore.DEInternal>
1.5830

> <Gold.Chemscore.Rot>
2.0840

> <Gold.Chemscore.Internal.Correction>
   9.000000E+99

> <Gold.Chemscore.Hbonds>
donor molecule, donor type, donor heavy atom, donor atom, acceptor molecule, acceptor atom, score
      L1  H    16    38       P1 10171  0.43
      P1  H  8011  8017       L1     8  0.81

> <Gold.Chemscore.Hbond.Weighted>
-6.1011

> <Gold.Chemscore.Metal.Weighted>
-0.0000

> <Gold.Chemscore.Lipo.Weighted>
-9.5201

> <Gold.Chemscore.Internal_Hbond.Weighted>
0.0000

> <Gold.Chemscore.DEClash.Weighted>
0.4539

> <Gold.Chemscore.DEInternal.Weighted>
1.5830

> <Gold.Chemscore.Rot.Weighted>
5.3350

> <Gold.Chemscore.Internal.Correction.Weighted>
   9.000000E+99

> <Gold.Protein.RotatedTorsions>
[ 6907 6896 6895 6894 ] final  -27.11 input  -60.11 | X-H torsion
[ 7974 7965 7964 7962 ] final  149.25 input  175.53 | X-H torsion
[ 8008 7997 7996 7995 ] final -110.14 input   59.86 | X-H torsion
[ 10167 10162 10161 10158 ] final  -39.58 input  -65.29 | X-H torsion
[ 10718 10713 10712 10709 ] final  -40.60 input   66.30 | X-H torsion
[ 10763 10752 10751 10750 ] final  150.38 input  -60.55 | X-H torsion
[ 11005 11000 10999 10996 ] final   56.21 input  -57.11 | X-H torsion

> <Gold.Protein.ActiveResidues>
 VAL166  LYS551  ARG553  GLY616  TRP617  ASP618  TYR619  PRO620  LYS621  CYS622 
 ASP623  PHE694  ASN695  SER759  ASP760  ASP761  ALA762  ILE779  LEU786  VAL792 
 PHE793  MET794  SER795  GLU796  ALA797  LYS798  CYS799  TRP800  GLU811  SER814 

> <Gold.Protein.RotatedAtoms>
  151.1515  135.0229  159.8670 H   0  0  0  0  0  0  0  0  0  0  0  0  # atno 6907 bound_to 6896
  152.5452  134.1383  159.8478 H   0  0  0  0  0  0  0  0  0  0  0  0  # atno 6908 bound_to 6896
  151.1469  133.4888  159.2628 H   0  0  0  0  0  0  0  0  0  0  0  0  # atno 6909 bound_to 6896
  144.8452  139.6257  143.5999 H   0  0  0  0  0  0  0  0  0  0  0  0  # atno 7974 bound_to 7965
  154.9700  140.0398  157.2230 H   0  0  0  0  0  0  0  0  0  0  0  0  # atno 8008 bound_to 7997
  154.7810  140.2819  155.6041 H   0  0  0  0  0  0  0  0  0  0  0  0  # atno 8009 bound_to 7997
  156.2936  140.2591  156.2635 H   0  0  0  0  0  0  0  0  0  0  0  0  # atno 8010 bound_to 7997
  140.7060  143.3205  151.2803 H   0  0  0  0  0  0  0  0  0  0  0  0  # atno 10167 bound_to 10162
  156.2795  130.4215  149.8352 H   0  0  0  0  0  0  0  0  0  0  0  0  # atno 10718 bound_to 10713
  154.0866  135.2855  155.3280 H   0  0  0  0  0  0  0  0  0  0  0  0  # atno 10763 bound_to 10752
  154.6648  135.5321  153.8066 H   0  0  0  0  0  0  0  0  0  0  0  0  # atno 10764 bound_to 10752
  153.0429  135.6543  154.1038 H   0  0  0  0  0  0  0  0  0  0  0  0  # atno 10765 bound_to 10752
  140.0547  134.5687  155.9222 H   0  0  0  0  0  0  0  0  0  0  0  0  # atno 11005 bound_to 11000
  146.2737  139.6700  142.9278 LP  0  0  0  0  0  0  0  0  0  0  0  0  # atno 17320 bound_to 7965
  145.4612  141.0433  143.2750 LP  0  0  0  0  0  0  0  0  0  0  0  0  # atno 17321 bound_to 7965
  139.6658  144.0108  152.2722 LP  0  0  0  0  0  0  0  0  0  0  0  0  # atno 17342 bound_to 10162
  139.9690  144.6506  150.8007 LP  0  0  0  0  0  0  0  0  0  0  0  0  # atno 17343 bound_to 10162
  156.5804  130.8463  151.3381 LP  0  0  0  0  0  0  0  0  0  0  0  0  # atno 17370 bound_to 10713
  157.7310  130.9693  150.1858 LP  0  0  0  0  0  0  0  0  0  0  0  0  # atno 17371 bound_to 10713
  141.1946  133.6584  156.5605 LP  0  0  0  0  0  0  0  0  0  0  0  0  # atno 17394 bound_to 11000
  140.3863  134.7479  157.4693 LP  0  0  0  0  0  0  0  0  0  0  0  0  # atno 17395 bound_to 11000

$$$$
