AV-unprocessed.smi:55|AV-procd|sdf|561|dock6
  -GOLD-   2262016463D 1   1.00000     0.00000
 Structure written by MMmdl.
 31 32  0  0  0  0  0  0  0  0  1 V2000
  151.8904  137.3360  153.6227 C   0  0  0  0  0  0  0  0  0  0  0  0
  151.3634  138.3382  154.6361 C   0  0  0  0  0  0  0  0  0  0  0  0
  150.3914  139.2360  154.3336 C   0  0  0  0  0  0  0  0  0  0  0  0
  149.8899  140.1648  155.2342 N   0  0  0  0  0  0  0  0  0  0  0  0
  148.8226  141.1459  154.8044 C   0  0  2  0  0  0  0  0  0  0  0  0
  147.5093  140.9059  155.5578 C   0  0  0  0  0  0  0  0  0  0  0  0
  146.6050  140.3476  154.4735 C   0  0  1  0  0  0  0  0  0  0  0  0
  145.2593  140.7175  154.6952 O   0  0  0  0  0  0  0  0  0  0  0  0
  147.1804  140.9732  153.1999 C   0  0  2  0  0  0  0  0  0  0  0  0
  146.8639  140.1736  151.9270 C   0  0  0  0  0  0  0  0  0  0  0  0
  147.6810  139.0245  151.8611 O   0  0  0  0  0  0  0  0  0  0  0  0
  148.5830  140.9591  153.4430 O   0  0  0  0  0  0  0  0  0  0  0  0
  150.4129  140.2077  156.5445 C   0  0  0  0  0  0  0  0  0  0  0  0
  150.0240  140.9995  157.4023 O   0  0  0  0  0  0  0  0  0  0  0  0
  151.4111  139.2859  156.8559 N   0  0  0  0  0  0  0  0  0  0  0  0
  151.9381  138.3299  155.9840 C   0  0  0  0  0  0  0  0  0  0  0  0
  152.8182  137.5669  156.3790 O   0  0  0  0  0  0  0  0  0  0  0  0
  149.2053  142.1563  154.9504 H   0  0  0  0  0  0  0  0  0  0  0  0
  146.6867  139.2606  154.4403 H   0  0  0  0  0  0  0  0  0  0  0  0
  146.8442  142.0087  153.1144 H   0  0  0  0  0  0  0  0  0  0  0  0
  151.7859  139.3115  157.7930 H   0  0  0  0  0  0  0  0  0  0  0  0
  151.3845  137.4286  152.6614 H   0  0  0  0  0  0  0  0  0  0  0  0
  151.7419  136.3168  153.9810 H   0  0  0  0  0  0  0  0  0  0  0  0
  152.9572  137.4891  153.4555 H   0  0  0  0  0  0  0  0  0  0  0  0
  149.9885  139.2298  153.3319 H   0  0  0  0  0  0  0  0  0  0  0  0
  147.6351  140.2356  156.4091 H   0  0  0  0  0  0  0  0  0  0  0  0
  147.1469  141.8686  155.9219 H   0  0  0  0  0  0  0  0  0  0  0  0
  144.9726  141.2594  153.9759 H   0  0  0  0  0  0  0  0  0  0  0  0
  145.8102  139.8956  151.8847 H   0  0  0  0  0  0  0  0  0  0  0  0
  147.0762  140.7753  151.0428 H   0  0  0  0  0  0  0  0  0  0  0  0
  148.4683  139.2424  151.3859 H   0  0  0  0  0  0  0  0  0  0  0  0
  1  2  1  0  0  0  0
  1 22  1  0  0  0  0
  1 23  1  0  0  0  0
  1 24  1  0  0  0  0
  2 16  1  0  0  0  0
  2  3  2  0  0  0  0
  3  4  1  0  0  0  0
  3 25  1  0  0  0  0
  4  5  1  0  0  0  0
  4 13  1  0  0  0  0
  5 18  1  0  0  0  0
  5 12  1  0  0  0  0
  5  6  1  0  0  0  0
  6  7  1  0  0  0  0
  6 26  1  0  0  0  0
  6 27  1  0  0  0  0
  7 19  1  0  0  0  0
  7  8  1  0  0  0  0
  7  9  1  0  0  0  0
  8 28  1  0  0  0  0
  9 20  1  0  0  0  0
  9 10  1  0  0  0  0
  9 12  1  0  0  0  0
 10 11  1  0  0  0  0
 10 29  1  0  0  0  0
 10 30  1  0  0  0  0
 11 31  1  0  0  0  0
 13 14  2  0  0  0  0
 13 15  1  0  0  0  0
 15 21  1  0  0  0  0
 15 16  1  0  0  0  0
 16 17  2  0  0  0  0
M  END
> <s_m_source_file>
AV-unprocessed.smi

> <i_m_source_file_index>
55

> <i_lp_mmshare_version>
43012

> <i_f3d_flags>
0

> <s_epik_input>
Tz1jMVtuSF1jKD1PKW4oW2NIXWMxW0NIM10pW0NAQEhdMltDSDJdW0NAQEhdKFtPSF0pW0NAQEhdKE8yKVtDSDJdW09IXQ==

> <s_epik_cmdline>
J2VwaWtfcHl0aG9uJywgJy1waCcsICc3LjAnLCAnLXRuJywgJzgnLCAnLW1hJywgJzIwMCcsICctbWV0YWxfYmluZGluZycsICctaW1hZScsICc8aW5maWxlLm1hZT4nLCAnLW9tYWUnLCAnPG91dGZpbGUubWFlPic=

> <r_lp_tautomer_probability>
0.999537

> <r_epik_Ionization_Penalty>
0.00121888

> <r_epik_Ionization_Penalty_Charging>
0.00121876

> <r_epik_Ionization_Penalty_Neutral>
1.19946e-07

> <r_epik_State_Penalty>
0.000805124

> <r_epik_Charging_Adjusted_Penalty>
0.00202389

> <i_epik_Tot_Q>
0

> <i_epik_Tot_abs_Q>
0

> <r_epik_Metal_State_Penalty>
0.662472

> <b_epik_Metal_Only>
0

> <s_epik_Chemistry_Notes>
This compound contains an acetal/aminal-like group ( X-CH(R)-Y where X, Y are N, S, or O) that may be acid/base labile, releasing an aldehyde.

> <s_lp_Force_Field>
OPLS_2005

> <r_lp_Energy>
24.9707

> <b_lp_Chiralities_Consistent>
1

> <s_lp_Variant>
AV-unprocessed.smi:55-1

> <Gold.Version>
5.8.1

> <Gold.Id.Protein>
6NUR|6NUR_protein|mol2

> <Gold.PLP.Fitness>
40.7617

> <Gold.PLP.PLP>
-28.1270

> <Gold.PLP.part.hbond>
-4.6994

> <Gold.PLP.part.metal>
0.0000

> <Gold.PLP.part.buried>
1.8932

> <Gold.PLP.part.nonpolar>
-27.2259

> <Gold.PLP.part.repulsive>
3.6755

> <Gold.PLP.ligand.clash>
0.0000

> <Gold.PLP.ligand.torsion>
0.2175

> <Gold.PLP.Chemscore.Hbond>
3.4810

> <Gold.PLP.Chemscore.CHOScore>
0.8713

> <Gold.PLP.Chemscore.Metal>
0.0000

> <Gold.Chemscore.Hbonds>
donor molecule, donor type, donor heavy atom, donor atom, acceptor molecule, acceptor atom, score
      L1  H     8    28       P1 10175  0.35
      L1  H    11    31       P1  7957  0.59
      P1  H  8011  8017       L1    12  0.60
      L1  C     3    25       P1  7957  1.00

> <Gold.PLP.Chemscore.Internal.Correction>
0.0127

> <Gold.Rescore>
     Score         DG    S(hbond)    S(metal)    S(lipo)     H(rot)  DE(clash)    DE(int)     intcor
     12.99     -13.25       2.90        0.00      43.38       2.73       0.03       0.24       ----

> <Gold.Chemscore.Fitness>
12.9879

> <Gold.Chemscore.DG>
-13.2535

> <Gold.Chemscore.ZeroCoef>
-5.4800

> <Gold.Chemscore.Hbond>
2.8965

> <Gold.Chemscore.Metal>
0.0000

> <Gold.Chemscore.Lipo>
43.3846

> <Gold.Chemscore.Internal_Hbond>
0.0000

> <Gold.Chemscore.DEClash>
0.0297

> <Gold.Chemscore.DEInternal>
0.2359

> <Gold.Chemscore.Rot>
2.7253

> <Gold.Chemscore.Internal.Correction>
   9.000000E+99

> <Gold.Chemscore.Hbonds>
donor molecule, donor type, donor heavy atom, donor atom, acceptor molecule, acceptor atom, score
      L1  H     8    28       P1 10175  0.21
      L1  H    11    31       P1  7957  0.42
      P1  H  8011  8017       L1    12  0.35

> <Gold.Chemscore.Hbond.Weighted>
-9.6744

> <Gold.Chemscore.Metal.Weighted>
-0.0000

> <Gold.Chemscore.Lipo.Weighted>
-5.0760

> <Gold.Chemscore.Internal_Hbond.Weighted>
0.0000

> <Gold.Chemscore.DEClash.Weighted>
0.0297

> <Gold.Chemscore.DEInternal.Weighted>
0.2359

> <Gold.Chemscore.Rot.Weighted>
6.9769

> <Gold.Chemscore.Internal.Correction.Weighted>
   9.000000E+99

> <Gold.Protein.RotatedTorsions>
[ 6907 6896 6895 6894 ] final  -47.60 input  -60.11 | X-H torsion
[ 7974 7965 7964 7962 ] final  -60.08 input  175.53 | X-H torsion
[ 8008 7997 7996 7995 ] final  -77.24 input   59.86 | X-H torsion
[ 10167 10162 10161 10158 ] final  169.56 input  -65.29 | X-H torsion
[ 10718 10713 10712 10709 ] final  163.22 input   66.30 | X-H torsion
[ 10763 10752 10751 10750 ] final  -72.88 input  -60.55 | X-H torsion
[ 11005 11000 10999 10996 ] final   65.07 input  -57.11 | X-H torsion

> <Gold.Protein.ActiveResidues>
 VAL166  LYS551  ARG553  GLY616  TRP617  ASP618  TYR619  PRO620  LYS621  CYS622 
 ASP623  PHE694  ASN695  SER759  ASP760  ASP761  ALA762  ILE779  LEU786  VAL792 
 PHE793  MET794  SER795  GLU796  ALA797  LYS798  CYS799  TRP800  GLU811  SER814 

> <Gold.Protein.RotatedAtoms>
  150.8991  134.8402  159.7347 H   0  0  0  0  0  0  0  0  0  0  0  0  # atno 6907 bound_to 6896
  152.4882  134.4530  159.9590 H   0  0  0  0  0  0  0  0  0  0  0  0  # atno 6908 bound_to 6896
  151.4584  133.3560  159.2841 H   0  0  0  0  0  0  0  0  0  0  0  0  # atno 6909 bound_to 6896
  145.8197  140.8547  143.0139 H   0  0  0  0  0  0  0  0  0  0  0  0  # atno 7974 bound_to 7965
  154.5578  140.0713  156.8771 H   0  0  0  0  0  0  0  0  0  0  0  0  # atno 8008 bound_to 7997
  155.2868  140.3375  155.4236 H   0  0  0  0  0  0  0  0  0  0  0  0  # atno 8009 bound_to 7997
  156.2017  140.1724  156.7871 H   0  0  0  0  0  0  0  0  0  0  0  0  # atno 8010 bound_to 7997
  139.4995  144.3693  151.9742 H   0  0  0  0  0  0  0  0  0  0  0  0  # atno 10167 bound_to 10162
  157.1115  131.0469  151.2455 H   0  0  0  0  0  0  0  0  0  0  0  0  # atno 10718 bound_to 10713
  154.4518  135.5915  153.6196 H   0  0  0  0  0  0  0  0  0  0  0  0  # atno 10763 bound_to 10752
  152.9814  135.6023  154.3595 H   0  0  0  0  0  0  0  0  0  0  0  0  # atno 10764 bound_to 10752
  154.3457  135.2841  155.2378 H   0  0  0  0  0  0  0  0  0  0  0  0  # atno 10765 bound_to 10752
  139.9918  134.6580  156.0079 H   0  0  0  0  0  0  0  0  0  0  0  0  # atno 11005 bound_to 11000
  144.6749  140.0516  143.7478 LP  0  0  0  0  0  0  0  0  0  0  0  0  # atno 17320 bound_to 7965
  145.9688  139.2854  143.1111 LP  0  0  0  0  0  0  0  0  0  0  0  0  # atno 17321 bound_to 7965
  140.3129  144.3517  150.6029 LP  0  0  0  0  0  0  0  0  0  0  0  0  # atno 17342 bound_to 10162
  140.5784  143.2174  151.7472 LP  0  0  0  0  0  0  0  0  0  0  0  0  # atno 17343 bound_to 10162
  157.4555  130.7623  149.7189 LP  0  0  0  0  0  0  0  0  0  0  0  0  # atno 17370 bound_to 10713
  155.9849  130.3987  150.3287 LP  0  0  0  0  0  0  0  0  0  0  0  0  # atno 17371 bound_to 10713
  141.1572  133.6542  156.4199 LP  0  0  0  0  0  0  0  0  0  0  0  0  # atno 17394 bound_to 11000
  140.4895  134.6589  157.5204 LP  0  0  0  0  0  0  0  0  0  0  0  0  # atno 17395 bound_to 11000

$$$$
