AV-unprocessed.smi:1870|AV-procd|sdf|7597|dock6
  -GOLD-   22720 9313D 1   1.00000     0.00000
 Structure written by MMmdl.
 47 49  0  0  0  0  0  0  0  0  1 V2000
  145.5305  144.0347  153.4315 C   0  0  0  0  0  0  0  0  0  0  0  0
  145.7833  143.2081  154.6634 C   0  0  0  0  0  0  0  0  0  0  0  0
  146.7182  142.3191  154.5848 N   0  0  0  0  0  0  0  0  0  0  0  0
  147.0291  141.5046  155.6568 N   0  0  0  0  0  0  0  0  0  0  0  0
  148.1089  140.5475  155.3854 C   0  0  0  0  0  0  0  0  0  0  0  0
  149.3449  141.2312  154.7620 C   0  0  2  0  0  0  0  0  0  0  0  0
  149.2522  141.1306  153.3551 O   0  0  0  0  0  0  0  0  0  0  0  0
  150.6486  140.5184  155.1783 C   0  0  0  0  0  0  0  0  0  0  0  0
  151.2668  140.9999  156.4158 N   0  0  0  0  0  0  0  0  0  0  0  0
  150.8442  140.1938  157.5570 C   0  0  0  0  0  0  0  0  0  0  0  0
  151.6667  140.5114  158.8151 C   0  0  0  0  0  0  0  0  0  0  0  0
  151.7910  142.0062  159.0562 C   0  0  0  0  0  0  0  0  0  0  0  0
  152.2439  142.4873  160.3017 C   0  0  0  0  0  0  0  0  0  0  0  0
  152.3835  143.8723  160.5148 C   0  0  0  0  0  0  0  0  0  0  0  0
  152.0720  144.7790  159.4833 C   0  0  0  0  0  0  0  0  0  0  0  0
  151.6207  144.3021  158.2373 C   0  0  0  0  0  0  0  0  0  0  0  0
  151.4832  142.9162  158.0167 C   0  0  0  0  0  0  0  0  0  0  0  0
  150.9595  142.4109  156.6780 C   0  0  0  0  0  0  0  0  0  0  0  0
  146.4036  141.5427  156.8678 C   0  0  0  0  0  0  0  0  0  0  0  0
  146.7060  140.7922  157.7967 O   0  0  0  0  0  0  0  0  0  0  0  0
  145.3486  142.5554  156.9512 C   0  0  0  0  0  0  0  0  0  0  0  0
  144.6704  142.6320  158.2047 C   0  0  0  0  0  0  0  0  0  0  0  0
  144.1342  142.7093  159.2278 N   0  0  0  0  0  0  0  0  0  0  0  0
  145.0374  143.3645  155.9078 C   0  0  0  0  0  0  0  0  0  0  0  0
  143.9503  144.4302  155.9434 C   0  0  0  0  0  0  0  0  0  0  0  0
  145.7193  145.0900  153.6285 H   0  0  0  0  0  0  0  0  0  0  0  0
  144.4967  143.9315  153.1015 H   0  0  0  0  0  0  0  0  0  0  0  0
  146.1720  143.7350  152.6013 H   0  0  0  0  0  0  0  0  0  0  0  0
  148.3923  140.0981  156.3389 H   0  0  0  0  0  0  0  0  0  0  0  0
  147.7747  139.7065  154.7746 H   0  0  0  0  0  0  0  0  0  0  0  0
  149.3673  142.2807  155.0534 H   0  0  0  0  0  0  0  0  0  0  0  0
  148.3373  141.1278  153.1171 H   0  0  0  0  0  0  0  0  0  0  0  0
  150.4584  139.4484  155.2753 H   0  0  0  0  0  0  0  0  0  0  0  0
  151.3603  140.6151  154.3566 H   0  0  0  0  0  0  0  0  0  0  0  0
  149.7848  140.3668  157.7537 H   0  0  0  0  0  0  0  0  0  0  0  0
  150.9474  139.1315  157.3326 H   0  0  0  0  0  0  0  0  0  0  0  0
  151.2192  140.0318  159.6862 H   0  0  0  0  0  0  0  0  0  0  0  0
  152.6720  140.1022  158.7094 H   0  0  0  0  0  0  0  0  0  0  0  0
  152.4887  141.7956  161.0944 H   0  0  0  0  0  0  0  0  0  0  0  0
  152.7311  144.2394  161.4690 H   0  0  0  0  0  0  0  0  0  0  0  0
  152.1773  145.8411  159.6487 H   0  0  0  0  0  0  0  0  0  0  0  0
  151.3768  145.0030  157.4525 H   0  0  0  0  0  0  0  0  0  0  0  0
  151.3852  143.0411  155.8983 H   0  0  0  0  0  0  0  0  0  0  0  0
  149.8802  142.5692  156.6600 H   0  0  0  0  0  0  0  0  0  0  0  0
  143.4864  144.5148  156.9257 H   0  0  0  0  0  0  0  0  0  0  0  0
  143.1626  144.1954  155.2271 H   0  0  0  0  0  0  0  0  0  0  0  0
  144.3619  145.4088  155.6938 H   0  0  0  0  0  0  0  0  0  0  0  0
  1  2  1  0  0  0  0
  1 26  1  0  0  0  0
  1 27  1  0  0  0  0
  1 28  1  0  0  0  0
  2 24  1  0  0  0  0
  2  3  2  0  0  0  0
  3  4  1  0  0  0  0
  4  5  1  0  0  0  0
  4 19  1  0  0  0  0
  5  6  1  0  0  0  0
  5 29  1  0  0  0  0
  5 30  1  0  0  0  0
  6  7  1  0  0  0  0
  6  8  1  0  0  0  0
  6 31  1  0  0  0  0
  7 32  1  0  0  0  0
  8  9  1  0  0  0  0
  8 33  1  0  0  0  0
  8 34  1  0  0  0  0
  9 18  1  0  0  0  0
  9 10  1  0  0  0  0
 10 11  1  0  0  0  0
 10 35  1  0  0  0  0
 10 36  1  0  0  0  0
 11 12  1  0  0  0  0
 11 37  1  0  0  0  0
 11 38  1  0  0  0  0
 12 17  2  0  0  0  0
 12 13  1  0  0  0  0
 13 14  2  0  0  0  0
 13 39  1  0  0  0  0
 14 15  1  0  0  0  0
 14 40  1  0  0  0  0
 15 16  2  0  0  0  0
 15 41  1  0  0  0  0
 16 17  1  0  0  0  0
 16 42  1  0  0  0  0
 17 18  1  0  0  0  0
 18 43  1  0  0  0  0
 18 44  1  0  0  0  0
 19 20  2  0  0  0  0
 19 21  1  0  0  0  0
 21 22  1  0  0  0  0
 21 24  2  0  0  0  0
 22 23  3  0  0  0  0
 24 25  1  0  0  0  0
 25 45  1  0  0  0  0
 25 46  1  0  0  0  0
 25 47  1  0  0  0  0
M  END
> <s_m_source_file>
AV-unprocessed.smi

> <i_m_source_file_index>
1870

> <i_lp_mmshare_version>
43012

> <i_f3d_flags>
0

> <s_epik_input>
TiNDYyhjMVtDSDNdKWMoPU8pbihuYzFbQ0gzXSlbQ0gyXVtDQEhdKFtPSF0pW0NIMl1OKFtDSDJdW0NIMl0yKVtDSDJdYyhjMjMpW2NIXVtjSF1bY0hdW2NIXTM=

> <s_epik_cmdline>
J2VwaWtfcHl0aG9uJywgJy1waCcsICc3LjAnLCAnLXRuJywgJzgnLCAnLW1hJywgJzIwMCcsICctbWV0YWxfYmluZGluZycsICctaW1hZScsICc8aW5maWxlLm1hZT4nLCAnLW9tYWUnLCAnPG91dGZpbGUubWFlPic=

> <r_epik_Ionization_Penalty>
2.30251

> <r_epik_Ionization_Penalty_Charging>
1.06171e-10

> <r_epik_Ionization_Penalty_Neutral>
2.30251

> <r_epik_State_Penalty>
2.45335

> <r_epik_Charging_Adjusted_Penalty>
2.45335

> <i_epik_Tot_Q>
0

> <i_epik_Tot_abs_Q>
0

> <r_epik_Metal_State_Penalty>
2.45335

> <b_epik_Metal_Only>
0

> <s_lp_Force_Field>
OPLS_2005

> <r_lp_Energy>
46.0919

> <b_lp_Chiralities_Consistent>
1

> <s_lp_Variant>
AV-unprocessed.smi:1870-5

> <Gold.Version>
5.8.1

> <Gold.Id.Protein>
6NUR|6NUR_protein|mol2

> <Gold.PLP.Fitness>
49.8685

> <Gold.PLP.PLP>
-49.4517

> <Gold.PLP.part.hbond>
-2.6922

> <Gold.PLP.part.metal>
0.0000

> <Gold.PLP.part.buried>
-5.8282

> <Gold.PLP.part.nonpolar>
-40.1548

> <Gold.PLP.part.repulsive>
0.1925

> <Gold.PLP.ligand.clash>
0.0000

> <Gold.PLP.ligand.torsion>
1.3084

> <Gold.PLP.Chemscore.Hbond>
1.0042

> <Gold.PLP.Chemscore.CHOScore>
0.0000

> <Gold.PLP.Chemscore.Metal>
0.0000

> <Gold.Chemscore.Hbonds>
donor molecule, donor type, donor heavy atom, donor atom, acceptor molecule, acceptor atom, score
      P1  H  7989  7998       L1     7  0.01
      P1  H  8011  8017       L1     7  0.95

> <Gold.PLP.Chemscore.Internal.Correction>
0.0210

> <Gold.Rescore>
     Score         DG    S(hbond)    S(metal)    S(lipo)     H(rot)  DE(clash)    DE(int)     intcor
     15.20     -17.16       0.80        0.00     122.89       2.10       0.70       1.26       ----

> <Gold.Chemscore.Fitness>
15.2036

> <Gold.Chemscore.DG>
-17.1619

> <Gold.Chemscore.ZeroCoef>
-5.4800

> <Gold.Chemscore.Hbond>
0.7999

> <Gold.Chemscore.Metal>
0.0000

> <Gold.Chemscore.Lipo>
122.8947

> <Gold.Chemscore.Internal_Hbond>
0.0000

> <Gold.Chemscore.DEClash>
0.6976

> <Gold.Chemscore.DEInternal>
1.2606

> <Gold.Chemscore.Rot>
2.0971

> <Gold.Chemscore.Internal.Correction>
   9.000000E+99

> <Gold.Chemscore.Hbonds>
donor molecule, donor type, donor heavy atom, donor atom, acceptor molecule, acceptor atom, score
      P1  H  8011  8017       L1     7  0.21

> <Gold.Chemscore.Hbond.Weighted>
-2.6718

> <Gold.Chemscore.Metal.Weighted>
-0.0000

> <Gold.Chemscore.Lipo.Weighted>
-14.3787

> <Gold.Chemscore.Internal_Hbond.Weighted>
0.0000

> <Gold.Chemscore.DEClash.Weighted>
0.6976

> <Gold.Chemscore.DEInternal.Weighted>
1.2606

> <Gold.Chemscore.Rot.Weighted>
5.3685

> <Gold.Chemscore.Internal.Correction.Weighted>
   9.000000E+99

> <Gold.Protein.RotatedTorsions>
[ 6907 6896 6895 6894 ] final -137.38 input  -60.11 | X-H torsion
[ 7974 7965 7964 7962 ] final -160.07 input  175.53 | X-H torsion
[ 8008 7997 7996 7995 ] final  156.16 input   59.86 | X-H torsion
[ 10167 10162 10161 10158 ] final   -7.88 input  -65.29 | X-H torsion
[ 10718 10713 10712 10709 ] final -113.01 input   66.30 | X-H torsion
[ 10763 10752 10751 10750 ] final  102.28 input  -60.55 | X-H torsion
[ 11005 11000 10999 10996 ] final -164.04 input  -57.11 | X-H torsion

> <Gold.Protein.ActiveResidues>
 VAL166  LYS551  ARG553  GLY616  TRP617  ASP618  TYR619  PRO620  LYS621  CYS622 
 ASP623  PHE694  ASN695  SER759  ASP760  ASP761  ALA762  ILE779  LEU786  VAL792 
 PHE793  MET794  SER795  GLU796  ALA797  LYS798  CYS799  TRP800  GLU811  SER814 

> <Gold.Protein.RotatedAtoms>
  151.0218  133.5870  159.2670 H   0  0  0  0  0  0  0  0  0  0  0  0  # atno 6907 bound_to 6896
  151.2983  135.0761  159.9239 H   0  0  0  0  0  0  0  0  0  0  0  0  # atno 6908 bound_to 6896
  152.5325  133.9904  159.7902 H   0  0  0  0  0  0  0  0  0  0  0  0  # atno 6909 bound_to 6896
  144.7441  140.3594  143.6099 H   0  0  0  0  0  0  0  0  0  0  0  0  # atno 7974 bound_to 7965
  156.2438  140.1920  156.6913 H   0  0  0  0  0  0  0  0  0  0  0  0  # atno 8008 bound_to 7997
  154.6249  140.0603  156.9687 H   0  0  0  0  0  0  0  0  0  0  0  0  # atno 8009 bound_to 7997
  155.1802  140.3276  155.4379 H   0  0  0  0  0  0  0  0  0  0  0  0  # atno 8010 bound_to 7997
  140.7042  143.6031  150.8778 H   0  0  0  0  0  0  0  0  0  0  0  0  # atno 10167 bound_to 10162
  156.0740  130.5950  150.8585 H   0  0  0  0  0  0  0  0  0  0  0  0  # atno 10718 bound_to 10713
  153.3375  135.4016  155.1545 H   0  0  0  0  0  0  0  0  0  0  0  0  # atno 10763 bound_to 10752
  154.8636  135.3625  154.5389 H   0  0  0  0  0  0  0  0  0  0  0  0  # atno 10764 bound_to 10752
  153.5832  135.7076  153.5514 H   0  0  0  0  0  0  0  0  0  0  0  0  # atno 10765 bound_to 10752
  140.5914  134.5041  157.5193 H   0  0  0  0  0  0  0  0  0  0  0  0  # atno 11005 bound_to 11000
  145.7193  139.1705  143.2494 LP  0  0  0  0  0  0  0  0  0  0  0  0  # atno 17320 bound_to 7965
  146.1289  140.7212  142.9422 LP  0  0  0  0  0  0  0  0  0  0  0  0  # atno 17321 bound_to 7965
  139.9755  143.6009  152.2960 LP  0  0  0  0  0  0  0  0  0  0  0  0  # atno 17342 bound_to 10162
  139.6611  144.7662  151.1960 LP  0  0  0  0  0  0  0  0  0  0  0  0  # atno 17343 bound_to 10162
  157.5826  131.0946  150.9246 LP  0  0  0  0  0  0  0  0  0  0  0  0  # atno 17370 bound_to 10713
  156.9439  130.5394  149.5281 LP  0  0  0  0  0  0  0  0  0  0  0  0  # atno 17371 bound_to 10713
  139.9272  134.8032  156.1033 LP  0  0  0  0  0  0  0  0  0  0  0  0  # atno 17394 bound_to 11000
  141.0932  133.6706  156.2588 LP  0  0  0  0  0  0  0  0  0  0  0  0  # atno 17395 bound_to 11000

$$$$
