AV-unprocessed.smi:1057|AV-procd|sdf|4650|dock6
  -GOLD-   22720 3153D 1   1.00000     0.00000
 Structure written by MMmdl.
 44 45  0  0  0  0  0  0  0  0  1 V2000
  143.0639  147.0417  154.8913 C   0  0  0  0  0  0  0  0  0  0  0  0
  143.0290  145.8214  154.8621 C   0  0  0  0  0  0  0  0  0  0  0  0
  142.9741  144.3498  154.8443 C   0  0  0  0  0  0  0  0  0  0  0  0
  144.1119  143.7532  154.1543 N   0  0  0  0  0  0  0  0  0  0  0  0
  145.2935  143.4405  154.7161 C   0  0  0  0  0  0  0  0  0  0  0  0
  145.5365  143.6348  155.9065 O   0  0  0  0  0  0  0  0  0  0  0  0
  146.3840  142.8243  153.8246 C   0  0  0  0  0  0  0  0  0  0  0  0
  147.6589  142.5830  154.5004 N   0  0  0  0  0  0  0  0  0  0  0  0
  148.3104  141.4112  154.5297 C   0  0  0  0  0  0  0  0  0  0  0  0
  147.8834  140.3802  154.0105 O   0  0  0  0  0  0  0  0  0  0  0  0
  149.4871  141.5283  155.1652 N   0  0  0  0  0  0  0  0  0  0  0  0
  150.4905  140.5341  155.3338 C   0  0  0  0  0  0  0  0  0  0  0  0
  150.5855  139.3947  154.4994 C   0  0  0  0  0  0  0  0  0  0  0  0
  151.5933  138.4456  154.7509 C   0  0  0  0  0  0  0  0  0  0  0  0
  152.4651  138.6651  155.8330 C   0  0  0  0  0  0  0  0  0  0  0  0
  152.3791  139.7386  156.6454 N   0  0  0  0  0  0  0  0  0  0  0  0
  151.4100  140.6544  156.4062 C   0  0  0  0  0  0  0  0  0  0  0  0
  151.3438  141.7631  157.2657 N   0  0  0  0  0  0  0  0  0  0  0  0
  152.0237  141.5559  158.5409 C   0  0  0  0  0  0  0  0  0  0  0  0
  151.6979  142.6972  159.5198 C   0  0  0  0  0  0  0  0  0  0  0  0
  152.0181  144.0653  158.8949 C   0  0  0  0  0  0  0  0  0  0  0  0
  151.3059  144.2133  157.5400 C   0  0  0  0  0  0  0  0  0  0  0  0
  151.6428  143.0340  156.6113 C   0  0  0  0  0  0  0  0  0  0  0  0
  143.0892  148.1079  154.9211 H   0  0  0  0  0  0  0  0  0  0  0  0
  142.9001  143.9894  155.8712 H   0  0  0  0  0  0  0  0  0  0  0  0
  142.0580  144.0538  154.3330 H   0  0  0  0  0  0  0  0  0  0  0  0
  143.9939  143.5576  153.1709 H   0  0  0  0  0  0  0  0  0  0  0  0
  146.0174  141.8686  153.4497 H   0  0  0  0  0  0  0  0  0  0  0  0
  146.5320  143.4604  152.9502 H   0  0  0  0  0  0  0  0  0  0  0  0
  148.0873  143.3764  154.9541 H   0  0  0  0  0  0  0  0  0  0  0  0
  149.7486  142.4594  155.4547 H   0  0  0  0  0  0  0  0  0  0  0  0
  149.8964  139.2284  153.6855 H   0  0  0  0  0  0  0  0  0  0  0  0
  151.6923  137.5666  154.1314 H   0  0  0  0  0  0  0  0  0  0  0  0
  153.2496  137.9572  156.0557 H   0  0  0  0  0  0  0  0  0  0  0  0
  151.7206  140.5994  158.9693 H   0  0  0  0  0  0  0  0  0  0  0  0
  153.1005  141.5055  158.3740 H   0  0  0  0  0  0  0  0  0  0  0  0
  150.6410  142.6569  159.7868 H   0  0  0  0  0  0  0  0  0  0  0  0
  152.2575  142.5666  160.4462 H   0  0  0  0  0  0  0  0  0  0  0  0
  151.7184  144.8682  159.5690 H   0  0  0  0  0  0  0  0  0  0  0  0
  153.0956  144.1603  158.7545 H   0  0  0  0  0  0  0  0  0  0  0  0
  150.2273  144.2565  157.6970 H   0  0  0  0  0  0  0  0  0  0  0  0
  151.5887  145.1541  157.0673 H   0  0  0  0  0  0  0  0  0  0  0  0
  152.6993  143.0649  156.3414 H   0  0  0  0  0  0  0  0  0  0  0  0
  151.0726  143.1151  155.6848 H   0  0  0  0  0  0  0  0  0  0  0  0
  1  2  3  0  0  0  0
  1 24  1  0  0  0  0
  2  3  1  0  0  0  0
  3  4  1  0  0  0  0
  3 25  1  0  0  0  0
  3 26  1  0  0  0  0
  4  5  1  0  0  0  0
  4 27  1  0  0  0  0
  5  6  2  0  0  0  0
  5  7  1  0  0  0  0
  7  8  1  0  0  0  0
  7 28  1  0  0  0  0
  7 29  1  0  0  0  0
  8  9  1  0  0  0  0
  8 30  1  0  0  0  0
  9 10  2  0  0  0  0
  9 11  1  0  0  0  0
 11 12  1  0  0  0  0
 11 31  1  0  0  0  0
 12 17  1  0  0  0  0
 12 13  2  0  0  0  0
 13 14  1  0  0  0  0
 13 32  1  0  0  0  0
 14 15  2  0  0  0  0
 14 33  1  0  0  0  0
 15 16  1  0  0  0  0
 15 34  1  0  0  0  0
 16 17  2  0  0  0  0
 17 18  1  0  0  0  0
 18 23  1  0  0  0  0
 18 19  1  0  0  0  0
 19 20  1  0  0  0  0
 19 35  1  0  0  0  0
 19 36  1  0  0  0  0
 20 21  1  0  0  0  0
 20 37  1  0  0  0  0
 20 38  1  0  0  0  0
 21 22  1  0  0  0  0
 21 39  1  0  0  0  0
 21 40  1  0  0  0  0
 22 23  1  0  0  0  0
 22 41  1  0  0  0  0
 22 42  1  0  0  0  0
 23 43  1  0  0  0  0
 23 44  1  0  0  0  0
M  END
> <s_m_source_file>
AV-unprocessed.smi

> <i_m_source_file_index>
1057

> <i_lp_mmshare_version>
43012

> <i_f3d_flags>
0

> <s_epik_input>
W0NIXSNDW0NIMl1bTkhdQyg9TylbQ0gyXVtOSF1DKD1PKVtOSF1jMVtjSF1bY0hdW2NIXW5jMU4yW0NIMl1bQ0gyXVtDSDJdW0NIMl1bQ0gyXTI=

> <s_epik_cmdline>
J2VwaWtfcHl0aG9uJywgJy1waCcsICc3LjAnLCAnLXRuJywgJzgnLCAnLW1hJywgJzIwMCcsICctbWV0YWxfYmluZGluZycsICctaW1hZScsICc8aW5maWxlLm1hZT4nLCAnLW9tYWUnLCAnPG91dGZpbGUubWFlPic=

> <r_lp_tautomer_probability>
1

> <r_epik_Ionization_Penalty>
0.251144

> <r_epik_Ionization_Penalty_Charging>
0

> <r_epik_Ionization_Penalty_Neutral>
0.251144

> <r_epik_State_Penalty>
0.236346

> <r_epik_Charging_Adjusted_Penalty>
0.236346

> <i_epik_Tot_Q>
0

> <i_epik_Tot_abs_Q>
0

> <r_epik_Metal_State_Penalty>
0.166327

> <b_epik_Metal_Only>
0

> <s_lp_Force_Field>
OPLS_2005

> <r_lp_Energy>
16.5817

> <b_lp_Chiralities_Consistent>
1

> <s_lp_Variant>
AV-unprocessed.smi:1057-1

> <Gold.Version>
5.8.1

> <Gold.Id.Protein>
6NUR|6NUR_protein|mol2

> <Gold.PLP.Fitness>
50.7718

> <Gold.PLP.PLP>
-43.1598

> <Gold.PLP.part.hbond>
-3.3185

> <Gold.PLP.part.metal>
0.0000

> <Gold.PLP.part.buried>
-2.9892

> <Gold.PLP.part.nonpolar>
-37.2954

> <Gold.PLP.part.repulsive>
0.6853

> <Gold.PLP.ligand.clash>
0.0000

> <Gold.PLP.ligand.torsion>
0.6170

> <Gold.PLP.Chemscore.Hbond>
2.8786

> <Gold.PLP.Chemscore.CHOScore>
0.0000

> <Gold.PLP.Chemscore.Metal>
0.0000

> <Gold.Chemscore.Hbonds>
donor molecule, donor type, donor heavy atom, donor atom, acceptor molecule, acceptor atom, score
      L1  H     4    27       P1 10174  0.69
      L1  H     8    30       P1  8028  1.00
      L1  H    11    31       P1  8028  0.01
      P1  H  7997  8009       L1    16  0.65

> <Gold.PLP.Chemscore.Internal.Correction>
0.2102

> <Gold.Rescore>
     Score         DG    S(hbond)    S(metal)    S(lipo)     H(rot)  DE(clash)    DE(int)     intcor
     16.23     -19.79       1.81        0.00     109.80       1.79       1.49       2.07       ----

> <Gold.Chemscore.Fitness>
16.2257

> <Gold.Chemscore.DG>
-19.7889

> <Gold.Chemscore.ZeroCoef>
-5.4800

> <Gold.Chemscore.Hbond>
1.8068

> <Gold.Chemscore.Metal>
0.0000

> <Gold.Chemscore.Lipo>
109.7979

> <Gold.Chemscore.Internal_Hbond>
0.0000

> <Gold.Chemscore.DEClash>
1.4935

> <Gold.Chemscore.DEInternal>
2.0696

> <Gold.Chemscore.Rot>
1.7860

> <Gold.Chemscore.Internal.Correction>
   9.000000E+99

> <Gold.Chemscore.Hbonds>
donor molecule, donor type, donor heavy atom, donor atom, acceptor molecule, acceptor atom, score
      L1  H     4    27       P1 10174  0.27
      L1  H     8    30       P1  8028  0.88
      L1  H    11    31       P1  8028  0.06
      P1  H  7997  8009       L1    16  0.05

> <Gold.Chemscore.Hbond.Weighted>
-6.0346

> <Gold.Chemscore.Metal.Weighted>
-0.0000

> <Gold.Chemscore.Lipo.Weighted>
-12.8464

> <Gold.Chemscore.Internal_Hbond.Weighted>
0.0000

> <Gold.Chemscore.DEClash.Weighted>
1.4935

> <Gold.Chemscore.DEInternal.Weighted>
2.0696

> <Gold.Chemscore.Rot.Weighted>
4.5721

> <Gold.Chemscore.Internal.Correction.Weighted>
   9.000000E+99

> <Gold.Protein.RotatedTorsions>
[ 6907 6896 6895 6894 ] final  -53.89 input  -60.11 | X-H torsion
[ 7974 7965 7964 7962 ] final  113.72 input  175.53 | X-H torsion
[ 8008 7997 7996 7995 ] final -176.59 input   59.86 | X-H torsion
[ 10167 10162 10161 10158 ] final   37.87 input  -65.29 | X-H torsion
[ 10718 10713 10712 10709 ] final -175.55 input   66.30 | X-H torsion
[ 10763 10752 10751 10750 ] final -166.39 input  -60.55 | X-H torsion
[ 11005 11000 10999 10996 ] final  130.65 input  -57.11 | X-H torsion

> <Gold.Protein.ActiveResidues>
 VAL166  LYS551  ARG553  GLY616  TRP617  ASP618  TYR619  PRO620  LYS621  CYS622 
 ASP623  PHE694  ASN695  SER759  ASP760  ASP761  ALA762  ILE779  LEU786  VAL792 
 PHE793  MET794  SER795  GLU796  ALA797  LYS798  CYS799  TRP800  GLU811  SER814 

> <Gold.Protein.RotatedAtoms>
  150.8386  134.7670  159.6913 H   0  0  0  0  0  0  0  0  0  0  0  0  # atno 6907 bound_to 6896
  152.4478  134.5454  159.9861 H   0  0  0  0  0  0  0  0  0  0  0  0  # atno 6908 bound_to 6896
  151.5599  133.3367  159.3005 H   0  0  0  0  0  0  0  0  0  0  0  0  # atno 6909 bound_to 6896
  145.2134  139.2895  143.4256 H   0  0  0  0  0  0  0  0  0  0  0  0  # atno 7974 bound_to 7965
  155.9967  140.1212  157.0586 H   0  0  0  0  0  0  0  0  0  0  0  0  # atno 8008 bound_to 7997
  154.4229  140.1115  156.5709 H   0  0  0  0  0  0  0  0  0  0  0  0  # atno 8009 bound_to 7997
  155.6268  140.3472  155.4672 H   0  0  0  0  0  0  0  0  0  0  0  0  # atno 8010 bound_to 7997
  140.3991  144.1748  150.6133 H   0  0  0  0  0  0  0  0  0  0  0  0  # atno 10167 bound_to 10162
  156.8015  130.9554  151.3118 H   0  0  0  0  0  0  0  0  0  0  0  0  # atno 10718 bound_to 10713
  154.6838  135.2959  154.9577 H   0  0  0  0  0  0  0  0  0  0  0  0  # atno 10763 bound_to 10752
  154.0563  135.6637  153.4810 H   0  0  0  0  0  0  0  0  0  0  0  0  # atno 10764 bound_to 10752
  153.0565  135.5141  154.7894 H   0  0  0  0  0  0  0  0  0  0  0  0  # atno 10765 bound_to 10752
  139.9684  134.9584  156.9325 H   0  0  0  0  0  0  0  0  0  0  0  0  # atno 11005 bound_to 11000
  146.3392  140.2417  142.8596 LP  0  0  0  0  0  0  0  0  0  0  0  0  # atno 17320 bound_to 7965
  144.9834  140.8480  143.5383 LP  0  0  0  0  0  0  0  0  0  0  0  0  # atno 17321 bound_to 7965
  140.4758  143.2396  151.9024 LP  0  0  0  0  0  0  0  0  0  0  0  0  # atno 17342 bound_to 10162
  139.4785  144.5321  151.8651 LP  0  0  0  0  0  0  0  0  0  0  0  0  # atno 17343 bound_to 10162
  157.6551  130.8918  149.9713 LP  0  0  0  0  0  0  0  0  0  0  0  0  # atno 17370 bound_to 10713
  156.1098  130.3650  150.0068 LP  0  0  0  0  0  0  0  0  0  0  0  0  # atno 17371 bound_to 10713
  140.5345  134.0780  155.7324 LP  0  0  0  0  0  0  0  0  0  0  0  0  # atno 17394 bound_to 11000
  141.1364  133.9214  157.2424 LP  0  0  0  0  0  0  0  0  0  0  0  0  # atno 17395 bound_to 11000

$$$$
