AV-unprocessed.smi:1760|AV-procd|sdf|7092|dock8
  -GOLD-   22720 8313D 1   1.00000     0.00000
 Structure written by MMmdl.
 43 45  0  0  0  0  0  0  0  0  3 V2000
  150.6201  136.5363  158.3393 O   0  0  0  0  0  0  0  0  0  0  0  0
  150.7283  137.2780  157.3631 C   0  0  0  0  0  0  0  0  0  0  0  0
  151.3498  138.4709  157.3418 N   0  0  0  0  0  0  0  0  0  0  0  0
  152.0404  139.1369  158.3686 C   0  0  0  0  0  0  0  0  0  0  0  0
  151.9396  140.4682  158.6383 C   0  0  0  0  0  0  0  0  0  0  0  0
  152.6749  141.0992  159.7274 C   0  0  0  0  0  0  0  0  0  0  0  0
  152.6157  142.5796  160.0562 C   0  0  0  0  0  0  0  0  0  0  0  0
  153.6745  143.2067  159.5447 F   0  0  0  0  0  0  0  0  0  0  0  0
  151.5199  143.1258  159.5302 F   0  0  0  0  0  0  0  0  0  0  0  0
  152.5993  142.7869  161.3729 F   0  0  0  0  0  0  0  0  0  0  0  0
  153.4519  140.1990  160.4286 C   0  0  0  0  0  0  0  0  0  0  0  0
  153.5970  138.8697  160.2366 N   0  5  0  0  0  0  0  0  0  0  0  0
  152.9071  138.2894  159.2143 C   0  0  0  0  0  0  0  0  0  0  0  0
  152.9913  137.0824  158.9833 O   0  0  0  0  0  0  0  0  0  0  0  0
  150.2078  136.9947  156.1602 N   0  0  0  0  0  0  0  0  0  0  0  0
  149.4474  135.7959  155.8165 C   0  0  2  0  0  0  0  0  0  0  0  0
  150.2331  134.9478  154.8026 C   0  0  0  0  0  0  0  0  0  0  0  0
  149.4064  133.7394  154.3324 C   0  0  0  0  0  0  0  0  0  0  0  0
  148.1072  134.1731  153.7611 N   0  3  1  0  0  0  0  0  0  0  0  0
  147.3413  133.0419  153.1943 C   0  0  0  0  0  0  0  0  0  0  0  0
  146.9916  133.2151  151.7345 C   0  0  0  0  0  0  0  0  0  0  0  0
  145.9299  133.4045  152.7950 C   0  0  0  0  0  0  0  0  0  0  0  0
  147.3097  134.9535  154.7397 C   0  0  0  0  0  0  0  0  0  0  0  0
  148.0850  136.1908  155.2223 C   0  0  0  0  0  0  0  0  0  0  0  0
  151.2908  138.9933  156.4799 H   0  0  0  0  0  0  0  0  0  0  0  0
  151.2901  141.1012  158.0570 H   0  0  0  0  0  0  0  0  0  0  0  0
  154.0459  140.6127  161.2713 H   0  0  0  0  0  0  0  0  0  0  0  0
  150.3464  137.6700  155.4226 H   0  0  0  0  0  0  0  0  0  0  0  0
  149.2692  135.1865  156.7045 H   0  0  0  0  0  0  0  0  0  0  0  0
  150.5065  135.5570  153.9395 H   0  0  0  0  0  0  0  0  0  0  0  0
  151.1682  134.6047  155.2471 H   0  0  0  0  0  0  0  0  0  0  0  0
  149.9699  133.1834  153.5821 H   0  0  0  0  0  0  0  0  0  0  0  0
  149.2298  133.0567  155.1653 H   0  0  0  0  0  0  0  0  0  0  0  0
  147.5666  132.0551  153.5952 H   0  0  0  0  0  0  0  0  0  0  0  0
  147.3500  134.1045  151.2194 H   0  0  0  0  0  0  0  0  0  0  0  0
  146.9301  132.3171  151.1230 H   0  0  0  0  0  0  0  0  0  0  0  0
  145.1689  132.6316  152.8820 H   0  0  0  0  0  0  0  0  0  0  0  0
  145.5847  134.4197  152.9827 H   0  0  0  0  0  0  0  0  0  0  0  0
  146.3720  135.2680  154.2802 H   0  0  0  0  0  0  0  0  0  0  0  0
  147.0492  134.3181  155.5879 H   0  0  0  0  0  0  0  0  0  0  0  0
  147.4952  136.7291  155.9653 H   0  0  0  0  0  0  0  0  0  0  0  0
  148.2284  136.8763  154.3856 H   0  0  0  0  0  0  0  0  0  0  0  0
  148.3178  134.7941  152.9929 H   0  0  0  0  0  0  0  0  0  0  0  0
  1  2  2  0  0  0  0
  2  3  1  0  0  0  0
  2 15  1  0  0  0  0
  3  4  1  0  0  0  0
  3 25  1  0  0  0  0
  4 13  1  0  0  0  0
  4  5  2  0  0  0  0
  5  6  1  0  0  0  0
  5 26  1  0  0  0  0
  6  7  1  0  0  0  0
  6 11  2  0  0  0  0
  7  8  1  0  0  0  0
  7  9  1  0  0  0  0
  7 10  1  0  0  0  0
 11 12  1  0  0  0  0
 11 27  1  0  0  0  0
 12 13  1  0  0  0  0
 13 14  2  0  0  0  0
 15 16  1  0  0  0  0
 15 28  1  0  0  0  0
 16 24  1  0  0  0  0
 16 17  1  0  0  0  0
 16 29  1  0  0  0  0
 17 18  1  0  0  0  0
 17 30  1  0  0  0  0
 17 31  1  0  0  0  0
 18 19  1  0  0  0  0
 18 32  1  0  0  0  0
 18 33  1  0  0  0  0
 19 20  1  0  0  0  0
 19 23  1  0  0  0  0
 19 43  1  0  0  0  0
 20 22  1  0  0  0  0
 20 21  1  0  0  0  0
 20 34  1  0  0  0  0
 21 22  1  0  0  0  0
 21 35  1  0  0  0  0
 21 36  1  0  0  0  0
 22 37  1  0  0  0  0
 22 38  1  0  0  0  0
 23 24  1  0  0  0  0
 23 39  1  0  0  0  0
 23 40  1  0  0  0  0
 24 41  1  0  0  0  0
 24 42  1  0  0  0  0
M  CHG  1  12  -1
M  CHG  1  19   1
M  END
> <s_m_source_file>
AV-unprocessed.smi

> <i_m_source_file_index>
1760

> <i_lp_mmshare_version>
43012

> <i_f3d_flags>
0

> <s_epik_input>
W0NIMl0xW0NIMl1bQ0hdMU4oW0NIMl1bQ0gyXTIpW0NIMl1bQ0gyXVtDSF0yW05IXUMoPU8pW05IXWMzW2NIXWMoQyhGKShGKUYpW2NIXVtuSF1jMz1P

> <s_epik_cmdline>
J2VwaWtfcHl0aG9uJywgJy1waCcsICc3LjAnLCAnLXRuJywgJzgnLCAnLW1hJywgJzIwMCcsICctbWV0YWxfYmluZGluZycsICctaW1hZScsICc8aW5maWxlLm1hZT4nLCAnLW9tYWUnLCAnPG91dGZpbGUubWFlPic=

> <r_lp_tautomer_probability>
0.999

> <r_epik_Ionization_Penalty>
3.16043

> <r_epik_Ionization_Penalty_Charging>
0.268029

> <r_epik_Ionization_Penalty_Neutral>
2.8924

> <r_epik_State_Penalty>
3.0039

> <r_epik_Charging_Adjusted_Penalty>
3.27193

> <i_epik_Tot_Q>
0

> <i_epik_Tot_abs_Q>
2

> <r_epik_Metal_State_Penalty>
0.560618

> <b_epik_Metal_Only>
1

> <s_lp_Force_Field>
OPLS_2005

> <r_lp_Energy>
39.9714

> <b_lp_Chiralities_Consistent>
1

> <s_lp_Variant>
AV-unprocessed.smi:1760-4

> <Gold.Version>
5.8.1

> <Gold.Id.Protein>
6NUR|6NUR_protein|mol2

> <Gold.PLP.Fitness>
43.1312

> <Gold.PLP.PLP>
-37.5836

> <Gold.PLP.part.hbond>
-2.0758

> <Gold.PLP.part.metal>
0.0000

> <Gold.PLP.part.buried>
-5.8406

> <Gold.PLP.part.nonpolar>
-30.0486

> <Gold.PLP.part.repulsive>
0.0648

> <Gold.PLP.ligand.clash>
0.0000

> <Gold.PLP.ligand.torsion>
2.0149

> <Gold.PLP.Chemscore.Hbond>
2.7670

> <Gold.PLP.Chemscore.CHOScore>
0.0000

> <Gold.PLP.Chemscore.Metal>
0.0000

> <Gold.Chemscore.Hbonds>
donor molecule, donor type, donor heavy atom, donor atom, acceptor molecule, acceptor atom, score
      L1  H    19    43       P1  7948  2.00
      P1  H  6896  6907       L1     1  0.66

> <Gold.PLP.Chemscore.Internal.Correction>
1.2764

> <Gold.Rescore>
     Score         DG    S(hbond)    S(metal)    S(lipo)     H(rot)  DE(clash)    DE(int)     intcor
     11.06     -16.04       1.75        0.00      68.24       1.28       0.03       4.95       ----

> <Gold.Chemscore.Fitness>
11.0636

> <Gold.Chemscore.DG>
-16.0390

> <Gold.Chemscore.ZeroCoef>
-5.4800

> <Gold.Chemscore.Hbond>
1.7512

> <Gold.Chemscore.Metal>
0.0000

> <Gold.Chemscore.Lipo>
68.2354

> <Gold.Chemscore.Internal_Hbond>
0.0000

> <Gold.Chemscore.DEClash>
0.0273

> <Gold.Chemscore.DEInternal>
4.9481

> <Gold.Chemscore.Rot>
1.2787

> <Gold.Chemscore.Internal.Correction>
   9.000000E+99

> <Gold.Chemscore.Hbonds>
donor molecule, donor type, donor heavy atom, donor atom, acceptor molecule, acceptor atom, score
      L1  H    19    43       P1  7948  0.65
      P1  H  6896  6907       L1     1  0.65

> <Gold.Chemscore.Hbond.Weighted>
-5.8490

> <Gold.Chemscore.Metal.Weighted>
-0.0000

> <Gold.Chemscore.Lipo.Weighted>
-7.9835

> <Gold.Chemscore.Internal_Hbond.Weighted>
0.0000

> <Gold.Chemscore.DEClash.Weighted>
0.0273

> <Gold.Chemscore.DEInternal.Weighted>
4.9481

> <Gold.Chemscore.Rot.Weighted>
3.2735

> <Gold.Chemscore.Internal.Correction.Weighted>
   9.000000E+99

> <Gold.Protein.RotatedTorsions>
[ 6907 6896 6895 6894 ] final  -40.68 input  -60.11 | X-H torsion
[ 7974 7965 7964 7962 ] final  -29.91 input  175.53 | X-H torsion
[ 8008 7997 7996 7995 ] final  -25.87 input   59.86 | X-H torsion
[ 10167 10162 10161 10158 ] final  -59.30 input  -65.29 | X-H torsion
[ 10718 10713 10712 10709 ] final   83.39 input   66.30 | X-H torsion
[ 10763 10752 10751 10750 ] final    9.45 input  -60.55 | X-H torsion
[ 11005 11000 10999 10996 ] final  -93.32 input  -57.11 | X-H torsion

> <Gold.Protein.ActiveResidues>
 VAL166  LYS551  ARG553  GLY616  TRP617  ASP618  TYR619  PRO620  LYS621  CYS622 
 ASP623  PHE694  ASN695  SER759  ASP760  ASP761  ALA762  ILE779  LEU786  VAL792 
 PHE793  MET794  SER795  GLU796  ALA797  LYS798  CYS799  TRP800  GLU811  SER814 

> <Gold.Protein.RotatedAtoms>
  150.9756  134.9121  159.7813 H   0  0  0  0  0  0  0  0  0  0  0  0  # atno 6907 bound_to 6896
  152.5205  134.3480  159.9251 H   0  0  0  0  0  0  0  0  0  0  0  0  # atno 6908 bound_to 6896
  151.3488  133.3892  159.2713 H   0  0  0  0  0  0  0  0  0  0  0  0  # atno 6909 bound_to 6896
  146.1182  140.5472  142.8747 H   0  0  0  0  0  0  0  0  0  0  0  0  # atno 7974 bound_to 7965
  154.4454  140.1915  156.0686 H   0  0  0  0  0  0  0  0  0  0  0  0  # atno 8008 bound_to 7997
  156.0528  140.3306  155.7344 H   0  0  0  0  0  0  0  0  0  0  0  0  # atno 8009 bound_to 7997
  155.5531  140.0597  157.2836 H   0  0  0  0  0  0  0  0  0  0  0  0  # atno 8010 bound_to 7997
  140.6144  143.2397  151.5633 H   0  0  0  0  0  0  0  0  0  0  0  0  # atno 10167 bound_to 10162
  157.6878  131.0089  150.2517 H   0  0  0  0  0  0  0  0  0  0  0  0  # atno 10718 bound_to 10713
  153.2138  135.6872  153.8081 H   0  0  0  0  0  0  0  0  0  0  0  0  # atno 10763 bound_to 10752
  153.7304  135.3253  155.3286 H   0  0  0  0  0  0  0  0  0  0  0  0  # atno 10764 bound_to 10752
  154.8236  135.4634  154.0957 H   0  0  0  0  0  0  0  0  0  0  0  0  # atno 10765 bound_to 10752
  141.1500  133.7880  157.0143 H   0  0  0  0  0  0  0  0  0  0  0  0  # atno 11005 bound_to 11000
  144.7572  140.5337  143.6760 LP  0  0  0  0  0  0  0  0  0  0  0  0  # atno 17320 bound_to 7965
  145.5522  139.1477  143.3388 LP  0  0  0  0  0  0  0  0  0  0  0  0  # atno 17321 bound_to 7965
  139.5386  144.2710  152.1304 LP  0  0  0  0  0  0  0  0  0  0  0  0  # atno 17342 bound_to 10162
  140.1916  144.4746  150.6476 LP  0  0  0  0  0  0  0  0  0  0  0  0  # atno 17343 bound_to 10162
  156.3112  130.3772  149.7660 LP  0  0  0  0  0  0  0  0  0  0  0  0  # atno 17370 bound_to 10713
  156.5259  130.8236  151.3220 LP  0  0  0  0  0  0  0  0  0  0  0  0  # atno 17371 bound_to 10713
  140.0857  134.9622  157.1696 LP  0  0  0  0  0  0  0  0  0  0  0  0  # atno 17394 bound_to 11000
  140.3515  134.2594  155.7198 LP  0  0  0  0  0  0  0  0  0  0  0  0  # atno 17395 bound_to 11000

$$$$
