AV-unprocessed.smi:2339|AV-procd|sdf|9338|dock1
  -GOLD-   2272012563D 1   1.00000     0.00000
 Structure written by MMmdl.
 49 52  0  0  0  0  0  0  0  0  1 V2000
  144.1655  132.4842  149.4131 C   0  0  0  0  0  0  0  0  0  0  0  0
  144.6481  132.3746  150.8638 C   0  0  0  0  0  0  0  0  0  0  0  0
  144.4886  133.6305  151.5824 N   0  0  0  0  0  0  0  0  0  0  0  0
  143.2296  134.1549  151.8567 C   0  0  0  0  0  0  0  0  0  0  0  0
  143.0211  135.3438  152.4548 C   0  0  0  0  0  0  0  0  0  0  0  0
  144.1809  136.1664  152.8539 C   0  0  0  0  0  0  0  0  0  0  0  0
  144.0282  137.2590  153.4005 O   0  0  0  0  0  0  0  0  0  0  0  0
  145.5259  135.6059  152.5600 C   0  0  0  0  0  0  0  0  0  0  0  0
  146.6214  136.3874  152.9581 N   0  0  0  0  0  0  0  0  0  0  0  0
  146.7849  137.1385  154.0662 C   0  0  0  0  0  0  0  0  0  0  0  0
  145.9685  137.2533  154.9774 O   0  0  0  0  0  0  0  0  0  0  0  0
  147.9729  137.7647  154.1196 N   0  0  0  0  0  0  0  0  0  0  0  0
  148.4650  138.6540  155.1844 C   0  0  2  0  0  0  0  0  0  0  0  0
  147.9688  140.1007  155.0771 C   0  0  2  0  0  0  0  0  0  0  0  0
  146.8336  140.7892  154.4084 C   0  0  0  0  0  0  0  0  0  0  0  0
  147.6276  142.0141  153.8825 C   0  0  0  0  0  0  0  0  0  0  0  0
  149.0269  141.7103  154.1113 O   0  0  0  0  0  0  0  0  0  0  0  0
  149.0855  140.2973  154.0737 C   0  0  1  0  0  0  0  0  0  0  0  0
  149.8895  139.2725  154.9086 C   0  0  0  0  0  0  0  0  0  0  0  0
  150.6835  139.8218  156.1114 C   0  0  0  0  0  0  0  0  0  0  0  0
  152.0650  139.1672  156.1144 C   0  0  0  0  0  0  0  0  0  0  0  0
  152.3004  138.7803  154.6619 C   0  0  0  0  0  0  0  0  0  0  0  0
  150.9097  138.4070  154.1568 C   0  0  0  0  0  0  0  0  0  0  0  0
  145.5936  134.3934  151.9537 C   0  0  0  0  0  0  0  0  0  0  0  0
  144.2797  131.5323  148.8945 H   0  0  0  0  0  0  0  0  0  0  0  0
  144.7340  133.2347  148.8633 H   0  0  0  0  0  0  0  0  0  0  0  0
  143.1119  132.7616  149.3687 H   0  0  0  0  0  0  0  0  0  0  0  0
  144.0943  131.5897  151.3802 H   0  0  0  0  0  0  0  0  0  0  0  0
  145.6957  132.0725  150.8836 H   0  0  0  0  0  0  0  0  0  0  0  0
  142.4079  133.5224  151.5531 H   0  0  0  0  0  0  0  0  0  0  0  0
  142.0239  135.7100  152.6498 H   0  0  0  0  0  0  0  0  0  0  0  0
  147.4052  136.3615  152.3217 H   0  0  0  0  0  0  0  0  0  0  0  0
  148.6190  137.5774  153.3664 H   0  0  0  0  0  0  0  0  0  0  0  0
  148.3733  138.2319  156.1865 H   0  0  0  0  0  0  0  0  0  0  0  0
  148.1748  140.6009  156.0289 H   0  0  0  0  0  0  0  0  0  0  0  0
  146.4111  140.1980  153.5950 H   0  0  0  0  0  0  0  0  0  0  0  0
  146.0385  141.0665  155.1011 H   0  0  0  0  0  0  0  0  0  0  0  0
  147.4422  142.1688  152.8188 H   0  0  0  0  0  0  0  0  0  0  0  0
  147.3611  142.9306  154.4096 H   0  0  0  0  0  0  0  0  0  0  0  0
  148.8562  139.9333  153.0669 H   0  0  0  0  0  0  0  0  0  0  0  0
  150.8031  140.9021  156.0192 H   0  0  0  0  0  0  0  0  0  0  0  0
  150.1754  139.6456  157.0601 H   0  0  0  0  0  0  0  0  0  0  0  0
  152.8423  139.8227  156.5081 H   0  0  0  0  0  0  0  0  0  0  0  0
  152.0424  138.2680  156.7316 H   0  0  0  0  0  0  0  0  0  0  0  0
  152.6742  139.6426  154.1082 H   0  0  0  0  0  0  0  0  0  0  0  0
  153.0223  137.9707  154.5506 H   0  0  0  0  0  0  0  0  0  0  0  0
  150.7300  137.3521  154.3676 H   0  0  0  0  0  0  0  0  0  0  0  0
  150.8415  138.5270  153.0751 H   0  0  0  0  0  0  0  0  0  0  0  0
  146.5252  133.9031  151.7214 H   0  0  0  0  0  0  0  0  0  0  0  0
  1  2  1  0  0  0  0
  1 25  1  0  0  0  0
  1 26  1  0  0  0  0
  1 27  1  0  0  0  0
  2  3  1  0  0  0  0
  2 28  1  0  0  0  0
  2 29  1  0  0  0  0
  3 24  1  0  0  0  0
  3  4  1  0  0  0  0
  4  5  2  0  0  0  0
  4 30  1  0  0  0  0
  5  6  1  0  0  0  0
  5 31  1  0  0  0  0
  6  7  2  0  0  0  0
  6  8  1  0  0  0  0
  8  9  1  0  0  0  0
  8 24  2  0  0  0  0
  9 10  1  0  0  0  0
  9 32  1  0  0  0  0
 10 11  2  0  0  0  0
 10 12  1  0  0  0  0
 12 13  1  0  0  0  0
 12 33  1  0  0  0  0
 13 19  1  0  0  0  0
 13 14  1  0  0  0  0
 13 34  1  0  0  0  0
 14 18  1  0  0  0  0
 14 15  1  0  0  0  0
 14 35  1  0  0  0  0
 15 16  1  0  0  0  0
 15 36  1  0  0  0  0
 15 37  1  0  0  0  0
 16 17  1  0  0  0  0
 16 38  1  0  0  0  0
 16 39  1  0  0  0  0
 17 18  1  0  0  0  0
 18 19  1  0  0  0  0
 18 40  1  0  0  0  0
 19 23  1  0  0  0  0
 19 20  1  0  0  0  0
 20 21  1  0  0  0  0
 20 41  1  0  0  0  0
 20 42  1  0  0  0  0
 21 22  1  0  0  0  0
 21 43  1  0  0  0  0
 21 44  1  0  0  0  0
 22 23  1  0  0  0  0
 22 45  1  0  0  0  0
 22 46  1  0  0  0  0
 23 47  1  0  0  0  0
 23 48  1  0  0  0  0
 24 49  1  0  0  0  0
M  END
> <s_m_source_file>
AV-unprocessed.smi

> <i_m_source_file_index>
2339

> <i_lp_mmshare_version>
43012

> <i_f3d_flags>
0

> <s_epik_input>
W0NIM11bQ0gyXW4xW2NIXVtjSF1jKD1PKWMoW2NIXTEpW05IXUMoPU8pW05IXVtDQEBIXTJbQ0BASF0oW0NIMl1bQ0gyXU8zKVtDQEBIXTNDMjRbQ0gyXVtDSDJdW0NIMl1bQ0gyXTQ=

> <s_epik_cmdline>
J2VwaWtfcHl0aG9uJywgJy1waCcsICc3LjAnLCAnLXRuJywgJzgnLCAnLW1hJywgJzIwMCcsICctbWV0YWxfYmluZGluZycsICctaW1hZScsICc8aW5maWxlLm1hZT4nLCAnLW9tYWUnLCAnPG91dGZpbGUubWFlPic=

> <r_lp_tautomer_probability>
1

> <r_epik_Ionization_Penalty>
0.00145966

> <r_epik_Ionization_Penalty_Charging>
0.00143969

> <r_epik_Ionization_Penalty_Neutral>
1.99697e-05

> <r_epik_State_Penalty>
0.000961843

> <r_epik_Charging_Adjusted_Penalty>
0.00240153

> <i_epik_Tot_Q>
0

> <i_epik_Tot_abs_Q>
0

> <r_epik_Metal_State_Penalty>
-0

> <b_epik_Metal_Only>
0

> <s_lp_Force_Field>
OPLS_2005

> <r_lp_Energy>
81.9731

> <b_lp_Chiralities_Consistent>
1

> <s_lp_Variant>
AV-unprocessed.smi:2339-3

> <Gold.Version>
5.8.1

> <Gold.Id.Protein>
6NUR|6NUR_protein|mol2

> <Gold.PLP.Fitness>
48.1254

> <Gold.PLP.PLP>
-39.7699

> <Gold.PLP.part.hbond>
-3.4632

> <Gold.PLP.part.metal>
0.0000

> <Gold.PLP.part.buried>
-4.6629

> <Gold.PLP.part.nonpolar>
-31.7337

> <Gold.PLP.part.repulsive>
0.3932

> <Gold.PLP.ligand.clash>
0.0000

> <Gold.PLP.ligand.torsion>
0.5193

> <Gold.PLP.Chemscore.Hbond>
2.4081

> <Gold.PLP.Chemscore.CHOScore>
0.6302

> <Gold.PLP.Chemscore.Metal>
0.0000

> <Gold.Chemscore.Hbonds>
donor molecule, donor type, donor heavy atom, donor atom, acceptor molecule, acceptor atom, score
      L1  H     9    32       P1  7948  1.00
      L1  H    12    33       P1  7948  0.82
      P1  H  8011  8017       L1    17  0.49
      L1  C     4    30       P1 10186  0.60

> <Gold.PLP.Chemscore.Internal.Correction>
0.2792

> <Gold.Rescore>
     Score         DG    S(hbond)    S(metal)    S(lipo)     H(rot)  DE(clash)    DE(int)     intcor
     15.18     -20.31       1.89        0.00      98.28       1.17       0.19       4.93       ----

> <Gold.Chemscore.Fitness>
15.1848

> <Gold.Chemscore.DG>
-20.3107

> <Gold.Chemscore.ZeroCoef>
-5.4800

> <Gold.Chemscore.Hbond>
1.8922

> <Gold.Chemscore.Metal>
0.0000

> <Gold.Chemscore.Lipo>
98.2752

> <Gold.Chemscore.Internal_Hbond>
0.0000

> <Gold.Chemscore.DEClash>
0.1917

> <Gold.Chemscore.DEInternal>
4.9341

> <Gold.Chemscore.Rot>
1.1670

> <Gold.Chemscore.Internal.Correction>
   9.000000E+99

> <Gold.Chemscore.Hbonds>
donor molecule, donor type, donor heavy atom, donor atom, acceptor molecule, acceptor atom, score
      L1  H     9    32       P1  7948  0.98
      L1  H    12    33       P1  7948  0.77
      P1  H  8011  8017       L1    17  0.07

> <Gold.Chemscore.Hbond.Weighted>
-6.3199

> <Gold.Chemscore.Metal.Weighted>
-0.0000

> <Gold.Chemscore.Lipo.Weighted>
-11.4982

> <Gold.Chemscore.Internal_Hbond.Weighted>
0.0000

> <Gold.Chemscore.DEClash.Weighted>
0.1917

> <Gold.Chemscore.DEInternal.Weighted>
4.9341

> <Gold.Chemscore.Rot.Weighted>
2.9874

> <Gold.Chemscore.Internal.Correction.Weighted>
   9.000000E+99

> <Gold.Protein.RotatedTorsions>
[ 6907 6896 6895 6894 ] final  169.06 input  -60.11 | X-H torsion
[ 7974 7965 7964 7962 ] final -143.75 input  175.53 | X-H torsion
[ 8008 7997 7996 7995 ] final -168.19 input   59.86 | X-H torsion
[ 10167 10162 10161 10158 ] final -121.74 input  -65.29 | X-H torsion
[ 10718 10713 10712 10709 ] final -131.68 input   66.30 | X-H torsion
[ 10763 10752 10751 10750 ] final   63.09 input  -60.55 | X-H torsion
[ 11005 11000 10999 10996 ] final -168.35 input  -57.11 | X-H torsion

> <Gold.Protein.ActiveResidues>
 VAL166  LYS551  ARG553  GLY616  TRP617  ASP618  TYR619  PRO620  LYS621  CYS622 
 ASP623  PHE694  ASN695  SER759  ASP760  ASP761  ALA762  ILE779  LEU786  VAL792 
 PHE793  MET794  SER795  GLU796  ALA797  LYS798  CYS799  TRP800  GLU811  SER814 

> <Gold.Protein.RotatedAtoms>
  151.8378  133.3419  159.3633 H   0  0  0  0  0  0  0  0  0  0  0  0  # atno 6907 bound_to 6896
  150.7244  134.5420  159.5761 H   0  0  0  0  0  0  0  0  0  0  0  0  # atno 6908 bound_to 6896
  152.2887  134.7747  160.0433 H   0  0  0  0  0  0  0  0  0  0  0  0  # atno 6909 bound_to 6896
  144.8347  140.5796  143.5492 H   0  0  0  0  0  0  0  0  0  0  0  0  # atno 7974 bound_to 7965
  155.8880  140.1020  157.1438 H   0  0  0  0  0  0  0  0  0  0  0  0  # atno 8008 bound_to 7997
  154.4012  140.1316  156.4344 H   0  0  0  0  0  0  0  0  0  0  0  0  # atno 8009 bound_to 7997
  155.7566  140.3464  155.5179 H   0  0  0  0  0  0  0  0  0  0  0  0  # atno 8010 bound_to 7997
  140.0217  143.5337  152.2217 H   0  0  0  0  0  0  0  0  0  0  0  0  # atno 10167 bound_to 10162
  156.2269  130.7013  151.0817 H   0  0  0  0  0  0  0  0  0  0  0  0  # atno 10718 bound_to 10713
  153.0005  135.5441  154.6297 H   0  0  0  0  0  0  0  0  0  0  0  0  # atno 10763 bound_to 10752
  154.5577  135.2831  155.0951 H   0  0  0  0  0  0  0  0  0  0  0  0  # atno 10764 bound_to 10752
  154.2166  135.6458  153.5184 H   0  0  0  0  0  0  0  0  0  0  0  0  # atno 10765 bound_to 10752
  140.5430  134.5503  157.5104 H   0  0  0  0  0  0  0  0  0  0  0  0  # atno 11005 bound_to 11000
  145.4820  139.1494  143.3756 LP  0  0  0  0  0  0  0  0  0  0  0  0  # atno 17320 bound_to 7965
  146.2647  140.4956  142.8839 LP  0  0  0  0  0  0  0  0  0  0  0  0  # atno 17321 bound_to 7965
  139.6135  144.7614  151.2898 LP  0  0  0  0  0  0  0  0  0  0  0  0  # atno 17342 bound_to 10162
  140.7339  143.6780  150.8025 LP  0  0  0  0  0  0  0  0  0  0  0  0  # atno 17343 bound_to 10162
  157.7115  131.0732  150.6484 LP  0  0  0  0  0  0  0  0  0  0  0  0  # atno 17370 bound_to 10713
  156.6550  130.4496  149.5706 LP  0  0  0  0  0  0  0  0  0  0  0  0  # atno 17371 bound_to 10713
  139.9494  134.7644  156.0484 LP  0  0  0  0  0  0  0  0  0  0  0  0  # atno 17394 bound_to 11000
  141.1216  133.6611  156.3229 LP  0  0  0  0  0  0  0  0  0  0  0  0  # atno 17395 bound_to 11000

$$$$
