AV-unprocessed.smi:35|AV-procd|sdf|269|dock10
  -GOLD-   2262016 33D 1   1.00000     0.00000
 Structure written by MMmdl.
 28 29  0  0  0  0  0  0  0  0  2 V2000
  149.6315  134.9867  157.9516 O   0  0  0  0  0  0  0  0  0  0  0  0
  149.7114  135.9195  157.1544 C   0  0  0  0  0  0  0  0  0  0  0  0
  150.6809  135.9968  156.1983 N   0  5  0  0  0  0  0  0  0  0  0  0
  150.7528  137.0242  155.3018 C   0  0  0  0  0  0  0  0  0  0  0  0
  151.6592  137.1244  154.4753 O   0  0  0  0  0  0  0  0  0  0  0  0
  149.7482  138.0339  155.3223 N   0  0  0  0  0  0  0  0  0  0  0  0
  149.8341  139.1917  154.3387 C   0  0  2  0  0  0  0  0  0  0  0  0
  150.7583  140.1360  154.8086 O   0  0  0  0  0  0  0  0  0  0  0  0
  150.1107  141.2993  155.3239 C   0  0  2  0  0  0  0  0  0  0  0  0
  149.7897  141.1355  156.8281 C   0  0  0  0  0  0  0  0  0  0  0  0
  149.1437  142.2934  157.3130 O   0  0  0  0  0  0  0  0  0  0  0  0
  148.8876  141.3944  154.4057 C   0  0  2  0  0  0  0  0  0  0  0  0
  147.8282  142.1499  154.9598 O   0  0  0  0  0  0  0  0  0  0  0  0
  148.4894  139.9411  154.1855 C   0  0  1  0  0  0  0  0  0  0  0  0
  147.9500  139.7967  152.8871 O   0  0  0  0  0  0  0  0  0  0  0  0
  148.7944  138.0140  156.3296 C   0  0  0  0  0  0  0  0  0  0  0  0
  148.7395  137.0059  157.2226 C   0  0  0  0  0  0  0  0  0  0  0  0
  147.3079  137.1054  158.5889 Br  0  0  0  0  0  0  0  0  0  0  0  0
  150.2052  138.7409  153.4166 H   0  0  0  0  0  0  0  0  0  0  0  0
  150.7484  142.1733  155.1843 H   0  0  0  0  0  0  0  0  0  0  0  0
  149.0932  140.3120  156.9831 H   0  0  0  0  0  0  0  0  0  0  0  0
  150.6727  140.9095  157.4235 H   0  0  0  0  0  0  0  0  0  0  0  0
  149.0723  142.9153  156.6049 H   0  0  0  0  0  0  0  0  0  0  0  0
  149.1967  141.8486  153.4624 H   0  0  0  0  0  0  0  0  0  0  0  0
  148.0965  143.0558  154.9906 H   0  0  0  0  0  0  0  0  0  0  0  0
  147.7825  139.6097  154.9482 H   0  0  0  0  0  0  0  0  0  0  0  0
  148.6688  139.6624  152.2866 H   0  0  0  0  0  0  0  0  0  0  0  0
  148.0723  138.8107  156.4186 H   0  0  0  0  0  0  0  0  0  0  0  0
  1  2  2  0  0  0  0
  2 17  1  0  0  0  0
  2  3  1  0  0  0  0
  3  4  1  0  0  0  0
  4  5  2  0  0  0  0
  4  6  1  0  0  0  0
  6  7  1  0  0  0  0
  6 16  1  0  0  0  0
  7 14  1  0  0  0  0
  7  8  1  0  0  0  0
  7 19  1  0  0  0  0
  8  9  1  0  0  0  0
  9 10  1  0  0  0  0
  9 12  1  0  0  0  0
  9 20  1  0  0  0  0
 10 11  1  0  0  0  0
 10 21  1  0  0  0  0
 10 22  1  0  0  0  0
 11 23  1  0  0  0  0
 12 13  1  0  0  0  0
 12 14  1  0  0  0  0
 12 24  1  0  0  0  0
 13 25  1  0  0  0  0
 14 15  1  0  0  0  0
 14 26  1  0  0  0  0
 15 27  1  0  0  0  0
 16 17  2  0  0  0  0
 16 28  1  0  0  0  0
 17 18  1  0  0  0  0
M  CHG  1   3  -1
M  END
> <s_m_source_file>
AV-unprocessed.smi

> <i_m_source_file_index>
35

> <i_lp_mmshare_version>
43012

> <i_f3d_flags>
0

> <s_epik_input>
Tz1jMVtuSF1jKD1PKW4oW2NIXWMxQnIpW0NAQEhdMk9bQ0BASF0oW0NIMl1bT0hdKVtDQEBIXShbT0hdKVtDQEhdMltPSF0=

> <s_epik_cmdline>
J2VwaWtfcHl0aG9uJywgJy1waCcsICc3LjAnLCAnLXRuJywgJzgnLCAnLW1hJywgJzIwMCcsICctbWV0YWxfYmluZGluZycsICctaW1hZScsICc8aW5maWxlLm1hZT4nLCAnLW9tYWUnLCAnPG91dGZpbGUubWFlPic=

> <r_epik_Ionization_Penalty>
1.06112

> <r_epik_Ionization_Penalty_Charging>
2.1796e-09

> <r_epik_Ionization_Penalty_Neutral>
1.06112

> <r_epik_State_Penalty>
1.11484

> <r_epik_Charging_Adjusted_Penalty>
1.11484

> <i_epik_Tot_Q>
-1

> <i_epik_Tot_abs_Q>
1

> <r_epik_Metal_State_Penalty>
0.0032876

> <b_epik_Metal_Only>
0

> <s_epik_Chemistry_Notes>
This compound contains an acetal/aminal-like group ( X-CH(R)-Y where X, Y are N, S, or O) that may be acid/base labile, releasing an aldehyde.

> <s_lp_Force_Field>
OPLS_2005

> <r_lp_Energy>
39.1741

> <b_lp_Chiralities_Consistent>
1

> <s_lp_Variant>
AV-unprocessed.smi:35-23

> <Gold.Version>
5.8.1

> <Gold.Id.Protein>
6NUR|6NUR_protein|mol2

> <Gold.PLP.Fitness>
41.2005

> <Gold.PLP.PLP>
-24.3771

> <Gold.PLP.part.hbond>
-5.6786

> <Gold.PLP.part.metal>
0.0000

> <Gold.PLP.part.buried>
-4.7505

> <Gold.PLP.part.nonpolar>
-13.6654

> <Gold.PLP.part.repulsive>
0.2166

> <Gold.PLP.ligand.clash>
0.0000

> <Gold.PLP.ligand.torsion>
0.6189

> <Gold.PLP.Chemscore.Hbond>
6.0000

> <Gold.PLP.Chemscore.CHOScore>
0.0000

> <Gold.PLP.Chemscore.Metal>
0.0000

> <Gold.Chemscore.Hbonds>
donor molecule, donor type, donor heavy atom, donor atom, acceptor molecule, acceptor atom, score
      L1  H    11    23       P1  8028  0.98
      L1  H    13    25       P1  8028  1.00
      L1  H    15    27       P1  7957  0.94
      P1  H  6896  6909       L1     1  1.00
      P1  H  7989  7998       L1     8  0.95
      P1  H 10752 10765       L1     5  1.00

> <Gold.PLP.Chemscore.Internal.Correction>
0.0612

> <Gold.Rescore>
     Score         DG    S(hbond)    S(metal)    S(lipo)     H(rot)  DE(clash)    DE(int)     intcor
     15.88     -16.55       5.04        0.00      30.13       3.63       0.00       0.67       ----

> <Gold.Chemscore.Fitness>
15.8775

> <Gold.Chemscore.DG>
-16.5497

> <Gold.Chemscore.ZeroCoef>
-5.4800

> <Gold.Chemscore.Hbond>
5.0381

> <Gold.Chemscore.Metal>
0.0000

> <Gold.Chemscore.Lipo>
30.1284

> <Gold.Chemscore.Internal_Hbond>
0.0000

> <Gold.Chemscore.DEClash>
0.0000

> <Gold.Chemscore.DEInternal>
0.6721

> <Gold.Chemscore.Rot>
3.6261

> <Gold.Chemscore.Internal.Correction>
   9.000000E+99

> <Gold.Chemscore.Hbonds>
donor molecule, donor type, donor heavy atom, donor atom, acceptor molecule, acceptor atom, score
      L1  H    11    23       P1  8028  0.90
      L1  H    13    25       P1  8028  0.93
      L1  H    15    27       P1  7957  0.88
      P1  H  6896  6909       L1     1  0.96
      P1  H  7989  7998       L1     8  0.17
      P1  H 10752 10765       L1     5  0.91

> <Gold.Chemscore.Hbond.Weighted>
-16.8274

> <Gold.Chemscore.Metal.Weighted>
-0.0000

> <Gold.Chemscore.Lipo.Weighted>
-3.5250

> <Gold.Chemscore.Internal_Hbond.Weighted>
0.0000

> <Gold.Chemscore.DEClash.Weighted>
0.0000

> <Gold.Chemscore.DEInternal.Weighted>
0.6721

> <Gold.Chemscore.Rot.Weighted>
9.2828

> <Gold.Chemscore.Internal.Correction.Weighted>
   9.000000E+99

> <Gold.Protein.RotatedTorsions>
[ 6907 6896 6895 6894 ] final   43.66 input  -60.11 | X-H torsion
[ 7974 7965 7964 7962 ] final  -27.52 input  175.53 | X-H torsion
[ 8008 7997 7996 7995 ] final    7.62 input   59.86 | X-H torsion
[ 10167 10162 10161 10158 ] final   75.90 input  -65.29 | X-H torsion
[ 10718 10713 10712 10709 ] final  -76.23 input   66.30 | X-H torsion
[ 10763 10752 10751 10750 ] final  169.51 input  -60.55 | X-H torsion
[ 11005 11000 10999 10996 ] final  -13.89 input  -57.11 | X-H torsion

> <Gold.Protein.ActiveResidues>
 VAL166  LYS551  ARG553  GLY616  TRP617  ASP618  TYR619  PRO620  LYS621  CYS622 
 ASP623  PHE694  ASN695  SER759  ASP760  ASP761  ALA762  ILE779  LEU786  VAL792 
 PHE793  MET794  SER795  GLU796  ALA797  LYS798  CYS799  TRP800  GLU811  SER814 

> <Gold.Protein.RotatedAtoms>
  152.2230  134.8394  160.0483 H   0  0  0  0  0  0  0  0  0  0  0  0  # atno 6907 bound_to 6896
  151.9171  133.3571  159.3892 H   0  0  0  0  0  0  0  0  0  0  0  0  # atno 6908 bound_to 6896
  150.7005  134.4598  159.5419 H   0  0  0  0  0  0  0  0  0  0  0  0  # atno 6909 bound_to 6896
  146.1352  140.5162  142.8676 H   0  0  0  0  0  0  0  0  0  0  0  0  # atno 7974 bound_to 7965
  154.7562  140.2776  155.6252 H   0  0  0  0  0  0  0  0  0  0  0  0  # atno 8008 bound_to 7997
  156.2906  140.2669  156.2255 H   0  0  0  0  0  0  0  0  0  0  0  0  # atno 8009 bound_to 7997
  155.0075  140.0372  157.2375 H   0  0  0  0  0  0  0  0  0  0  0  0  # atno 8010 bound_to 7997
  139.9980  144.5708  150.7761 H   0  0  0  0  0  0  0  0  0  0  0  0  # atno 10167 bound_to 10162
  156.0182  130.4460  150.3162 H   0  0  0  0  0  0  0  0  0  0  0  0  # atno 10718 bound_to 10713
  154.3842  135.2753  155.2193 H   0  0  0  0  0  0  0  0  0  0  0  0  # atno 10763 bound_to 10752
  154.4287  135.5982  153.6059 H   0  0  0  0  0  0  0  0  0  0  0  0  # atno 10764 bound_to 10752
  152.9833  135.5990  154.4088 H   0  0  0  0  0  0  0  0  0  0  0  0  # atno 10765 bound_to 10752
  140.7808  133.8364  155.9290 H   0  0  0  0  0  0  0  0  0  0  0  0  # atno 11005 bound_to 11000
  144.7732  140.5683  143.6656 LP  0  0  0  0  0  0  0  0  0  0  0  0  # atno 17320 bound_to 7965
  145.5172  139.1477  143.3572 LP  0  0  0  0  0  0  0  0  0  0  0  0  # atno 17321 bound_to 7965
  140.7430  143.2839  151.3518 LP  0  0  0  0  0  0  0  0  0  0  0  0  # atno 17342 bound_to 10162
  139.6292  144.0754  152.2461 LP  0  0  0  0  0  0  0  0  0  0  0  0  # atno 17343 bound_to 10162
  157.1263  131.0260  151.2988 LP  0  0  0  0  0  0  0  0  0  0  0  0  # atno 17370 bound_to 10713
  157.4587  130.7640  149.7216 LP  0  0  0  0  0  0  0  0  0  0  0  0  # atno 17371 bound_to 10713
  140.9484  134.1810  157.4746 LP  0  0  0  0  0  0  0  0  0  0  0  0  # atno 17394 bound_to 11000
  139.8743  134.9899  156.5480 LP  0  0  0  0  0  0  0  0  0  0  0  0  # atno 17395 bound_to 11000

$$$$
