AV-unprocessed.smi:1104|AV-procd|sdf|4775|dock2
  -GOLD-   22720 3313D 1   1.00000     0.00000
 Structure written by MMmdl.
 43 44  0  0  0  0  0  0  0  0  1 V2000
  143.6390  134.9339  152.7327 C   0  0  0  0  0  0  0  0  0  0  0  0
  144.5893  135.7449  151.9676 N   0  0  0  0  0  0  0  0  0  0  0  0
  144.9975  135.2063  150.6674 C   0  0  0  0  0  0  0  0  0  0  0  0
  145.0489  136.9179  152.4617 C   0  0  0  0  0  0  0  0  0  0  0  0
  144.7142  137.3355  153.5727 O   0  0  0  0  0  0  0  0  0  0  0  0
  146.0363  137.7422  151.6121 C   0  0  0  0  0  0  0  0  0  0  0  0
  147.3629  137.8510  152.2165 N   0  0  0  0  0  0  0  0  0  0  0  0
  147.7304  138.7852  153.1055 C   0  0  0  0  0  0  0  0  0  0  0  0
  146.9819  139.6801  153.4983 O   0  0  0  0  0  0  0  0  0  0  0  0
  148.9960  138.5949  153.5152 N   0  0  0  0  0  0  0  0  0  0  0  0
  149.7573  139.3810  154.4213 C   0  0  0  0  0  0  0  0  0  0  0  0
  151.0655  139.0586  154.8502 C   0  0  0  0  0  0  0  0  0  0  0  0
  151.7084  139.9056  155.7731 C   0  0  0  0  0  0  0  0  0  0  0  0
  151.0296  141.0503  156.2529 C   0  0  0  0  0  0  0  0  0  0  0  0
  151.6564  141.9089  157.1817 N   0  0  0  0  0  0  0  0  0  0  0  0
  152.0167  141.2989  158.4594 C   0  0  0  0  0  0  0  0  0  0  0  0
  152.9489  142.2297  159.2545 C   0  0  0  0  0  0  0  0  0  0  0  0
  152.3425  143.5095  159.4025 O   0  0  0  0  0  0  0  0  0  0  0  0
  152.1053  144.1313  158.1440 C   0  0  0  0  0  0  0  0  0  0  0  0
  151.1384  143.2691  157.3151 C   0  0  0  0  0  0  0  0  0  0  0  0
  149.7736  141.3530  155.8425 N   0  0  0  0  0  0  0  0  0  0  0  0
  149.1598  140.5370  154.9605 C   0  0  0  0  0  0  0  0  0  0  0  0
  142.8083  135.5414  153.0949 H   0  0  0  0  0  0  0  0  0  0  0  0
  144.1338  134.4865  153.5954 H   0  0  0  0  0  0  0  0  0  0  0  0
  143.2057  134.1270  152.1417 H   0  0  0  0  0  0  0  0  0  0  0  0
  146.0803  135.2439  150.5419 H   0  0  0  0  0  0  0  0  0  0  0  0
  144.5363  135.7761  149.8597 H   0  0  0  0  0  0  0  0  0  0  0  0
  144.7071  134.1630  150.5413 H   0  0  0  0  0  0  0  0  0  0  0  0
  146.1486  137.2600  150.6408 H   0  0  0  0  0  0  0  0  0  0  0  0
  145.6398  138.7415  151.4263 H   0  0  0  0  0  0  0  0  0  0  0  0
  148.0384  137.1469  151.9583 H   0  0  0  0  0  0  0  0  0  0  0  0
  149.4524  137.7602  153.1773 H   0  0  0  0  0  0  0  0  0  0  0  0
  151.5819  138.1773  154.5031 H   0  0  0  0  0  0  0  0  0  0  0  0
  152.7131  139.6730  156.0930 H   0  0  0  0  0  0  0  0  0  0  0  0
  151.1048  141.1110  159.0278 H   0  0  0  0  0  0  0  0  0  0  0  0
  152.5086  140.3368  158.3232 H   0  0  0  0  0  0  0  0  0  0  0  0
  153.1408  141.8122  160.2429 H   0  0  0  0  0  0  0  0  0  0  0  0
  153.9155  142.3284  158.7578 H   0  0  0  0  0  0  0  0  0  0  0  0
  151.6775  145.1199  158.3109 H   0  0  0  0  0  0  0  0  0  0  0  0
  153.0483  144.2775  157.6146 H   0  0  0  0  0  0  0  0  0  0  0  0
  151.0044  143.7202  156.3310 H   0  0  0  0  0  0  0  0  0  0  0  0
  150.1600  143.2380  157.7967 H   0  0  0  0  0  0  0  0  0  0  0  0
  148.1578  140.8213  154.6734 H   0  0  0  0  0  0  0  0  0  0  0  0
  1  2  1  0  0  0  0
  1 23  1  0  0  0  0
  1 24  1  0  0  0  0
  1 25  1  0  0  0  0
  2  3  1  0  0  0  0
  2  4  1  0  0  0  0
  3 26  1  0  0  0  0
  3 27  1  0  0  0  0
  3 28  1  0  0  0  0
  4  5  2  0  0  0  0
  4  6  1  0  0  0  0
  6  7  1  0  0  0  0
  6 29  1  0  0  0  0
  6 30  1  0  0  0  0
  7  8  1  0  0  0  0
  7 31  1  0  0  0  0
  8  9  2  0  0  0  0
  8 10  1  0  0  0  0
 10 11  1  0  0  0  0
 10 32  1  0  0  0  0
 11 22  1  0  0  0  0
 11 12  2  0  0  0  0
 12 13  1  0  0  0  0
 12 33  1  0  0  0  0
 13 14  2  0  0  0  0
 13 34  1  0  0  0  0
 14 15  1  0  0  0  0
 14 21  1  0  0  0  0
 15 20  1  0  0  0  0
 15 16  1  0  0  0  0
 16 17  1  0  0  0  0
 16 35  1  0  0  0  0
 16 36  1  0  0  0  0
 17 18  1  0  0  0  0
 17 37  1  0  0  0  0
 17 38  1  0  0  0  0
 18 19  1  0  0  0  0
 19 20  1  0  0  0  0
 19 39  1  0  0  0  0
 19 40  1  0  0  0  0
 20 41  1  0  0  0  0
 20 42  1  0  0  0  0
 21 22  2  0  0  0  0
 22 43  1  0  0  0  0
M  END
> <s_m_source_file>
AV-unprocessed.smi

> <i_m_source_file_index>
1104

> <i_lp_mmshare_version>
43012

> <i_f3d_flags>
0

> <s_epik_input>
W0NIM11OKFtDSDNdKUMoPU8pW0NIMl1bTkhdQyg9TylbTkhdYzFbY0hdW2NIXWMobltjSF0xKU4yW0NIMl1bQ0gyXU9bQ0gyXVtDSDJdMg==

> <s_epik_cmdline>
J2VwaWtfcHl0aG9uJywgJy1waCcsICc3LjAnLCAnLXRuJywgJzgnLCAnLW1hJywgJzIwMCcsICctbWV0YWxfYmluZGluZycsICctaW1hZScsICc8aW5maWxlLm1hZT4nLCAnLW9tYWUnLCAnPG91dGZpbGUubWFlPic=

> <r_lp_tautomer_probability>
1

> <r_epik_Ionization_Penalty>
0.00584487

> <r_epik_Ionization_Penalty_Charging>
0

> <r_epik_Ionization_Penalty_Neutral>
0.00584487

> <r_epik_State_Penalty>
0.00427029

> <r_epik_Charging_Adjusted_Penalty>
0.00427029

> <i_epik_Tot_Q>
0

> <i_epik_Tot_abs_Q>
0

> <r_epik_Metal_State_Penalty>
-0

> <b_epik_Metal_Only>
0

> <s_lp_Force_Field>
OPLS_2005

> <r_lp_Energy>
22.3559

> <b_lp_Chiralities_Consistent>
1

> <s_lp_Variant>
AV-unprocessed.smi:1104-1

> <Gold.Version>
5.8.1

> <Gold.Id.Protein>
6NUR|6NUR_protein|mol2

> <Gold.PLP.Fitness>
44.8083

> <Gold.PLP.PLP>
-39.7902

> <Gold.PLP.part.hbond>
-2.9961

> <Gold.PLP.part.metal>
0.0000

> <Gold.PLP.part.buried>
0.1517

> <Gold.PLP.part.nonpolar>
-38.1270

> <Gold.PLP.part.repulsive>
0.5679

> <Gold.PLP.ligand.clash>
0.0000

> <Gold.PLP.ligand.torsion>
0.4911

> <Gold.PLP.Chemscore.Hbond>
1.8882

> <Gold.PLP.Chemscore.CHOScore>
0.0000

> <Gold.PLP.Chemscore.Metal>
0.0000

> <Gold.Chemscore.Hbonds>
donor molecule, donor type, donor heavy atom, donor atom, acceptor molecule, acceptor atom, score
      L1  H     7    31       P1  7948  0.36
      L1  H    10    32       P1  7948  0.70

> <Gold.PLP.Chemscore.Internal.Correction>
0.3358

> <Gold.Rescore>
     Score         DG    S(hbond)    S(metal)    S(lipo)     H(rot)  DE(clash)    DE(int)     intcor
     14.42     -17.36       1.75        0.00      85.51       1.56       0.60       2.33       ----

> <Gold.Chemscore.Fitness>
14.4196

> <Gold.Chemscore.DG>
-17.3559

> <Gold.Chemscore.ZeroCoef>
-5.4800

> <Gold.Chemscore.Hbond>
1.7524

> <Gold.Chemscore.Metal>
0.0000

> <Gold.Chemscore.Lipo>
85.5131

> <Gold.Chemscore.Internal_Hbond>
0.0000

> <Gold.Chemscore.DEClash>
0.6020

> <Gold.Chemscore.DEInternal>
2.3343

> <Gold.Chemscore.Rot>
1.5555

> <Gold.Chemscore.Internal.Correction>
   9.000000E+99

> <Gold.Chemscore.Hbonds>
donor molecule, donor type, donor heavy atom, donor atom, acceptor molecule, acceptor atom, score
      L1  H     7    31       P1  7948  0.35
      L1  H    10    32       P1  7948  0.61

> <Gold.Chemscore.Hbond.Weighted>
-5.8530

> <Gold.Chemscore.Metal.Weighted>
-0.0000

> <Gold.Chemscore.Lipo.Weighted>
-10.0050

> <Gold.Chemscore.Internal_Hbond.Weighted>
0.0000

> <Gold.Chemscore.DEClash.Weighted>
0.6020

> <Gold.Chemscore.DEInternal.Weighted>
2.3343

> <Gold.Chemscore.Rot.Weighted>
3.9821

> <Gold.Chemscore.Internal.Correction.Weighted>
   9.000000E+99

> <Gold.Protein.RotatedTorsions>
[ 6907 6896 6895 6894 ] final  161.87 input  -60.11 | X-H torsion
[ 7974 7965 7964 7962 ] final  -80.02 input  175.53 | X-H torsion
[ 8008 7997 7996 7995 ] final -124.45 input   59.86 | X-H torsion
[ 10167 10162 10161 10158 ] final -127.80 input  -65.29 | X-H torsion
[ 10718 10713 10712 10709 ] final -112.92 input   66.30 | X-H torsion
[ 10763 10752 10751 10750 ] final   81.56 input  -60.55 | X-H torsion
[ 11005 11000 10999 10996 ] final  143.19 input  -57.11 | X-H torsion

> <Gold.Protein.ActiveResidues>
 VAL166  LYS551  ARG553  GLY616  TRP617  ASP618  TYR619  PRO620  LYS621  CYS622 
 ASP623  PHE694  ASN695  SER759  ASP760  ASP761  ALA762  ILE779  LEU786  VAL792 
 PHE793  MET794  SER795  GLU796  ALA797  LYS798  CYS799  TRP800  GLU811  SER814 

> <Gold.Protein.RotatedAtoms>
  151.9490  133.3660  159.3992 H   0  0  0  0  0  0  0  0  0  0  0  0  # atno 6907 bound_to 6896
  150.6984  134.4360  159.5279 H   0  0  0  0  0  0  0  0  0  0  0  0  # atno 6908 bound_to 6896
  152.2030  134.8571  160.0556 H   0  0  0  0  0  0  0  0  0  0  0  0  # atno 6909 bound_to 6896
  145.5655  140.9475  143.1424 H   0  0  0  0  0  0  0  0  0  0  0  0  # atno 7974 bound_to 7965
  155.1971  140.0415  157.2911 H   0  0  0  0  0  0  0  0  0  0  0  0  # atno 8008 bound_to 7997
  154.6099  140.2474  155.7654 H   0  0  0  0  0  0  0  0  0  0  0  0  # atno 8009 bound_to 7997
  156.2373  140.2917  156.0356 H   0  0  0  0  0  0  0  0  0  0  0  0  # atno 8010 bound_to 7997
  139.9570  143.5992  152.2457 H   0  0  0  0  0  0  0  0  0  0  0  0  # atno 10167 bound_to 10162
  156.0735  130.5946  150.8574 H   0  0  0  0  0  0  0  0  0  0  0  0  # atno 10718 bound_to 10713
  153.1127  135.4761  154.9063 H   0  0  0  0  0  0  0  0  0  0  0  0  # atno 10763 bound_to 10752
  154.7497  135.3103  154.8582 H   0  0  0  0  0  0  0  0  0  0  0  0  # atno 10764 bound_to 10752
  153.9167  135.6859  153.4802 H   0  0  0  0  0  0  0  0  0  0  0  0  # atno 10765 bound_to 10752
  140.0535  134.9243  157.1059 H   0  0  0  0  0  0  0  0  0  0  0  0  # atno 11005 bound_to 11000
  144.7462  139.7313  143.7291 LP  0  0  0  0  0  0  0  0  0  0  0  0  # atno 17320 bound_to 7965
  146.1821  139.5019  142.9860 LP  0  0  0  0  0  0  0  0  0  0  0  0  # atno 17321 bound_to 7965
  139.6583  144.7662  151.2012 LP  0  0  0  0  0  0  0  0  0  0  0  0  # atno 17342 bound_to 10162
  140.7565  143.6050  150.8662 LP  0  0  0  0  0  0  0  0  0  0  0  0  # atno 17343 bound_to 10162
  157.5818  131.0946  150.9258 LP  0  0  0  0  0  0  0  0  0  0  0  0  # atno 17370 bound_to 10713
  156.9452  130.5399  149.5281 LP  0  0  0  0  0  0  0  0  0  0  0  0  # atno 17371 bound_to 10713
  140.3880  134.2215  155.7167 LP  0  0  0  0  0  0  0  0  0  0  0  0  # atno 17394 bound_to 11000
  141.1941  133.8135  157.0770 LP  0  0  0  0  0  0  0  0  0  0  0  0  # atno 17395 bound_to 11000

$$$$
