AV-unprocessed.smi:648|AV-procd|sdf|3173|dock6
  -GOLD-   22720 0 93D 1   1.00000     0.00000
 Structure written by MMmdl.
 46 47  0  0  0  0  0  0  0  0  2 V2000
  142.1739  135.5823  153.7784 C   0  0  0  0  0  0  0  0  0  0  0  0
  143.6011  135.4512  153.2286 C   0  0  1  0  0  0  0  0  0  0  0  0
  143.6820  134.3724  152.1327 C   0  0  0  0  0  0  0  0  0  0  0  0
  145.1034  134.1872  151.5502 C   0  0  0  0  0  0  0  0  0  0  0  0
  146.0117  133.4373  152.5521 C   0  0  0  0  0  0  0  0  0  0  0  0
  145.0037  133.3017  150.2907 C   0  0  0  0  0  0  0  0  0  0  0  0
  145.6910  135.5672  151.1285 C   0  0  0  0  0  0  0  0  0  0  0  0
  145.5786  136.7227  152.1669 C   0  0  2  0  0  0  0  0  0  0  0  0
  145.9976  138.0665  151.5065 C   0  0  0  0  0  0  0  0  0  0  0  0
  147.3907  138.1652  151.2886 O   0  0  0  0  0  0  0  0  0  0  0  0
  146.5159  136.4252  153.2834 N   0  3  0  0  0  0  0  0  0  0  0  0
  146.6722  137.4246  154.3665 C   0  0  0  0  0  0  0  0  0  0  0  0
  147.9200  137.1218  155.2119 C   0  0  0  0  0  0  0  0  0  0  0  0
  148.8695  138.2209  155.1965 N   0  0  0  0  0  0  0  0  0  0  0  0
  149.5586  138.7606  154.1894 C   0  0  0  0  0  0  0  0  0  0  0  0
  150.3512  139.7571  154.5572 N   0  0  0  0  0  0  0  0  0  0  0  0
  150.0686  139.7943  155.8934 C   0  0  0  0  0  0  0  0  0  0  0  0
  149.1850  138.8954  156.3273 N   0  0  0  0  0  0  0  0  0  0  0  0
  144.1158  136.7960  152.6820 C   0  0  0  0  0  0  0  0  0  0  0  0
  141.4732  135.8868  153.0005 H   0  0  0  0  0  0  0  0  0  0  0  0
  142.1276  136.3231  154.5775 H   0  0  0  0  0  0  0  0  0  0  0  0
  141.8236  134.6351  154.1898 H   0  0  0  0  0  0  0  0  0  0  0  0
  144.2286  135.1488  154.0657 H   0  0  0  0  0  0  0  0  0  0  0  0
  143.3159  133.4212  152.5223 H   0  0  0  0  0  0  0  0  0  0  0  0
  142.9963  134.6467  151.3293 H   0  0  0  0  0  0  0  0  0  0  0  0
  147.0321  133.3562  152.1767 H   0  0  0  0  0  0  0  0  0  0  0  0
  145.6497  132.4227  152.7234 H   0  0  0  0  0  0  0  0  0  0  0  0
  146.0579  133.9111  153.5295 H   0  0  0  0  0  0  0  0  0  0  0  0
  145.9834  133.1400  149.8397 H   0  0  0  0  0  0  0  0  0  0  0  0
  144.3651  133.7522  149.5296 H   0  0  0  0  0  0  0  0  0  0  0  0
  144.5846  132.3221  150.5237 H   0  0  0  0  0  0  0  0  0  0  0  0
  146.7303  135.4473  150.8179 H   0  0  0  0  0  0  0  0  0  0  0  0
  145.1615  135.8717  150.2251 H   0  0  0  0  0  0  0  0  0  0  0  0
  145.5153  138.1957  150.5374 H   0  0  0  0  0  0  0  0  0  0  0  0
  145.6905  138.9087  152.1279 H   0  0  0  0  0  0  0  0  0  0  0  0
  147.8300  137.5392  151.8445 H   0  0  0  0  0  0  0  0  0  0  0  0
  146.1907  135.5683  153.7073 H   0  0  0  0  0  0  0  0  0  0  0  0
  146.7611  138.4165  153.9233 H   0  0  0  0  0  0  0  0  0  0  0  0
  145.8002  137.4522  155.0173 H   0  0  0  0  0  0  0  0  0  0  0  0
  147.6411  136.9107  156.2451 H   0  0  0  0  0  0  0  0  0  0  0  0
  148.4231  136.2315  154.8327 H   0  0  0  0  0  0  0  0  0  0  0  0
  149.4894  138.4110  153.1695 H   0  0  0  0  0  0  0  0  0  0  0  0
  150.5302  140.5017  156.5666 H   0  0  0  0  0  0  0  0  0  0  0  0
  143.4601  137.0994  151.8648 H   0  0  0  0  0  0  0  0  0  0  0  0
  143.9999  137.5726  153.4365 H   0  0  0  0  0  0  0  0  0  0  0  0
  147.4300  136.2511  152.8908 H   0  0  0  0  0  0  0  0  0  0  0  0
  1  2  1  0  0  0  0
  1 20  1  0  0  0  0
  1 21  1  0  0  0  0
  1 22  1  0  0  0  0
  2 19  1  0  0  0  0
  2  3  1  0  0  0  0
  2 23  1  0  0  0  0
  3  4  1  0  0  0  0
  3 24  1  0  0  0  0
  3 25  1  0  0  0  0
  4  5  1  0  0  0  0
  4  6  1  0  0  0  0
  4  7  1  0  0  0  0
  5 26  1  0  0  0  0
  5 27  1  0  0  0  0
  5 28  1  0  0  0  0
  6 29  1  0  0  0  0
  6 30  1  0  0  0  0
  6 31  1  0  0  0  0
  7  8  1  0  0  0  0
  7 32  1  0  0  0  0
  7 33  1  0  0  0  0
  8  9  1  0  0  0  0
  8 11  1  0  0  0  0
  8 19  1  0  0  0  0
  9 10  1  0  0  0  0
  9 34  1  0  0  0  0
  9 35  1  0  0  0  0
 10 36  1  0  0  0  0
 11 12  1  0  0  0  0
 11 37  1  0  0  0  0
 11 46  1  0  0  0  0
 12 13  1  0  0  0  0
 12 38  1  0  0  0  0
 12 39  1  0  0  0  0
 13 14  1  0  0  0  0
 13 40  1  0  0  0  0
 13 41  1  0  0  0  0
 14 18  1  0  0  0  0
 14 15  1  0  0  0  0
 15 16  2  0  0  0  0
 15 42  1  0  0  0  0
 16 17  1  0  0  0  0
 17 18  2  0  0  0  0
 17 43  1  0  0  0  0
 19 44  1  0  0  0  0
 19 45  1  0  0  0  0
M  CHG  1  11   1
M  END
> <s_m_source_file>
AV-unprocessed.smi

> <i_m_source_file_index>
648

> <i_lp_mmshare_version>
43012

> <i_f3d_flags>
0

> <s_epik_input>
W0NIM11DMShbQ0gzXSlbQ0gyXVtDQEBIXShbQ0gzXSlbQ0gyXVtDQF0oW0NIMl0xKShbQ0gyXVtPSF0pW05IXVtDSDJdW0NIMl1uMltjSF1uW2NIXW4y

> <s_epik_cmdline>
J2VwaWtfcHl0aG9uJywgJy1waCcsICc3LjAnLCAnLXRuJywgJzgnLCAnLW1hJywgJzIwMCcsICctbWV0YWxfYmluZGluZycsICctaW1hZScsICc8aW5maWxlLm1hZT4nLCAnLW9tYWUnLCAnPG91dGZpbGUubWFlPic=

> <r_lp_tautomer_probability>
1

> <r_epik_Ionization_Penalty>
0.00942316

> <r_epik_Ionization_Penalty_Charging>
0.00942185

> <r_epik_Ionization_Penalty_Neutral>
1.31257e-06

> <r_epik_State_Penalty>
0.00715409

> <r_epik_Charging_Adjusted_Penalty>
0.0165759

> <i_epik_Tot_Q>
1

> <i_epik_Tot_abs_Q>
1

> <r_epik_Metal_State_Penalty>
0.00715563

> <b_epik_Metal_Only>
0

> <s_lp_Force_Field>
OPLS_2005

> <r_lp_Energy>
29.0097

> <b_lp_Chiralities_Consistent>
1

> <s_lp_Variant>
AV-unprocessed.smi:648-4

> <Gold.Version>
5.8.1

> <Gold.Id.Protein>
6NUR|6NUR_protein|mol2

> <Gold.PLP.Fitness>
49.1720

> <Gold.PLP.PLP>
-30.3220

> <Gold.PLP.part.hbond>
-4.8756

> <Gold.PLP.part.metal>
0.0000

> <Gold.PLP.part.buried>
-1.7444

> <Gold.PLP.part.nonpolar>
-23.8980

> <Gold.PLP.part.repulsive>
0.1101

> <Gold.PLP.ligand.clash>
0.0000

> <Gold.PLP.ligand.torsion>
0.5931

> <Gold.PLP.Chemscore.Hbond>
4.8640

> <Gold.PLP.Chemscore.CHOScore>
1.8058

> <Gold.PLP.Chemscore.Metal>
0.0000

> <Gold.Chemscore.Hbonds>
donor molecule, donor type, donor heavy atom, donor atom, acceptor molecule, acceptor atom, score
      L1  H    10    36       P1  7948  0.85
      L1  H    11    46       P1  7948  2.00
      P1  H  7954  7966       L1    10  0.95
      P1  H  7989  7998       L1    16  1.00
      L1  C    15    42       P1  7948  0.93
      L1  C    15    42       P1  7957  0.76

> <Gold.PLP.Chemscore.Internal.Correction>
0.0268

> <Gold.Rescore>
     Score         DG    S(hbond)    S(metal)    S(lipo)     H(rot)  DE(clash)    DE(int)     intcor
     13.47     -15.42       3.31        0.00      59.92       3.17       1.23       0.71       ----

> <Gold.Chemscore.Fitness>
13.4742

> <Gold.Chemscore.DG>
-15.4164

> <Gold.Chemscore.ZeroCoef>
-5.4800

> <Gold.Chemscore.Hbond>
3.3096

> <Gold.Chemscore.Metal>
0.0000

> <Gold.Chemscore.Lipo>
59.9165

> <Gold.Chemscore.Internal_Hbond>
0.0000

> <Gold.Chemscore.DEClash>
1.2329

> <Gold.Chemscore.DEInternal>
0.7093

> <Gold.Chemscore.Rot>
3.1750

> <Gold.Chemscore.Internal.Correction>
   9.000000E+99

> <Gold.Chemscore.Hbonds>
donor molecule, donor type, donor heavy atom, donor atom, acceptor molecule, acceptor atom, score
      L1  H    10    36       P1  7948  0.83
      L1  H    11    46       P1  7948  1.00
      P1  H  7954  7966       L1    10  0.21
      P1  H  7989  7998       L1    16  0.97

> <Gold.Chemscore.Hbond.Weighted>
-11.0541

> <Gold.Chemscore.Metal.Weighted>
-0.0000

> <Gold.Chemscore.Lipo.Weighted>
-7.0102

> <Gold.Chemscore.Internal_Hbond.Weighted>
0.0000

> <Gold.Chemscore.DEClash.Weighted>
1.2329

> <Gold.Chemscore.DEInternal.Weighted>
0.7093

> <Gold.Chemscore.Rot.Weighted>
8.1279

> <Gold.Chemscore.Internal.Correction.Weighted>
   9.000000E+99

> <Gold.Protein.RotatedTorsions>
[ 6907 6896 6895 6894 ] final  146.53 input  -60.11 | X-H torsion
[ 7974 7965 7964 7962 ] final  -34.75 input  175.53 | X-H torsion
[ 8008 7997 7996 7995 ] final  -12.74 input   59.86 | X-H torsion
[ 10167 10162 10161 10158 ] final  -44.62 input  -65.29 | X-H torsion
[ 10718 10713 10712 10709 ] final   -0.20 input   66.30 | X-H torsion
[ 10763 10752 10751 10750 ] final -146.62 input  -60.55 | X-H torsion
[ 11005 11000 10999 10996 ] final -139.09 input  -57.11 | X-H torsion

> <Gold.Protein.ActiveResidues>
 VAL166  LYS551  ARG553  GLY616  TRP617  ASP618  TYR619  PRO620  LYS621  CYS622 
 ASP623  PHE694  ASN695  SER759  ASP760  ASP761  ALA762  ILE779  LEU786  VAL792 
 PHE793  MET794  SER795  GLU796  ALA797  LYS798  CYS799  TRP800  GLU811  SER814 

> <Gold.Protein.RotatedAtoms>
  152.1667  133.4617  159.4888 H   0  0  0  0  0  0  0  0  0  0  0  0  # atno 6907 bound_to 6896
  150.6914  134.2004  159.4329 H   0  0  0  0  0  0  0  0  0  0  0  0  # atno 6908 bound_to 6896
  151.9909  134.9979  160.0612 H   0  0  0  0  0  0  0  0  0  0  0  0  # atno 6909 bound_to 6896
  146.0804  140.6076  142.8911 H   0  0  0  0  0  0  0  0  0  0  0  0  # atno 7974 bound_to 7965
  154.5351  140.2268  155.8736 H   0  0  0  0  0  0  0  0  0  0  0  0  # atno 8008 bound_to 7997
  156.1803  140.3101  155.9100 H   0  0  0  0  0  0  0  0  0  0  0  0  # atno 8009 bound_to 7997
  155.3371  140.0448  157.3034 H   0  0  0  0  0  0  0  0  0  0  0  0  # atno 8010 bound_to 7997
  140.6890  143.2921  151.3522 H   0  0  0  0  0  0  0  0  0  0  0  0  # atno 10167 bound_to 10162
  156.8239  130.5465  149.5694 H   0  0  0  0  0  0  0  0  0  0  0  0  # atno 10718 bound_to 10713
  154.8327  135.3381  154.6690 H   0  0  0  0  0  0  0  0  0  0  0  0  # atno 10763 bound_to 10752
  153.7308  135.6952  153.4994 H   0  0  0  0  0  0  0  0  0  0  0  0  # atno 10764 bound_to 10752
  153.2313  135.4415  155.0551 H   0  0  0  0  0  0  0  0  0  0  0  0  # atno 10765 bound_to 10752
  140.8553  134.2235  157.4738 H   0  0  0  0  0  0  0  0  0  0  0  0  # atno 11005 bound_to 11000
  144.7289  140.4611  143.6952 LP  0  0  0  0  0  0  0  0  0  0  0  0  # atno 17320 bound_to 7965
  145.6229  139.1526  143.3012 LP  0  0  0  0  0  0  0  0  0  0  0  0  # atno 17321 bound_to 7965
  139.6274  144.0788  152.2446 LP  0  0  0  0  0  0  0  0  0  0  0  0  # atno 17342 bound_to 10162
  140.0252  144.6123  150.7534 LP  0  0  0  0  0  0  0  0  0  0  0  0  # atno 17343 bound_to 10162
  156.0973  130.5942  150.9835 LP  0  0  0  0  0  0  0  0  0  0  0  0  # atno 17370 bound_to 10713
  157.6442  131.0906  150.8187 LP  0  0  0  0  0  0  0  0  0  0  0  0  # atno 17371 bound_to 10713
  139.8705  134.9703  156.4697 LP  0  0  0  0  0  0  0  0  0  0  0  0  # atno 17394 bound_to 11000
  140.8744  133.7964  155.9399 LP  0  0  0  0  0  0  0  0  0  0  0  0  # atno 17395 bound_to 11000

$$$$
