AV-unprocessed.smi:763|AV-procd|sdf|3637|dock4
  -GOLD-   22720 1 33D 1   1.00000     0.00000
 Structure written by MMmdl.
 44 45  0  0  0  0  0  0  0  0  1 V2000
  144.7556  137.9654  160.4530 C   0  0  0  0  0  0  0  0  0  0  0  0
  146.0023  137.4689  159.9922 O   0  0  0  0  0  0  0  0  0  0  0  0
  145.9701  136.9671  158.6633 C   0  0  0  0  0  0  0  0  0  0  0  0
  145.9020  138.0947  157.6230 C   0  0  0  0  0  0  0  0  0  0  0  0
  147.2258  138.5488  157.3598 O   0  0  0  0  0  0  0  0  0  0  0  0
  147.4362  139.3949  156.2878 C   0  0  0  0  0  0  0  0  0  0  0  0
  146.3904  139.6829  155.4726 N   0  0  0  0  0  0  0  0  0  0  0  0
  146.5989  140.5156  154.4313 C   0  0  0  0  0  0  0  0  0  0  0  0
  147.8475  141.1010  154.1494 C   0  0  0  0  0  0  0  0  0  0  0  0
  148.9327  140.8012  154.9936 C   0  0  0  0  0  0  0  0  0  0  0  0
  148.7286  139.9294  156.0853 C   0  0  0  0  0  0  0  0  0  0  0  0
  149.7652  139.5901  156.9596 N   0  0  0  0  0  0  0  0  0  0  0  0
  151.4197  140.1068  156.9265 S   0  0  0  0  0  0  0  0  0  0  0  0
  152.1926  139.0104  157.5299 O   0  0  0  0  0  0  0  0  0  0  0  0
  151.6684  140.5378  155.5421 O   0  0  0  0  0  0  0  0  0  0  0  0
  151.4105  141.5855  158.0505 C   0  0  1  0  0  0  0  0  0  0  0  0
  152.5173  141.4365  159.1153 C   0  0  0  0  0  0  0  0  0  0  0  0
  152.5780  142.6512  160.0533 C   0  0  0  0  0  0  0  0  0  0  0  0
  152.7531  143.9533  159.2593 C   0  0  0  0  0  0  0  0  0  0  0  0
  151.6242  144.1237  158.2332 C   0  0  0  0  0  0  0  0  0  0  0  0
  151.5438  142.9204  157.2754 C   0  0  2  0  0  0  0  0  0  0  0  0
  150.4351  143.1262  156.4243 O   0  0  0  0  0  0  0  0  0  0  0  0
  144.8792  138.3838  161.4518 H   0  0  0  0  0  0  0  0  0  0  0  0
  144.0045  137.1781  160.5164 H   0  0  0  0  0  0  0  0  0  0  0  0
  144.3806  138.7573  159.8037 H   0  0  0  0  0  0  0  0  0  0  0  0
  146.8157  136.3045  158.4722 H   0  0  0  0  0  0  0  0  0  0  0  0
  145.0723  136.3542  158.5771 H   0  0  0  0  0  0  0  0  0  0  0  0
  145.4523  137.7169  156.7033 H   0  0  0  0  0  0  0  0  0  0  0  0
  145.2847  138.9146  157.9927 H   0  0  0  0  0  0  0  0  0  0  0  0
  145.7442  140.7222  153.8043 H   0  0  0  0  0  0  0  0  0  0  0  0
  147.9702  141.7636  153.3054 H   0  0  0  0  0  0  0  0  0  0  0  0
  149.9001  141.2383  154.7966 H   0  0  0  0  0  0  0  0  0  0  0  0
  149.5035  138.9748  157.7160 H   0  0  0  0  0  0  0  0  0  0  0  0
  150.4482  141.5726  158.5638 H   0  0  0  0  0  0  0  0  0  0  0  0
  152.3535  140.5323  159.7022 H   0  0  0  0  0  0  0  0  0  0  0  0
  153.4853  141.3145  158.6280 H   0  0  0  0  0  0  0  0  0  0  0  0
  151.6641  142.7024  160.6466 H   0  0  0  0  0  0  0  0  0  0  0  0
  153.3999  142.5335  160.7599 H   0  0  0  0  0  0  0  0  0  0  0  0
  152.7681  144.8051  159.9399 H   0  0  0  0  0  0  0  0  0  0  0  0
  153.7167  143.9471  158.7480 H   0  0  0  0  0  0  0  0  0  0  0  0
  150.6762  144.2412  158.7606 H   0  0  0  0  0  0  0  0  0  0  0  0
  151.7780  145.0433  157.6671 H   0  0  0  0  0  0  0  0  0  0  0  0
  152.4433  142.9006  156.6594 H   0  0  0  0  0  0  0  0  0  0  0  0
  150.0714  143.9803  156.6011 H   0  0  0  0  0  0  0  0  0  0  0  0
  1  2  1  0  0  0  0
  1 23  1  0  0  0  0
  1 24  1  0  0  0  0
  1 25  1  0  0  0  0
  2  3  1  0  0  0  0
  3  4  1  0  0  0  0
  3 26  1  0  0  0  0
  3 27  1  0  0  0  0
  4  5  1  0  0  0  0
  4 28  1  0  0  0  0
  4 29  1  0  0  0  0
  5  6  1  0  0  0  0
  6 11  1  0  0  0  0
  6  7  2  0  0  0  0
  7  8  1  0  0  0  0
  8  9  2  0  0  0  0
  8 30  1  0  0  0  0
  9 10  1  0  0  0  0
  9 31  1  0  0  0  0
 10 11  2  0  0  0  0
 10 32  1  0  0  0  0
 11 12  1  0  0  0  0
 12 13  1  0  0  0  0
 12 33  1  0  0  0  0
 13 14  2  0  0  0  0
 13 15  2  0  0  0  0
 13 16  1  0  0  0  0
 16 21  1  0  0  0  0
 16 17  1  0  0  0  0
 16 34  1  0  0  0  0
 17 18  1  0  0  0  0
 17 35  1  0  0  0  0
 17 36  1  0  0  0  0
 18 19  1  0  0  0  0
 18 37  1  0  0  0  0
 18 38  1  0  0  0  0
 19 20  1  0  0  0  0
 19 39  1  0  0  0  0
 19 40  1  0  0  0  0
 20 21  1  0  0  0  0
 20 41  1  0  0  0  0
 20 42  1  0  0  0  0
 21 22  1  0  0  0  0
 21 43  1  0  0  0  0
 22 44  1  0  0  0  0
M  END
> <s_m_source_file>
AV-unprocessed.smi

> <i_m_source_file_index>
763

> <i_lp_mmshare_version>
43012

> <i_f3d_flags>
0

> <s_epik_input>
W0NIM11PW0NIMl1bQ0gyXU9jMW5bY0hdW2NIXVtjSF1jMVtOSF1TKD1PKSg9TylbQ0BASF0yW0NIMl1bQ0gyXVtDSDJdW0NIMl1bQ0BIXTJbT0hd

> <s_epik_cmdline>
J2VwaWtfcHl0aG9uJywgJy1waCcsICc3LjAnLCAnLXRuJywgJzgnLCAnLW1hJywgJzIwMCcsICctbWV0YWxfYmluZGluZycsICctaW1hZScsICc8aW5maWxlLm1hZT4nLCAnLW9tYWUnLCAnPG91dGZpbGUubWFlPic=

> <r_epik_Ionization_Penalty>
0.124685

> <r_epik_Ionization_Penalty_Charging>
0

> <r_epik_Ionization_Penalty_Neutral>
0.124685

> <r_epik_State_Penalty>
0.114154

> <r_epik_Charging_Adjusted_Penalty>
0.114154

> <i_epik_Tot_Q>
0

> <i_epik_Tot_abs_Q>
0

> <r_epik_Metal_State_Penalty>
0.443785

> <b_epik_Metal_Only>
0

> <s_lp_Force_Field>
OPLS_2005

> <r_lp_Energy>
9.80168

> <b_lp_Chiralities_Consistent>
1

> <s_lp_Variant>
AV-unprocessed.smi:763-4

> <Gold.Version>
5.8.1

> <Gold.Id.Protein>
6NUR|6NUR_protein|mol2

> <Gold.PLP.Fitness>
40.5139

> <Gold.PLP.PLP>
-31.1309

> <Gold.PLP.part.hbond>
-2.1386

> <Gold.PLP.part.metal>
0.0000

> <Gold.PLP.part.buried>
-4.7034

> <Gold.PLP.part.nonpolar>
-24.2565

> <Gold.PLP.part.repulsive>
0.0723

> <Gold.PLP.ligand.clash>
0.0000

> <Gold.PLP.ligand.torsion>
1.1173

> <Gold.PLP.Chemscore.Hbond>
2.4240

> <Gold.PLP.Chemscore.CHOScore>
1.0000

> <Gold.PLP.Chemscore.Metal>
0.0000

> <Gold.Chemscore.Hbonds>
donor molecule, donor type, donor heavy atom, donor atom, acceptor molecule, acceptor atom, score
      L1  H    22    44       P1  8028  0.51
      P1  H  6934  6947       L1     2  0.50
      P1  H  7989  7998       L1    15  0.70
      L1  C     8    30       P1 10175  1.00

> <Gold.PLP.Chemscore.Internal.Correction>
1.3457

> <Gold.Rescore>
     Score         DG    S(hbond)    S(metal)    S(lipo)     H(rot)  DE(clash)    DE(int)     intcor
     14.21     -18.25       2.48        0.00      90.93       2.41       1.38       2.65       ----

> <Gold.Chemscore.Fitness>
14.2073

> <Gold.Chemscore.DG>
-18.2451

> <Gold.Chemscore.ZeroCoef>
-5.4800

> <Gold.Chemscore.Hbond>
2.4801

> <Gold.Chemscore.Metal>
0.0000

> <Gold.Chemscore.Lipo>
90.9310

> <Gold.Chemscore.Internal_Hbond>
0.0000

> <Gold.Chemscore.DEClash>
1.3842

> <Gold.Chemscore.DEInternal>
2.6536

> <Gold.Chemscore.Rot>
2.4052

> <Gold.Chemscore.Internal.Correction>
   9.000000E+99

> <Gold.Chemscore.Hbonds>
donor molecule, donor type, donor heavy atom, donor atom, acceptor molecule, acceptor atom, score
      L1  H    22    44       P1  8028  0.52
      P1  H  6934  6947       L1     2  0.05
      P1  H  7989  7998       L1    15  0.65

> <Gold.Chemscore.Hbond.Weighted>
-8.2836

> <Gold.Chemscore.Metal.Weighted>
-0.0000

> <Gold.Chemscore.Lipo.Weighted>
-10.6389

> <Gold.Chemscore.Internal_Hbond.Weighted>
0.0000

> <Gold.Chemscore.DEClash.Weighted>
1.3842

> <Gold.Chemscore.DEInternal.Weighted>
2.6536

> <Gold.Chemscore.Rot.Weighted>
6.1574

> <Gold.Chemscore.Internal.Correction.Weighted>
   9.000000E+99

> <Gold.Protein.RotatedTorsions>
[ 6907 6896 6895 6894 ] final  114.66 input  -60.11 | X-H torsion
[ 7974 7965 7964 7962 ] final -124.15 input  175.53 | X-H torsion
[ 8008 7997 7996 7995 ] final  -20.93 input   59.86 | X-H torsion
[ 10167 10162 10161 10158 ] final  -24.43 input  -65.29 | X-H torsion
[ 10718 10713 10712 10709 ] final  -23.23 input   66.30 | X-H torsion
[ 10763 10752 10751 10750 ] final   30.11 input  -60.55 | X-H torsion
[ 11005 11000 10999 10996 ] final  -48.61 input  -57.11 | X-H torsion

> <Gold.Protein.ActiveResidues>
 VAL166  LYS551  ARG553  GLY616  TRP617  ASP618  TYR619  PRO620  LYS621  CYS622 
 ASP623  PHE694  ASN695  SER759  ASP760  ASP761  ALA762  ILE779  LEU786  VAL792 
 PHE793  MET794  SER795  GLU796  ALA797  LYS798  CYS799  TRP800  GLU811  SER814 

> <Gold.Protein.RotatedAtoms>
  152.4789  133.8205  159.7050 H   0  0  0  0  0  0  0  0  0  0  0  0  # atno 6907 bound_to 6896
  150.8824  133.7344  159.2934 H   0  0  0  0  0  0  0  0  0  0  0  0  # atno 6908 bound_to 6896
  151.4843  135.1057  159.9838 H   0  0  0  0  0  0  0  0  0  0  0  0  # atno 6909 bound_to 6896
  145.0111  140.7906  143.4438 H   0  0  0  0  0  0  0  0  0  0  0  0  # atno 7974 bound_to 7965
  154.4738  140.2048  155.9928 H   0  0  0  0  0  0  0  0  0  0  0  0  # atno 8008 bound_to 7997
  156.1055  140.3237  155.7971 H   0  0  0  0  0  0  0  0  0  0  0  0  # atno 8009 bound_to 7997
  155.4724  140.0532  157.2968 H   0  0  0  0  0  0  0  0  0  0  0  0  # atno 8010 bound_to 7997
  140.7288  143.4354  151.0738 H   0  0  0  0  0  0  0  0  0  0  0  0  # atno 10167 bound_to 10162
  156.4939  130.4572  149.6740 H   0  0  0  0  0  0  0  0  0  0  0  0  # atno 10718 bound_to 10713
  153.0391  135.6472  154.0994 H   0  0  0  0  0  0  0  0  0  0  0  0  # atno 10763 bound_to 10752
  154.0703  135.2881  155.3311 H   0  0  0  0  0  0  0  0  0  0  0  0  # atno 10764 bound_to 10752
  154.6598  135.5395  153.8069 H   0  0  0  0  0  0  0  0  0  0  0  0  # atno 10765 bound_to 10752
  141.0711  133.6679  156.3466 H   0  0  0  0  0  0  0  0  0  0  0  0  # atno 11005 bound_to 11000
  145.2022  139.2246  143.5187 LP  0  0  0  0  0  0  0  0  0  0  0  0  # atno 17320 bound_to 7965
  146.3470  140.1842  142.8589 LP  0  0  0  0  0  0  0  0  0  0  0  0  # atno 17321 bound_to 7965
  139.8015  143.8076  152.3163 LP  0  0  0  0  0  0  0  0  0  0  0  0  # atno 17342 bound_to 10162
  139.8095  144.7341  150.9716 LP  0  0  0  0  0  0  0  0  0  0  0  0  # atno 17343 bound_to 10162
  156.3399  130.7376  151.2320 LP  0  0  0  0  0  0  0  0  0  0  0  0  # atno 17370 bound_to 10713
  157.7471  131.0406  150.4607 LP  0  0  0  0  0  0  0  0  0  0  0  0  # atno 17371 bound_to 10713
  140.5671  134.5876  157.5448 LP  0  0  0  0  0  0  0  0  0  0  0  0  # atno 17394 bound_to 11000
  139.9524  134.7593  156.0417 LP  0  0  0  0  0  0  0  0  0  0  0  0  # atno 17395 bound_to 11000

$$$$
