AV-unprocessed.smi:285|AV-procd|sdf|2165|dock4
  -GOLD-   2262021523D 1   1.00000     0.00000
 Structure written by MMmdl.
 31 33  0  0  0  0  0  0  0  0  1 V2000
  152.5417  143.6949  161.4306 N   0  0  0  0  0  0  0  0  0  0  0  0
  152.2147  143.6758  160.1310 C   0  0  0  0  0  0  0  0  0  0  0  0
  152.1326  144.8552  159.4718 N   0  0  0  0  0  0  0  0  0  0  0  0
  151.8077  144.8644  158.1751 C   0  0  0  0  0  0  0  0  0  0  0  0
  151.5320  143.8308  157.3753 N   0  0  0  0  0  0  0  0  0  0  0  0
  151.6130  142.6408  158.0406 C   0  0  0  0  0  0  0  0  0  0  0  0
  151.9513  142.4799  159.4165 C   0  0  0  0  0  0  0  0  0  0  0  0
  151.9467  141.1334  159.7580 N   0  0  0  0  0  0  0  0  0  0  0  0
  151.6202  140.5540  158.6365 C   0  0  0  0  0  0  0  0  0  0  0  0
  151.4826  138.6569  158.5381 Br  0  0  0  0  0  0  0  0  0  0  0  0
  151.3937  141.3683  157.5498 N   0  0  0  0  0  0  0  0  0  0  0  0
  150.9996  140.9920  156.1570 C   0  0  2  0  0  0  0  0  0  0  0  0
  149.7359  141.7361  155.7251 C   0  0  0  0  0  0  0  0  0  0  0  0
  149.0762  140.7136  154.8240 C   0  0  1  0  0  0  0  0  0  0  0  0
  149.5976  140.7902  153.5099 O   0  0  0  0  0  0  0  0  0  0  0  0
  149.4419  139.3975  155.5293 C   0  0  1  0  0  0  0  0  0  0  0  0
  149.4533  138.1232  154.6679 C   0  0  0  0  0  0  0  0  0  0  0  0
  150.1911  138.3380  153.4834 O   0  0  0  0  0  0  0  0  0  0  0  0
  150.7197  139.6247  156.1216 O   0  0  0  0  0  0  0  0  0  0  0  0
  152.6095  142.8286  161.9453 H   0  0  0  0  0  0  0  0  0  0  0  0
  152.7147  144.5751  161.8938 H   0  0  0  0  0  0  0  0  0  0  0  0
  151.7616  145.8389  157.7118 H   0  0  0  0  0  0  0  0  0  0  0  0
  151.8629  141.2037  155.5271 H   0  0  0  0  0  0  0  0  0  0  0  0
  149.1044  141.9319  156.5929 H   0  0  0  0  0  0  0  0  0  0  0  0
  149.9752  142.6833  155.2402 H   0  0  0  0  0  0  0  0  0  0  0  0
  147.9964  140.8571  154.7730 H   0  0  0  0  0  0  0  0  0  0  0  0
  149.0827  140.2276  152.9515 H   0  0  0  0  0  0  0  0  0  0  0  0
  148.7467  139.2539  156.3581 H   0  0  0  0  0  0  0  0  0  0  0  0
  149.8665  137.2742  155.2124 H   0  0  0  0  0  0  0  0  0  0  0  0
  148.4333  137.8552  154.3915 H   0  0  0  0  0  0  0  0  0  0  0  0
  149.9527  137.6721  152.8565 H   0  0  0  0  0  0  0  0  0  0  0  0
  1  2  1  0  0  0  0
  1 20  1  0  0  0  0
  1 21  1  0  0  0  0
  2  7  1  0  0  0  0
  2  3  2  0  0  0  0
  3  4  1  0  0  0  0
  4  5  2  0  0  0  0
  4 22  1  0  0  0  0
  5  6  1  0  0  0  0
  6 11  1  0  0  0  0
  6  7  2  0  0  0  0
  7  8  1  0  0  0  0
  8  9  2  0  0  0  0
  9 10  1  0  0  0  0
  9 11  1  0  0  0  0
 11 12  1  0  0  0  0
 12 19  1  0  0  0  0
 12 13  1  0  0  0  0
 12 23  1  0  0  0  0
 13 14  1  0  0  0  0
 13 24  1  0  0  0  0
 13 25  1  0  0  0  0
 14 15  1  0  0  0  0
 14 16  1  0  0  0  0
 14 26  1  0  0  0  0
 15 27  1  0  0  0  0
 16 17  1  0  0  0  0
 16 19  1  0  0  0  0
 16 28  1  0  0  0  0
 17 18  1  0  0  0  0
 17 29  1  0  0  0  0
 17 30  1  0  0  0  0
 18 31  1  0  0  0  0
M  END
> <s_m_source_file>
AV-unprocessed.smi

> <i_m_source_file_index>
285

> <i_lp_mmshare_version>
43012

> <i_f3d_flags>
0

> <s_epik_input>
bjFbY0hdbmMoW05IMl0pYyhjMTIpbmMoQnIpbjJbQ0BASF0zW0NIMl1bQ0BASF0oW09IXSlbQ0BIXShPMylbQ0gyXVtPSF0=

> <s_epik_cmdline>
J2VwaWtfcHl0aG9uJywgJy1waCcsICc3LjAnLCAnLXRuJywgJzgnLCAnLW1hJywgJzIwMCcsICctbWV0YWxfYmluZGluZycsICctaW1hZScsICc8aW5maWxlLm1hZT4nLCAnLW9tYWUnLCAnPG91dGZpbGUubWFlPic=

> <r_lp_tautomer_probability>
1

> <r_epik_Ionization_Penalty>
0.000103242

> <r_epik_Ionization_Penalty_Charging>
0

> <r_epik_Ionization_Penalty_Neutral>
0.000103242

> <r_epik_State_Penalty>
-0

> <r_epik_Charging_Adjusted_Penalty>
0

> <i_epik_Tot_Q>
0

> <i_epik_Tot_abs_Q>
0

> <r_epik_Metal_State_Penalty>
-0

> <b_epik_Metal_Only>
0

> <s_epik_Chemistry_Notes>
This compound contains an acetal/aminal-like group ( X-CH(R)-Y where X, Y are N, S, or O) that may be acid/base labile, releasing an aldehyde.

> <s_lp_Force_Field>
OPLS_2005

> <r_lp_Energy>
33.7508

> <b_lp_Chiralities_Consistent>
1

> <s_lp_Variant>
AV-unprocessed.smi:285-1

> <Gold.Version>
5.8.1

> <Gold.Id.Protein>
6NUR|6NUR_protein|mol2

> <Gold.PLP.Fitness>
42.8181

> <Gold.PLP.PLP>
-34.9563

> <Gold.PLP.part.hbond>
-5.0978

> <Gold.PLP.part.metal>
0.0000

> <Gold.PLP.part.buried>
-5.5929

> <Gold.PLP.part.nonpolar>
-24.4370

> <Gold.PLP.part.repulsive>
0.2262

> <Gold.PLP.ligand.clash>
0.0000

> <Gold.PLP.ligand.torsion>
0.1507

> <Gold.PLP.Chemscore.Hbond>
2.7200

> <Gold.PLP.Chemscore.CHOScore>
0.0000

> <Gold.PLP.Chemscore.Metal>
0.0000

> <Gold.Chemscore.Hbonds>
donor molecule, donor type, donor heavy atom, donor atom, acceptor molecule, acceptor atom, score
      L1  H    15    27       P1  7957  0.37
      L1  H    18    31       P1  7948  0.95
      P1  H  7989  7998       L1    15  0.35
      P1  H  8011  8017       L1    15  1.00

> <Gold.PLP.Chemscore.Internal.Correction>
0.0032

> <Gold.Rescore>
     Score         DG    S(hbond)    S(metal)    S(lipo)     H(rot)  DE(clash)    DE(int)     intcor
      5.65      -7.39       1.71        0.00      34.42       3.06       0.05       1.69       ----

> <Gold.Chemscore.Fitness>
5.6495

> <Gold.Chemscore.DG>
-7.3921

> <Gold.Chemscore.ZeroCoef>
-5.4800

> <Gold.Chemscore.Hbond>
1.7126

> <Gold.Chemscore.Metal>
0.0000

> <Gold.Chemscore.Lipo>
34.4225

> <Gold.Chemscore.Internal_Hbond>
0.0000

> <Gold.Chemscore.DEClash>
0.0488

> <Gold.Chemscore.DEInternal>
1.6938

> <Gold.Chemscore.Rot>
3.0607

> <Gold.Chemscore.Internal.Correction>
   9.000000E+99

> <Gold.Chemscore.Hbonds>
donor molecule, donor type, donor heavy atom, donor atom, acceptor molecule, acceptor atom, score
      L1  H    15    27       P1  7957  0.36
      L1  H    18    31       P1  7948  0.21
      P1  H  7989  7998       L1    15  0.30
      P1  H  8011  8017       L1    15  0.28

> <Gold.Chemscore.Hbond.Weighted>
-5.7200

> <Gold.Chemscore.Metal.Weighted>
-0.0000

> <Gold.Chemscore.Lipo.Weighted>
-4.0274

> <Gold.Chemscore.Internal_Hbond.Weighted>
0.0000

> <Gold.Chemscore.DEClash.Weighted>
0.0488

> <Gold.Chemscore.DEInternal.Weighted>
1.6938

> <Gold.Chemscore.Rot.Weighted>
7.8354

> <Gold.Chemscore.Internal.Correction.Weighted>
   9.000000E+99

> <Gold.Protein.RotatedTorsions>
[ 6907 6896 6895 6894 ] final -160.15 input  -60.11 | X-H torsion
[ 7974 7965 7964 7962 ] final  124.72 input  175.53 | X-H torsion
[ 8008 7997 7996 7995 ] final  133.74 input   59.86 | X-H torsion
[ 10167 10162 10161 10158 ] final -140.16 input  -65.29 | X-H torsion
[ 10718 10713 10712 10709 ] final  157.17 input   66.30 | X-H torsion
[ 10763 10752 10751 10750 ] final  -29.67 input  -60.55 | X-H torsion
[ 11005 11000 10999 10996 ] final  131.73 input  -57.11 | X-H torsion

> <Gold.Protein.ActiveResidues>
 VAL166  LYS551  ARG553  GLY616  TRP617  ASP618  TYR619  PRO620  LYS621  CYS622 
 ASP623  PHE694  ASN695  SER759  ASP760  ASP761  ALA762  ILE779  LEU786  VAL792 
 PHE793  MET794  SER795  GLU796  ALA797  LYS798  CYS799  TRP800  GLU811  SER814 

> <Gold.Protein.RotatedAtoms>
  151.3446  133.3949  159.2674 H   0  0  0  0  0  0  0  0  0  0  0  0  # atno 6907 bound_to 6896
  150.9850  134.9198  159.7877 H   0  0  0  0  0  0  0  0  0  0  0  0  # atno 6908 bound_to 6896
  152.5229  134.3410  159.9269 H   0  0  0  0  0  0  0  0  0  0  0  0  # atno 6909 bound_to 6896
  145.0811  139.3656  143.4908 H   0  0  0  0  0  0  0  0  0  0  0  0  # atno 7974 bound_to 7965
  156.2994  140.2513  156.3303 H   0  0  0  0  0  0  0  0  0  0  0  0  # atno 8008 bound_to 7997
  154.9151  140.0402  157.1986 H   0  0  0  0  0  0  0  0  0  0  0  0  # atno 8009 bound_to 7997
  154.8366  140.2884  155.5691 H   0  0  0  0  0  0  0  0  0  0  0  0  # atno 8010 bound_to 7997
  139.8309  143.7448  152.2666 H   0  0  0  0  0  0  0  0  0  0  0  0  # atno 10167 bound_to 10162
  157.1950  131.0663  151.2057 H   0  0  0  0  0  0  0  0  0  0  0  0  # atno 10718 bound_to 10713
  153.7684  135.6914  153.4911 H   0  0  0  0  0  0  0  0  0  0  0  0  # atno 10763 bound_to 10752
  153.1891  135.4477  155.0125 H   0  0  0  0  0  0  0  0  0  0  0  0  # atno 10764 bound_to 10752
  154.8127  135.3385  154.7194 H   0  0  0  0  0  0  0  0  0  0  0  0  # atno 10765 bound_to 10752
  139.9748  134.9567  156.9480 H   0  0  0  0  0  0  0  0  0  0  0  0  # atno 11005 bound_to 11000
  146.3531  140.0602  142.8630 LP  0  0  0  0  0  0  0  0  0  0  0  0  # atno 17320 bound_to 7965
  145.1177  140.9443  143.4619 LP  0  0  0  0  0  0  0  0  0  0  0  0  # atno 17321 bound_to 7965
  139.7655  144.7493  151.0300 LP  0  0  0  0  0  0  0  0  0  0  0  0  # atno 17342 bound_to 10162
  140.7806  143.4703  151.0156 LP  0  0  0  0  0  0  0  0  0  0  0  0  # atno 17343 bound_to 10162
  157.3823  130.7238  149.6639 LP  0  0  0  0  0  0  0  0  0  0  0  0  # atno 17370 bound_to 10713
  155.9707  130.4169  150.4253 LP  0  0  0  0  0  0  0  0  0  0  0  0  # atno 17371 bound_to 10713
  140.5218  134.0899  155.7294 LP  0  0  0  0  0  0  0  0  0  0  0  0  # atno 17394 bound_to 11000
  141.1425  133.9112  157.2292 LP  0  0  0  0  0  0  0  0  0  0  0  0  # atno 17395 bound_to 11000

$$$$
