AV-unprocessed.smi:2057|AV-procd|sdf|8342|dock1
  -GOLD-   2272011 13D 1   1.00000     0.00000
 Structure written by MMmdl.
 45 47  0  0  0  0  0  0  0  0  2 V2000
  153.5557  137.9903  160.3132 C   0  0  0  0  0  0  0  0  0  0  0  0
  154.0007  139.3207  160.5350 O   0  0  0  0  0  0  0  0  0  0  0  0
  153.3532  140.3420  159.8732 C   0  0  0  0  0  0  0  0  0  0  0  0
  153.7124  141.6577  160.2185 C   0  0  0  0  0  0  0  0  0  0  0  0
  153.1104  142.7600  159.5855 C   0  0  0  0  0  0  0  0  0  0  0  0
  152.1219  142.5696  158.5885 C   0  0  0  0  0  0  0  0  0  0  0  0
  151.5095  143.6101  157.9188 O   0  0  0  0  0  0  0  0  0  0  0  0
  151.9488  144.9350  158.1798 C   0  0  0  0  0  0  0  0  0  0  0  0
  151.7416  141.2485  158.2478 C   0  0  0  0  0  0  0  0  0  0  0  0
  150.6822  141.0131  157.1750 C   0  0  2  0  0  0  0  0  0  0  0  0
  149.6992  140.0722  157.5645 O   0  0  0  0  0  0  0  0  0  0  0  0
  151.3314  140.5804  155.8460 C   0  0  0  0  0  0  0  0  0  0  0  0
  150.3770  139.9462  154.9242 N   0  0  0  0  0  0  0  0  0  0  0  0
  150.3855  138.6923  154.3886 C   0  0  0  0  0  0  0  0  0  0  0  0
  151.4129  137.6321  154.6310 C   0  0  0  0  0  0  0  0  0  0  0  0
  152.1367  137.2792  153.4706 O   0  0  0  0  0  0  0  0  0  0  0  0
  149.2798  138.5865  153.5972 N   0  3  0  0  0  0  0  0  0  0  0  0
  148.5609  139.7821  153.6246 C   0  0  0  0  0  0  0  0  0  0  0  0
  147.3816  140.1511  152.9850 C   0  0  0  0  0  0  0  0  0  0  0  0
  146.9137  141.4597  153.2259 C   0  0  0  0  0  0  0  0  0  0  0  0
  147.6121  142.3447  154.0727 C   0  0  0  0  0  0  0  0  0  0  0  0
  148.8061  141.9587  154.7165 C   0  0  0  0  0  0  0  0  0  0  0  0
  149.2611  140.6624  154.4748 C   0  0  0  0  0  0  0  0  0  0  0  0
  152.3638  140.1475  158.8798 C   0  0  0  0  0  0  0  0  0  0  0  0
  154.1648  137.3044  160.9019 H   0  0  0  0  0  0  0  0  0  0  0  0
  153.6583  137.7056  159.2652 H   0  0  0  0  0  0  0  0  0  0  0  0
  152.5184  137.8587  160.6241 H   0  0  0  0  0  0  0  0  0  0  0  0
  154.4648  141.8254  160.9752 H   0  0  0  0  0  0  0  0  0  0  0  0
  153.4308  143.7464  159.8838 H   0  0  0  0  0  0  0  0  0  0  0  0
  151.3811  145.6295  157.5607 H   0  0  0  0  0  0  0  0  0  0  0  0
  153.0039  145.0618  157.9335 H   0  0  0  0  0  0  0  0  0  0  0  0
  151.7839  145.2115  159.2222 H   0  0  0  0  0  0  0  0  0  0  0  0
  150.1391  141.9448  157.0158 H   0  0  0  0  0  0  0  0  0  0  0  0
  149.1813  140.4521  158.2579 H   0  0  0  0  0  0  0  0  0  0  0  0
  151.7361  141.4527  155.3311 H   0  0  0  0  0  0  0  0  0  0  0  0
  152.1763  139.9124  156.0144 H   0  0  0  0  0  0  0  0  0  0  0  0
  152.1145  137.9773  155.3909 H   0  0  0  0  0  0  0  0  0  0  0  0
  150.9204  136.7429  155.0253 H   0  0  0  0  0  0  0  0  0  0  0  0
  151.5203  137.0532  152.7903 H   0  0  0  0  0  0  0  0  0  0  0  0
  146.8461  139.4754  152.3344 H   0  0  0  0  0  0  0  0  0  0  0  0
  146.0022  141.7919  152.7503 H   0  0  0  0  0  0  0  0  0  0  0  0
  147.2253  143.3409  154.2312 H   0  0  0  0  0  0  0  0  0  0  0  0
  149.3360  142.6472  155.3577 H   0  0  0  0  0  0  0  0  0  0  0  0
  152.0715  139.1513  158.5856 H   0  0  0  0  0  0  0  0  0  0  0  0
  149.0416  137.7523  153.0763 H   0  0  0  0  0  0  0  0  0  0  0  0
  1  2  1  0  0  0  0
  1 25  1  0  0  0  0
  1 26  1  0  0  0  0
  1 27  1  0  0  0  0
  2  3  1  0  0  0  0
  3 24  1  0  0  0  0
  3  4  2  0  0  0  0
  4  5  1  0  0  0  0
  4 28  1  0  0  0  0
  5  6  2  0  0  0  0
  5 29  1  0  0  0  0
  6  7  1  0  0  0  0
  6  9  1  0  0  0  0
  7  8  1  0  0  0  0
  8 30  1  0  0  0  0
  8 31  1  0  0  0  0
  8 32  1  0  0  0  0
  9 10  1  0  0  0  0
  9 24  2  0  0  0  0
 10 11  1  0  0  0  0
 10 12  1  0  0  0  0
 10 33  1  0  0  0  0
 11 34  1  0  0  0  0
 12 13  1  0  0  0  0
 12 35  1  0  0  0  0
 12 36  1  0  0  0  0
 13 23  1  0  0  0  0
 13 14  1  0  0  0  0
 14 15  1  0  0  0  0
 14 17  2  0  0  0  0
 15 16  1  0  0  0  0
 15 37  1  0  0  0  0
 15 38  1  0  0  0  0
 16 39  1  0  0  0  0
 17 18  1  0  0  0  0
 17 45  1  0  0  0  0
 18 23  2  0  0  0  0
 18 19  1  0  0  0  0
 19 20  2  0  0  0  0
 19 40  1  0  0  0  0
 20 21  1  0  0  0  0
 20 41  1  0  0  0  0
 21 22  2  0  0  0  0
 21 42  1  0  0  0  0
 22 23  1  0  0  0  0
 22 43  1  0  0  0  0
 24 44  1  0  0  0  0
M  CHG  1  17   1
M  END
> <s_m_source_file>
AV-unprocessed.smi

> <i_m_source_file_index>
2057

> <i_lp_mmshare_version>
43012

> <i_f3d_flags>
0

> <s_epik_input>
W0NIM11PYzFbY0hdW2NIXWMoT1tDSDNdKWMoW2NIXTEpW0NASF0oW09IXSlbQ0gyXW4oYyhuMilbQ0gyXVtPSF0pYyhjMjMpW2NIXVtjSF1bY0hdW2NIXTM=

> <s_epik_cmdline>
J2VwaWtfcHl0aG9uJywgJy1waCcsICc3LjAnLCAnLXRuJywgJzgnLCAnLW1hJywgJzIwMCcsICctbWV0YWxfYmluZGluZycsICctaW1hZScsICc8aW5maWxlLm1hZT4nLCAnLW9tYWUnLCAnPG91dGZpbGUubWFlPic=

> <r_lp_tautomer_probability>
1

> <r_epik_Ionization_Penalty>
1.35643

> <r_epik_Ionization_Penalty_Charging>
1.35557

> <r_epik_Ionization_Penalty_Neutral>
0.000857128

> <r_epik_State_Penalty>
1.43401

> <r_epik_Charging_Adjusted_Penalty>
2.78958

> <i_epik_Tot_Q>
1

> <i_epik_Tot_abs_Q>
1

> <r_epik_Metal_State_Penalty>
5.47166

> <b_epik_Metal_Only>
0

> <s_lp_Force_Field>
OPLS_2005

> <r_lp_Energy>
20.8096

> <b_lp_Chiralities_Consistent>
1

> <s_lp_Variant>
AV-unprocessed.smi:2057-3

> <Gold.Version>
5.8.1

> <Gold.Id.Protein>
6NUR|6NUR_protein|mol2

> <Gold.PLP.Fitness>
63.1829

> <Gold.PLP.PLP>
-52.2835

> <Gold.PLP.part.hbond>
-3.9316

> <Gold.PLP.part.metal>
0.0000

> <Gold.PLP.part.buried>
-0.6558

> <Gold.PLP.part.nonpolar>
-46.9830

> <Gold.PLP.part.repulsive>
0.1631

> <Gold.PLP.ligand.clash>
0.0000

> <Gold.PLP.ligand.torsion>
0.6415

> <Gold.PLP.Chemscore.Hbond>
4.0000

> <Gold.PLP.Chemscore.CHOScore>
0.0000

> <Gold.PLP.Chemscore.Metal>
0.0000

> <Gold.Chemscore.Hbonds>
donor molecule, donor type, donor heavy atom, donor atom, acceptor molecule, acceptor atom, score
      L1  H    16    39       P1  7949  0.91
      L1  H    17    45       P1  7948  2.00
      P1  H 10752 10764       L1    16  1.00

> <Gold.PLP.Chemscore.Internal.Correction>
0.1824

> <Gold.Rescore>
     Score         DG    S(hbond)    S(metal)    S(lipo)     H(rot)  DE(clash)    DE(int)     intcor
     20.24     -20.95       2.54        0.00     130.98       3.25       0.06       0.65       ----

> <Gold.Chemscore.Fitness>
20.2400

> <Gold.Chemscore.DG>
-20.9505

> <Gold.Chemscore.ZeroCoef>
-5.4800

> <Gold.Chemscore.Hbond>
2.5374

> <Gold.Chemscore.Metal>
0.0000

> <Gold.Chemscore.Lipo>
130.9825

> <Gold.Chemscore.Internal_Hbond>
0.0000

> <Gold.Chemscore.DEClash>
0.0599

> <Gold.Chemscore.DEInternal>
0.6506

> <Gold.Chemscore.Rot>
3.2537

> <Gold.Chemscore.Internal.Correction>
   9.000000E+99

> <Gold.Chemscore.Hbonds>
donor molecule, donor type, donor heavy atom, donor atom, acceptor molecule, acceptor atom, score
      L1  H    16    39       P1  7949  0.85
      L1  H    17    45       P1  7948  0.99
      P1  H 10752 10764       L1    16  0.35

> <Gold.Chemscore.Hbond.Weighted>
-8.4750

> <Gold.Chemscore.Metal.Weighted>
-0.0000

> <Gold.Chemscore.Lipo.Weighted>
-15.3249

> <Gold.Chemscore.Internal_Hbond.Weighted>
0.0000

> <Gold.Chemscore.DEClash.Weighted>
0.0599

> <Gold.Chemscore.DEInternal.Weighted>
0.6506

> <Gold.Chemscore.Rot.Weighted>
8.3295

> <Gold.Chemscore.Internal.Correction.Weighted>
   9.000000E+99

> <Gold.Protein.RotatedTorsions>
[ 6907 6896 6895 6894 ] final  -10.01 input  -60.11 | X-H torsion
[ 7974 7965 7964 7962 ] final   92.90 input  175.53 | X-H torsion
[ 8008 7997 7996 7995 ] final  -24.28 input   59.86 | X-H torsion
[ 10167 10162 10161 10158 ] final -124.52 input  -65.29 | X-H torsion
[ 10718 10713 10712 10709 ] final  -41.36 input   66.30 | X-H torsion
[ 10763 10752 10751 10750 ] final -100.52 input  -60.55 | X-H torsion
[ 11005 11000 10999 10996 ] final -118.40 input  -57.11 | X-H torsion

> <Gold.Protein.ActiveResidues>
 VAL166  LYS551  ARG553  GLY616  TRP617  ASP618  TYR619  PRO620  LYS621  CYS622 
 ASP623  PHE694  ASN695  SER759  ASP760  ASP761  ALA762  ILE779  LEU786  VAL792 
 PHE793  MET794  SER795  GLU796  ALA797  LYS798  CYS799  TRP800  GLU811  SER814 

> <Gold.Protein.RotatedAtoms>
  151.4087  135.0982  159.9578 H   0  0  0  0  0  0  0  0  0  0  0  0  # atno 6907 bound_to 6896
  152.5027  133.8818  159.7360 H   0  0  0  0  0  0  0  0  0  0  0  0  # atno 6908 bound_to 6896
  150.9308  133.6712  159.2839 H   0  0  0  0  0  0  0  0  0  0  0  0  # atno 6909 bound_to 6896
  145.4861  139.2277  143.2856 H   0  0  0  0  0  0  0  0  0  0  0  0  # atno 7974 bound_to 7965
  154.4538  140.1958  156.0440 H   0  0  0  0  0  0  0  0  0  0  0  0  # atno 8008 bound_to 7997
  156.0704  140.3285  155.7541 H   0  0  0  0  0  0  0  0  0  0  0  0  # atno 8009 bound_to 7997
  155.5272  140.0575  157.2886 H   0  0  0  0  0  0  0  0  0  0  0  0  # atno 8010 bound_to 7997
  139.9919  143.5632  152.2338 H   0  0  0  0  0  0  0  0  0  0  0  0  # atno 10167 bound_to 10162
  156.2712  130.4207  149.8436 H   0  0  0  0  0  0  0  0  0  0  0  0  # atno 10718 bound_to 10713
  154.7585  135.4932  153.9420 H   0  0  0  0  0  0  0  0  0  0  0  0  # atno 10763 bound_to 10752
  153.1224  135.6734  153.9321 H   0  0  0  0  0  0  0  0  0  0  0  0  # atno 10764 bound_to 10752
  153.9049  135.3105  155.3427 H   0  0  0  0  0  0  0  0  0  0  0  0  # atno 10765 bound_to 10752
  141.0289  134.0012  157.3173 H   0  0  0  0  0  0  0  0  0  0  0  0  # atno 11005 bound_to 11000
  146.2312  140.5651  142.8974 LP  0  0  0  0  0  0  0  0  0  0  0  0  # atno 17320 bound_to 7965
  144.7861  140.5939  143.6573 LP  0  0  0  0  0  0  0  0  0  0  0  0  # atno 17321 bound_to 7965
  139.6334  144.7647  151.2489 LP  0  0  0  0  0  0  0  0  0  0  0  0  # atno 17342 bound_to 10162
  140.7451  143.6440  150.8309 LP  0  0  0  0  0  0  0  0  0  0  0  0  # atno 17343 bound_to 10162
  156.5916  130.8509  151.3409 LP  0  0  0  0  0  0  0  0  0  0  0  0  # atno 17370 bound_to 10713
  157.7284  130.9657  150.1743 LP  0  0  0  0  0  0  0  0  0  0  0  0  # atno 17371 bound_to 10713
  139.9194  135.0199  156.8007 LP  0  0  0  0  0  0  0  0  0  0  0  0  # atno 17394 bound_to 11000
  140.6443  133.9790  155.7723 LP  0  0  0  0  0  0  0  0  0  0  0  0  # atno 17395 bound_to 11000

$$$$
