AV-unprocessed.smi:2693|AV-procd|sdf|10402|dock8
  -GOLD-   2272014433D 1   1.00000     0.00000
 Structure written by MMmdl.
 45 47  0  0  0  0  0  0  0  0  1 V2000
  143.7839  132.5092  149.5505 C   0  0  0  0  0  0  0  0  0  0  0  0
  144.6863  132.7867  150.6643 N   0  0  0  0  0  0  0  0  0  0  0  0
  145.4273  131.6633  151.2307 C   0  0  0  0  0  0  0  0  0  0  0  0
  144.8410  134.0826  151.1653 C   0  0  0  0  0  0  0  0  0  0  0  0
  143.9372  134.9993  150.7947 N   0  0  0  0  0  0  0  0  0  0  0  0
  144.0803  136.2540  151.2718 C   0  0  0  0  0  0  0  0  0  0  0  0
  145.1435  136.6022  152.1388 C   0  0  0  0  0  0  0  0  0  0  0  0
  145.3826  137.9011  152.6624 N   0  0  0  0  0  0  0  0  0  0  0  0
  146.3663  138.3011  153.4855 C   0  0  0  0  0  0  0  0  0  0  0  0
  147.3029  137.6012  153.8694 O   0  0  0  0  0  0  0  0  0  0  0  0
  146.2113  139.5838  153.8389 N   0  0  0  0  0  0  0  0  0  0  0  0
  147.1088  140.3029  154.7373 C   0  0  1  0  0  0  0  0  0  0  0  0
  148.5158  140.4832  154.1463 C   0  0  2  0  0  0  0  0  0  0  0  0
  149.6929  139.8058  154.7938 C   0  0  0  0  0  0  0  0  0  0  0  0
  150.2517  140.8963  155.7126 C   0  0  0  0  0  0  0  0  0  0  0  0
  149.1591  141.7890  155.9187 O   0  0  0  0  0  0  0  0  0  0  0  0
  148.4623  141.9066  154.6805 C   0  0  2  0  0  0  0  0  0  0  0  0
  146.9217  141.8421  154.7435 C   0  0  0  0  0  0  0  0  0  0  0  0
  146.2162  142.4773  153.5364 C   0  0  0  0  0  0  0  0  0  0  0  0
  146.2757  142.4384  155.9951 C   0  0  0  0  0  0  0  0  0  0  0  0
  146.0398  135.5623  152.4559 C   0  0  0  0  0  0  0  0  0  0  0  0
  145.8846  134.3115  151.9735 N   0  0  0  0  0  0  0  0  0  0  0  0
  144.0529  133.1112  148.6818 H   0  0  0  0  0  0  0  0  0  0  0  0
  142.7563  132.7452  149.8278 H   0  0  0  0  0  0  0  0  0  0  0  0
  143.8169  131.4620  149.2497 H   0  0  0  0  0  0  0  0  0  0  0  0
  146.4994  131.8115  151.0998 H   0  0  0  0  0  0  0  0  0  0  0  0
  145.1605  130.7185  150.7573 H   0  0  0  0  0  0  0  0  0  0  0  0
  145.2212  131.5688  152.2972 H   0  0  0  0  0  0  0  0  0  0  0  0
  143.3464  136.9661  150.9284 H   0  0  0  0  0  0  0  0  0  0  0  0
  144.7316  138.6139  152.3668 H   0  0  0  0  0  0  0  0  0  0  0  0
  145.4193  140.0925  153.4746 H   0  0  0  0  0  0  0  0  0  0  0  0
  147.1454  139.8870  155.7469 H   0  0  0  0  0  0  0  0  0  0  0  0
  148.5215  140.4654  153.0550 H   0  0  0  0  0  0  0  0  0  0  0  0
  149.3734  138.9374  155.3710 H   0  0  0  0  0  0  0  0  0  0  0  0
  150.4364  139.4724  154.0692 H   0  0  0  0  0  0  0  0  0  0  0  0
  150.6299  140.5003  156.6552 H   0  0  0  0  0  0  0  0  0  0  0  0
  151.0615  141.4353  155.2186 H   0  0  0  0  0  0  0  0  0  0  0  0
  148.8878  142.6528  154.0079 H   0  0  0  0  0  0  0  0  0  0  0  0
  146.3413  143.5603  153.5278 H   0  0  0  0  0  0  0  0  0  0  0  0
  145.1448  142.2735  153.5413 H   0  0  0  0  0  0  0  0  0  0  0  0
  146.6131  142.1036  152.5922 H   0  0  0  0  0  0  0  0  0  0  0  0
  146.4172  143.5184  156.0431 H   0  0  0  0  0  0  0  0  0  0  0  0
  146.6999  142.0167  156.9066 H   0  0  0  0  0  0  0  0  0  0  0  0
  145.2032  142.2428  156.0225 H   0  0  0  0  0  0  0  0  0  0  0  0
  146.8898  135.7323  153.1005 H   0  0  0  0  0  0  0  0  0  0  0  0
  1  2  1  0  0  0  0
  1 23  1  0  0  0  0
  1 24  1  0  0  0  0
  1 25  1  0  0  0  0
  2  3  1  0  0  0  0
  2  4  1  0  0  0  0
  3 26  1  0  0  0  0
  3 27  1  0  0  0  0
  3 28  1  0  0  0  0
  4 22  1  0  0  0  0
  4  5  2  0  0  0  0
  5  6  1  0  0  0  0
  6  7  2  0  0  0  0
  6 29  1  0  0  0  0
  7  8  1  0  0  0  0
  7 21  1  0  0  0  0
  8  9  1  0  0  0  0
  8 30  1  0  0  0  0
  9 10  2  0  0  0  0
  9 11  1  0  0  0  0
 11 12  1  0  0  0  0
 11 31  1  0  0  0  0
 12 18  1  0  0  0  0
 12 13  1  0  0  0  0
 12 32  1  0  0  0  0
 13 17  1  0  0  0  0
 13 14  1  0  0  0  0
 13 33  1  0  0  0  0
 14 15  1  0  0  0  0
 14 34  1  0  0  0  0
 14 35  1  0  0  0  0
 15 16  1  0  0  0  0
 15 36  1  0  0  0  0
 15 37  1  0  0  0  0
 16 17  1  0  0  0  0
 17 18  1  0  0  0  0
 17 38  1  0  0  0  0
 18 19  1  0  0  0  0
 18 20  1  0  0  0  0
 19 39  1  0  0  0  0
 19 40  1  0  0  0  0
 19 41  1  0  0  0  0
 20 42  1  0  0  0  0
 20 43  1  0  0  0  0
 20 44  1  0  0  0  0
 21 22  2  0  0  0  0
 21 45  1  0  0  0  0
M  END
> <s_m_source_file>
AV-unprocessed.smi

> <i_m_source_file_index>
2693

> <i_lp_mmshare_version>
43012

> <i_f3d_flags>
0

> <s_epik_input>
W0NIM11OKFtDSDNdKWMxbltjSF1jKFtjSF1uMSlbTkhdQyg9TylbTkhdW0NASF0yQyhbQ0gzXSkoW0NIM10pW0NAQEhdKFtDQEhdMjMpT1tDSDJdW0NIMl0z

> <s_epik_cmdline>
J2VwaWtfcHl0aG9uJywgJy1waCcsICc3LjAnLCAnLXRuJywgJzgnLCAnLW1hJywgJzIwMCcsICctbWV0YWxfYmluZGluZycsICctaW1hZScsICc8aW5maWxlLm1hZT4nLCAnLW9tYWUnLCAnPG91dGZpbGUubWFlPic=

> <r_lp_tautomer_probability>
1

> <r_epik_Ionization_Penalty>
0.00031779

> <r_epik_Ionization_Penalty_Charging>
0

> <r_epik_Ionization_Penalty_Neutral>
0.00031779

> <r_epik_State_Penalty>
-0

> <r_epik_Charging_Adjusted_Penalty>
0

> <i_epik_Tot_Q>
0

> <i_epik_Tot_abs_Q>
0

> <r_epik_Metal_State_Penalty>
-0

> <b_epik_Metal_Only>
0

> <s_lp_Force_Field>
OPLS_2005

> <r_lp_Energy>
29.1856

> <b_lp_Chiralities_Consistent>
1

> <s_lp_Variant>
AV-unprocessed.smi:2693-6

> <Gold.Version>
5.8.1

> <Gold.Id.Protein>
6NUR|6NUR_protein|mol2

> <Gold.PLP.Fitness>
40.4764

> <Gold.PLP.PLP>
-30.7218

> <Gold.PLP.part.hbond>
-2.0312

> <Gold.PLP.part.metal>
0.0000

> <Gold.PLP.part.buried>
-0.4939

> <Gold.PLP.part.nonpolar>
-31.0550

> <Gold.PLP.part.repulsive>
3.2839

> <Gold.PLP.ligand.clash>
0.0000

> <Gold.PLP.ligand.torsion>
0.1843

> <Gold.PLP.Chemscore.Hbond>
1.8125

> <Gold.PLP.Chemscore.CHOScore>
1.5032

> <Gold.PLP.Chemscore.Metal>
0.0000

> <Gold.Chemscore.Hbonds>
donor molecule, donor type, donor heavy atom, donor atom, acceptor molecule, acceptor atom, score
      L1  H     8    30       P1 10175  0.78
      L1  H    11    31       P1 10175  0.98
      L1  C     6    29       P1 10171  0.83
      L1  C    21    45       P1  7948  0.65

> <Gold.PLP.Chemscore.Internal.Correction>
0.1762

> <Gold.Rescore>
     Score         DG    S(hbond)    S(metal)    S(lipo)     H(rot)  DE(clash)    DE(int)     intcor
     14.81     -18.55       1.92        0.00      78.67       1.00       2.21       1.54       ----

> <Gold.Chemscore.Fitness>
14.8062

> <Gold.Chemscore.DG>
-18.5505

> <Gold.Chemscore.ZeroCoef>
-5.4800

> <Gold.Chemscore.Hbond>
1.9241

> <Gold.Chemscore.Metal>
0.0000

> <Gold.Chemscore.Lipo>
78.6659

> <Gold.Chemscore.Internal_Hbond>
0.0000

> <Gold.Chemscore.DEClash>
2.2069

> <Gold.Chemscore.DEInternal>
1.5373

> <Gold.Chemscore.Rot>
1.0000

> <Gold.Chemscore.Internal.Correction>
   9.000000E+99

> <Gold.Chemscore.Hbonds>
donor molecule, donor type, donor heavy atom, donor atom, acceptor molecule, acceptor atom, score
      L1  H     8    30       P1 10175  0.76
      L1  H    11    31       P1 10175  0.91

> <Gold.Chemscore.Hbond.Weighted>
-6.4266

> <Gold.Chemscore.Metal.Weighted>
-0.0000

> <Gold.Chemscore.Lipo.Weighted>
-9.2039

> <Gold.Chemscore.Internal_Hbond.Weighted>
0.0000

> <Gold.Chemscore.DEClash.Weighted>
2.2069

> <Gold.Chemscore.DEInternal.Weighted>
1.5373

> <Gold.Chemscore.Rot.Weighted>
2.5600

> <Gold.Chemscore.Internal.Correction.Weighted>
   9.000000E+99

> <Gold.Protein.RotatedTorsions>
[ 6907 6896 6895 6894 ] final  105.90 input  -60.11 | X-H torsion
[ 7974 7965 7964 7962 ] final -130.61 input  175.53 | X-H torsion
[ 8008 7997 7996 7995 ] final  102.35 input   59.86 | X-H torsion
[ 10167 10162 10161 10158 ] final  -11.84 input  -65.29 | X-H torsion
[ 10718 10713 10712 10709 ] final  169.05 input   66.30 | X-H torsion
[ 10763 10752 10751 10750 ] final  143.62 input  -60.55 | X-H torsion
[ 11005 11000 10999 10996 ] final  138.99 input  -57.11 | X-H torsion

> <Gold.Protein.ActiveResidues>
 VAL166  LYS551  ARG553  GLY616  TRP617  ASP618  TYR619  PRO620  LYS621  CYS622 
 ASP623  PHE694  ASN695  SER759  ASP760  ASP761  ALA762  ILE779  LEU786  VAL792 
 PHE793  MET794  SER795  GLU796  ALA797  LYS798  CYS799  TRP800  GLU811  SER814 

> <Gold.Protein.RotatedAtoms>
  152.5213  133.9460  159.7648 H   0  0  0  0  0  0  0  0  0  0  0  0  # atno 6907 bound_to 6896
  150.9780  133.6267  159.2734 H   0  0  0  0  0  0  0  0  0  0  0  0  # atno 6908 bound_to 6896
  151.3454  135.0879  159.9438 H   0  0  0  0  0  0  0  0  0  0  0  0  # atno 6909 bound_to 6896
  144.9459  140.7290  143.4818 H   0  0  0  0  0  0  0  0  0  0  0  0  # atno 7974 bound_to 7965
  156.1385  140.3182  155.8458 H   0  0  0  0  0  0  0  0  0  0  0  0  # atno 8008 bound_to 7997
  155.4200  140.0511  157.3043 H   0  0  0  0  0  0  0  0  0  0  0  0  # atno 8009 bound_to 7997
  154.4956  140.2109  155.9466 H   0  0  0  0  0  0  0  0  0  0  0  0  # atno 8010 bound_to 7997
  140.7148  143.5596  150.9210 H   0  0  0  0  0  0  0  0  0  0  0  0  # atno 10167 bound_to 10162
  157.0282  131.0252  151.2753 H   0  0  0  0  0  0  0  0  0  0  0  0  # atno 10718 bound_to 10713
  153.9754  135.2946  155.3424 H   0  0  0  0  0  0  0  0  0  0  0  0  # atno 10763 bound_to 10752
  154.7299  135.5072  153.8950 H   0  0  0  0  0  0  0  0  0  0  0  0  # atno 10764 bound_to 10752
  153.0880  135.6699  154.0023 H   0  0  0  0  0  0  0  0  0  0  0  0  # atno 10765 bound_to 10752
  140.0223  134.9391  157.0498 H   0  0  0  0  0  0  0  0  0  0  0  0  # atno 11005 bound_to 11000
  145.2919  139.1880  143.4735 LP  0  0  0  0  0  0  0  0  0  0  0  0  # atno 17320 bound_to 7965
  146.3303  140.2897  142.8614 LP  0  0  0  0  0  0  0  0  0  0  0  0  # atno 17321 bound_to 7965
  139.9322  143.6480  152.3074 LP  0  0  0  0  0  0  0  0  0  0  0  0  # atno 17342 bound_to 10162
  139.6935  144.7644  151.1397 LP  0  0  0  0  0  0  0  0  0  0  0  0  # atno 17343 bound_to 10162
  157.5198  130.7990  149.7796 LP  0  0  0  0  0  0  0  0  0  0  0  0  # atno 17370 bound_to 10713
  156.0078  130.3847  150.2368 LP  0  0  0  0  0  0  0  0  0  0  0  0  # atno 17371 bound_to 10713
  140.4366  134.1724  155.7171 LP  0  0  0  0  0  0  0  0  0  0  0  0  # atno 17394 bound_to 11000
  141.1781  133.8471  157.1352 LP  0  0  0  0  0  0  0  0  0  0  0  0  # atno 17395 bound_to 11000

$$$$
