AV-unprocessed.smi:2105|AV-procd|sdf|8592|dock6
  -GOLD-   2272011323D 1   1.00000     0.00000
 Structure written by MMmdl.
 43 44  0  0  0  0  0  0  0  0  2 V2000
  156.2319  134.2736  162.0611 C   0  0  0  0  0  0  0  0  0  0  0  0
  155.0954  134.9670  161.3179 C   0  0  0  0  0  0  0  0  0  0  0  0
  154.5770  134.4282  160.3406 O   0  0  0  0  0  0  0  0  0  0  0  0
  154.7186  136.1638  161.7927 N   0  0  0  0  0  0  0  0  0  0  0  0
  153.6470  136.9885  161.2434 C   0  0  0  0  0  0  0  0  0  0  0  0
  153.9052  137.3749  159.7736 C   0  0  0  0  0  0  0  0  0  0  0  0
  152.9409  138.3553  159.2844 N   0  0  0  0  0  0  0  0  0  0  0  0
  153.1986  139.6544  159.0779 C   0  0  0  0  0  0  0  0  0  0  0  0
  154.2986  140.1704  159.2752 O   0  0  0  0  0  0  0  0  0  0  0  0
  152.1046  140.3074  158.6513 N   0  0  0  0  0  0  0  0  0  0  0  0
  151.9716  141.6929  158.3499 C   0  0  0  0  0  0  0  0  0  0  0  0
  152.7725  142.6668  159.0006 C   0  0  0  0  0  0  0  0  0  0  0  0
  152.6050  144.0313  158.6992 C   0  0  0  0  0  0  0  0  0  0  0  0
  151.6415  144.4037  157.7468 C   0  0  0  0  0  0  0  0  0  0  0  0
  150.9100  143.4532  157.1294 N   0  3  0  0  0  0  0  0  0  0  0  0
  151.0346  142.1229  157.3650 C   0  0  0  0  0  0  0  0  0  0  0  0
  150.2072  141.2439  156.6290 N   0  0  0  0  0  0  0  0  0  0  0  0
  148.8291  141.6102  156.3230 C   0  0  0  0  0  0  0  0  0  0  0  0
  148.3834  140.6150  155.2554 C   0  0  0  0  0  0  0  0  0  0  0  0
  149.6632  140.4009  154.4527 C   0  0  0  0  0  0  0  0  0  0  0  0
  150.7744  140.5091  155.5027 C   0  0  0  0  0  0  0  0  0  0  0  0
  157.0971  134.9323  162.1398 H   0  0  0  0  0  0  0  0  0  0  0  0
  156.5402  133.3672  161.5390 H   0  0  0  0  0  0  0  0  0  0  0  0
  155.9141  133.9969  163.0667 H   0  0  0  0  0  0  0  0  0  0  0  0
  155.2013  136.5250  162.6028 H   0  0  0  0  0  0  0  0  0  0  0  0
  152.7055  136.4419  161.3167 H   0  0  0  0  0  0  0  0  0  0  0  0
  153.5271  137.8758  161.8656 H   0  0  0  0  0  0  0  0  0  0  0  0
  154.9123  137.7729  159.6453 H   0  0  0  0  0  0  0  0  0  0  0  0
  153.8543  136.4828  159.1473 H   0  0  0  0  0  0  0  0  0  0  0  0
  152.0081  138.0169  159.0990 H   0  0  0  0  0  0  0  0  0  0  0  0
  151.2481  139.7735  158.6356 H   0  0  0  0  0  0  0  0  0  0  0  0
  153.5210  142.3870  159.7262 H   0  0  0  0  0  0  0  0  0  0  0  0
  153.2070  144.7802  159.1931 H   0  0  0  0  0  0  0  0  0  0  0  0
  151.4405  145.4241  157.4546 H   0  0  0  0  0  0  0  0  0  0  0  0
  148.1969  141.5626  157.2101 H   0  0  0  0  0  0  0  0  0  0  0  0
  148.7839  142.6227  155.9201 H   0  0  0  0  0  0  0  0  0  0  0  0
  148.0752  139.6785  155.7227 H   0  0  0  0  0  0  0  0  0  0  0  0
  147.5540  140.9823  154.6503 H   0  0  0  0  0  0  0  0  0  0  0  0
  149.6767  139.4510  153.9171 H   0  0  0  0  0  0  0  0  0  0  0  0
  149.7720  141.2012  153.7195 H   0  0  0  0  0  0  0  0  0  0  0  0
  151.6587  141.0006  155.0945 H   0  0  0  0  0  0  0  0  0  0  0  0
  151.0629  139.5138  155.8425 H   0  0  0  0  0  0  0  0  0  0  0  0
  150.2258  143.7548  156.4355 H   0  0  0  0  0  0  0  0  0  0  0  0
  1  2  1  0  0  0  0
  1 22  1  0  0  0  0
  1 23  1  0  0  0  0
  1 24  1  0  0  0  0
  2  3  2  0  0  0  0
  2  4  1  0  0  0  0
  4  5  1  0  0  0  0
  4 25  1  0  0  0  0
  5  6  1  0  0  0  0
  5 26  1  0  0  0  0
  5 27  1  0  0  0  0
  6  7  1  0  0  0  0
  6 28  1  0  0  0  0
  6 29  1  0  0  0  0
  7  8  1  0  0  0  0
  7 30  1  0  0  0  0
  8  9  2  0  0  0  0
  8 10  1  0  0  0  0
 10 11  1  0  0  0  0
 10 31  1  0  0  0  0
 11 16  1  0  0  0  0
 11 12  2  0  0  0  0
 12 13  1  0  0  0  0
 12 32  1  0  0  0  0
 13 14  2  0  0  0  0
 13 33  1  0  0  0  0
 14 15  1  0  0  0  0
 14 34  1  0  0  0  0
 15 16  2  0  0  0  0
 15 43  1  0  0  0  0
 16 17  1  0  0  0  0
 17 21  1  0  0  0  0
 17 18  1  0  0  0  0
 18 19  1  0  0  0  0
 18 35  1  0  0  0  0
 18 36  1  0  0  0  0
 19 20  1  0  0  0  0
 19 37  1  0  0  0  0
 19 38  1  0  0  0  0
 20 21  1  0  0  0  0
 20 39  1  0  0  0  0
 20 40  1  0  0  0  0
 21 41  1  0  0  0  0
 21 42  1  0  0  0  0
M  CHG  1  15   1
M  END
> <s_m_source_file>
AV-unprocessed.smi

> <i_m_source_file_index>
2105

> <i_lp_mmshare_version>
43012

> <i_f3d_flags>
0

> <s_epik_input>
W0NIM11DKD1PKVtOSF1bQ0gyXVtDSDJdW05IXUMoPU8pW05IXWMxW2NIXVtjSF1bY0hdbmMxTjJbQ0gyXVtDSDJdW0NIMl1bQ0gyXTI=

> <s_epik_cmdline>
J2VwaWtfcHl0aG9uJywgJy1waCcsICc3LjAnLCAnLXRuJywgJzgnLCAnLW1hJywgJzIwMCcsICctbWV0YWxfYmluZGluZycsICctaW1hZScsICc8aW5maWxlLm1hZT4nLCAnLW9tYWUnLCAnPG91dGZpbGUubWFlPic=

> <r_lp_tautomer_probability>
0.999994

> <r_epik_Ionization_Penalty>
1.12691

> <r_epik_Ionization_Penalty_Charging>
1.12689

> <r_epik_Ionization_Penalty_Neutral>
1.95207e-05

> <r_epik_State_Penalty>
1.18624

> <r_epik_Charging_Adjusted_Penalty>
2.31313

> <i_epik_Tot_Q>
1

> <i_epik_Tot_abs_Q>
1

> <r_epik_Metal_State_Penalty>
1.26987

> <b_epik_Metal_Only>
0

> <s_lp_Force_Field>
OPLS_2005

> <r_lp_Energy>
38.5687

> <b_lp_Chiralities_Consistent>
1

> <s_lp_Variant>
AV-unprocessed.smi:2105-2

> <Gold.Version>
5.8.1

> <Gold.Id.Protein>
6NUR|6NUR_protein|mol2

> <Gold.PLP.Fitness>
45.9069

> <Gold.PLP.PLP>
-35.3204

> <Gold.PLP.part.hbond>
-3.0000

> <Gold.PLP.part.metal>
0.0000

> <Gold.PLP.part.buried>
-3.1061

> <Gold.PLP.part.nonpolar>
-28.3999

> <Gold.PLP.part.repulsive>
0.3195

> <Gold.PLP.ligand.clash>
0.0000

> <Gold.PLP.ligand.torsion>
0.8383

> <Gold.PLP.Chemscore.Hbond>
3.9600

> <Gold.PLP.Chemscore.CHOScore>
0.0000

> <Gold.PLP.Chemscore.Metal>
0.0000

> <Gold.Chemscore.Hbonds>
donor molecule, donor type, donor heavy atom, donor atom, acceptor molecule, acceptor atom, score
      L1  H    15    43       P1  8028  2.00
      P1  H  6896  6909       L1     3  1.00
      P1  H  7997  8010       L1     9  0.72

> <Gold.PLP.Chemscore.Internal.Correction>
0.3831

> <Gold.Rescore>
     Score         DG    S(hbond)    S(metal)    S(lipo)     H(rot)  DE(clash)    DE(int)     intcor
     16.14     -18.28       2.57        0.00      79.33       1.98       0.03       2.12       ----

> <Gold.Chemscore.Fitness>
16.1368

> <Gold.Chemscore.DG>
-18.2837

> <Gold.Chemscore.ZeroCoef>
-5.4800

> <Gold.Chemscore.Hbond>
2.5691

> <Gold.Chemscore.Metal>
0.0000

> <Gold.Chemscore.Lipo>
79.3286

> <Gold.Chemscore.Internal_Hbond>
0.0000

> <Gold.Chemscore.DEClash>
0.0254

> <Gold.Chemscore.DEInternal>
2.1215

> <Gold.Chemscore.Rot>
1.9760

> <Gold.Chemscore.Internal.Correction>
   9.000000E+99

> <Gold.Chemscore.Hbonds>
donor molecule, donor type, donor heavy atom, donor atom, acceptor molecule, acceptor atom, score
      L1  H    15    43       P1  8028  0.99
      P1  H  6896  6909       L1     3  0.93
      P1  H  7997  8010       L1     9  0.13

> <Gold.Chemscore.Hbond.Weighted>
-8.5808

> <Gold.Chemscore.Metal.Weighted>
-0.0000

> <Gold.Chemscore.Lipo.Weighted>
-9.2814

> <Gold.Chemscore.Internal_Hbond.Weighted>
0.0000

> <Gold.Chemscore.DEClash.Weighted>
0.0254

> <Gold.Chemscore.DEInternal.Weighted>
2.1215

> <Gold.Chemscore.Rot.Weighted>
5.0585

> <Gold.Chemscore.Internal.Correction.Weighted>
   9.000000E+99

> <Gold.Protein.RotatedTorsions>
[ 6907 6896 6895 6894 ] final -152.37 input  -60.11 | X-H torsion
[ 7974 7965 7964 7962 ] final  171.53 input  175.53 | X-H torsion
[ 8008 7997 7996 7995 ] final    4.11 input   59.86 | X-H torsion
[ 10167 10162 10161 10158 ] final   89.62 input  -65.29 | X-H torsion
[ 10718 10713 10712 10709 ] final  -91.99 input   66.30 | X-H torsion
[ 10763 10752 10751 10750 ] final -174.63 input  -60.55 | X-H torsion
[ 11005 11000 10999 10996 ] final  -19.52 input  -57.11 | X-H torsion

> <Gold.Protein.ActiveResidues>
 VAL166  LYS551  ARG553  GLY616  TRP617  ASP618  TYR619  PRO620  LYS621  CYS622 
 ASP623  PHE694  ASN695  SER759  ASP760  ASP761  ALA762  ILE779  LEU786  VAL792 
 PHE793  MET794  SER795  GLU796  ALA797  LYS798  CYS799  TRP800  GLU811  SER814 

> <Gold.Protein.RotatedAtoms>
  151.2268  133.4472  159.2602 H   0  0  0  0  0  0  0  0  0  0  0  0  # atno 6907 bound_to 6896
  151.0832  134.9871  159.8376 H   0  0  0  0  0  0  0  0  0  0  0  0  # atno 6908 bound_to 6896
  152.5426  134.2206  159.8839 H   0  0  0  0  0  0  0  0  0  0  0  0  # atno 6909 bound_to 6896
  144.7292  139.9363  143.6427 H   0  0  0  0  0  0  0  0  0  0  0  0  # atno 7974 bound_to 7965
  154.7119  140.2694  155.6621 H   0  0  0  0  0  0  0  0  0  0  0  0  # atno 8008 bound_to 7997
  156.2798  140.2751  156.1688 H   0  0  0  0  0  0  0  0  0  0  0  0  # atno 8009 bound_to 7997
  155.0623  140.0371  157.2571 H   0  0  0  0  0  0  0  0  0  0  0  0  # atno 8010 bound_to 7997
  139.8554  144.6571  150.9120 H   0  0  0  0  0  0  0  0  0  0  0  0  # atno 10167 bound_to 10162
  155.9998  130.4969  150.5558 H   0  0  0  0  0  0  0  0  0  0  0  0  # atno 10718 bound_to 10713
  154.5939  135.2848  155.0606 H   0  0  0  0  0  0  0  0  0  0  0  0  # atno 10763 bound_to 10752
  154.1897  135.6443  153.5060 H   0  0  0  0  0  0  0  0  0  0  0  0  # atno 10764 bound_to 10752
  153.0131  135.5443  154.6634 H   0  0  0  0  0  0  0  0  0  0  0  0  # atno 10765 bound_to 10752
  140.8374  133.7951  155.9824 H   0  0  0  0  0  0  0  0  0  0  0  0  # atno 11005 bound_to 11000
  146.0818  139.3806  143.0459 LP  0  0  0  0  0  0  0  0  0  0  0  0  # atno 17320 bound_to 7965
  145.7830  140.9848  143.1089 LP  0  0  0  0  0  0  0  0  0  0  0  0  # atno 17321 bound_to 7965
  140.7782  143.3790  151.1511 LP  0  0  0  0  0  0  0  0  0  0  0  0  # atno 17342 bound_to 10162
  139.7424  143.8903  152.3054 LP  0  0  0  0  0  0  0  0  0  0  0  0  # atno 17343 bound_to 10162
  157.3474  131.0727  151.1740 LP  0  0  0  0  0  0  0  0  0  0  0  0  # atno 17370 bound_to 10713
  157.2568  130.6640  149.5956 LP  0  0  0  0  0  0  0  0  0  0  0  0  # atno 17371 bound_to 10713
  140.8932  134.2470  157.5083 LP  0  0  0  0  0  0  0  0  0  0  0  0  # atno 17394 bound_to 11000
  139.8704  134.9671  156.4586 LP  0  0  0  0  0  0  0  0  0  0  0  0  # atno 17395 bound_to 11000

$$$$
