AV-unprocessed.smi:1145|AV-procd|sdf|4885|dock5
  -GOLD-   22720 3453D 1   1.00000     0.00000
 Structure written by MMmdl.
 36 37  0  0  0  0  0  0  0  0  1 V2000
  151.5973  140.6538  158.3707 C   0  0  0  0  0  0  0  0  0  0  0  0
  150.6061  141.3458  157.4167 C   0  0  1  0  0  0  0  0  0  0  0  0
  151.1207  142.6996  156.8876 C   0  0  0  0  0  0  0  0  0  0  0  0
  151.2303  143.7100  157.9241 N   0  0  0  0  0  0  0  0  0  0  0  0
  152.3338  144.4553  158.2837 C   0  0  0  0  0  0  0  0  0  0  0  0
  151.9520  145.2800  159.3029 C   0  0  0  0  0  0  0  0  0  0  0  0
  150.5780  144.9648  159.4961 C   0  0  0  0  0  0  0  0  0  0  0  0
  150.1483  144.0267  158.6677 N   0  0  0  0  0  0  0  0  0  0  0  0
  150.3075  140.4756  156.2825 N   0  0  0  0  0  0  0  0  0  0  0  0
  151.2164  139.8536  155.5150 C   0  0  0  0  0  0  0  0  0  0  0  0
  152.4302  139.9605  155.6925 O   0  0  0  0  0  0  0  0  0  0  0  0
  150.6599  138.9663  154.3849 C   0  0  1  0  0  0  0  0  0  0  0  0
  151.2301  137.5366  154.4288 C   0  0  0  0  0  0  0  0  0  0  0  0
  150.6998  136.7076  155.6139 C   0  0  0  0  0  0  0  0  0  0  0  0
  149.1934  136.8762  155.8632 C   0  0  0  0  0  0  0  0  0  0  0  0
  148.6055  136.0655  156.5752 O   0  0  0  0  0  0  0  0  0  0  0  0
  148.5566  137.9343  155.3310 N   0  0  0  0  0  0  0  0  0  0  0  0
  149.1161  138.8982  154.3815 C   0  0  0  0  0  0  0  0  0  0  0  0
  151.7859  141.2587  159.2578 H   0  0  0  0  0  0  0  0  0  0  0  0
  152.5548  140.4714  157.8821 H   0  0  0  0  0  0  0  0  0  0  0  0
  151.2108  139.6937  158.7136 H   0  0  0  0  0  0  0  0  0  0  0  0
  149.6805  141.5329  157.9645 H   0  0  0  0  0  0  0  0  0  0  0  0
  152.1008  142.5759  156.4243 H   0  0  0  0  0  0  0  0  0  0  0  0
  150.4556  143.0796  156.1107 H   0  0  0  0  0  0  0  0  0  0  0  0
  153.2876  144.3367  157.7914 H   0  0  0  0  0  0  0  0  0  0  0  0
  152.5606  145.9999  159.8297 H   0  0  0  0  0  0  0  0  0  0  0  0
  149.8840  145.3884  160.2072 H   0  0  0  0  0  0  0  0  0  0  0  0
  149.3318  140.3311  156.0672 H   0  0  0  0  0  0  0  0  0  0  0  0
  150.9670  139.4224  153.4420 H   0  0  0  0  0  0  0  0  0  0  0  0
  150.9776  137.0264  153.4983 H   0  0  0  0  0  0  0  0  0  0  0  0
  152.3199  137.5667  154.4628 H   0  0  0  0  0  0  0  0  0  0  0  0
  150.9239  135.6521  155.4564 H   0  0  0  0  0  0  0  0  0  0  0  0
  151.2196  136.9974  156.5275 H   0  0  0  0  0  0  0  0  0  0  0  0
  147.5774  138.0418  155.5526 H   0  0  0  0  0  0  0  0  0  0  0  0
  148.6853  139.8795  154.5843 H   0  0  0  0  0  0  0  0  0  0  0  0
  148.7701  138.6167  153.3864 H   0  0  0  0  0  0  0  0  0  0  0  0
  1  2  1  0  0  0  0
  1 19  1  0  0  0  0
  1 20  1  0  0  0  0
  1 21  1  0  0  0  0
  2  3  1  0  0  0  0
  2  9  1  0  0  0  0
  2 22  1  0  0  0  0
  3  4  1  0  0  0  0
  3 23  1  0  0  0  0
  3 24  1  0  0  0  0
  4  8  1  0  0  0  0
  4  5  1  0  0  0  0
  5  6  2  0  0  0  0
  5 25  1  0  0  0  0
  6  7  1  0  0  0  0
  6 26  1  0  0  0  0
  7  8  2  0  0  0  0
  7 27  1  0  0  0  0
  9 10  1  0  0  0  0
  9 28  1  0  0  0  0
 10 11  2  0  0  0  0
 10 12  1  0  0  0  0
 12 18  1  0  0  0  0
 12 13  1  0  0  0  0
 12 29  1  0  0  0  0
 13 14  1  0  0  0  0
 13 30  1  0  0  0  0
 13 31  1  0  0  0  0
 14 15  1  0  0  0  0
 14 32  1  0  0  0  0
 14 33  1  0  0  0  0
 15 16  2  0  0  0  0
 15 17  1  0  0  0  0
 17 18  1  0  0  0  0
 17 34  1  0  0  0  0
 18 35  1  0  0  0  0
 18 36  1  0  0  0  0
M  END
> <s_m_source_file>
AV-unprocessed.smi

> <i_m_source_file_index>
1145

> <i_lp_mmshare_version>
43012

> <i_f3d_flags>
0

> <s_epik_input>
bjFbY0hdW2NIXVtjSF1uMVtDSDJdW0NAQEhdKFtDSDNdKVtOSF1DKD1PKVtDQEBIXTJbQ0gyXVtDSDJdQyg9TylbTkhdW0NIMl0y

> <s_epik_cmdline>
J2VwaWtfcHl0aG9uJywgJy1waCcsICc3LjAnLCAnLXRuJywgJzgnLCAnLW1hJywgJzIwMCcsICctbWV0YWxfYmluZGluZycsICctaW1hZScsICc8aW5maWxlLm1hZT4nLCAnLW9tYWUnLCAnPG91dGZpbGUubWFlPic=

> <r_lp_tautomer_probability>
1

> <r_epik_Ionization_Penalty>
0.000314064

> <r_epik_Ionization_Penalty_Charging>
0

> <r_epik_Ionization_Penalty_Neutral>
0.000314064

> <r_epik_State_Penalty>
-0

> <r_epik_Charging_Adjusted_Penalty>
0

> <i_epik_Tot_Q>
0

> <i_epik_Tot_abs_Q>
0

> <r_epik_Metal_State_Penalty>
-0

> <b_epik_Metal_Only>
0

> <s_lp_Force_Field>
OPLS_2005

> <r_lp_Energy>
8.22521

> <b_lp_Chiralities_Consistent>
1

> <s_lp_Variant>
AV-unprocessed.smi:1145-4

> <Gold.Version>
5.8.1

> <Gold.Id.Protein>
6NUR|6NUR_protein|mol2

> <Gold.PLP.Fitness>
39.1187

> <Gold.PLP.PLP>
-36.8509

> <Gold.PLP.part.hbond>
-1.3127

> <Gold.PLP.part.metal>
0.0000

> <Gold.PLP.part.buried>
-4.4551

> <Gold.PLP.part.nonpolar>
-31.3250

> <Gold.PLP.part.repulsive>
0.2326

> <Gold.PLP.ligand.clash>
0.2691

> <Gold.PLP.ligand.torsion>
0.2514

> <Gold.PLP.Chemscore.Hbond>
1.0000

> <Gold.PLP.Chemscore.CHOScore>
0.0000

> <Gold.PLP.Chemscore.Metal>
0.0000

> <Gold.Chemscore.Hbonds>
donor molecule, donor type, donor heavy atom, donor atom, acceptor molecule, acceptor atom, score
      P1  H  7997  8010       L1    11  1.00

> <Gold.PLP.Chemscore.Internal.Correction>
0.0397

> <Gold.Rescore>
     Score         DG    S(hbond)    S(metal)    S(lipo)     H(rot)  DE(clash)    DE(int)     intcor
     12.40     -13.94       1.00        0.00      83.15       1.80       0.03       1.51       ----

> <Gold.Chemscore.Fitness>
12.4042

> <Gold.Chemscore.DG>
-13.9441

> <Gold.Chemscore.ZeroCoef>
-5.4800

> <Gold.Chemscore.Hbond>
0.9997

> <Gold.Chemscore.Metal>
0.0000

> <Gold.Chemscore.Lipo>
83.1513

> <Gold.Chemscore.Internal_Hbond>
0.0000

> <Gold.Chemscore.DEClash>
0.0266

> <Gold.Chemscore.DEInternal>
1.5133

> <Gold.Chemscore.Rot>
1.7982

> <Gold.Chemscore.Internal.Correction>
   9.000000E+99

> <Gold.Chemscore.Hbonds>
donor molecule, donor type, donor heavy atom, donor atom, acceptor molecule, acceptor atom, score
      P1  H  7997  8010       L1    11  0.97

> <Gold.Chemscore.Hbond.Weighted>
-3.3389

> <Gold.Chemscore.Metal.Weighted>
-0.0000

> <Gold.Chemscore.Lipo.Weighted>
-9.7287

> <Gold.Chemscore.Internal_Hbond.Weighted>
0.0000

> <Gold.Chemscore.DEClash.Weighted>
0.0266

> <Gold.Chemscore.DEInternal.Weighted>
1.5133

> <Gold.Chemscore.Rot.Weighted>
4.6035

> <Gold.Chemscore.Internal.Correction.Weighted>
   9.000000E+99

> <Gold.Protein.RotatedTorsions>
[ 6907 6896 6895 6894 ] final  -58.35 input  -60.11 | X-H torsion
[ 7974 7965 7964 7962 ] final -172.30 input  175.53 | X-H torsion
[ 8008 7997 7996 7995 ] final   88.36 input   59.86 | X-H torsion
[ 10167 10162 10161 10158 ] final -164.16 input  -65.29 | X-H torsion
[ 10718 10713 10712 10709 ] final -109.38 input   66.30 | X-H torsion
[ 10763 10752 10751 10750 ] final -139.49 input  -60.55 | X-H torsion
[ 11005 11000 10999 10996 ] final  -71.93 input  -57.11 | X-H torsion

> <Gold.Protein.ActiveResidues>
 VAL166  LYS551  ARG553  GLY616  TRP617  ASP618  TYR619  PRO620  LYS621  CYS622 
 ASP623  PHE694  ASN695  SER759  ASP760  ASP761  ALA762  ILE779  LEU786  VAL792 
 PHE793  MET794  SER795  GLU796  ALA797  LYS798  CYS799  TRP800  GLU811  SER814 

> <Gold.Protein.RotatedAtoms>
  150.8014  134.7109  159.6603 H   0  0  0  0  0  0  0  0  0  0  0  0  # atno 6907 bound_to 6896
  152.4131  134.6087  160.0029 H   0  0  0  0  0  0  0  0  0  0  0  0  # atno 6908 bound_to 6896
  151.6324  133.3294  159.3148 H   0  0  0  0  0  0  0  0  0  0  0  0  # atno 6909 bound_to 6896
  144.7148  140.1793  143.6360 H   0  0  0  0  0  0  0  0  0  0  0  0  # atno 7974 bound_to 7965
  155.9868  140.3372  155.6715 H   0  0  0  0  0  0  0  0  0  0  0  0  # atno 8008 bound_to 7997
  155.6475  140.0702  157.2616 H   0  0  0  0  0  0  0  0  0  0  0  0  # atno 8009 bound_to 7997
  154.4207  140.1731  156.1626 H   0  0  0  0  0  0  0  0  0  0  0  0  # atno 8010 bound_to 7997
  139.6270  144.0514  152.1983 H   0  0  0  0  0  0  0  0  0  0  0  0  # atno 10167 bound_to 10162
  156.0534  130.5761  150.8092 H   0  0  0  0  0  0  0  0  0  0  0  0  # atno 10718 bound_to 10713
  154.8607  135.3581  154.5555 H   0  0  0  0  0  0  0  0  0  0  0  0  # atno 10763 bound_to 10752
  153.6171  135.7007  153.5329 H   0  0  0  0  0  0  0  0  0  0  0  0  # atno 10764 bound_to 10752
  153.3160  135.4165  155.1336 H   0  0  0  0  0  0  0  0  0  0  0  0  # atno 10765 bound_to 10752
  141.1600  133.6831  156.6980 H   0  0  0  0  0  0  0  0  0  0  0  0  # atno 11005 bound_to 11000
  145.8871  139.2355  143.1571 LP  0  0  0  0  0  0  0  0  0  0  0  0  # atno 17320 bound_to 7965
  145.9939  140.8579  143.0052 LP  0  0  0  0  0  0  0  0  0  0  0  0  # atno 17321 bound_to 7965
  140.0170  144.6182  150.7599 LP  0  0  0  0  0  0  0  0  0  0  0  0  # atno 17342 bound_to 10162
  140.7416  143.2821  151.3569 LP  0  0  0  0  0  0  0  0  0  0  0  0  # atno 17343 bound_to 10162
  157.5482  131.0943  150.9733 LP  0  0  0  0  0  0  0  0  0  0  0  0  # atno 17370 bound_to 10713
  156.9999  130.5596  149.5310 LP  0  0  0  0  0  0  0  0  0  0  0  0  # atno 17371 bound_to 10713
  140.2980  134.8187  157.4073 LP  0  0  0  0  0  0  0  0  0  0  0  0  # atno 17394 bound_to 11000
  140.1287  134.5123  155.8123 LP  0  0  0  0  0  0  0  0  0  0  0  0  # atno 17395 bound_to 11000

$$$$
