AV-unprocessed.smi:2181|AV-procd|sdf|8861|dock3
  -GOLD-   2272012 53D 1   1.00000     0.00000
 Structure written by MMmdl.
 38 39  0  0  0  0  0  0  0  0  1 V2000
  148.5346  137.7853  156.7529 C   0  0  0  0  0  0  0  0  0  0  0  0
  149.9050  137.7263  156.1409 C   0  0  0  0  0  0  0  0  0  0  0  0
  150.5560  136.5754  156.1199 N   0  0  0  0  0  0  0  0  0  0  0  0
  151.7748  136.8354  155.4857 O   0  0  0  0  0  0  0  0  0  0  0  0
  151.8094  138.1485  155.1444 C   0  0  0  0  0  0  0  0  0  0  0  0
  153.0345  138.6280  154.4419 C   0  0  0  0  0  0  0  0  0  0  0  0
  150.6559  138.7733  155.5312 C   0  0  0  0  0  0  0  0  0  0  0  0
  150.2681  140.2182  155.3493 C   0  0  0  0  0  0  0  0  0  0  0  0
  150.2685  140.9223  156.7055 C   0  0  0  0  0  0  0  0  0  0  0  0
  149.4698  140.5806  157.5775 O   0  0  0  0  0  0  0  0  0  0  0  0
  151.1747  141.8985  156.8687 N   0  0  0  0  0  0  0  0  0  0  0  0
  151.3899  142.6750  158.0886 C   0  0  2  0  0  0  0  0  0  0  0  0
  151.6970  144.1563  157.7482 C   0  0  0  0  0  0  0  0  0  0  0  0
  152.5054  144.9416  158.8023 C   0  0  0  0  0  0  0  0  0  0  0  0
  151.9308  144.9185  160.2334 C   0  0  0  0  0  0  0  0  0  0  0  0
  151.6753  143.5258  160.8582 C   0  0  0  0  0  0  0  0  0  0  0  0
  152.4891  142.4510  160.2913 N   0  0  0  0  0  0  0  0  0  0  0  0
  152.3982  141.9898  159.0319 C   0  0  0  0  0  0  0  0  0  0  0  0
  153.1086  141.0674  158.6331 O   0  0  0  0  0  0  0  0  0  0  0  0
  147.7702  137.5393  156.0157 H   0  0  0  0  0  0  0  0  0  0  0  0
  148.3144  138.7808  157.1379 H   0  0  0  0  0  0  0  0  0  0  0  0
  148.4362  137.0835  157.5817 H   0  0  0  0  0  0  0  0  0  0  0  0
  152.8193  138.8341  153.3931 H   0  0  0  0  0  0  0  0  0  0  0  0
  153.8302  137.8839  154.4849 H   0  0  0  0  0  0  0  0  0  0  0  0
  153.4068  139.5458  154.8972 H   0  0  0  0  0  0  0  0  0  0  0  0
  150.9484  140.7321  154.6691 H   0  0  0  0  0  0  0  0  0  0  0  0
  149.2757  140.3114  154.9070 H   0  0  0  0  0  0  0  0  0  0  0  0
  151.7912  142.1031  156.0955 H   0  0  0  0  0  0  0  0  0  0  0  0
  150.4408  142.6537  158.6260 H   0  0  0  0  0  0  0  0  0  0  0  0
  152.2526  144.2036  156.8105 H   0  0  0  0  0  0  0  0  0  0  0  0
  150.7570  144.6757  157.5574 H   0  0  0  0  0  0  0  0  0  0  0  0
  153.5316  144.5719  158.8205 H   0  0  0  0  0  0  0  0  0  0  0  0
  152.5871  145.9790  158.4763 H   0  0  0  0  0  0  0  0  0  0  0  0
  152.6284  145.4589  160.8744 H   0  0  0  0  0  0  0  0  0  0  0  0
  151.0045  145.4933  160.2638 H   0  0  0  0  0  0  0  0  0  0  0  0
  151.8639  143.5691  161.9312 H   0  0  0  0  0  0  0  0  0  0  0  0
  150.6214  143.2619  160.7642 H   0  0  0  0  0  0  0  0  0  0  0  0
  153.1602  142.0133  160.9061 H   0  0  0  0  0  0  0  0  0  0  0  0
  1  2  1  0  0  0  0
  1 20  1  0  0  0  0
  1 21  1  0  0  0  0
  1 22  1  0  0  0  0
  2  7  1  0  0  0  0
  2  3  2  0  0  0  0
  3  4  1  0  0  0  0
  4  5  1  0  0  0  0
  5  6  1  0  0  0  0
  5  7  2  0  0  0  0
  6 23  1  0  0  0  0
  6 24  1  0  0  0  0
  6 25  1  0  0  0  0
  7  8  1  0  0  0  0
  8  9  1  0  0  0  0
  8 26  1  0  0  0  0
  8 27  1  0  0  0  0
  9 10  2  0  0  0  0
  9 11  1  0  0  0  0
 11 12  1  0  0  0  0
 11 28  1  0  0  0  0
 12 18  1  0  0  0  0
 12 13  1  0  0  0  0
 12 29  1  0  0  0  0
 13 14  1  0  0  0  0
 13 30  1  0  0  0  0
 13 31  1  0  0  0  0
 14 15  1  0  0  0  0
 14 32  1  0  0  0  0
 14 33  1  0  0  0  0
 15 16  1  0  0  0  0
 15 34  1  0  0  0  0
 15 35  1  0  0  0  0
 16 17  1  0  0  0  0
 16 36  1  0  0  0  0
 16 37  1  0  0  0  0
 17 18  1  0  0  0  0
 17 38  1  0  0  0  0
 18 19  2  0  0  0  0
M  END
> <s_m_source_file>
AV-unprocessed.smi

> <i_m_source_file_index>
2181

> <i_lp_mmshare_version>
43012

> <i_f3d_flags>
0

> <s_epik_input>
W0NIM11jMW5vYyhbQ0gzXSljMVtDSDJdQyg9TylbTkhdW0NAQEhdMltDSDJdW0NIMl1bQ0gyXVtDSDJdW05IXUMyPU8=

> <s_epik_cmdline>
J2VwaWtfcHl0aG9uJywgJy1waCcsICc3LjAnLCAnLXRuJywgJzgnLCAnLW1hJywgJzIwMCcsICctbWV0YWxfYmluZGluZycsICctaW1hZScsICc8aW5maWxlLm1hZT4nLCAnLW9tYWUnLCAnPG91dGZpbGUubWFlPic=

> <r_lp_tautomer_probability>
1

> <r_epik_Ionization_Penalty>
5.91376e-08

> <r_epik_Ionization_Penalty_Charging>
0

> <r_epik_Ionization_Penalty_Neutral>
5.91376e-08

> <r_epik_State_Penalty>
-0

> <r_epik_Charging_Adjusted_Penalty>
0

> <i_epik_Tot_Q>
0

> <i_epik_Tot_abs_Q>
0

> <r_epik_Metal_State_Penalty>
-0

> <b_epik_Metal_Only>
0

> <s_lp_Force_Field>
OPLS_2005

> <r_lp_Energy>
8.47239

> <b_lp_Chiralities_Consistent>
1

> <s_lp_Variant>
AV-unprocessed.smi:2181-1

> <Gold.Version>
5.8.1

> <Gold.Id.Protein>
6NUR|6NUR_protein|mol2

> <Gold.PLP.Fitness>
36.0864

> <Gold.PLP.PLP>
-33.4087

> <Gold.PLP.part.hbond>
-2.0000

> <Gold.PLP.part.metal>
0.0000

> <Gold.PLP.part.buried>
-2.1945

> <Gold.PLP.part.nonpolar>
-28.3920

> <Gold.PLP.part.repulsive>
0.2151

> <Gold.PLP.ligand.clash>
0.0000

> <Gold.PLP.ligand.torsion>
0.4576

> <Gold.PLP.Chemscore.Hbond>
1.1794

> <Gold.PLP.Chemscore.CHOScore>
0.0000

> <Gold.PLP.Chemscore.Metal>
0.0000

> <Gold.Chemscore.Hbonds>
donor molecule, donor type, donor heavy atom, donor atom, acceptor molecule, acceptor atom, score
      P1  H  7997  8008       L1    19  0.05
      P1  H 10752 10765       L1     4  1.00

> <Gold.PLP.Chemscore.Internal.Correction>
0.0547

> <Gold.Rescore>
     Score         DG    S(hbond)    S(metal)    S(lipo)     H(rot)  DE(clash)    DE(int)     intcor
     15.79     -17.51       1.52        0.00      92.20       1.49       1.21       0.51       ----

> <Gold.Chemscore.Fitness>
15.7890

> <Gold.Chemscore.DG>
-17.5056

> <Gold.Chemscore.ZeroCoef>
-5.4800

> <Gold.Chemscore.Hbond>
1.5166

> <Gold.Chemscore.Metal>
0.0000

> <Gold.Chemscore.Lipo>
92.1975

> <Gold.Chemscore.Internal_Hbond>
0.0000

> <Gold.Chemscore.DEClash>
1.2053

> <Gold.Chemscore.DEInternal>
0.5113

> <Gold.Chemscore.Rot>
1.4949

> <Gold.Chemscore.Internal.Correction>
   9.000000E+99

> <Gold.Chemscore.Hbonds>
donor molecule, donor type, donor heavy atom, donor atom, acceptor molecule, acceptor atom, score
      P1  H  7997  8008       L1    19  0.06
      P1  H 10752 10765       L1     4  0.98

> <Gold.Chemscore.Hbond.Weighted>
-5.0654

> <Gold.Chemscore.Metal.Weighted>
-0.0000

> <Gold.Chemscore.Lipo.Weighted>
-10.7871

> <Gold.Chemscore.Internal_Hbond.Weighted>
0.0000

> <Gold.Chemscore.DEClash.Weighted>
1.2053

> <Gold.Chemscore.DEInternal.Weighted>
0.5113

> <Gold.Chemscore.Rot.Weighted>
3.8269

> <Gold.Chemscore.Internal.Correction.Weighted>
   9.000000E+99

> <Gold.Protein.RotatedTorsions>
[ 6907 6896 6895 6894 ] final  170.45 input  -60.11 | X-H torsion
[ 7974 7965 7964 7962 ] final   -2.95 input  175.53 | X-H torsion
[ 8008 7997 7996 7995 ] final  -90.92 input   59.86 | X-H torsion
[ 10167 10162 10161 10158 ] final  121.22 input  -65.29 | X-H torsion
[ 10718 10713 10712 10709 ] final   62.98 input   66.30 | X-H torsion
[ 10763 10752 10751 10750 ] final -165.65 input  -60.55 | X-H torsion
[ 11005 11000 10999 10996 ] final -137.45 input  -57.11 | X-H torsion

> <Gold.Protein.ActiveResidues>
 VAL166  LYS551  ARG553  GLY616  TRP617  ASP618  TYR619  PRO620  LYS621  CYS622 
 ASP623  PHE694  ASN695  SER759  ASP760  ASP761  ALA762  ILE779  LEU786  VAL792 
 PHE793  MET794  SER795  GLU796  ALA797  LYS798  CYS799  TRP800  GLU811  SER814 

> <Gold.Protein.RotatedAtoms>
  151.8159  133.3388  159.3569 H   0  0  0  0  0  0  0  0  0  0  0  0  # atno 6907 bound_to 6896
  150.7310  134.5620  159.5856 H   0  0  0  0  0  0  0  0  0  0  0  0  # atno 6908 bound_to 6896
  152.3041  134.7577  160.0402 H   0  0  0  0  0  0  0  0  0  0  0  0  # atno 6909 bound_to 6896
  146.2397  140.1648  142.8332 H   0  0  0  0  0  0  0  0  0  0  0  0  # atno 7974 bound_to 7965
  154.7044  140.0525  157.0489 H   0  0  0  0  0  0  0  0  0  0  0  0  # atno 8008 bound_to 7997
  155.0640  140.3192  155.4632 H   0  0  0  0  0  0  0  0  0  0  0  0  # atno 8009 bound_to 7997
  156.2770  140.2093  156.5768 H   0  0  0  0  0  0  0  0  0  0  0  0  # atno 8010 bound_to 7997
  139.5933  144.7033  151.3237 H   0  0  0  0  0  0  0  0  0  0  0  0  # atno 10167 bound_to 10162
  157.5939  130.9080  149.9657 H   0  0  0  0  0  0  0  0  0  0  0  0  # atno 10718 bound_to 10713
  154.6910  135.2971  154.9479 H   0  0  0  0  0  0  0  0  0  0  0  0  # atno 10763 bound_to 10752
  154.0442  135.6653  153.4797 H   0  0  0  0  0  0  0  0  0  0  0  0  # atno 10764 bound_to 10752
  153.0612  135.5114  154.8003 H   0  0  0  0  0  0  0  0  0  0  0  0  # atno 10765 bound_to 10752
  140.8709  134.2052  157.4651 H   0  0  0  0  0  0  0  0  0  0  0  0  # atno 11005 bound_to 11000
  145.0059  140.8672  143.5253 LP  0  0  0  0  0  0  0  0  0  0  0  0  # atno 17320 bound_to 7965
  145.1675  139.2423  143.5359 LP  0  0  0  0  0  0  0  0  0  0  0  0  # atno 17321 bound_to 7965
  140.7191  143.7185  150.7714 LP  0  0  0  0  0  0  0  0  0  0  0  0  # atno 17342 bound_to 10162
  140.0745  143.5028  152.2562 LP  0  0  0  0  0  0  0  0  0  0  0  0  # atno 17343 bound_to 10162
  156.0998  130.3656  150.0238 LP  0  0  0  0  0  0  0  0  0  0  0  0  # atno 17370 bound_to 10713
  156.8355  130.9407  151.3635 LP  0  0  0  0  0  0  0  0  0  0  0  0  # atno 17371 bound_to 10713
  139.8712  134.9774  156.4957 LP  0  0  0  0  0  0  0  0  0  0  0  0  # atno 17394 bound_to 11000
  140.8574  133.8086  155.9230 LP  0  0  0  0  0  0  0  0  0  0  0  0  # atno 17395 bound_to 11000

$$$$
