AV-unprocessed.smi:2597|AV-procd|sdf|10172|dock2
  -GOLD-   2272014183D 1   1.00000     0.00000
 Structure written by MMmdl.
 31 32  0  0  0  0  0  0  0  0  2 V2000
  150.4856  144.2356  158.0642 N   0  3  0  0  0  0  0  0  0  0  0  0
  151.6527  143.3657  158.3034 C   0  0  1  0  0  0  0  0  0  0  0  0
  152.2848  143.6940  159.6695 C   0  0  0  0  0  0  0  0  0  0  0  0
  153.4885  142.7864  159.9676 C   0  0  0  0  0  0  0  0  0  0  0  0
  153.0958  141.3035  159.8947 C   0  0  0  0  0  0  0  0  0  0  0  0
  152.4722  140.9625  158.5329 C   0  0  0  0  0  0  0  0  0  0  0  0
  151.2617  141.8671  158.2214 C   0  0  2  0  0  0  0  0  0  0  0  0
  150.6763  141.5101  156.9350 N   0  0  0  0  0  0  0  0  0  0  0  0
  149.4874  141.9498  156.3904 C   0  0  0  0  0  0  0  0  0  0  0  0
  149.4145  141.2843  155.1993 C   0  0  0  0  0  0  0  0  0  0  0  0
  148.3494  141.3353  154.1471 C   0  0  0  0  0  0  0  0  0  0  0  0
  147.8084  142.6381  154.1815 O   0  0  0  0  0  0  0  0  0  0  0  0
  150.5434  140.4774  155.0698 N   0  0  0  0  0  0  0  0  0  0  0  0
  151.2856  140.6102  156.1227 N   0  0  0  0  0  0  0  0  0  0  0  0
  152.3864  143.5918  157.5283 H   0  0  0  0  0  0  0  0  0  0  0  0
  150.5007  141.6747  158.9800 H   0  0  0  0  0  0  0  0  0  0  0  0
  150.7674  145.2039  158.1202 H   0  0  0  0  0  0  0  0  0  0  0  0
  149.7802  144.0499  158.7634 H   0  0  0  0  0  0  0  0  0  0  0  0
  152.6009  144.7376  159.6950 H   0  0  0  0  0  0  0  0  0  0  0  0
  151.5419  143.5768  160.4598 H   0  0  0  0  0  0  0  0  0  0  0  0
  154.2873  142.9892  159.2530 H   0  0  0  0  0  0  0  0  0  0  0  0
  153.8917  143.0148  160.9547 H   0  0  0  0  0  0  0  0  0  0  0  0
  153.9719  140.6779  160.0688 H   0  0  0  0  0  0  0  0  0  0  0  0
  152.3870  141.0719  160.6906 H   0  0  0  0  0  0  0  0  0  0  0  0
  153.2294  141.0699  157.7548 H   0  0  0  0  0  0  0  0  0  0  0  0
  152.1680  139.9151  158.5224 H   0  0  0  0  0  0  0  0  0  0  0  0
  148.8259  142.6543  156.8726 H   0  0  0  0  0  0  0  0  0  0  0  0
  148.7604  141.1352  153.1576 H   0  0  0  0  0  0  0  0  0  0  0  0
  147.5601  140.6069  154.3351 H   0  0  0  0  0  0  0  0  0  0  0  0
  148.3412  143.1696  154.7530 H   0  0  0  0  0  0  0  0  0  0  0  0
  150.1068  144.0478  157.1469 H   0  0  0  0  0  0  0  0  0  0  0  0
  1  2  1  0  0  0  0
  1 17  1  0  0  0  0
  1 18  1  0  0  0  0
  1 31  1  0  0  0  0
  2 15  1  0  0  0  0
  2  7  1  0  0  0  0
  2  3  1  0  0  0  0
  3  4  1  0  0  0  0
  3 19  1  0  0  0  0
  3 20  1  0  0  0  0
  4  5  1  0  0  0  0
  4 21  1  0  0  0  0
  4 22  1  0  0  0  0
  5  6  1  0  0  0  0
  5 23  1  0  0  0  0
  5 24  1  0  0  0  0
  6  7  1  0  0  0  0
  6 25  1  0  0  0  0
  6 26  1  0  0  0  0
  7 16  1  0  0  0  0
  7  8  1  0  0  0  0
  8 14  1  0  0  0  0
  8  9  1  0  0  0  0
  9 10  2  0  0  0  0
  9 27  1  0  0  0  0
 10 11  1  0  0  0  0
 10 13  1  0  0  0  0
 11 12  1  0  0  0  0
 11 28  1  0  0  0  0
 11 29  1  0  0  0  0
 12 30  1  0  0  0  0
 13 14  2  0  0  0  0
M  CHG  1   1   1
M  END
> <s_m_source_file>
AV-unprocessed.smi

> <i_m_source_file_index>
2597

> <i_lp_mmshare_version>
43012

> <i_f3d_flags>
0

> <s_epik_input>
W05IMl1bQ0BIXTFbQ0gyXVtDSDJdW0NIMl1bQ0gyXVtDQEhdMW4yW2NIXWMobm4yKVtDSDJdW09IXQ==

> <s_epik_cmdline>
J2VwaWtfcHl0aG9uJywgJy1waCcsICc3LjAnLCAnLXRuJywgJzgnLCAnLW1hJywgJzIwMCcsICctbWV0YWxfYmluZGluZycsICctaW1hZScsICc8aW5maWxlLm1hZT4nLCAnLW9tYWUnLCAnPG91dGZpbGUubWFlPic=

> <r_lp_tautomer_probability>
1

> <r_epik_Ionization_Penalty>
0.014346

> <r_epik_Ionization_Penalty_Charging>
0.014316

> <r_epik_Ionization_Penalty_Neutral>
3.00097e-05

> <r_epik_State_Penalty>
0.0111909

> <r_epik_Charging_Adjusted_Penalty>
0.0255069

> <i_epik_Tot_Q>
1

> <i_epik_Tot_abs_Q>
1

> <r_epik_Metal_State_Penalty>
0.011192

> <b_epik_Metal_Only>
0

> <s_lp_Force_Field>
OPLS_2005

> <r_lp_Energy>
13.7949

> <b_lp_Chiralities_Consistent>
1

> <s_lp_Variant>
AV-unprocessed.smi:2597-3

> <Gold.Version>
5.8.1

> <Gold.Id.Protein>
6NUR|6NUR_protein|mol2

> <Gold.PLP.Fitness>
43.8968

> <Gold.PLP.PLP>
-31.5220

> <Gold.PLP.part.hbond>
-5.2912

> <Gold.PLP.part.metal>
0.0000

> <Gold.PLP.part.buried>
-1.0095

> <Gold.PLP.part.nonpolar>
-25.6996

> <Gold.PLP.part.repulsive>
0.1460

> <Gold.PLP.ligand.clash>
0.0000

> <Gold.PLP.ligand.torsion>
0.4643

> <Gold.PLP.Chemscore.Hbond>
3.7600

> <Gold.PLP.Chemscore.CHOScore>
0.6652

> <Gold.PLP.Chemscore.Metal>
0.0000

> <Gold.Chemscore.Hbonds>
donor molecule, donor type, donor heavy atom, donor atom, acceptor molecule, acceptor atom, score
      L1  H     1    31       P1  8028  1.76
      L1  H    12    30       P1  8028  1.00
      P1  H  7989  7998       L1    13  1.00
      L1  C     9    27       P1  8028  0.59

> <Gold.PLP.Chemscore.Internal.Correction>
0.0279

> <Gold.Rescore>
     Score         DG    S(hbond)    S(metal)    S(lipo)     H(rot)  DE(clash)    DE(int)     intcor
     17.38     -18.36       2.49        0.00      79.57       1.86       0.22       0.76       ----

> <Gold.Chemscore.Fitness>
17.3828

> <Gold.Chemscore.DG>
-18.3649

> <Gold.Chemscore.ZeroCoef>
-5.4800

> <Gold.Chemscore.Hbond>
2.4924

> <Gold.Chemscore.Metal>
0.0000

> <Gold.Chemscore.Lipo>
79.5655

> <Gold.Chemscore.Internal_Hbond>
0.0000

> <Gold.Chemscore.DEClash>
0.2225

> <Gold.Chemscore.DEInternal>
0.7595

> <Gold.Chemscore.Rot>
1.8551

> <Gold.Chemscore.Internal.Correction>
   9.000000E+99

> <Gold.Chemscore.Hbonds>
donor molecule, donor type, donor heavy atom, donor atom, acceptor molecule, acceptor atom, score
      L1  H     1    31       P1  8028  0.72
      L1  H    12    30       P1  8028  0.98
      P1  H  7989  7998       L1    13  0.54

> <Gold.Chemscore.Hbond.Weighted>
-8.3247

> <Gold.Chemscore.Metal.Weighted>
-0.0000

> <Gold.Chemscore.Lipo.Weighted>
-9.3092

> <Gold.Chemscore.Internal_Hbond.Weighted>
0.0000

> <Gold.Chemscore.DEClash.Weighted>
0.2225

> <Gold.Chemscore.DEInternal.Weighted>
0.7595

> <Gold.Chemscore.Rot.Weighted>
4.7489

> <Gold.Chemscore.Internal.Correction.Weighted>
   9.000000E+99

> <Gold.Protein.RotatedTorsions>
[ 6907 6896 6895 6894 ] final  125.52 input  -60.11 | X-H torsion
[ 7974 7965 7964 7962 ] final  -14.85 input  175.53 | X-H torsion
[ 8008 7997 7996 7995 ] final   70.21 input   59.86 | X-H torsion
[ 10167 10162 10161 10158 ] final -153.87 input  -65.29 | X-H torsion
[ 10718 10713 10712 10709 ] final  124.36 input   66.30 | X-H torsion
[ 10763 10752 10751 10750 ] final -100.64 input  -60.55 | X-H torsion
[ 11005 11000 10999 10996 ] final -134.62 input  -57.11 | X-H torsion

> <Gold.Protein.ActiveResidues>
 VAL166  LYS551  ARG553  GLY616  TRP617  ASP618  TYR619  PRO620  LYS621  CYS622 
 ASP623  PHE694  ASN695  SER759  ASP760  ASP761  ALA762  ILE779  LEU786  VAL792 
 PHE793  MET794  SER795  GLU796  ALA797  LYS798  CYS799  TRP800  GLU811  SER814 

> <Gold.Protein.RotatedAtoms>
  152.3984  133.6781  159.6295 H   0  0  0  0  0  0  0  0  0  0  0  0  # atno 6907 bound_to 6896
  150.7879  133.8833  159.3301 H   0  0  0  0  0  0  0  0  0  0  0  0  # atno 6908 bound_to 6896
  151.6604  135.0991  160.0230 H   0  0  0  0  0  0  0  0  0  0  0  0  # atno 6909 bound_to 6896
  146.2057  140.3408  142.8408 H   0  0  0  0  0  0  0  0  0  0  0  0  # atno 7974 bound_to 7965
  155.7354  140.3491  155.5079 H   0  0  0  0  0  0  0  0  0  0  0  0  # atno 8008 bound_to 7997
  155.9144  140.1056  157.1276 H   0  0  0  0  0  0  0  0  0  0  0  0  # atno 8009 bound_to 7997
  154.4060  140.1261  156.4585 H   0  0  0  0  0  0  0  0  0  0  0  0  # atno 8010 bound_to 7997
  139.7060  143.9185  152.2449 H   0  0  0  0  0  0  0  0  0  0  0  0  # atno 10167 bound_to 10162
  157.5591  131.1090  150.8569 H   0  0  0  0  0  0  0  0  0  0  0  0  # atno 10718 bound_to 10713
  154.7595  135.4927  153.9438 H   0  0  0  0  0  0  0  0  0  0  0  0  # atno 10763 bound_to 10752
  153.1235  135.6737  153.9304 H   0  0  0  0  0  0  0  0  0  0  0  0  # atno 10764 bound_to 10752
  153.9029  135.3108  155.3427 H   0  0  0  0  0  0  0  0  0  0  0  0  # atno 10765 bound_to 10752
  140.8974  134.1735  157.4485 H   0  0  0  0  0  0  0  0  0  0  0  0  # atno 11005 bound_to 11000
  144.8787  140.7371  143.6000 LP  0  0  0  0  0  0  0  0  0  0  0  0  # atno 17320 bound_to 7965
  145.3328  139.1755  143.4528 LP  0  0  0  0  0  0  0  0  0  0  0  0  # atno 17321 bound_to 7965
  139.9041  144.6895  150.8633 LP  0  0  0  0  0  0  0  0  0  0  0  0  # atno 17342 bound_to 10162
  140.7722  143.3492  151.2049 LP  0  0  0  0  0  0  0  0  0  0  0  0  # atno 17343 bound_to 10162
  156.9072  130.5268  149.5281 LP  0  0  0  0  0  0  0  0  0  0  0  0  # atno 17370 bound_to 10713
  156.0646  130.5692  150.9263 LP  0  0  0  0  0  0  0  0  0  0  0  0  # atno 17371 bound_to 10713
  139.8737  134.9884  156.5409 LP  0  0  0  0  0  0  0  0  0  0  0  0  # atno 17394 bound_to 11000
  140.8273  133.8307  155.8951 LP  0  0  0  0  0  0  0  0  0  0  0  0  # atno 17395 bound_to 11000

$$$$
