AV-unprocessed.smi:571|AV-procd|sdf|2964|dock5
  -GOLD-   2262023473D 1   1.00000     0.00000
 Structure written by MMmdl.
 44 45  0  0  0  0  0  0  0  0  2 V2000
  149.3312  134.5632  156.4265 C   0  0  0  0  0  0  0  0  0  0  0  0
  149.9987  134.3822  155.0564 C   0  0  1  0  0  0  0  0  0  0  0  0
  149.1617  133.4614  154.1398 C   0  0  0  0  0  0  0  0  0  0  0  0
  148.1920  134.2041  153.2940 N   0  3  0  0  0  0  0  0  0  0  0  0
  147.1559  134.9094  154.0913 C   0  0  0  0  0  0  0  0  0  0  0  0
  146.2724  135.7904  153.1920 C   0  0  0  0  0  0  0  0  0  0  0  0
  145.6311  134.9642  152.0693 C   0  0  0  0  0  0  0  0  0  0  0  0
  146.7152  134.2132  151.2852 C   0  0  0  0  0  0  0  0  0  0  0  0
  147.5869  133.3649  152.2259 C   0  0  0  0  0  0  0  0  0  0  0  0
  150.1958  135.6972  154.4474 N   0  0  0  0  0  0  0  0  0  0  0  0
  150.9680  136.6893  154.9256 C   0  0  0  0  0  0  0  0  0  0  0  0
  151.6376  136.5749  155.9512 O   0  0  0  0  0  0  0  0  0  0  0  0
  151.0258  138.0121  154.1426 C   0  0  0  0  0  0  0  0  0  0  0  0
  150.8794  139.2288  154.9618 N   0  0  0  0  0  0  0  0  0  0  0  0
  151.8884  139.4838  155.9119 C   0  0  0  0  0  0  0  0  0  0  0  0
  151.8555  140.5624  156.7103 C   0  0  0  0  0  0  0  0  0  0  0  0
  150.7450  141.4756  156.5781 C   0  0  0  0  0  0  0  0  0  0  0  0
  149.7773  141.2440  155.6692 C   0  0  0  0  0  0  0  0  0  0  0  0
  149.8130  140.0702  154.7893 C   0  0  0  0  0  0  0  0  0  0  0  0
  148.9438  139.8598  153.9432 O   0  0  0  0  0  0  0  0  0  0  0  0
  149.1971  133.6039  156.9271 H   0  0  0  0  0  0  0  0  0  0  0  0
  148.3499  135.0304  156.3347 H   0  0  0  0  0  0  0  0  0  0  0  0
  149.9382  135.1913  157.0795 H   0  0  0  0  0  0  0  0  0  0  0  0
  150.9699  133.9206  155.2393 H   0  0  0  0  0  0  0  0  0  0  0  0
  149.8094  132.8529  153.5068 H   0  0  0  0  0  0  0  0  0  0  0  0
  148.6184  132.7613  154.7764 H   0  0  0  0  0  0  0  0  0  0  0  0
  146.5457  134.1798  154.6263 H   0  0  0  0  0  0  0  0  0  0  0  0
  147.6336  135.5382  154.8438 H   0  0  0  0  0  0  0  0  0  0  0  0
  145.4978  136.2738  153.7879 H   0  0  0  0  0  0  0  0  0  0  0  0
  146.8748  136.5905  152.7593 H   0  0  0  0  0  0  0  0  0  0  0  0
  144.9227  134.2518  152.4940 H   0  0  0  0  0  0  0  0  0  0  0  0
  145.0621  135.6119  151.4017 H   0  0  0  0  0  0  0  0  0  0  0  0
  146.2539  133.5771  150.5291 H   0  0  0  0  0  0  0  0  0  0  0  0
  147.3425  134.9268  150.7491 H   0  0  0  0  0  0  0  0  0  0  0  0
  148.3666  132.8767  151.6422 H   0  0  0  0  0  0  0  0  0  0  0  0
  146.9889  132.5723  152.6781 H   0  0  0  0  0  0  0  0  0  0  0  0
  149.6790  135.8798  153.5988 H   0  0  0  0  0  0  0  0  0  0  0  0
  151.9634  138.0411  153.5847 H   0  0  0  0  0  0  0  0  0  0  0  0
  150.2485  137.9839  153.3776 H   0  0  0  0  0  0  0  0  0  0  0  0
  152.6846  138.7541  155.9447 H   0  0  0  0  0  0  0  0  0  0  0  0
  152.6384  140.7429  157.4323 H   0  0  0  0  0  0  0  0  0  0  0  0
  150.6893  142.3486  157.2117 H   0  0  0  0  0  0  0  0  0  0  0  0
  148.9539  141.9382  155.5853 H   0  0  0  0  0  0  0  0  0  0  0  0
  148.7239  134.9265  152.8294 H   0  0  0  0  0  0  0  0  0  0  0  0
  1  2  1  0  0  0  0
  1 21  1  0  0  0  0
  1 22  1  0  0  0  0
  1 23  1  0  0  0  0
  2  3  1  0  0  0  0
  2 10  1  0  0  0  0
  2 24  1  0  0  0  0
  3  4  1  0  0  0  0
  3 25  1  0  0  0  0
  3 26  1  0  0  0  0
  4  9  1  0  0  0  0
  4  5  1  0  0  0  0
  4 44  1  0  0  0  0
  5  6  1  0  0  0  0
  5 27  1  0  0  0  0
  5 28  1  0  0  0  0
  6  7  1  0  0  0  0
  6 29  1  0  0  0  0
  6 30  1  0  0  0  0
  7  8  1  0  0  0  0
  7 31  1  0  0  0  0
  7 32  1  0  0  0  0
  8  9  1  0  0  0  0
  8 33  1  0  0  0  0
  8 34  1  0  0  0  0
  9 35  1  0  0  0  0
  9 36  1  0  0  0  0
 10 11  1  0  0  0  0
 10 37  1  0  0  0  0
 11 12  2  0  0  0  0
 11 13  1  0  0  0  0
 13 14  1  0  0  0  0
 13 38  1  0  0  0  0
 13 39  1  0  0  0  0
 14 19  1  0  0  0  0
 14 15  1  0  0  0  0
 15 16  2  0  0  0  0
 15 40  1  0  0  0  0
 16 17  1  0  0  0  0
 16 41  1  0  0  0  0
 17 18  2  0  0  0  0
 17 42  1  0  0  0  0
 18 19  1  0  0  0  0
 18 43  1  0  0  0  0
 19 20  2  0  0  0  0
M  CHG  1   4   1
M  END
> <s_m_source_file>
AV-unprocessed.smi

> <i_m_source_file_index>
571

> <i_lp_mmshare_version>
43012

> <i_f3d_flags>
0

> <s_epik_input>
W0NIMl0xW0NIMl1bQ0gyXVtDSDJdW0NIMl1OMVtDSDJdW0NAQEhdKFtDSDNdKVtOSF1DKD1PKVtDSDJdbjJbY0hdW2NIXVtjSF1bY0hdYzI9Tw==

> <s_epik_cmdline>
J2VwaWtfcHl0aG9uJywgJy1waCcsICc3LjAnLCAnLXRuJywgJzgnLCAnLW1hJywgJzIwMCcsICctbWV0YWxfYmluZGluZycsICctaW1hZScsICc8aW5maWxlLm1hZT4nLCAnLW9tYWUnLCAnPG91dGZpbGUubWFlPic=

> <r_lp_tautomer_probability>
1

> <r_epik_Ionization_Penalty>
0.00237248

> <r_epik_Ionization_Penalty_Charging>
0.0023724

> <r_epik_Ionization_Penalty_Neutral>
8.2065e-08

> <r_epik_State_Penalty>
0.00163922

> <r_epik_Charging_Adjusted_Penalty>
0.00401161

> <i_epik_Tot_Q>
1

> <i_epik_Tot_abs_Q>
1

> <r_epik_Metal_State_Penalty>
-0

> <b_epik_Metal_Only>
0

> <s_lp_Force_Field>
OPLS_2005

> <r_lp_Energy>
32.4052

> <b_lp_Chiralities_Consistent>
1

> <s_lp_Variant>
AV-unprocessed.smi:571-2

> <Gold.Version>
5.8.1

> <Gold.Id.Protein>
6NUR|6NUR_protein|mol2

> <Gold.PLP.Fitness>
46.2593

> <Gold.PLP.PLP>
-35.3517

> <Gold.PLP.part.hbond>
-3.8982

> <Gold.PLP.part.metal>
0.0000

> <Gold.PLP.part.buried>
-2.1993

> <Gold.PLP.part.nonpolar>
-29.2396

> <Gold.PLP.part.repulsive>
0.7232

> <Gold.PLP.ligand.clash>
0.0000

> <Gold.PLP.ligand.torsion>
0.6095

> <Gold.PLP.Chemscore.Hbond>
4.0000

> <Gold.PLP.Chemscore.CHOScore>
0.0000

> <Gold.PLP.Chemscore.Metal>
0.0000

> <Gold.Chemscore.Hbonds>
donor molecule, donor type, donor heavy atom, donor atom, acceptor molecule, acceptor atom, score
      L1  H     4    44       P1  7948  1.90
      L1  H    10    37       P1  7948  0.90
      P1  H 10752 10763       L1    12  0.65

> <Gold.PLP.Chemscore.Internal.Correction>
0.1266

> <Gold.Rescore>
     Score         DG    S(hbond)    S(metal)    S(lipo)     H(rot)  DE(clash)    DE(int)     intcor
     14.05     -16.77       2.60        0.00      62.63       1.84       0.16       2.56       ----

> <Gold.Chemscore.Fitness>
14.0486

> <Gold.Chemscore.DG>
-16.7738

> <Gold.Chemscore.ZeroCoef>
-5.4800

> <Gold.Chemscore.Hbond>
2.5986

> <Gold.Chemscore.Metal>
0.0000

> <Gold.Chemscore.Lipo>
62.6333

> <Gold.Chemscore.Internal_Hbond>
0.0000

> <Gold.Chemscore.DEClash>
0.1635

> <Gold.Chemscore.DEInternal>
2.5617

> <Gold.Chemscore.Rot>
1.8413

> <Gold.Chemscore.Internal.Correction>
   9.000000E+99

> <Gold.Chemscore.Hbonds>
donor molecule, donor type, donor heavy atom, donor atom, acceptor molecule, acceptor atom, score
      L1  H     4    44       P1  7948  0.21
      L1  H    10    37       P1  7948  0.18
      P1  H 10752 10763       L1    12  0.06

> <Gold.Chemscore.Hbond.Weighted>
-8.6794

> <Gold.Chemscore.Metal.Weighted>
-0.0000

> <Gold.Chemscore.Lipo.Weighted>
-7.3281

> <Gold.Chemscore.Internal_Hbond.Weighted>
0.0000

> <Gold.Chemscore.DEClash.Weighted>
0.1635

> <Gold.Chemscore.DEInternal.Weighted>
2.5617

> <Gold.Chemscore.Rot.Weighted>
4.7137

> <Gold.Chemscore.Internal.Correction.Weighted>
   9.000000E+99

> <Gold.Protein.RotatedTorsions>
[ 6907 6896 6895 6894 ] final  -25.92 input  -60.11 | X-H torsion
[ 7974 7965 7964 7962 ] final   61.12 input  175.53 | X-H torsion
[ 8008 7997 7996 7995 ] final  -20.70 input   59.86 | X-H torsion
[ 10167 10162 10161 10158 ] final  -96.10 input  -65.29 | X-H torsion
[ 10718 10713 10712 10709 ] final   51.28 input   66.30 | X-H torsion
[ 10763 10752 10751 10750 ] final   88.34 input  -60.55 | X-H torsion
[ 11005 11000 10999 10996 ] final -143.71 input  -57.11 | X-H torsion

> <Gold.Protein.ActiveResidues>
 VAL166  LYS551  ARG553  GLY616  TRP617  ASP618  TYR619  PRO620  LYS621  CYS622 
 ASP623  PHE694  ASN695  SER759  ASP760  ASP761  ALA762  ILE779  LEU786  VAL792 
 PHE793  MET794  SER795  GLU796  ALA797  LYS798  CYS799  TRP800  GLU811  SER814 

> <Gold.Protein.RotatedAtoms>
  151.1683  135.0306  159.8740 H   0  0  0  0  0  0  0  0  0  0  0  0  # atno 6907 bound_to 6896
  152.5449  134.1200  159.8405 H   0  0  0  0  0  0  0  0  0  0  0  0  # atno 6908 bound_to 6896
  151.1303  133.4995  159.2632 H   0  0  0  0  0  0  0  0  0  0  0  0  # atno 6909 bound_to 6896
  145.8884  139.3493  143.0664 H   0  0  0  0  0  0  0  0  0  0  0  0  # atno 7974 bound_to 7965
  154.4752  140.2054  155.9895 H   0  0  0  0  0  0  0  0  0  0  0  0  # atno 8008 bound_to 7997
  156.1078  140.3234  155.8000 H   0  0  0  0  0  0  0  0  0  0  0  0  # atno 8009 bound_to 7997
  155.4688  140.0529  157.2973 H   0  0  0  0  0  0  0  0  0  0  0  0  # atno 8010 bound_to 7997
  140.2973  143.3184  152.0284 H   0  0  0  0  0  0  0  0  0  0  0  0  # atno 10167 bound_to 10162
  157.4965  130.8410  149.8265 H   0  0  0  0  0  0  0  0  0  0  0  0  # atno 10718 bound_to 10713
  153.1759  135.4510  154.9964 H   0  0  0  0  0  0  0  0  0  0  0  0  # atno 10763 bound_to 10752
  154.7997  135.3251  154.7582 H   0  0  0  0  0  0  0  0  0  0  0  0  # atno 10764 bound_to 10752
  153.8052  135.6959  153.4904 H   0  0  0  0  0  0  0  0  0  0  0  0  # atno 10765 bound_to 10752
  140.8098  134.2758  157.4945 H   0  0  0  0  0  0  0  0  0  0  0  0  # atno 11005 bound_to 11000
  145.8939  140.9286  143.0538 LP  0  0  0  0  0  0  0  0  0  0  0  0  # atno 17320 bound_to 7965
  144.6729  140.0942  143.7463 LP  0  0  0  0  0  0  0  0  0  0  0  0  # atno 17321 bound_to 7965
  139.4923  144.6481  151.6734 LP  0  0  0  0  0  0  0  0  0  0  0  0  # atno 17342 bound_to 10162
  140.5681  144.0155  150.6202 LP  0  0  0  0  0  0  0  0  0  0  0  0  # atno 17343 bound_to 10162
  156.0204  130.3798  150.1981 LP  0  0  0  0  0  0  0  0  0  0  0  0  # atno 17370 bound_to 10713
  157.0170  130.9968  151.3350 LP  0  0  0  0  0  0  0  0  0  0  0  0  # atno 17371 bound_to 10713
  139.8715  134.9477  156.3974 LP  0  0  0  0  0  0  0  0  0  0  0  0  # atno 17394 bound_to 11000
  140.9209  133.7645  155.9906 LP  0  0  0  0  0  0  0  0  0  0  0  0  # atno 17395 bound_to 11000

$$$$
