AV-unprocessed.smi:2836|AV-procd|sdf|10919|dock6
  -GOLD-   2272015363D 1   1.00000     0.00000
 Structure written by MMmdl.
 30 31  0  0  0  0  0  0  0  0  1 V2000
  146.4500  140.6144  153.3227 N   0  0  0  0  0  0  0  0  0  0  0  0
  146.8970  141.3848  154.3185 C   0  0  0  0  0  0  0  0  0  0  0  0
  146.2036  142.2419  154.8615 O   0  0  0  0  0  0  0  0  0  0  0  0
  148.3295  141.1869  154.7050 C   0  0  0  0  0  0  0  0  0  0  0  0
  149.2228  140.2267  154.1616 C   0  0  0  0  0  0  0  0  0  0  0  0
  150.4257  140.3407  154.7051 N   0  0  0  0  0  0  0  0  0  0  0  0
  150.3236  141.3758  155.5778 N   0  0  0  0  0  0  0  0  0  0  0  0
  151.4861  141.7891  156.3417 C   0  0  0  0  0  0  0  0  0  0  0  0
  151.2598  141.6527  157.8541 C   0  0  0  0  0  0  0  0  0  0  0  0
  152.5027  141.3922  158.4920 O   0  0  0  0  0  0  0  0  0  0  0  0
  152.7162  141.8983  159.7564 C   0  0  0  0  0  0  0  0  0  0  0  0
  152.0830  143.0635  160.2589 C   0  0  0  0  0  0  0  0  0  0  0  0
  152.3516  143.5145  161.5657 C   0  0  0  0  0  0  0  0  0  0  0  0
  153.2531  142.8109  162.3848 C   0  0  0  0  0  0  0  0  0  0  0  0
  153.5095  143.2455  163.6412 F   0  0  0  0  0  0  0  0  0  0  0  0
  153.8874  141.6546  161.8954 C   0  0  0  0  0  0  0  0  0  0  0  0
  153.6202  141.2011  160.5888 C   0  0  0  0  0  0  0  0  0  0  0  0
  154.4142  139.7802  160.0097 Cl  0  0  0  0  0  0  0  0  0  0  0  0
  149.0550  141.9215  155.5964 C   0  0  0  0  0  0  0  0  0  0  0  0
  145.4933  140.7038  153.0125 H   0  0  0  0  0  0  0  0  0  0  0  0
  147.0685  139.9502  152.8809 H   0  0  0  0  0  0  0  0  0  0  0  0
  149.0441  139.4691  153.4128 H   0  0  0  0  0  0  0  0  0  0  0  0
  152.3373  141.1816  156.0323 H   0  0  0  0  0  0  0  0  0  0  0  0
  151.7279  142.8224  156.0880 H   0  0  0  0  0  0  0  0  0  0  0  0
  150.8220  142.5736  158.2430 H   0  0  0  0  0  0  0  0  0  0  0  0
  150.5588  140.8385  158.0436 H   0  0  0  0  0  0  0  0  0  0  0  0
  151.3840  143.6289  159.6621 H   0  0  0  0  0  0  0  0  0  0  0  0
  151.8633  144.4021  161.9404 H   0  0  0  0  0  0  0  0  0  0  0  0
  154.5799  141.1143  162.5241 H   0  0  0  0  0  0  0  0  0  0  0  0
  148.7922  142.7613  156.2228 H   0  0  0  0  0  0  0  0  0  0  0  0
  1  2  1  0  0  0  0
  1 20  1  0  0  0  0
  1 21  1  0  0  0  0
  2  3  2  0  0  0  0
  2  4  1  0  0  0  0
  4 19  2  0  0  0  0
  4  5  1  0  0  0  0
  5  6  2  0  0  0  0
  5 22  1  0  0  0  0
  6  7  1  0  0  0  0
  7  8  1  0  0  0  0
  7 19  1  0  0  0  0
  8  9  1  0  0  0  0
  8 23  1  0  0  0  0
  8 24  1  0  0  0  0
  9 10  1  0  0  0  0
  9 25  1  0  0  0  0
  9 26  1  0  0  0  0
 10 11  1  0  0  0  0
 11 17  1  0  0  0  0
 11 12  2  0  0  0  0
 12 13  1  0  0  0  0
 12 27  1  0  0  0  0
 13 14  2  0  0  0  0
 13 28  1  0  0  0  0
 14 15  1  0  0  0  0
 14 16  1  0  0  0  0
 16 17  2  0  0  0  0
 16 29  1  0  0  0  0
 17 18  1  0  0  0  0
 19 30  1  0  0  0  0
M  END
> <s_m_source_file>
AV-unprocessed.smi

> <i_m_source_file_index>
2836

> <i_lp_mmshare_version>
43012

> <i_f3d_flags>
0

> <s_epik_input>
W05IMl1DKD1PKWMxW2NIXW5uKFtjSF0xKVtDSDJdW0NIMl1PYzJbY0hdW2NIXWMoRilbY0hdYzJDbA==

> <s_epik_cmdline>
J2VwaWtfcHl0aG9uJywgJy1waCcsICc3LjAnLCAnLXRuJywgJzgnLCAnLW1hJywgJzIwMCcsICctbWV0YWxfYmluZGluZycsICctaW1hZScsICc8aW5maWxlLm1hZT4nLCAnLW9tYWUnLCAnPG91dGZpbGUubWFlPic=

> <r_lp_tautomer_probability>
1

> <r_epik_Ionization_Penalty>
2.53738e-06

> <r_epik_Ionization_Penalty_Charging>
0

> <r_epik_Ionization_Penalty_Neutral>
2.53738e-06

> <r_epik_State_Penalty>
-0

> <r_epik_Charging_Adjusted_Penalty>
0

> <i_epik_Tot_Q>
0

> <i_epik_Tot_abs_Q>
0

> <r_epik_Metal_State_Penalty>
-0

> <b_epik_Metal_Only>
0

> <s_lp_Force_Field>
OPLS_2005

> <r_lp_Energy>
11.0812

> <b_lp_Chiralities_Consistent>
1

> <s_lp_Variant>
AV-unprocessed.smi:2836-1

> <Gold.Version>
5.8.1

> <Gold.Id.Protein>
6NUR|6NUR_protein|mol2

> <Gold.PLP.Fitness>
53.1810

> <Gold.PLP.PLP>
-43.7704

> <Gold.PLP.part.hbond>
-2.0000

> <Gold.PLP.part.metal>
0.0000

> <Gold.PLP.part.buried>
-3.1764

> <Gold.PLP.part.nonpolar>
-38.0571

> <Gold.PLP.part.repulsive>
0.2589

> <Gold.PLP.ligand.clash>
0.0000

> <Gold.PLP.ligand.torsion>
0.7816

> <Gold.PLP.Chemscore.Hbond>
2.0000

> <Gold.PLP.Chemscore.CHOScore>
1.6417

> <Gold.PLP.Chemscore.Metal>
0.0000

> <Gold.Chemscore.Hbonds>
donor molecule, donor type, donor heavy atom, donor atom, acceptor molecule, acceptor atom, score
      L1  H     1    20       P1 10175  1.00
      P1  H  7989  7998       L1     6  1.00
      L1  C     5    22       P1  7957  0.74
      L1  C    19    30       P1  8028  0.91

> <Gold.PLP.Chemscore.Internal.Correction>
0.0487

> <Gold.Rescore>
     Score         DG    S(hbond)    S(metal)    S(lipo)     H(rot)  DE(clash)    DE(int)     intcor
     17.82     -18.97       1.83        0.00     104.37       1.89       0.17       0.98       ----

> <Gold.Chemscore.Fitness>
17.8172

> <Gold.Chemscore.DG>
-18.9659

> <Gold.Chemscore.ZeroCoef>
-5.4800

> <Gold.Chemscore.Hbond>
1.8271

> <Gold.Chemscore.Metal>
0.0000

> <Gold.Chemscore.Lipo>
104.3652

> <Gold.Chemscore.Internal_Hbond>
0.0000

> <Gold.Chemscore.DEClash>
0.1732

> <Gold.Chemscore.DEInternal>
0.9754

> <Gold.Chemscore.Rot>
1.8857

> <Gold.Chemscore.Internal.Correction>
   9.000000E+99

> <Gold.Chemscore.Hbonds>
donor molecule, donor type, donor heavy atom, donor atom, acceptor molecule, acceptor atom, score
      L1  H     1    20       P1 10175  0.65
      P1  H  7989  7998       L1     6  0.38

> <Gold.Chemscore.Hbond.Weighted>
-6.1026

> <Gold.Chemscore.Metal.Weighted>
-0.0000

> <Gold.Chemscore.Lipo.Weighted>
-12.2107

> <Gold.Chemscore.Internal_Hbond.Weighted>
0.0000

> <Gold.Chemscore.DEClash.Weighted>
0.1732

> <Gold.Chemscore.DEInternal.Weighted>
0.9754

> <Gold.Chemscore.Rot.Weighted>
4.8275

> <Gold.Chemscore.Internal.Correction.Weighted>
   9.000000E+99

> <Gold.Protein.RotatedTorsions>
[ 6907 6896 6895 6894 ] final  -44.19 input  -60.11 | X-H torsion
[ 7974 7965 7964 7962 ] final   -3.58 input  175.53 | X-H torsion
[ 8008 7997 7996 7995 ] final  142.39 input   59.86 | X-H torsion
[ 10167 10162 10161 10158 ] final  125.70 input  -65.29 | X-H torsion
[ 10718 10713 10712 10709 ] final   57.13 input   66.30 | X-H torsion
[ 10763 10752 10751 10750 ] final   64.03 input  -60.55 | X-H torsion
[ 11005 11000 10999 10996 ] final   29.99 input  -57.11 | X-H torsion

> <Gold.Protein.ActiveResidues>
 VAL166  LYS551  ARG553  GLY616  TRP617  ASP618  TYR619  PRO620  LYS621  CYS622 
 ASP623  PHE694  ASN695  SER759  ASP760  ASP761  ALA762  ILE779  LEU786  VAL792 
 PHE793  MET794  SER795  GLU796  ALA797  LYS798  CYS799  TRP800  GLU811  SER814 

> <Gold.Protein.RotatedAtoms>
  150.9355  134.8768  159.7578 H   0  0  0  0  0  0  0  0  0  0  0  0  # atno 6907 bound_to 6896
  152.5057  134.4017  159.9428 H   0  0  0  0  0  0  0  0  0  0  0  0  # atno 6908 bound_to 6896
  151.4041  133.3708  159.2771 H   0  0  0  0  0  0  0  0  0  0  0  0  # atno 6909 bound_to 6896
  146.2387  140.1743  142.8332 H   0  0  0  0  0  0  0  0  0  0  0  0  # atno 7974 bound_to 7965
  156.2950  140.2290  156.4720 H   0  0  0  0  0  0  0  0  0  0  0  0  # atno 8008 bound_to 7997
  154.7927  140.0453  157.1234 H   0  0  0  0  0  0  0  0  0  0  0  0  # atno 8009 bound_to 7997
  154.9626  140.3056  155.5027 H   0  0  0  0  0  0  0  0  0  0  0  0  # atno 8010 bound_to 7997
  139.5671  144.6918  151.3880 H   0  0  0  0  0  0  0  0  0  0  0  0  # atno 10167 bound_to 10162
  157.5489  130.8751  149.8933 H   0  0  0  0  0  0  0  0  0  0  0  0  # atno 10718 bound_to 10713
  153.0040  135.5408  154.6445 H   0  0  0  0  0  0  0  0  0  0  0  0  # atno 10763 bound_to 10752
  154.5692  135.2840  155.0846 H   0  0  0  0  0  0  0  0  0  0  0  0  # atno 10764 bound_to 10752
  154.2018  135.6482  153.5142 H   0  0  0  0  0  0  0  0  0  0  0  0  # atno 10765 bound_to 10752
  140.2991  134.2777  155.7758 H   0  0  0  0  0  0  0  0  0  0  0  0  # atno 11005 bound_to 11000
  144.9986  140.8612  143.5295 LP  0  0  0  0  0  0  0  0  0  0  0  0  # atno 17320 bound_to 7965
  145.1759  139.2378  143.5318 LP  0  0  0  0  0  0  0  0  0  0  0  0  # atno 17321 bound_to 7965
  140.6955  143.7759  150.7320 LP  0  0  0  0  0  0  0  0  0  0  0  0  # atno 17342 bound_to 10162
  140.1254  143.4574  152.2287 LP  0  0  0  0  0  0  0  0  0  0  0  0  # atno 17343 bound_to 10162
  156.0559  130.3708  150.1092 LP  0  0  0  0  0  0  0  0  0  0  0  0  # atno 17370 bound_to 10713
  156.9266  130.9700  151.3540 LP  0  0  0  0  0  0  0  0  0  0  0  0  # atno 17371 bound_to 10713
  141.2131  133.7634  156.9739 LP  0  0  0  0  0  0  0  0  0  0  0  0  # atno 17394 bound_to 11000
  140.1126  134.9467  157.2087 LP  0  0  0  0  0  0  0  0  0  0  0  0  # atno 17395 bound_to 11000

$$$$
