AV-unprocessed.smi:2278|AV-procd|sdf|9179|dock8
  -GOLD-   2272012393D 1   1.00000     0.00000
 Structure written by MMmdl.
 46 47  0  0  0  0  0  0  0  0  2 V2000
  151.7398  139.1851  156.4266 C   0  0  0  0  0  0  0  0  0  0  0  0
  150.5511  139.4680  155.5253 C   0  0  0  0  0  0  0  0  0  0  0  0
  149.9902  138.3524  154.8970 N   0  0  0  0  0  0  0  0  0  0  0  0
  148.9706  138.4974  154.1159 C   0  0  0  0  0  0  0  0  0  0  0  0
  148.3955  139.7569  153.8764 N   0  0  0  0  0  0  0  0  0  0  0  0
  147.2266  139.7744  152.9786 C   0  0  0  0  0  0  0  0  0  0  0  0
  147.0439  138.4462  152.2091 C   0  0  2  0  0  0  0  0  0  0  0  0
  146.6186  138.7646  150.8993 O   0  0  0  0  0  0  0  0  0  0  0  0
  146.0001  137.5012  152.8440 C   0  0  0  0  0  0  0  0  0  0  0  0
  146.0900  136.1144  152.3209 N   0  3  2  0  0  0  0  0  0  0  0  0
  145.1283  135.8677  151.2157 C   0  0  0  0  0  0  0  0  0  0  0  0
  145.3359  134.4745  150.5985 C   0  0  0  0  0  0  0  0  0  0  0  0
  145.2232  133.3692  151.6617 C   0  0  1  0  0  0  0  0  0  0  0  0
  145.4613  131.9765  151.0614 C   0  0  0  0  0  0  0  0  0  0  0  0
  146.2015  133.6694  152.8097 C   0  0  0  0  0  0  0  0  0  0  0  0
  145.9762  135.0787  153.3822 C   0  0  0  0  0  0  0  0  0  0  0  0
  148.8885  140.8979  154.4406 C   0  0  0  0  0  0  0  0  0  0  0  0
  148.3793  141.9993  154.2244 O   0  0  0  0  0  0  0  0  0  0  0  0
  150.0473  140.7170  155.3299 C   0  0  0  0  0  0  0  0  0  0  0  0
  150.6123  141.9675  155.9923 C   0  0  0  0  0  0  0  0  0  0  0  0
  152.6177  139.7349  156.0863 H   0  0  0  0  0  0  0  0  0  0  0  0
  151.9923  138.1239  156.4305 H   0  0  0  0  0  0  0  0  0  0  0  0
  151.5193  139.4801  157.4529 H   0  0  0  0  0  0  0  0  0  0  0  0
  148.4944  137.6598  153.6029 H   0  0  0  0  0  0  0  0  0  0  0  0
  146.3116  140.0158  153.5226 H   0  0  0  0  0  0  0  0  0  0  0  0
  147.3380  140.5946  152.2660 H   0  0  0  0  0  0  0  0  0  0  0  0
  148.0112  137.9519  152.1267 H   0  0  0  0  0  0  0  0  0  0  0  0
  145.6893  138.6035  150.8344 H   0  0  0  0  0  0  0  0  0  0  0  0
  146.1078  137.4656  153.9278 H   0  0  0  0  0  0  0  0  0  0  0  0
  145.0064  137.9092  152.6516 H   0  0  0  0  0  0  0  0  0  0  0  0
  144.1079  135.9673  151.5898 H   0  0  0  0  0  0  0  0  0  0  0  0
  145.2570  136.6228  150.4392 H   0  0  0  0  0  0  0  0  0  0  0  0
  144.6010  134.3105  149.8095 H   0  0  0  0  0  0  0  0  0  0  0  0
  146.3162  134.4310  150.1209 H   0  0  0  0  0  0  0  0  0  0  0  0
  144.2096  133.3875  152.0652 H   0  0  0  0  0  0  0  0  0  0  0  0
  146.4615  131.8929  150.6353 H   0  0  0  0  0  0  0  0  0  0  0  0
  144.7433  131.7629  150.2691 H   0  0  0  0  0  0  0  0  0  0  0  0
  145.3561  131.1990  151.8185 H   0  0  0  0  0  0  0  0  0  0  0  0
  146.0839  132.9298  153.6027 H   0  0  0  0  0  0  0  0  0  0  0  0
  147.2295  133.5808  152.4552 H   0  0  0  0  0  0  0  0  0  0  0  0
  146.7055  135.2588  154.1710 H   0  0  0  0  0  0  0  0  0  0  0  0
  144.9907  135.1395  153.8472 H   0  0  0  0  0  0  0  0  0  0  0  0
  149.8468  142.4479  156.6022 H   0  0  0  0  0  0  0  0  0  0  0  0
  150.9383  142.6802  155.2343 H   0  0  0  0  0  0  0  0  0  0  0  0
  151.4646  141.7642  156.6384 H   0  0  0  0  0  0  0  0  0  0  0  0
  147.0115  136.0271  151.9157 H   0  0  0  0  0  0  0  0  0  0  0  0
  1  2  1  0  0  0  0
  1 21  1  0  0  0  0
  1 22  1  0  0  0  0
  1 23  1  0  0  0  0
  2 19  2  0  0  0  0
  2  3  1  0  0  0  0
  3  4  2  0  0  0  0
  4  5  1  0  0  0  0
  4 24  1  0  0  0  0
  5  6  1  0  0  0  0
  5 17  1  0  0  0  0
  6  7  1  0  0  0  0
  6 25  1  0  0  0  0
  6 26  1  0  0  0  0
  7  8  1  0  0  0  0
  7  9  1  0  0  0  0
  7 27  1  0  0  0  0
  8 28  1  0  0  0  0
  9 10  1  0  0  0  0
  9 29  1  0  0  0  0
  9 30  1  0  0  0  0
 10 16  1  0  0  0  0
 10 11  1  0  0  0  0
 10 46  1  0  0  0  0
 11 12  1  0  0  0  0
 11 31  1  0  0  0  0
 11 32  1  0  0  0  0
 12 13  1  0  0  0  0
 12 33  1  0  0  0  0
 12 34  1  0  0  0  0
 13 14  1  0  0  0  0
 13 15  1  0  0  0  0
 13 35  1  0  0  0  0
 14 36  1  0  0  0  0
 14 37  1  0  0  0  0
 14 38  1  0  0  0  0
 15 16  1  0  0  0  0
 15 39  1  0  0  0  0
 15 40  1  0  0  0  0
 16 41  1  0  0  0  0
 16 42  1  0  0  0  0
 17 18  2  0  0  0  0
 17 19  1  0  0  0  0
 19 20  1  0  0  0  0
 20 43  1  0  0  0  0
 20 44  1  0  0  0  0
 20 45  1  0  0  0  0
M  CHG  1  10   1
M  END
> <s_m_source_file>
AV-unprocessed.smi

> <i_m_source_file_index>
2278

> <i_lp_mmshare_version>
43012

> <i_f3d_flags>
0

> <s_epik_input>
W0NIM11jMW5bY0hdbihjKD1PKWMxW0NIM10pW0NIMl1bQ0BIXShbT0hdKVtDSDJdTjJbQ0gyXVtDSDJdW0NIXShbQ0gzXSlbQ0gyXVtDSDJdMg==

> <s_epik_cmdline>
J2VwaWtfcHl0aG9uJywgJy1waCcsICc3LjAnLCAnLXRuJywgJzgnLCAnLW1hJywgJzIwMCcsICctbWV0YWxfYmluZGluZycsICctaW1hZScsICc8aW5maWxlLm1hZT4nLCAnLW9tYWUnLCAnPG91dGZpbGUubWFlPic=

> <r_lp_tautomer_probability>
1

> <r_epik_Ionization_Penalty>
0.00139489

> <r_epik_Ionization_Penalty_Charging>
0.00136819

> <r_epik_Ionization_Penalty_Neutral>
2.66975e-05

> <r_epik_State_Penalty>
0.000910892

> <r_epik_Charging_Adjusted_Penalty>
0.00227908

> <i_epik_Tot_Q>
1

> <i_epik_Tot_abs_Q>
1

> <r_epik_Metal_State_Penalty>
-0

> <b_epik_Metal_Only>
0

> <s_lp_Force_Field>
OPLS_2005

> <r_lp_Energy>
28.1947

> <b_lp_Chiralities_Consistent>
1

> <s_lp_Variant>
AV-unprocessed.smi:2278-1

> <Gold.Version>
5.8.1

> <Gold.Id.Protein>
6NUR|6NUR_protein|mol2

> <Gold.PLP.Fitness>
44.2006

> <Gold.PLP.PLP>
-33.8079

> <Gold.PLP.part.hbond>
-4.4124

> <Gold.PLP.part.metal>
0.0000

> <Gold.PLP.part.buried>
2.6362

> <Gold.PLP.part.nonpolar>
-32.3428

> <Gold.PLP.part.repulsive>
0.5383

> <Gold.PLP.ligand.clash>
1.4018

> <Gold.PLP.ligand.torsion>
1.3517

> <Gold.PLP.Chemscore.Hbond>
3.8204

> <Gold.PLP.Chemscore.CHOScore>
1.0000

> <Gold.PLP.Chemscore.Metal>
0.0000

> <Gold.Chemscore.Hbonds>
donor molecule, donor type, donor heavy atom, donor atom, acceptor molecule, acceptor atom, score
      L1  H     8    28       P1 10171  0.89
      L1  H    10    46       P1  7948  2.00
      P1  H  7954  7966       L1     8  0.77
      P1  H  8011  8017       L1    18  0.03
      L1  C     4    24       P1  7948  1.00

> <Gold.PLP.Chemscore.Internal.Correction>
0.0365

> <Gold.Rescore>
     Score         DG    S(hbond)    S(metal)    S(lipo)     H(rot)  DE(clash)    DE(int)     intcor
     12.85     -14.81       1.80        0.00      76.45       2.20       0.77       1.19       ----

> <Gold.Chemscore.Fitness>
12.8498

> <Gold.Chemscore.DG>
-14.8103

> <Gold.Chemscore.ZeroCoef>
-5.4800

> <Gold.Chemscore.Hbond>
1.8007

> <Gold.Chemscore.Metal>
0.0000

> <Gold.Chemscore.Lipo>
76.4466

> <Gold.Chemscore.Internal_Hbond>
0.0000

> <Gold.Chemscore.DEClash>
0.7734

> <Gold.Chemscore.DEInternal>
1.1870

> <Gold.Chemscore.Rot>
2.1986

> <Gold.Chemscore.Internal.Correction>
   9.000000E+99

> <Gold.Chemscore.Hbonds>
donor molecule, donor type, donor heavy atom, donor atom, acceptor molecule, acceptor atom, score
      L1  H     8    28       P1 10171  0.84
      L1  H    10    46       P1  7948  0.98
      P1  H  7954  7966       L1     8  0.14

> <Gold.Chemscore.Hbond.Weighted>
-6.0145

> <Gold.Chemscore.Metal.Weighted>
-0.0000

> <Gold.Chemscore.Lipo.Weighted>
-8.9442

> <Gold.Chemscore.Internal_Hbond.Weighted>
0.0000

> <Gold.Chemscore.DEClash.Weighted>
0.7734

> <Gold.Chemscore.DEInternal.Weighted>
1.1870

> <Gold.Chemscore.Rot.Weighted>
5.6285

> <Gold.Chemscore.Internal.Correction.Weighted>
   9.000000E+99

> <Gold.Protein.RotatedTorsions>
[ 6907 6896 6895 6894 ] final -171.16 input  -60.11 | X-H torsion
[ 7974 7965 7964 7962 ] final -174.25 input  175.53 | X-H torsion
[ 8008 7997 7996 7995 ] final  -18.11 input   59.86 | X-H torsion
[ 10167 10162 10161 10158 ] final  -22.40 input  -65.29 | X-H torsion
[ 10718 10713 10712 10709 ] final   27.95 input   66.30 | X-H torsion
[ 10763 10752 10751 10750 ] final -102.90 input  -60.55 | X-H torsion
[ 11005 11000 10999 10996 ] final -112.36 input  -57.11 | X-H torsion

> <Gold.Protein.ActiveResidues>
 VAL166  LYS551  ARG553  GLY616  TRP617  ASP618  TYR619  PRO620  LYS621  CYS622 
 ASP623  PHE694  ASN695  SER759  ASP760  ASP761  ALA762  ILE779  LEU786  VAL792 
 PHE793  MET794  SER795  GLU796  ALA797  LYS798  CYS799  TRP800  GLU811  SER814 

> <Gold.Protein.RotatedAtoms>
  151.5194  133.3469  159.2898 H   0  0  0  0  0  0  0  0  0  0  0  0  # atno 6907 bound_to 6896
  150.8662  134.8028  159.7131 H   0  0  0  0  0  0  0  0  0  0  0  0  # atno 6908 bound_to 6896
  152.4666  134.5071  159.9794 H   0  0  0  0  0  0  0  0  0  0  0  0  # atno 6909 bound_to 6896
  144.7133  140.1499  143.6385 H   0  0  0  0  0  0  0  0  0  0  0  0  # atno 7974 bound_to 7965
  154.4929  140.2124  155.9509 H   0  0  0  0  0  0  0  0  0  0  0  0  # atno 8008 bound_to 7997
  156.1330  140.3193  155.8347 H   0  0  0  0  0  0  0  0  0  0  0  0  # atno 8009 bound_to 7997
  155.4261  140.0500  157.3013 H   0  0  0  0  0  0  0  0  0  0  0  0  # atno 8010 bound_to 7997
  140.7286  143.4538  151.0478 H   0  0  0  0  0  0  0  0  0  0  0  0  # atno 10167 bound_to 10162
  157.2270  130.7006  149.6296 H   0  0  0  0  0  0  0  0  0  0  0  0  # atno 10718 bound_to 10713
  154.7768  135.4843  153.9760 H   0  0  0  0  0  0  0  0  0  0  0  0  # atno 10763 bound_to 10752
  153.1439  135.6778  153.8992 H   0  0  0  0  0  0  0  0  0  0  0  0  # atno 10764 bound_to 10752
  153.8657  135.3150  155.3418 H   0  0  0  0  0  0  0  0  0  0  0  0  # atno 10765 bound_to 10752
  141.0680  133.9427  157.2541 H   0  0  0  0  0  0  0  0  0  0  0  0  # atno 11005 bound_to 11000
  145.9125  139.2496  143.1429 LP  0  0  0  0  0  0  0  0  0  0  0  0  # atno 17320 bound_to 7965
  145.9701  140.8767  143.0167 LP  0  0  0  0  0  0  0  0  0  0  0  0  # atno 17321 bound_to 7965
  139.8216  143.7812  152.3177 LP  0  0  0  0  0  0  0  0  0  0  0  0  # atno 17342 bound_to 10162
  139.7896  144.7415  150.9973 LP  0  0  0  0  0  0  0  0  0  0  0  0  # atno 17343 bound_to 10162
  155.9678  130.4501  150.5684 LP  0  0  0  0  0  0  0  0  0  0  0  0  # atno 17370 bound_to 10713
  157.3517  131.0734  151.1708 LP  0  0  0  0  0  0  0  0  0  0  0  0  # atno 17371 bound_to 10713
  139.9495  135.0178  156.8952 LP  0  0  0  0  0  0  0  0  0  0  0  0  # atno 17394 bound_to 11000
  140.5733  134.0422  155.7438 LP  0  0  0  0  0  0  0  0  0  0  0  0  # atno 17395 bound_to 11000

$$$$
