AV-unprocessed.smi:3078|AV-procd|sdf|11733|dock3
  -GOLD-   2272017133D 1   1.00000     0.00000
 Structure written by MMmdl.
 23 23  0  0  0  0  0  0  0  0  2 V2000
  144.1006  132.6320  149.7158 C   0  0  0  0  0  0  0  0  0  0  0  0
  144.6970  133.6611  150.5404 N   0  0  0  0  0  0  0  0  0  0  0  0
  144.1591  134.8668  150.9347 C   0  0  0  0  0  0  0  0  0  0  0  0
  145.0969  135.5077  151.6976 C   0  0  0  0  0  0  0  0  0  0  0  0
  145.0249  136.8547  152.3734 C   0  0  2  0  0  0  0  0  0  0  0  0
  143.7450  137.5028  152.0439 N   0  3  0  0  0  0  0  0  0  0  0  0
  146.2017  137.7766  152.0009 C   0  0  0  0  0  0  0  0  0  0  0  0
  146.4876  137.7029  150.5805 N   0  0  0  0  0  0  0  0  0  0  0  0
  146.1883  134.5917  151.7091 C   0  0  0  0  0  0  0  0  0  0  0  0
  145.9458  133.4899  151.0188 N   0  0  0  0  0  0  0  0  0  0  0  0
  143.0362  132.8285  149.5841 H   0  0  0  0  0  0  0  0  0  0  0  0
  144.2239  131.6573  150.1891 H   0  0  0  0  0  0  0  0  0  0  0  0
  144.5832  132.6198  148.7381 H   0  0  0  0  0  0  0  0  0  0  0  0
  143.1647  135.1676  150.6386 H   0  0  0  0  0  0  0  0  0  0  0  0
  145.0244  136.7257  153.4568 H   0  0  0  0  0  0  0  0  0  0  0  0
  142.9827  136.9238  152.3658 H   0  0  0  0  0  0  0  0  0  0  0  0
  143.6766  137.6234  151.0438 H   0  0  0  0  0  0  0  0  0  0  0  0
  145.9939  138.8110  152.2764 H   0  0  0  0  0  0  0  0  0  0  0  0
  147.1005  137.4753  152.5399 H   0  0  0  0  0  0  0  0  0  0  0  0
  146.2474  136.7869  150.2281 H   0  0  0  0  0  0  0  0  0  0  0  0
  145.9140  138.3642  150.0760 H   0  0  0  0  0  0  0  0  0  0  0  0
  147.1465  134.6957  152.1967 H   0  0  0  0  0  0  0  0  0  0  0  0
  143.6973  138.4045  152.4962 H   0  0  0  0  0  0  0  0  0  0  0  0
  1  2  1  0  0  0  0
  1 11  1  0  0  0  0
  1 12  1  0  0  0  0
  1 13  1  0  0  0  0
  2 10  1  0  0  0  0
  2  3  1  0  0  0  0
  3  4  2  0  0  0  0
  3 14  1  0  0  0  0
  4  5  1  0  0  0  0
  4  9  1  0  0  0  0
  5  6  1  0  0  0  0
  5  7  1  0  0  0  0
  5 15  1  0  0  0  0
  6 16  1  0  0  0  0
  6 17  1  0  0  0  0
  6 23  1  0  0  0  0
  7  8  1  0  0  0  0
  7 18  1  0  0  0  0
  7 19  1  0  0  0  0
  8 20  1  0  0  0  0
  8 21  1  0  0  0  0
  9 10  2  0  0  0  0
  9 22  1  0  0  0  0
M  CHG  1   6   1
M  END
> <s_m_source_file>
AV-unprocessed.smi

> <i_m_source_file_index>
3078

> <i_lp_mmshare_version>
43012

> <i_f3d_flags>
0

> <s_epik_input>
W0NIM11uMVtjSF1jKFtjSF1uMSlbQ0BIXShbTkgyXSlbQ0gyXVtOSDJd

> <s_epik_cmdline>
J2VwaWtfcHl0aG9uJywgJy1waCcsICc3LjAnLCAnLXRuJywgJzgnLCAnLW1hJywgJzIwMCcsICctbWV0YWxfYmluZGluZycsICctaW1hZScsICc8aW5maWxlLm1hZT4nLCAnLW9tYWUnLCAnPG91dGZpbGUubWFlPic=

> <r_epik_Ionization_Penalty>
0.19937

> <r_epik_Ionization_Penalty_Charging>
0.0290541

> <r_epik_Ionization_Penalty_Neutral>
0.170316

> <r_epik_State_Penalty>
1.07715

> <r_epik_Charging_Adjusted_Penalty>
1.1062

> <i_epik_Tot_Q>
1

> <i_epik_Tot_abs_Q>
1

> <r_epik_Metal_State_Penalty>
1.07718

> <b_epik_Metal_Only>
0

> <s_lp_Force_Field>
OPLS_2005

> <r_lp_Energy>
0.880803

> <b_lp_Chiralities_Consistent>
1

> <s_lp_Variant>
AV-unprocessed.smi:3078-3

> <Gold.Version>
5.8.1

> <Gold.Id.Protein>
6NUR|6NUR_protein|mol2

> <Gold.PLP.Fitness>
41.4394

> <Gold.PLP.PLP>
-22.8598

> <Gold.PLP.part.hbond>
-4.5890

> <Gold.PLP.part.metal>
0.0000

> <Gold.PLP.part.buried>
-2.9174

> <Gold.PLP.part.nonpolar>
-15.5718

> <Gold.PLP.part.repulsive>
0.2208

> <Gold.PLP.ligand.clash>
0.0000

> <Gold.PLP.ligand.torsion>
0.2173

> <Gold.PLP.Chemscore.Hbond>
4.6497

> <Gold.PLP.Chemscore.CHOScore>
1.6839

> <Gold.PLP.Chemscore.Metal>
0.0000

> <Gold.Chemscore.Hbonds>
donor molecule, donor type, donor heavy atom, donor atom, acceptor molecule, acceptor atom, score
      L1  H     6    17       P1 10171  0.94
      L1  H     6    23       P1 10175  2.00
      L1  H     8    21       P1 10171  0.67
      P1  H  7954  7966       L1     8  0.94
      L1  C     3    14       P1 10186  0.69
      L1  C     9    22       P1  7948  1.00

> <Gold.PLP.Chemscore.Internal.Correction>
0.0134

> <Gold.Rescore>
     Score         DG    S(hbond)    S(metal)    S(lipo)     H(rot)  DE(clash)    DE(int)     intcor
     15.59     -15.83       2.85        0.00      37.89       1.40       0.11       0.12       ----

> <Gold.Chemscore.Fitness>
15.5941

> <Gold.Chemscore.DG>
-15.8320

> <Gold.Chemscore.ZeroCoef>
-5.4800

> <Gold.Chemscore.Hbond>
2.8486

> <Gold.Chemscore.Metal>
0.0000

> <Gold.Chemscore.Lipo>
37.8906

> <Gold.Chemscore.Internal_Hbond>
0.0000

> <Gold.Chemscore.DEClash>
0.1135

> <Gold.Chemscore.DEInternal>
0.1244

> <Gold.Chemscore.Rot>
1.4045

> <Gold.Chemscore.Internal.Correction>
   9.000000E+99

> <Gold.Chemscore.Hbonds>
donor molecule, donor type, donor heavy atom, donor atom, acceptor molecule, acceptor atom, score
      L1  H     6    17       P1 10171  0.89
      L1  H     6    23       P1 10175  0.90
      L1  H     8    21       P1 10171  0.64
      P1  H  7954  7966       L1     8  0.11

> <Gold.Chemscore.Hbond.Weighted>
-9.5144

> <Gold.Chemscore.Metal.Weighted>
-0.0000

> <Gold.Chemscore.Lipo.Weighted>
-4.4332

> <Gold.Chemscore.Internal_Hbond.Weighted>
0.0000

> <Gold.Chemscore.DEClash.Weighted>
0.1135

> <Gold.Chemscore.DEInternal.Weighted>
0.1244

> <Gold.Chemscore.Rot.Weighted>
3.5956

> <Gold.Chemscore.Internal.Correction.Weighted>
   9.000000E+99

> <Gold.Protein.RotatedTorsions>
[ 6907 6896 6895 6894 ] final  109.03 input  -60.11 | X-H torsion
[ 7974 7965 7964 7962 ] final -126.30 input  175.53 | X-H torsion
[ 8008 7997 7996 7995 ] final -166.03 input   59.86 | X-H torsion
[ 10167 10162 10161 10158 ] final -135.24 input  -65.29 | X-H torsion
[ 10718 10713 10712 10709 ] final  -41.88 input   66.30 | X-H torsion
[ 10763 10752 10751 10750 ] final   27.00 input  -60.55 | X-H torsion
[ 11005 11000 10999 10996 ] final -157.49 input  -57.11 | X-H torsion

> <Gold.Protein.ActiveResidues>
 VAL166  LYS551  ARG553  GLY616  TRP617  ASP618  TYR619  PRO620  LYS621  CYS622 
 ASP623  PHE694  ASN695  SER759  ASP760  ASP761  ALA762  ILE779  LEU786  VAL792 
 PHE793  MET794  SER795  GLU796  ALA797  LYS798  CYS799  TRP800  GLU811  SER814 

> <Gold.Protein.RotatedAtoms>
  152.5085  133.9002  159.7437 H   0  0  0  0  0  0  0  0  0  0  0  0  # atno 6907 bound_to 6896
  150.9420  133.6637  159.2795 H   0  0  0  0  0  0  0  0  0  0  0  0  # atno 6908 bound_to 6896
  151.3946  135.0966  159.9589 H   0  0  0  0  0  0  0  0  0  0  0  0  # atno 6909 bound_to 6896
  144.9887  140.7710  143.4568 H   0  0  0  0  0  0  0  0  0  0  0  0  # atno 7974 bound_to 7965
  155.8582  140.0974  157.1631 H   0  0  0  0  0  0  0  0  0  0  0  0  # atno 8008 bound_to 7997
  154.3989  140.1370  156.3990 H   0  0  0  0  0  0  0  0  0  0  0  0  # atno 8009 bound_to 7997
  155.7886  140.3456  155.5339 H   0  0  0  0  0  0  0  0  0  0  0  0  # atno 8010 bound_to 7997
  139.8798  143.6853  152.2628 H   0  0  0  0  0  0  0  0  0  0  0  0  # atno 10167 bound_to 10162
  156.2656  130.4201  149.8494 H   0  0  0  0  0  0  0  0  0  0  0  0  # atno 10718 bound_to 10713
  153.0584  135.6547  154.0521 H   0  0  0  0  0  0  0  0  0  0  0  0  # atno 10763 bound_to 10752
  154.0194  135.2921  155.3384 H   0  0  0  0  0  0  0  0  0  0  0  0  # atno 10764 bound_to 10752
  154.6911  135.5282  153.8461 H   0  0  0  0  0  0  0  0  0  0  0  0  # atno 10765 bound_to 10752
  140.6640  134.4319  157.5234 H   0  0  0  0  0  0  0  0  0  0  0  0  # atno 11005 bound_to 11000
  145.2317  139.2112  143.5039 LP  0  0  0  0  0  0  0  0  0  0  0  0  # atno 17320 bound_to 7965
  146.3426  140.2195  142.8591 LP  0  0  0  0  0  0  0  0  0  0  0  0  # atno 17321 bound_to 7965
  139.7206  144.7603  151.0961 LP  0  0  0  0  0  0  0  0  0  0  0  0  # atno 17342 bound_to 10162
  140.7746  143.5212  150.9534 LP  0  0  0  0  0  0  0  0  0  0  0  0  # atno 17343 bound_to 10162
  156.5993  130.8540  151.3428 LP  0  0  0  0  0  0  0  0  0  0  0  0  # atno 17370 bound_to 10713
  157.7266  130.9632  150.1664 LP  0  0  0  0  0  0  0  0  0  0  0  0  # atno 17371 bound_to 10713
  139.9003  134.8571  156.1923 LP  0  0  0  0  0  0  0  0  0  0  0  0  # atno 17394 bound_to 11000
  141.0443  133.6921  156.1655 LP  0  0  0  0  0  0  0  0  0  0  0  0  # atno 17395 bound_to 11000

$$$$
