AV-unprocessed.smi:322|AV-procd|sdf|2336|dock3
  -GOLD-   2262022243D 1   1.00000     0.00000
 Structure written by MMmdl.
 43 45  0  0  0  0  0  0  0  0  1 V2000
  153.0604  138.9003  157.9775 O   0  0  0  0  0  0  0  0  0  0  0  0
  151.7854  139.2643  158.4669 C   0  0  0  0  0  0  0  0  0  0  0  0
  151.6523  140.7264  158.7876 C   0  0  0  0  0  0  0  0  0  0  0  0
  152.4268  141.3466  159.6810 N   0  0  0  0  0  0  0  0  0  0  0  0
  151.9679  142.6482  159.6346 C   0  0  0  0  0  0  0  0  0  0  0  0
  152.3813  143.7945  160.3504 C   0  0  0  0  0  0  0  0  0  0  0  0
  151.7534  145.0381  160.1306 C   0  0  0  0  0  0  0  0  0  0  0  0
  150.7061  145.1533  159.1940 C   0  0  0  0  0  0  0  0  0  0  0  0
  150.2793  144.0237  158.4699 C   0  0  0  0  0  0  0  0  0  0  0  0
  150.9092  142.7845  158.6933 C   0  0  0  0  0  0  0  0  0  0  0  0
  150.7358  141.5091  158.1643 N   0  0  0  0  0  0  0  0  0  0  0  0
  149.7668  141.1232  157.1478 C   0  0  0  0  0  0  0  0  0  0  0  0
  150.2906  141.3440  155.7133 C   0  0  1  0  0  0  0  0  0  0  0  0
  151.2888  140.4031  155.3715 O   0  0  0  0  0  0  0  0  0  0  0  0
  149.1847  141.3155  154.6458 C   0  0  0  0  0  0  0  0  0  0  0  0
  148.0084  141.9275  155.1504 O   0  0  0  0  0  0  0  0  0  0  0  0
  146.8832  141.7511  154.3057 C   0  0  0  0  0  0  0  0  0  0  0  0
  145.9684  142.9613  154.3156 C   0  0  0  0  0  0  0  0  0  0  0  0
  145.2442  143.3026  155.4785 C   0  0  0  0  0  0  0  0  0  0  0  0
  144.4081  144.4361  155.4856 C   0  0  0  0  0  0  0  0  0  0  0  0
  144.2973  145.2373  154.3325 C   0  0  0  0  0  0  0  0  0  0  0  0
  143.2725  146.6254  154.3407 Cl  0  0  0  0  0  0  0  0  0  0  0  0
  145.0260  144.9062  153.1736 C   0  0  0  0  0  0  0  0  0  0  0  0
  145.8624  143.7728  153.1665 C   0  0  0  0  0  0  0  0  0  0  0  0
  153.2440  138.0130  158.2455 H   0  0  0  0  0  0  0  0  0  0  0  0
  151.0333  138.9974  157.7240 H   0  0  0  0  0  0  0  0  0  0  0  0
  151.5873  138.6710  159.3589 H   0  0  0  0  0  0  0  0  0  0  0  0
  153.1828  143.7164  161.0698 H   0  0  0  0  0  0  0  0  0  0  0  0
  152.0768  145.9077  160.6838 H   0  0  0  0  0  0  0  0  0  0  0  0
  150.2299  146.1092  159.0317 H   0  0  0  0  0  0  0  0  0  0  0  0
  149.4755  144.1080  157.7535 H   0  0  0  0  0  0  0  0  0  0  0  0
  149.5094  140.0747  157.3035 H   0  0  0  0  0  0  0  0  0  0  0  0
  148.8451  141.6839  157.3057 H   0  0  0  0  0  0  0  0  0  0  0  0
  150.7727  142.3203  155.6618 H   0  0  0  0  0  0  0  0  0  0  0  0
  151.3593  139.7727  156.0723 H   0  0  0  0  0  0  0  0  0  0  0  0
  149.5217  141.8691  153.7681 H   0  0  0  0  0  0  0  0  0  0  0  0
  148.9838  140.2925  154.3229 H   0  0  0  0  0  0  0  0  0  0  0  0
  147.2106  141.5764  153.2799 H   0  0  0  0  0  0  0  0  0  0  0  0
  146.3214  140.8715  154.6246 H   0  0  0  0  0  0  0  0  0  0  0  0
  145.3262  142.6975  156.3697 H   0  0  0  0  0  0  0  0  0  0  0  0
  143.8541  144.6906  156.3771 H   0  0  0  0  0  0  0  0  0  0  0  0
  144.9460  145.5214  152.2895 H   0  0  0  0  0  0  0  0  0  0  0  0
  146.4211  143.5280  152.2750 H   0  0  0  0  0  0  0  0  0  0  0  0
  1  2  1  0  0  0  0
  1 25  1  0  0  0  0
  2  3  1  0  0  0  0
  2 26  1  0  0  0  0
  2 27  1  0  0  0  0
  3 11  1  0  0  0  0
  3  4  2  0  0  0  0
  4  5  1  0  0  0  0
  5 10  2  0  0  0  0
  5  6  1  0  0  0  0
  6  7  2  0  0  0  0
  6 28  1  0  0  0  0
  7  8  1  0  0  0  0
  7 29  1  0  0  0  0
  8  9  2  0  0  0  0
  8 30  1  0  0  0  0
  9 10  1  0  0  0  0
  9 31  1  0  0  0  0
 10 11  1  0  0  0  0
 11 12  1  0  0  0  0
 12 13  1  0  0  0  0
 12 32  1  0  0  0  0
 12 33  1  0  0  0  0
 13 14  1  0  0  0  0
 13 15  1  0  0  0  0
 13 34  1  0  0  0  0
 14 35  1  0  0  0  0
 15 16  1  0  0  0  0
 15 36  1  0  0  0  0
 15 37  1  0  0  0  0
 16 17  1  0  0  0  0
 17 18  1  0  0  0  0
 17 38  1  0  0  0  0
 17 39  1  0  0  0  0
 18 24  1  0  0  0  0
 18 19  2  0  0  0  0
 19 20  1  0  0  0  0
 19 40  1  0  0  0  0
 20 21  2  0  0  0  0
 20 41  1  0  0  0  0
 21 22  1  0  0  0  0
 21 23  1  0  0  0  0
 23 24  2  0  0  0  0
 23 42  1  0  0  0  0
 24 43  1  0  0  0  0
M  END
> <s_m_source_file>
AV-unprocessed.smi

> <i_m_source_file_index>
322

> <i_lp_mmshare_version>
43012

> <i_f3d_flags>
0

> <s_epik_input>
W2NIXTFbY0hdW2NIXVtjSF1jKGMxMiluKGMobjIpW0NIMl1bT0hdKVtDSDJdW0NASF0oW09IXSlbQ0gyXU9bQ0gyXWMzW2NIXVtjSF1jKENsKVtjSF1bY0hdMw==

> <s_epik_cmdline>
J2VwaWtfcHl0aG9uJywgJy1waCcsICc3LjAnLCAnLXRuJywgJzgnLCAnLW1hJywgJzIwMCcsICctbWV0YWxfYmluZGluZycsICctaW1hZScsICc8aW5maWxlLm1hZT4nLCAnLW9tYWUnLCAnPG91dGZpbGUubWFlPic=

> <r_epik_Ionization_Penalty>
0.0649918

> <r_epik_Ionization_Penalty_Charging>
0

> <r_epik_Ionization_Penalty_Neutral>
0.0649918

> <r_epik_State_Penalty>
0.0565791

> <r_epik_Charging_Adjusted_Penalty>
0.0565791

> <i_epik_Tot_Q>
0

> <i_epik_Tot_abs_Q>
0

> <r_epik_Metal_State_Penalty>
5.93658e-05

> <b_epik_Metal_Only>
0

> <s_lp_Force_Field>
OPLS_2005

> <r_lp_Energy>
15.9671

> <b_lp_Chiralities_Consistent>
1

> <s_lp_Variant>
AV-unprocessed.smi:322-2

> <Gold.Version>
5.8.1

> <Gold.Id.Protein>
6NUR|6NUR_protein|mol2

> <Gold.PLP.Fitness>
57.7749

> <Gold.PLP.PLP>
-53.8125

> <Gold.PLP.part.hbond>
-2.0000

> <Gold.PLP.part.metal>
0.0000

> <Gold.PLP.part.buried>
-9.2683

> <Gold.PLP.part.nonpolar>
-44.0384

> <Gold.PLP.part.repulsive>
0.7923

> <Gold.PLP.ligand.clash>
0.0000

> <Gold.PLP.ligand.torsion>
0.9763

> <Gold.PLP.Chemscore.Hbond>
1.9120

> <Gold.PLP.Chemscore.CHOScore>
0.0000

> <Gold.PLP.Chemscore.Metal>
0.0000

> <Gold.Chemscore.Hbonds>
donor molecule, donor type, donor heavy atom, donor atom, acceptor molecule, acceptor atom, score
      P1  H  7989  7998       L1    14  0.94
      P1  H  7997  8010       L1     1  0.65

> <Gold.PLP.Chemscore.Internal.Correction>
0.1789

> <Gold.Rescore>
     Score         DG    S(hbond)    S(metal)    S(lipo)     H(rot)  DE(clash)    DE(int)     intcor
     17.64     -19.23       1.71        0.00     137.35       3.13       0.30       1.29       ----

> <Gold.Chemscore.Fitness>
17.6398

> <Gold.Chemscore.DG>
-19.2294

> <Gold.Chemscore.ZeroCoef>
-5.4800

> <Gold.Chemscore.Hbond>
1.7070

> <Gold.Chemscore.Metal>
0.0000

> <Gold.Chemscore.Lipo>
137.3542

> <Gold.Chemscore.Internal_Hbond>
0.0000

> <Gold.Chemscore.DEClash>
0.2968

> <Gold.Chemscore.DEInternal>
1.2928

> <Gold.Chemscore.Rot>
3.1337

> <Gold.Chemscore.Internal.Correction>
   9.000000E+99

> <Gold.Chemscore.Hbonds>
donor molecule, donor type, donor heavy atom, donor atom, acceptor molecule, acceptor atom, score
      P1  H  7989  7998       L1    14  0.27
      P1  H  7997  8010       L1     1  0.60

> <Gold.Chemscore.Hbond.Weighted>
-5.7013

> <Gold.Chemscore.Metal.Weighted>
-0.0000

> <Gold.Chemscore.Lipo.Weighted>
-16.0704

> <Gold.Chemscore.Internal_Hbond.Weighted>
0.0000

> <Gold.Chemscore.DEClash.Weighted>
0.2968

> <Gold.Chemscore.DEInternal.Weighted>
1.2928

> <Gold.Chemscore.Rot.Weighted>
8.0224

> <Gold.Chemscore.Internal.Correction.Weighted>
   9.000000E+99

> <Gold.Protein.RotatedTorsions>
[ 6907 6896 6895 6894 ] final  -68.20 input  -60.11 | X-H torsion
[ 7974 7965 7964 7962 ] final   -4.82 input  175.53 | X-H torsion
[ 8008 7997 7996 7995 ] final   23.72 input   59.86 | X-H torsion
[ 10167 10162 10161 10158 ] final -130.20 input  -65.29 | X-H torsion
[ 10718 10713 10712 10709 ] final   20.04 input   66.30 | X-H torsion
[ 10763 10752 10751 10750 ] final  168.07 input  -60.55 | X-H torsion
[ 11005 11000 10999 10996 ] final   62.94 input  -57.11 | X-H torsion

> <Gold.Protein.ActiveResidues>
 VAL166  LYS551  ARG553  GLY616  TRP617  ASP618  TYR619  PRO620  LYS621  CYS622 
 ASP623  PHE694  ASN695  SER759  ASP760  ASP761  ALA762  ILE779  LEU786  VAL792 
 PHE793  MET794  SER795  GLU796  ALA797  LYS798  CYS799  TRP800  GLU811  SER814 

> <Gold.Protein.RotatedAtoms>
  150.7368  134.5772  159.5920 H   0  0  0  0  0  0  0  0  0  0  0  0  # atno 6907 bound_to 6896
  152.3196  134.7394  160.0326 H   0  0  0  0  0  0  0  0  0  0  0  0  # atno 6908 bound_to 6896
  151.7914  133.3324  159.3537 H   0  0  0  0  0  0  0  0  0  0  0  0  # atno 6909 bound_to 6896
  146.2365  140.1929  142.8333 H   0  0  0  0  0  0  0  0  0  0  0  0  # atno 7974 bound_to 7965
  154.9853  140.3107  155.4929 H   0  0  0  0  0  0  0  0  0  0  0  0  # atno 8008 bound_to 7997
  156.2947  140.2259  156.4895 H   0  0  0  0  0  0  0  0  0  0  0  0  # atno 8009 bound_to 7997
  154.7752  140.0449  157.1071 H   0  0  0  0  0  0  0  0  0  0  0  0  # atno 8010 bound_to 7997
  139.9318  143.6264  152.2528 H   0  0  0  0  0  0  0  0  0  0  0  0  # atno 10167 bound_to 10162
  157.1189  130.6541  149.5918 H   0  0  0  0  0  0  0  0  0  0  0  0  # atno 10718 bound_to 10713
  154.3632  135.2753  155.2308 H   0  0  0  0  0  0  0  0  0  0  0  0  # atno 10763 bound_to 10752
  154.4487  135.5936  153.6181 H   0  0  0  0  0  0  0  0  0  0  0  0  # atno 10764 bound_to 10752
  152.9842  135.6036  154.3855 H   0  0  0  0  0  0  0  0  0  0  0  0  # atno 10765 bound_to 10752
  140.0058  134.6371  155.9857 H   0  0  0  0  0  0  0  0  0  0  0  0  # atno 11005 bound_to 11000
  144.9843  140.8489  143.5378 LP  0  0  0  0  0  0  0  0  0  0  0  0  # atno 17320 bound_to 7965
  145.1926  139.2293  143.5234 LP  0  0  0  0  0  0  0  0  0  0  0  0  # atno 17321 bound_to 7965
  139.6776  144.7657  151.1667 LP  0  0  0  0  0  0  0  0  0  0  0  0  # atno 17342 bound_to 10162
  140.7635  143.5772  150.8933 LP  0  0  0  0  0  0  0  0  0  0  0  0  # atno 17343 bound_to 10162
  155.9833  130.4852  150.6926 LP  0  0  0  0  0  0  0  0  0  0  0  0  # atno 17370 bound_to 10713
  157.4494  131.0871  151.0862 LP  0  0  0  0  0  0  0  0  0  0  0  0  # atno 17371 bound_to 10713
  141.1676  133.6537  156.4534 LP  0  0  0  0  0  0  0  0  0  0  0  0  # atno 17394 bound_to 11000
  140.4644  134.6812  157.5100 LP  0  0  0  0  0  0  0  0  0  0  0  0  # atno 17395 bound_to 11000

$$$$
