AV-unprocessed.smi:1447|AV-procd|sdf|5892|dock6
  -GOLD-   22720 5573D 1   1.00000     0.00000
 Structure written by MMmdl.
 48 50  0  0  0  0  0  0  0  0  2 V2000
  150.3380  141.7952  155.3917 C   0  0  0  0  0  0  0  0  0  0  0  0
  150.8932  140.6029  154.8651 O   0  0  0  0  0  0  0  0  0  0  0  0
  150.2930  139.4387  155.4069 C   0  0  0  0  0  0  0  0  0  0  0  0
  151.0202  138.2024  154.8565 C   0  0  0  0  0  0  0  0  0  0  0  0
  150.3914  136.9595  155.3152 N   0  0  0  0  0  0  0  0  0  0  0  0
  149.0928  136.7841  154.8660 N   0  0  0  0  0  0  0  0  0  0  0  0
  148.4293  135.7229  155.1949 C   0  0  0  0  0  0  0  0  0  0  0  0
  147.0319  135.4953  154.7320 C   0  0  0  0  0  0  0  0  0  0  0  0
  146.1498  135.0970  155.4947 O   0  0  0  0  0  0  0  0  0  0  0  0
  146.8051  135.7556  153.4315 N   0  0  0  0  0  0  0  0  0  0  0  0
  145.5220  135.6035  152.7527 C   0  0  2  0  0  0  0  0  0  0  0  0
  144.9914  134.1745  152.9543 C   0  0  0  0  0  0  0  0  0  0  0  0
  143.6811  133.9507  152.1751 C   0  0  0  0  0  0  0  0  0  0  0  0
  143.8285  134.2638  150.7303 N   0  3  2  0  0  0  0  0  0  0  0  0
  144.5839  133.2325  149.9806 C   0  0  0  0  0  0  0  0  0  0  0  0
  143.7196  132.3853  149.0762 C   0  0  0  0  0  0  0  0  0  0  0  0
  144.2353  131.8177  150.3801 C   0  0  0  0  0  0  0  0  0  0  0  0
  144.3337  135.6426  150.5061 C   0  0  0  0  0  0  0  0  0  0  0  0
  145.6581  135.9033  151.2479 C   0  0  0  0  0  0  0  0  0  0  0  0
  149.0285  134.7016  156.0370 C   0  0  0  0  0  0  0  0  0  0  0  0
  150.2973  134.8847  156.4633 C   0  0  0  0  0  0  0  0  0  0  0  0
  151.0723  136.0726  156.1020 C   0  0  0  0  0  0  0  0  0  0  0  0
  152.2326  136.2565  156.4686 O   0  0  0  0  0  0  0  0  0  0  0  0
  150.8324  142.6582  154.9461 H   0  0  0  0  0  0  0  0  0  0  0  0
  150.4747  141.8502  156.4725 H   0  0  0  0  0  0  0  0  0  0  0  0
  149.2722  141.8663  155.1695 H   0  0  0  0  0  0  0  0  0  0  0  0
  150.3590  139.4585  156.4959 H   0  0  0  0  0  0  0  0  0  0  0  0
  149.2351  139.4084  155.1414 H   0  0  0  0  0  0  0  0  0  0  0  0
  151.0447  138.2378  153.7659 H   0  0  0  0  0  0  0  0  0  0  0  0
  152.0655  138.2276  155.1704 H   0  0  0  0  0  0  0  0  0  0  0  0
  147.5836  136.0793  152.8749 H   0  0  0  0  0  0  0  0  0  0  0  0
  144.8028  136.2986  153.1906 H   0  0  0  0  0  0  0  0  0  0  0  0
  145.7401  133.4488  152.6338 H   0  0  0  0  0  0  0  0  0  0  0  0
  144.8210  133.9874  154.0154 H   0  0  0  0  0  0  0  0  0  0  0  0
  143.3342  132.9243  152.3007 H   0  0  0  0  0  0  0  0  0  0  0  0
  142.8999  134.5906  152.5875 H   0  0  0  0  0  0  0  0  0  0  0  0
  145.6006  133.4843  149.6850 H   0  0  0  0  0  0  0  0  0  0  0  0
  142.6575  132.6153  149.0135 H   0  0  0  0  0  0  0  0  0  0  0  0
  144.1692  132.0122  148.1581 H   0  0  0  0  0  0  0  0  0  0  0  0
  145.0239  131.0699  150.3207 H   0  0  0  0  0  0  0  0  0  0  0  0
  143.5144  131.6698  151.1824 H   0  0  0  0  0  0  0  0  0  0  0  0
  144.4527  135.8277  149.4381 H   0  0  0  0  0  0  0  0  0  0  0  0
  143.5774  136.3464  150.8564 H   0  0  0  0  0  0  0  0  0  0  0  0
  145.9583  136.9409  151.0970 H   0  0  0  0  0  0  0  0  0  0  0  0
  146.4515  135.2920  150.8156 H   0  0  0  0  0  0  0  0  0  0  0  0
  148.4804  133.8145  156.3196 H   0  0  0  0  0  0  0  0  0  0  0  0
  150.7554  134.1330  157.0890 H   0  0  0  0  0  0  0  0  0  0  0  0
  142.8957  134.2423  150.3431 H   0  0  0  0  0  0  0  0  0  0  0  0
  1  2  1  0  0  0  0
  1 24  1  0  0  0  0
  1 25  1  0  0  0  0
  1 26  1  0  0  0  0
  2  3  1  0  0  0  0
  3  4  1  0  0  0  0
  3 27  1  0  0  0  0
  3 28  1  0  0  0  0
  4  5  1  0  0  0  0
  4 29  1  0  0  0  0
  4 30  1  0  0  0  0
  5 22  1  0  0  0  0
  5  6  1  0  0  0  0
  6  7  2  0  0  0  0
  7  8  1  0  0  0  0
  7 20  1  0  0  0  0
  8  9  2  0  0  0  0
  8 10  1  0  0  0  0
 10 11  1  0  0  0  0
 10 31  1  0  0  0  0
 11 19  1  0  0  0  0
 11 12  1  0  0  0  0
 11 32  1  0  0  0  0
 12 13  1  0  0  0  0
 12 33  1  0  0  0  0
 12 34  1  0  0  0  0
 13 14  1  0  0  0  0
 13 35  1  0  0  0  0
 13 36  1  0  0  0  0
 14 15  1  0  0  0  0
 14 18  1  0  0  0  0
 14 48  1  0  0  0  0
 15 17  1  0  0  0  0
 15 16  1  0  0  0  0
 15 37  1  0  0  0  0
 16 17  1  0  0  0  0
 16 38  1  0  0  0  0
 16 39  1  0  0  0  0
 17 40  1  0  0  0  0
 17 41  1  0  0  0  0
 18 19  1  0  0  0  0
 18 42  1  0  0  0  0
 18 43  1  0  0  0  0
 19 44  1  0  0  0  0
 19 45  1  0  0  0  0
 20 21  2  0  0  0  0
 20 46  1  0  0  0  0
 21 22  1  0  0  0  0
 21 47  1  0  0  0  0
 22 23  2  0  0  0  0
M  CHG  1  14   1
M  END
> <s_m_source_file>
AV-unprocessed.smi

> <i_m_source_file_index>
1447

> <i_lp_mmshare_version>
43012

> <i_f3d_flags>
0

> <s_epik_input>
W0NIM11PW0NIMl1bQ0gyXW4xbmMoW2NIXVtjSF1jMT1PKUMoPU8pW05IXVtDSF0yW0NIMl1bQ0gyXU4oW0NIMl1bQ0gyXTIpW0NIXTNbQ0gyXVtDSDJdMw==

> <s_epik_cmdline>
J2VwaWtfcHl0aG9uJywgJy1waCcsICc3LjAnLCAnLXRuJywgJzgnLCAnLW1hJywgJzIwMCcsICctbWV0YWxfYmluZGluZycsICctaW1hZScsICc8aW5maWxlLm1hZT4nLCAnLW9tYWUnLCAnPG91dGZpbGUubWFlPic=

> <r_lp_tautomer_probability>
1

> <r_epik_Ionization_Penalty>
0.168623

> <r_epik_Ionization_Penalty_Charging>
0.16862

> <r_epik_Ionization_Penalty_Neutral>
2.93027e-06

> <r_epik_State_Penalty>
0.157986

> <r_epik_Charging_Adjusted_Penalty>
0.326605

> <i_epik_Tot_Q>
1

> <i_epik_Tot_abs_Q>
1

> <r_epik_Metal_State_Penalty>
0.157986

> <b_epik_Metal_Only>
0

> <s_lp_Force_Field>
OPLS_2005

> <r_lp_Energy>
47.6191

> <b_lp_Chiralities_Consistent>
1

> <s_lp_Variant>
AV-unprocessed.smi:1447-2

> <Gold.Version>
5.8.1

> <Gold.Id.Protein>
6NUR|6NUR_protein|mol2

> <Gold.PLP.Fitness>
46.9819

> <Gold.PLP.PLP>
-33.8846

> <Gold.PLP.part.hbond>
-4.0000

> <Gold.PLP.part.metal>
0.0000

> <Gold.PLP.part.buried>
-2.1049

> <Gold.PLP.part.nonpolar>
-28.5008

> <Gold.PLP.part.repulsive>
1.0358

> <Gold.PLP.ligand.clash>
0.0000

> <Gold.PLP.ligand.torsion>
1.6070

> <Gold.PLP.Chemscore.Hbond>
5.0000

> <Gold.PLP.Chemscore.CHOScore>
0.0000

> <Gold.PLP.Chemscore.Metal>
0.0000

> <Gold.Chemscore.Hbonds>
donor molecule, donor type, donor heavy atom, donor atom, acceptor molecule, acceptor atom, score
      L1  H    10    31       P1  7948  1.00
      L1  H    14    48       P1 10186  1.89
      P1  H  7989  7998       L1     2  0.98
      P1  H 10752 10764       L1    23  1.00

> <Gold.PLP.Chemscore.Internal.Correction>
1.3111

> <Gold.Rescore>
     Score         DG    S(hbond)    S(metal)    S(lipo)     H(rot)  DE(clash)    DE(int)     intcor
     19.54     -22.71       3.49        0.00      86.22       1.76       0.26       2.91       ----

> <Gold.Chemscore.Fitness>
19.5392

> <Gold.Chemscore.DG>
-22.7106

> <Gold.Chemscore.ZeroCoef>
-5.4800

> <Gold.Chemscore.Hbond>
3.4881

> <Gold.Chemscore.Metal>
0.0000

> <Gold.Chemscore.Lipo>
86.2233

> <Gold.Chemscore.Internal_Hbond>
0.0000

> <Gold.Chemscore.DEClash>
0.2644

> <Gold.Chemscore.DEInternal>
2.9070

> <Gold.Chemscore.Rot>
1.7608

> <Gold.Chemscore.Internal.Correction>
   9.000000E+99

> <Gold.Chemscore.Hbonds>
donor molecule, donor type, donor heavy atom, donor atom, acceptor molecule, acceptor atom, score
      L1  H    10    31       P1  7948  1.00
      L1  H    14    48       P1 10186  0.77
      P1  H  7989  7998       L1     2  0.71
      P1  H 10752 10764       L1    23  0.35

> <Gold.Chemscore.Hbond.Weighted>
-11.6501

> <Gold.Chemscore.Metal.Weighted>
-0.0000

> <Gold.Chemscore.Lipo.Weighted>
-10.0881

> <Gold.Chemscore.Internal_Hbond.Weighted>
0.0000

> <Gold.Chemscore.DEClash.Weighted>
0.2644

> <Gold.Chemscore.DEInternal.Weighted>
2.9070

> <Gold.Chemscore.Rot.Weighted>
4.5077

> <Gold.Chemscore.Internal.Correction.Weighted>
   9.000000E+99

> <Gold.Protein.RotatedTorsions>
[ 6907 6896 6895 6894 ] final -112.94 input  -60.11 | X-H torsion
[ 7974 7965 7964 7962 ] final   81.28 input  175.53 | X-H torsion
[ 8008 7997 7996 7995 ] final  159.71 input   59.86 | X-H torsion
[ 10167 10162 10161 10158 ] final -157.65 input  -65.29 | X-H torsion
[ 10718 10713 10712 10709 ] final  -34.88 input   66.30 | X-H torsion
[ 10763 10752 10751 10750 ] final  -26.41 input  -60.55 | X-H torsion
[ 11005 11000 10999 10996 ] final   44.27 input  -57.11 | X-H torsion

> <Gold.Protein.ActiveResidues>
 VAL166  LYS551  ARG553  GLY616  TRP617  ASP618  TYR619  PRO620  LYS621  CYS622 
 ASP623  PHE694  ASN695  SER759  ASP760  ASP761  ALA762  ILE779  LEU786  VAL792 
 PHE793  MET794  SER795  GLU796  ALA797  LYS798  CYS799  TRP800  GLU811  SER814 

> <Gold.Protein.RotatedAtoms>
  150.7794  133.9016  159.3342 H   0  0  0  0  0  0  0  0  0  0  0  0  # atno 6907 bound_to 6896
  151.6883  135.0949  160.0238 H   0  0  0  0  0  0  0  0  0  0  0  0  # atno 6908 bound_to 6896
  152.3840  133.6547  159.6219 H   0  0  0  0  0  0  0  0  0  0  0  0  # atno 6909 bound_to 6896
  145.6403  139.2424  143.2034 H   0  0  0  0  0  0  0  0  0  0  0  0  # atno 7974 bound_to 7965
  156.2221  140.1824  156.7452 H   0  0  0  0  0  0  0  0  0  0  0  0  # atno 8008 bound_to 7997
  154.5881  140.0655  156.9229 H   0  0  0  0  0  0  0  0  0  0  0  0  # atno 8009 bound_to 7997
  155.2384  140.3320  155.4297 H   0  0  0  0  0  0  0  0  0  0  0  0  # atno 8010 bound_to 7997
  139.6754  143.9672  152.2307 H   0  0  0  0  0  0  0  0  0  0  0  0  # atno 10167 bound_to 10162
  156.3453  130.4300  149.7752 H   0  0  0  0  0  0  0  0  0  0  0  0  # atno 10718 bound_to 10713
  153.7155  135.6948  153.5026 H   0  0  0  0  0  0  0  0  0  0  0  0  # atno 10763 bound_to 10752
  153.2241  135.4360  155.0521 H   0  0  0  0  0  0  0  0  0  0  0  0  # atno 10764 bound_to 10752
  154.8301  135.3468  154.6691 H   0  0  0  0  0  0  0  0  0  0  0  0  # atno 10765 bound_to 10752
  140.1567  134.4392  155.8344 H   0  0  0  0  0  0  0  0  0  0  0  0  # atno 11005 bound_to 11000
  146.1286  140.7215  142.9423 LP  0  0  0  0  0  0  0  0  0  0  0  0  # atno 17320 bound_to 7965
  144.7160  140.4210  143.7044 LP  0  0  0  0  0  0  0  0  0  0  0  0  # atno 17321 bound_to 7965
  139.9448  144.6658  150.8230 LP  0  0  0  0  0  0  0  0  0  0  0  0  # atno 17342 bound_to 10162
  140.7633  143.3221  151.2599 LP  0  0  0  0  0  0  0  0  0  0  0  0  # atno 17343 bound_to 10162
  156.4973  130.8112  151.3118 LP  0  0  0  0  0  0  0  0  0  0  0  0  # atno 17370 bound_to 10713
  157.7453  130.9956  150.2750 LP  0  0  0  0  0  0  0  0  0  0  0  0  # atno 17371 bound_to 10713
  141.2205  133.6896  156.7521 LP  0  0  0  0  0  0  0  0  0  0  0  0  # atno 17394 bound_to 11000
  140.2538  134.8520  157.3693 LP  0  0  0  0  0  0  0  0  0  0  0  0  # atno 17395 bound_to 11000

$$$$
