AV-unprocessed.smi:1809|AV-procd|sdf|7310|dock5
  -GOLD-   22720 8563D 1   1.00000     0.00000
 Structure written by MMmdl.
 40 42  0  0  0  0  0  0  0  0  2 V2000
  153.3179  141.8762  159.7889 C   0  0  0  0  0  0  0  0  0  0  0  0
  152.9412  140.6912  158.9669 C   0  0  0  0  0  0  0  0  0  0  0  0
  153.8064  139.7181  158.6560 N   0  0  0  0  0  0  0  0  0  0  0  0
  153.2235  138.7226  157.8845 N   0  0  0  0  0  0  0  0  0  0  0  0
  151.9316  138.9762  157.6341 C   0  0  0  0  0  0  0  0  0  0  0  0
  151.0937  138.1218  156.8697 N   0  0  0  0  0  0  0  0  0  0  0  0
  151.4424  137.0419  156.1488 C   0  0  0  0  0  0  0  0  0  0  0  0
  152.5886  136.6124  156.0193 O   0  0  0  0  0  0  0  0  0  0  0  0
  150.3718  136.4730  155.5767 N   0  0  0  0  0  0  0  0  0  0  0  0
  150.3966  135.2713  154.7493 C   0  0  0  0  0  0  0  0  0  0  0  0
  149.3378  134.2447  155.2074 C   0  0  1  0  0  0  0  0  0  0  0  0
  147.8857  134.7437  155.0043 C   0  0  0  0  0  0  0  0  0  0  0  0
  147.5308  134.6401  153.5768 N   0  3  2  0  0  0  0  0  0  0  0  0
  146.1843  135.0716  153.1632 C   0  0  0  0  0  0  0  0  0  0  0  0
  145.9054  134.3033  151.8562 C   0  0  0  0  0  0  0  0  0  0  0  0
  147.0822  133.3258  151.6878 C   0  0  0  0  0  0  0  0  0  0  0  0
  147.6893  133.2701  153.0862 C   0  0  1  0  0  0  0  0  0  0  0  0
  149.1613  132.8670  153.2125 C   0  0  0  0  0  0  0  0  0  0  0  0
  149.5284  132.9603  154.5925 O   0  0  0  0  0  0  0  0  0  0  0  0
  151.3175  140.4674  158.3274 S   0  0  0  0  0  0  0  0  0  0  0  0
  154.3171  141.7525  160.2079 H   0  0  0  0  0  0  0  0  0  0  0  0
  152.6100  142.0018  160.6084 H   0  0  0  0  0  0  0  0  0  0  0  0
  153.3048  142.7753  159.1729 H   0  0  0  0  0  0  0  0  0  0  0  0
  150.1123  138.3570  156.8802 H   0  0  0  0  0  0  0  0  0  0  0  0
  149.4688  136.8960  155.7352 H   0  0  0  0  0  0  0  0  0  0  0  0
  150.1777  135.5834  153.7278 H   0  0  0  0  0  0  0  0  0  0  0  0
  151.3955  134.8344  154.7179 H   0  0  0  0  0  0  0  0  0  0  0  0
  149.4810  134.0955  156.2784 H   0  0  0  0  0  0  0  0  0  0  0  0
  147.1964  134.1364  155.5931 H   0  0  0  0  0  0  0  0  0  0  0  0
  147.7743  135.7736  155.3453 H   0  0  0  0  0  0  0  0  0  0  0  0
  145.4530  134.7940  153.9241 H   0  0  0  0  0  0  0  0  0  0  0  0
  146.1435  136.1531  153.0305 H   0  0  0  0  0  0  0  0  0  0  0  0
  144.9608  133.7636  151.9327 H   0  0  0  0  0  0  0  0  0  0  0  0
  145.8312  134.9752  151.0006 H   0  0  0  0  0  0  0  0  0  0  0  0
  146.7711  132.3463  151.3233 H   0  0  0  0  0  0  0  0  0  0  0  0
  147.8051  133.7347  150.9803 H   0  0  0  0  0  0  0  0  0  0  0  0
  147.0799  132.6028  153.7001 H   0  0  0  0  0  0  0  0  0  0  0  0
  149.3063  131.8406  152.8756 H   0  0  0  0  0  0  0  0  0  0  0  0
  149.7957  133.4990  152.5918 H   0  0  0  0  0  0  0  0  0  0  0  0
  148.1869  135.2067  153.0581 H   0  0  0  0  0  0  0  0  0  0  0  0
  1  2  1  0  0  0  0
  1 21  1  0  0  0  0
  1 22  1  0  0  0  0
  1 23  1  0  0  0  0
  2 20  1  0  0  0  0
  2  3  2  0  0  0  0
  3  4  1  0  0  0  0
  4  5  2  0  0  0  0
  5  6  1  0  0  0  0
  5 20  1  0  0  0  0
  6  7  1  0  0  0  0
  6 24  1  0  0  0  0
  7  8  2  0  0  0  0
  7  9  1  0  0  0  0
  9 10  1  0  0  0  0
  9 25  1  0  0  0  0
 10 11  1  0  0  0  0
 10 26  1  0  0  0  0
 10 27  1  0  0  0  0
 11 19  1  0  0  0  0
 11 12  1  0  0  0  0
 11 28  1  0  0  0  0
 12 13  1  0  0  0  0
 12 29  1  0  0  0  0
 12 30  1  0  0  0  0
 13 17  1  0  0  0  0
 13 14  1  0  0  0  0
 13 40  1  0  0  0  0
 14 15  1  0  0  0  0
 14 31  1  0  0  0  0
 14 32  1  0  0  0  0
 15 16  1  0  0  0  0
 15 33  1  0  0  0  0
 15 34  1  0  0  0  0
 16 17  1  0  0  0  0
 16 35  1  0  0  0  0
 16 36  1  0  0  0  0
 17 18  1  0  0  0  0
 17 37  1  0  0  0  0
 18 19  1  0  0  0  0
 18 38  1  0  0  0  0
 18 39  1  0  0  0  0
M  CHG  1  13   1
M  END
> <s_m_source_file>
AV-unprocessed.smi

> <i_m_source_file_index>
1809

> <i_lp_mmshare_version>
43012

> <i_f3d_flags>
0

> <s_epik_input>
W0NIM11jMW5uYyhzMSlbTkhdQyg9TylbTkhdW0NIMl1bQ0BIXShbQ0gyXTIpT1tDSDJdW0NAQEhdKE4yMylbQ0gyXVtDSDJdW0NIMl0z

> <s_epik_cmdline>
J2VwaWtfcHl0aG9uJywgJy1waCcsICc3LjAnLCAnLXRuJywgJzgnLCAnLW1hJywgJzIwMCcsICctbWV0YWxfYmluZGluZycsICctaW1hZScsICc8aW5maWxlLm1hZT4nLCAnLW9tYWUnLCAnPG91dGZpbGUubWFlPic=

> <r_lp_tautomer_probability>
1

> <r_epik_Ionization_Penalty>
0.112474

> <r_epik_Ionization_Penalty_Charging>
0.108916

> <r_epik_Ionization_Penalty_Neutral>
0.00355844

> <r_epik_State_Penalty>
0.0565397

> <r_epik_Charging_Adjusted_Penalty>
0.165456

> <i_epik_Tot_Q>
1

> <i_epik_Tot_abs_Q>
1

> <r_epik_Metal_State_Penalty>
0.422831

> <b_epik_Metal_Only>
0

> <s_lp_Force_Field>
OPLS_2005

> <r_lp_Energy>
36.2916

> <b_lp_Chiralities_Consistent>
1

> <s_lp_Variant>
AV-unprocessed.smi:1809-2

> <Gold.Version>
5.8.1

> <Gold.Id.Protein>
6NUR|6NUR_protein|mol2

> <Gold.PLP.Fitness>
38.9837

> <Gold.PLP.PLP>
-28.7788

> <Gold.PLP.part.hbond>
-3.7548

> <Gold.PLP.part.metal>
0.0000

> <Gold.PLP.part.buried>
-4.3178

> <Gold.PLP.part.nonpolar>
-20.8750

> <Gold.PLP.part.repulsive>
0.1490

> <Gold.PLP.ligand.clash>
0.0000

> <Gold.PLP.ligand.torsion>
0.1107

> <Gold.PLP.Chemscore.Hbond>
3.4720

> <Gold.PLP.Chemscore.CHOScore>
0.0000

> <Gold.PLP.Chemscore.Metal>
0.0000

> <Gold.Chemscore.Hbonds>
donor molecule, donor type, donor heavy atom, donor atom, acceptor molecule, acceptor atom, score
      L1  H    13    40       P1  7948  2.00
      P1  H  7997  8008       L1     3  0.50
      P1  H 10752 10765       L1     8  0.98

> <Gold.PLP.Chemscore.Internal.Correction>
0.0103

> <Gold.Rescore>
     Score         DG    S(hbond)    S(metal)    S(lipo)     H(rot)  DE(clash)    DE(int)     intcor
     14.44     -15.82       1.97        0.00      61.48       1.34       0.00       1.38       ----

> <Gold.Chemscore.Fitness>
14.4416

> <Gold.Chemscore.DG>
-15.8202

> <Gold.Chemscore.ZeroCoef>
-5.4800

> <Gold.Chemscore.Hbond>
1.9685

> <Gold.Chemscore.Metal>
0.0000

> <Gold.Chemscore.Lipo>
61.4828

> <Gold.Chemscore.Internal_Hbond>
0.0000

> <Gold.Chemscore.DEClash>
0.0021

> <Gold.Chemscore.DEInternal>
1.3765

> <Gold.Chemscore.Rot>
1.3391

> <Gold.Chemscore.Internal.Correction>
   9.000000E+99

> <Gold.Chemscore.Hbonds>
donor molecule, donor type, donor heavy atom, donor atom, acceptor molecule, acceptor atom, score
      L1  H    13    40       P1  7948  0.98
      P1  H  7997  8008       L1     3  0.02
      P1  H 10752 10765       L1     8  0.90

> <Gold.Chemscore.Hbond.Weighted>
-6.5748

> <Gold.Chemscore.Metal.Weighted>
-0.0000

> <Gold.Chemscore.Lipo.Weighted>
-7.1935

> <Gold.Chemscore.Internal_Hbond.Weighted>
0.0000

> <Gold.Chemscore.DEClash.Weighted>
0.0021

> <Gold.Chemscore.DEInternal.Weighted>
1.3765

> <Gold.Chemscore.Rot.Weighted>
3.4281

> <Gold.Chemscore.Internal.Correction.Weighted>
   9.000000E+99

> <Gold.Protein.RotatedTorsions>
[ 6907 6896 6895 6894 ] final  166.31 input  -60.11 | X-H torsion
[ 7974 7965 7964 7962 ] final -104.87 input  175.53 | X-H torsion
[ 8008 7997 7996 7995 ] final -116.59 input   59.86 | X-H torsion
[ 10167 10162 10161 10158 ] final -116.07 input  -65.29 | X-H torsion
[ 10718 10713 10712 10709 ] final -112.50 input   66.30 | X-H torsion
[ 10763 10752 10751 10750 ] final -153.17 input  -60.55 | X-H torsion
[ 11005 11000 10999 10996 ] final  169.40 input  -57.11 | X-H torsion

> <Gold.Protein.ActiveResidues>
 VAL166  LYS551  ARG553  GLY616  TRP617  ASP618  TYR619  PRO620  LYS621  CYS622 
 ASP623  PHE694  ASN695  SER759  ASP760  ASP761  ALA762  ILE779  LEU786  VAL792 
 PHE793  MET794  SER795  GLU796  ALA797  LYS798  CYS799  TRP800  GLU811  SER814 

> <Gold.Protein.RotatedAtoms>
  151.8810  133.3495  159.3765 H   0  0  0  0  0  0  0  0  0  0  0  0  # atno 6907 bound_to 6896
  150.7127  134.5019  159.5575 H   0  0  0  0  0  0  0  0  0  0  0  0  # atno 6908 bound_to 6896
  152.2570  134.8074  160.0488 H   0  0  0  0  0  0  0  0  0  0  0  0  # atno 6909 bound_to 6896
  145.2377  140.9194  143.3168 H   0  0  0  0  0  0  0  0  0  0  0  0  # atno 7974 bound_to 7965
  155.0702  140.0393  157.2606 H   0  0  0  0  0  0  0  0  0  0  0  0  # atno 8008 bound_to 7997
  154.6989  140.2669  155.6715 H   0  0  0  0  0  0  0  0  0  0  0  0  # atno 8009 bound_to 7997
  156.2753  140.2744  156.1592 H   0  0  0  0  0  0  0  0  0  0  0  0  # atno 8010 bound_to 7997
  140.0832  143.4768  152.1913 H   0  0  0  0  0  0  0  0  0  0  0  0  # atno 10167 bound_to 10162
  156.0709  130.5923  150.8517 H   0  0  0  0  0  0  0  0  0  0  0  0  # atno 10718 bound_to 10713
  154.7946  135.3219  154.7697 H   0  0  0  0  0  0  0  0  0  0  0  0  # atno 10763 bound_to 10752
  153.8379  135.6873  153.4811 H   0  0  0  0  0  0  0  0  0  0  0  0  # atno 10764 bound_to 10752
  153.1631  135.4653  154.9741 H   0  0  0  0  0  0  0  0  0  0  0  0  # atno 10765 bound_to 10752
  140.2974  134.7624  157.3888 H   0  0  0  0  0  0  0  0  0  0  0  0  # atno 11005 bound_to 11000
  144.9618  139.3972  143.6352 LP  0  0  0  0  0  0  0  0  0  0  0  0  # atno 17320 bound_to 7965
  146.3336  139.8674  142.8846 LP  0  0  0  0  0  0  0  0  0  0  0  0  # atno 17321 bound_to 7965
  139.5767  144.7491  151.3746 LP  0  0  0  0  0  0  0  0  0  0  0  0  # atno 17342 bound_to 10162
  140.7067  143.7496  150.7494 LP  0  0  0  0  0  0  0  0  0  0  0  0  # atno 17343 bound_to 10162
  157.5780  131.0946  150.9316 LP  0  0  0  0  0  0  0  0  0  0  0  0  # atno 17370 bound_to 10713
  156.9518  130.5422  149.5283 LP  0  0  0  0  0  0  0  0  0  0  0  0  # atno 17371 bound_to 10713
  140.1140  134.5307  155.8241 LP  0  0  0  0  0  0  0  0  0  0  0  0  # atno 17394 bound_to 11000
  141.2135  133.6734  156.6743 LP  0  0  0  0  0  0  0  0  0  0  0  0  # atno 17395 bound_to 11000

$$$$
