AV-unprocessed.smi:3308|AV-procd|sdf|12709|dock9
  -GOLD-   2272019 43D 1   1.00000     0.00000
 Structure written by MMmdl.
 41 42  0  0  0  0  0  0  0  0  2 V2000
  148.9282  141.0126  157.1712 C   0  0  0  0  0  0  0  0  0  0  0  0
  149.5585  141.7663  155.9860 C   0  0  1  0  0  0  0  0  0  0  0  0
  150.9992  141.9657  156.2609 N   0  3  0  0  0  0  0  0  0  0  0  0
  151.3001  142.7882  157.4526 C   0  0  0  0  0  0  0  0  0  0  0  0
  151.9997  141.9832  158.5567 C   0  0  0  0  0  0  0  0  0  0  0  0
  152.3493  140.8224  158.3367 O   0  0  0  0  0  0  0  0  0  0  0  0
  152.2114  142.5834  159.7460 N   0  0  0  0  0  0  0  0  0  0  0  0
  152.8811  141.9343  160.8714 C   0  0  0  0  0  0  0  0  0  0  0  0
  153.1392  143.0415  161.8938 C   0  0  0  0  0  0  0  0  0  0  0  0
  152.0646  144.0784  161.5985 C   0  0  0  0  0  0  0  0  0  0  0  0
  151.8226  143.9500  160.0939 C   0  0  0  0  0  0  0  0  0  0  0  0
  149.3609  141.0405  154.6273 C   0  0  2  0  0  0  0  0  0  0  0  0
  147.8802  140.7610  154.3060 C   0  0  0  0  0  0  0  0  0  0  0  0
  150.1291  139.8043  154.5471 N   0  0  0  0  0  0  0  0  0  0  0  0
  149.6614  138.5180  154.3718 C   0  0  0  0  0  0  0  0  0  0  0  0
  150.7444  137.6867  154.3648 C   0  0  0  0  0  0  0  0  0  0  0  0
  151.8474  138.5662  154.5467 C   0  0  0  0  0  0  0  0  0  0  0  0
  151.4768  139.8318  154.6564 N   0  0  0  0  0  0  0  0  0  0  0  0
  147.8462  140.9264  157.0687 H   0  0  0  0  0  0  0  0  0  0  0  0
  149.1174  141.5332  158.1105 H   0  0  0  0  0  0  0  0  0  0  0  0
  149.3354  140.0051  157.2620 H   0  0  0  0  0  0  0  0  0  0  0  0
  149.0694  142.7409  155.9336 H   0  0  0  0  0  0  0  0  0  0  0  0
  151.4274  141.0607  156.3949 H   0  0  0  0  0  0  0  0  0  0  0  0
  151.9356  143.6252  157.1613 H   0  0  0  0  0  0  0  0  0  0  0  0
  150.3675  143.1986  157.8425 H   0  0  0  0  0  0  0  0  0  0  0  0
  152.2181  141.1748  161.2884 H   0  0  0  0  0  0  0  0  0  0  0  0
  153.8103  141.4462  160.5728 H   0  0  0  0  0  0  0  0  0  0  0  0
  153.1101  142.6820  162.9229 H   0  0  0  0  0  0  0  0  0  0  0  0
  154.1238  143.4780  161.7203 H   0  0  0  0  0  0  0  0  0  0  0  0
  151.1529  143.8206  162.1392 H   0  0  0  0  0  0  0  0  0  0  0  0
  152.3553  145.0862  161.8967 H   0  0  0  0  0  0  0  0  0  0  0  0
  152.4543  144.6511  159.5468 H   0  0  0  0  0  0  0  0  0  0  0  0
  150.7815  144.1629  159.8475 H   0  0  0  0  0  0  0  0  0  0  0  0
  149.7460  141.6934  153.8424 H   0  0  0  0  0  0  0  0  0  0  0  0
  147.3101  141.6846  154.2053 H   0  0  0  0  0  0  0  0  0  0  0  0
  147.4073  140.1615  155.0846 H   0  0  0  0  0  0  0  0  0  0  0  0
  147.7805  140.2196  153.3646 H   0  0  0  0  0  0  0  0  0  0  0  0
  148.6083  138.3019  154.2676 H   0  0  0  0  0  0  0  0  0  0  0  0
  150.7488  136.6130  154.2491 H   0  0  0  0  0  0  0  0  0  0  0  0
  152.8984  138.3239  154.6023 H   0  0  0  0  0  0  0  0  0  0  0  0
  151.4244  142.3996  155.4539 H   0  0  0  0  0  0  0  0  0  0  0  0
  1  2  1  0  0  0  0
  1 19  1  0  0  0  0
  1 20  1  0  0  0  0
  1 21  1  0  0  0  0
  2  3  1  0  0  0  0
  2 12  1  0  0  0  0
  2 22  1  0  0  0  0
  3  4  1  0  0  0  0
  3 23  1  0  0  0  0
  3 41  1  0  0  0  0
  4  5  1  0  0  0  0
  4 24  1  0  0  0  0
  4 25  1  0  0  0  0
  5  6  2  0  0  0  0
  5  7  1  0  0  0  0
  7 11  1  0  0  0  0
  7  8  1  0  0  0  0
  8  9  1  0  0  0  0
  8 26  1  0  0  0  0
  8 27  1  0  0  0  0
  9 10  1  0  0  0  0
  9 28  1  0  0  0  0
  9 29  1  0  0  0  0
 10 11  1  0  0  0  0
 10 30  1  0  0  0  0
 10 31  1  0  0  0  0
 11 32  1  0  0  0  0
 11 33  1  0  0  0  0
 12 13  1  0  0  0  0
 12 14  1  0  0  0  0
 12 34  1  0  0  0  0
 13 35  1  0  0  0  0
 13 36  1  0  0  0  0
 13 37  1  0  0  0  0
 14 18  1  0  0  0  0
 14 15  1  0  0  0  0
 15 16  2  0  0  0  0
 15 38  1  0  0  0  0
 16 17  1  0  0  0  0
 16 39  1  0  0  0  0
 17 18  2  0  0  0  0
 17 40  1  0  0  0  0
M  CHG  1   3   1
M  END
> <s_m_source_file>
AV-unprocessed.smi

> <i_m_source_file_index>
3308

> <i_lp_mmshare_version>
43012

> <i_f3d_flags>
0

> <s_epik_input>
bjFbY0hdW2NIXVtjSF1uMVtDQEBIXShbQ0gzXSlbQ0BIXShbQ0gzXSlbTkhdW0NIMl1DKD1PKU4yW0NIMl1bQ0gyXVtDSDJdW0NIMl0y

> <s_epik_cmdline>
J2VwaWtfcHl0aG9uJywgJy1waCcsICc3LjAnLCAnLXRuJywgJzgnLCAnLW1hJywgJzIwMCcsICctbWV0YWxfYmluZGluZycsICctaW1hZScsICc8aW5maWxlLm1hZT4nLCAnLW9tYWUnLCAnPG91dGZpbGUubWFlPic=

> <r_lp_tautomer_probability>
1

> <r_epik_Ionization_Penalty>
0.141739

> <r_epik_Ionization_Penalty_Charging>
0.141731

> <r_epik_Ionization_Penalty_Neutral>
8.82171e-06

> <r_epik_State_Penalty>
0.131043

> <r_epik_Charging_Adjusted_Penalty>
0.272773

> <i_epik_Tot_Q>
1

> <i_epik_Tot_abs_Q>
1

> <r_epik_Metal_State_Penalty>
0.131385

> <b_epik_Metal_Only>
0

> <s_lp_Force_Field>
OPLS_2005

> <r_lp_Energy>
34.0204

> <b_lp_Chiralities_Consistent>
1

> <s_lp_Variant>
AV-unprocessed.smi:3308-2

> <Gold.Version>
5.8.1

> <Gold.Id.Protein>
6NUR|6NUR_protein|mol2

> <Gold.PLP.Fitness>
43.0701

> <Gold.PLP.PLP>
-41.8964

> <Gold.PLP.part.hbond>
-1.0000

> <Gold.PLP.part.metal>
0.0000

> <Gold.PLP.part.buried>
-3.2716

> <Gold.PLP.part.nonpolar>
-37.3878

> <Gold.PLP.part.repulsive>
0.1943

> <Gold.PLP.ligand.clash>
0.0000

> <Gold.PLP.ligand.torsion>
0.5067

> <Gold.PLP.Chemscore.Hbond>
0.7000

> <Gold.PLP.Chemscore.CHOScore>
0.0000

> <Gold.PLP.Chemscore.Metal>
0.0000

> <Gold.Chemscore.Hbonds>
donor molecule, donor type, donor heavy atom, donor atom, acceptor molecule, acceptor atom, score
      P1  H  7989  7998       L1    18  0.70

> <Gold.PLP.Chemscore.Internal.Correction>
0.0871

> <Gold.Rescore>
     Score         DG    S(hbond)    S(metal)    S(lipo)     H(rot)  DE(clash)    DE(int)     intcor
     12.66     -14.88       0.81        0.00      96.12       1.78       0.17       2.05       ----

> <Gold.Chemscore.Fitness>
12.6591

> <Gold.Chemscore.DG>
-14.8803

> <Gold.Chemscore.ZeroCoef>
-5.4800

> <Gold.Chemscore.Hbond>
0.8144

> <Gold.Chemscore.Metal>
0.0000

> <Gold.Chemscore.Lipo>
96.1220

> <Gold.Chemscore.Internal_Hbond>
0.0000

> <Gold.Chemscore.DEClash>
0.1705

> <Gold.Chemscore.DEInternal>
2.0506

> <Gold.Chemscore.Rot>
1.7836

> <Gold.Chemscore.Internal.Correction>
   9.000000E+99

> <Gold.Chemscore.Hbonds>
donor molecule, donor type, donor heavy atom, donor atom, acceptor molecule, acceptor atom, score
      P1  H  7989  7998       L1    18  0.07

> <Gold.Chemscore.Hbond.Weighted>
-2.7200

> <Gold.Chemscore.Metal.Weighted>
-0.0000

> <Gold.Chemscore.Lipo.Weighted>
-11.2463

> <Gold.Chemscore.Internal_Hbond.Weighted>
0.0000

> <Gold.Chemscore.DEClash.Weighted>
0.1705

> <Gold.Chemscore.DEInternal.Weighted>
2.0506

> <Gold.Chemscore.Rot.Weighted>
4.5660

> <Gold.Chemscore.Internal.Correction.Weighted>
   9.000000E+99

> <Gold.Protein.RotatedTorsions>
[ 6907 6896 6895 6894 ] final -118.85 input  -60.11 | X-H torsion
[ 7974 7965 7964 7962 ] final -170.65 input  175.53 | X-H torsion
[ 8008 7997 7996 7995 ] final  139.06 input   59.86 | X-H torsion
[ 10167 10162 10161 10158 ] final -111.73 input  -65.29 | X-H torsion
[ 10718 10713 10712 10709 ] final  -52.08 input   66.30 | X-H torsion
[ 10763 10752 10751 10750 ] final   54.85 input  -60.55 | X-H torsion
[ 11005 11000 10999 10996 ] final   26.41 input  -57.11 | X-H torsion

> <Gold.Protein.ActiveResidues>
 VAL166  LYS551  ARG553  GLY616  TRP617  ASP618  TYR619  PRO620  LYS621  CYS622 
 ASP623  PHE694  ASN695  SER759  ASP760  ASP761  ALA762  ILE779  LEU786  VAL792 
 PHE793  MET794  SER795  GLU796  ALA797  LYS798  CYS799  TRP800  GLU811  SER814 

> <Gold.Protein.RotatedAtoms>
  150.8255  133.8180  159.3120 H   0  0  0  0  0  0  0  0  0  0  0  0  # atno 6907 bound_to 6896
  151.5925  135.1051  160.0052 H   0  0  0  0  0  0  0  0  0  0  0  0  # atno 6908 bound_to 6896
  152.4340  133.7287  159.6631 H   0  0  0  0  0  0  0  0  0  0  0  0  # atno 6909 bound_to 6896
  144.7167  140.2040  143.6335 H   0  0  0  0  0  0  0  0  0  0  0  0  # atno 7974 bound_to 7965
  156.2993  140.2377  156.4176 H   0  0  0  0  0  0  0  0  0  0  0  0  # atno 8008 bound_to 7997
  154.8384  140.0429  157.1545 H   0  0  0  0  0  0  0  0  0  0  0  0  # atno 8009 bound_to 7997
  154.9129  140.2993  155.5260 H   0  0  0  0  0  0  0  0  0  0  0  0  # atno 8010 bound_to 7997
  140.1304  143.4366  152.1631 H   0  0  0  0  0  0  0  0  0  0  0  0  # atno 10167 bound_to 10162
  156.1653  130.4149  149.9730 H   0  0  0  0  0  0  0  0  0  0  0  0  # atno 10718 bound_to 10713
  152.9809  135.5731  154.4970 H   0  0  0  0  0  0  0  0  0  0  0  0  # atno 10763 bound_to 10752
  154.4496  135.2778  155.1792 H   0  0  0  0  0  0  0  0  0  0  0  0  # atno 10764 bound_to 10752
  154.3426  135.6226  153.5657 H   0  0  0  0  0  0  0  0  0  0  0  0  # atno 10765 bound_to 10752
  140.3374  134.2371  155.7694 H   0  0  0  0  0  0  0  0  0  0  0  0  # atno 11005 bound_to 11000
  145.8653  139.2244  143.1692 LP  0  0  0  0  0  0  0  0  0  0  0  0  # atno 17320 bound_to 7965
  146.0135  140.8413  142.9959 LP  0  0  0  0  0  0  0  0  0  0  0  0  # atno 17321 bound_to 7965
  139.5523  144.7347  151.4399 LP  0  0  0  0  0  0  0  0  0  0  0  0  # atno 17342 bound_to 10162
  140.6820  143.8059  150.7135 LP  0  0  0  0  0  0  0  0  0  0  0  0  # atno 17343 bound_to 10162
  156.7547  130.9128  151.3639 LP  0  0  0  0  0  0  0  0  0  0  0  0  # atno 17370 bound_to 10713
  157.6763  130.9097  150.0158 LP  0  0  0  0  0  0  0  0  0  0  0  0  # atno 17371 bound_to 10713
  141.2048  133.7878  157.0269 LP  0  0  0  0  0  0  0  0  0  0  0  0  # atno 17394 bound_to 11000
  140.0810  134.9648  157.1624 LP  0  0  0  0  0  0  0  0  0  0  0  0  # atno 17395 bound_to 11000

$$$$
