AV-unprocessed.smi:1760|AV-procd|sdf|7093|dock7
  -GOLD-   22720 8313D 1   1.00000     0.00000
 Structure written by MMmdl.
 43 45  0  0  0  0  0  0  0  0  3 V2000
  146.9446  132.6180  154.5714 O   0  0  0  0  0  0  0  0  0  0  0  0
  147.7104  133.3213  153.9128 C   0  0  0  0  0  0  0  0  0  0  0  0
  149.0425  133.4114  154.0791 N   0  0  0  0  0  0  0  0  0  0  0  0
  149.8788  132.7450  154.9917 C   0  0  0  0  0  0  0  0  0  0  0  0
  150.4764  131.5417  154.7674 C   0  0  0  0  0  0  0  0  0  0  0  0
  151.3393  130.9049  155.7550 C   0  0  0  0  0  0  0  0  0  0  0  0
  152.0104  129.5571  155.5643 C   0  0  0  0  0  0  0  0  0  0  0  0
  151.1032  128.6303  155.2581 F   0  0  0  0  0  0  0  0  0  0  0  0
  152.8902  129.6176  154.5652 F   0  0  0  0  0  0  0  0  0  0  0  0
  152.6518  129.1704  156.6672 F   0  0  0  0  0  0  0  0  0  0  0  0
  151.4770  131.6631  156.9003 C   0  0  0  0  0  0  0  0  0  0  0  0
  150.9344  132.8646  157.1957 N   0  5  0  0  0  0  0  0  0  0  0  0
  150.1230  133.4482  156.2688 C   0  0  0  0  0  0  0  0  0  0  0  0
  149.5943  134.5417  156.4732 O   0  0  0  0  0  0  0  0  0  0  0  0
  147.3007  134.1328  152.9264 N   0  0  0  0  0  0  0  0  0  0  0  0
  145.9190  134.3238  152.4927 C   0  0  2  0  0  0  0  0  0  0  0  0
  145.3135  132.9819  152.0483 C   0  0  0  0  0  0  0  0  0  0  0  0
  143.8935  133.1734  151.4820 C   0  0  0  0  0  0  0  0  0  0  0  0
  143.8603  134.1662  150.3770 N   0  3  2  0  0  0  0  0  0  0  0  0
  144.4189  133.6490  149.1058 C   0  0  0  0  0  0  0  0  0  0  0  0
  143.4584  132.7750  148.3334 C   0  0  0  0  0  0  0  0  0  0  0  0
  144.6075  132.1498  149.0923 C   0  0  0  0  0  0  0  0  0  0  0  0
  144.4359  135.4742  150.7835 C   0  0  0  0  0  0  0  0  0  0  0  0
  145.8679  135.3316  151.3327 C   0  0  0  0  0  0  0  0  0  0  0  0
  149.5227  134.0829  153.4979 H   0  0  0  0  0  0  0  0  0  0  0  0
  150.3398  131.0228  153.8336 H   0  0  0  0  0  0  0  0  0  0  0  0
  152.1196  131.2363  157.6998 H   0  0  0  0  0  0  0  0  0  0  0  0
  148.0049  134.6731  152.4451 H   0  0  0  0  0  0  0  0  0  0  0  0
  145.3123  134.7178  153.3102 H   0  0  0  0  0  0  0  0  0  0  0  0
  145.9512  132.5142  151.2971 H   0  0  0  0  0  0  0  0  0  0  0  0
  145.2811  132.2918  152.8923 H   0  0  0  0  0  0  0  0  0  0  0  0
  143.4880  132.2207  151.1399 H   0  0  0  0  0  0  0  0  0  0  0  0
  143.2307  133.5216  152.2754 H   0  0  0  0  0  0  0  0  0  0  0  0
  145.1185  134.2934  148.5771 H   0  0  0  0  0  0  0  0  0  0  0  0
  142.4560  132.6306  148.7324 H   0  0  0  0  0  0  0  0  0  0  0  0
  143.5284  132.7906  147.2475 H   0  0  0  0  0  0  0  0  0  0  0  0
  145.4340  131.7532  148.5062 H   0  0  0  0  0  0  0  0  0  0  0  0
  144.3675  131.5907  149.9950 H   0  0  0  0  0  0  0  0  0  0  0  0
  144.4176  136.1679  149.9422 H   0  0  0  0  0  0  0  0  0  0  0  0
  143.7943  135.9074  151.5520 H   0  0  0  0  0  0  0  0  0  0  0  0
  146.2293  136.3041  151.6694 H   0  0  0  0  0  0  0  0  0  0  0  0
  146.5407  135.0171  150.5336 H   0  0  0  0  0  0  0  0  0  0  0  0
  142.8835  134.3385  150.1855 H   0  0  0  0  0  0  0  0  0  0  0  0
  1  2  2  0  0  0  0
  2  3  1  0  0  0  0
  2 15  1  0  0  0  0
  3  4  1  0  0  0  0
  3 25  1  0  0  0  0
  4 13  1  0  0  0  0
  4  5  2  0  0  0  0
  5  6  1  0  0  0  0
  5 26  1  0  0  0  0
  6  7  1  0  0  0  0
  6 11  2  0  0  0  0
  7  8  1  0  0  0  0
  7  9  1  0  0  0  0
  7 10  1  0  0  0  0
 11 12  1  0  0  0  0
 11 27  1  0  0  0  0
 12 13  1  0  0  0  0
 13 14  2  0  0  0  0
 15 16  1  0  0  0  0
 15 28  1  0  0  0  0
 16 24  1  0  0  0  0
 16 17  1  0  0  0  0
 16 29  1  0  0  0  0
 17 18  1  0  0  0  0
 17 30  1  0  0  0  0
 17 31  1  0  0  0  0
 18 19  1  0  0  0  0
 18 32  1  0  0  0  0
 18 33  1  0  0  0  0
 19 20  1  0  0  0  0
 19 23  1  0  0  0  0
 19 43  1  0  0  0  0
 20 22  1  0  0  0  0
 20 21  1  0  0  0  0
 20 34  1  0  0  0  0
 21 22  1  0  0  0  0
 21 35  1  0  0  0  0
 21 36  1  0  0  0  0
 22 37  1  0  0  0  0
 22 38  1  0  0  0  0
 23 24  1  0  0  0  0
 23 39  1  0  0  0  0
 23 40  1  0  0  0  0
 24 41  1  0  0  0  0
 24 42  1  0  0  0  0
M  CHG  1  12  -1
M  CHG  1  19   1
M  END
> <s_m_source_file>
AV-unprocessed.smi

> <i_m_source_file_index>
1760

> <i_lp_mmshare_version>
43012

> <i_f3d_flags>
0

> <s_epik_input>
W0NIMl0xW0NIMl1bQ0hdMU4oW0NIMl1bQ0gyXTIpW0NIMl1bQ0gyXVtDSF0yW05IXUMoPU8pW05IXWMzW2NIXWMoQyhGKShGKUYpW2NIXVtuSF1jMz1P

> <s_epik_cmdline>
J2VwaWtfcHl0aG9uJywgJy1waCcsICc3LjAnLCAnLXRuJywgJzgnLCAnLW1hJywgJzIwMCcsICctbWV0YWxfYmluZGluZycsICctaW1hZScsICc8aW5maWxlLm1hZT4nLCAnLW9tYWUnLCAnPG91dGZpbGUubWFlPic=

> <r_lp_tautomer_probability>
0.999

> <r_epik_Ionization_Penalty>
3.16043

> <r_epik_Ionization_Penalty_Charging>
0.268029

> <r_epik_Ionization_Penalty_Neutral>
2.8924

> <r_epik_State_Penalty>
3.0039

> <r_epik_Charging_Adjusted_Penalty>
3.27193

> <i_epik_Tot_Q>
0

> <i_epik_Tot_abs_Q>
2

> <r_epik_Metal_State_Penalty>
0.560618

> <b_epik_Metal_Only>
1

> <s_lp_Force_Field>
OPLS_2005

> <r_lp_Energy>
41.7611

> <b_lp_Chiralities_Consistent>
1

> <s_lp_Variant>
AV-unprocessed.smi:1760-5

> <Gold.Version>
5.8.1

> <Gold.Id.Protein>
6NUR|6NUR_protein|mol2

> <Gold.PLP.Fitness>
46.6963

> <Gold.PLP.PLP>
-35.7564

> <Gold.PLP.part.hbond>
-3.0000

> <Gold.PLP.part.metal>
0.0000

> <Gold.PLP.part.buried>
0.0869

> <Gold.PLP.part.nonpolar>
-32.7674

> <Gold.PLP.part.repulsive>
0.0610

> <Gold.PLP.ligand.clash>
1.9435

> <Gold.PLP.ligand.torsion>
1.6763

> <Gold.PLP.Chemscore.Hbond>
4.9840

> <Gold.PLP.Chemscore.CHOScore>
0.0000

> <Gold.PLP.Chemscore.Metal>
0.0000

> <Gold.Chemscore.Hbonds>
donor molecule, donor type, donor heavy atom, donor atom, acceptor molecule, acceptor atom, score
      L1  H    15    28       P1  7948  1.00
      L1  H    19    43       P1 10186  2.00
      P1  H  6896  6909       L1    12  1.66

> <Gold.PLP.Chemscore.Internal.Correction>
1.2841

> <Gold.Rescore>
     Score         DG    S(hbond)    S(metal)    S(lipo)     H(rot)  DE(clash)    DE(int)     intcor
     16.60     -20.68       2.38        0.00      89.98       1.28       1.60       2.48       ----

> <Gold.Chemscore.Fitness>
16.5960

> <Gold.Chemscore.DG>
-20.6759

> <Gold.Chemscore.ZeroCoef>
-5.4800

> <Gold.Chemscore.Hbond>
2.3778

> <Gold.Chemscore.Metal>
0.0000

> <Gold.Chemscore.Lipo>
89.9787

> <Gold.Chemscore.Internal_Hbond>
0.0000

> <Gold.Chemscore.DEClash>
1.6018

> <Gold.Chemscore.DEInternal>
2.4781

> <Gold.Chemscore.Rot>
1.2787

> <Gold.Chemscore.Internal.Correction>
   9.000000E+99

> <Gold.Chemscore.Hbonds>
donor molecule, donor type, donor heavy atom, donor atom, acceptor molecule, acceptor atom, score
      L1  H    15    28       P1  7948  0.55
      L1  H    19    43       P1 10186  0.86
      P1  H  6896  6909       L1    12  0.69

> <Gold.Chemscore.Hbond.Weighted>
-7.9420

> <Gold.Chemscore.Metal.Weighted>
-0.0000

> <Gold.Chemscore.Lipo.Weighted>
-10.5275

> <Gold.Chemscore.Internal_Hbond.Weighted>
0.0000

> <Gold.Chemscore.DEClash.Weighted>
1.6018

> <Gold.Chemscore.DEInternal.Weighted>
2.4781

> <Gold.Chemscore.Rot.Weighted>
3.2735

> <Gold.Chemscore.Internal.Correction.Weighted>
   9.000000E+99

> <Gold.Protein.RotatedTorsions>
[ 6907 6896 6895 6894 ] final  -30.68 input  -60.11 | X-H torsion
[ 7974 7965 7964 7962 ] final -143.67 input  175.53 | X-H torsion
[ 8008 7997 7996 7995 ] final  -83.28 input   59.86 | X-H torsion
[ 10167 10162 10161 10158 ] final  -91.51 input  -65.29 | X-H torsion
[ 10718 10713 10712 10709 ] final   98.24 input   66.30 | X-H torsion
[ 10763 10752 10751 10750 ] final   18.06 input  -60.55 | X-H torsion
[ 11005 11000 10999 10996 ] final -169.64 input  -57.11 | X-H torsion

> <Gold.Protein.ActiveResidues>
 VAL166  LYS551  ARG553  GLY616  TRP617  ASP618  TYR619  PRO620  LYS621  CYS622 
 ASP623  PHE694  ASN695  SER759  ASP760  ASP761  ALA762  ILE779  LEU786  VAL792 
 PHE793  MET794  SER795  GLU796  ALA797  LYS798  CYS799  TRP800  GLU811  SER814 

> <Gold.Protein.RotatedAtoms>
  151.1023  134.9979  159.8454 H   0  0  0  0  0  0  0  0  0  0  0  0  # atno 6907 bound_to 6896
  152.5438  134.1935  159.8693 H   0  0  0  0  0  0  0  0  0  0  0  0  # atno 6908 bound_to 6896
  151.1979  133.4584  159.2629 H   0  0  0  0  0  0  0  0  0  0  0  0  # atno 6909 bound_to 6896
  144.8352  140.5805  143.5488 H   0  0  0  0  0  0  0  0  0  0  0  0  # atno 7974 bound_to 7965
  154.6174  140.0621  156.9572 H   0  0  0  0  0  0  0  0  0  0  0  0  # atno 8008 bound_to 7997
  155.1872  140.3304  155.4346 H   0  0  0  0  0  0  0  0  0  0  0  0  # atno 8009 bound_to 7997
  156.2412  140.1887  156.6965 H   0  0  0  0  0  0  0  0  0  0  0  0  # atno 8010 bound_to 7997
  140.3441  143.2926  151.9801 H   0  0  0  0  0  0  0  0  0  0  0  0  # atno 10167 bound_to 10162
  157.6899  131.0634  150.4766 H   0  0  0  0  0  0  0  0  0  0  0  0  # atno 10718 bound_to 10713
  153.1283  135.6734  153.9220 H   0  0  0  0  0  0  0  0  0  0  0  0  # atno 10763 bound_to 10752
  153.8715  135.3069  155.3443 H   0  0  0  0  0  0  0  0  0  0  0  0  # atno 10764 bound_to 10752
  154.7684  135.4952  153.9681 H   0  0  0  0  0  0  0  0  0  0  0  0  # atno 10765 bound_to 10752
  140.5285  134.5639  157.5068 H   0  0  0  0  0  0  0  0  0  0  0  0  # atno 11005 bound_to 11000
  145.4809  139.1495  143.3762 LP  0  0  0  0  0  0  0  0  0  0  0  0  # atno 17320 bound_to 7965
  146.2652  140.4945  142.8837 LP  0  0  0  0  0  0  0  0  0  0  0  0  # atno 17321 bound_to 7965
  139.4836  144.6132  151.7395 LP  0  0  0  0  0  0  0  0  0  0  0  0  # atno 17342 bound_to 10162
  140.5281  144.0773  150.6044 LP  0  0  0  0  0  0  0  0  0  0  0  0  # atno 17343 bound_to 10162
  156.5100  130.4137  149.6306 LP  0  0  0  0  0  0  0  0  0  0  0  0  # atno 17370 bound_to 10713
  156.3249  130.7300  151.2219 LP  0  0  0  0  0  0  0  0  0  0  0  0  # atno 17371 bound_to 10713
  139.9567  134.7523  156.0326 LP  0  0  0  0  0  0  0  0  0  0  0  0  # atno 17394 bound_to 11000
  141.1294  133.6590  156.3425 LP  0  0  0  0  0  0  0  0  0  0  0  0  # atno 17395 bound_to 11000

$$$$
