AV-unprocessed.smi:3033|AV-procd|sdf|11573|dock8
  -GOLD-   2272016543D 1   1.00000     0.00000
 Structure written by MMmdl.
 33 34  0  0  0  0  0  0  0  0  1 V2000
  153.0650  142.8283  162.5248 C   0  0  0  0  0  0  0  0  0  0  0  0
  153.2587  141.9578  161.4196 O   0  0  0  0  0  0  0  0  0  0  0  0
  152.6452  142.2771  160.2272 C   0  0  0  0  0  0  0  0  0  0  0  0
  152.1962  143.5776  159.8860 C   0  0  0  0  0  0  0  0  0  0  0  0
  151.5753  143.8130  158.6446 C   0  0  0  0  0  0  0  0  0  0  0  0
  151.3977  142.7584  157.7308 C   0  0  0  0  0  0  0  0  0  0  0  0
  151.8434  141.4596  158.0542 C   0  0  0  0  0  0  0  0  0  0  0  0
  151.6496  140.3091  157.0780 C   0  0  2  0  0  0  0  0  0  0  0  0
  152.6592  139.3326  157.2390 O   0  0  0  0  0  0  0  0  0  0  0  0
  151.6561  140.8158  155.6190 C   0  0  0  0  0  0  0  0  0  0  0  0
  150.4496  140.4858  154.8982 N   0  0  0  0  0  0  0  0  0  0  0  0
  149.3961  141.3794  154.7805 C   0  0  0  0  0  0  0  0  0  0  0  0
  148.2425  141.0882  154.1324 C   0  0  0  0  0  0  0  0  0  0  0  0
  146.9740  142.2564  154.0325 Cl  0  0  0  0  0  0  0  0  0  0  0  0
  148.0622  139.7750  153.5148 C   0  0  0  0  0  0  0  0  0  0  0  0
  147.0616  139.4069  152.9027 O   0  0  0  0  0  0  0  0  0  0  0  0
  149.1462  138.9045  153.6642 N   0  0  0  0  0  0  0  0  0  0  0  0
  150.3363  139.1945  154.3326 C   0  0  0  0  0  0  0  0  0  0  0  0
  151.2191  138.3400  154.4060 O   0  0  0  0  0  0  0  0  0  0  0  0
  152.4610  141.2295  159.3016 C   0  0  0  0  0  0  0  0  0  0  0  0
  149.0597  137.9856  153.2550 H   0  0  0  0  0  0  0  0  0  0  0  0
  153.6038  142.4390  163.3885 H   0  0  0  0  0  0  0  0  0  0  0  0
  152.0112  142.8981  162.7981 H   0  0  0  0  0  0  0  0  0  0  0  0
  153.4518  143.8270  162.3178 H   0  0  0  0  0  0  0  0  0  0  0  0
  152.3149  144.4121  160.5603 H   0  0  0  0  0  0  0  0  0  0  0  0
  151.2339  144.8061  158.3927 H   0  0  0  0  0  0  0  0  0  0  0  0
  150.9172  142.9491  156.7820 H   0  0  0  0  0  0  0  0  0  0  0  0
  150.6924  139.8329  157.2959 H   0  0  0  0  0  0  0  0  0  0  0  0
  152.2603  138.4777  157.1849 H   0  0  0  0  0  0  0  0  0  0  0  0
  151.6838  141.9072  155.6038 H   0  0  0  0  0  0  0  0  0  0  0  0
  152.5277  140.4965  155.0435 H   0  0  0  0  0  0  0  0  0  0  0  0
  149.4963  142.3570  155.2309 H   0  0  0  0  0  0  0  0  0  0  0  0
  152.7994  140.2360  159.5579 H   0  0  0  0  0  0  0  0  0  0  0  0
  1  2  1  0  0  0  0
  1 22  1  0  0  0  0
  1 23  1  0  0  0  0
  1 24  1  0  0  0  0
  2  3  1  0  0  0  0
  3 20  1  0  0  0  0
  3  4  2  0  0  0  0
  4  5  1  0  0  0  0
  4 25  1  0  0  0  0
  5  6  2  0  0  0  0
  5 26  1  0  0  0  0
  6  7  1  0  0  0  0
  6 27  1  0  0  0  0
  7  8  1  0  0  0  0
  7 20  2  0  0  0  0
  8  9  1  0  0  0  0
  8 10  1  0  0  0  0
  8 28  1  0  0  0  0
  9 29  1  0  0  0  0
 10 11  1  0  0  0  0
 10 30  1  0  0  0  0
 10 31  1  0  0  0  0
 11 18  1  0  0  0  0
 11 12  1  0  0  0  0
 12 13  2  0  0  0  0
 12 32  1  0  0  0  0
 13 14  1  0  0  0  0
 13 15  1  0  0  0  0
 15 16  2  0  0  0  0
 15 17  1  0  0  0  0
 17 21  1  0  0  0  0
 17 18  1  0  0  0  0
 18 19  2  0  0  0  0
 20 33  1  0  0  0  0
M  END
> <s_m_source_file>
AV-unprocessed.smi

> <i_m_source_file_index>
3033

> <i_lp_mmshare_version>
43012

> <i_f3d_flags>
0

> <s_epik_input>
W0NIM11PYzFbY0hdW2NIXVtjSF1jKFtjSF0xKVtDQEhdKFtPSF0pW0NIMl1uMltjSF1jKENsKWMoPU8pW25IXWMyPU8=

> <s_epik_cmdline>
J2VwaWtfcHl0aG9uJywgJy1waCcsICc3LjAnLCAnLXRuJywgJzgnLCAnLW1hJywgJzIwMCcsICctbWV0YWxfYmluZGluZycsICctaW1hZScsICc8aW5maWxlLm1hZT4nLCAnLW9tYWUnLCAnPG91dGZpbGUubWFlPic=

> <r_lp_tautomer_probability>
0.999537

> <r_epik_Ionization_Penalty>
0.0292058

> <r_epik_Ionization_Penalty_Charging>
0.0292057

> <r_epik_Ionization_Penalty_Neutral>
7.1713e-08

> <r_epik_State_Penalty>
0.0240115

> <r_epik_Charging_Adjusted_Penalty>
0.0532172

> <i_epik_Tot_Q>
0

> <i_epik_Tot_abs_Q>
0

> <r_epik_Metal_State_Penalty>
2.21956

> <b_epik_Metal_Only>
0

> <s_lp_Force_Field>
OPLS_2005

> <r_lp_Energy>
16.8707

> <b_lp_Chiralities_Consistent>
1

> <s_lp_Variant>
AV-unprocessed.smi:3033-1

> <Gold.Version>
5.8.1

> <Gold.Id.Protein>
6NUR|6NUR_protein|mol2

> <Gold.PLP.Fitness>
47.0377

> <Gold.PLP.PLP>
-43.5497

> <Gold.PLP.part.hbond>
-2.5218

> <Gold.PLP.part.metal>
0.0000

> <Gold.PLP.part.buried>
-1.3765

> <Gold.PLP.part.nonpolar>
-38.5753

> <Gold.PLP.part.repulsive>
0.4983

> <Gold.PLP.ligand.clash>
0.0000

> <Gold.PLP.ligand.torsion>
2.1146

> <Gold.PLP.Chemscore.Hbond>
1.5688

> <Gold.PLP.Chemscore.CHOScore>
0.9984

> <Gold.PLP.Chemscore.Metal>
0.0000

> <Gold.Chemscore.Hbonds>
donor molecule, donor type, donor heavy atom, donor atom, acceptor molecule, acceptor atom, score
      L1  H    17    21       P1  7948  0.54
      P1  H  7997  8008       L1     9  0.98
      L1  C    12    32       P1  8028  1.00

> <Gold.PLP.Chemscore.Internal.Correction>
0.0160

> <Gold.Rescore>
     Score         DG    S(hbond)    S(metal)    S(lipo)     H(rot)  DE(clash)    DE(int)     intcor
     13.81     -16.14       1.51        0.00     103.00       2.51       0.16       2.17       ----

> <Gold.Chemscore.Fitness>
13.8070

> <Gold.Chemscore.DG>
-16.1363

> <Gold.Chemscore.ZeroCoef>
-5.4800

> <Gold.Chemscore.Hbond>
1.5069

> <Gold.Chemscore.Metal>
0.0000

> <Gold.Chemscore.Lipo>
102.9976

> <Gold.Chemscore.Internal_Hbond>
0.0000

> <Gold.Chemscore.DEClash>
0.1628

> <Gold.Chemscore.DEInternal>
2.1665

> <Gold.Chemscore.Rot>
2.5107

> <Gold.Chemscore.Internal.Correction>
   9.000000E+99

> <Gold.Chemscore.Hbonds>
donor molecule, donor type, donor heavy atom, donor atom, acceptor molecule, acceptor atom, score
      L1  H    17    21       P1  7948  0.54
      P1  H  7997  8008       L1     9  0.78

> <Gold.Chemscore.Hbond.Weighted>
-5.0330

> <Gold.Chemscore.Metal.Weighted>
-0.0000

> <Gold.Chemscore.Lipo.Weighted>
-12.0507

> <Gold.Chemscore.Internal_Hbond.Weighted>
0.0000

> <Gold.Chemscore.DEClash.Weighted>
0.1628

> <Gold.Chemscore.DEInternal.Weighted>
2.1665

> <Gold.Chemscore.Rot.Weighted>
6.4274

> <Gold.Chemscore.Internal.Correction.Weighted>
   9.000000E+99

> <Gold.Protein.RotatedTorsions>
[ 6907 6896 6895 6894 ] final  163.62 input  -60.11 | X-H torsion
[ 7974 7965 7964 7962 ] final -152.73 input  175.53 | X-H torsion
[ 8008 7997 7996 7995 ] final  -83.38 input   59.86 | X-H torsion
[ 10167 10162 10161 10158 ] final -134.44 input  -65.29 | X-H torsion
[ 10718 10713 10712 10709 ] final -103.35 input   66.30 | X-H torsion
[ 10763 10752 10751 10750 ] final  -13.35 input  -60.55 | X-H torsion
[ 11005 11000 10999 10996 ] final  -26.09 input  -57.11 | X-H torsion

> <Gold.Protein.ActiveResidues>
 VAL166  LYS551  ARG553  GLY616  TRP617  ASP618  TYR619  PRO620  LYS621  CYS622 
 ASP623  PHE694  ASN695  SER759  ASP760  ASP761  ALA762  ILE779  LEU786  VAL792 
 PHE793  MET794  SER795  GLU796  ALA797  LYS798  CYS799  TRP800  GLU811  SER814 

> <Gold.Protein.RotatedAtoms>
  151.9224  133.3589  159.3901 H   0  0  0  0  0  0  0  0  0  0  0  0  # atno 6907 bound_to 6896
  150.7034  134.4621  159.5395 H   0  0  0  0  0  0  0  0  0  0  0  0  # atno 6908 bound_to 6896
  152.2247  134.8379  160.0532 H   0  0  0  0  0  0  0  0  0  0  0  0  # atno 6909 bound_to 6896
  144.7778  140.4622  143.5861 H   0  0  0  0  0  0  0  0  0  0  0  0  # atno 7974 bound_to 7965
  154.6185  140.0619  156.9585 H   0  0  0  0  0  0  0  0  0  0  0  0  # atno 8008 bound_to 7997
  155.1856  140.3303  155.4349 H   0  0  0  0  0  0  0  0  0  0  0  0  # atno 8009 bound_to 7997
  156.2418  140.1890  156.6950 H   0  0  0  0  0  0  0  0  0  0  0  0  # atno 8010 bound_to 7997
  139.8880  143.6757  152.2617 H   0  0  0  0  0  0  0  0  0  0  0  0  # atno 10167 bound_to 10162
  156.0262  130.5463  150.7240 H   0  0  0  0  0  0  0  0  0  0  0  0  # atno 10718 bound_to 10713
  153.5120  135.7016  153.5776 H   0  0  0  0  0  0  0  0  0  0  0  0  # atno 10763 bound_to 10752
  153.3862  135.3907  155.1891 H   0  0  0  0  0  0  0  0  0  0  0  0  # atno 10764 bound_to 10752
  154.8702  135.3847  154.4601 H   0  0  0  0  0  0  0  0  0  0  0  0  # atno 10765 bound_to 10752
  140.8997  133.7532  156.0528 H   0  0  0  0  0  0  0  0  0  0  0  0  # atno 11005 bound_to 11000
  145.6135  139.1516  143.3062 LP  0  0  0  0  0  0  0  0  0  0  0  0  # atno 17320 bound_to 7965
  146.1969  140.6250  142.9120 LP  0  0  0  0  0  0  0  0  0  0  0  0  # atno 17321 bound_to 7965
  139.7135  144.7616  151.1072 LP  0  0  0  0  0  0  0  0  0  0  0  0  # atno 17342 bound_to 10162
  140.7732  143.5300  150.9435 LP  0  0  0  0  0  0  0  0  0  0  0  0  # atno 17343 bound_to 10162
  157.4849  131.0906  151.0494 LP  0  0  0  0  0  0  0  0  0  0  0  0  # atno 17370 bound_to 10713
  157.0917  130.5945  149.5441 LP  0  0  0  0  0  0  0  0  0  0  0  0  # atno 17371 bound_to 10713
  140.8245  134.3251  157.5370 LP  0  0  0  0  0  0  0  0  0  0  0  0  # atno 17394 bound_to 11000
  139.8740  134.9328  156.3564 LP  0  0  0  0  0  0  0  0  0  0  0  0  # atno 17395 bound_to 11000

$$$$
