AV-unprocessed.smi:3253|AV-procd|sdf|12447|dock3
  -GOLD-   2272018343D 1   1.00000     0.00000
 Structure written by MMmdl.
 37 38  0  0  0  0  0  0  0  0  2 V2000
  146.2736  128.7381  152.9028 C   0  0  0  0  0  0  0  0  0  0  0  0
  146.2281  130.2251  152.5157 C   0  0  2  0  0  0  0  0  0  0  0  0
  145.8472  130.4525  151.0357 C   0  0  0  0  0  0  0  0  0  0  0  0
  145.1135  131.7030  150.8223 N   0  0  0  0  0  0  0  0  0  0  0  0
  145.5649  132.9824  151.0237 C   0  0  0  0  0  0  0  0  0  0  0  0
  144.5298  133.8182  150.6913 C   0  0  0  0  0  0  0  0  0  0  0  0
  143.4899  133.0143  150.3068 N   0  3  0  0  0  0  0  0  0  0  0  0
  143.8462  131.7283  150.3899 C   0  0  0  0  0  0  0  0  0  0  0  0
  147.5210  130.8368  152.8081 N   0  0  0  0  0  0  0  0  0  0  0  0
  148.0503  130.9786  154.0336 C   0  0  0  0  0  0  0  0  0  0  0  0
  147.4773  130.6141  155.0612 O   0  0  0  0  0  0  0  0  0  0  0  0
  149.4389  131.6323  154.1107 C   0  0  1  0  0  0  0  0  0  0  0  0
  149.4132  132.9078  154.9777 C   0  0  0  0  0  0  0  0  0  0  0  0
  150.2483  132.5440  156.1940 C   0  0  0  0  0  0  0  0  0  0  0  0
  150.3771  133.2899  157.1635 O   0  0  0  0  0  0  0  0  0  0  0  0
  150.7917  131.3315  156.0554 N   0  0  0  0  0  0  0  0  0  0  0  0
  151.6408  130.6629  157.0319 C   0  0  0  0  0  0  0  0  0  0  0  0
  150.4878  130.7135  154.7761 C   0  0  0  0  0  0  0  0  0  0  0  0
  145.2983  128.2647  152.7886 H   0  0  0  0  0  0  0  0  0  0  0  0
  146.5719  128.6133  153.9444 H   0  0  0  0  0  0  0  0  0  0  0  0
  146.9850  128.1890  152.2848 H   0  0  0  0  0  0  0  0  0  0  0  0
  145.4764  130.7026  153.1476 H   0  0  0  0  0  0  0  0  0  0  0  0
  146.7356  130.4828  150.4028 H   0  0  0  0  0  0  0  0  0  0  0  0
  145.2272  129.6332  150.6688 H   0  0  0  0  0  0  0  0  0  0  0  0
  146.5634  133.1980  151.3760 H   0  0  0  0  0  0  0  0  0  0  0  0
  144.4567  134.8960  150.7006 H   0  0  0  0  0  0  0  0  0  0  0  0
  143.2324  130.8774  150.1520 H   0  0  0  0  0  0  0  0  0  0  0  0
  148.0596  131.1657  152.0195 H   0  0  0  0  0  0  0  0  0  0  0  0
  149.7694  131.8829  153.1010 H   0  0  0  0  0  0  0  0  0  0  0  0
  149.8764  133.7465  154.4569 H   0  0  0  0  0  0  0  0  0  0  0  0
  148.4102  133.2125  155.2816 H   0  0  0  0  0  0  0  0  0  0  0  0
  152.5376  131.2521  157.2270 H   0  0  0  0  0  0  0  0  0  0  0  0
  151.9522  129.6806  156.6748 H   0  0  0  0  0  0  0  0  0  0  0  0
  151.1065  130.5271  157.9729 H   0  0  0  0  0  0  0  0  0  0  0  0
  150.1326  129.6914  154.9204 H   0  0  0  0  0  0  0  0  0  0  0  0
  151.3965  130.6634  154.1747 H   0  0  0  0  0  0  0  0  0  0  0  0
  142.5808  133.3428  150.0052 H   0  0  0  0  0  0  0  0  0  0  0  0
  1  2  1  0  0  0  0
  1 19  1  0  0  0  0
  1 20  1  0  0  0  0
  1 21  1  0  0  0  0
  2  3  1  0  0  0  0
  2  9  1  0  0  0  0
  2 22  1  0  0  0  0
  3  4  1  0  0  0  0
  3 23  1  0  0  0  0
  3 24  1  0  0  0  0
  4  8  1  0  0  0  0
  4  5  1  0  0  0  0
  5  6  2  0  0  0  0
  5 25  1  0  0  0  0
  6  7  1  0  0  0  0
  6 26  1  0  0  0  0
  7  8  2  0  0  0  0
  7 37  1  0  0  0  0
  8 27  1  0  0  0  0
  9 10  1  0  0  0  0
  9 28  1  0  0  0  0
 10 11  2  0  0  0  0
 10 12  1  0  0  0  0
 12 18  1  0  0  0  0
 12 13  1  0  0  0  0
 12 29  1  0  0  0  0
 13 14  1  0  0  0  0
 13 30  1  0  0  0  0
 13 31  1  0  0  0  0
 14 15  2  0  0  0  0
 14 16  1  0  0  0  0
 16 17  1  0  0  0  0
 16 18  1  0  0  0  0
 17 32  1  0  0  0  0
 17 33  1  0  0  0  0
 17 34  1  0  0  0  0
 18 35  1  0  0  0  0
 18 36  1  0  0  0  0
M  CHG  1   7   1
M  END
> <s_m_source_file>
AV-unprocessed.smi

> <i_m_source_file_index>
3253

> <i_lp_mmshare_version>
43012

> <i_f3d_flags>
0

> <s_epik_input>
W2NIXTFuW2NIXVtjSF1uMVtDSDJdW0NAQEhdKFtDSDNdKVtOSF1DKD1PKVtDQEBIXTJbQ0gyXUMoPU8pTihbQ0gzXSlbQ0gyXTI=

> <s_epik_cmdline>
J2VwaWtfcHl0aG9uJywgJy1waCcsICc3LjAnLCAnLXRuJywgJzgnLCAnLW1hJywgJzIwMCcsICctbWV0YWxfYmluZGluZycsICctaW1hZScsICc8aW5maWxlLm1hZT4nLCAnLW9tYWUnLCAnPG91dGZpbGUubWFlPic=

> <r_lp_tautomer_probability>
1

> <r_epik_Ionization_Penalty>
0.251561

> <r_epik_Ionization_Penalty_Charging>
0

> <r_epik_Ionization_Penalty_Neutral>
0.251561

> <r_epik_State_Penalty>
0.242926

> <r_epik_Charging_Adjusted_Penalty>
0.242926

> <i_epik_Tot_Q>
1

> <i_epik_Tot_abs_Q>
1

> <r_epik_Metal_State_Penalty>
0.533885

> <b_epik_Metal_Only>
0

> <s_lp_Force_Field>
OPLS_2005

> <r_lp_Energy>
14.6529

> <b_lp_Chiralities_Consistent>
1

> <s_lp_Variant>
AV-unprocessed.smi:3253-3

> <Gold.Version>
5.8.1

> <Gold.Id.Protein>
6NUR|6NUR_protein|mol2

> <Gold.PLP.Fitness>
47.0997

> <Gold.PLP.PLP>
-33.7677

> <Gold.PLP.part.hbond>
-2.9009

> <Gold.PLP.part.metal>
0.0000

> <Gold.PLP.part.buried>
-5.4808

> <Gold.PLP.part.nonpolar>
-25.8723

> <Gold.PLP.part.repulsive>
0.0620

> <Gold.PLP.ligand.clash>
0.0000

> <Gold.PLP.ligand.torsion>
0.4486

> <Gold.PLP.Chemscore.Hbond>
3.7313

> <Gold.PLP.Chemscore.CHOScore>
0.9995

> <Gold.PLP.Chemscore.Metal>
0.0000

> <Gold.Chemscore.Hbonds>
donor molecule, donor type, donor heavy atom, donor atom, acceptor molecule, acceptor atom, score
      L1  H     7    37       P1 10186  2.00
      L1  H     9    28       P1 10747  1.00
      P1  H  6896  6908       L1    15  0.62
      L1  C     8    27       P1 10952  0.98

> <Gold.PLP.Chemscore.Internal.Correction>
0.0368

> <Gold.Rescore>
     Score         DG    S(hbond)    S(metal)    S(lipo)     H(rot)  DE(clash)    DE(int)     intcor
     16.02     -16.58       2.83        0.00      58.63       2.03       0.01       0.55       ----

> <Gold.Chemscore.Fitness>
16.0177

> <Gold.Chemscore.DG>
-16.5785

> <Gold.Chemscore.ZeroCoef>
-5.4800

> <Gold.Chemscore.Hbond>
2.8281

> <Gold.Chemscore.Metal>
0.0000

> <Gold.Chemscore.Lipo>
58.6317

> <Gold.Chemscore.Internal_Hbond>
0.0000

> <Gold.Chemscore.DEClash>
0.0126

> <Gold.Chemscore.DEInternal>
0.5482

> <Gold.Chemscore.Rot>
2.0341

> <Gold.Chemscore.Internal.Correction>
   9.000000E+99

> <Gold.Chemscore.Hbonds>
donor molecule, donor type, donor heavy atom, donor atom, acceptor molecule, acceptor atom, score
      L1  H     7    37       P1 10186  0.99
      L1  H     9    28       P1 10747  0.93
      P1  H  6896  6908       L1    15  0.60

> <Gold.Chemscore.Hbond.Weighted>
-9.4458

> <Gold.Chemscore.Metal.Weighted>
-0.0000

> <Gold.Chemscore.Lipo.Weighted>
-6.8599

> <Gold.Chemscore.Internal_Hbond.Weighted>
0.0000

> <Gold.Chemscore.DEClash.Weighted>
0.0126

> <Gold.Chemscore.DEInternal.Weighted>
0.5482

> <Gold.Chemscore.Rot.Weighted>
5.2072

> <Gold.Chemscore.Internal.Correction.Weighted>
   9.000000E+99

> <Gold.Protein.RotatedTorsions>
[ 6907 6896 6895 6894 ] final   94.10 input  -60.11 | X-H torsion
[ 7974 7965 7964 7962 ] final  -35.92 input  175.53 | X-H torsion
[ 8008 7997 7996 7995 ] final  -79.54 input   59.86 | X-H torsion
[ 10167 10162 10161 10158 ] final -130.97 input  -65.29 | X-H torsion
[ 10718 10713 10712 10709 ] final   24.50 input   66.30 | X-H torsion
[ 10763 10752 10751 10750 ] final   31.83 input  -60.55 | X-H torsion
[ 11005 11000 10999 10996 ] final  -94.07 input  -57.11 | X-H torsion

> <Gold.Protein.ActiveResidues>
 VAL166  LYS551  ARG553  GLY616  TRP617  ASP618  TYR619  PRO620  LYS621  CYS622 
 ASP623  PHE694  ASN695  SER759  ASP760  ASP761  ALA762  ILE779  LEU786  VAL792 
 PHE793  MET794  SER795  GLU796  ALA797  LYS798  CYS799  TRP800  GLU811  SER814 

> <Gold.Protein.RotatedAtoms>
  152.5451  134.1246  159.8413 H   0  0  0  0  0  0  0  0  0  0  0  0  # atno 6907 bound_to 6896
  151.1298  133.5037  159.2607 H   0  0  0  0  0  0  0  0  0  0  0  0  # atno 6908 bound_to 6896
  151.1687  135.0318  159.8797 H   0  0  0  0  0  0  0  0  0  0  0  0  # atno 6909 bound_to 6896
  146.0706  140.6216  142.8954 H   0  0  0  0  0  0  0  0  0  0  0  0  # atno 7974 bound_to 7965
  154.5795  140.0677  156.9083 H   0  0  0  0  0  0  0  0  0  0  0  0  # atno 8008 bound_to 7997
  155.2489  140.3350  155.4266 H   0  0  0  0  0  0  0  0  0  0  0  0  # atno 8009 bound_to 7997
  156.2178  140.1786  156.7532 H   0  0  0  0  0  0  0  0  0  0  0  0  # atno 8010 bound_to 7997
  139.9237  143.6352  152.2547 H   0  0  0  0  0  0  0  0  0  0  0  0  # atno 10167 bound_to 10162
  157.1806  130.6801  149.6111 H   0  0  0  0  0  0  0  0  0  0  0  0  # atno 10718 bound_to 10713
  153.0294  135.6429  154.1261 H   0  0  0  0  0  0  0  0  0  0  0  0  # atno 10763 bound_to 10752
  154.0985  135.2861  155.3258 H   0  0  0  0  0  0  0  0  0  0  0  0  # atno 10764 bound_to 10752
  154.6415  135.5458  153.7858 H   0  0  0  0  0  0  0  0  0  0  0  0  # atno 10765 bound_to 10752
  141.1480  133.7930  157.0247 H   0  0  0  0  0  0  0  0  0  0  0  0  # atno 11005 bound_to 11000
  144.7229  140.4432  143.6994 LP  0  0  0  0  0  0  0  0  0  0  0  0  # atno 17320 bound_to 7965
  145.6399  139.1548  143.2922 LP  0  0  0  0  0  0  0  0  0  0  0  0  # atno 17321 bound_to 7965
  139.6840  144.7653  151.1558 LP  0  0  0  0  0  0  0  0  0  0  0  0  # atno 17342 bound_to 10162
  140.7655  143.5684  150.9022 LP  0  0  0  0  0  0  0  0  0  0  0  0  # atno 17343 bound_to 10162
  155.9725  130.4648  150.6231 LP  0  0  0  0  0  0  0  0  0  0  0  0  # atno 17370 bound_to 10713
  157.3956  131.0802  151.1354 LP  0  0  0  0  0  0  0  0  0  0  0  0  # atno 17371 bound_to 10713
  140.0793  134.9657  157.1598 LP  0  0  0  0  0  0  0  0  0  0  0  0  # atno 17394 bound_to 11000
  140.3599  134.2505  155.7188 LP  0  0  0  0  0  0  0  0  0  0  0  0  # atno 17395 bound_to 11000

$$$$
