AV-unprocessed.smi:3101|AV-procd|sdf|11809|dock8
  -GOLD-   2272017183D 1   1.00000     0.00000
 Structure written by MMmdl.
 28 29  0  0  0  0  0  0  0  0  1 V2000
  153.1222  138.7008  154.5567 C   0  0  0  0  0  0  0  0  0  0  0  0
  151.5926  138.6591  154.7186 C   0  0  1  0  0  0  0  0  0  0  0  0
  151.0775  137.5368  155.6054 C   0  0  0  0  0  0  0  0  0  0  0  0
  149.7239  138.0635  156.0937 C   0  0  0  0  0  0  0  0  0  0  0  0
  149.6419  139.4297  155.6841 O   0  0  0  0  0  0  0  0  0  0  0  0
  150.9258  139.9156  155.3058 C   0  0  1  0  0  0  0  0  0  0  0  0
  151.6093  140.5461  156.5370 C   0  0  0  0  0  0  0  0  0  0  0  0
  152.5144  139.9517  157.1239 O   0  0  0  0  0  0  0  0  0  0  0  0
  151.1320  141.7494  156.9053 N   0  0  0  0  0  0  0  0  0  0  0  0
  151.5679  142.5774  157.9729 C   0  0  0  0  0  0  0  0  0  0  0  0
  151.4887  143.9712  157.7415 C   0  0  0  0  0  0  0  0  0  0  0  0
  151.8707  144.8865  158.6598 N   0  0  0  0  0  0  0  0  0  0  0  0
  152.3415  144.4066  159.8305 C   0  0  0  0  0  0  0  0  0  0  0  0
  152.4285  143.0221  160.0788 C   0  0  0  0  0  0  0  0  0  0  0  0
  152.0445  142.1129  159.1565 N   0  0  0  0  0  0  0  0  0  0  0  0
  153.6352  138.7772  155.5153 H   0  0  0  0  0  0  0  0  0  0  0  0
  153.4258  139.5513  153.9462 H   0  0  0  0  0  0  0  0  0  0  0  0
  153.4828  137.7965  154.0662 H   0  0  0  0  0  0  0  0  0  0  0  0
  151.1647  138.5121  153.7256 H   0  0  0  0  0  0  0  0  0  0  0  0
  150.9884  136.5927  155.0671 H   0  0  0  0  0  0  0  0  0  0  0  0
  151.7428  137.3720  156.4537 H   0  0  0  0  0  0  0  0  0  0  0  0
  148.8950  137.5062  155.6566 H   0  0  0  0  0  0  0  0  0  0  0  0
  149.6434  137.9897  157.1788 H   0  0  0  0  0  0  0  0  0  0  0  0
  150.8080  140.6754  154.5316 H   0  0  0  0  0  0  0  0  0  0  0  0
  150.3700  142.1155  156.3533 H   0  0  0  0  0  0  0  0  0  0  0  0
  151.1131  144.3603  156.8062 H   0  0  0  0  0  0  0  0  0  0  0  0
  152.6504  145.1288  160.5717 H   0  0  0  0  0  0  0  0  0  0  0  0
  152.8061  142.6436  161.0171 H   0  0  0  0  0  0  0  0  0  0  0  0
  1  2  1  0  0  0  0
  1 16  1  0  0  0  0
  1 17  1  0  0  0  0
  1 18  1  0  0  0  0
  2  6  1  0  0  0  0
  2  3  1  0  0  0  0
  2 19  1  0  0  0  0
  3  4  1  0  0  0  0
  3 20  1  0  0  0  0
  3 21  1  0  0  0  0
  4  5  1  0  0  0  0
  4 22  1  0  0  0  0
  4 23  1  0  0  0  0
  5  6  1  0  0  0  0
  6  7  1  0  0  0  0
  6 24  1  0  0  0  0
  7  8  2  0  0  0  0
  7  9  1  0  0  0  0
  9 10  1  0  0  0  0
  9 25  1  0  0  0  0
 10 15  1  0  0  0  0
 10 11  2  0  0  0  0
 11 12  1  0  0  0  0
 11 26  1  0  0  0  0
 12 13  2  0  0  0  0
 13 14  1  0  0  0  0
 13 27  1  0  0  0  0
 14 15  2  0  0  0  0
 14 28  1  0  0  0  0
M  END
> <s_m_source_file>
AV-unprocessed.smi

> <i_m_source_file_index>
3101

> <i_lp_mmshare_version>
43012

> <i_f3d_flags>
0

> <s_epik_input>
W0NIM11bQ0BASF0xW0NIMl1bQ0gyXU9bQ0BIXTFDKD1PKVtOSF1jMltjSF1uW2NIXVtjSF1uMg==

> <s_epik_cmdline>
J2VwaWtfcHl0aG9uJywgJy1waCcsICc3LjAnLCAnLXRuJywgJzgnLCAnLW1hJywgJzIwMCcsICctbWV0YWxfYmluZGluZycsICctaW1hZScsICc8aW5maWxlLm1hZT4nLCAnLW9tYWUnLCAnPG91dGZpbGUubWFlPic=

> <r_lp_tautomer_probability>
1

> <r_epik_Ionization_Penalty>
2.83174e-06

> <r_epik_Ionization_Penalty_Charging>
0

> <r_epik_Ionization_Penalty_Neutral>
2.83174e-06

> <r_epik_State_Penalty>
-0

> <r_epik_Charging_Adjusted_Penalty>
0

> <i_epik_Tot_Q>
0

> <i_epik_Tot_abs_Q>
0

> <r_epik_Metal_State_Penalty>
-0

> <b_epik_Metal_Only>
0

> <s_lp_Force_Field>
OPLS_2005

> <r_lp_Energy>
27.517

> <b_lp_Chiralities_Consistent>
1

> <s_lp_Variant>
AV-unprocessed.smi:3101-2

> <Gold.Version>
5.8.1

> <Gold.Id.Protein>
6NUR|6NUR_protein|mol2

> <Gold.PLP.Fitness>
34.8558

> <Gold.PLP.PLP>
-29.8690

> <Gold.PLP.part.hbond>
-1.0000

> <Gold.PLP.part.metal>
0.0000

> <Gold.PLP.part.buried>
-4.3962

> <Gold.PLP.part.nonpolar>
-24.6078

> <Gold.PLP.part.repulsive>
0.1751

> <Gold.PLP.ligand.clash>
0.0000

> <Gold.PLP.ligand.torsion>
0.5191

> <Gold.PLP.Chemscore.Hbond>
1.0000

> <Gold.PLP.Chemscore.CHOScore>
1.0000

> <Gold.PLP.Chemscore.Metal>
0.0000

> <Gold.Chemscore.Hbonds>
donor molecule, donor type, donor heavy atom, donor atom, acceptor molecule, acceptor atom, score
      P1  H  7997  8010       L1     8  1.00
      L1  C    11    26       P1  8028  1.00

> <Gold.PLP.Chemscore.Internal.Correction>
0.0249

> <Gold.Rescore>
     Score         DG    S(hbond)    S(metal)    S(lipo)     H(rot)  DE(clash)    DE(int)     intcor
     11.56     -14.50       1.00        0.00      70.55       1.00       0.19       2.75       ----

> <Gold.Chemscore.Fitness>
11.5570

> <Gold.Chemscore.DG>
-14.4981

> <Gold.Chemscore.ZeroCoef>
-5.4800

> <Gold.Chemscore.Hbond>
0.9953

> <Gold.Chemscore.Metal>
0.0000

> <Gold.Chemscore.Lipo>
70.5455

> <Gold.Chemscore.Internal_Hbond>
0.0000

> <Gold.Chemscore.DEClash>
0.1938

> <Gold.Chemscore.DEInternal>
2.7472

> <Gold.Chemscore.Rot>
1.0000

> <Gold.Chemscore.Internal.Correction>
   9.000000E+99

> <Gold.Chemscore.Hbonds>
donor molecule, donor type, donor heavy atom, donor atom, acceptor molecule, acceptor atom, score
      P1  H  7997  8010       L1     8  0.98

> <Gold.Chemscore.Hbond.Weighted>
-3.3242

> <Gold.Chemscore.Metal.Weighted>
-0.0000

> <Gold.Chemscore.Lipo.Weighted>
-8.2538

> <Gold.Chemscore.Internal_Hbond.Weighted>
0.0000

> <Gold.Chemscore.DEClash.Weighted>
0.1938

> <Gold.Chemscore.DEInternal.Weighted>
2.7472

> <Gold.Chemscore.Rot.Weighted>
2.5600

> <Gold.Chemscore.Internal.Correction.Weighted>
   9.000000E+99

> <Gold.Protein.RotatedTorsions>
[ 6907 6896 6895 6894 ] final  -27.27 input  -60.11 | X-H torsion
[ 7974 7965 7964 7962 ] final -114.27 input  175.53 | X-H torsion
[ 8008 7997 7996 7995 ] final   54.38 input   59.86 | X-H torsion
[ 10167 10162 10161 10158 ] final -179.42 input  -65.29 | X-H torsion
[ 10718 10713 10712 10709 ] final  155.61 input   66.30 | X-H torsion
[ 10763 10752 10751 10750 ] final  -57.48 input  -60.55 | X-H torsion
[ 11005 11000 10999 10996 ] final  137.90 input  -57.11 | X-H torsion

> <Gold.Protein.ActiveResidues>
 VAL166  LYS551  ARG553  GLY616  TRP617  ASP618  TYR619  PRO620  LYS621  CYS622 
 ASP623  PHE694  ASN695  SER759  ASP760  ASP761  ALA762  ILE779  LEU786  VAL792 
 PHE793  MET794  SER795  GLU796  ALA797  LYS798  CYS799  TRP800  GLU811  SER814 

> <Gold.Protein.RotatedAtoms>
  151.1492  135.0219  159.8660 H   0  0  0  0  0  0  0  0  0  0  0  0  # atno 6907 bound_to 6896
  152.5453  134.1408  159.8488 H   0  0  0  0  0  0  0  0  0  0  0  0  # atno 6908 bound_to 6896
  151.1492  133.4873  159.2628 H   0  0  0  0  0  0  0  0  0  0  0  0  # atno 6909 bound_to 6896
  145.1222  140.8675  143.3807 H   0  0  0  0  0  0  0  0  0  0  0  0  # atno 7974 bound_to 7965
  155.4838  140.3469  155.4344 H   0  0  0  0  0  0  0  0  0  0  0  0  # atno 8008 bound_to 7997
  156.1021  140.1438  156.9481 H   0  0  0  0  0  0  0  0  0  0  0  0  # atno 8009 bound_to 7997
  154.4701  140.0904  156.7100 H   0  0  0  0  0  0  0  0  0  0  0  0  # atno 8010 bound_to 7997
  139.5387  144.2424  152.0850 H   0  0  0  0  0  0  0  0  0  0  0  0  # atno 10167 bound_to 10162
  157.2160  131.0708  151.1941 H   0  0  0  0  0  0  0  0  0  0  0  0  # atno 10718 bound_to 10713
  154.2231  135.6374  153.5151 H   0  0  0  0  0  0  0  0  0  0  0  0  # atno 10763 bound_to 10752
  152.9964  135.5501  154.6092 H   0  0  0  0  0  0  0  0  0  0  0  0  # atno 10764 bound_to 10752
  154.5557  135.2905  155.0940 H   0  0  0  0  0  0  0  0  0  0  0  0  # atno 10765 bound_to 10752
  140.0146  134.9424  157.0349 H   0  0  0  0  0  0  0  0  0  0  0  0  # atno 11005 bound_to 11000
  145.0728  139.3018  143.5823 LP  0  0  0  0  0  0  0  0  0  0  0  0  # atno 17320 bound_to 7965
  146.3520  140.0208  142.8658 LP  0  0  0  0  0  0  0  0  0  0  0  0  # atno 17321 bound_to 7965
  140.1899  144.4762  150.6484 LP  0  0  0  0  0  0  0  0  0  0  0  0  # atno 17342 bound_to 10162
  140.6607  143.2251  151.5863 LP  0  0  0  0  0  0  0  0  0  0  0  0  # atno 17343 bound_to 10162
  157.3624  130.7138  149.6510 LP  0  0  0  0  0  0  0  0  0  0  0  0  # atno 17370 bound_to 10713
  155.9686  130.4222  150.4504 LP  0  0  0  0  0  0  0  0  0  0  0  0  # atno 17371 bound_to 10713
  140.4494  134.1598  155.7180 LP  0  0  0  0  0  0  0  0  0  0  0  0  # atno 17394 bound_to 11000
  141.1734  133.8563  157.1499 LP  0  0  0  0  0  0  0  0  0  0  0  0  # atno 17395 bound_to 11000

$$$$
