AV-unprocessed.smi:194|AV-procd|sdf|1520|dock4
  -GOLD-   2262019363D 1   1.00000     0.00000
 Structure written by MMmdl.
 53 55  0  0  0  0  0  0  0  0  1 V2000
  150.2198  140.5688  155.4033 C   0  0  0  0  0  0  0  0  0  0  0  0
  149.1666  140.1726  154.3559 C   0  0  2  0  0  0  0  0  0  0  0  0
  148.3661  141.3971  153.8678 C   0  0  0  0  0  0  0  0  0  0  0  0
  147.1382  141.8790  155.1750 S   0  0  1  0  0  0  0  0  0  0  0  0
  146.1194  143.0017  154.1087 C   0  0  0  0  0  0  0  0  0  0  0  0
  146.2854  140.6407  155.4574 O   0  0  0  0  0  0  0  0  0  0  0  0
  148.3013  139.1000  154.8671 N   0  0  0  0  0  0  0  0  0  0  0  0
  148.6063  138.4280  156.1267 C   0  0  0  0  0  0  0  0  0  0  0  0
  147.3970  138.5268  154.0290 C   0  0  0  0  0  0  0  0  0  0  0  0
  147.1259  139.1521  152.8534 N   0  0  0  0  0  0  0  0  0  0  0  0
  146.2363  138.6403  151.9996 C   0  0  0  0  0  0  0  0  0  0  0  0
  145.5117  137.5276  152.1194 N   0  0  0  0  0  0  0  0  0  0  0  0
  145.7735  136.8908  153.2963 C   0  0  0  0  0  0  0  0  0  0  0  0
  146.6955  137.3134  154.2978 C   0  0  0  0  0  0  0  0  0  0  0  0
  146.7075  136.3902  155.3380 N   0  0  0  0  0  0  0  0  0  0  0  0
  145.8430  135.4834  154.9760 C   0  0  0  0  0  0  0  0  0  0  0  0
  145.2188  135.7142  153.7715 N   0  0  0  0  0  0  0  0  0  0  0  0
  144.2244  134.8634  153.1337 C   0  0  0  0  0  0  0  0  0  0  0  0
  144.7237  134.0295  151.9144 C   0  0  0  0  0  0  0  0  0  0  0  0
  145.1994  134.9592  150.7575 C   0  0  0  0  0  0  0  0  0  0  0  0
  144.1563  135.6923  150.1471 O   0  0  0  0  0  0  0  0  0  0  0  0
  145.8274  133.0271  152.3391 C   0  0  0  0  0  0  0  0  0  0  0  0
  146.1161  131.9713  151.2586 C   0  0  0  0  0  0  0  0  0  0  0  0
  144.9253  131.2566  150.9558 O   0  0  0  0  0  0  0  0  0  0  0  0
  143.9065  132.0872  150.4150 C   0  0  0  0  0  0  0  0  0  0  0  0
  143.5191  133.1835  151.4273 C   0  0  0  0  0  0  0  0  0  0  0  0
  150.9195  141.2999  154.9974 H   0  0  0  0  0  0  0  0  0  0  0  0
  150.8001  139.7024  155.7222 H   0  0  0  0  0  0  0  0  0  0  0  0
  149.7612  141.0084  156.2896 H   0  0  0  0  0  0  0  0  0  0  0  0
  149.7316  139.8080  153.4978 H   0  0  0  0  0  0  0  0  0  0  0  0
  149.0122  142.2423  153.6324 H   0  0  0  0  0  0  0  0  0  0  0  0
  147.8183  141.1493  152.9583 H   0  0  0  0  0  0  0  0  0  0  0  0
  146.7335  143.8082  153.7081 H   0  0  0  0  0  0  0  0  0  0  0  0
  145.3095  143.4395  154.6920 H   0  0  0  0  0  0  0  0  0  0  0  0
  145.6858  142.4462  153.2769 H   0  0  0  0  0  0  0  0  0  0  0  0
  147.7102  137.9785  156.5562 H   0  0  0  0  0  0  0  0  0  0  0  0
  149.0056  139.1247  156.8622 H   0  0  0  0  0  0  0  0  0  0  0  0
  149.3481  137.6440  155.9729 H   0  0  0  0  0  0  0  0  0  0  0  0
  146.0823  139.2049  151.0917 H   0  0  0  0  0  0  0  0  0  0  0  0
  145.6266  134.6195  155.5873 H   0  0  0  0  0  0  0  0  0  0  0  0
  143.8230  134.2008  153.9019 H   0  0  0  0  0  0  0  0  0  0  0  0
  143.3904  135.4978  152.8297 H   0  0  0  0  0  0  0  0  0  0  0  0
  145.9225  135.6935  151.1071 H   0  0  0  0  0  0  0  0  0  0  0  0
  145.7089  134.3761  149.9900 H   0  0  0  0  0  0  0  0  0  0  0  0
  144.3919  136.6075  150.1471 H   0  0  0  0  0  0  0  0  0  0  0  0
  146.7506  133.5429  152.6031 H   0  0  0  0  0  0  0  0  0  0  0  0
  145.5103  132.5047  153.2424 H   0  0  0  0  0  0  0  0  0  0  0  0
  146.5287  132.4246  150.3564 H   0  0  0  0  0  0  0  0  0  0  0  0
  146.8609  131.2638  151.6228 H   0  0  0  0  0  0  0  0  0  0  0  0
  144.2311  132.5067  149.4629 H   0  0  0  0  0  0  0  0  0  0  0  0
  143.0373  131.4673  150.1947 H   0  0  0  0  0  0  0  0  0  0  0  0
  143.0515  132.6914  152.2816 H   0  0  0  0  0  0  0  0  0  0  0  0
  142.7516  133.8281  150.9968 H   0  0  0  0  0  0  0  0  0  0  0  0
  1  2  1  0  0  0  0
  1 27  1  0  0  0  0
  1 28  1  0  0  0  0
  1 29  1  0  0  0  0
  2  3  1  0  0  0  0
  2  7  1  0  0  0  0
  2 30  1  0  0  0  0
  3  4  1  0  0  0  0
  3 31  1  0  0  0  0
  3 32  1  0  0  0  0
  4  5  1  0  0  0  0
  4  6  2  0  0  0  0
  5 33  1  0  0  0  0
  5 34  1  0  0  0  0
  5 35  1  0  0  0  0
  7  8  1  0  0  0  0
  7  9  1  0  0  0  0
  8 36  1  0  0  0  0
  8 37  1  0  0  0  0
  8 38  1  0  0  0  0
  9 14  1  0  0  0  0
  9 10  2  0  0  0  0
 10 11  1  0  0  0  0
 11 12  2  0  0  0  0
 11 39  1  0  0  0  0
 12 13  1  0  0  0  0
 13 17  1  0  0  0  0
 13 14  2  0  0  0  0
 14 15  1  0  0  0  0
 15 16  2  0  0  0  0
 16 17  1  0  0  0  0
 16 40  1  0  0  0  0
 17 18  1  0  0  0  0
 18 19  1  0  0  0  0
 18 41  1  0  0  0  0
 18 42  1  0  0  0  0
 19 26  1  0  0  0  0
 19 20  1  0  0  0  0
 19 22  1  0  0  0  0
 20 21  1  0  0  0  0
 20 43  1  0  0  0  0
 20 44  1  0  0  0  0
 21 45  1  0  0  0  0
 22 23  1  0  0  0  0
 22 46  1  0  0  0  0
 22 47  1  0  0  0  0
 23 24  1  0  0  0  0
 23 48  1  0  0  0  0
 23 49  1  0  0  0  0
 24 25  1  0  0  0  0
 25 26  1  0  0  0  0
 25 50  1  0  0  0  0
 25 51  1  0  0  0  0
 26 52  1  0  0  0  0
 26 53  1  0  0  0  0
M  END
> <s_m_source_file>
AV-unprocessed.smi

> <i_m_source_file_index>
194

> <i_lp_mmshare_version>
43012

> <i_f3d_flags>
0

> <s_epik_input>
W0NIM11bU0BAXSg9TylbQ0gyXVtDQEBIXShbQ0gzXSlOKFtDSDNdKWMobltjSF1uMSljKGMxMiluW2NIXW4yW0NIMl1DMyhbQ0gyXVtPSF0pW0NIMl1bQ0gyXU9bQ0gyXVtDSDJdMw==

> <s_epik_cmdline>
J2VwaWtfcHl0aG9uJywgJy1waCcsICc3LjAnLCAnLXRuJywgJzgnLCAnLW1hJywgJzIwMCcsICctbWV0YWxfYmluZGluZycsICctaW1hZScsICc8aW5maWxlLm1hZT4nLCAnLW9tYWUnLCAnPG91dGZpbGUubWFlPic=

> <r_lp_tautomer_probability>
1

> <r_epik_Ionization_Penalty>
0.00101625

> <r_epik_Ionization_Penalty_Charging>
0

> <r_epik_Ionization_Penalty_Neutral>
0.00101625

> <r_epik_State_Penalty>
0.000568005

> <r_epik_Charging_Adjusted_Penalty>
0.000568005

> <i_epik_Tot_Q>
0

> <i_epik_Tot_abs_Q>
0

> <r_epik_Metal_State_Penalty>
-0

> <b_epik_Metal_Only>
0

> <s_lp_Force_Field>
OPLS_2005

> <r_lp_Energy>
28.4609

> <b_lp_Chiralities_Consistent>
1

> <s_lp_Variant>
AV-unprocessed.smi:194-1

> <Gold.Version>
5.8.1

> <Gold.Id.Protein>
6NUR|6NUR_protein|mol2

> <Gold.PLP.Fitness>
38.9638

> <Gold.PLP.PLP>
-35.0491

> <Gold.PLP.part.hbond>
-1.0930

> <Gold.PLP.part.metal>
0.0000

> <Gold.PLP.part.buried>
-3.8900

> <Gold.PLP.part.nonpolar>
-32.4096

> <Gold.PLP.part.repulsive>
1.6253

> <Gold.PLP.ligand.clash>
0.0000

> <Gold.PLP.ligand.torsion>
0.6108

> <Gold.PLP.Chemscore.Hbond>
0.9516

> <Gold.PLP.Chemscore.CHOScore>
0.5695

> <Gold.PLP.Chemscore.Metal>
0.0000

> <Gold.Chemscore.Hbonds>
donor molecule, donor type, donor heavy atom, donor atom, acceptor molecule, acceptor atom, score
      L1  H    21    45       P1 10171  0.92
      L1  C    11    39       P1 10171  0.57

> <Gold.PLP.Chemscore.Internal.Correction>
0.5731

> <Gold.Rescore>
     Score         DG    S(hbond)    S(metal)    S(lipo)     H(rot)  DE(clash)    DE(int)     intcor
      3.35      -9.69       0.97        0.00      74.46       3.03       0.35       5.99       ----

> <Gold.Chemscore.Fitness>
3.3528

> <Gold.Chemscore.DG>
-9.6902

> <Gold.Chemscore.ZeroCoef>
-5.4800

> <Gold.Chemscore.Hbond>
0.9743

> <Gold.Chemscore.Metal>
0.0000

> <Gold.Chemscore.Lipo>
74.4570

> <Gold.Chemscore.Internal_Hbond>
0.0000

> <Gold.Chemscore.DEClash>
0.3515

> <Gold.Chemscore.DEInternal>
5.9860

> <Gold.Chemscore.Rot>
3.0295

> <Gold.Chemscore.Internal.Correction>
   9.000000E+99

> <Gold.Chemscore.Hbonds>
donor molecule, donor type, donor heavy atom, donor atom, acceptor molecule, acceptor atom, score
      L1  H    21    45       P1 10171  0.84

> <Gold.Chemscore.Hbond.Weighted>
-3.2543

> <Gold.Chemscore.Metal.Weighted>
-0.0000

> <Gold.Chemscore.Lipo.Weighted>
-8.7115

> <Gold.Chemscore.Internal_Hbond.Weighted>
0.0000

> <Gold.Chemscore.DEClash.Weighted>
0.3515

> <Gold.Chemscore.DEInternal.Weighted>
5.9860

> <Gold.Chemscore.Rot.Weighted>
7.7555

> <Gold.Chemscore.Internal.Correction.Weighted>
   9.000000E+99

> <Gold.Protein.RotatedTorsions>
[ 6907 6896 6895 6894 ] final -113.82 input  -60.11 | X-H torsion
[ 7974 7965 7964 7962 ] final  -37.24 input  175.53 | X-H torsion
[ 8008 7997 7996 7995 ] final    3.52 input   59.86 | X-H torsion
[ 10167 10162 10161 10158 ] final  -22.53 input  -65.29 | X-H torsion
[ 10718 10713 10712 10709 ] final -113.65 input   66.30 | X-H torsion
[ 10763 10752 10751 10750 ] final -140.70 input  -60.55 | X-H torsion
[ 11005 11000 10999 10996 ] final   33.07 input  -57.11 | X-H torsion

> <Gold.Protein.ActiveResidues>
 VAL166  LYS551  ARG553  GLY616  TRP617  ASP618  TYR619  PRO620  LYS621  CYS622 
 ASP623  PHE694  ASN695  SER759  ASP760  ASP761  ALA762  ILE779  LEU786  VAL792 
 PHE793  MET794  SER795  GLU796  ALA797  LYS798  CYS799  TRP800  GLU811  SER814 

> <Gold.Protein.RotatedAtoms>
  150.7857  133.8890  159.3307 H   0  0  0  0  0  0  0  0  0  0  0  0  # atno 6907 bound_to 6896
  151.6741  135.0970  160.0213 H   0  0  0  0  0  0  0  0  0  0  0  0  # atno 6908 bound_to 6896
  152.3920  133.6654  159.6280 H   0  0  0  0  0  0  0  0  0  0  0  0  # atno 6909 bound_to 6896
  146.0592  140.6373  142.9005 H   0  0  0  0  0  0  0  0  0  0  0  0  # atno 7974 bound_to 7965
  154.7047  140.2680  155.6686 H   0  0  0  0  0  0  0  0  0  0  0  0  # atno 8008 bound_to 7997
  156.2776  140.2765  156.1592 H   0  0  0  0  0  0  0  0  0  0  0  0  # atno 8009 bound_to 7997
  155.0717  140.0372  157.2600 H   0  0  0  0  0  0  0  0  0  0  0  0  # atno 8010 bound_to 7997
  140.7286  143.4526  151.0495 H   0  0  0  0  0  0  0  0  0  0  0  0  # atno 10167 bound_to 10162
  156.0780  130.5985  150.8671 H   0  0  0  0  0  0  0  0  0  0  0  0  # atno 10718 bound_to 10713
  154.8570  135.3545  154.5749 H   0  0  0  0  0  0  0  0  0  0  0  0  # atno 10763 bound_to 10752
  153.6361  135.7000  153.5262 H   0  0  0  0  0  0  0  0  0  0  0  0  # atno 10764 bound_to 10752
  153.3009  135.4206  155.1211 H   0  0  0  0  0  0  0  0  0  0  0  0  # atno 10765 bound_to 10752
  140.2669  134.3127  155.7840 H   0  0  0  0  0  0  0  0  0  0  0  0  # atno 11005 bound_to 11000
  144.7165  140.4227  143.7040 LP  0  0  0  0  0  0  0  0  0  0  0  0  # atno 17320 bound_to 7965
  145.6590  139.1578  143.2819 LP  0  0  0  0  0  0  0  0  0  0  0  0  # atno 17321 bound_to 7965
  139.8203  143.7829  152.3176 LP  0  0  0  0  0  0  0  0  0  0  0  0  # atno 17342 bound_to 10162
  139.7909  144.7410  150.9956 LP  0  0  0  0  0  0  0  0  0  0  0  0  # atno 17343 bound_to 10162
  157.5884  131.0945  150.9158 LP  0  0  0  0  0  0  0  0  0  0  0  0  # atno 17370 bound_to 10713
  156.9339  130.5360  149.5279 LP  0  0  0  0  0  0  0  0  0  0  0  0  # atno 17371 bound_to 10713
  141.2183  133.7443  156.9274 LP  0  0  0  0  0  0  0  0  0  0  0  0  # atno 17394 bound_to 11000
  140.1410  134.9293  157.2467 LP  0  0  0  0  0  0  0  0  0  0  0  0  # atno 17395 bound_to 11000

$$$$
