AV-unprocessed.smi:3348|AV-procd|sdf|12923|dock8
  -GOLD-   2272019343D 1   1.00000     0.00000
 Structure written by MMmdl.
 46 47  0  0  0  0  0  0  0  0  1 V2000
  151.6880  137.8040  154.6451 C   0  0  0  0  0  0  0  0  0  0  0  0
  150.7332  138.9708  154.9342 C   0  0  2  0  0  0  0  0  0  0  0  0
  149.6253  139.0292  153.8501 C   0  0  0  0  0  0  0  0  0  0  0  0
  148.6624  140.1057  154.0157 N   0  0  0  0  0  0  0  0  0  0  0  0
  147.3384  140.0126  154.3927 C   0  0  0  0  0  0  0  0  0  0  0  0
  146.8368  141.2812  154.4402 C   0  0  0  0  0  0  0  0  0  0  0  0
  147.9498  142.0969  154.0942 C   0  0  0  0  0  0  0  0  0  0  0  0
  149.0435  141.3921  153.8533 N   0  0  0  0  0  0  0  0  0  0  0  0
  151.5197  140.2078  155.0184 N   0  0  0  0  0  0  0  0  0  0  0  0
  150.9605  141.2676  155.8557 C   0  0  0  0  0  0  0  0  0  0  0  0
  150.6540  140.7519  157.2716 C   0  0  0  0  0  0  0  0  0  0  0  0
  150.9848  141.7039  158.2769 O   0  0  0  0  0  0  0  0  0  0  0  0
  152.3013  141.5982  158.8095 C   0  0  2  0  0  0  0  0  0  0  0  0
  152.5219  140.1264  159.2047 C   0  0  0  0  0  0  0  0  0  0  0  0
  153.8875  139.9272  159.8761 C   0  0  0  0  0  0  0  0  0  0  0  0
  154.0340  140.8466  161.0977 C   0  0  0  0  0  0  0  0  0  0  0  0
  153.8033  142.3182  160.7183 C   0  0  0  0  0  0  0  0  0  0  0  0
  152.4364  142.5295  160.0347 C   0  0  1  0  0  0  0  0  0  0  0  0
  152.2407  144.0063  159.6554 C   0  0  0  0  0  0  0  0  0  0  0  0
  151.1540  136.8534  154.6295 H   0  0  0  0  0  0  0  0  0  0  0  0
  152.4613  137.7290  155.4104 H   0  0  0  0  0  0  0  0  0  0  0  0
  152.1827  137.9232  153.6803 H   0  0  0  0  0  0  0  0  0  0  0  0
  150.2805  138.7657  155.9050 H   0  0  0  0  0  0  0  0  0  0  0  0
  150.0718  139.1046  152.8576 H   0  0  0  0  0  0  0  0  0  0  0  0
  149.0559  138.0990  153.8559 H   0  0  0  0  0  0  0  0  0  0  0  0
  146.8669  139.0609  154.5883 H   0  0  0  0  0  0  0  0  0  0  0  0
  145.8300  141.5810  154.6905 H   0  0  0  0  0  0  0  0  0  0  0  0
  147.9969  143.1730  154.0162 H   0  0  0  0  0  0  0  0  0  0  0  0
  152.4592  139.9911  155.3356 H   0  0  0  0  0  0  0  0  0  0  0  0
  151.6235  142.1264  155.9080 H   0  0  0  0  0  0  0  0  0  0  0  0
  150.0324  141.6249  155.4084 H   0  0  0  0  0  0  0  0  0  0  0  0
  149.5990  140.4879  157.3569 H   0  0  0  0  0  0  0  0  0  0  0  0
  151.2133  139.8358  157.4635 H   0  0  0  0  0  0  0  0  0  0  0  0
  153.0570  141.8844  158.0752 H   0  0  0  0  0  0  0  0  0  0  0  0
  151.7327  139.8075  159.8868 H   0  0  0  0  0  0  0  0  0  0  0  0
  152.4429  139.4855  158.3270 H   0  0  0  0  0  0  0  0  0  0  0  0
  154.0063  138.8859  160.1760 H   0  0  0  0  0  0  0  0  0  0  0  0
  154.6822  140.1366  159.1590 H   0  0  0  0  0  0  0  0  0  0  0  0
  153.3178  140.5512  161.8655 H   0  0  0  0  0  0  0  0  0  0  0  0
  155.0250  140.7264  161.5364 H   0  0  0  0  0  0  0  0  0  0  0  0
  153.8735  142.9392  161.6123 H   0  0  0  0  0  0  0  0  0  0  0  0
  154.6020  142.6481  160.0524 H   0  0  0  0  0  0  0  0  0  0  0  0
  151.6577  142.2647  160.7516 H   0  0  0  0  0  0  0  0  0  0  0  0
  152.9794  144.3285  158.9207 H   0  0  0  0  0  0  0  0  0  0  0  0
  152.3354  144.6523  160.5286 H   0  0  0  0  0  0  0  0  0  0  0  0
  151.2518  144.1784  159.2297 H   0  0  0  0  0  0  0  0  0  0  0  0
  1  2  1  0  0  0  0
  1 20  1  0  0  0  0
  1 21  1  0  0  0  0
  1 22  1  0  0  0  0
  2  3  1  0  0  0  0
  2  9  1  0  0  0  0
  2 23  1  0  0  0  0
  3  4  1  0  0  0  0
  3 24  1  0  0  0  0
  3 25  1  0  0  0  0
  4  8  1  0  0  0  0
  4  5  1  0  0  0  0
  5  6  2  0  0  0  0
  5 26  1  0  0  0  0
  6  7  1  0  0  0  0
  6 27  1  0  0  0  0
  7  8  2  0  0  0  0
  7 28  1  0  0  0  0
  9 10  1  0  0  0  0
  9 29  1  0  0  0  0
 10 11  1  0  0  0  0
 10 30  1  0  0  0  0
 10 31  1  0  0  0  0
 11 12  1  0  0  0  0
 11 32  1  0  0  0  0
 11 33  1  0  0  0  0
 12 13  1  0  0  0  0
 13 18  1  0  0  0  0
 13 14  1  0  0  0  0
 13 34  1  0  0  0  0
 14 15  1  0  0  0  0
 14 35  1  0  0  0  0
 14 36  1  0  0  0  0
 15 16  1  0  0  0  0
 15 37  1  0  0  0  0
 15 38  1  0  0  0  0
 16 17  1  0  0  0  0
 16 39  1  0  0  0  0
 16 40  1  0  0  0  0
 17 18  1  0  0  0  0
 17 41  1  0  0  0  0
 17 42  1  0  0  0  0
 18 19  1  0  0  0  0
 18 43  1  0  0  0  0
 19 44  1  0  0  0  0
 19 45  1  0  0  0  0
 19 46  1  0  0  0  0
M  END
> <s_m_source_file>
AV-unprocessed.smi

> <i_m_source_file_index>
3348

> <i_lp_mmshare_version>
43012

> <i_f3d_flags>
0

> <s_epik_input>
bjFbY0hdW2NIXVtjSF1uMVtDSDJdW0NAQEhdKFtDSDNdKVtOSF1bQ0gyXVtDSDJdT1tDQEBIXTJbQ0gyXVtDSDJdW0NIMl1bQ0gyXVtDQEhdMltDSDNd

> <s_epik_cmdline>
J2VwaWtfcHl0aG9uJywgJy1waCcsICc3LjAnLCAnLXRuJywgJzgnLCAnLW1hJywgJzIwMCcsICctbWV0YWxfYmluZGluZycsICctaW1hZScsICc8aW5maWxlLm1hZT4nLCAnLW9tYWUnLCAnPG91dGZpbGUubWFlPic=

> <r_lp_tautomer_probability>
1

> <r_epik_Ionization_Penalty>
2.46945

> <r_epik_Ionization_Penalty_Charging>
0

> <r_epik_Ionization_Penalty_Neutral>
2.46945

> <r_epik_State_Penalty>
2.6322

> <r_epik_Charging_Adjusted_Penalty>
2.6322

> <i_epik_Tot_Q>
0

> <i_epik_Tot_abs_Q>
0

> <r_epik_Metal_State_Penalty>
2.63217

> <b_epik_Metal_Only>
0

> <s_lp_Force_Field>
OPLS_2005

> <r_lp_Energy>
18.2161

> <b_lp_Chiralities_Consistent>
1

> <s_lp_Variant>
AV-unprocessed.smi:3348-9

> <Gold.Version>
5.8.1

> <Gold.Id.Protein>
6NUR|6NUR_protein|mol2

> <Gold.PLP.Fitness>
48.7062

> <Gold.PLP.PLP>
-41.9719

> <Gold.PLP.part.hbond>
-2.6203

> <Gold.PLP.part.metal>
0.0000

> <Gold.PLP.part.buried>
-0.9679

> <Gold.PLP.part.nonpolar>
-37.1482

> <Gold.PLP.part.repulsive>
0.6669

> <Gold.PLP.ligand.clash>
0.0000

> <Gold.PLP.ligand.torsion>
0.9229

> <Gold.PLP.Chemscore.Hbond>
1.8000

> <Gold.PLP.Chemscore.CHOScore>
1.0000

> <Gold.PLP.Chemscore.Metal>
0.0000

> <Gold.Chemscore.Hbonds>
donor molecule, donor type, donor heavy atom, donor atom, acceptor molecule, acceptor atom, score
      P1  H  7989  7998       L1     9  1.00
      P1  H  8011  8017       L1     8  0.78
      L1  C     7    28       P1  8028  0.97

> <Gold.PLP.Chemscore.Internal.Correction>
0.1802

> <Gold.Rescore>
     Score         DG    S(hbond)    S(metal)    S(lipo)     H(rot)  DE(clash)    DE(int)     intcor
     14.07     -16.98       0.62        0.00     118.21       1.72       0.62       2.29       ----

> <Gold.Chemscore.Fitness>
14.0701

> <Gold.Chemscore.DG>
-16.9813

> <Gold.Chemscore.ZeroCoef>
-5.4800

> <Gold.Chemscore.Hbond>
0.6237

> <Gold.Chemscore.Metal>
0.0000

> <Gold.Chemscore.Lipo>
118.2108

> <Gold.Chemscore.Internal_Hbond>
0.0000

> <Gold.Chemscore.DEClash>
0.6172

> <Gold.Chemscore.DEInternal>
2.2939

> <Gold.Chemscore.Rot>
1.7237

> <Gold.Chemscore.Internal.Correction>
   9.000000E+99

> <Gold.Chemscore.Hbonds>
donor molecule, donor type, donor heavy atom, donor atom, acceptor molecule, acceptor atom, score
      P1  H  7989  7998       L1     9  0.20
      P1  H  8011  8017       L1     8  0.19

> <Gold.Chemscore.Hbond.Weighted>
-2.0832

> <Gold.Chemscore.Metal.Weighted>
-0.0000

> <Gold.Chemscore.Lipo.Weighted>
-13.8307

> <Gold.Chemscore.Internal_Hbond.Weighted>
0.0000

> <Gold.Chemscore.DEClash.Weighted>
0.6172

> <Gold.Chemscore.DEInternal.Weighted>
2.2939

> <Gold.Chemscore.Rot.Weighted>
4.4126

> <Gold.Chemscore.Internal.Correction.Weighted>
   9.000000E+99

> <Gold.Protein.RotatedTorsions>
[ 6907 6896 6895 6894 ] final   37.32 input  -60.11 | X-H torsion
[ 7974 7965 7964 7962 ] final -154.23 input  175.53 | X-H torsion
[ 8008 7997 7996 7995 ] final   27.74 input   59.86 | X-H torsion
[ 10167 10162 10161 10158 ] final  118.97 input  -65.29 | X-H torsion
[ 10718 10713 10712 10709 ] final -138.95 input   66.30 | X-H torsion
[ 10763 10752 10751 10750 ] final -105.43 input  -60.55 | X-H torsion
[ 11005 11000 10999 10996 ] final    4.37 input  -57.11 | X-H torsion

> <Gold.Protein.ActiveResidues>
 VAL166  LYS551  ARG553  GLY616  TRP617  ASP618  TYR619  PRO620  LYS621  CYS622 
 ASP623  PHE694  ASN695  SER759  ASP760  ASP761  ALA762  ILE779  LEU786  VAL792 
 PHE793  MET794  SER795  GLU796  ALA797  LYS798  CYS799  TRP800  GLU811  SER814 

> <Gold.Protein.RotatedAtoms>
  152.1416  134.9058  160.0553 H   0  0  0  0  0  0  0  0  0  0  0  0  # atno 6907 bound_to 6896
  152.0124  133.3861  159.4233 H   0  0  0  0  0  0  0  0  0  0  0  0  # atno 6908 bound_to 6896
  150.6866  134.3638  159.5005 H   0  0  0  0  0  0  0  0  0  0  0  0  # atno 6909 bound_to 6896
  144.7700  140.4416  143.5914 H   0  0  0  0  0  0  0  0  0  0  0  0  # atno 7974 bound_to 7965
  155.0476  140.3176  155.4703 H   0  0  0  0  0  0  0  0  0  0  0  0  # atno 8008 bound_to 7997
  156.2841  140.2152  156.5545 H   0  0  0  0  0  0  0  0  0  0  0  0  # atno 8009 bound_to 7997
  154.7237  140.0487  157.0651 H   0  0  0  0  0  0  0  0  0  0  0  0  # atno 8010 bound_to 7997
  139.6076  144.7074  151.2917 H   0  0  0  0  0  0  0  0  0  0  0  0  # atno 10167 bound_to 10162
  156.3051  130.7451  151.1512 H   0  0  0  0  0  0  0  0  0  0  0  0  # atno 10718 bound_to 10713
  154.7946  135.4749  154.0131 H   0  0  0  0  0  0  0  0  0  0  0  0  # atno 10763 bound_to 10752
  153.1683  135.6820  153.8651 H   0  0  0  0  0  0  0  0  0  0  0  0  # atno 10764 bound_to 10752
  153.8241  135.3200  155.3391 H   0  0  0  0  0  0  0  0  0  0  0  0  # atno 10765 bound_to 10752
  140.5827  133.9998  155.8054 H   0  0  0  0  0  0  0  0  0  0  0  0  # atno 11005 bound_to 11000
  145.6354  139.1542  143.2945 LP  0  0  0  0  0  0  0  0  0  0  0  0  # atno 17320 bound_to 7965
  146.1838  140.6455  142.9177 LP  0  0  0  0  0  0  0  0  0  0  0  0  # atno 17321 bound_to 7965
  140.7296  143.6903  150.7928 LP  0  0  0  0  0  0  0  0  0  0  0  0  # atno 17342 bound_to 10162
  140.0491  143.5268  152.2682 LP  0  0  0  0  0  0  0  0  0  0  0  0  # atno 17343 bound_to 10162
  157.7378  131.0548  150.5336 LP  0  0  0  0  0  0  0  0  0  0  0  0  # atno 17370 bound_to 10713
  156.5468  130.4222  149.6127 LP  0  0  0  0  0  0  0  0  0  0  0  0  # atno 17371 bound_to 10713
  141.0986  133.9804  157.3118 LP  0  0  0  0  0  0  0  0  0  0  0  0  # atno 17394 bound_to 11000
  139.9310  135.0200  156.8399 LP  0  0  0  0  0  0  0  0  0  0  0  0  # atno 17395 bound_to 11000

$$$$
