AV-unprocessed.smi:1701|AV-procd|sdf|6831|dock6
  -GOLD-   22720 8 03D 1   1.00000     0.00000
 Structure written by MMmdl.
 54 56  0  0  0  0  0  0  0  0  2 V2000
  151.3333  143.4268  157.6159 C   0  0  0  0  0  0  0  0  0  0  0  0
  151.0058  142.2996  156.6241 C   0  0  0  0  0  0  0  0  0  0  0  0
  151.0227  140.9738  157.2412 N   0  0  0  0  0  0  0  0  0  0  0  0
  152.2051  140.6220  158.0310 C   0  0  0  0  0  0  0  0  0  0  0  0
  152.1138  141.0856  159.4938 C   0  0  0  0  0  0  0  0  0  0  0  0
  150.3977  139.9653  156.4744 C   0  0  0  0  0  0  0  0  0  0  0  0
  149.9907  138.7605  157.0910 C   0  0  0  0  0  0  0  0  0  0  0  0
  149.3552  137.7747  156.3133 C   0  0  0  0  0  0  0  0  0  0  0  0
  149.1341  138.0097  154.9421 C   0  0  0  0  0  0  0  0  0  0  0  0
  148.4915  136.9824  154.1973 N   0  0  0  0  0  0  0  0  0  0  0  0
  147.5671  136.0827  154.5886 C   0  0  0  0  0  0  0  0  0  0  0  0
  147.0969  135.9970  155.7196 O   0  0  0  0  0  0  0  0  0  0  0  0
  147.1713  135.2458  153.6130 N   0  0  0  0  0  0  0  0  0  0  0  0
  146.1919  134.1620  153.6973 C   0  0  2  0  0  0  0  0  0  0  0  0
  146.6160  132.8716  152.9676 C   0  0  0  0  0  0  0  0  0  0  0  0
  145.3310  132.3349  152.3050 C   0  0  0  0  0  0  0  0  0  0  0  0
  144.2525  133.2297  152.7659 N   0  3  2  0  0  0  0  0  0  0  0  0
  143.0420  133.3208  151.9207 C   0  0  0  0  0  0  0  0  0  0  0  0
  142.0112  134.2410  152.6059 C   0  0  0  0  0  0  0  0  0  0  0  0
  142.6168  135.6129  152.9676 C   0  0  0  0  0  0  0  0  0  0  0  0
  143.9240  135.4511  153.7672 C   0  0  0  0  0  0  0  0  0  0  0  0
  144.8876  134.5360  152.9948 C   0  0  1  0  0  0  0  0  0  0  0  0
  149.5778  139.2461  154.4128 C   0  0  0  0  0  0  0  0  0  0  0  0
  150.1883  140.1935  155.1554 N   0  0  0  0  0  0  0  0  0  0  0  0
  151.3052  144.3964  157.1184 H   0  0  0  0  0  0  0  0  0  0  0  0
  152.3291  143.3048  158.0431 H   0  0  0  0  0  0  0  0  0  0  0  0
  150.6169  143.4567  158.4371 H   0  0  0  0  0  0  0  0  0  0  0  0
  150.0156  142.4699  156.2006 H   0  0  0  0  0  0  0  0  0  0  0  0
  151.6946  142.3401  155.7809 H   0  0  0  0  0  0  0  0  0  0  0  0
  152.3736  139.5453  157.9880 H   0  0  0  0  0  0  0  0  0  0  0  0
  153.0819  141.0819  157.5743 H   0  0  0  0  0  0  0  0  0  0  0  0
  153.0326  140.8459  160.0289 H   0  0  0  0  0  0  0  0  0  0  0  0
  151.2925  140.6075  160.0272 H   0  0  0  0  0  0  0  0  0  0  0  0
  151.9686  142.1644  159.5542 H   0  0  0  0  0  0  0  0  0  0  0  0
  150.1684  138.5817  158.1412 H   0  0  0  0  0  0  0  0  0  0  0  0
  149.0422  136.8469  156.7695 H   0  0  0  0  0  0  0  0  0  0  0  0
  148.7835  136.9122  153.2337 H   0  0  0  0  0  0  0  0  0  0  0  0
  147.5886  135.3924  152.7050 H   0  0  0  0  0  0  0  0  0  0  0  0
  145.9693  133.9323  154.7416 H   0  0  0  0  0  0  0  0  0  0  0  0
  147.3688  133.0730  152.2039 H   0  0  0  0  0  0  0  0  0  0  0  0
  147.0429  132.1503  153.6652 H   0  0  0  0  0  0  0  0  0  0  0  0
  145.4217  132.3871  151.2187 H   0  0  0  0  0  0  0  0  0  0  0  0
  145.1210  131.3008  152.5789 H   0  0  0  0  0  0  0  0  0  0  0  0
  143.3044  133.7080  150.9350 H   0  0  0  0  0  0  0  0  0  0  0  0
  142.6211  132.3255  151.7752 H   0  0  0  0  0  0  0  0  0  0  0  0
  141.1426  134.3746  151.9604 H   0  0  0  0  0  0  0  0  0  0  0  0
  141.6468  133.7594  153.5144 H   0  0  0  0  0  0  0  0  0  0  0  0
  142.8184  136.1716  152.0528 H   0  0  0  0  0  0  0  0  0  0  0  0
  141.8984  136.2026  153.5378 H   0  0  0  0  0  0  0  0  0  0  0  0
  144.3827  136.4255  153.9389 H   0  0  0  0  0  0  0  0  0  0  0  0
  143.7082  135.0280  154.7494 H   0  0  0  0  0  0  0  0  0  0  0  0
  145.1165  134.9845  152.0247 H   0  0  0  0  0  0  0  0  0  0  0  0
  149.4612  139.5109  153.3751 H   0  0  0  0  0  0  0  0  0  0  0  0
  143.9630  132.8895  153.6718 H   0  0  0  0  0  0  0  0  0  0  0  0
  1  2  1  0  0  0  0
  1 25  1  0  0  0  0
  1 26  1  0  0  0  0
  1 27  1  0  0  0  0
  2  3  1  0  0  0  0
  2 28  1  0  0  0  0
  2 29  1  0  0  0  0
  3  4  1  0  0  0  0
  3  6  1  0  0  0  0
  4  5  1  0  0  0  0
  4 30  1  0  0  0  0
  4 31  1  0  0  0  0
  5 32  1  0  0  0  0
  5 33  1  0  0  0  0
  5 34  1  0  0  0  0
  6 24  1  0  0  0  0
  6  7  2  0  0  0  0
  7  8  1  0  0  0  0
  7 35  1  0  0  0  0
  8  9  2  0  0  0  0
  8 36  1  0  0  0  0
  9 10  1  0  0  0  0
  9 23  1  0  0  0  0
 10 11  1  0  0  0  0
 10 37  1  0  0  0  0
 11 12  2  0  0  0  0
 11 13  1  0  0  0  0
 13 14  1  0  0  0  0
 13 38  1  0  0  0  0
 14 22  1  0  0  0  0
 14 15  1  0  0  0  0
 14 39  1  0  0  0  0
 15 16  1  0  0  0  0
 15 40  1  0  0  0  0
 15 41  1  0  0  0  0
 16 17  1  0  0  0  0
 16 42  1  0  0  0  0
 16 43  1  0  0  0  0
 17 22  1  0  0  0  0
 17 18  1  0  0  0  0
 17 54  1  0  0  0  0
 18 19  1  0  0  0  0
 18 44  1  0  0  0  0
 18 45  1  0  0  0  0
 19 20  1  0  0  0  0
 19 46  1  0  0  0  0
 19 47  1  0  0  0  0
 20 21  1  0  0  0  0
 20 48  1  0  0  0  0
 20 49  1  0  0  0  0
 21 22  1  0  0  0  0
 21 50  1  0  0  0  0
 21 51  1  0  0  0  0
 22 52  1  0  0  0  0
 23 24  2  0  0  0  0
 23 53  1  0  0  0  0
M  CHG  1  17   1
M  END
> <s_m_source_file>
AV-unprocessed.smi

> <i_m_source_file_index>
1701

> <i_lp_mmshare_version>
43012

> <i_f3d_flags>
0

> <s_epik_input>
W0NIM11bQ0gyXU4oW0NIMl1bQ0gzXSljMVtjSF1bY0hdYyhbY0hdbjEpW05IXUMoPU8pW05IXVtDQEhdKFtDSDJdW0NIMl0yKVtDQEBIXShOMjMpW0NIMl1bQ0gyXVtDSDJdW0NIMl0z

> <s_epik_cmdline>
J2VwaWtfcHl0aG9uJywgJy1waCcsICc3LjAnLCAnLXRuJywgJzgnLCAnLW1hJywgJzIwMCcsICctbWV0YWxfYmluZGluZycsICctaW1hZScsICc8aW5maWxlLm1hZT4nLCAnLW9tYWUnLCAnPG91dGZpbGUubWFlPic=

> <r_lp_tautomer_probability>
1

> <r_epik_Ionization_Penalty>
0.56662

> <r_epik_Ionization_Penalty_Charging>
0.000974069

> <r_epik_Ionization_Penalty_Neutral>
0.565646

> <r_epik_State_Penalty>
2.0247

> <r_epik_Charging_Adjusted_Penalty>
2.02568

> <i_epik_Tot_Q>
1

> <i_epik_Tot_abs_Q>
1

> <r_epik_Metal_State_Penalty>
1.51504

> <b_epik_Metal_Only>
0

> <s_lp_Force_Field>
OPLS_2005

> <r_lp_Energy>
54.426

> <b_lp_Chiralities_Consistent>
1

> <s_lp_Variant>
AV-unprocessed.smi:1701-11

> <Gold.Version>
5.8.1

> <Gold.Id.Protein>
6NUR|6NUR_protein|mol2

> <Gold.PLP.Fitness>
42.7899

> <Gold.PLP.PLP>
-29.4094

> <Gold.PLP.part.hbond>
-3.1449

> <Gold.PLP.part.metal>
0.0000

> <Gold.PLP.part.buried>
-3.7180

> <Gold.PLP.part.nonpolar>
-24.0427

> <Gold.PLP.part.repulsive>
0.0961

> <Gold.PLP.ligand.clash>
0.0000

> <Gold.PLP.ligand.torsion>
1.3353

> <Gold.PLP.Chemscore.Hbond>
4.0749

> <Gold.PLP.Chemscore.CHOScore>
1.0000

> <Gold.PLP.Chemscore.Metal>
0.0000

> <Gold.Chemscore.Hbonds>
donor molecule, donor type, donor heavy atom, donor atom, acceptor molecule, acceptor atom, score
      L1  H    10    37       P1  7948  1.00
      L1  H    13    38       P1  7948  0.88
      L1  H    17    54       P1 10957  1.87
      P1  H  7989  7998       L1    24  0.26
      L1  C    23    53       P1  7957  1.00

> <Gold.PLP.Chemscore.Internal.Correction>
0.8263

> <Gold.Rescore>
     Score         DG    S(hbond)    S(metal)    S(lipo)     H(rot)  DE(clash)    DE(int)     intcor
     18.60     -20.91       2.73        0.00      81.93       1.28       0.00       2.30       ----

> <Gold.Chemscore.Fitness>
18.6047

> <Gold.Chemscore.DG>
-20.9077

> <Gold.Chemscore.ZeroCoef>
-5.4800

> <Gold.Chemscore.Hbond>
2.7329

> <Gold.Chemscore.Metal>
0.0000

> <Gold.Chemscore.Lipo>
81.9340

> <Gold.Chemscore.Internal_Hbond>
0.0000

> <Gold.Chemscore.DEClash>
0.0004

> <Gold.Chemscore.DEInternal>
2.3025

> <Gold.Chemscore.Rot>
1.2838

> <Gold.Chemscore.Internal.Correction>
   9.000000E+99

> <Gold.Chemscore.Hbonds>
donor molecule, donor type, donor heavy atom, donor atom, acceptor molecule, acceptor atom, score
      L1  H    10    37       P1  7948  0.92
      L1  H    13    38       P1  7948  0.87
      L1  H    17    54       P1 10957  0.70
      P1  H  7989  7998       L1    24  0.03

> <Gold.Chemscore.Hbond.Weighted>
-9.1279

> <Gold.Chemscore.Metal.Weighted>
-0.0000

> <Gold.Chemscore.Lipo.Weighted>
-9.5863

> <Gold.Chemscore.Internal_Hbond.Weighted>
0.0000

> <Gold.Chemscore.DEClash.Weighted>
0.0004

> <Gold.Chemscore.DEInternal.Weighted>
2.3025

> <Gold.Chemscore.Rot.Weighted>
3.2865

> <Gold.Chemscore.Internal.Correction.Weighted>
   9.000000E+99

> <Gold.Protein.RotatedTorsions>
[ 6907 6896 6895 6894 ] final   58.59 input  -60.11 | X-H torsion
[ 7974 7965 7964 7962 ] final -141.72 input  175.53 | X-H torsion
[ 8008 7997 7996 7995 ] final  167.54 input   59.86 | X-H torsion
[ 10167 10162 10161 10158 ] final -134.71 input  -65.29 | X-H torsion
[ 10718 10713 10712 10709 ] final  -12.37 input   66.30 | X-H torsion
[ 10763 10752 10751 10750 ] final -171.50 input  -60.55 | X-H torsion
[ 11005 11000 10999 10996 ] final   43.42 input  -57.11 | X-H torsion

> <Gold.Protein.ActiveResidues>
 VAL166  LYS551  ARG553  GLY616  TRP617  ASP618  TYR619  PRO620  LYS621  CYS622 
 ASP623  PHE694  ASN695  SER759  ASP760  ASP761  ALA762  ILE779  LEU786  VAL792 
 PHE793  MET794  SER795  GLU796  ALA797  LYS798  CYS799  TRP800  GLU811  SER814 

> <Gold.Protein.RotatedAtoms>
  152.3838  134.6549  160.0132 H   0  0  0  0  0  0  0  0  0  0  0  0  # atno 6907 bound_to 6896
  151.6804  133.3306  159.3226 H   0  0  0  0  0  0  0  0  0  0  0  0  # atno 6908 bound_to 6896
  150.7769  134.6722  159.6442 H   0  0  0  0  0  0  0  0  0  0  0  0  # atno 6909 bound_to 6896
  144.8498  140.6045  143.5398 H   0  0  0  0  0  0  0  0  0  0  0  0  # atno 7974 bound_to 7965
  156.1625  140.1614  156.8588 H   0  0  0  0  0  0  0  0  0  0  0  0  # atno 8008 bound_to 7997
  154.5175  140.0786  156.8144 H   0  0  0  0  0  0  0  0  0  0  0  0  # atno 8009 bound_to 7997
  155.3678  140.3398  155.4244 H   0  0  0  0  0  0  0  0  0  0  0  0  # atno 8010 bound_to 7997
  139.8852  143.6790  152.2621 H   0  0  0  0  0  0  0  0  0  0  0  0  # atno 10167 bound_to 10162
  156.6455  130.4940  149.6080 H   0  0  0  0  0  0  0  0  0  0  0  0  # atno 10718 bound_to 10713
  154.6299  135.2885  155.0229 H   0  0  0  0  0  0  0  0  0  0  0  0  # atno 10763 bound_to 10752
  154.1394  135.6521  153.4942 H   0  0  0  0  0  0  0  0  0  0  0  0  # atno 10764 bound_to 10752
  153.0274  135.5329  154.7122 H   0  0  0  0  0  0  0  0  0  0  0  0  # atno 10765 bound_to 10752
  140.1647  134.4297  155.8295 H   0  0  0  0  0  0  0  0  0  0  0  0  # atno 11005 bound_to 11000
  145.4524  139.1522  143.3911 LP  0  0  0  0  0  0  0  0  0  0  0  0  # atno 17320 bound_to 7965
  146.2775  140.4650  142.8790 LP  0  0  0  0  0  0  0  0  0  0  0  0  # atno 17321 bound_to 7965
  139.7159  144.7612  151.1034 LP  0  0  0  0  0  0  0  0  0  0  0  0  # atno 17342 bound_to 10162
  140.7737  143.5270  150.9469 LP  0  0  0  0  0  0  0  0  0  0  0  0  # atno 17343 bound_to 10162
  156.2125  130.6687  151.1284 LP  0  0  0  0  0  0  0  0  0  0  0  0  # atno 17370 bound_to 10713
  157.7157  131.0711  150.6334 LP  0  0  0  0  0  0  0  0  0  0  0  0  # atno 17371 bound_to 10713
  141.2212  133.6929  156.7656 LP  0  0  0  0  0  0  0  0  0  0  0  0  # atno 17394 bound_to 11000
  140.2448  134.8585  157.3610 LP  0  0  0  0  0  0  0  0  0  0  0  0  # atno 17395 bound_to 11000

$$$$
