AV-unprocessed.smi:2175|AV-procd|sdf|8844|dock3
  -GOLD-   2272012 33D 1   1.00000     0.00000
 Structure written by MMmdl.
 34 35  0  0  0  0  0  0  0  0  1 V2000
  146.1910  138.0949  152.3000 C   0  0  0  0  0  0  0  0  0  0  0  0
  147.0606  139.1216  152.9924 C   0  0  0  0  0  0  0  0  0  0  0  0
  146.4196  140.3273  153.2238 N   0  0  0  0  0  0  0  0  0  0  0  0
  147.1339  141.3289  153.8570 C   0  0  0  0  0  0  0  0  0  0  0  0
  146.3573  142.6157  154.0753 C   0  0  0  0  0  0  0  0  0  0  0  0
  148.4235  141.1407  154.2358 C   0  0  0  0  0  0  0  0  0  0  0  0
  149.2445  142.2229  154.9353 C   0  0  0  0  0  0  0  0  0  0  0  0
  149.9739  141.7819  156.2067 C   0  0  0  0  0  0  0  0  0  0  0  0
  149.9608  140.5999  156.5506 O   0  0  0  0  0  0  0  0  0  0  0  0
  150.6097  142.7426  156.8941 N   0  0  0  0  0  0  0  0  0  0  0  0
  151.3600  142.5324  158.1255 C   0  0  0  0  0  0  0  0  0  0  0  0
  151.5623  143.7759  158.9707 C   0  0  0  0  0  0  0  0  0  0  0  0
  152.5425  144.8480  158.5561 C   0  0  0  0  0  0  0  0  0  0  0  0
  152.8417  143.9719  159.7490 C   0  0  0  0  0  0  0  0  0  0  0  0
  149.0587  139.8319  153.9523 C   0  0  0  0  0  0  0  0  0  0  0  0
  150.2289  139.6043  154.2565 O   0  0  0  0  0  0  0  0  0  0  0  0
  148.2875  138.8459  153.3154 N   0  0  0  0  0  0  0  0  0  0  0  0
  145.4629  140.5101  152.9576 H   0  0  0  0  0  0  0  0  0  0  0  0
  146.6956  137.1294  152.2452 H   0  0  0  0  0  0  0  0  0  0  0  0
  145.9602  138.4181  151.2846 H   0  0  0  0  0  0  0  0  0  0  0  0
  145.2546  137.9588  152.8421 H   0  0  0  0  0  0  0  0  0  0  0  0
  146.2753  142.8356  155.1398 H   0  0  0  0  0  0  0  0  0  0  0  0
  145.3472  142.5495  153.6691 H   0  0  0  0  0  0  0  0  0  0  0  0
  146.8585  143.4518  153.5872 H   0  0  0  0  0  0  0  0  0  0  0  0
  148.6208  143.0826  155.1816 H   0  0  0  0  0  0  0  0  0  0  0  0
  149.9757  142.6084  154.2240 H   0  0  0  0  0  0  0  0  0  0  0  0
  150.5685  143.6873  156.5400 H   0  0  0  0  0  0  0  0  0  0  0  0
  150.8611  141.7750  158.7324 H   0  0  0  0  0  0  0  0  0  0  0  0
  152.3328  142.1168  157.8616 H   0  0  0  0  0  0  0  0  0  0  0  0
  150.6582  144.1194  159.4702 H   0  0  0  0  0  0  0  0  0  0  0  0
  153.1245  144.6812  157.6517 H   0  0  0  0  0  0  0  0  0  0  0  0
  152.2652  145.8824  158.7478 H   0  0  0  0  0  0  0  0  0  0  0  0
  152.7642  144.4229  160.7361 H   0  0  0  0  0  0  0  0  0  0  0  0
  153.6241  143.2238  159.6378 H   0  0  0  0  0  0  0  0  0  0  0  0
  1 19  1  0  0  0  0
  1 20  1  0  0  0  0
  1 21  1  0  0  0  0
  1  2  1  0  0  0  0
  2  3  1  0  0  0  0
  2 17  2  0  0  0  0
  3  4  1  0  0  0  0
  3 18  1  0  0  0  0
  4  6  2  0  0  0  0
  4  5  1  0  0  0  0
  5 22  1  0  0  0  0
  5 23  1  0  0  0  0
  5 24  1  0  0  0  0
  6 15  1  0  0  0  0
  6  7  1  0  0  0  0
  7  8  1  0  0  0  0
  7 25  1  0  0  0  0
  7 26  1  0  0  0  0
  8  9  2  0  0  0  0
  8 10  1  0  0  0  0
 10 11  1  0  0  0  0
 10 27  1  0  0  0  0
 11 12  1  0  0  0  0
 11 28  1  0  0  0  0
 11 29  1  0  0  0  0
 12 14  1  0  0  0  0
 12 13  1  0  0  0  0
 12 30  1  0  0  0  0
 13 14  1  0  0  0  0
 13 31  1  0  0  0  0
 13 32  1  0  0  0  0
 14 33  1  0  0  0  0
 14 34  1  0  0  0  0
 15 16  2  0  0  0  0
 15 17  1  0  0  0  0
M  END
> <s_m_source_file>
AV-unprocessed.smi

> <i_m_source_file_index>
2175

> <i_lp_mmshare_version>
43012

> <i_f3d_flags>
0

> <s_epik_input>
W0NIM11jMW5jKFtDSDNdKWMoYyg9TylbbkhdMSlbQ0gyXUMoPU8pW05IXVtDSDJdW0NIXTJbQ0gyXVtDSDJdMg==

> <s_epik_cmdline>
J2VwaWtfcHl0aG9uJywgJy1waCcsICc3LjAnLCAnLXRuJywgJzgnLCAnLW1hJywgJzIwMCcsICctbWV0YWxfYmluZGluZycsICctaW1hZScsICc8aW5maWxlLm1hZT4nLCAnLW9tYWUnLCAnPG91dGZpbGUubWFlPic=

> <r_lp_tautomer_probability>
0.156392

> <r_epik_Ionization_Penalty>
0.0142343

> <r_epik_Ionization_Penalty_Charging>
0.0141145

> <r_epik_Ionization_Penalty_Neutral>
0.000119779

> <r_epik_State_Penalty>
1.52879

> <r_epik_Charging_Adjusted_Penalty>
1.5429

> <i_epik_Tot_Q>
0

> <i_epik_Tot_abs_Q>
0

> <r_epik_Metal_State_Penalty>
1.70685

> <b_epik_Metal_Only>
0

> <s_lp_Force_Field>
OPLS_2005

> <r_lp_Energy>
17.5363

> <b_lp_Chiralities_Consistent>
1

> <s_lp_Variant>
AV-unprocessed.smi:2175-2

> <Gold.Version>
5.8.1

> <Gold.Id.Protein>
6NUR|6NUR_protein|mol2

> <Gold.PLP.Fitness>
40.2658

> <Gold.PLP.PLP>
-33.4745

> <Gold.PLP.part.hbond>
-3.0000

> <Gold.PLP.part.metal>
0.0000

> <Gold.PLP.part.buried>
1.5434

> <Gold.PLP.part.nonpolar>
-34.5514

> <Gold.PLP.part.repulsive>
3.1104

> <Gold.PLP.ligand.clash>
0.0000

> <Gold.PLP.ligand.torsion>
0.5567

> <Gold.PLP.Chemscore.Hbond>
2.4545

> <Gold.PLP.Chemscore.CHOScore>
0.0000

> <Gold.PLP.Chemscore.Metal>
0.0000

> <Gold.Chemscore.Hbonds>
donor molecule, donor type, donor heavy atom, donor atom, acceptor molecule, acceptor atom, score
      L1  H     3    18       P1 10175  1.00
      L1  H    10    27       P1  8028  0.41
      P1  H  7989  7998       L1    16  1.00

> <Gold.PLP.Chemscore.Internal.Correction>
0.5414

> <Gold.Rescore>
     Score         DG    S(hbond)    S(metal)    S(lipo)     H(rot)  DE(clash)    DE(int)     intcor
     12.61     -19.29       2.59        0.00      82.47       1.75       1.97       4.71       ----

> <Gold.Chemscore.Fitness>
12.6120

> <Gold.Chemscore.DG>
-19.2851

> <Gold.Chemscore.ZeroCoef>
-5.4800

> <Gold.Chemscore.Hbond>
2.5854

> <Gold.Chemscore.Metal>
0.0000

> <Gold.Chemscore.Lipo>
82.4691

> <Gold.Chemscore.Internal_Hbond>
0.0000

> <Gold.Chemscore.DEClash>
1.9669

> <Gold.Chemscore.DEInternal>
4.7062

> <Gold.Chemscore.Rot>
1.7497

> <Gold.Chemscore.Internal.Correction>
   9.000000E+99

> <Gold.Chemscore.Hbonds>
donor molecule, donor type, donor heavy atom, donor atom, acceptor molecule, acceptor atom, score
      L1  H     3    18       P1 10175  0.85
      L1  H    10    27       P1  8028  0.41
      P1  H  7989  7998       L1    16  0.86

> <Gold.Chemscore.Hbond.Weighted>
-8.6353

> <Gold.Chemscore.Metal.Weighted>
-0.0000

> <Gold.Chemscore.Lipo.Weighted>
-9.6489

> <Gold.Chemscore.Internal_Hbond.Weighted>
0.0000

> <Gold.Chemscore.DEClash.Weighted>
1.9669

> <Gold.Chemscore.DEInternal.Weighted>
4.7062

> <Gold.Chemscore.Rot.Weighted>
4.4791

> <Gold.Chemscore.Internal.Correction.Weighted>
   9.000000E+99

> <Gold.Protein.RotatedTorsions>
[ 6907 6896 6895 6894 ] final   32.09 input  -60.11 | X-H torsion
[ 7974 7965 7964 7962 ] final  171.80 input  175.53 | X-H torsion
[ 8008 7997 7996 7995 ] final  -26.76 input   59.86 | X-H torsion
[ 10167 10162 10161 10158 ] final  -70.44 input  -65.29 | X-H torsion
[ 10718 10713 10712 10709 ] final   96.14 input   66.30 | X-H torsion
[ 10763 10752 10751 10750 ] final   95.61 input  -60.55 | X-H torsion
[ 11005 11000 10999 10996 ] final  -93.51 input  -57.11 | X-H torsion

> <Gold.Protein.ActiveResidues>
 VAL166  LYS551  ARG553  GLY616  TRP617  ASP618  TYR619  PRO620  LYS621  CYS622 
 ASP623  PHE694  ASN695  SER759  ASP760  ASP761  ALA762  ILE779  LEU786  VAL792 
 PHE793  MET794  SER795  GLU796  ALA797  LYS798  CYS799  TRP800  GLU811  SER814 

> <Gold.Protein.RotatedAtoms>
  152.0696  134.9542  160.0574 H   0  0  0  0  0  0  0  0  0  0  0  0  # atno 6907 bound_to 6896
  152.0873  133.4178  159.4536 H   0  0  0  0  0  0  0  0  0  0  0  0  # atno 6908 bound_to 6896
  150.6836  134.2832  159.4679 H   0  0  0  0  0  0  0  0  0  0  0  0  # atno 6909 bound_to 6896
  144.7285  139.9404  143.6428 H   0  0  0  0  0  0  0  0  0  0  0  0  # atno 7974 bound_to 7965
  154.4409  140.1890  156.0826 H   0  0  0  0  0  0  0  0  0  0  0  0  # atno 8008 bound_to 7997
  156.0427  140.3318  155.7235 H   0  0  0  0  0  0  0  0  0  0  0  0  # atno 8009 bound_to 7997
  155.5676  140.0609  157.2805 H   0  0  0  0  0  0  0  0  0  0  0  0  # atno 8010 bound_to 7997
  140.5352  143.2318  151.7190 H   0  0  0  0  0  0  0  0  0  0  0  0  # atno 10167 bound_to 10162
  157.6930  131.0568  150.4446 H   0  0  0  0  0  0  0  0  0  0  0  0  # atno 10718 bound_to 10713
  153.2552  135.4248  155.0839 H   0  0  0  0  0  0  0  0  0  0  0  0  # atno 10763 bound_to 10752
  154.8398  135.3435  154.6455 H   0  0  0  0  0  0  0  0  0  0  0  0  # atno 10764 bound_to 10752
  153.6876  135.7035  153.5156 H   0  0  0  0  0  0  0  0  0  0  0  0  # atno 10765 bound_to 10752
  141.1495  133.7893  157.0170 H   0  0  0  0  0  0  0  0  0  0  0  0  # atno 11005 bound_to 11000
  146.0789  139.3777  143.0477 LP  0  0  0  0  0  0  0  0  0  0  0  0  # atno 17320 bound_to 7965
  145.7867  140.9832  143.1070 LP  0  0  0  0  0  0  0  0  0  0  0  0  # atno 17321 bound_to 7965
  139.4968  144.4054  152.0137 LP  0  0  0  0  0  0  0  0  0  0  0  0  # atno 17342 bound_to 10162
  140.3159  144.3484  150.6022 LP  0  0  0  0  0  0  0  0  0  0  0  0  # atno 17343 bound_to 10162
  156.4802  130.4072  149.6466 LP  0  0  0  0  0  0  0  0  0  0  0  0  # atno 17370 bound_to 10713
  156.3515  130.7434  151.2394 LP  0  0  0  0  0  0  0  0  0  0  0  0  # atno 17371 bound_to 10713
  140.0840  134.9631  157.1671 LP  0  0  0  0  0  0  0  0  0  0  0  0  # atno 17394 bound_to 11000
  140.3537  134.2571  155.7195 LP  0  0  0  0  0  0  0  0  0  0  0  0  # atno 17395 bound_to 11000

$$$$
