AV-unprocessed.smi:1601|AV-procd|sdf|6431|dock8
  -GOLD-   22720 7 73D 1   1.00000     0.00000
 Structure written by MMmdl.
 41 42  0  0  0  0  0  0  0  0  1 V2000
  153.8825  141.6549  160.9891 C   0  0  0  0  0  0  0  0  0  0  0  0
  152.6776  141.3935  160.0488 C   0  0  2  0  0  0  0  0  0  0  0  0
  153.1482  140.5043  158.8648 C   0  0  0  0  0  0  0  0  0  0  0  0
  152.0315  139.9268  158.1253 N   0  0  0  0  0  0  0  0  0  0  0  0
  152.1149  139.4251  156.8843 C   0  0  0  0  0  0  0  0  0  0  0  0
  153.1577  139.4208  156.2292 O   0  0  0  0  0  0  0  0  0  0  0  0
  150.8199  138.8473  156.2894 C   0  0  2  0  0  0  0  0  0  0  0  0
  151.1524  137.7348  155.2706 C   0  0  0  0  0  0  0  0  0  0  0  0
  149.9701  139.9068  155.7344 N   0  0  0  0  0  0  0  0  0  0  0  0
  149.6174  140.1333  154.4146 C   0  0  0  0  0  0  0  0  0  0  0  0
  148.8789  141.2805  154.3684 C   0  0  0  0  0  0  0  0  0  0  0  0
  148.8555  141.7187  155.7197 C   0  0  0  0  0  0  0  0  0  0  0  0
  149.5234  140.9113  156.5259 N   0  0  0  0  0  0  0  0  0  0  0  0
  152.0113  142.6441  159.6155 N   0  0  0  0  0  0  0  0  0  0  0  0
  151.8223  143.5996  160.7132 C   0  0  0  0  0  0  0  0  0  0  0  0
  151.1598  144.9114  160.2573 C   0  0  0  0  0  0  0  0  0  0  0  0
  151.9309  145.5035  159.2216 O   0  0  0  0  0  0  0  0  0  0  0  0
  152.0712  144.6401  158.1019 C   0  0  0  0  0  0  0  0  0  0  0  0
  152.7424  143.3278  158.5421 C   0  0  0  0  0  0  0  0  0  0  0  0
  154.4040  140.7398  161.2674 H   0  0  0  0  0  0  0  0  0  0  0  0
  153.5803  142.1040  161.9340 H   0  0  0  0  0  0  0  0  0  0  0  0
  154.6116  142.3158  160.5193 H   0  0  0  0  0  0  0  0  0  0  0  0
  151.9530  140.8070  160.6161 H   0  0  0  0  0  0  0  0  0  0  0  0
  153.7199  141.0763  158.1353 H   0  0  0  0  0  0  0  0  0  0  0  0
  153.7994  139.7096  159.2333 H   0  0  0  0  0  0  0  0  0  0  0  0
  151.1382  139.8956  158.5947 H   0  0  0  0  0  0  0  0  0  0  0  0
  150.2524  138.3880  157.1006 H   0  0  0  0  0  0  0  0  0  0  0  0
  151.8505  137.0093  155.6902 H   0  0  0  0  0  0  0  0  0  0  0  0
  151.6028  138.1405  154.3635 H   0  0  0  0  0  0  0  0  0  0  0  0
  150.2575  137.1831  154.9808 H   0  0  0  0  0  0  0  0  0  0  0  0
  149.9141  139.4653  153.6193 H   0  0  0  0  0  0  0  0  0  0  0  0
  148.4340  141.7422  153.4996 H   0  0  0  0  0  0  0  0  0  0  0  0
  148.3865  142.5986  156.1348 H   0  0  0  0  0  0  0  0  0  0  0  0
  151.1837  143.1776  161.4866 H   0  0  0  0  0  0  0  0  0  0  0  0
  152.7833  143.8230  161.1789 H   0  0  0  0  0  0  0  0  0  0  0  0
  150.1424  144.7296  159.9068 H   0  0  0  0  0  0  0  0  0  0  0  0
  151.0901  145.6095  161.0916 H   0  0  0  0  0  0  0  0  0  0  0  0
  151.0942  144.4456  157.6563 H   0  0  0  0  0  0  0  0  0  0  0  0
  152.6756  145.1374  157.3434 H   0  0  0  0  0  0  0  0  0  0  0  0
  153.7639  143.5350  158.8648 H   0  0  0  0  0  0  0  0  0  0  0  0
  152.8114  142.6948  157.6594 H   0  0  0  0  0  0  0  0  0  0  0  0
  1  2  1  0  0  0  0
  1 20  1  0  0  0  0
  1 21  1  0  0  0  0
  1 22  1  0  0  0  0
  2  3  1  0  0  0  0
  2 14  1  0  0  0  0
  2 23  1  0  0  0  0
  3  4  1  0  0  0  0
  3 24  1  0  0  0  0
  3 25  1  0  0  0  0
  4  5  1  0  0  0  0
  4 26  1  0  0  0  0
  5  6  2  0  0  0  0
  5  7  1  0  0  0  0
  7  8  1  0  0  0  0
  7  9  1  0  0  0  0
  7 27  1  0  0  0  0
  8 28  1  0  0  0  0
  8 29  1  0  0  0  0
  8 30  1  0  0  0  0
  9 13  1  0  0  0  0
  9 10  1  0  0  0  0
 10 11  2  0  0  0  0
 10 31  1  0  0  0  0
 11 12  1  0  0  0  0
 11 32  1  0  0  0  0
 12 13  2  0  0  0  0
 12 33  1  0  0  0  0
 14 19  1  0  0  0  0
 14 15  1  0  0  0  0
 15 16  1  0  0  0  0
 15 34  1  0  0  0  0
 15 35  1  0  0  0  0
 16 17  1  0  0  0  0
 16 36  1  0  0  0  0
 16 37  1  0  0  0  0
 17 18  1  0  0  0  0
 18 19  1  0  0  0  0
 18 38  1  0  0  0  0
 18 39  1  0  0  0  0
 19 40  1  0  0  0  0
 19 41  1  0  0  0  0
M  END
> <s_m_source_file>
AV-unprocessed.smi

> <i_m_source_file_index>
1601

> <i_lp_mmshare_version>
43012

> <i_f3d_flags>
0

> <s_epik_input>
W0NIMl0xW0NIMl1PW0NIMl1bQ0gyXU4xW0NASF0oW0NIM10pW0NIMl1bTkhdQyg9TylbQ0BIXShbQ0gzXSluMltjSF1bY0hdW2NIXW4y

> <s_epik_cmdline>
J2VwaWtfcHl0aG9uJywgJy1waCcsICc3LjAnLCAnLXRuJywgJzgnLCAnLW1hJywgJzIwMCcsICctbWV0YWxfYmluZGluZycsICctaW1hZScsICc8aW5maWxlLm1hZT4nLCAnLW9tYWUnLCAnPG91dGZpbGUubWFlPic=

> <r_lp_tautomer_probability>
1

> <r_epik_Ionization_Penalty>
0.203323

> <r_epik_Ionization_Penalty_Charging>
0

> <r_epik_Ionization_Penalty_Neutral>
0.203323

> <r_epik_State_Penalty>
0.193192

> <r_epik_Charging_Adjusted_Penalty>
0.193192

> <i_epik_Tot_Q>
0

> <i_epik_Tot_abs_Q>
0

> <r_epik_Metal_State_Penalty>
0.193187

> <b_epik_Metal_Only>
0

> <s_lp_Force_Field>
OPLS_2005

> <r_lp_Energy>
34.8704

> <b_lp_Chiralities_Consistent>
1

> <s_lp_Variant>
AV-unprocessed.smi:1601-1

> <Gold.Version>
5.8.1

> <Gold.Id.Protein>
6NUR|6NUR_protein|mol2

> <Gold.PLP.Fitness>
43.2962

> <Gold.PLP.PLP>
-36.9000

> <Gold.PLP.part.hbond>
-1.1390

> <Gold.PLP.part.metal>
0.0000

> <Gold.PLP.part.buried>
-2.3380

> <Gold.PLP.part.nonpolar>
-32.7041

> <Gold.PLP.part.repulsive>
0.2375

> <Gold.PLP.ligand.clash>
0.0000

> <Gold.PLP.ligand.torsion>
1.1965

> <Gold.PLP.Chemscore.Hbond>
0.9913

> <Gold.PLP.Chemscore.CHOScore>
1.8770

> <Gold.PLP.Chemscore.Metal>
0.0000

> <Gold.Chemscore.Hbonds>
donor molecule, donor type, donor heavy atom, donor atom, acceptor molecule, acceptor atom, score
      P1  H  7997  8009       L1     6  0.79
      L1  C    10    31       P1  7957  0.84
      L1  C    12    33       P1  8028  0.94

> <Gold.PLP.Chemscore.Internal.Correction>
0.1844

> <Gold.Rescore>
     Score         DG    S(hbond)    S(metal)    S(lipo)     H(rot)  DE(clash)    DE(int)     intcor
     15.98     -17.04       0.99        0.00     109.62       1.79       0.08       0.98       ----

> <Gold.Chemscore.Fitness>
15.9793

> <Gold.Chemscore.DG>
-17.0390

> <Gold.Chemscore.ZeroCoef>
-5.4800

> <Gold.Chemscore.Hbond>
0.9906

> <Gold.Chemscore.Metal>
0.0000

> <Gold.Chemscore.Lipo>
109.6206

> <Gold.Chemscore.Internal_Hbond>
0.0000

> <Gold.Chemscore.DEClash>
0.0750

> <Gold.Chemscore.DEInternal>
0.9847

> <Gold.Chemscore.Rot>
1.7872

> <Gold.Chemscore.Internal.Correction>
   9.000000E+99

> <Gold.Chemscore.Hbonds>
donor molecule, donor type, donor heavy atom, donor atom, acceptor molecule, acceptor atom, score
      P1  H  7997  8009       L1     6  0.74

> <Gold.Chemscore.Hbond.Weighted>
-3.3085

> <Gold.Chemscore.Metal.Weighted>
-0.0000

> <Gold.Chemscore.Lipo.Weighted>
-12.8256

> <Gold.Chemscore.Internal_Hbond.Weighted>
0.0000

> <Gold.Chemscore.DEClash.Weighted>
0.0750

> <Gold.Chemscore.DEInternal.Weighted>
0.9847

> <Gold.Chemscore.Rot.Weighted>
4.5752

> <Gold.Chemscore.Internal.Correction.Weighted>
   9.000000E+99

> <Gold.Protein.RotatedTorsions>
[ 6907 6896 6895 6894 ] final   40.55 input  -60.11 | X-H torsion
[ 7974 7965 7964 7962 ] final   22.23 input  175.53 | X-H torsion
[ 8008 7997 7996 7995 ] final  177.90 input   59.86 | X-H torsion
[ 10167 10162 10161 10158 ] final   18.96 input  -65.29 | X-H torsion
[ 10718 10713 10712 10709 ] final  177.18 input   66.30 | X-H torsion
[ 10763 10752 10751 10750 ] final  -83.11 input  -60.55 | X-H torsion
[ 11005 11000 10999 10996 ] final   12.09 input  -57.11 | X-H torsion

> <Gold.Protein.ActiveResidues>
 VAL166  LYS551  ARG553  GLY616  TRP617  ASP618  TYR619  PRO620  LYS621  CYS622 
 ASP623  PHE694  ASN695  SER759  ASP760  ASP761  ALA762  ILE779  LEU786  VAL792 
 PHE793  MET794  SER795  GLU796  ALA797  LYS798  CYS799  TRP800  GLU811  SER814 

> <Gold.Protein.RotatedAtoms>
  152.1839  134.8731  160.0523 H   0  0  0  0  0  0  0  0  0  0  0  0  # atno 6907 bound_to 6896
  151.9645  133.3701  159.4056 H   0  0  0  0  0  0  0  0  0  0  0  0  # atno 6908 bound_to 6896
  150.6922  134.4129  159.5214 H   0  0  0  0  0  0  0  0  0  0  0  0  # atno 6909 bound_to 6896
  146.2038  139.7914  142.8742 H   0  0  0  0  0  0  0  0  0  0  0  0  # atno 7974 bound_to 7965
  156.0606  140.1347  156.9945 H   0  0  0  0  0  0  0  0  0  0  0  0  # atno 8008 bound_to 7997
  154.4480  140.0992  156.6582 H   0  0  0  0  0  0  0  0  0  0  0  0  # atno 8009 bound_to 7997
  155.5383  140.3460  155.4443 H   0  0  0  0  0  0  0  0  0  0  0  0  # atno 8010 bound_to 7997
  140.5614  143.9329  150.6645 H   0  0  0  0  0  0  0  0  0  0  0  0  # atno 10167 bound_to 10162
  156.9091  130.9904  151.3023 H   0  0  0  0  0  0  0  0  0  0  0  0  # atno 10718 bound_to 10713
  154.5838  135.5568  153.7211 H   0  0  0  0  0  0  0  0  0  0  0  0  # atno 10763 bound_to 10752
  153.0091  135.6326  154.1946 H   0  0  0  0  0  0  0  0  0  0  0  0  # atno 10764 bound_to 10752
  154.1886  135.2883  155.3009 H   0  0  0  0  0  0  0  0  0  0  0  0  # atno 10765 bound_to 10752
  140.4959  134.0794  155.7782 H   0  0  0  0  0  0  0  0  0  0  0  0  # atno 11005 bound_to 11000
  145.3393  141.0284  143.3401 LP  0  0  0  0  0  0  0  0  0  0  0  0  # atno 17320 bound_to 7965
  144.8743  139.4993  143.6753 LP  0  0  0  0  0  0  0  0  0  0  0  0  # atno 17321 bound_to 7965
  140.2781  143.3408  152.1176 LP  0  0  0  0  0  0  0  0  0  0  0  0  # atno 17342 bound_to 10162
  139.5072  144.6828  151.5965 LP  0  0  0  0  0  0  0  0  0  0  0  0  # atno 17343 bound_to 10162
  157.5978  130.8490  149.8756 LP  0  0  0  0  0  0  0  0  0  0  0  0  # atno 17370 bound_to 10713
  156.0544  130.3711  150.1124 LP  0  0  0  0  0  0  0  0  0  0  0  0  # atno 17371 bound_to 10713
  141.1460  133.9054  157.2213 LP  0  0  0  0  0  0  0  0  0  0  0  0  # atno 17394 bound_to 11000
  139.9742  135.0119  156.9588 LP  0  0  0  0  0  0  0  0  0  0  0  0  # atno 17395 bound_to 11000

$$$$
