AV-unprocessed.smi:1251|AV-procd|sdf|5263|dock10
  -GOLD-   22720 4373D 1   1.00000     0.00000
 Structure written by MMmdl.
 38 39  0  0  0  0  0  0  0  0  2 V2000
  151.1046  143.2163  158.1514 C   0  0  0  0  0  0  0  0  0  0  0  0
  151.3165  141.7577  157.7312 C   0  0  0  0  0  0  0  0  0  0  0  0
  150.7591  141.4619  156.3317 C   0  0  0  0  0  0  0  0  0  0  0  0
  151.1959  140.1338  155.8096 C   0  0  0  0  0  0  0  0  0  0  0  0
  152.4702  139.8491  155.5294 N   0  0  0  0  0  0  0  0  0  0  0  0
  152.6212  138.5631  155.0316 N   0  0  0  0  0  0  0  0  0  0  0  0
  151.4598  137.9030  154.9195 C   0  0  0  0  0  0  0  0  0  0  0  0
  151.3896  136.6436  154.4576 N   0  5  0  0  0  0  0  0  0  0  0  0
  150.5840  135.7442  155.0667 C   0  0  0  0  0  0  0  0  0  0  0  0
  150.7126  135.3098  156.2135 O   0  0  0  0  0  0  0  0  0  0  0  0
  149.5737  135.3188  154.2935 N   0  0  0  0  0  0  0  0  0  0  0  0
  148.5419  134.3464  154.6538 C   0  0  1  0  0  0  0  0  0  0  0  0
  147.1638  134.9654  154.3787 C   0  0  0  0  0  0  0  0  0  0  0  0
  148.7452  133.0329  153.8707 C   0  0  1  0  0  0  0  0  0  0  0  0
  149.9753  132.2179  154.2749 C   0  0  0  0  0  0  0  0  0  0  0  0
  149.6170  130.8000  153.8593 C   0  0  0  0  0  0  0  0  0  0  0  0
  148.1006  130.8449  153.6504 C   0  0  0  0  0  0  0  0  0  0  0  0
  147.6926  132.1174  154.1336 O   0  0  0  0  0  0  0  0  0  0  0  0
  150.0643  138.8396  155.4535 S   0  0  0  0  0  0  0  0  0  0  0  0
  151.5090  143.3961  159.1477 H   0  0  0  0  0  0  0  0  0  0  0  0
  150.0442  143.4698  158.1714 H   0  0  0  0  0  0  0  0  0  0  0  0
  151.6007  143.9001  157.4622 H   0  0  0  0  0  0  0  0  0  0  0  0
  152.3825  141.5283  157.7562 H   0  0  0  0  0  0  0  0  0  0  0  0
  150.8420  141.1000  158.4607 H   0  0  0  0  0  0  0  0  0  0  0  0
  149.6689  141.4909  156.3475 H   0  0  0  0  0  0  0  0  0  0  0  0
  151.0812  142.2321  155.6302 H   0  0  0  0  0  0  0  0  0  0  0  0
  149.5191  135.7069  153.3634 H   0  0  0  0  0  0  0  0  0  0  0  0
  148.5931  134.1263  155.7214 H   0  0  0  0  0  0  0  0  0  0  0  0
  146.3616  134.2857  154.6669 H   0  0  0  0  0  0  0  0  0  0  0  0
  147.0372  135.2007  153.3214 H   0  0  0  0  0  0  0  0  0  0  0  0
  147.0295  135.8883  154.9440 H   0  0  0  0  0  0  0  0  0  0  0  0
  148.7749  133.2337  152.7978 H   0  0  0  0  0  0  0  0  0  0  0  0
  150.8925  132.5787  153.8085 H   0  0  0  0  0  0  0  0  0  0  0  0
  150.1116  132.2557  155.3565 H   0  0  0  0  0  0  0  0  0  0  0  0
  150.1225  130.5161  152.9356 H   0  0  0  0  0  0  0  0  0  0  0  0
  149.8997  130.0837  154.6313 H   0  0  0  0  0  0  0  0  0  0  0  0
  147.8582  130.7697  152.5895 H   0  0  0  0  0  0  0  0  0  0  0  0
  147.5817  130.0427  154.1756 H   0  0  0  0  0  0  0  0  0  0  0  0
  1  2  1  0  0  0  0
  1 20  1  0  0  0  0
  1 21  1  0  0  0  0
  1 22  1  0  0  0  0
  2  3  1  0  0  0  0
  2 23  1  0  0  0  0
  2 24  1  0  0  0  0
  3  4  1  0  0  0  0
  3 25  1  0  0  0  0
  3 26  1  0  0  0  0
  4 19  1  0  0  0  0
  4  5  2  0  0  0  0
  5  6  1  0  0  0  0
  6  7  2  0  0  0  0
  7  8  1  0  0  0  0
  7 19  1  0  0  0  0
  8  9  1  0  0  0  0
  9 10  2  0  0  0  0
  9 11  1  0  0  0  0
 11 12  1  0  0  0  0
 11 27  1  0  0  0  0
 12 13  1  0  0  0  0
 12 14  1  0  0  0  0
 12 28  1  0  0  0  0
 13 29  1  0  0  0  0
 13 30  1  0  0  0  0
 13 31  1  0  0  0  0
 14 18  1  0  0  0  0
 14 15  1  0  0  0  0
 14 32  1  0  0  0  0
 15 16  1  0  0  0  0
 15 33  1  0  0  0  0
 15 34  1  0  0  0  0
 16 17  1  0  0  0  0
 16 35  1  0  0  0  0
 16 36  1  0  0  0  0
 17 18  1  0  0  0  0
 17 37  1  0  0  0  0
 17 38  1  0  0  0  0
M  CHG  1   8  -1
M  END
> <s_m_source_file>
AV-unprocessed.smi

> <i_m_source_file_index>
1251

> <i_lp_mmshare_version>
43012

> <i_f3d_flags>
0

> <s_epik_input>
W0NIM11bQ0gyXVtDSDJdYzFubmMoczEpW05IXUMoPU8pW05IXVtDQEhdKFtDSDNdKVtDQEBIXTJbQ0gyXVtDSDJdW0NIMl1PMg==

> <s_epik_cmdline>
J2VwaWtfcHl0aG9uJywgJy1waCcsICc3LjAnLCAnLXRuJywgJzgnLCAnLW1hJywgJzIwMCcsICctbWV0YWxfYmluZGluZycsICctaW1hZScsICc8aW5maWxlLm1hZT4nLCAnLW9tYWUnLCAnPG91dGZpbGUubWFlPic=

> <r_lp_tautomer_probability>
1

> <r_epik_Ionization_Penalty>
4.22551

> <r_epik_Ionization_Penalty_Charging>
4.21437

> <r_epik_Ionization_Penalty_Neutral>
0.0111434

> <r_epik_State_Penalty>
4.21389

> <r_epik_Charging_Adjusted_Penalty>
8.42826

> <i_epik_Tot_Q>
-1

> <i_epik_Tot_abs_Q>
1

> <r_epik_Metal_State_Penalty>
0.69377

> <b_epik_Metal_Only>
1

> <s_lp_Force_Field>
OPLS_2005

> <r_lp_Energy>
11.5683

> <b_lp_Chiralities_Consistent>
1

> <s_lp_Variant>
AV-unprocessed.smi:1251-8

> <Gold.Version>
5.8.1

> <Gold.Id.Protein>
6NUR|6NUR_protein|mol2

> <Gold.PLP.Fitness>
41.2545

> <Gold.PLP.PLP>
-31.4759

> <Gold.PLP.part.hbond>
-4.0735

> <Gold.PLP.part.metal>
0.0000

> <Gold.PLP.part.buried>
-3.4222

> <Gold.PLP.part.nonpolar>
-23.8504

> <Gold.PLP.part.repulsive>
0.9763

> <Gold.PLP.ligand.clash>
0.0000

> <Gold.PLP.ligand.torsion>
1.1427

> <Gold.PLP.Chemscore.Hbond>
3.9913

> <Gold.PLP.Chemscore.CHOScore>
0.0000

> <Gold.PLP.Chemscore.Metal>
0.0000

> <Gold.Chemscore.Hbonds>
donor molecule, donor type, donor heavy atom, donor atom, acceptor molecule, acceptor atom, score
      L1  H    11    27       P1  7948  0.85
      P1  H  7997  8010       L1     5  0.98
      P1  H 10752 10763       L1     8  2.00

> <Gold.PLP.Chemscore.Internal.Correction>
0.0902

> <Gold.Rescore>
     Score         DG    S(hbond)    S(metal)    S(lipo)     H(rot)  DE(clash)    DE(int)     intcor
     14.70     -16.16       2.31        0.00      59.29       1.55       0.05       1.41       ----

> <Gold.Chemscore.Fitness>
14.7018

> <Gold.Chemscore.DG>
-16.1573

> <Gold.Chemscore.ZeroCoef>
-5.4800

> <Gold.Chemscore.Hbond>
2.3054

> <Gold.Chemscore.Metal>
0.0000

> <Gold.Chemscore.Lipo>
59.2923

> <Gold.Chemscore.Internal_Hbond>
0.0000

> <Gold.Chemscore.DEClash>
0.0504

> <Gold.Chemscore.DEInternal>
1.4051

> <Gold.Chemscore.Rot>
1.5469

> <Gold.Chemscore.Internal.Correction>
   9.000000E+99

> <Gold.Chemscore.Hbonds>
donor molecule, donor type, donor heavy atom, donor atom, acceptor molecule, acceptor atom, score
      L1  H    11    27       P1  7948  0.15
      P1  H  7997  8010       L1     5  0.23
      P1  H 10752 10763       L1     8  0.43

> <Gold.Chemscore.Hbond.Weighted>
-7.7001

> <Gold.Chemscore.Metal.Weighted>
-0.0000

> <Gold.Chemscore.Lipo.Weighted>
-6.9372

> <Gold.Chemscore.Internal_Hbond.Weighted>
0.0000

> <Gold.Chemscore.DEClash.Weighted>
0.0504

> <Gold.Chemscore.DEInternal.Weighted>
1.4051

> <Gold.Chemscore.Rot.Weighted>
3.9600

> <Gold.Chemscore.Internal.Correction.Weighted>
   9.000000E+99

> <Gold.Protein.RotatedTorsions>
[ 6907 6896 6895 6894 ] final  -46.73 input  -60.11 | X-H torsion
[ 7974 7965 7964 7962 ] final  -48.20 input  175.53 | X-H torsion
[ 8008 7997 7996 7995 ] final   78.06 input   59.86 | X-H torsion
[ 10167 10162 10161 10158 ] final  101.23 input  -65.29 | X-H torsion
[ 10718 10713 10712 10709 ] final -142.10 input   66.30 | X-H torsion
[ 10763 10752 10751 10750 ] final   31.59 input  -60.55 | X-H torsion
[ 11005 11000 10999 10996 ] final  164.09 input  -57.11 | X-H torsion

> <Gold.Protein.ActiveResidues>
 VAL166  LYS551  ARG553  GLY616  TRP617  ASP618  TYR619  PRO620  LYS621  CYS622 
 ASP623  PHE694  ASN695  SER759  ASP760  ASP761  ALA762  ILE779  LEU786  VAL792 
 PHE793  MET794  SER795  GLU796  ALA797  LYS798  CYS799  TRP800  GLU811  SER814 

> <Gold.Protein.RotatedAtoms>
  150.9081  134.8497  159.7406 H   0  0  0  0  0  0  0  0  0  0  0  0  # atno 6907 bound_to 6896
  152.4929  134.4400  159.9550 H   0  0  0  0  0  0  0  0  0  0  0  0  # atno 6908 bound_to 6896
  151.4445  133.3595  159.2821 H   0  0  0  0  0  0  0  0  0  0  0  0  # atno 6909 bound_to 6896
  145.9536  140.7548  142.9492 H   0  0  0  0  0  0  0  0  0  0  0  0  # atno 7974 bound_to 7965
  155.8504  140.3458  155.5690 H   0  0  0  0  0  0  0  0  0  0  0  0  # atno 8008 bound_to 7997
  155.8044  140.0890  157.1959 H   0  0  0  0  0  0  0  0  0  0  0  0  # atno 8009 bound_to 7997
  154.4007  140.1459  156.3299 H   0  0  0  0  0  0  0  0  0  0  0  0  # atno 8010 bound_to 7997
  139.7456  144.6999  151.0509 H   0  0  0  0  0  0  0  0  0  0  0  0  # atno 10167 bound_to 10162
  156.3419  130.7642  151.1780 H   0  0  0  0  0  0  0  0  0  0  0  0  # atno 10718 bound_to 10713
  153.0307  135.6435  154.1223 H   0  0  0  0  0  0  0  0  0  0  0  0  # atno 10763 bound_to 10752
  154.0946  135.2864  155.3266 H   0  0  0  0  0  0  0  0  0  0  0  0  # atno 10764 bound_to 10752
  154.6441  135.5449  153.7887 H   0  0  0  0  0  0  0  0  0  0  0  0  # atno 10765 bound_to 10752
  140.2424  134.8040  157.3423 H   0  0  0  0  0  0  0  0  0  0  0  0  # atno 11005 bound_to 11000
  144.6800  140.2476  143.7336 LP  0  0  0  0  0  0  0  0  0  0  0  0  # atno 17320 bound_to 7965
  145.8137  139.2014  143.1978 LP  0  0  0  0  0  0  0  0  0  0  0  0  # atno 17321 bound_to 7965
  140.7791  143.4870  150.9942 LP  0  0  0  0  0  0  0  0  0  0  0  0  # atno 17342 bound_to 10162
  139.8558  143.7378  152.3176 LP  0  0  0  0  0  0  0  0  0  0  0  0  # atno 17343 bound_to 10162
  157.7448  131.0452  150.4831 LP  0  0  0  0  0  0  0  0  0  0  0  0  # atno 17370 bound_to 10713
  156.5013  130.4117  149.6352 LP  0  0  0  0  0  0  0  0  0  0  0  0  # atno 17371 bound_to 10713
  140.1640  134.4693  155.7875 LP  0  0  0  0  0  0  0  0  0  0  0  0  # atno 17394 bound_to 11000
  141.2209  133.6913  156.7593 LP  0  0  0  0  0  0  0  0  0  0  0  0  # atno 17395 bound_to 11000

$$$$
