AV-unprocessed.smi:1596|AV-procd|sdf|6419|dock2
  -GOLD-   22720 7 53D 1   1.00000     0.00000
 Structure written by MMmdl.
 48 49  0  0  0  0  0  0  0  0  1 V2000
  145.5608  143.5133  153.4324 C   0  0  0  0  0  0  0  0  0  0  0  0
  145.4242  143.2421  154.9394 C   0  0  0  0  0  0  0  0  0  0  0  0
  146.4661  142.3621  155.4686 N   0  0  0  0  0  0  0  0  0  0  0  0
  146.5005  142.2666  156.9277 C   0  0  0  0  0  0  0  0  0  0  0  0
  147.7648  141.5788  157.4686 C   0  0  0  0  0  0  0  0  0  0  0  0
  146.5062  141.1050  154.8392 C   0  0  0  0  0  0  0  0  0  0  0  0
  145.4818  140.1722  155.1040 C   0  0  0  0  0  0  0  0  0  0  0  0
  145.5239  138.9167  154.4686 C   0  0  0  0  0  0  0  0  0  0  0  0
  146.5890  138.6350  153.5806 C   0  0  0  0  0  0  0  0  0  0  0  0
  146.7554  137.3992  152.8991 N   0  0  0  0  0  0  0  0  0  0  0  0
  145.8828  136.3832  152.7876 C   0  0  0  0  0  0  0  0  0  0  0  0
  144.7345  136.3800  153.2309 O   0  0  0  0  0  0  0  0  0  0  0  0
  146.4146  135.3613  152.1015 N   0  0  0  0  0  0  0  0  0  0  0  0
  145.7326  134.1088  151.7890 C   0  0  2  0  0  0  0  0  0  0  0  0
  146.4949  133.3687  150.6751 C   0  0  0  0  0  0  0  0  0  0  0  0
  145.7850  132.0624  150.2780 C   0  0  0  0  0  0  0  0  0  0  0  0
  144.3143  132.2942  149.8827 C   0  0  2  0  0  0  0  0  0  0  0  0
  144.2477  132.9827  148.6494 O   0  0  0  0  0  0  0  0  0  0  0  0
  143.5526  133.0787  150.9678 C   0  0  0  0  0  0  0  0  0  0  0  0
  144.2748  134.3782  151.3659 C   0  0  0  0  0  0  0  0  0  0  0  0
  147.5702  139.6309  153.3959 C   0  0  0  0  0  0  0  0  0  0  0  0
  147.5345  140.8374  153.9996 N   0  0  0  0  0  0  0  0  0  0  0  0
  144.8044  144.2250  153.1013 H   0  0  0  0  0  0  0  0  0  0  0  0
  145.4337  142.6054  152.8423 H   0  0  0  0  0  0  0  0  0  0  0  0
  146.5380  143.9350  153.1962 H   0  0  0  0  0  0  0  0  0  0  0  0
  145.4729  144.1938  155.4695 H   0  0  0  0  0  0  0  0  0  0  0  0
  144.4406  142.8227  155.1552 H   0  0  0  0  0  0  0  0  0  0  0  0
  146.4479  143.2735  157.3432 H   0  0  0  0  0  0  0  0  0  0  0  0
  145.6122  141.7423  157.2824 H   0  0  0  0  0  0  0  0  0  0  0  0
  147.7705  141.5927  158.5586 H   0  0  0  0  0  0  0  0  0  0  0  0
  148.6659  142.0885  157.1260 H   0  0  0  0  0  0  0  0  0  0  0  0
  147.8273  140.5358  157.1567 H   0  0  0  0  0  0  0  0  0  0  0  0
  144.6790  140.4127  155.7856 H   0  0  0  0  0  0  0  0  0  0  0  0
  144.7518  138.1954  154.6862 H   0  0  0  0  0  0  0  0  0  0  0  0
  147.6262  137.2943  152.3992 H   0  0  0  0  0  0  0  0  0  0  0  0
  147.3627  135.4555  151.7682 H   0  0  0  0  0  0  0  0  0  0  0  0
  145.7308  133.4716  152.6757 H   0  0  0  0  0  0  0  0  0  0  0  0
  146.5893  134.0121  149.7992 H   0  0  0  0  0  0  0  0  0  0  0  0
  147.5109  133.1459  151.0030 H   0  0  0  0  0  0  0  0  0  0  0  0
  146.3234  131.5751  149.4644 H   0  0  0  0  0  0  0  0  0  0  0  0
  145.8208  131.3717  151.1215 H   0  0  0  0  0  0  0  0  0  0  0  0
  143.8291  131.3290  149.7338 H   0  0  0  0  0  0  0  0  0  0  0  0
  145.0833  133.3944  148.4895 H   0  0  0  0  0  0  0  0  0  0  0  0
  142.5385  133.3003  150.6339 H   0  0  0  0  0  0  0  0  0  0  0  0
  143.4490  132.4495  151.8528 H   0  0  0  0  0  0  0  0  0  0  0  0
  143.7307  134.8606  152.1787 H   0  0  0  0  0  0  0  0  0  0  0  0
  144.2561  135.0762  150.5277 H   0  0  0  0  0  0  0  0  0  0  0  0
  148.4099  139.4582  152.7384 H   0  0  0  0  0  0  0  0  0  0  0  0
  1  2  1  0  0  0  0
  1 23  1  0  0  0  0
  1 24  1  0  0  0  0
  1 25  1  0  0  0  0
  2  3  1  0  0  0  0
  2 26  1  0  0  0  0
  2 27  1  0  0  0  0
  3  4  1  0  0  0  0
  3  6  1  0  0  0  0
  4  5  1  0  0  0  0
  4 28  1  0  0  0  0
  4 29  1  0  0  0  0
  5 30  1  0  0  0  0
  5 31  1  0  0  0  0
  5 32  1  0  0  0  0
  6 22  1  0  0  0  0
  6  7  2  0  0  0  0
  7  8  1  0  0  0  0
  7 33  1  0  0  0  0
  8  9  2  0  0  0  0
  8 34  1  0  0  0  0
  9 10  1  0  0  0  0
  9 21  1  0  0  0  0
 10 11  1  0  0  0  0
 10 35  1  0  0  0  0
 11 12  2  0  0  0  0
 11 13  1  0  0  0  0
 13 14  1  0  0  0  0
 13 36  1  0  0  0  0
 14 20  1  0  0  0  0
 14 15  1  0  0  0  0
 14 37  1  0  0  0  0
 15 16  1  0  0  0  0
 15 38  1  0  0  0  0
 15 39  1  0  0  0  0
 16 17  1  0  0  0  0
 16 40  1  0  0  0  0
 16 41  1  0  0  0  0
 17 18  1  0  0  0  0
 17 19  1  0  0  0  0
 17 42  1  0  0  0  0
 18 43  1  0  0  0  0
 19 20  1  0  0  0  0
 19 44  1  0  0  0  0
 19 45  1  0  0  0  0
 20 46  1  0  0  0  0
 20 47  1  0  0  0  0
 21 22  2  0  0  0  0
 21 48  1  0  0  0  0
M  END
> <s_m_source_file>
AV-unprocessed.smi

> <i_m_source_file_index>
1596

> <i_lp_mmshare_version>
43012

> <i_f3d_flags>
0

> <s_epik_input>
W0NIM11bQ0gyXU4oW0NIMl1bQ0gzXSljMVtjSF1bY0hdYyhbY0hdbjEpW05IXUMoPU8pW05IXVtDQEBIXTJbQ0gyXVtDSDJdW0NAQEhdKFtPSF0pW0NIMl1bQ0gyXTI=

> <s_epik_cmdline>
J2VwaWtfcHl0aG9uJywgJy1waCcsICc3LjAnLCAnLXRuJywgJzgnLCAnLW1hJywgJzIwMCcsICctbWV0YWxfYmluZGluZycsICctaW1hZScsICc8aW5maWxlLm1hZT4nLCAnLW9tYWUnLCAnPG91dGZpbGUubWFlPic=

> <r_lp_tautomer_probability>
1

> <r_epik_Ionization_Penalty>
0.709395

> <r_epik_Ionization_Penalty_Charging>
0

> <r_epik_Ionization_Penalty_Neutral>
0.709395

> <r_epik_State_Penalty>
2.20721

> <r_epik_Charging_Adjusted_Penalty>
2.20721

> <i_epik_Tot_Q>
0

> <i_epik_Tot_abs_Q>
0

> <r_epik_Metal_State_Penalty>
1.55411

> <b_epik_Metal_Only>
0

> <s_lp_Force_Field>
OPLS_2005

> <r_lp_Energy>
19.3677

> <b_lp_Chiralities_Consistent>
1

> <s_lp_Variant>
AV-unprocessed.smi:1596-4

> <Gold.Version>
5.8.1

> <Gold.Id.Protein>
6NUR|6NUR_protein|mol2

> <Gold.PLP.Fitness>
45.3069

> <Gold.PLP.PLP>
-33.9355

> <Gold.PLP.part.hbond>
-3.0000

> <Gold.PLP.part.metal>
0.0000

> <Gold.PLP.part.buried>
-5.7265

> <Gold.PLP.part.nonpolar>
-26.1365

> <Gold.PLP.part.repulsive>
0.4367

> <Gold.PLP.ligand.clash>
0.0000

> <Gold.PLP.ligand.torsion>
0.4460

> <Gold.PLP.Chemscore.Hbond>
3.0000

> <Gold.PLP.Chemscore.CHOScore>
1.0000

> <Gold.PLP.Chemscore.Metal>
0.0000

> <Gold.Chemscore.Hbonds>
donor molecule, donor type, donor heavy atom, donor atom, acceptor molecule, acceptor atom, score
      L1  H    10    35       P1  7948  0.99
      L1  H    13    36       P1  7948  1.00
      L1  H    18    43       P1  7921  0.99
      L1  C    21    48       P1  7957  1.00

> <Gold.PLP.Chemscore.Internal.Correction>
0.2634

> <Gold.Rescore>
     Score         DG    S(hbond)    S(metal)    S(lipo)     H(rot)  DE(clash)    DE(int)     intcor
     14.53     -17.86       2.92        0.00      66.33       2.01       0.26       3.07       ----

> <Gold.Chemscore.Fitness>
14.5308

> <Gold.Chemscore.DG>
-17.8580

> <Gold.Chemscore.ZeroCoef>
-5.4800

> <Gold.Chemscore.Hbond>
2.9194

> <Gold.Chemscore.Metal>
0.0000

> <Gold.Chemscore.Lipo>
66.3310

> <Gold.Chemscore.Internal_Hbond>
0.0000

> <Gold.Chemscore.DEClash>
0.2566

> <Gold.Chemscore.DEInternal>
3.0707

> <Gold.Chemscore.Rot>
2.0052

> <Gold.Chemscore.Internal.Correction>
   9.000000E+99

> <Gold.Chemscore.Hbonds>
donor molecule, donor type, donor heavy atom, donor atom, acceptor molecule, acceptor atom, score
      L1  H    10    35       P1  7948  0.94
      L1  H    13    36       P1  7948  0.95
      L1  H    18    43       P1  7921  0.57

> <Gold.Chemscore.Hbond.Weighted>
-9.7507

> <Gold.Chemscore.Metal.Weighted>
-0.0000

> <Gold.Chemscore.Lipo.Weighted>
-7.7607

> <Gold.Chemscore.Internal_Hbond.Weighted>
0.0000

> <Gold.Chemscore.DEClash.Weighted>
0.2566

> <Gold.Chemscore.DEInternal.Weighted>
3.0707

> <Gold.Chemscore.Rot.Weighted>
5.1334

> <Gold.Chemscore.Internal.Correction.Weighted>
   9.000000E+99

> <Gold.Protein.RotatedTorsions>
[ 6907 6896 6895 6894 ] final   62.79 input  -60.11 | X-H torsion
[ 7974 7965 7964 7962 ] final   20.99 input  175.53 | X-H torsion
[ 8008 7997 7996 7995 ] final -115.36 input   59.86 | X-H torsion
[ 10167 10162 10161 10158 ] final   83.03 input  -65.29 | X-H torsion
[ 10718 10713 10712 10709 ] final   22.09 input   66.30 | X-H torsion
[ 10763 10752 10751 10750 ] final   47.66 input  -60.55 | X-H torsion
[ 11005 11000 10999 10996 ] final   67.49 input  -57.11 | X-H torsion

> <Gold.Protein.ActiveResidues>
 VAL166  LYS551  ARG553  GLY616  TRP617  ASP618  TYR619  PRO620  LYS621  CYS622 
 ASP623  PHE694  ASN695  SER759  ASP760  ASP761  ALA762  ILE779  LEU786  VAL792 
 PHE793  MET794  SER795  GLU796  ALA797  LYS798  CYS799  TRP800  GLU811  SER814 

> <Gold.Protein.RotatedAtoms>
  152.4201  134.5971  159.9989 H   0  0  0  0  0  0  0  0  0  0  0  0  # atno 6907 bound_to 6896
  151.6124  133.3340  159.3078 H   0  0  0  0  0  0  0  0  0  0  0  0  # atno 6908 bound_to 6896
  150.8089  134.7269  159.6735 H   0  0  0  0  0  0  0  0  0  0  0  0  # atno 6909 bound_to 6896
  146.2089  139.8091  142.8704 H   0  0  0  0  0  0  0  0  0  0  0  0  # atno 7974 bound_to 7965
  155.0508  140.0393  157.2543 H   0  0  0  0  0  0  0  0  0  0  0  0  # atno 8008 bound_to 7997
  154.7139  140.2698  155.6580 H   0  0  0  0  0  0  0  0  0  0  0  0  # atno 8009 bound_to 7997
  156.2797  140.2716  156.1789 H   0  0  0  0  0  0  0  0  0  0  0  0  # atno 8010 bound_to 7997
  139.9226  144.6203  150.8425 H   0  0  0  0  0  0  0  0  0  0  0  0  # atno 10167 bound_to 10162
  157.1475  130.6660  149.6001 H   0  0  0  0  0  0  0  0  0  0  0  0  # atno 10718 bound_to 10713
  152.9798  135.5969  154.3798 H   0  0  0  0  0  0  0  0  0  0  0  0  # atno 10763 bound_to 10752
  154.3464  135.2767  155.2397 H   0  0  0  0  0  0  0  0  0  0  0  0  # atno 10764 bound_to 10752
  154.4456  135.6002  153.6213 H   0  0  0  0  0  0  0  0  0  0  0  0  # atno 10765 bound_to 10752
  139.9768  134.6810  156.0339 H   0  0  0  0  0  0  0  0  0  0  0  0  # atno 11005 bound_to 11000
  145.3215  141.0245  143.3498 LP  0  0  0  0  0  0  0  0  0  0  0  0  # atno 17320 bound_to 7965
  144.8863  139.4834  143.6699 LP  0  0  0  0  0  0  0  0  0  0  0  0  # atno 17321 bound_to 7965
  140.7658  143.3286  151.2460 LP  0  0  0  0  0  0  0  0  0  0  0  0  # atno 17342 bound_to 10162
  139.6849  143.9791  152.2828 LP  0  0  0  0  0  0  0  0  0  0  0  0  # atno 17343 bound_to 10162
  155.9776  130.4756  150.6607 LP  0  0  0  0  0  0  0  0  0  0  0  0  # atno 17370 bound_to 10713
  157.4250  131.0842  151.1094 LP  0  0  0  0  0  0  0  0  0  0  0  0  # atno 17371 bound_to 10713
  141.1444  133.6558  156.3824 LP  0  0  0  0  0  0  0  0  0  0  0  0  # atno 17394 bound_to 11000
  140.5179  134.6332  157.5308 LP  0  0  0  0  0  0  0  0  0  0  0  0  # atno 17395 bound_to 11000

$$$$
