AV-unprocessed.smi:2007|AV-procd|sdf|8138|dock4
  -GOLD-   2272010373D 1   1.00000     0.00000
 Structure written by MMmdl.
 35 36  0  0  0  0  0  0  0  0  2 V2000
  147.1280  136.1805  154.9984 C   0  0  0  0  0  0  0  0  0  0  0  0
  148.2939  135.7732  155.9092 C   0  0  1  0  0  0  0  0  0  0  0  0
  149.6518  136.1529  155.2811 C   0  0  0  0  0  0  0  0  0  0  0  0
  150.0634  137.5480  155.4474 N   0  0  0  0  0  0  0  0  0  0  0  0
  151.5074  137.7326  155.3229 C   0  0  0  0  0  0  0  0  0  0  0  0
  151.9107  139.2080  155.4895 C   0  0  0  0  0  0  0  0  0  0  0  0
  151.2130  140.0056  154.5381 O   0  0  0  0  0  0  0  0  0  0  0  0
  149.7990  139.8869  154.6568 C   0  0  0  0  0  0  0  0  0  0  0  0
  149.3891  138.4139  154.4871 C   0  0  0  0  0  0  0  0  0  0  0  0
  148.1359  136.4303  157.2069 N   0  0  0  0  0  0  0  0  0  0  0  0
  148.6143  136.0068  158.3865 C   0  0  0  0  0  0  0  0  0  0  0  0
  149.2482  134.9515  158.4570 O   0  0  0  0  0  0  0  0  0  0  0  0
  148.3302  136.8380  159.4153 N   0  5  0  0  0  0  0  0  0  0  0  0
  148.0533  136.3344  160.6289 C   0  0  0  0  0  0  0  0  0  0  0  0
  147.8904  137.0986  161.7151 N   0  0  0  0  0  0  0  0  0  0  0  0
  147.6155  136.3674  162.8722 C   0  0  0  0  0  0  0  0  0  0  0  0
  147.5765  135.0142  162.6640 C   0  0  0  0  0  0  0  0  0  0  0  0
  147.8874  134.6152  160.9985 S   0  0  0  0  0  0  0  0  0  0  0  0
  147.2033  135.6953  154.0250 H   0  0  0  0  0  0  0  0  0  0  0  0
  147.1093  137.2584  154.8332 H   0  0  0  0  0  0  0  0  0  0  0  0
  146.1708  135.8940  155.4356 H   0  0  0  0  0  0  0  0  0  0  0  0
  148.2385  134.6898  156.0172 H   0  0  0  0  0  0  0  0  0  0  0  0
  150.4280  135.4978  155.6795 H   0  0  0  0  0  0  0  0  0  0  0  0
  149.5958  135.9296  154.2146 H   0  0  0  0  0  0  0  0  0  0  0  0
  152.0323  137.1442  156.0739 H   0  0  0  0  0  0  0  0  0  0  0  0
  151.8448  137.3719  154.3504 H   0  0  0  0  0  0  0  0  0  0  0  0
  151.6886  139.5558  156.4997 H   0  0  0  0  0  0  0  0  0  0  0  0
  152.9834  139.3278  155.3381 H   0  0  0  0  0  0  0  0  0  0  0  0
  149.4747  140.2686  155.6261 H   0  0  0  0  0  0  0  0  0  0  0  0
  149.3238  140.5029  153.8934 H   0  0  0  0  0  0  0  0  0  0  0  0
  149.6194  138.0901  153.4710 H   0  0  0  0  0  0  0  0  0  0  0  0
  148.3084  138.3264  154.6056 H   0  0  0  0  0  0  0  0  0  0  0  0
  147.6283  137.3025  157.2099 H   0  0  0  0  0  0  0  0  0  0  0  0
  147.4620  136.8937  163.8027 H   0  0  0  0  0  0  0  0  0  0  0  0
  147.3869  134.2320  163.3832 H   0  0  0  0  0  0  0  0  0  0  0  0
  1  2  1  0  0  0  0
  1 19  1  0  0  0  0
  1 20  1  0  0  0  0
  1 21  1  0  0  0  0
  2  3  1  0  0  0  0
  2 10  1  0  0  0  0
  2 22  1  0  0  0  0
  3  4  1  0  0  0  0
  3 23  1  0  0  0  0
  3 24  1  0  0  0  0
  4  9  1  0  0  0  0
  4  5  1  0  0  0  0
  5  6  1  0  0  0  0
  5 25  1  0  0  0  0
  5 26  1  0  0  0  0
  6  7  1  0  0  0  0
  6 27  1  0  0  0  0
  6 28  1  0  0  0  0
  7  8  1  0  0  0  0
  8  9  1  0  0  0  0
  8 29  1  0  0  0  0
  8 30  1  0  0  0  0
  9 31  1  0  0  0  0
  9 32  1  0  0  0  0
 10 11  1  0  0  0  0
 10 33  1  0  0  0  0
 11 12  2  0  0  0  0
 11 13  1  0  0  0  0
 13 14  1  0  0  0  0
 14 18  1  0  0  0  0
 14 15  2  0  0  0  0
 15 16  1  0  0  0  0
 16 17  2  0  0  0  0
 16 34  1  0  0  0  0
 17 18  1  0  0  0  0
 17 35  1  0  0  0  0
M  CHG  1  13  -1
M  END
> <s_m_source_file>
AV-unprocessed.smi

> <i_m_source_file_index>
2007

> <i_lp_mmshare_version>
43012

> <i_f3d_flags>
0

> <s_epik_input>
W0NIMl0xW0NIMl1PW0NIMl1bQ0gyXU4xW0NIMl1bQ0BASF0oW0NIM10pW05IXUMoPU8pW05IXWMybltjSF1bY0hdczI=

> <s_epik_cmdline>
J2VwaWtfcHl0aG9uJywgJy1waCcsICc3LjAnLCAnLXRuJywgJzgnLCAnLW1hJywgJzIwMCcsICctbWV0YWxfYmluZGluZycsICctaW1hZScsICc8aW5maWxlLm1hZT4nLCAnLW9tYWUnLCAnPG91dGZpbGUubWFlPic=

> <r_lp_tautomer_probability>
0.999

> <r_epik_Ionization_Penalty>
7.09127

> <r_epik_Ionization_Penalty_Charging>
5.74083

> <r_epik_Ionization_Penalty_Neutral>
1.35044

> <r_epik_State_Penalty>
5.95014

> <r_epik_Charging_Adjusted_Penalty>
11.691

> <i_epik_Tot_Q>
-1

> <i_epik_Tot_abs_Q>
1

> <r_epik_Metal_State_Penalty>
1.93831

> <b_epik_Metal_Only>
1

> <s_lp_Force_Field>
OPLS_2005

> <r_lp_Energy>
21.094

> <b_lp_Chiralities_Consistent>
1

> <s_lp_Variant>
AV-unprocessed.smi:2007-6

> <Gold.Version>
5.8.1

> <Gold.Id.Protein>
6NUR|6NUR_protein|mol2

> <Gold.PLP.Fitness>
39.4583

> <Gold.PLP.PLP>
-30.5118

> <Gold.PLP.part.hbond>
-3.7687

> <Gold.PLP.part.metal>
0.0000

> <Gold.PLP.part.buried>
-3.5423

> <Gold.PLP.part.nonpolar>
-22.9983

> <Gold.PLP.part.repulsive>
0.1492

> <Gold.PLP.ligand.clash>
0.0000

> <Gold.PLP.ligand.torsion>
1.0252

> <Gold.PLP.Chemscore.Hbond>
3.6300

> <Gold.PLP.Chemscore.CHOScore>
0.0000

> <Gold.PLP.Chemscore.Metal>
0.0000

> <Gold.Chemscore.Hbonds>
donor molecule, donor type, donor heavy atom, donor atom, acceptor molecule, acceptor atom, score
      P1  H  6896  6908       L1    12  1.00
      P1  H  6931  6943       L1    15  1.00
      P1  H  6934  6947       L1    15  0.41
      P1  H  7989  7998       L1     7  0.71

> <Gold.PLP.Chemscore.Internal.Correction>
0.1070

> <Gold.Rescore>
     Score         DG    S(hbond)    S(metal)    S(lipo)     H(rot)  DE(clash)    DE(int)     intcor
     17.08     -18.16       2.96        0.00      57.92       1.55       0.00       1.08       ----

> <Gold.Chemscore.Fitness>
17.0831

> <Gold.Chemscore.DG>
-18.1633

> <Gold.Chemscore.ZeroCoef>
-5.4800

> <Gold.Chemscore.Hbond>
2.9571

> <Gold.Chemscore.Metal>
0.0000

> <Gold.Chemscore.Lipo>
57.9248

> <Gold.Chemscore.Internal_Hbond>
0.0000

> <Gold.Chemscore.DEClash>
0.0000

> <Gold.Chemscore.DEInternal>
1.0802

> <Gold.Chemscore.Rot>
1.5510

> <Gold.Chemscore.Internal.Correction>
   9.000000E+99

> <Gold.Chemscore.Hbonds>
donor molecule, donor type, donor heavy atom, donor atom, acceptor molecule, acceptor atom, score
      P1  H  6896  6908       L1    12  1.00
      P1  H  6931  6943       L1    15  0.79
      P1  H  6934  6947       L1    15  0.20
      P1  H  7989  7998       L1     7  0.62

> <Gold.Chemscore.Hbond.Weighted>
-9.8767

> <Gold.Chemscore.Metal.Weighted>
-0.0000

> <Gold.Chemscore.Lipo.Weighted>
-6.7772

> <Gold.Chemscore.Internal_Hbond.Weighted>
0.0000

> <Gold.Chemscore.DEClash.Weighted>
0.0000

> <Gold.Chemscore.DEInternal.Weighted>
1.0802

> <Gold.Chemscore.Rot.Weighted>
3.9706

> <Gold.Chemscore.Internal.Correction.Weighted>
   9.000000E+99

> <Gold.Protein.RotatedTorsions>
[ 6907 6896 6895 6894 ] final  166.17 input  -60.11 | X-H torsion
[ 7974 7965 7964 7962 ] final -102.24 input  175.53 | X-H torsion
[ 8008 7997 7996 7995 ] final   88.31 input   59.86 | X-H torsion
[ 10167 10162 10161 10158 ] final  -84.52 input  -65.29 | X-H torsion
[ 10718 10713 10712 10709 ] final   56.59 input   66.30 | X-H torsion
[ 10763 10752 10751 10750 ] final   58.50 input  -60.55 | X-H torsion
[ 11005 11000 10999 10996 ] final  133.61 input  -57.11 | X-H torsion

> <Gold.Protein.ActiveResidues>
 VAL166  LYS551  ARG553  GLY616  TRP617  ASP618  TYR619  PRO620  LYS621  CYS622 
 ASP623  PHE694  ASN695  SER759  ASP760  ASP761  ALA762  ILE779  LEU786  VAL792 
 PHE793  MET794  SER795  GLU796  ALA797  LYS798  CYS799  TRP800  GLU811  SER814 

> <Gold.Protein.RotatedAtoms>
  151.8831  133.3499  159.3772 H   0  0  0  0  0  0  0  0  0  0  0  0  # atno 6907 bound_to 6896
  150.7122  134.4998  159.5565 H   0  0  0  0  0  0  0  0  0  0  0  0  # atno 6908 bound_to 6896
  152.2554  134.8090  160.0490 H   0  0  0  0  0  0  0  0  0  0  0  0  # atno 6909 bound_to 6896
  145.2713  140.9299  143.2984 H   0  0  0  0  0  0  0  0  0  0  0  0  # atno 7974 bound_to 7965
  155.9861  140.3373  155.6709 H   0  0  0  0  0  0  0  0  0  0  0  0  # atno 8008 bound_to 7997
  155.6483  140.0703  157.2613 H   0  0  0  0  0  0  0  0  0  0  0  0  # atno 8009 bound_to 7997
  154.4206  140.1730  156.1635 H   0  0  0  0  0  0  0  0  0  0  0  0  # atno 8010 bound_to 7997
  140.4124  143.2617  151.9000 H   0  0  0  0  0  0  0  0  0  0  0  0  # atno 10167 bound_to 10162
  157.5443  130.8720  149.8868 H   0  0  0  0  0  0  0  0  0  0  0  0  # atno 10718 bound_to 10713
  152.9872  135.5604  154.5562 H   0  0  0  0  0  0  0  0  0  0  0  0  # atno 10763 bound_to 10752
  154.4990  135.2796  155.1438 H   0  0  0  0  0  0  0  0  0  0  0  0  # atno 10764 bound_to 10752
  154.2877  135.6332  153.5425 H   0  0  0  0  0  0  0  0  0  0  0  0  # atno 10765 bound_to 10752
  139.9863  134.9531  156.9750 H   0  0  0  0  0  0  0  0  0  0  0  0  # atno 11005 bound_to 11000
  144.9332  139.4274  143.6485 LP  0  0  0  0  0  0  0  0  0  0  0  0  # atno 17320 bound_to 7965
  146.3245  139.8254  142.8918 LP  0  0  0  0  0  0  0  0  0  0  0  0  # atno 17321 bound_to 7965
  139.4782  144.5523  151.8367 LP  0  0  0  0  0  0  0  0  0  0  0  0  # atno 17342 bound_to 10162
  140.4623  144.1704  150.5907 LP  0  0  0  0  0  0  0  0  0  0  0  0  # atno 17343 bound_to 10162
  156.0523  130.3715  150.1173 LP  0  0  0  0  0  0  0  0  0  0  0  0  # atno 17370 bound_to 10713
  156.9350  130.9726  151.3526 LP  0  0  0  0  0  0  0  0  0  0  0  0  # atno 17371 bound_to 10713
  140.4996  134.1110  155.7248 LP  0  0  0  0  0  0  0  0  0  0  0  0  # atno 17394 bound_to 11000
  141.1527  133.8939  157.2057 LP  0  0  0  0  0  0  0  0  0  0  0  0  # atno 17395 bound_to 11000

$$$$
