AV-unprocessed.smi:710|AV-procd|sdf|3463|dock4
  -GOLD-   22720 0453D 1   1.00000     0.00000
 Structure written by MMmdl.
 40 41  0  0  0  0  0  0  0  0  1 V2000
  150.1718  145.2956  160.1288 C   0  0  0  0  0  0  0  0  0  0  0  0
  151.2780  144.3058  160.3601 C   0  0  0  0  0  0  0  0  0  0  0  0
  151.6724  144.0657  161.5988 N   0  0  0  0  0  0  0  0  0  0  0  0
  152.6553  143.1520  161.4792 N   0  0  0  0  0  0  0  0  0  0  0  0
  153.3018  142.6693  162.6848 C   0  0  0  0  0  0  0  0  0  0  0  0
  152.8846  142.8136  160.1578 C   0  0  0  0  0  0  0  0  0  0  0  0
  153.9219  141.8158  159.7521 C   0  0  0  0  0  0  0  0  0  0  0  0
  152.0082  143.5447  159.3996 C   0  0  0  0  0  0  0  0  0  0  0  0
  151.8373  143.5537  157.9012 C   0  0  0  0  0  0  0  0  0  0  0  0
  151.2319  142.2262  157.4454 C   0  0  0  0  0  0  0  0  0  0  0  0
  151.8500  141.1766  157.6196 O   0  0  0  0  0  0  0  0  0  0  0  0
  150.0270  142.2894  156.8590 N   0  0  0  0  0  0  0  0  0  0  0  0
  149.2783  141.1477  156.3410 C   0  0  0  0  0  0  0  0  0  0  0  0
  148.5773  141.4386  154.9914 C   0  0  2  0  0  0  0  0  0  0  0  0
  149.3303  142.4258  154.3093 O   0  0  0  0  0  0  0  0  0  0  0  0
  147.1667  142.0187  155.1920 C   0  0  0  0  0  0  0  0  0  0  0  0
  146.4526  142.0029  153.8361 C   0  0  0  0  0  0  0  0  0  0  0  0
  147.0443  140.5562  152.9221 S   0  0  0  0  0  0  0  0  0  0  0  0
  148.3943  140.2098  154.0819 C   0  0  0  0  0  0  0  0  0  0  0  0
  149.7317  145.1791  159.1387 H   0  0  0  0  0  0  0  0  0  0  0  0
  150.5403  146.3182  160.2097 H   0  0  0  0  0  0  0  0  0  0  0  0
  149.3708  145.1713  160.8580 H   0  0  0  0  0  0  0  0  0  0  0  0
  154.1401  142.0169  162.4425 H   0  0  0  0  0  0  0  0  0  0  0  0
  152.5841  142.1112  163.2865 H   0  0  0  0  0  0  0  0  0  0  0  0
  153.6736  143.5135  163.2664 H   0  0  0  0  0  0  0  0  0  0  0  0
  153.9467  141.6849  158.6708 H   0  0  0  0  0  0  0  0  0  0  0  0
  153.7184  140.8427  160.1994 H   0  0  0  0  0  0  0  0  0  0  0  0
  154.9139  142.1363  160.0708 H   0  0  0  0  0  0  0  0  0  0  0  0
  151.1853  144.3671  157.5813 H   0  0  0  0  0  0  0  0  0  0  0  0
  152.7854  143.7158  157.3872 H   0  0  0  0  0  0  0  0  0  0  0  0
  149.5996  143.1982  156.7564 H   0  0  0  0  0  0  0  0  0  0  0  0
  150.0129  140.3543  156.2008 H   0  0  0  0  0  0  0  0  0  0  0  0
  148.5715  140.7682  157.0815 H   0  0  0  0  0  0  0  0  0  0  0  0
  149.3473  143.2089  154.8380 H   0  0  0  0  0  0  0  0  0  0  0  0
  146.6096  141.3839  155.8826 H   0  0  0  0  0  0  0  0  0  0  0  0
  147.1855  143.0183  155.6285 H   0  0  0  0  0  0  0  0  0  0  0  0
  145.3681  141.9820  153.9445 H   0  0  0  0  0  0  0  0  0  0  0  0
  146.7102  142.8949  153.2645 H   0  0  0  0  0  0  0  0  0  0  0  0
  149.3073  139.9382  153.5505 H   0  0  0  0  0  0  0  0  0  0  0  0
  148.0943  139.3472  154.6781 H   0  0  0  0  0  0  0  0  0  0  0  0
  1  2  1  0  0  0  0
  1 20  1  0  0  0  0
  1 21  1  0  0  0  0
  1 22  1  0  0  0  0
  2  8  1  0  0  0  0
  2  3  2  0  0  0  0
  3  4  1  0  0  0  0
  4  5  1  0  0  0  0
  4  6  1  0  0  0  0
  5 23  1  0  0  0  0
  5 24  1  0  0  0  0
  5 25  1  0  0  0  0
  6  7  1  0  0  0  0
  6  8  2  0  0  0  0
  7 26  1  0  0  0  0
  7 27  1  0  0  0  0
  7 28  1  0  0  0  0
  8  9  1  0  0  0  0
  9 10  1  0  0  0  0
  9 29  1  0  0  0  0
  9 30  1  0  0  0  0
 10 11  2  0  0  0  0
 10 12  1  0  0  0  0
 12 13  1  0  0  0  0
 12 31  1  0  0  0  0
 13 14  1  0  0  0  0
 13 32  1  0  0  0  0
 13 33  1  0  0  0  0
 14 19  1  0  0  0  0
 14 15  1  0  0  0  0
 14 16  1  0  0  0  0
 15 34  1  0  0  0  0
 16 17  1  0  0  0  0
 16 35  1  0  0  0  0
 16 36  1  0  0  0  0
 17 18  1  0  0  0  0
 17 37  1  0  0  0  0
 17 38  1  0  0  0  0
 18 19  1  0  0  0  0
 19 39  1  0  0  0  0
 19 40  1  0  0  0  0
M  END
> <s_m_source_file>
AV-unprocessed.smi

> <i_m_source_file_index>
710

> <i_lp_mmshare_version>
43012

> <i_f3d_flags>
0

> <s_epik_input>
W0NIM11jMW5uKFtDSDNdKWMoW0NIM10pYzFbQ0gyXUMoPU8pW05IXVtDSDJdW0NAQF0yKFtPSF0pW0NIMl1bQ0gyXVNbQ0gyXTI=

> <s_epik_cmdline>
J2VwaWtfcHl0aG9uJywgJy1waCcsICc3LjAnLCAnLXRuJywgJzgnLCAnLW1hJywgJzIwMCcsICctbWV0YWxfYmluZGluZycsICctaW1hZScsICc8aW5maWxlLm1hZT4nLCAnLW9tYWUnLCAnPG91dGZpbGUubWFlPic=

> <r_lp_tautomer_probability>
1

> <r_epik_Ionization_Penalty>
0.00343686

> <r_epik_Ionization_Penalty_Charging>
0

> <r_epik_Ionization_Penalty_Neutral>
0.00343686

> <r_epik_State_Penalty>
0.00243544

> <r_epik_Charging_Adjusted_Penalty>
0.00243544

> <i_epik_Tot_Q>
0

> <i_epik_Tot_abs_Q>
0

> <r_epik_Metal_State_Penalty>
-0

> <b_epik_Metal_Only>
0

> <s_lp_Force_Field>
OPLS_2005

> <r_lp_Energy>
11.3483

> <b_lp_Chiralities_Consistent>
1

> <s_lp_Variant>
AV-unprocessed.smi:710-2

> <Gold.Version>
5.8.1

> <Gold.Id.Protein>
6NUR|6NUR_protein|mol2

> <Gold.PLP.Fitness>
51.0904

> <Gold.PLP.PLP>
-46.1340

> <Gold.PLP.part.hbond>
-3.6465

> <Gold.PLP.part.metal>
0.0000

> <Gold.PLP.part.buried>
-0.5869

> <Gold.PLP.part.nonpolar>
-40.1967

> <Gold.PLP.part.repulsive>
0.2187

> <Gold.PLP.ligand.clash>
0.0000

> <Gold.PLP.ligand.torsion>
0.7936

> <Gold.PLP.Chemscore.Hbond>
2.1760

> <Gold.PLP.Chemscore.CHOScore>
0.0000

> <Gold.PLP.Chemscore.Metal>
0.0000

> <Gold.Chemscore.Hbonds>
donor molecule, donor type, donor heavy atom, donor atom, acceptor molecule, acceptor atom, score
      L1  H    12    31       P1  8028  1.00
      L1  H    15    34       P1  8028  1.00
      P1  H  8011  8017       L1    15  0.14

> <Gold.PLP.Chemscore.Internal.Correction>
0.0155

> <Gold.Rescore>
     Score         DG    S(hbond)    S(metal)    S(lipo)     H(rot)  DE(clash)    DE(int)     intcor
     19.57     -20.76       2.14        0.00     114.86       2.07       0.27       0.92       ----

> <Gold.Chemscore.Fitness>
19.5732

> <Gold.Chemscore.DG>
-20.7579

> <Gold.Chemscore.ZeroCoef>
-5.4800

> <Gold.Chemscore.Hbond>
2.1411

> <Gold.Chemscore.Metal>
0.0000

> <Gold.Chemscore.Lipo>
114.8590

> <Gold.Chemscore.Internal_Hbond>
0.0000

> <Gold.Chemscore.DEClash>
0.2656

> <Gold.Chemscore.DEInternal>
0.9190

> <Gold.Chemscore.Rot>
2.0750

> <Gold.Chemscore.Internal.Correction>
   9.000000E+99

> <Gold.Chemscore.Hbonds>
donor molecule, donor type, donor heavy atom, donor atom, acceptor molecule, acceptor atom, score
      L1  H    12    31       P1  8028  0.93
      L1  H    15    34       P1  8028  1.00
      P1  H  8011  8017       L1    15  0.14

> <Gold.Chemscore.Hbond.Weighted>
-7.1514

> <Gold.Chemscore.Metal.Weighted>
-0.0000

> <Gold.Chemscore.Lipo.Weighted>
-13.4385

> <Gold.Chemscore.Internal_Hbond.Weighted>
0.0000

> <Gold.Chemscore.DEClash.Weighted>
0.2656

> <Gold.Chemscore.DEInternal.Weighted>
0.9190

> <Gold.Chemscore.Rot.Weighted>
5.3120

> <Gold.Chemscore.Internal.Correction.Weighted>
   9.000000E+99

> <Gold.Protein.RotatedTorsions>
[ 6907 6896 6895 6894 ] final  -27.62 input  -60.11 | X-H torsion
[ 7974 7965 7964 7962 ] final  161.25 input  175.53 | X-H torsion
[ 8008 7997 7996 7995 ] final  -20.17 input   59.86 | X-H torsion
[ 10167 10162 10161 10158 ] final  -57.83 input  -65.29 | X-H torsion
[ 10718 10713 10712 10709 ] final  114.00 input   66.30 | X-H torsion
[ 10763 10752 10751 10750 ] final   -3.82 input  -60.55 | X-H torsion
[ 11005 11000 10999 10996 ] final -159.10 input  -57.11 | X-H torsion

> <Gold.Protein.ActiveResidues>
 VAL166  LYS551  ARG553  GLY616  TRP617  ASP618  TYR619  PRO620  LYS621  CYS622 
 ASP623  PHE694  ASN695  SER759  ASP760  ASP761  ALA762  ILE779  LEU786  VAL792 
 PHE793  MET794  SER795  GLU796  ALA797  LYS798  CYS799  TRP800  GLU811  SER814 

> <Gold.Protein.RotatedAtoms>
  151.1444  135.0196  159.8639 H   0  0  0  0  0  0  0  0  0  0  0  0  # atno 6907 bound_to 6896
  152.5453  134.1462  159.8509 H   0  0  0  0  0  0  0  0  0  0  0  0  # atno 6908 bound_to 6896
  151.1540  133.4843  159.2627 H   0  0  0  0  0  0  0  0  0  0  0  0  # atno 6909 bound_to 6896
  144.7695  139.7871  143.6302 H   0  0  0  0  0  0  0  0  0  0  0  0  # atno 7974 bound_to 7965
  154.4787  140.2069  155.9815 H   0  0  0  0  0  0  0  0  0  0  0  0  # atno 8008 bound_to 7997
  156.1131  140.3226  155.8070 H   0  0  0  0  0  0  0  0  0  0  0  0  # atno 8009 bound_to 7997
  155.4600  140.0523  157.2982 H   0  0  0  0  0  0  0  0  0  0  0  0  # atno 8010 bound_to 7997
  140.6234  143.2428  151.5423 H   0  0  0  0  0  0  0  0  0  0  0  0  # atno 10167 bound_to 10162
  157.6306  131.0992  150.7122 H   0  0  0  0  0  0  0  0  0  0  0  0  # atno 10718 bound_to 10713
  153.3765  135.6996  153.6598 H   0  0  0  0  0  0  0  0  0  0  0  0  # atno 10763 bound_to 10752
  153.5227  135.3608  155.2640 H   0  0  0  0  0  0  0  0  0  0  0  0  # atno 10764 bound_to 10752
  154.8687  135.4161  154.3053 H   0  0  0  0  0  0  0  0  0  0  0  0  # atno 10765 bound_to 10752
  140.6463  134.4498  157.5234 H   0  0  0  0  0  0  0  0  0  0  0  0  # atno 11005 bound_to 11000
  146.1831  139.5032  142.9854 LP  0  0  0  0  0  0  0  0  0  0  0  0  # atno 17320 bound_to 7965
  145.6366  141.0293  143.1834 LP  0  0  0  0  0  0  0  0  0  0  0  0  # atno 17321 bound_to 7965
  139.5459  144.2523  152.1440 LP  0  0  0  0  0  0  0  0  0  0  0  0  # atno 17342 bound_to 10162
  140.1749  144.4900  150.6559 LP  0  0  0  0  0  0  0  0  0  0  0  0  # atno 17343 bound_to 10162
  156.7462  130.4754  149.5466 LP  0  0  0  0  0  0  0  0  0  0  0  0  # atno 17370 bound_to 10713
  156.1507  130.6308  151.0592 LP  0  0  0  0  0  0  0  0  0  0  0  0  # atno 17371 bound_to 10713
  139.9062  134.8445  156.1699 LP  0  0  0  0  0  0  0  0  0  0  0  0  # atno 17394 bound_to 11000
  141.0569  133.6860  156.1878 LP  0  0  0  0  0  0  0  0  0  0  0  0  # atno 17395 bound_to 11000

$$$$
