AV-unprocessed.smi:2212|AV-procd|sdf|8952|dock6
  -GOLD-   2272012163D 1   1.00000     0.00000
 Structure written by MMmdl.
 32 33  0  0  0  0  0  0  0  0  2 V2000
  143.3294  132.8699  151.4001 C   0  0  0  0  0  0  0  0  0  0  0  0
  144.0472  133.1693  152.5910 O   0  0  0  0  0  0  0  0  0  0  0  0
  145.2079  133.9964  152.4535 C   0  0  0  0  0  0  0  0  0  0  0  0
  144.8633  135.3786  151.8784 C   0  0  0  0  0  0  0  0  0  0  0  0
  145.9197  136.3514  152.1416 N   0  0  0  0  0  0  0  0  0  0  0  0
  145.7566  137.5231  152.7728 C   0  0  0  0  0  0  0  0  0  0  0  0
  144.6828  137.9015  153.2424 O   0  0  0  0  0  0  0  0  0  0  0  0
  146.9041  138.2201  152.8218 N   0  0  0  0  0  0  0  0  0  0  0  0
  147.0994  139.5072  153.3841 C   0  0  0  0  0  0  0  0  0  0  0  0
  146.1938  140.4817  153.4979 N   0  3  0  0  0  0  0  0  0  0  0  0
  146.7815  141.5679  154.0954 C   0  0  0  0  0  0  0  0  0  0  0  0
  148.0834  141.2003  154.3349 C   0  0  0  0  0  0  0  0  0  0  0  0
  148.2970  139.9093  153.8931 O   0  0  0  0  0  0  0  0  0  0  0  0
  145.9692  133.9272  153.7914 C   0  0  0  0  0  0  0  0  0  0  0  0
  146.7420  132.7196  153.2596 C   0  0  0  0  0  0  0  0  0  0  0  0
  146.3846  133.1991  151.8515 C   0  0  0  0  0  0  0  0  0  0  0  0
  142.5652  132.1257  151.6234 H   0  0  0  0  0  0  0  0  0  0  0  0
  143.9702  132.4603  150.6202 H   0  0  0  0  0  0  0  0  0  0  0  0
  142.8185  133.7483  151.0064 H   0  0  0  0  0  0  0  0  0  0  0  0
  144.6771  135.3086  150.8053 H   0  0  0  0  0  0  0  0  0  0  0  0
  143.9341  135.7575  152.3030 H   0  0  0  0  0  0  0  0  0  0  0  0
  146.8366  136.1227  151.7860 H   0  0  0  0  0  0  0  0  0  0  0  0
  145.2251  140.4590  153.2028 H   0  0  0  0  0  0  0  0  0  0  0  0
  146.2261  142.4751  154.2858 H   0  0  0  0  0  0  0  0  0  0  0  0
  148.9302  141.7028  154.7797 H   0  0  0  0  0  0  0  0  0  0  0  0
  146.6173  134.7895  153.9558 H   0  0  0  0  0  0  0  0  0  0  0  0
  145.3491  133.7253  154.6654 H   0  0  0  0  0  0  0  0  0  0  0  0
  147.8081  132.7223  153.4872 H   0  0  0  0  0  0  0  0  0  0  0  0
  146.2729  131.7684  153.5160 H   0  0  0  0  0  0  0  0  0  0  0  0
  146.1226  132.3981  151.1613 H   0  0  0  0  0  0  0  0  0  0  0  0
  147.1550  133.8452  151.4274 H   0  0  0  0  0  0  0  0  0  0  0  0
  147.7184  137.7921  152.4063 H   0  0  0  0  0  0  0  0  0  0  0  0
  1  2  1  0  0  0  0
  1 17  1  0  0  0  0
  1 18  1  0  0  0  0
  1 19  1  0  0  0  0
  2  3  1  0  0  0  0
  3 16  1  0  0  0  0
  3  4  1  0  0  0  0
  3 14  1  0  0  0  0
  4  5  1  0  0  0  0
  4 20  1  0  0  0  0
  4 21  1  0  0  0  0
  5 22  1  0  0  0  0
  5  6  1  0  0  0  0
  6  8  1  0  0  0  0
  6  7  2  0  0  0  0
  8  9  1  0  0  0  0
  8 32  1  0  0  0  0
  9 13  1  0  0  0  0
  9 10  2  0  0  0  0
 10 23  1  0  0  0  0
 10 11  1  0  0  0  0
 11 24  1  0  0  0  0
 11 12  2  0  0  0  0
 12 25  1  0  0  0  0
 12 13  1  0  0  0  0
 14 15  1  0  0  0  0
 14 26  1  0  0  0  0
 14 27  1  0  0  0  0
 15 16  1  0  0  0  0
 15 28  1  0  0  0  0
 15 29  1  0  0  0  0
 16 30  1  0  0  0  0
 16 31  1  0  0  0  0
M  CHG  1  10   1
M  END
> <s_m_source_file>
AV-unprocessed.smi

> <i_m_source_file_index>
2212

> <i_lp_mmshare_version>
43012

> <i_f3d_flags>
0

> <s_epik_input>
W0NIMl0xW0NIMl1bQ0gyXUMxKE9bQ0gzXSlbQ0gyXVtOSF1DKD1PKVtOSF1jMm5bY0hdW2NIXW8y

> <s_epik_cmdline>
J2VwaWtfcHl0aG9uJywgJy1waCcsICc3LjAnLCAnLXRuJywgJzgnLCAnLW1hJywgJzIwMCcsICctbWV0YWxfYmluZGluZycsICctaW1hZScsICc8aW5maWxlLm1hZT4nLCAnLW9tYWUnLCAnPG91dGZpbGUubWFlPic=

> <r_epik_Ionization_Penalty>
6.73843

> <r_epik_Ionization_Penalty_Charging>
6.66704

> <r_epik_Ionization_Penalty_Neutral>
0.0713889

> <r_epik_State_Penalty>
1.94951

> <r_epik_Charging_Adjusted_Penalty>
8.61656

> <i_epik_Tot_Q>
1

> <i_epik_Tot_abs_Q>
1

> <r_epik_Metal_State_Penalty>
1.97013

> <b_epik_Metal_Only>
0

> <s_lp_Force_Field>
OPLS_2005

> <r_lp_Energy>
24.3681

> <b_lp_Chiralities_Consistent>
1

> <s_lp_Variant>
AV-unprocessed.smi:2212-2

> <Gold.Version>
5.8.1

> <Gold.Id.Protein>
6NUR|6NUR_protein|mol2

> <Gold.PLP.Fitness>
37.0645

> <Gold.PLP.PLP>
-25.8193

> <Gold.PLP.part.hbond>
-3.0000

> <Gold.PLP.part.metal>
0.0000

> <Gold.PLP.part.buried>
-6.0215

> <Gold.PLP.part.nonpolar>
-20.8218

> <Gold.PLP.part.repulsive>
2.9034

> <Gold.PLP.ligand.clash>
0.0000

> <Gold.PLP.ligand.torsion>
0.4898

> <Gold.PLP.Chemscore.Hbond>
3.9840

> <Gold.PLP.Chemscore.CHOScore>
0.0000

> <Gold.PLP.Chemscore.Metal>
0.0000

> <Gold.Chemscore.Hbonds>
donor molecule, donor type, donor heavy atom, donor atom, acceptor molecule, acceptor atom, score
      L1  H     5    22       P1  7948  0.84
      L1  H     8    32       P1  7948  0.96
      L1  H    10    23       P1 10175  2.00

> <Gold.PLP.Chemscore.Internal.Correction>
0.2728

> <Gold.Rescore>
     Score         DG    S(hbond)    S(metal)    S(lipo)     H(rot)  DE(clash)    DE(int)     intcor
     15.18     -16.50       2.94        0.00      46.64       1.67       0.25       1.06       ----

> <Gold.Chemscore.Fitness>
15.1834

> <Gold.Chemscore.DG>
-16.4956

> <Gold.Chemscore.ZeroCoef>
-5.4800

> <Gold.Chemscore.Hbond>
2.9404

> <Gold.Chemscore.Metal>
0.0000

> <Gold.Chemscore.Lipo>
46.6416

> <Gold.Chemscore.Internal_Hbond>
0.0000

> <Gold.Chemscore.DEClash>
0.2523

> <Gold.Chemscore.DEInternal>
1.0599

> <Gold.Chemscore.Rot>
1.6650

> <Gold.Chemscore.Internal.Correction>
   9.000000E+99

> <Gold.Chemscore.Hbonds>
donor molecule, donor type, donor heavy atom, donor atom, acceptor molecule, acceptor atom, score
      L1  H     5    22       P1  7948  0.80
      L1  H     8    32       P1  7948  0.90
      L1  H    10    23       P1 10175  0.97

> <Gold.Chemscore.Hbond.Weighted>
-9.8210

> <Gold.Chemscore.Metal.Weighted>
-0.0000

> <Gold.Chemscore.Lipo.Weighted>
-5.4571

> <Gold.Chemscore.Internal_Hbond.Weighted>
0.0000

> <Gold.Chemscore.DEClash.Weighted>
0.2523

> <Gold.Chemscore.DEInternal.Weighted>
1.0599

> <Gold.Chemscore.Rot.Weighted>
4.2625

> <Gold.Chemscore.Internal.Correction.Weighted>
   9.000000E+99

> <Gold.Protein.RotatedTorsions>
[ 6907 6896 6895 6894 ] final -165.74 input  -60.11 | X-H torsion
[ 7974 7965 7964 7962 ] final   60.70 input  175.53 | X-H torsion
[ 8008 7997 7996 7995 ] final  -11.46 input   59.86 | X-H torsion
[ 10167 10162 10161 10158 ] final  118.68 input  -65.29 | X-H torsion
[ 10718 10713 10712 10709 ] final  -62.00 input   66.30 | X-H torsion
[ 10763 10752 10751 10750 ] final  -29.18 input  -60.55 | X-H torsion
[ 11005 11000 10999 10996 ] final -155.50 input  -57.11 | X-H torsion

> <Gold.Protein.ActiveResidues>
 VAL166  LYS551  ARG553  GLY616  TRP617  ASP618  TYR619  PRO620  LYS621  CYS622 
 ASP623  PHE694  ASN695  SER759  ASP760  ASP761  ALA762  ILE779  LEU786  VAL792 
 PHE793  MET794  SER795  GLU796  ALA797  LYS798  CYS799  TRP800  GLU811  SER814 

> <Gold.Protein.RotatedAtoms>
  151.4324  133.3666  159.2770 H   0  0  0  0  0  0  0  0  0  0  0  0  # atno 6907 bound_to 6896
  150.9215  134.8634  159.7503 H   0  0  0  0  0  0  0  0  0  0  0  0  # atno 6908 bound_to 6896
  152.4984  134.4263  159.9549 H   0  0  0  0  0  0  0  0  0  0  0  0  # atno 6909 bound_to 6896
  145.8931  139.3525  143.0637 H   0  0  0  0  0  0  0  0  0  0  0  0  # atno 7974 bound_to 7965
  154.5463  140.2302  155.8558 H   0  0  0  0  0  0  0  0  0  0  0  0  # atno 8008 bound_to 7997
  156.1906  140.3078  155.9286 H   0  0  0  0  0  0  0  0  0  0  0  0  # atno 8009 bound_to 7997
  155.3158  140.0438  157.3027 H   0  0  0  0  0  0  0  0  0  0  0  0  # atno 8010 bound_to 7997
  139.6096  144.7078  151.2875 H   0  0  0  0  0  0  0  0  0  0  0  0  # atno 10167 bound_to 10162
  156.0884  130.4204  150.1073 H   0  0  0  0  0  0  0  0  0  0  0  0  # atno 10718 bound_to 10713
  153.7605  135.6919  153.4926 H   0  0  0  0  0  0  0  0  0  0  0  0  # atno 10763 bound_to 10752
  153.1941  135.4460  155.0185 H   0  0  0  0  0  0  0  0  0  0  0  0  # atno 10764 bound_to 10752
  154.8155  135.3397  154.7121 H   0  0  0  0  0  0  0  0  0  0  0  0  # atno 10765 bound_to 10752
  140.6858  134.4095  157.5223 H   0  0  0  0  0  0  0  0  0  0  0  0  # atno 11005 bound_to 11000
  145.8884  140.9319  143.0565 LP  0  0  0  0  0  0  0  0  0  0  0  0  # atno 17320 bound_to 7965
  144.6731  140.0873  143.7467 LP  0  0  0  0  0  0  0  0  0  0  0  0  # atno 17321 bound_to 7965
  140.7309  143.6866  150.7956 LP  0  0  0  0  0  0  0  0  0  0  0  0  # atno 17342 bound_to 10162
  140.0458  143.5299  152.2697 LP  0  0  0  0  0  0  0  0  0  0  0  0  # atno 17343 bound_to 10162
  156.9088  130.9645  151.3566 LP  0  0  0  0  0  0  0  0  0  0  0  0  # atno 17370 bound_to 10713
  157.6026  130.8524  149.8826 LP  0  0  0  0  0  0  0  0  0  0  0  0  # atno 17371 bound_to 10713
  139.8938  134.8722  156.2206 LP  0  0  0  0  0  0  0  0  0  0  0  0  # atno 17394 bound_to 11000
  141.0281  133.7004  156.1383 LP  0  0  0  0  0  0  0  0  0  0  0  0  # atno 17395 bound_to 11000

$$$$
