AV-unprocessed.smi:3001|AV-procd|sdf|11431|dock6
  -GOLD-   2272016353D 1   1.00000     0.00000
 Structure written by MMmdl.
 41 42  0  0  0  0  0  0  0  0  1 V2000
  148.6188  141.4256  157.0802 C   0  0  0  0  0  0  0  0  0  0  0  0
  148.6473  140.9626  155.9506 C   0  0  0  0  0  0  0  0  0  0  0  0
  148.6680  140.4032  154.5908 C   0  0  0  0  0  0  0  0  0  0  0  0
  149.5186  139.2265  154.5076 N   0  0  0  0  0  0  0  0  0  0  0  0
  150.8420  139.2187  154.7366 C   0  0  0  0  0  0  0  0  0  0  0  0
  151.4663  140.2300  155.0551 O   0  0  0  0  0  0  0  0  0  0  0  0
  151.5973  137.8868  154.5937 C   0  0  0  0  0  0  0  0  0  0  0  0
  150.7617  136.7564  154.1880 N   0  0  0  0  0  0  0  0  0  0  0  0
  150.8621  135.5092  154.6699 C   0  0  0  0  0  0  0  0  0  0  0  0
  151.6369  135.1841  155.5698 O   0  0  0  0  0  0  0  0  0  0  0  0
  150.0412  134.6698  154.0190 N   0  0  0  0  0  0  0  0  0  0  0  0
  149.9991  133.2543  154.1371 C   0  0  0  0  0  0  0  0  0  0  0  0
  150.9744  132.5576  154.8900 C   0  0  0  0  0  0  0  0  0  0  0  0
  150.8595  131.1651  155.0436 C   0  0  0  0  0  0  0  0  0  0  0  0
  149.7612  130.5201  154.4505 C   0  0  0  0  0  0  0  0  0  0  0  0
  148.8186  131.1721  153.7401 N   0  0  0  0  0  0  0  0  0  0  0  0
  148.9240  132.5133  153.5692 C   0  0  0  0  0  0  0  0  0  0  0  0
  147.9226  133.1411  152.7926 N   0  0  0  0  0  0  0  0  0  0  0  0
  147.0997  134.2021  153.3640 C   0  0  0  0  0  0  0  0  0  0  0  0
  145.9183  134.3449  152.4088 C   0  0  0  0  0  0  0  0  0  0  0  0
  145.6855  132.9051  151.9623 C   0  0  0  0  0  0  0  0  0  0  0  0
  147.0939  132.3026  151.9304 C   0  0  0  0  0  0  0  0  0  0  0  0
  148.5876  141.8307  158.0669 H   0  0  0  0  0  0  0  0  0  0  0  0
  147.6452  140.1486  154.3099 H   0  0  0  0  0  0  0  0  0  0  0  0
  149.0226  141.1756  153.9072 H   0  0  0  0  0  0  0  0  0  0  0  0
  149.0761  138.3579  154.2452 H   0  0  0  0  0  0  0  0  0  0  0  0
  152.4234  138.0173  153.8926 H   0  0  0  0  0  0  0  0  0  0  0  0
  152.0468  137.6439  155.5566 H   0  0  0  0  0  0  0  0  0  0  0  0
  150.0921  136.9296  153.4528 H   0  0  0  0  0  0  0  0  0  0  0  0
  149.5274  135.0581  153.2415 H   0  0  0  0  0  0  0  0  0  0  0  0
  151.7936  133.0762  155.3656 H   0  0  0  0  0  0  0  0  0  0  0  0
  151.5888  130.6077  155.6127 H   0  0  0  0  0  0  0  0  0  0  0  0
  149.6327  129.4526  154.5524 H   0  0  0  0  0  0  0  0  0  0  0  0
  146.7342  133.9193  154.3519 H   0  0  0  0  0  0  0  0  0  0  0  0
  147.6600  135.1326  153.4582 H   0  0  0  0  0  0  0  0  0  0  0  0
  145.0432  134.7944  152.8786 H   0  0  0  0  0  0  0  0  0  0  0  0
  146.2004  134.9599  151.5530 H   0  0  0  0  0  0  0  0  0  0  0  0
  145.0808  132.3844  152.7063 H   0  0  0  0  0  0  0  0  0  0  0  0
  145.1726  132.8330  151.0029 H   0  0  0  0  0  0  0  0  0  0  0  0
  147.4901  132.3421  150.9155 H   0  0  0  0  0  0  0  0  0  0  0  0
  147.0879  131.2597  152.2509 H   0  0  0  0  0  0  0  0  0  0  0  0
  1  2  3  0  0  0  0
  1 23  1  0  0  0  0
  2  3  1  0  0  0  0
  3  4  1  0  0  0  0
  3 24  1  0  0  0  0
  3 25  1  0  0  0  0
  4  5  1  0  0  0  0
  4 26  1  0  0  0  0
  5  6  2  0  0  0  0
  5  7  1  0  0  0  0
  7  8  1  0  0  0  0
  7 27  1  0  0  0  0
  7 28  1  0  0  0  0
  8  9  1  0  0  0  0
  8 29  1  0  0  0  0
  9 10  2  0  0  0  0
  9 11  1  0  0  0  0
 11 12  1  0  0  0  0
 11 30  1  0  0  0  0
 12 17  1  0  0  0  0
 12 13  2  0  0  0  0
 13 14  1  0  0  0  0
 13 31  1  0  0  0  0
 14 15  2  0  0  0  0
 14 32  1  0  0  0  0
 15 16  1  0  0  0  0
 15 33  1  0  0  0  0
 16 17  2  0  0  0  0
 17 18  1  0  0  0  0
 18 22  1  0  0  0  0
 18 19  1  0  0  0  0
 19 20  1  0  0  0  0
 19 34  1  0  0  0  0
 19 35  1  0  0  0  0
 20 21  1  0  0  0  0
 20 36  1  0  0  0  0
 20 37  1  0  0  0  0
 21 22  1  0  0  0  0
 21 38  1  0  0  0  0
 21 39  1  0  0  0  0
 22 40  1  0  0  0  0
 22 41  1  0  0  0  0
M  END
> <s_m_source_file>
AV-unprocessed.smi

> <i_m_source_file_index>
3001

> <i_lp_mmshare_version>
43012

> <i_f3d_flags>
0

> <s_epik_input>
W0NIXSNDW0NIMl1bTkhdQyg9TylbQ0gyXVtOSF1DKD1PKVtOSF1jMVtjSF1bY0hdW2NIXW5jMU4yW0NIMl1bQ0gyXVtDSDJdW0NIMl0y

> <s_epik_cmdline>
J2VwaWtfcHl0aG9uJywgJy1waCcsICc3LjAnLCAnLXRuJywgJzgnLCAnLW1hJywgJzIwMCcsICctbWV0YWxfYmluZGluZycsICctaW1hZScsICc8aW5maWxlLm1hZT4nLCAnLW9tYWUnLCAnPG91dGZpbGUubWFlPic=

> <r_lp_tautomer_probability>
1

> <r_epik_Ionization_Penalty>
0.243831

> <r_epik_Ionization_Penalty_Charging>
0

> <r_epik_Ionization_Penalty_Neutral>
0.243831

> <r_epik_State_Penalty>
0.234327

> <r_epik_Charging_Adjusted_Penalty>
0.234327

> <i_epik_Tot_Q>
0

> <i_epik_Tot_abs_Q>
0

> <r_epik_Metal_State_Penalty>
0.165313

> <b_epik_Metal_Only>
0

> <s_lp_Force_Field>
OPLS_2005

> <r_lp_Energy>
26.7815

> <b_lp_Chiralities_Consistent>
1

> <s_lp_Variant>
AV-unprocessed.smi:3001-1

> <Gold.Version>
5.8.1

> <Gold.Id.Protein>
6NUR|6NUR_protein|mol2

> <Gold.PLP.Fitness>
46.0593

> <Gold.PLP.PLP>
-35.3055

> <Gold.PLP.part.hbond>
-5.0921

> <Gold.PLP.part.metal>
0.0000

> <Gold.PLP.part.buried>
-3.4410

> <Gold.PLP.part.nonpolar>
-27.6093

> <Gold.PLP.part.repulsive>
0.5115

> <Gold.PLP.ligand.clash>
0.0000

> <Gold.PLP.ligand.torsion>
0.4017

> <Gold.PLP.Chemscore.Hbond>
3.7340

> <Gold.PLP.Chemscore.CHOScore>
0.0000

> <Gold.PLP.Chemscore.Metal>
0.0000

> <Gold.Chemscore.Hbonds>
donor molecule, donor type, donor heavy atom, donor atom, acceptor molecule, acceptor atom, score
      L1  H     8    29       P1  7948  0.82
      L1  H    11    30       P1  7948  0.35
      P1  H  7989  7998       L1     6  0.90
      P1  H 10752 10765       L1    10  0.93

> <Gold.PLP.Chemscore.Internal.Correction>
0.3552

> <Gold.Rescore>
     Score         DG    S(hbond)    S(metal)    S(lipo)     H(rot)  DE(clash)    DE(int)     intcor
     13.20     -15.95       2.62        0.00      54.57       1.82       0.05       2.70       ----

> <Gold.Chemscore.Fitness>
13.1991

> <Gold.Chemscore.DG>
-15.9535

> <Gold.Chemscore.ZeroCoef>
-5.4800

> <Gold.Chemscore.Hbond>
2.6219

> <Gold.Chemscore.Metal>
0.0000

> <Gold.Chemscore.Lipo>
54.5711

> <Gold.Chemscore.Internal_Hbond>
0.0000

> <Gold.Chemscore.DEClash>
0.0510

> <Gold.Chemscore.DEInternal>
2.7034

> <Gold.Chemscore.Rot>
1.8236

> <Gold.Chemscore.Internal.Correction>
   9.000000E+99

> <Gold.Chemscore.Hbonds>
donor molecule, donor type, donor heavy atom, donor atom, acceptor molecule, acceptor atom, score
      L1  H     8    29       P1  7948  0.13
      L1  H    11    30       P1  7948  0.01
      P1  H  7989  7998       L1     6  0.17
      P1  H 10752 10765       L1    10  0.49

> <Gold.Chemscore.Hbond.Weighted>
-8.7572

> <Gold.Chemscore.Metal.Weighted>
-0.0000

> <Gold.Chemscore.Lipo.Weighted>
-6.3848

> <Gold.Chemscore.Internal_Hbond.Weighted>
0.0000

> <Gold.Chemscore.DEClash.Weighted>
0.0510

> <Gold.Chemscore.DEInternal.Weighted>
2.7034

> <Gold.Chemscore.Rot.Weighted>
4.6685

> <Gold.Chemscore.Internal.Correction.Weighted>
   9.000000E+99

> <Gold.Protein.RotatedTorsions>
[ 6907 6896 6895 6894 ] final  117.87 input  -60.11 | X-H torsion
[ 7974 7965 7964 7962 ] final -105.78 input  175.53 | X-H torsion
[ 8008 7997 7996 7995 ] final -150.12 input   59.86 | X-H torsion
[ 10167 10162 10161 10158 ] final  -27.59 input  -65.29 | X-H torsion
[ 10718 10713 10712 10709 ] final -101.93 input   66.30 | X-H torsion
[ 10763 10752 10751 10750 ] final -153.12 input  -60.55 | X-H torsion
[ 11005 11000 10999 10996 ] final  102.87 input  -57.11 | X-H torsion

> <Gold.Protein.ActiveResidues>
 VAL166  LYS551  ARG553  GLY616  TRP617  ASP618  TYR619  PRO620  LYS621  CYS622 
 ASP623  PHE694  ASN695  SER759  ASP760  ASP761  ALA762  ILE779  LEU786  VAL792 
 PHE793  MET794  SER795  GLU796  ALA797  LYS798  CYS799  TRP800  GLU811  SER814 

> <Gold.Protein.RotatedAtoms>
  152.4582  133.7767  159.6828 H   0  0  0  0  0  0  0  0  0  0  0  0  # atno 6907 bound_to 6896
  150.8516  133.7768  159.3030 H   0  0  0  0  0  0  0  0  0  0  0  0  # atno 6908 bound_to 6896
  151.5362  135.1071  159.9967 H   0  0  0  0  0  0  0  0  0  0  0  0  # atno 6909 bound_to 6896
  145.2262  140.9153  143.3231 H   0  0  0  0  0  0  0  0  0  0  0  0  # atno 7974 bound_to 7965
  155.6186  140.0679  157.2685 H   0  0  0  0  0  0  0  0  0  0  0  0  # atno 8008 bound_to 7997
  154.4235  140.1788  156.1396 H   0  0  0  0  0  0  0  0  0  0  0  0  # atno 8009 bound_to 7997
  156.0028  140.3334  155.6865 H   0  0  0  0  0  0  0  0  0  0  0  0  # atno 8010 bound_to 7997
  140.7276  143.4081  151.1151 H   0  0  0  0  0  0  0  0  0  0  0  0  # atno 10167 bound_to 10162
  156.0211  130.5396  150.7035 H   0  0  0  0  0  0  0  0  0  0  0  0  # atno 10718 bound_to 10713
  154.7949  135.3220  154.7691 H   0  0  0  0  0  0  0  0  0  0  0  0  # atno 10763 bound_to 10752
  153.8371  135.6874  153.4811 H   0  0  0  0  0  0  0  0  0  0  0  0  # atno 10764 bound_to 10752
  153.1636  135.4651  154.9747 H   0  0  0  0  0  0  0  0  0  0  0  0  # atno 10765 bound_to 10752
  139.8780  134.9241  156.5123 H   0  0  0  0  0  0  0  0  0  0  0  0  # atno 11005 bound_to 11000
  144.9719  139.3871  143.6304 LP  0  0  0  0  0  0  0  0  0  0  0  0  # atno 17320 bound_to 7965
  146.3364  139.8821  142.8822 LP  0  0  0  0  0  0  0  0  0  0  0  0  # atno 17321 bound_to 7965
  139.7710  143.8494  152.3120 LP  0  0  0  0  0  0  0  0  0  0  0  0  # atno 17342 bound_to 10162
  139.8412  144.7209  150.9328 LP  0  0  0  0  0  0  0  0  0  0  0  0  # atno 17343 bound_to 10162
  157.4690  131.0891  151.0663 LP  0  0  0  0  0  0  0  0  0  0  0  0  # atno 17370 bound_to 10713
  157.1129  130.6029  149.5486 LP  0  0  0  0  0  0  0  0  0  0  0  0  # atno 17371 bound_to 10713
  140.8511  133.8131  155.9169 LP  0  0  0  0  0  0  0  0  0  0  0  0  # atno 17394 bound_to 11000
  140.9143  134.2221  157.4966 LP  0  0  0  0  0  0  0  0  0  0  0  0  # atno 17395 bound_to 11000

$$$$
