AV-unprocessed.smi:2046|AV-procd|sdf|8313|dock6
  -GOLD-   2272010583D 1   1.00000     0.00000
 Structure written by MMmdl.
 29 30  0  0  0  0  0  0  0  0  2 V2000
  151.6966  140.2332  155.5798 O   0  0  0  0  0  0  0  0  0  0  0  0
  150.6651  139.7856  156.0866 C   0  0  0  0  0  0  0  0  0  0  0  0
  149.8557  138.8411  155.5552 N   0  5  0  0  0  0  0  0  0  0  0  0
  148.7798  139.2045  154.8377 C   0  0  0  0  0  0  0  0  0  0  0  0
  147.8432  138.3236  154.4510 N   0  0  0  0  0  0  0  0  0  0  0  0
  146.8124  138.9058  153.7255 N   0  0  0  0  0  0  0  0  0  0  0  0
  146.9943  140.2194  153.5913 C   0  0  0  0  0  0  0  0  0  0  0  0
  148.4400  140.8642  154.3392 S   0  0  0  0  0  0  0  0  0  0  0  0
  150.2528  140.2405  157.2799 N   0  0  0  0  0  0  0  0  0  0  0  0
  150.9092  141.2684  158.0910 C   0  0  2  0  0  0  0  0  0  0  0  0
  150.9863  142.5664  157.2483 C   0  0  0  0  0  0  0  0  0  0  0  0
  151.9763  143.6472  157.7378 C   0  0  0  0  0  0  0  0  0  0  0  0
  151.9574  143.9153  159.2567 C   0  0  0  0  0  0  0  0  0  0  0  0
  152.3140  142.7212  160.1797 C   0  0  0  0  0  0  0  0  0  0  0  0
  152.9164  141.5753  159.4979 N   0  0  0  0  0  0  0  0  0  0  0  0
  152.3273  140.8445  158.5360 C   0  0  0  0  0  0  0  0  0  0  0  0
  152.9059  139.8946  158.0095 O   0  0  0  0  0  0  0  0  0  0  0  0
  146.2718  140.8125  153.0511 H   0  0  0  0  0  0  0  0  0  0  0  0
  149.3999  139.8485  157.6506 H   0  0  0  0  0  0  0  0  0  0  0  0
  150.2919  141.4480  158.9721 H   0  0  0  0  0  0  0  0  0  0  0  0
  151.2431  142.3237  156.2159 H   0  0  0  0  0  0  0  0  0  0  0  0
  149.9868  143.0010  157.2059 H   0  0  0  0  0  0  0  0  0  0  0  0
  152.9894  143.3794  157.4341 H   0  0  0  0  0  0  0  0  0  0  0  0
  151.7621  144.5775  157.2109 H   0  0  0  0  0  0  0  0  0  0  0  0
  152.6625  144.7226  159.4579 H   0  0  0  0  0  0  0  0  0  0  0  0
  150.9810  144.3076  159.5428 H   0  0  0  0  0  0  0  0  0  0  0  0
  153.0038  143.0553  160.9550 H   0  0  0  0  0  0  0  0  0  0  0  0
  151.4245  142.3828  160.7127 H   0  0  0  0  0  0  0  0  0  0  0  0
  153.8471  141.3098  159.7849 H   0  0  0  0  0  0  0  0  0  0  0  0
  1  2  2  0  0  0  0
  2  3  1  0  0  0  0
  2  9  1  0  0  0  0
  3  4  1  0  0  0  0
  4  8  1  0  0  0  0
  4  5  2  0  0  0  0
  5  6  1  0  0  0  0
  6  7  2  0  0  0  0
  7  8  1  0  0  0  0
  7 18  1  0  0  0  0
  9 10  1  0  0  0  0
  9 19  1  0  0  0  0
 10 16  1  0  0  0  0
 10 11  1  0  0  0  0
 10 20  1  0  0  0  0
 11 12  1  0  0  0  0
 11 21  1  0  0  0  0
 11 22  1  0  0  0  0
 12 13  1  0  0  0  0
 12 23  1  0  0  0  0
 12 24  1  0  0  0  0
 13 14  1  0  0  0  0
 13 25  1  0  0  0  0
 13 26  1  0  0  0  0
 14 15  1  0  0  0  0
 14 27  1  0  0  0  0
 14 28  1  0  0  0  0
 15 16  1  0  0  0  0
 15 29  1  0  0  0  0
 16 17  2  0  0  0  0
M  CHG  1   3  -1
M  END
> <s_m_source_file>
AV-unprocessed.smi

> <i_m_source_file_index>
2046

> <i_lp_mmshare_version>
43012

> <i_f3d_flags>
0

> <s_epik_input>
czFbY0hdbm5jMVtOSF1DKD1PKVtOSF1bQ0BASF0yW0NIMl1bQ0gyXVtDSDJdW0NIMl1bTkhdQzI9Tw==

> <s_epik_cmdline>
J2VwaWtfcHl0aG9uJywgJy1waCcsICc3LjAnLCAnLXRuJywgJzgnLCAnLW1hJywgJzIwMCcsICctbWV0YWxfYmluZGluZycsICctaW1hZScsICc8aW5maWxlLm1hZT4nLCAnLW9tYWUnLCAnPG91dGZpbGUubWFlPic=

> <r_lp_tautomer_probability>
1

> <r_epik_Ionization_Penalty>
4.05949

> <r_epik_Ionization_Penalty_Charging>
4.01916

> <r_epik_Ionization_Penalty_Neutral>
0.0403285

> <r_epik_State_Penalty>
4.01849

> <r_epik_Charging_Adjusted_Penalty>
8.03765

> <i_epik_Tot_Q>
-1

> <i_epik_Tot_abs_Q>
1

> <r_epik_Metal_State_Penalty>
0.626741

> <b_epik_Metal_Only>
1

> <s_lp_Force_Field>
OPLS_2005

> <r_lp_Energy>
13.487

> <b_lp_Chiralities_Consistent>
1

> <s_lp_Variant>
AV-unprocessed.smi:2046-3

> <Gold.Version>
5.8.1

> <Gold.Id.Protein>
6NUR|6NUR_protein|mol2

> <Gold.PLP.Fitness>
34.5329

> <Gold.PLP.PLP>
-28.1183

> <Gold.PLP.part.hbond>
-2.0000

> <Gold.PLP.part.metal>
0.0000

> <Gold.PLP.part.buried>
-4.1724

> <Gold.PLP.part.nonpolar>
-23.6764

> <Gold.PLP.part.repulsive>
0.5780

> <Gold.PLP.ligand.clash>
0.0000

> <Gold.PLP.ligand.torsion>
0.7679

> <Gold.PLP.Chemscore.Hbond>
1.8320

> <Gold.PLP.Chemscore.CHOScore>
0.8172

> <Gold.PLP.Chemscore.Metal>
0.0000

> <Gold.Chemscore.Hbonds>
donor molecule, donor type, donor heavy atom, donor atom, acceptor molecule, acceptor atom, score
      P1  H  7989  7998       L1     1  0.56
      P1  H  7997  8009       L1    17  1.00
      L1  C     7    18       P1 10175  0.67

> <Gold.PLP.Chemscore.Internal.Correction>
0.0028

> <Gold.Rescore>
     Score         DG    S(hbond)    S(metal)    S(lipo)     H(rot)  DE(clash)    DE(int)     intcor
     11.91     -16.62       1.85        0.00      64.45       1.00       0.24       4.47       ----

> <Gold.Chemscore.Fitness>
11.9088

> <Gold.Chemscore.DG>
-16.6246

> <Gold.Chemscore.ZeroCoef>
-5.4800

> <Gold.Chemscore.Hbond>
1.8455

> <Gold.Chemscore.Metal>
0.0000

> <Gold.Chemscore.Lipo>
64.4488

> <Gold.Chemscore.Internal_Hbond>
0.0000

> <Gold.Chemscore.DEClash>
0.2425

> <Gold.Chemscore.DEInternal>
4.4733

> <Gold.Chemscore.Rot>
1.0000

> <Gold.Chemscore.Internal.Correction>
   9.000000E+99

> <Gold.Chemscore.Hbonds>
donor molecule, donor type, donor heavy atom, donor atom, acceptor molecule, acceptor atom, score
      P1  H  7989  7998       L1     1  0.55
      P1  H  7997  8009       L1    17  0.96

> <Gold.Chemscore.Hbond.Weighted>
-6.1641

> <Gold.Chemscore.Metal.Weighted>
-0.0000

> <Gold.Chemscore.Lipo.Weighted>
-7.5405

> <Gold.Chemscore.Internal_Hbond.Weighted>
0.0000

> <Gold.Chemscore.DEClash.Weighted>
0.2425

> <Gold.Chemscore.DEInternal.Weighted>
4.4733

> <Gold.Chemscore.Rot.Weighted>
2.5600

> <Gold.Chemscore.Internal.Correction.Weighted>
   9.000000E+99

> <Gold.Protein.RotatedTorsions>
[ 6907 6896 6895 6894 ] final  163.15 input  -60.11 | X-H torsion
[ 7974 7965 7964 7962 ] final  -66.26 input  175.53 | X-H torsion
[ 8008 7997 7996 7995 ] final  172.07 input   59.86 | X-H torsion
[ 10167 10162 10161 10158 ] final -110.77 input  -65.29 | X-H torsion
[ 10718 10713 10712 10709 ] final    9.44 input   66.30 | X-H torsion
[ 10763 10752 10751 10750 ] final   60.53 input  -60.55 | X-H torsion
[ 11005 11000 10999 10996 ] final  -10.34 input  -57.11 | X-H torsion

> <Gold.Protein.ActiveResidues>
 VAL166  LYS551  ARG553  GLY616  TRP617  ASP618  TYR619  PRO620  LYS621  CYS622 
 ASP623  PHE694  ASN695  SER759  ASP760  ASP761  ALA762  ILE779  LEU786  VAL792 
 PHE793  MET794  SER795  GLU796  ALA797  LYS798  CYS799  TRP800  GLU811  SER814 

> <Gold.Protein.RotatedAtoms>
  151.9296  133.3607  159.3925 H   0  0  0  0  0  0  0  0  0  0  0  0  # atno 6907 bound_to 6896
  150.7020  134.4551  159.5364 H   0  0  0  0  0  0  0  0  0  0  0  0  # atno 6908 bound_to 6896
  152.2189  134.8431  160.0539 H   0  0  0  0  0  0  0  0  0  0  0  0  # atno 6909 bound_to 6896
  145.7440  140.8940  143.0515 H   0  0  0  0  0  0  0  0  0  0  0  0  # atno 7974 bound_to 7965
  156.1210  140.1495  156.9204 H   0  0  0  0  0  0  0  0  0  0  0  0  # atno 8008 bound_to 7997
  154.4836  140.0872  156.7476 H   0  0  0  0  0  0  0  0  0  0  0  0  # atno 8009 bound_to 7997
  155.4428  140.3431  155.4294 H   0  0  0  0  0  0  0  0  0  0  0  0  # atno 8010 bound_to 7997
  140.1409  143.4280  152.1563 H   0  0  0  0  0  0  0  0  0  0  0  0  # atno 10167 bound_to 10162
  156.9664  130.5952  149.5665 H   0  0  0  0  0  0  0  0  0  0  0  0  # atno 10718 bound_to 10713
  152.9924  135.5533  154.5888 H   0  0  0  0  0  0  0  0  0  0  0  0  # atno 10763 bound_to 10752
  154.5254  135.2810  155.1228 H   0  0  0  0  0  0  0  0  0  0  0  0  # atno 10764 bound_to 10752
  154.2565  135.6389  153.5312 H   0  0  0  0  0  0  0  0  0  0  0  0  # atno 10765 bound_to 10752
  140.7437  133.8649  155.8988 H   0  0  0  0  0  0  0  0  0  0  0  0  # atno 11005 bound_to 11000
  144.6864  139.9500  143.7477 LP  0  0  0  0  0  0  0  0  0  0  0  0  # atno 17320 bound_to 7965
  146.0420  139.3431  143.0691 LP  0  0  0  0  0  0  0  0  0  0  0  0  # atno 17321 bound_to 7965
  139.5472  144.7308  151.4545 LP  0  0  0  0  0  0  0  0  0  0  0  0  # atno 17342 bound_to 10162
  140.6761  143.8186  150.7060 LP  0  0  0  0  0  0  0  0  0  0  0  0  # atno 17343 bound_to 10162
  156.0301  130.5392  150.8511 LP  0  0  0  0  0  0  0  0  0  0  0  0  # atno 17370 bound_to 10713
  157.5623  131.0946  150.9541 LP  0  0  0  0  0  0  0  0  0  0  0  0  # atno 17371 bound_to 10713
  140.9813  134.1401  157.4491 LP  0  0  0  0  0  0  0  0  0  0  0  0  # atno 17394 bound_to 11000
  139.8801  135.0011  156.6050 LP  0  0  0  0  0  0  0  0  0  0  0  0  # atno 17395 bound_to 11000

$$$$
