AV-unprocessed.smi:276|AV-procd|sdf|2080|dock6
  -GOLD-   2262021353D 1   1.00000     0.00000
 Structure written by MMmdl.
 57 61  0  0  0  0  0  0  0  0  1 V2000
  151.7751  144.5842  158.8917 C   0  0  0  0  0  0  0  0  0  0  0  0
  150.9438  143.6954  158.1663 O   0  0  0  0  0  0  0  0  0  0  0  0
  150.8899  142.4020  158.7461 C   0  0  2  0  0  0  0  0  0  0  0  0
  152.1916  141.6008  158.6286 C   0  0  0  0  0  0  0  0  0  0  0  0
  151.3142  140.3653  158.3870 C   0  0  2  0  0  0  0  0  0  0  0  0
  151.8988  139.4254  157.4274 N   0  0  0  0  0  0  0  0  0  0  0  0
  153.2483  138.9623  157.7253 C   0  0  0  0  0  0  0  0  0  0  0  0
  151.1199  138.3813  157.0637 C   0  0  0  0  0  0  0  0  0  0  0  0
  150.9595  138.1705  155.7332 N   0  0  0  0  0  0  0  0  0  0  0  0
  150.1957  137.1628  155.3014 C   0  0  0  0  0  0  0  0  0  0  0  0
  149.5225  136.2592  156.0168 N   0  0  0  0  0  0  0  0  0  0  0  0
  149.7007  136.4545  157.3550 C   0  0  0  0  0  0  0  0  0  0  0  0
  150.4809  137.4788  157.9623 C   0  0  0  0  0  0  0  0  0  0  0  0
  150.4374  137.3459  159.3457 N   0  0  0  0  0  0  0  0  0  0  0  0
  149.6664  136.3119  159.5443 C   0  0  0  0  0  0  0  0  0  0  0  0
  149.1813  135.7162  158.4032 N   0  0  0  0  0  0  0  0  0  0  0  0
  148.3139  134.5532  158.3347 C   0  0  0  0  0  0  0  0  0  0  0  0
  148.9277  133.3193  159.0258 C   0  0  2  0  0  0  0  0  0  0  0  0
  148.5817  132.1554  158.2987 O   0  0  0  0  0  0  0  0  0  0  0  0
  148.4422  133.1630  160.4789 C   0  0  1  0  0  0  0  0  0  0  0  0
  149.1968  132.1072  161.2885 C   0  0  0  0  0  0  0  0  0  0  0  0
  148.9450  132.5707  162.7046 C   0  0  0  0  0  0  0  0  0  0  0  0
  149.0127  134.0879  162.5560 C   0  0  0  0  0  0  0  0  0  0  0  0
  148.6494  134.3715  161.2068 O   0  0  0  0  0  0  0  0  0  0  0  0
  150.2350  141.3396  157.8418 C   0  0  0  0  0  0  0  0  0  0  0  0
  148.7359  141.0354  157.9599 C   0  0  0  0  0  0  0  0  0  0  0  0
  148.6660  140.8993  156.4355 C   0  0  0  0  0  0  0  0  0  0  0  0
  150.0211  141.6079  156.3378 C   0  0  0  0  0  0  0  0  0  0  0  0
  151.7768  145.5605  158.4073 H   0  0  0  0  0  0  0  0  0  0  0  0
  152.8044  144.2257  158.9279 H   0  0  0  0  0  0  0  0  0  0  0  0
  151.4138  144.7154  159.9125 H   0  0  0  0  0  0  0  0  0  0  0  0
  150.4732  142.3924  159.7559 H   0  0  0  0  0  0  0  0  0  0  0  0
  152.7889  141.8885  157.7610 H   0  0  0  0  0  0  0  0  0  0  0  0
  152.7896  141.5658  159.5393 H   0  0  0  0  0  0  0  0  0  0  0  0
  151.0207  139.9135  159.3354 H   0  0  0  0  0  0  0  0  0  0  0  0
  153.2569  138.3529  158.6298 H   0  0  0  0  0  0  0  0  0  0  0  0
  153.9225  139.8052  157.8777 H   0  0  0  0  0  0  0  0  0  0  0  0
  153.6493  138.3658  156.9049 H   0  0  0  0  0  0  0  0  0  0  0  0
  150.1107  137.0678  154.2291 H   0  0  0  0  0  0  0  0  0  0  0  0
  149.4326  135.9498  160.5349 H   0  0  0  0  0  0  0  0  0  0  0  0
  147.3631  134.8141  158.8004 H   0  0  0  0  0  0  0  0  0  0  0  0
  148.0969  134.3379  157.2877 H   0  0  0  0  0  0  0  0  0  0  0  0
  150.0150  133.4072  159.0179 H   0  0  0  0  0  0  0  0  0  0  0  0
  148.5501  132.3738  157.3796 H   0  0  0  0  0  0  0  0  0  0  0  0
  147.3744  132.9377  160.5018 H   0  0  0  0  0  0  0  0  0  0  0  0
  148.8416  131.0933  161.1032 H   0  0  0  0  0  0  0  0  0  0  0  0
  150.2649  132.1420  161.0684 H   0  0  0  0  0  0  0  0  0  0  0  0
  147.9469  132.2681  163.0241 H   0  0  0  0  0  0  0  0  0  0  0  0
  149.6678  132.1786  163.4206 H   0  0  0  0  0  0  0  0  0  0  0  0
  148.3562  134.6001  163.2599 H   0  0  0  0  0  0  0  0  0  0  0  0
  150.0301  134.4437  162.7219 H   0  0  0  0  0  0  0  0  0  0  0  0
  148.4949  140.1232  158.5054 H   0  0  0  0  0  0  0  0  0  0  0  0
  148.1638  141.8870  158.3303 H   0  0  0  0  0  0  0  0  0  0  0  0
  148.6986  139.8629  156.0997 H   0  0  0  0  0  0  0  0  0  0  0  0
  147.8405  141.4415  155.9738 H   0  0  0  0  0  0  0  0  0  0  0  0
  149.9067  142.6656  156.0990 H   0  0  0  0  0  0  0  0  0  0  0  0
  150.7352  141.1324  155.6662 H   0  0  0  0  0  0  0  0  0  0  0  0
  1  2  1  0  0  0  0
  1 29  1  0  0  0  0
  1 30  1  0  0  0  0
  1 31  1  0  0  0  0
  2  3  1  0  0  0  0
  3 25  1  0  0  0  0
  3  4  1  0  0  0  0
  3 32  1  0  0  0  0
  4  5  1  0  0  0  0
  4 33  1  0  0  0  0
  4 34  1  0  0  0  0
  5  6  1  0  0  0  0
  5 25  1  0  0  0  0
  5 35  1  0  0  0  0
  6  7  1  0  0  0  0
  6  8  1  0  0  0  0
  7 36  1  0  0  0  0
  7 37  1  0  0  0  0
  7 38  1  0  0  0  0
  8 13  1  0  0  0  0
  8  9  2  0  0  0  0
  9 10  1  0  0  0  0
 10 11  2  0  0  0  0
 10 39  1  0  0  0  0
 11 12  1  0  0  0  0
 12 16  1  0  0  0  0
 12 13  2  0  0  0  0
 13 14  1  0  0  0  0
 14 15  2  0  0  0  0
 15 16  1  0  0  0  0
 15 40  1  0  0  0  0
 16 17  1  0  0  0  0
 17 18  1  0  0  0  0
 17 41  1  0  0  0  0
 17 42  1  0  0  0  0
 18 19  1  0  0  0  0
 18 20  1  0  0  0  0
 18 43  1  0  0  0  0
 19 44  1  0  0  0  0
 20 24  1  0  0  0  0
 20 21  1  0  0  0  0
 20 45  1  0  0  0  0
 21 22  1  0  0  0  0
 21 46  1  0  0  0  0
 21 47  1  0  0  0  0
 22 23  1  0  0  0  0
 22 48  1  0  0  0  0
 22 49  1  0  0  0  0
 23 24  1  0  0  0  0
 23 50  1  0  0  0  0
 23 51  1  0  0  0  0
 25 28  1  0  0  0  0
 25 26  1  0  0  0  0
 26 27  1  0  0  0  0
 26 52  1  0  0  0  0
 26 53  1  0  0  0  0
 27 28  1  0  0  0  0
 27 54  1  0  0  0  0
 27 55  1  0  0  0  0
 28 56  1  0  0  0  0
 28 57  1  0  0  0  0
M  END
> <s_m_source_file>
AV-unprocessed.smi

> <i_m_source_file_index>
276

> <i_lp_mmshare_version>
43012

> <i_f3d_flags>
0

> <s_epik_input>
W0NIMl0xW0NIMl1bQ0gyXUMxMltDQEhdKE9bQ0gzXSlbQ0gyXVtDQEhdMk4oW0NIM10pYyhuW2NIXW4zKWMoYzM0KW5bY0hdbjRbQ0gyXVtDQEhdKFtPSF0pW0NAQEhdNVtDSDJdW0NIMl1bQ0gyXU81

> <s_epik_cmdline>
J2VwaWtfcHl0aG9uJywgJy1waCcsICc3LjAnLCAnLXRuJywgJzgnLCAnLW1hJywgJzIwMCcsICctbWV0YWxfYmluZGluZycsICctaW1hZScsICc8aW5maWxlLm1hZT4nLCAnLW9tYWUnLCAnPG91dGZpbGUubWFlPic=

> <r_lp_tautomer_probability>
1

> <r_epik_Ionization_Penalty>
0.00204117

> <r_epik_Ionization_Penalty_Charging>
0

> <r_epik_Ionization_Penalty_Neutral>
0.00204117

> <r_epik_State_Penalty>
0.00127401

> <r_epik_Charging_Adjusted_Penalty>
0.00127401

> <i_epik_Tot_Q>
0

> <i_epik_Tot_abs_Q>
0

> <r_epik_Metal_State_Penalty>
-0

> <b_epik_Metal_Only>
0

> <s_lp_Force_Field>
OPLS_2005

> <r_lp_Energy>
54.5778

> <b_lp_Chiralities_Consistent>
1

> <s_lp_Variant>
AV-unprocessed.smi:276-11

> <Gold.Version>
5.8.1

> <Gold.Id.Protein>
6NUR|6NUR_protein|mol2

> <Gold.PLP.Fitness>
37.9456

> <Gold.PLP.PLP>
-37.8780

> <Gold.PLP.part.hbond>
-0.7642

> <Gold.PLP.part.metal>
0.0000

> <Gold.PLP.part.buried>
-7.2301

> <Gold.PLP.part.nonpolar>
-30.4080

> <Gold.PLP.part.repulsive>
0.1974

> <Gold.PLP.ligand.clash>
0.0000

> <Gold.PLP.ligand.torsion>
1.2160

> <Gold.PLP.Chemscore.Hbond>
0.0000

> <Gold.PLP.Chemscore.CHOScore>
0.5730

> <Gold.PLP.Chemscore.Metal>
0.0000

> <Gold.Chemscore.Hbonds>
donor molecule, donor type, donor heavy atom, donor atom, acceptor molecule, acceptor atom, score
      L1  C    10    39       P1  7948  0.51

> <Gold.PLP.Chemscore.Internal.Correction>
0.7805

> <Gold.Rescore>
     Score         DG    S(hbond)    S(metal)    S(lipo)     H(rot)  DE(clash)    DE(int)     intcor
      8.05     -10.58       0.00        0.00     103.03       2.72       0.02       2.51       ----

> <Gold.Chemscore.Fitness>
8.0490

> <Gold.Chemscore.DG>
-10.5785

> <Gold.Chemscore.ZeroCoef>
-5.4800

> <Gold.Chemscore.Hbond>
0.0000

> <Gold.Chemscore.Metal>
0.0000

> <Gold.Chemscore.Lipo>
103.0298

> <Gold.Chemscore.Internal_Hbond>
0.0000

> <Gold.Chemscore.DEClash>
0.0203

> <Gold.Chemscore.DEInternal>
2.5092

> <Gold.Chemscore.Rot>
2.7172

> <Gold.Chemscore.Internal.Correction>
   9.000000E+99

> <Gold.Chemscore.Hbond.Weighted>
-0.0000

> <Gold.Chemscore.Metal.Weighted>
-0.0000

> <Gold.Chemscore.Lipo.Weighted>
-12.0545

> <Gold.Chemscore.Internal_Hbond.Weighted>
0.0000

> <Gold.Chemscore.DEClash.Weighted>
0.0203

> <Gold.Chemscore.DEInternal.Weighted>
2.5092

> <Gold.Chemscore.Rot.Weighted>
6.9560

> <Gold.Chemscore.Internal.Correction.Weighted>
   9.000000E+99

> <Gold.Protein.RotatedTorsions>
[ 6907 6896 6895 6894 ] final -110.51 input  -60.11 | X-H torsion
[ 7974 7965 7964 7962 ] final  -55.13 input  175.53 | X-H torsion
[ 8008 7997 7996 7995 ] final   75.64 input   59.86 | X-H torsion
[ 10167 10162 10161 10158 ] final   18.49 input  -65.29 | X-H torsion
[ 10718 10713 10712 10709 ] final -115.94 input   66.30 | X-H torsion
[ 10763 10752 10751 10750 ] final  -61.65 input  -60.55 | X-H torsion
[ 11005 11000 10999 10996 ] final   33.88 input  -57.11 | X-H torsion

> <Gold.Protein.ActiveResidues>
 VAL166  LYS551  ARG553  GLY616  TRP617  ASP618  TYR619  PRO620  LYS621  CYS622 
 ASP623  PHE694  ASN695  SER759  ASP760  ASP761  ALA762  ILE779  LEU786  VAL792 
 PHE793  MET794  SER795  GLU796  ALA797  LYS798  CYS799  TRP800  GLU811  SER814 

> <Gold.Protein.RotatedAtoms>
  150.7630  133.9371  159.3444 H   0  0  0  0  0  0  0  0  0  0  0  0  # atno 6907 bound_to 6896
  151.7275  135.0879  160.0304 H   0  0  0  0  0  0  0  0  0  0  0  0  # atno 6908 bound_to 6896
  152.3610  133.6260  159.6051 H   0  0  0  0  0  0  0  0  0  0  0  0  # atno 6909 bound_to 6896
  145.8777  140.8168  142.9856 H   0  0  0  0  0  0  0  0  0  0  0  0  # atno 7974 bound_to 7965
  155.8158  140.3471  155.5484 H   0  0  0  0  0  0  0  0  0  0  0  0  # atno 8008 bound_to 7997
  155.8394  140.0939  157.1764 H   0  0  0  0  0  0  0  0  0  0  0  0  # atno 8009 bound_to 7997
  154.4005  140.1397  156.3697 H   0  0  0  0  0  0  0  0  0  0  0  0  # atno 8010 bound_to 7997
  140.5649  143.9269  150.6669 H   0  0  0  0  0  0  0  0  0  0  0  0  # atno 10167 bound_to 10162
  156.0929  130.6108  150.8971 H   0  0  0  0  0  0  0  0  0  0  0  0  # atno 10718 bound_to 10713
  154.2879  135.6259  153.5373 H   0  0  0  0  0  0  0  0  0  0  0  0  # atno 10763 bound_to 10752
  152.9856  135.5648  154.5423 H   0  0  0  0  0  0  0  0  0  0  0  0  # atno 10764 bound_to 10752
  154.5027  135.2873  155.1383 H   0  0  0  0  0  0  0  0  0  0  0  0  # atno 10765 bound_to 10752
  140.2586  134.3219  155.7865 H   0  0  0  0  0  0  0  0  0  0  0  0  # atno 11005 bound_to 11000
  144.6726  140.1335  143.7442 LP  0  0  0  0  0  0  0  0  0  0  0  0  # atno 17320 bound_to 7965
  145.9061  139.2459  143.1465 LP  0  0  0  0  0  0  0  0  0  0  0  0  # atno 17321 bound_to 7965
  140.2729  143.3443  152.1221 LP  0  0  0  0  0  0  0  0  0  0  0  0  # atno 17342 bound_to 10162
  139.5088  144.6856  151.5896 LP  0  0  0  0  0  0  0  0  0  0  0  0  # atno 17343 bound_to 10162
  157.6083  131.0938  150.8840 LP  0  0  0  0  0  0  0  0  0  0  0  0  # atno 17370 bound_to 10713
  156.8984  130.5238  149.5283 LP  0  0  0  0  0  0  0  0  0  0  0  0  # atno 17371 bound_to 10713
  141.2193  133.7396  156.9151 LP  0  0  0  0  0  0  0  0  0  0  0  0  # atno 17394 bound_to 11000
  140.1487  134.9245  157.2563 LP  0  0  0  0  0  0  0  0  0  0  0  0  # atno 17395 bound_to 11000

$$$$
