AV-unprocessed.smi:2966|AV-procd|sdf|11325|dock4
  -GOLD-   2272016233D 1   1.00000     0.00000
 Structure written by MMmdl.
 41 43  0  0  0  0  0  0  0  0  2 V2000
  153.9127  138.6988  158.9200 C   0  0  0  0  0  0  0  0  0  0  0  0
  153.4588  139.0645  157.6290 O   0  0  0  0  0  0  0  0  0  0  0  0
  152.0490  138.9752  157.5025 C   0  0  0  0  0  0  0  0  0  0  0  0
  151.3713  139.7581  158.6352 C   0  0  0  0  0  0  0  0  0  0  0  0
  151.0236  141.1294  158.2352 N   0  0  0  0  0  0  0  0  0  0  0  0
  150.2276  141.5746  157.2246 C   0  0  0  0  0  0  0  0  0  0  0  0
  149.3660  140.5762  156.0556 S   0  0  0  0  0  0  0  0  0  0  0  0
  149.0900  141.6806  154.6425 C   0  0  0  0  0  0  0  0  0  0  0  0
  147.6313  141.6922  154.1884 C   0  0  0  0  0  0  0  0  0  0  0  0
  147.0665  140.6342  153.9124 O   0  0  0  0  0  0  0  0  0  0  0  0
  147.0319  142.8910  154.1417 N   0  0  0  0  0  0  0  0  0  0  0  0
  145.6677  143.1228  153.7953 C   0  0  0  0  0  0  0  0  0  0  0  0
  145.2993  144.4938  153.2719 C   0  0  0  0  0  0  0  0  0  0  0  0
  144.8794  144.0853  154.6569 C   0  0  0  0  0  0  0  0  0  0  0  0
  150.2368  142.9348  157.2540 N   0  3  0  0  0  0  0  0  0  0  0  0
  151.0418  143.3699  158.3080 C   0  0  0  0  0  0  0  0  0  0  0  0
  151.3565  144.6538  158.7426 C   0  0  0  0  0  0  0  0  0  0  0  0
  152.2127  144.7520  159.8589 C   0  0  0  0  0  0  0  0  0  0  0  0
  152.7206  143.6026  160.4984 C   0  0  0  0  0  0  0  0  0  0  0  0
  152.3961  142.3059  160.0484 C   0  0  0  0  0  0  0  0  0  0  0  0
  151.5498  142.2163  158.9435 C   0  0  0  0  0  0  0  0  0  0  0  0
  154.9980  138.7882  158.9655 H   0  0  0  0  0  0  0  0  0  0  0  0
  153.6492  137.6663  159.1528 H   0  0  0  0  0  0  0  0  0  0  0  0
  153.4894  139.3499  159.6859 H   0  0  0  0  0  0  0  0  0  0  0  0
  151.7340  139.3765  156.5381 H   0  0  0  0  0  0  0  0  0  0  0  0
  151.7374  137.9299  157.5382 H   0  0  0  0  0  0  0  0  0  0  0  0
  150.4752  139.2464  158.9863 H   0  0  0  0  0  0  0  0  0  0  0  0
  152.0400  139.8231  159.4932 H   0  0  0  0  0  0  0  0  0  0  0  0
  149.3978  142.6912  154.9124 H   0  0  0  0  0  0  0  0  0  0  0  0
  149.7277  141.3619  153.8171 H   0  0  0  0  0  0  0  0  0  0  0  0
  147.5807  143.7020  154.3885 H   0  0  0  0  0  0  0  0  0  0  0  0
  145.1084  142.2871  153.3764 H   0  0  0  0  0  0  0  0  0  0  0  0
  146.0904  145.2364  153.1862 H   0  0  0  0  0  0  0  0  0  0  0  0
  144.5257  144.5484  152.5084 H   0  0  0  0  0  0  0  0  0  0  0  0
  143.8263  143.8649  154.8192 H   0  0  0  0  0  0  0  0  0  0  0  0
  145.3901  144.5573  155.4944 H   0  0  0  0  0  0  0  0  0  0  0  0
  150.9678  145.5361  158.2554 H   0  0  0  0  0  0  0  0  0  0  0  0
  152.4844  145.7285  160.2332 H   0  0  0  0  0  0  0  0  0  0  0  0
  153.3721  143.7169  161.3527 H   0  0  0  0  0  0  0  0  0  0  0  0
  152.7869  141.4327  160.5494 H   0  0  0  0  0  0  0  0  0  0  0  0
  149.7294  143.5187  156.6021 H   0  0  0  0  0  0  0  0  0  0  0  0
  1  2  1  0  0  0  0
  1 22  1  0  0  0  0
  1 23  1  0  0  0  0
  1 24  1  0  0  0  0
  2  3  1  0  0  0  0
  3  4  1  0  0  0  0
  3 25  1  0  0  0  0
  3 26  1  0  0  0  0
  4  5  1  0  0  0  0
  4 27  1  0  0  0  0
  4 28  1  0  0  0  0
  5 21  1  0  0  0  0
  5  6  1  0  0  0  0
  6  7  1  0  0  0  0
  6 15  2  0  0  0  0
  7  8  1  0  0  0  0
  8  9  1  0  0  0  0
  8 29  1  0  0  0  0
  8 30  1  0  0  0  0
  9 10  2  0  0  0  0
  9 11  1  0  0  0  0
 11 12  1  0  0  0  0
 11 31  1  0  0  0  0
 12 14  1  0  0  0  0
 12 13  1  0  0  0  0
 12 32  1  0  0  0  0
 13 14  1  0  0  0  0
 13 33  1  0  0  0  0
 13 34  1  0  0  0  0
 14 35  1  0  0  0  0
 14 36  1  0  0  0  0
 15 16  1  0  0  0  0
 15 41  1  0  0  0  0
 16 21  2  0  0  0  0
 16 17  1  0  0  0  0
 17 18  2  0  0  0  0
 17 37  1  0  0  0  0
 18 19  1  0  0  0  0
 18 38  1  0  0  0  0
 19 20  2  0  0  0  0
 19 39  1  0  0  0  0
 20 21  1  0  0  0  0
 20 40  1  0  0  0  0
M  CHG  1  15   1
M  END
> <s_m_source_file>
AV-unprocessed.smi

> <i_m_source_file_index>
2966

> <i_lp_mmshare_version>
43012

> <i_f3d_flags>
0

> <s_epik_input>
W2NIXTFbY0hdW2NIXVtjSF1jKGMxMiluKFtDSDJdW0NIMl1PW0NIM10pYyhuMilTW0NIMl1DKD1PKVtOSF1bQ0hdM1tDSDJdW0NIMl0z

> <s_epik_cmdline>
J2VwaWtfcHl0aG9uJywgJy1waCcsICc3LjAnLCAnLXRuJywgJzgnLCAnLW1hJywgJzIwMCcsICctbWV0YWxfYmluZGluZycsICctaW1hZScsICc8aW5maWxlLm1hZT4nLCAnLW9tYWUnLCAnPG91dGZpbGUubWFlPic=

> <r_epik_Ionization_Penalty>
1.66257

> <r_epik_Ionization_Penalty_Charging>
1.66257

> <r_epik_Ionization_Penalty_Neutral>
8.69326e-08

> <r_epik_State_Penalty>
1.76557

> <r_epik_Charging_Adjusted_Penalty>
3.42813

> <i_epik_Tot_Q>
1

> <i_epik_Tot_abs_Q>
1

> <r_epik_Metal_State_Penalty>
1.80073

> <b_epik_Metal_Only>
0

> <s_lp_Force_Field>
OPLS_2005

> <r_lp_Energy>
20.3811

> <b_lp_Chiralities_Consistent>
1

> <s_lp_Variant>
AV-unprocessed.smi:2966-2

> <Gold.Version>
5.8.1

> <Gold.Id.Protein>
6NUR|6NUR_protein|mol2

> <Gold.PLP.Fitness>
56.2636

> <Gold.PLP.PLP>
-46.5471

> <Gold.PLP.part.hbond>
-3.0000

> <Gold.PLP.part.metal>
0.0000

> <Gold.PLP.part.buried>
-5.9472

> <Gold.PLP.part.nonpolar>
-37.4972

> <Gold.PLP.part.repulsive>
0.3206

> <Gold.PLP.ligand.clash>
0.0000

> <Gold.PLP.ligand.torsion>
1.2013

> <Gold.PLP.Chemscore.Hbond>
3.9913

> <Gold.PLP.Chemscore.CHOScore>
0.0000

> <Gold.PLP.Chemscore.Metal>
0.0000

> <Gold.Chemscore.Hbonds>
donor molecule, donor type, donor heavy atom, donor atom, acceptor molecule, acceptor atom, score
      L1  H    11    31       P1  8028  0.95
      L1  H    15    41       P1  8028  2.00
      P1  H  7997  8009       L1     2  1.00

> <Gold.PLP.Chemscore.Internal.Correction>
0.1453

> <Gold.Rescore>
     Score         DG    S(hbond)    S(metal)    S(lipo)     H(rot)  DE(clash)    DE(int)     intcor
     20.93     -22.35       2.71        0.00     115.24       2.21       0.19       1.24       ----

> <Gold.Chemscore.Fitness>
20.9305

> <Gold.Chemscore.DG>
-22.3547

> <Gold.Chemscore.ZeroCoef>
-5.4800

> <Gold.Chemscore.Hbond>
2.7129

> <Gold.Chemscore.Metal>
0.0000

> <Gold.Chemscore.Lipo>
115.2440

> <Gold.Chemscore.Internal_Hbond>
0.0000

> <Gold.Chemscore.DEClash>
0.1883

> <Gold.Chemscore.DEInternal>
1.2359

> <Gold.Chemscore.Rot>
2.2149

> <Gold.Chemscore.Internal.Correction>
   9.000000E+99

> <Gold.Chemscore.Hbonds>
donor molecule, donor type, donor heavy atom, donor atom, acceptor molecule, acceptor atom, score
      L1  H    11    31       P1  8028  0.20
      L1  H    15    41       P1  8028  1.00
      P1  H  7997  8009       L1     2  0.39

> <Gold.Chemscore.Hbond.Weighted>
-9.0612

> <Gold.Chemscore.Metal.Weighted>
-0.0000

> <Gold.Chemscore.Lipo.Weighted>
-13.4835

> <Gold.Chemscore.Internal_Hbond.Weighted>
0.0000

> <Gold.Chemscore.DEClash.Weighted>
0.1883

> <Gold.Chemscore.DEInternal.Weighted>
1.2359

> <Gold.Chemscore.Rot.Weighted>
5.6700

> <Gold.Chemscore.Internal.Correction.Weighted>
   9.000000E+99

> <Gold.Protein.RotatedTorsions>
[ 6907 6896 6895 6894 ] final  116.92 input  -60.11 | X-H torsion
[ 7974 7965 7964 7962 ] final   89.97 input  175.53 | X-H torsion
[ 8008 7997 7996 7995 ] final  148.46 input   59.86 | X-H torsion
[ 10167 10162 10161 10158 ] final  116.93 input  -65.29 | X-H torsion
[ 10718 10713 10712 10709 ] final  -25.44 input   66.30 | X-H torsion
[ 10763 10752 10751 10750 ] final  -61.45 input  -60.55 | X-H torsion
[ 11005 11000 10999 10996 ] final -106.26 input  -57.11 | X-H torsion

> <Gold.Protein.ActiveResidues>
 VAL166  LYS551  ARG553  GLY616  TRP617  ASP618  TYR619  PRO620  LYS621  CYS622 
 ASP623  PHE694  ASN695  SER759  ASP760  ASP761  ALA762  ILE779  LEU786  VAL792 
 PHE793  MET794  SER795  GLU796  ALA797  LYS798  CYS799  TRP800  GLU811  SER814 

> <Gold.Protein.RotatedAtoms>
  152.4646  133.7896  159.6894 H   0  0  0  0  0  0  0  0  0  0  0  0  # atno 6907 bound_to 6896
  150.8605  133.7641  159.3000 H   0  0  0  0  0  0  0  0  0  0  0  0  # atno 6908 bound_to 6896
  151.5208  135.1070  159.9930 H   0  0  0  0  0  0  0  0  0  0  0  0  # atno 6909 bound_to 6896
  145.5252  139.2281  143.2649 H   0  0  0  0  0  0  0  0  0  0  0  0  # atno 7974 bound_to 7965
  156.2790  140.2128  156.5702 H   0  0  0  0  0  0  0  0  0  0  0  0  # atno 8008 bound_to 7997
  154.7142  140.0509  157.0602 H   0  0  0  0  0  0  0  0  0  0  0  0  # atno 8009 bound_to 7997
  155.0565  140.3162  155.4678 H   0  0  0  0  0  0  0  0  0  0  0  0  # atno 8010 bound_to 7997
  139.6213  144.7101  151.2629 H   0  0  0  0  0  0  0  0  0  0  0  0  # atno 10167 bound_to 10162
  156.4644  130.4511  149.6908 H   0  0  0  0  0  0  0  0  0  0  0  0  # atno 10718 bound_to 10713
  154.2848  135.6265  153.5361 H   0  0  0  0  0  0  0  0  0  0  0  0  # atno 10763 bound_to 10752
  152.9860  135.5641  154.5455 H   0  0  0  0  0  0  0  0  0  0  0  0  # atno 10764 bound_to 10752
  154.5053  135.2874  155.1363 H   0  0  0  0  0  0  0  0  0  0  0  0  # atno 10765 bound_to 10752
  141.1013  133.8878  157.1834 H   0  0  0  0  0  0  0  0  0  0  0  0  # atno 11005 bound_to 11000
  146.2080  140.6066  142.9072 LP  0  0  0  0  0  0  0  0  0  0  0  0  # atno 17320 bound_to 7965
  144.7655  140.5520  143.6706 LP  0  0  0  0  0  0  0  0  0  0  0  0  # atno 17321 bound_to 7965
  140.7383  143.6651  150.8130 LP  0  0  0  0  0  0  0  0  0  0  0  0  # atno 17342 bound_to 10162
  140.0262  143.5491  152.2780 LP  0  0  0  0  0  0  0  0  0  0  0  0  # atno 17343 bound_to 10162
  156.3683  130.7517  151.2497 LP  0  0  0  0  0  0  0  0  0  0  0  0  # atno 17370 bound_to 10713
  157.7496  131.0330  150.4253 LP  0  0  0  0  0  0  0  0  0  0  0  0  # atno 17371 bound_to 10713
  139.9866  135.0080  156.9877 LP  0  0  0  0  0  0  0  0  0  0  0  0  # atno 17394 bound_to 11000
  140.5014  134.1094  155.7251 LP  0  0  0  0  0  0  0  0  0  0  0  0  # atno 17395 bound_to 11000

$$$$
