AV-unprocessed.smi:1392|AV-procd|sdf|5662|dock1
  -GOLD-   22720 5283D 1   1.00000     0.00000
 Structure written by MMmdl.
 39 40  0  0  0  0  0  0  0  0  1 V2000
  150.2863  145.2022  159.8116 C   0  0  0  0  0  0  0  0  0  0  0  0
  151.4397  144.4819  159.2871 N   0  0  0  0  0  0  0  0  0  0  0  0
  151.8743  144.7081  157.9124 C   0  0  0  0  0  0  0  0  0  0  0  0
  152.1796  143.6167  160.1254 C   0  0  0  0  0  0  0  0  0  0  0  0
  152.0493  143.6629  161.5356 C   0  0  0  0  0  0  0  0  0  0  0  0
  152.8116  142.7817  162.3254 C   0  0  0  0  0  0  0  0  0  0  0  0
  153.6930  141.8793  161.7002 C   0  0  0  0  0  0  0  0  0  0  0  0
  154.4369  140.9930  162.5258 N   0  0  0  0  0  0  0  0  0  0  0  0
  155.0371  139.8382  162.1900 C   0  0  0  0  0  0  0  0  0  0  0  0
  155.0661  139.3505  161.0605 O   0  0  0  0  0  0  0  0  0  0  0  0
  155.6296  139.2750  163.2523 N   0  0  0  0  0  0  0  0  0  0  0  0
  156.3694  138.0174  163.2304 C   0  0  0  0  0  0  0  0  0  0  0  0
  155.5999  136.8813  163.9306 C   0  0  1  0  0  0  0  0  0  0  0  0
  154.2112  136.6448  163.3747 C   0  0  0  0  0  0  0  0  0  0  0  0
  153.9039  135.2451  163.8957 C   0  0  0  0  0  0  0  0  0  0  0  0
  155.1533  134.5616  163.9171 O   0  0  0  0  0  0  0  0  0  0  0  0
  156.2234  135.4923  163.7761 C   0  0  0  0  0  0  0  0  0  0  0  0
  153.7486  141.8938  160.2868 C   0  0  0  0  0  0  0  0  0  0  0  0
  153.0178  142.7359  159.5263 N   0  0  0  0  0  0  0  0  0  0  0  0
  149.5044  144.5044  160.1128 H   0  0  0  0  0  0  0  0  0  0  0  0
  149.8632  145.8723  159.0630 H   0  0  0  0  0  0  0  0  0  0  0  0
  150.5692  145.8058  160.6745 H   0  0  0  0  0  0  0  0  0  0  0  0
  151.9256  143.7660  157.3656 H   0  0  0  0  0  0  0  0  0  0  0  0
  152.8604  145.1733  157.8945 H   0  0  0  0  0  0  0  0  0  0  0  0
  151.1850  145.3631  157.3796 H   0  0  0  0  0  0  0  0  0  0  0  0
  151.3802  144.3530  162.0267 H   0  0  0  0  0  0  0  0  0  0  0  0
  152.7200  142.8047  163.4016 H   0  0  0  0  0  0  0  0  0  0  0  0
  154.5684  141.2995  163.4784 H   0  0  0  0  0  0  0  0  0  0  0  0
  155.5622  139.7476  164.1419 H   0  0  0  0  0  0  0  0  0  0  0  0
  156.5987  137.7390  162.2005 H   0  0  0  0  0  0  0  0  0  0  0  0
  157.3274  138.1819  163.7241 H   0  0  0  0  0  0  0  0  0  0  0  0
  155.5058  137.1045  164.9950 H   0  0  0  0  0  0  0  0  0  0  0  0
  153.4845  137.3886  163.7028 H   0  0  0  0  0  0  0  0  0  0  0  0
  154.2298  136.6416  162.2838 H   0  0  0  0  0  0  0  0  0  0  0  0
  153.5179  135.2958  164.9147 H   0  0  0  0  0  0  0  0  0  0  0  0
  153.1713  134.7218  163.2811 H   0  0  0  0  0  0  0  0  0  0  0  0
  156.6536  135.3689  162.7814 H   0  0  0  0  0  0  0  0  0  0  0  0
  157.0096  135.3065  164.5085 H   0  0  0  0  0  0  0  0  0  0  0  0
  154.3700  141.2112  159.7293 H   0  0  0  0  0  0  0  0  0  0  0  0
  1  2  1  0  0  0  0
  1 20  1  0  0  0  0
  1 21  1  0  0  0  0
  1 22  1  0  0  0  0
  2  3  1  0  0  0  0
  2  4  1  0  0  0  0
  3 23  1  0  0  0  0
  3 24  1  0  0  0  0
  3 25  1  0  0  0  0
  4 19  1  0  0  0  0
  4  5  2  0  0  0  0
  5  6  1  0  0  0  0
  5 26  1  0  0  0  0
  6  7  2  0  0  0  0
  6 27  1  0  0  0  0
  7  8  1  0  0  0  0
  7 18  1  0  0  0  0
  8  9  1  0  0  0  0
  8 28  1  0  0  0  0
  9 10  2  0  0  0  0
  9 11  1  0  0  0  0
 11 12  1  0  0  0  0
 11 29  1  0  0  0  0
 12 13  1  0  0  0  0
 12 30  1  0  0  0  0
 12 31  1  0  0  0  0
 13 17  1  0  0  0  0
 13 14  1  0  0  0  0
 13 32  1  0  0  0  0
 14 15  1  0  0  0  0
 14 33  1  0  0  0  0
 14 34  1  0  0  0  0
 15 16  1  0  0  0  0
 15 35  1  0  0  0  0
 15 36  1  0  0  0  0
 16 17  1  0  0  0  0
 17 37  1  0  0  0  0
 17 38  1  0  0  0  0
 18 19  2  0  0  0  0
 18 39  1  0  0  0  0
M  END
> <s_m_source_file>
AV-unprocessed.smi

> <i_m_source_file_index>
1392

> <i_lp_mmshare_version>
43012

> <i_f3d_flags>
0

> <s_epik_input>
W0NIM11OKFtDSDNdKWMxW2NIXVtjSF1jKFtjSF1uMSlbTkhdQyg9TylbTkhdW0NIMl1bQ0BASF0yW0NIMl1bQ0gyXU9bQ0gyXTI=

> <s_epik_cmdline>
J2VwaWtfcHl0aG9uJywgJy1waCcsICc3LjAnLCAnLXRuJywgJzgnLCAnLW1hJywgJzIwMCcsICctbWV0YWxfYmluZGluZycsICctaW1hZScsICc8aW5maWxlLm1hZT4nLCAnLW9tYWUnLCAnPG91dGZpbGUubWFlPic=

> <r_lp_tautomer_probability>
1

> <r_epik_Ionization_Penalty>
0.612298

> <r_epik_Ionization_Penalty_Charging>
0

> <r_epik_Ionization_Penalty_Neutral>
0.612298

> <r_epik_State_Penalty>
0.626495

> <r_epik_Charging_Adjusted_Penalty>
0.626495

> <i_epik_Tot_Q>
0

> <i_epik_Tot_abs_Q>
0

> <r_epik_Metal_State_Penalty>
0.304101

> <b_epik_Metal_Only>
0

> <s_lp_Force_Field>
OPLS_2005

> <r_lp_Energy>
23.0629

> <b_lp_Chiralities_Consistent>
1

> <s_lp_Variant>
AV-unprocessed.smi:1392-4

> <Gold.Version>
5.8.1

> <Gold.Id.Protein>
6NUR|6NUR_protein|mol2

> <Gold.PLP.Fitness>
44.2727

> <Gold.PLP.PLP>
-44.8475

> <Gold.PLP.part.hbond>
-1.0000

> <Gold.PLP.part.metal>
0.0000

> <Gold.PLP.part.buried>
-5.6419

> <Gold.PLP.part.nonpolar>
-36.3061

> <Gold.PLP.part.repulsive>
0.0719

> <Gold.PLP.ligand.clash>
0.0000

> <Gold.PLP.ligand.torsion>
0.2996

> <Gold.PLP.Chemscore.Hbond>
0.0000

> <Gold.PLP.Chemscore.CHOScore>
0.0000

> <Gold.PLP.Chemscore.Metal>
0.0000

> <Gold.PLP.Chemscore.Internal.Correction>
0.0244

> <Gold.Rescore>
     Score         DG    S(hbond)    S(metal)    S(lipo)     H(rot)  DE(clash)    DE(int)     intcor
     12.67     -14.05       0.00        0.00      99.82       1.21       0.03       1.35       ----

> <Gold.Chemscore.Fitness>
12.6709

> <Gold.Chemscore.DG>
-14.0501

> <Gold.Chemscore.ZeroCoef>
-5.4800

> <Gold.Chemscore.Hbond>
0.0000

> <Gold.Chemscore.Metal>
0.0000

> <Gold.Chemscore.Lipo>
99.8244

> <Gold.Chemscore.Internal_Hbond>
0.0000

> <Gold.Chemscore.DEClash>
0.0253

> <Gold.Chemscore.DEInternal>
1.3539

> <Gold.Chemscore.Rot>
1.2146

> <Gold.Chemscore.Internal.Correction>
   9.000000E+99

> <Gold.Chemscore.Hbond.Weighted>
-0.0000

> <Gold.Chemscore.Metal.Weighted>
-0.0000

> <Gold.Chemscore.Lipo.Weighted>
-11.6795

> <Gold.Chemscore.Internal_Hbond.Weighted>
0.0000

> <Gold.Chemscore.DEClash.Weighted>
0.0253

> <Gold.Chemscore.DEInternal.Weighted>
1.3539

> <Gold.Chemscore.Rot.Weighted>
3.1093

> <Gold.Chemscore.Internal.Correction.Weighted>
   9.000000E+99

> <Gold.Protein.RotatedTorsions>
[ 6907 6896 6895 6894 ] final  -25.26 input  -60.11 | X-H torsion
[ 7974 7965 7964 7962 ] final  163.82 input  175.53 | X-H torsion
[ 8008 7997 7996 7995 ] final  141.70 input   59.86 | X-H torsion
[ 10167 10162 10161 10158 ] final -166.84 input  -65.29 | X-H torsion
[ 10718 10713 10712 10709 ] final  -42.24 input   66.30 | X-H torsion
[ 10763 10752 10751 10750 ] final   90.52 input  -60.55 | X-H torsion
[ 11005 11000 10999 10996 ] final  -43.64 input  -57.11 | X-H torsion

> <Gold.Protein.ActiveResidues>
 VAL166  LYS551  ARG553  GLY616  TRP617  ASP618  TYR619  PRO620  LYS621  CYS622 
 ASP623  PHE694  ASN695  SER759  ASP760  ASP761  ALA762  ILE779  LEU786  VAL792 
 PHE793  MET794  SER795  GLU796  ALA797  LYS798  CYS799  TRP800  GLU811  SER814 

> <Gold.Protein.RotatedAtoms>
  151.1777  135.0347  159.8778 H   0  0  0  0  0  0  0  0  0  0  0  0  # atno 6907 bound_to 6896
  152.5446  134.1098  159.8364 H   0  0  0  0  0  0  0  0  0  0  0  0  # atno 6908 bound_to 6896
  151.1211  133.5056  159.2634 H   0  0  0  0  0  0  0  0  0  0  0  0  # atno 6909 bound_to 6896
  144.7572  139.8238  143.6345 H   0  0  0  0  0  0  0  0  0  0  0  0  # atno 7974 bound_to 7965
  156.2961  140.2308  156.4608 H   0  0  0  0  0  0  0  0  0  0  0  0  # atno 8008 bound_to 7997
  154.8020  140.0448  157.1300 H   0  0  0  0  0  0  0  0  0  0  0  0  # atno 8009 bound_to 7997
  154.9523  140.3043  155.5073 H   0  0  0  0  0  0  0  0  0  0  0  0  # atno 8010 bound_to 7997
  139.6088  144.0857  152.1821 H   0  0  0  0  0  0  0  0  0  0  0  0  # atno 10167 bound_to 10162
  156.2618  130.4197  149.8534 H   0  0  0  0  0  0  0  0  0  0  0  0  # atno 10718 bound_to 10713
  153.1985  135.4431  155.0237 H   0  0  0  0  0  0  0  0  0  0  0  0  # atno 10763 bound_to 10752
  154.8133  135.3304  154.7249 H   0  0  0  0  0  0  0  0  0  0  0  0  # atno 10764 bound_to 10752
  153.7696  135.6985  153.4964 H   0  0  0  0  0  0  0  0  0  0  0  0  # atno 10765 bound_to 10752
  141.0397  133.6785  156.2761 H   0  0  0  0  0  0  0  0  0  0  0  0  # atno 11005 bound_to 11000
  146.1596  139.4706  142.9997 LP  0  0  0  0  0  0  0  0  0  0  0  0  # atno 17320 bound_to 7965
  145.6739  141.0209  143.1643 LP  0  0  0  0  0  0  0  0  0  0  0  0  # atno 17321 bound_to 7965
  140.0471  144.5962  150.7365 LP  0  0  0  0  0  0  0  0  0  0  0  0  # atno 17342 bound_to 10162
  140.7304  143.2683  151.3971 LP  0  0  0  0  0  0  0  0  0  0  0  0  # atno 17343 bound_to 10162
  156.6047  130.8561  151.3440 LP  0  0  0  0  0  0  0  0  0  0  0  0  # atno 17370 bound_to 10713
  157.7253  130.9614  150.1609 LP  0  0  0  0  0  0  0  0  0  0  0  0  # atno 17371 bound_to 10713
  140.6257  134.5316  157.5553 LP  0  0  0  0  0  0  0  0  0  0  0  0  # atno 17394 bound_to 11000
  139.9267  134.8043  156.1049 LP  0  0  0  0  0  0  0  0  0  0  0  0  # atno 17395 bound_to 11000

$$$$
