AV-unprocessed.smi:831|AV-procd|sdf|3874|dock9
  -GOLD-   22720 1333D 1   1.00000     0.00000
 Structure written by MMmdl.
 50 51  0  0  0  0  0  0  0  0  1 V2000
  142.5000  137.4725  153.4718 C   0  0  0  0  0  0  0  0  0  0  0  0
  143.4161  137.0174  154.6167 C   0  0  0  0  0  0  0  0  0  0  0  0
  142.6751  137.0679  155.9621 C   0  0  0  0  0  0  0  0  0  0  0  0
  144.7071  137.8506  154.6564 C   0  0  0  0  0  0  0  0  0  0  0  0
  145.3482  137.7740  153.3879 O   0  0  0  0  0  0  0  0  0  0  0  0
  146.4129  138.6985  153.1886 C   0  0  2  0  0  0  0  0  0  0  0  0
  146.6949  138.7457  151.6801 C   0  0  0  0  0  0  0  0  0  0  0  0
  147.6620  138.2293  153.9641 C   0  0  0  0  0  0  0  0  0  0  0  0
  147.5377  137.3787  154.8435 O   0  0  0  0  0  0  0  0  0  0  0  0
  148.8650  138.7639  153.6970 N   0  0  0  0  0  0  0  0  0  0  0  0
  150.1385  138.4388  154.3300 C   0  0  0  0  0  0  0  0  0  0  0  0
  150.6041  139.4637  155.3542 C   0  0  0  0  0  0  0  0  0  0  0  0
  149.8031  140.5523  155.7623 C   0  0  0  0  0  0  0  0  0  0  0  0
  150.3056  141.4494  156.7235 C   0  0  0  0  0  0  0  0  0  0  0  0
  151.5981  141.2377  157.2588 C   0  0  0  0  0  0  0  0  0  0  0  0
  152.1210  142.1282  158.2213 N   0  0  0  0  0  0  0  0  0  0  0  0
  151.4287  143.3983  158.4315 C   0  0  0  0  0  0  0  0  0  0  0  0
  152.2936  144.3439  159.2821 C   0  0  0  0  0  0  0  0  0  0  0  0
  152.6465  143.7022  160.5029 O   0  0  0  0  0  0  0  0  0  0  0  0
  153.4150  142.5250  160.2791 C   0  0  0  0  0  0  0  0  0  0  0  0
  152.5940  141.5144  159.4596 C   0  0  0  0  0  0  0  0  0  0  0  0
  152.3594  140.1834  156.8750 N   0  0  0  0  0  0  0  0  0  0  0  0
  151.8735  139.3274  155.9515 C   0  0  0  0  0  0  0  0  0  0  0  0
  142.1864  138.5086  153.6027 H   0  0  0  0  0  0  0  0  0  0  0  0
  141.6019  136.8565  153.4191 H   0  0  0  0  0  0  0  0  0  0  0  0
  143.0059  137.3965  152.5089 H   0  0  0  0  0  0  0  0  0  0  0  0
  143.6919  135.9800  154.4227 H   0  0  0  0  0  0  0  0  0  0  0  0
  142.3808  138.0870  156.2144 H   0  0  0  0  0  0  0  0  0  0  0  0
  143.2999  136.6937  156.7735 H   0  0  0  0  0  0  0  0  0  0  0  0
  141.7721  136.4576  155.9370 H   0  0  0  0  0  0  0  0  0  0  0  0
  144.4746  138.8942  154.8739 H   0  0  0  0  0  0  0  0  0  0  0  0
  145.3539  137.4899  155.4570 H   0  0  0  0  0  0  0  0  0  0  0  0
  146.0778  139.6876  153.4984 H   0  0  0  0  0  0  0  0  0  0  0  0
  147.5046  139.4392  151.4508 H   0  0  0  0  0  0  0  0  0  0  0  0
  145.8124  139.0786  151.1330 H   0  0  0  0  0  0  0  0  0  0  0  0
  146.9718  137.7650  151.2910 H   0  0  0  0  0  0  0  0  0  0  0  0
  148.8935  139.4859  152.9920 H   0  0  0  0  0  0  0  0  0  0  0  0
  150.0581  137.4762  154.8368 H   0  0  0  0  0  0  0  0  0  0  0  0
  150.9043  138.3403  153.5589 H   0  0  0  0  0  0  0  0  0  0  0  0
  148.8132  140.7068  155.3593 H   0  0  0  0  0  0  0  0  0  0  0  0
  149.6903  142.2750  157.0490 H   0  0  0  0  0  0  0  0  0  0  0  0
  151.2097  143.8724  157.4738 H   0  0  0  0  0  0  0  0  0  0  0  0
  150.4766  143.2132  158.9305 H   0  0  0  0  0  0  0  0  0  0  0  0
  153.1935  144.6399  158.7405 H   0  0  0  0  0  0  0  0  0  0  0  0
  151.7426  145.2572  159.5070 H   0  0  0  0  0  0  0  0  0  0  0  0
  154.3453  142.7764  159.7671 H   0  0  0  0  0  0  0  0  0  0  0  0
  153.6895  142.0926  161.2416 H   0  0  0  0  0  0  0  0  0  0  0  0
  151.7310  141.1807  160.0374 H   0  0  0  0  0  0  0  0  0  0  0  0
  153.2055  140.6341  159.2675 H   0  0  0  0  0  0  0  0  0  0  0  0
  152.5201  138.5050  155.6825 H   0  0  0  0  0  0  0  0  0  0  0  0
  1  2  1  0  0  0  0
  1 24  1  0  0  0  0
  1 25  1  0  0  0  0
  1 26  1  0  0  0  0
  2  3  1  0  0  0  0
  2  4  1  0  0  0  0
  2 27  1  0  0  0  0
  3 28  1  0  0  0  0
  3 29  1  0  0  0  0
  3 30  1  0  0  0  0
  4  5  1  0  0  0  0
  4 31  1  0  0  0  0
  4 32  1  0  0  0  0
  5  6  1  0  0  0  0
  6  7  1  0  0  0  0
  6  8  1  0  0  0  0
  6 33  1  0  0  0  0
  7 34  1  0  0  0  0
  7 35  1  0  0  0  0
  7 36  1  0  0  0  0
  8  9  2  0  0  0  0
  8 10  1  0  0  0  0
 10 11  1  0  0  0  0
 10 37  1  0  0  0  0
 11 12  1  0  0  0  0
 11 38  1  0  0  0  0
 11 39  1  0  0  0  0
 12 23  1  0  0  0  0
 12 13  2  0  0  0  0
 13 14  1  0  0  0  0
 13 40  1  0  0  0  0
 14 15  2  0  0  0  0
 14 41  1  0  0  0  0
 15 16  1  0  0  0  0
 15 22  1  0  0  0  0
 16 21  1  0  0  0  0
 16 17  1  0  0  0  0
 17 18  1  0  0  0  0
 17 42  1  0  0  0  0
 17 43  1  0  0  0  0
 18 19  1  0  0  0  0
 18 44  1  0  0  0  0
 18 45  1  0  0  0  0
 19 20  1  0  0  0  0
 20 21  1  0  0  0  0
 20 46  1  0  0  0  0
 20 47  1  0  0  0  0
 21 48  1  0  0  0  0
 21 49  1  0  0  0  0
 22 23  2  0  0  0  0
 23 50  1  0  0  0  0
M  END
> <s_m_source_file>
AV-unprocessed.smi

> <i_m_source_file_index>
831

> <i_lp_mmshare_version>
43012

> <i_f3d_flags>
0

> <s_epik_input>
W0NIM11bQ0hdKFtDSDNdKVtDSDJdT1tDQEhdKFtDSDNdKUMoPU8pW05IXVtDSDJdYzFbY0hdW2NIXWMobltjSF0xKU4yW0NIMl1bQ0gyXU9bQ0gyXVtDSDJdMg==

> <s_epik_cmdline>
J2VwaWtfcHl0aG9uJywgJy1waCcsICc3LjAnLCAnLXRuJywgJzgnLCAnLW1hJywgJzIwMCcsICctbWV0YWxfYmluZGluZycsICctaW1hZScsICc8aW5maWxlLm1hZT4nLCAnLW9tYWUnLCAnPG91dGZpbGUubWFlPic=

> <r_lp_tautomer_probability>
1

> <r_epik_Ionization_Penalty>
0.00456501

> <r_epik_Ionization_Penalty_Charging>
0

> <r_epik_Ionization_Penalty_Neutral>
0.00456501

> <r_epik_State_Penalty>
0.00329791

> <r_epik_Charging_Adjusted_Penalty>
0.00329791

> <i_epik_Tot_Q>
0

> <i_epik_Tot_abs_Q>
0

> <r_epik_Metal_State_Penalty>
-0

> <b_epik_Metal_Only>
0

> <s_lp_Force_Field>
OPLS_2005

> <r_lp_Energy>
23.9744

> <b_lp_Chiralities_Consistent>
1

> <s_lp_Variant>
AV-unprocessed.smi:831-1

> <Gold.Version>
5.8.1

> <Gold.Id.Protein>
6NUR|6NUR_protein|mol2

> <Gold.PLP.Fitness>
43.2934

> <Gold.PLP.PLP>
-38.9421

> <Gold.PLP.part.hbond>
-2.9078

> <Gold.PLP.part.metal>
0.0000

> <Gold.PLP.part.buried>
-0.5146

> <Gold.PLP.part.nonpolar>
-36.0507

> <Gold.PLP.part.repulsive>
0.4400

> <Gold.PLP.ligand.clash>
0.0000

> <Gold.PLP.ligand.torsion>
0.8521

> <Gold.PLP.Chemscore.Hbond>
1.8800

> <Gold.PLP.Chemscore.CHOScore>
0.0000

> <Gold.PLP.Chemscore.Metal>
0.0000

> <Gold.Chemscore.Hbonds>
donor molecule, donor type, donor heavy atom, donor atom, acceptor molecule, acceptor atom, score
      L1  H    10    37       P1  7957  0.89
      P1  H  7997  8008       L1    22  0.99

> <Gold.PLP.Chemscore.Internal.Correction>
0.4153

> <Gold.Rescore>
     Score         DG    S(hbond)    S(metal)    S(lipo)     H(rot)  DE(clash)    DE(int)     intcor
     15.94     -17.78       1.70        0.00      98.56       1.92       0.04       1.81       ----

> <Gold.Chemscore.Fitness>
15.9382

> <Gold.Chemscore.DG>
-17.7793

> <Gold.Chemscore.ZeroCoef>
-5.4800

> <Gold.Chemscore.Hbond>
1.6984

> <Gold.Chemscore.Metal>
0.0000

> <Gold.Chemscore.Lipo>
98.5602

> <Gold.Chemscore.Internal_Hbond>
0.0000

> <Gold.Chemscore.DEClash>
0.0357

> <Gold.Chemscore.DEInternal>
1.8054

> <Gold.Chemscore.Rot>
1.9159

> <Gold.Chemscore.Internal.Correction>
   9.000000E+99

> <Gold.Chemscore.Hbonds>
donor molecule, donor type, donor heavy atom, donor atom, acceptor molecule, acceptor atom, score
      L1  H    10    37       P1  7957  0.82
      P1  H  7997  8008       L1    22  0.23

> <Gold.Chemscore.Hbond.Weighted>
-5.6725

> <Gold.Chemscore.Metal.Weighted>
-0.0000

> <Gold.Chemscore.Lipo.Weighted>
-11.5315

> <Gold.Chemscore.Internal_Hbond.Weighted>
0.0000

> <Gold.Chemscore.DEClash.Weighted>
0.0357

> <Gold.Chemscore.DEInternal.Weighted>
1.8054

> <Gold.Chemscore.Rot.Weighted>
4.9047

> <Gold.Chemscore.Internal.Correction.Weighted>
   9.000000E+99

> <Gold.Protein.RotatedTorsions>
[ 6907 6896 6895 6894 ] final  -41.25 input  -60.11 | X-H torsion
[ 7974 7965 7964 7962 ] final  -78.65 input  175.53 | X-H torsion
[ 8008 7997 7996 7995 ] final  -43.87 input   59.86 | X-H torsion
[ 10167 10162 10161 10158 ] final  -96.55 input  -65.29 | X-H torsion
[ 10718 10713 10712 10709 ] final -169.19 input   66.30 | X-H torsion
[ 10763 10752 10751 10750 ] final   82.60 input  -60.55 | X-H torsion
[ 11005 11000 10999 10996 ] final   -9.32 input  -57.11 | X-H torsion

> <Gold.Protein.ActiveResidues>
 VAL166  LYS551  ARG553  GLY616  TRP617  ASP618  TYR619  PRO620  LYS621  CYS622 
 ASP623  PHE694  ASN695  SER759  ASP760  ASP761  ALA762  ILE779  LEU786  VAL792 
 PHE793  MET794  SER795  GLU796  ALA797  LYS798  CYS799  TRP800  GLU811  SER814 

> <Gold.Protein.RotatedAtoms>
  150.9690  134.9066  159.7776 H   0  0  0  0  0  0  0  0  0  0  0  0  # atno 6907 bound_to 6896
  152.5183  134.3567  159.9280 H   0  0  0  0  0  0  0  0  0  0  0  0  # atno 6908 bound_to 6896
  151.3577  133.3860  159.2721 H   0  0  0  0  0  0  0  0  0  0  0  0  # atno 6909 bound_to 6896
  145.5836  140.9443  143.1330 H   0  0  0  0  0  0  0  0  0  0  0  0  # atno 7974 bound_to 7965
  154.3997  140.1436  156.3590 H   0  0  0  0  0  0  0  0  0  0  0  0  # atno 8008 bound_to 7997
  155.8199  140.3470  155.5487 H   0  0  0  0  0  0  0  0  0  0  0  0  # atno 8009 bound_to 7997
  155.8299  140.0910  157.1789 H   0  0  0  0  0  0  0  0  0  0  0  0  # atno 8010 bound_to 7997
  140.2927  143.3211  152.0329 H   0  0  0  0  0  0  0  0  0  0  0  0  # atno 10167 bound_to 10162
  156.7079  130.9222  151.3086 H   0  0  0  0  0  0  0  0  0  0  0  0  # atno 10718 bound_to 10713
  153.1217  135.4722  154.9206 H   0  0  0  0  0  0  0  0  0  0  0  0  # atno 10763 bound_to 10752
  154.7582  135.3124  154.8432 H   0  0  0  0  0  0  0  0  0  0  0  0  # atno 10764 bound_to 10752
  153.8995  135.6876  153.4810 H   0  0  0  0  0  0  0  0  0  0  0  0  # atno 10765 bound_to 10752
  140.7328  133.8734  155.8906 H   0  0  0  0  0  0  0  0  0  0  0  0  # atno 11005 bound_to 11000
  144.7383  139.7523  143.7321 LP  0  0  0  0  0  0  0  0  0  0  0  0  # atno 17320 bound_to 7965
  146.1698  139.4844  142.9935 LP  0  0  0  0  0  0  0  0  0  0  0  0  # atno 17321 bound_to 7965
  139.4934  144.6513  151.6669 LP  0  0  0  0  0  0  0  0  0  0  0  0  # atno 17342 bound_to 10162
  140.5719  144.0095  150.6221 LP  0  0  0  0  0  0  0  0  0  0  0  0  # atno 17343 bound_to 10162
  157.6947  130.9270  150.0612 LP  0  0  0  0  0  0  0  0  0  0  0  0  # atno 17370 bound_to 10713
  156.1682  130.3645  149.9203 LP  0  0  0  0  0  0  0  0  0  0  0  0  # atno 17371 bound_to 10713
  140.9905  134.1284  157.4412 LP  0  0  0  0  0  0  0  0  0  0  0  0  # atno 17394 bound_to 11000
  139.8822  135.0039  156.6215 LP  0  0  0  0  0  0  0  0  0  0  0  0  # atno 17395 bound_to 11000

$$$$
