AV-unprocessed.smi:243|AV-procd|sdf|1856|dock8
  -GOLD-   2262020483D 1   1.00000     0.00000
 Structure written by MMmdl.
 58 61  0  0  0  0  0  0  0  0  2 V2000
  151.7170  144.6512  158.6563 C   0  0  0  0  0  0  0  0  0  0  0  0
  150.4030  143.9663  159.0605 C   0  0  0  0  0  0  0  0  0  0  0  0
  149.7693  143.2326  157.9355 N   0  3  2  0  0  0  0  0  0  0  0  0
  148.4283  142.7087  158.2964 C   0  0  0  0  0  0  0  0  0  0  0  0
  147.7238  142.1135  157.0700 C   0  0  0  0  0  0  0  0  0  0  0  0
  148.5809  141.0082  156.4150 C   0  0  1  0  0  0  0  0  0  0  0  0
  147.9101  140.3653  155.2741 N   0  0  0  0  0  0  0  0  0  0  0  0
  148.4240  140.6270  153.9346 C   0  0  0  0  0  0  0  0  0  0  0  0
  147.2771  139.1687  155.3865 C   0  0  0  0  0  0  0  0  0  0  0  0
  147.1743  138.5560  156.5945 N   0  0  0  0  0  0  0  0  0  0  0  0
  146.5601  137.3741  156.7025 C   0  0  0  0  0  0  0  0  0  0  0  0
  145.9871  136.6414  155.7463 N   0  0  0  0  0  0  0  0  0  0  0  0
  146.0903  137.2484  154.5295 C   0  0  0  0  0  0  0  0  0  0  0  0
  146.7140  138.4999  154.2638 C   0  0  0  0  0  0  0  0  0  0  0  0
  146.6092  138.8028  152.9119 N   0  0  0  0  0  0  0  0  0  0  0  0
  145.9636  137.7874  152.4067 C   0  0  0  0  0  0  0  0  0  0  0  0
  145.6208  136.8025  153.3060 N   0  0  0  0  0  0  0  0  0  0  0  0
  144.9004  135.5705  153.0217 C   0  0  0  0  0  0  0  0  0  0  0  0
  145.7811  134.4671  152.3885 C   0  0  1  0  0  0  0  0  0  0  0  0
  147.0719  134.5092  152.9723 O   0  0  0  0  0  0  0  0  0  0  0  0
  145.2103  133.0690  152.5901 C   0  0  0  0  0  0  0  0  0  0  0  0
  145.7317  132.3141  151.3749 C   0  0  0  0  0  0  0  0  0  0  0  0
  145.6155  133.2712  150.3360 O   0  0  0  0  0  0  0  0  0  0  0  0
  145.9344  134.5591  150.8559 C   0  0  0  0  0  0  0  0  0  0  0  0
  150.0106  141.5300  156.1082 C   0  0  2  0  0  0  0  0  0  0  0  0
  150.9328  140.4209  155.5704 C   0  0  0  0  0  0  0  0  0  0  0  0
  150.6306  142.1593  157.3733 C   0  0  0  0  0  0  0  0  0  0  0  0
  152.0944  145.2661  159.4738 H   0  0  0  0  0  0  0  0  0  0  0  0
  151.5739  145.3027  157.7937 H   0  0  0  0  0  0  0  0  0  0  0  0
  152.4974  143.9319  158.4108 H   0  0  0  0  0  0  0  0  0  0  0  0
  150.5623  143.2940  159.9047 H   0  0  0  0  0  0  0  0  0  0  0  0
  149.7213  144.7430  159.4095 H   0  0  0  0  0  0  0  0  0  0  0  0
  148.5267  141.9557  159.0802 H   0  0  0  0  0  0  0  0  0  0  0  0
  147.8128  143.5119  158.7034 H   0  0  0  0  0  0  0  0  0  0  0  0
  146.7558  141.7117  157.3710 H   0  0  0  0  0  0  0  0  0  0  0  0
  147.5148  142.9174  156.3655 H   0  0  0  0  0  0  0  0  0  0  0  0
  148.6972  140.2199  157.1604 H   0  0  0  0  0  0  0  0  0  0  0  0
  148.9246  139.7462  153.5299 H   0  0  0  0  0  0  0  0  0  0  0  0
  149.1432  141.4461  153.9416 H   0  0  0  0  0  0  0  0  0  0  0  0
  147.6157  140.9046  153.2583 H   0  0  0  0  0  0  0  0  0  0  0  0
  146.5230  136.9545  157.6969 H   0  0  0  0  0  0  0  0  0  0  0  0
  145.7168  137.7317  151.3566 H   0  0  0  0  0  0  0  0  0  0  0  0
  144.4584  135.2105  153.9518 H   0  0  0  0  0  0  0  0  0  0  0  0
  144.0659  135.8106  152.3616 H   0  0  0  0  0  0  0  0  0  0  0  0
  147.5894  135.1512  152.5109 H   0  0  0  0  0  0  0  0  0  0  0  0
  145.4961  132.6095  153.5373 H   0  0  0  0  0  0  0  0  0  0  0  0
  144.1205  133.0962  152.5500 H   0  0  0  0  0  0  0  0  0  0  0  0
  146.7791  132.0371  151.5044 H   0  0  0  0  0  0  0  0  0  0  0  0
  145.1592  131.4120  151.1584 H   0  0  0  0  0  0  0  0  0  0  0  0
  145.2455  135.2775  150.4132 H   0  0  0  0  0  0  0  0  0  0  0  0
  146.9434  134.8468  150.5567 H   0  0  0  0  0  0  0  0  0  0  0  0
  149.9609  142.3154  155.3544 H   0  0  0  0  0  0  0  0  0  0  0  0
  151.0182  139.5978  156.2805 H   0  0  0  0  0  0  0  0  0  0  0  0
  151.9366  140.8028  155.3826 H   0  0  0  0  0  0  0  0  0  0  0  0
  150.5655  140.0101  154.6301 H   0  0  0  0  0  0  0  0  0  0  0  0
  151.6095  142.5631  157.1175 H   0  0  0  0  0  0  0  0  0  0  0  0
  150.7973  141.3945  158.1339 H   0  0  0  0  0  0  0  0  0  0  0  0
  149.6205  143.9091  157.2002 H   0  0  0  0  0  0  0  0  0  0  0  0
  1  2  1  0  0  0  0
  1 28  1  0  0  0  0
  1 29  1  0  0  0  0
  1 30  1  0  0  0  0
  2  3  1  0  0  0  0
  2 31  1  0  0  0  0
  2 32  1  0  0  0  0
  3 27  1  0  0  0  0
  3  4  1  0  0  0  0
  3 58  1  0  0  0  0
  4  5  1  0  0  0  0
  4 33  1  0  0  0  0
  4 34  1  0  0  0  0
  5  6  1  0  0  0  0
  5 35  1  0  0  0  0
  5 36  1  0  0  0  0
  6  7  1  0  0  0  0
  6 25  1  0  0  0  0
  6 37  1  0  0  0  0
  7  8  1  0  0  0  0
  7  9  1  0  0  0  0
  8 38  1  0  0  0  0
  8 39  1  0  0  0  0
  8 40  1  0  0  0  0
  9 14  1  0  0  0  0
  9 10  2  0  0  0  0
 10 11  1  0  0  0  0
 11 12  2  0  0  0  0
 11 41  1  0  0  0  0
 12 13  1  0  0  0  0
 13 17  1  0  0  0  0
 13 14  2  0  0  0  0
 14 15  1  0  0  0  0
 15 16  2  0  0  0  0
 16 17  1  0  0  0  0
 16 42  1  0  0  0  0
 17 18  1  0  0  0  0
 18 19  1  0  0  0  0
 18 43  1  0  0  0  0
 18 44  1  0  0  0  0
 19 24  1  0  0  0  0
 19 20  1  0  0  0  0
 19 21  1  0  0  0  0
 20 45  1  0  0  0  0
 21 22  1  0  0  0  0
 21 46  1  0  0  0  0
 21 47  1  0  0  0  0
 22 23  1  0  0  0  0
 22 48  1  0  0  0  0
 22 49  1  0  0  0  0
 23 24  1  0  0  0  0
 24 50  1  0  0  0  0
 24 51  1  0  0  0  0
 25 26  1  0  0  0  0
 25 27  1  0  0  0  0
 25 52  1  0  0  0  0
 26 53  1  0  0  0  0
 26 54  1  0  0  0  0
 26 55  1  0  0  0  0
 27 56  1  0  0  0  0
 27 57  1  0  0  0  0
M  CHG  1   3   1
M  END
> <s_m_source_file>
AV-unprocessed.smi

> <i_m_source_file_index>
243

> <i_lp_mmshare_version>
43012

> <i_f3d_flags>
0

> <s_epik_input>
W0NIM11bQ0gyXU4xW0NIMl1bQ0gyXVtDQEhdKFtDQEBIXShbQ0gzXSlbQ0gyXTEpTihbQ0gzXSljKG5bY0hdbjIpYyhjMjMpbltjSF1uM1tDSDJdW0NAQF00KFtPSF0pW0NIMl1bQ0gyXU9bQ0gyXTQ=

> <s_epik_cmdline>
J2VwaWtfcHl0aG9uJywgJy1waCcsICc3LjAnLCAnLXRuJywgJzgnLCAnLW1hJywgJzIwMCcsICctbWV0YWxfYmluZGluZycsICctaW1hZScsICc8aW5maWxlLm1hZT4nLCAnLW9tYWUnLCAnPG91dGZpbGUubWFlPic=

> <r_lp_tautomer_probability>
1

> <r_epik_Ionization_Penalty>
0.00253099

> <r_epik_Ionization_Penalty_Charging>
0.00137877

> <r_epik_Ionization_Penalty_Neutral>
0.00115221

> <r_epik_State_Penalty>
-0

> <r_epik_Charging_Adjusted_Penalty>
0.00137877

> <i_epik_Tot_Q>
1

> <i_epik_Tot_abs_Q>
1

> <r_epik_Metal_State_Penalty>
-0

> <b_epik_Metal_Only>
0

> <s_lp_Force_Field>
OPLS_2005

> <r_lp_Energy>
45.5206

> <b_lp_Chiralities_Consistent>
1

> <s_lp_Variant>
AV-unprocessed.smi:243-9

> <Gold.Version>
5.8.1

> <Gold.Id.Protein>
6NUR|6NUR_protein|mol2

> <Gold.PLP.Fitness>
43.6251

> <Gold.PLP.PLP>
-32.9882

> <Gold.PLP.part.hbond>
-2.0000

> <Gold.PLP.part.metal>
0.0000

> <Gold.PLP.part.buried>
-3.6643

> <Gold.PLP.part.nonpolar>
-27.9123

> <Gold.PLP.part.repulsive>
0.8009

> <Gold.PLP.ligand.clash>
0.0368

> <Gold.PLP.ligand.torsion>
1.1467

> <Gold.PLP.Chemscore.Hbond>
3.0000

> <Gold.PLP.Chemscore.CHOScore>
1.0000

> <Gold.PLP.Chemscore.Metal>
0.0000

> <Gold.Chemscore.Hbonds>
donor molecule, donor type, donor heavy atom, donor atom, acceptor molecule, acceptor atom, score
      L1  H     3    58       P1  8028  2.00
      L1  H    20    45       P1  7948  1.00
      L1  C    16    42       P1 10171  0.95

> <Gold.PLP.Chemscore.Internal.Correction>
0.9671

> <Gold.Rescore>
     Score         DG    S(hbond)    S(metal)    S(lipo)     H(rot)  DE(clash)    DE(int)     intcor
     12.04     -15.70       1.84        0.00      83.67       2.24       0.09       3.56       ----

> <Gold.Chemscore.Fitness>
12.0429

> <Gold.Chemscore.DG>
-15.7000

> <Gold.Chemscore.ZeroCoef>
-5.4800

> <Gold.Chemscore.Hbond>
1.8441

> <Gold.Chemscore.Metal>
0.0000

> <Gold.Chemscore.Lipo>
83.6744

> <Gold.Chemscore.Internal_Hbond>
0.0000

> <Gold.Chemscore.DEClash>
0.0932

> <Gold.Chemscore.DEInternal>
3.5639

> <Gold.Chemscore.Rot>
2.2379

> <Gold.Chemscore.Internal.Correction>
   9.000000E+99

> <Gold.Chemscore.Hbonds>
donor molecule, donor type, donor heavy atom, donor atom, acceptor molecule, acceptor atom, score
      L1  H     3    58       P1  8028  0.70
      L1  H    20    45       P1  7948  0.99

> <Gold.Chemscore.Hbond.Weighted>
-6.1592

> <Gold.Chemscore.Metal.Weighted>
-0.0000

> <Gold.Chemscore.Lipo.Weighted>
-9.7899

> <Gold.Chemscore.Internal_Hbond.Weighted>
0.0000

> <Gold.Chemscore.DEClash.Weighted>
0.0932

> <Gold.Chemscore.DEInternal.Weighted>
3.5639

> <Gold.Chemscore.Rot.Weighted>
5.7291

> <Gold.Chemscore.Internal.Correction.Weighted>
   9.000000E+99

> <Gold.Protein.RotatedTorsions>
[ 6907 6896 6895 6894 ] final -112.16 input  -60.11 | X-H torsion
[ 7974 7965 7964 7962 ] final  -30.14 input  175.53 | X-H torsion
[ 8008 7997 7996 7995 ] final  179.54 input   59.86 | X-H torsion
[ 10167 10162 10161 10158 ] final -110.81 input  -65.29 | X-H torsion
[ 10718 10713 10712 10709 ] final  106.66 input   66.30 | X-H torsion
[ 10763 10752 10751 10750 ] final -128.93 input  -60.55 | X-H torsion
[ 11005 11000 10999 10996 ] final   63.57 input  -57.11 | X-H torsion

> <Gold.Protein.ActiveResidues>
 VAL166  LYS551  ARG553  GLY616  TRP617  ASP618  TYR619  PRO620  LYS621  CYS622 
 ASP623  PHE694  ASN695  SER759  ASP760  ASP761  ALA762  ILE779  LEU786  VAL792 
 PHE793  MET794  SER795  GLU796  ALA797  LYS798  CYS799  TRP800  GLU811  SER814 

> <Gold.Protein.RotatedAtoms>
  150.7739  133.9130  159.3374 H   0  0  0  0  0  0  0  0  0  0  0  0  # atno 6907 bound_to 6896
  151.7009  135.0928  160.0260 H   0  0  0  0  0  0  0  0  0  0  0  0  # atno 6908 bound_to 6896
  152.3768  133.6454  159.6165 H   0  0  0  0  0  0  0  0  0  0  0  0  # atno 6909 bound_to 6896
  146.1165  140.5502  142.8754 H   0  0  0  0  0  0  0  0  0  0  0  0  # atno 7974 bound_to 7965
  156.0422  140.1306  157.0143 H   0  0  0  0  0  0  0  0  0  0  0  0  # atno 8008 bound_to 7997
  154.4396  140.1028  156.6324 H   0  0  0  0  0  0  0  0  0  0  0  0  # atno 8009 bound_to 7997
  155.5650  140.3465  155.4503 H   0  0  0  0  0  0  0  0  0  0  0  0  # atno 8010 bound_to 7997
  140.1404  143.4284  152.1566 H   0  0  0  0  0  0  0  0  0  0  0  0  # atno 10167 bound_to 10162
  157.6659  131.0855  150.6040 H   0  0  0  0  0  0  0  0  0  0  0  0  # atno 10718 bound_to 10713
  154.8757  135.3912  154.3837 H   0  0  0  0  0  0  0  0  0  0  0  0  # atno 10763 bound_to 10752
  153.4581  135.7029  153.6072 H   0  0  0  0  0  0  0  0  0  0  0  0  # atno 10764 bound_to 10752
  153.4583  135.3818  155.2292 H   0  0  0  0  0  0  0  0  0  0  0  0  # atno 10765 bound_to 10752
  140.0016  134.6434  155.9922 H   0  0  0  0  0  0  0  0  0  0  0  0  # atno 11005 bound_to 11000
  144.7557  140.5302  143.6770 LP  0  0  0  0  0  0  0  0  0  0  0  0  # atno 17320 bound_to 7965
  145.5556  139.1478  143.3370 LP  0  0  0  0  0  0  0  0  0  0  0  0  # atno 17321 bound_to 7965
  139.5475  144.7310  151.4539 LP  0  0  0  0  0  0  0  0  0  0  0  0  # atno 17342 bound_to 10162
  140.6764  143.8181  150.7063 LP  0  0  0  0  0  0  0  0  0  0  0  0  # atno 17343 bound_to 10162
  156.6341  130.4440  149.5776 LP  0  0  0  0  0  0  0  0  0  0  0  0  # atno 17370 bound_to 10713
  156.2259  130.6765  151.1415 LP  0  0  0  0  0  0  0  0  0  0  0  0  # atno 17371 bound_to 10713
  141.1646  133.6537  156.4434 LP  0  0  0  0  0  0  0  0  0  0  0  0  # atno 17394 bound_to 11000
  140.4718  134.6746  157.5132 LP  0  0  0  0  0  0  0  0  0  0  0  0  # atno 17395 bound_to 11000

$$$$
