AV-unprocessed.smi:1056|AV-procd|sdf|4638|dock2
  -GOLD-   22720 3143D 1   1.00000     0.00000
 Structure written by MMmdl.
 44 46  0  0  0  0  0  0  0  0  1 V2000
  153.2393  142.8287  161.3920 C   0  0  0  0  0  0  0  0  0  0  0  0
  152.5913  142.5337  160.0507 C   0  0  0  0  0  0  0  0  0  0  0  0
  152.9257  141.3387  159.3745 C   0  0  0  0  0  0  0  0  0  0  0  0
  152.3453  141.0263  158.1257 C   0  0  0  0  0  0  0  0  0  0  0  0
  152.5256  139.9302  157.2993 N   0  0  0  0  0  0  0  0  0  0  0  0
  151.7105  140.2199  156.2888 C   0  0  0  0  0  0  0  0  0  0  0  0
  151.0224  141.3754  156.3638 N   0  0  0  0  0  0  0  0  0  0  0  0
  150.0808  141.9020  155.3916 C   0  0  0  0  0  0  0  0  0  0  0  0
  149.2332  140.7963  154.7298 C   0  0  2  0  0  0  0  0  0  0  0  0
  150.0451  140.1180  153.7889 O   0  0  0  0  0  0  0  0  0  0  0  0
  147.9893  141.3678  154.0116 C   0  0  0  0  0  0  0  0  0  0  0  0
  146.9677  140.3838  153.6369 N   0  0  0  0  0  0  0  0  0  0  0  0
  146.6858  139.4054  154.6880 C   0  0  0  0  0  0  0  0  0  0  0  0
  145.5253  138.4731  154.3060 C   0  0  0  0  0  0  0  0  0  0  0  0
  145.6578  137.9602  152.9465 N   0  0  0  0  0  0  0  0  0  0  0  0
  146.4285  138.5132  151.9960 C   0  0  0  0  0  0  0  0  0  0  0  0
  146.4610  138.0684  150.8510 O   0  0  0  0  0  0  0  0  0  0  0  0
  147.3144  139.7164  152.3719 C   0  0  0  0  0  0  0  0  0  0  0  0
  151.4125  141.9490  157.5685 C   0  0  0  0  0  0  0  0  0  0  0  0
  151.0705  143.1406  158.2317 C   0  0  0  0  0  0  0  0  0  0  0  0
  151.6603  143.4377  159.4783 C   0  0  0  0  0  0  0  0  0  0  0  0
  151.2844  144.7267  160.1870 C   0  0  0  0  0  0  0  0  0  0  0  0
  153.9644  142.0600  161.6614 H   0  0  0  0  0  0  0  0  0  0  0  0
  152.4851  142.8686  162.1783 H   0  0  0  0  0  0  0  0  0  0  0  0
  153.7621  143.7848  161.3641 H   0  0  0  0  0  0  0  0  0  0  0  0
  153.6333  140.6492  159.8107 H   0  0  0  0  0  0  0  0  0  0  0  0
  151.6047  139.5523  155.4462 H   0  0  0  0  0  0  0  0  0  0  0  0
  149.4358  142.6171  155.9038 H   0  0  0  0  0  0  0  0  0  0  0  0
  150.6327  142.4647  154.6369 H   0  0  0  0  0  0  0  0  0  0  0  0
  148.9216  140.0885  155.4996 H   0  0  0  0  0  0  0  0  0  0  0  0
  149.6925  139.2511  153.6591 H   0  0  0  0  0  0  0  0  0  0  0  0
  147.5197  142.0778  154.6946 H   0  0  0  0  0  0  0  0  0  0  0  0
  148.2859  141.9640  153.1463 H   0  0  0  0  0  0  0  0  0  0  0  0
  147.5811  138.8152  154.8921 H   0  0  0  0  0  0  0  0  0  0  0  0
  146.4219  139.9026  155.6204 H   0  0  0  0  0  0  0  0  0  0  0  0
  145.4619  137.6377  155.0037 H   0  0  0  0  0  0  0  0  0  0  0  0
  144.5797  139.0127  154.3705 H   0  0  0  0  0  0  0  0  0  0  0  0
  145.0964  137.1585  152.6982 H   0  0  0  0  0  0  0  0  0  0  0  0
  147.2849  140.4387  151.5548 H   0  0  0  0  0  0  0  0  0  0  0  0
  148.3396  139.3451  152.4200 H   0  0  0  0  0  0  0  0  0  0  0  0
  150.3593  143.8190  157.7843 H   0  0  0  0  0  0  0  0  0  0  0  0
  150.5420  145.2901  159.6210 H   0  0  0  0  0  0  0  0  0  0  0  0
  152.1611  145.3623  160.3138 H   0  0  0  0  0  0  0  0  0  0  0  0
  150.8640  144.5140  161.1702 H   0  0  0  0  0  0  0  0  0  0  0  0
  1  2  1  0  0  0  0
  1 23  1  0  0  0  0
  1 24  1  0  0  0  0
  1 25  1  0  0  0  0
  2 21  1  0  0  0  0
  2  3  2  0  0  0  0
  3  4  1  0  0  0  0
  3 26  1  0  0  0  0
  4 19  2  0  0  0  0
  4  5  1  0  0  0  0
  5  6  2  0  0  0  0
  6  7  1  0  0  0  0
  6 27  1  0  0  0  0
  7  8  1  0  0  0  0
  7 19  1  0  0  0  0
  8  9  1  0  0  0  0
  8 28  1  0  0  0  0
  8 29  1  0  0  0  0
  9 10  1  0  0  0  0
  9 11  1  0  0  0  0
  9 30  1  0  0  0  0
 10 31  1  0  0  0  0
 11 12  1  0  0  0  0
 11 32  1  0  0  0  0
 11 33  1  0  0  0  0
 12 18  1  0  0  0  0
 12 13  1  0  0  0  0
 13 14  1  0  0  0  0
 13 34  1  0  0  0  0
 13 35  1  0  0  0  0
 14 15  1  0  0  0  0
 14 36  1  0  0  0  0
 14 37  1  0  0  0  0
 15 16  1  0  0  0  0
 15 38  1  0  0  0  0
 16 17  2  0  0  0  0
 16 18  1  0  0  0  0
 18 39  1  0  0  0  0
 18 40  1  0  0  0  0
 19 20  1  0  0  0  0
 20 21  2  0  0  0  0
 20 41  1  0  0  0  0
 21 22  1  0  0  0  0
 22 42  1  0  0  0  0
 22 43  1  0  0  0  0
 22 44  1  0  0  0  0
M  END
> <s_m_source_file>
AV-unprocessed.smi

> <i_m_source_file_index>
1056

> <i_lp_mmshare_version>
43012

> <i_f3d_flags>
0

> <s_epik_input>
W0NIM11jKFtjSF0xKWMoW0NIM10pW2NIXWMoYzEyKW4oW2NIXW4yKVtDSDJdW0NASF0oW09IXSlbQ0gyXU4zW0NIMl1bQ0gyXVtOSF1DKD1PKVtDSDJdMw==

> <s_epik_cmdline>
J2VwaWtfcHl0aG9uJywgJy1waCcsICc3LjAnLCAnLXRuJywgJzgnLCAnLW1hJywgJzIwMCcsICctbWV0YWxfYmluZGluZycsICctaW1hZScsICc8aW5maWxlLm1hZT4nLCAnLW9tYWUnLCAnPG91dGZpbGUubWFlPic=

> <r_epik_Ionization_Penalty>
1.40166

> <r_epik_Ionization_Penalty_Charging>
0

> <r_epik_Ionization_Penalty_Neutral>
1.40166

> <r_epik_State_Penalty>
1.44226

> <r_epik_Charging_Adjusted_Penalty>
1.44226

> <i_epik_Tot_Q>
0

> <i_epik_Tot_abs_Q>
0

> <r_epik_Metal_State_Penalty>
1.50267

> <b_epik_Metal_Only>
0

> <s_lp_Force_Field>
OPLS_2005

> <r_lp_Energy>
30.6142

> <b_lp_Chiralities_Consistent>
1

> <s_lp_Variant>
AV-unprocessed.smi:1056-9

> <Gold.Version>
5.8.1

> <Gold.Id.Protein>
6NUR|6NUR_protein|mol2

> <Gold.PLP.Fitness>
50.7531

> <Gold.PLP.PLP>
-43.6412

> <Gold.PLP.part.hbond>
-4.1191

> <Gold.PLP.part.metal>
0.0000

> <Gold.PLP.part.buried>
-1.9728

> <Gold.PLP.part.nonpolar>
-39.3140

> <Gold.PLP.part.repulsive>
1.9185

> <Gold.PLP.ligand.clash>
0.0000

> <Gold.PLP.ligand.torsion>
0.7272

> <Gold.PLP.Chemscore.Hbond>
2.8160

> <Gold.PLP.Chemscore.CHOScore>
0.0000

> <Gold.PLP.Chemscore.Metal>
0.0000

> <Gold.Chemscore.Hbonds>
donor molecule, donor type, donor heavy atom, donor atom, acceptor molecule, acceptor atom, score
      P1  H  7954  7966       L1    17  1.00
      P1  H  7989  7998       L1    10  0.78
      P1  H  7997  8010       L1     5  1.00

> <Gold.PLP.Chemscore.Internal.Correction>
0.1184

> <Gold.Rescore>
     Score         DG    S(hbond)    S(metal)    S(lipo)     H(rot)  DE(clash)    DE(int)     intcor
     16.31     -21.16       2.47        0.00     114.30       2.31       3.08       1.77       ----

> <Gold.Chemscore.Fitness>
16.3114

> <Gold.Chemscore.DG>
-21.1634

> <Gold.Chemscore.ZeroCoef>
-5.4800

> <Gold.Chemscore.Hbond>
2.4658

> <Gold.Chemscore.Metal>
0.0000

> <Gold.Chemscore.Lipo>
114.2992

> <Gold.Chemscore.Internal_Hbond>
0.0000

> <Gold.Chemscore.DEClash>
3.0839

> <Gold.Chemscore.DEInternal>
1.7681

> <Gold.Chemscore.Rot>
2.3147

> <Gold.Chemscore.Internal.Correction>
   9.000000E+99

> <Gold.Chemscore.Hbonds>
donor molecule, donor type, donor heavy atom, donor atom, acceptor molecule, acceptor atom, score
      P1  H  7954  7966       L1    17  0.95
      P1  H  7989  7998       L1    10  0.72
      P1  H  7997  8010       L1     5  0.29

> <Gold.Chemscore.Hbond.Weighted>
-8.2359

> <Gold.Chemscore.Metal.Weighted>
-0.0000

> <Gold.Chemscore.Lipo.Weighted>
-13.3730

> <Gold.Chemscore.Internal_Hbond.Weighted>
0.0000

> <Gold.Chemscore.DEClash.Weighted>
3.0839

> <Gold.Chemscore.DEInternal.Weighted>
1.7681

> <Gold.Chemscore.Rot.Weighted>
5.9256

> <Gold.Chemscore.Internal.Correction.Weighted>
   9.000000E+99

> <Gold.Protein.RotatedTorsions>
[ 6907 6896 6895 6894 ] final  129.69 input  -60.11 | X-H torsion
[ 7974 7965 7964 7962 ] final -110.55 input  175.53 | X-H torsion
[ 8008 7997 7996 7995 ] final   46.36 input   59.86 | X-H torsion
[ 10167 10162 10161 10158 ] final    7.91 input  -65.29 | X-H torsion
[ 10718 10713 10712 10709 ] final -168.79 input   66.30 | X-H torsion
[ 10763 10752 10751 10750 ] final -168.83 input  -60.55 | X-H torsion
[ 11005 11000 10999 10996 ] final -165.50 input  -57.11 | X-H torsion

> <Gold.Protein.ActiveResidues>
 VAL166  LYS551  ARG553  GLY616  TRP617  ASP618  TYR619  PRO620  LYS621  CYS622 
 ASP623  PHE694  ASN695  SER759  ASP760  ASP761  ALA762  ILE779  LEU786  VAL792 
 PHE793  MET794  SER795  GLU796  ALA797  LYS798  CYS799  TRP800  GLU811  SER814 

> <Gold.Protein.RotatedAtoms>
  152.3599  133.6284  159.6006 H   0  0  0  0  0  0  0  0  0  0  0  0  # atno 6907 bound_to 6896
  150.7594  133.9440  159.3474 H   0  0  0  0  0  0  0  0  0  0  0  0  # atno 6908 bound_to 6896
  151.7280  135.0882  160.0346 H   0  0  0  0  0  0  0  0  0  0  0  0  # atno 6909 bound_to 6896
  145.1669  140.8906  143.3558 H   0  0  0  0  0  0  0  0  0  0  0  0  # atno 7974 bound_to 7965
  155.3513  140.3413  155.4239 H   0  0  0  0  0  0  0  0  0  0  0  0  # atno 8008 bound_to 7997
  156.1762  140.1648  156.8393 H   0  0  0  0  0  0  0  0  0  0  0  0  # atno 8009 bound_to 7997
  154.5285  140.0750  156.8285 H   0  0  0  0  0  0  0  0  0  0  0  0  # atno 8010 bound_to 7997
  140.6345  143.7918  150.7340 H   0  0  0  0  0  0  0  0  0  0  0  0  # atno 10167 bound_to 10162
  156.7020  130.9200  151.3081 H   0  0  0  0  0  0  0  0  0  0  0  0  # atno 10718 bound_to 10713
  154.6587  135.2922  154.9894 H   0  0  0  0  0  0  0  0  0  0  0  0  # atno 10763 bound_to 10752
  154.0962  135.6583  153.4864 H   0  0  0  0  0  0  0  0  0  0  0  0  # atno 10764 bound_to 10752
  153.0417  135.5231  154.7528 H   0  0  0  0  0  0  0  0  0  0  0  0  # atno 10765 bound_to 10752
  140.5750  134.5199  157.5168 H   0  0  0  0  0  0  0  0  0  0  0  0  # atno 11005 bound_to 11000
  145.0273  139.3372  143.6042 LP  0  0  0  0  0  0  0  0  0  0  0  0  # atno 17320 bound_to 7965
  146.3474  139.9596  142.8719 LP  0  0  0  0  0  0  0  0  0  0  0  0  # atno 17321 bound_to 7965
  140.1536  143.4336  152.2114 LP  0  0  0  0  0  0  0  0  0  0  0  0  # atno 17342 bound_to 10162
  139.5556  144.7370  151.4304 LP  0  0  0  0  0  0  0  0  0  0  0  0  # atno 17343 bound_to 10162
  157.6969  130.9291  150.0671 LP  0  0  0  0  0  0  0  0  0  0  0  0  # atno 17370 bound_to 10713
  156.1722  130.3647  149.9150 LP  0  0  0  0  0  0  0  0  0  0  0  0  # atno 17371 bound_to 10713
  139.9344  134.7904  156.0844 LP  0  0  0  0  0  0  0  0  0  0  0  0  # atno 17394 bound_to 11000
  141.1032  133.6669  156.2802 LP  0  0  0  0  0  0  0  0  0  0  0  0  # atno 17395 bound_to 11000

$$$$
