AV-unprocessed.smi:3261|AV-procd|sdf|12480|dock2
  -GOLD-   2272018383D 1   1.00000     0.00000
 Structure written by MMmdl.
 31 32  0  0  0  0  0  0  0  0  2 V2000
  147.0515  132.6882  154.0947 O   0  0  0  0  0  0  0  0  0  0  0  0
  147.6044  132.1871  153.1185 C   0  0  0  0  0  0  0  0  0  0  0  0
  147.0607  132.1005  151.8879 N   0  0  0  0  0  0  0  0  0  0  0  0
  145.7666  132.4952  151.4501 C   0  0  0  0  0  0  0  0  0  0  0  0
  145.3955  132.1528  150.1308 C   0  0  0  0  0  0  0  0  0  0  0  0
  144.1171  132.5058  149.6526 C   0  0  0  0  0  0  0  0  0  0  0  0
  143.2547  133.1596  150.4598 N   0  3  0  0  0  0  0  0  0  0  0  0
  143.5580  133.4969  151.7315 C   0  0  0  0  0  0  0  0  0  0  0  0
  144.8216  133.1706  152.2648 C   0  0  0  0  0  0  0  0  0  0  0  0
  148.8537  131.6953  153.2067 N   0  0  0  0  0  0  0  0  0  0  0  0
  149.7247  131.6332  154.3816 C   0  0  2  0  0  0  0  0  0  0  0  0
  149.2107  130.5946  155.3960 C   0  0  0  0  0  0  0  0  0  0  0  0
  149.9278  130.8160  156.7340 C   0  0  0  0  0  0  0  0  0  0  0  0
  150.3023  132.6086  156.8219 S   0  0  0  0  0  0  0  0  0  0  0  0
  149.3681  133.2660  157.7480 O   0  0  0  0  0  0  0  0  0  0  0  0
  151.7559  132.7854  156.9590 O   0  0  0  0  0  0  0  0  0  0  0  0
  149.8061  132.9894  155.1005 C   0  0  0  0  0  0  0  0  0  0  0  0
  147.6680  131.7401  151.1665 H   0  0  0  0  0  0  0  0  0  0  0  0
  146.0843  131.6269  149.4853 H   0  0  0  0  0  0  0  0  0  0  0  0
  143.7606  132.2847  148.6569 H   0  0  0  0  0  0  0  0  0  0  0  0
  142.7839  134.0095  152.2838 H   0  0  0  0  0  0  0  0  0  0  0  0
  145.0311  133.4345  153.2897 H   0  0  0  0  0  0  0  0  0  0  0  0
  149.2530  131.3386  152.3501 H   0  0  0  0  0  0  0  0  0  0  0  0
  150.7308  131.3278  154.0889 H   0  0  0  0  0  0  0  0  0  0  0  0
  148.1398  130.7384  155.5472 H   0  0  0  0  0  0  0  0  0  0  0  0
  149.3457  129.5742  155.0361 H   0  0  0  0  0  0  0  0  0  0  0  0
  149.3283  130.5128  157.5927 H   0  0  0  0  0  0  0  0  0  0  0  0
  150.8731  130.2736  156.7614 H   0  0  0  0  0  0  0  0  0  0  0  0
  150.5205  133.6775  154.6489 H   0  0  0  0  0  0  0  0  0  0  0  0
  148.8300  133.4750  155.1374 H   0  0  0  0  0  0  0  0  0  0  0  0
  142.3336  133.4044  150.0956 H   0  0  0  0  0  0  0  0  0  0  0  0
  1  2  2  0  0  0  0
  2  3  1  0  0  0  0
  2 10  1  0  0  0  0
  3  4  1  0  0  0  0
  3 18  1  0  0  0  0
  4  9  1  0  0  0  0
  4  5  2  0  0  0  0
  5  6  1  0  0  0  0
  5 19  1  0  0  0  0
  6  7  2  0  0  0  0
  6 20  1  0  0  0  0
  7  8  1  0  0  0  0
  7 31  1  0  0  0  0
  8  9  2  0  0  0  0
  8 21  1  0  0  0  0
  9 22  1  0  0  0  0
 10 11  1  0  0  0  0
 10 23  1  0  0  0  0
 11 17  1  0  0  0  0
 11 12  1  0  0  0  0
 11 24  1  0  0  0  0
 12 13  1  0  0  0  0
 12 25  1  0  0  0  0
 12 26  1  0  0  0  0
 13 14  1  0  0  0  0
 13 27  1  0  0  0  0
 13 28  1  0  0  0  0
 14 15  2  0  0  0  0
 14 16  2  0  0  0  0
 14 17  1  0  0  0  0
 17 29  1  0  0  0  0
 17 30  1  0  0  0  0
M  CHG  1   7   1
M  END
> <s_m_source_file>
AV-unprocessed.smi

> <i_m_source_file_index>
3261

> <i_lp_mmshare_version>
43012

> <i_f3d_flags>
0

> <s_epik_input>
Tz1TMSg9TylbQ0gyXVtDSDJdW0NASF0oW0NIMl0xKVtOSF1DKD1PKVtOSF1jMltjSF1bY0hdbltjSF1bY0hdMg==

> <s_epik_cmdline>
J2VwaWtfcHl0aG9uJywgJy1waCcsICc3LjAnLCAnLXRuJywgJzgnLCAnLW1hJywgJzIwMCcsICctbWV0YWxfYmluZGluZycsICctaW1hZScsICc8aW5maWxlLm1hZT4nLCAnLW9tYWUnLCAnPG91dGZpbGUubWFlPic=

> <r_epik_Ionization_Penalty>
1.10375

> <r_epik_Ionization_Penalty_Charging>
1.10372

> <r_epik_Ionization_Penalty_Neutral>
2.06752e-05

> <r_epik_State_Penalty>
1.16109

> <r_epik_Charging_Adjusted_Penalty>
2.26482

> <i_epik_Tot_Q>
1

> <i_epik_Tot_abs_Q>
1

> <r_epik_Metal_State_Penalty>
1.24883

> <b_epik_Metal_Only>
0

> <s_lp_Force_Field>
OPLS_2005

> <r_lp_Energy>
25.5271

> <b_lp_Chiralities_Consistent>
1

> <s_lp_Variant>
AV-unprocessed.smi:3261-3

> <Gold.Version>
5.8.1

> <Gold.Id.Protein>
6NUR|6NUR_protein|mol2

> <Gold.PLP.Fitness>
42.7988

> <Gold.PLP.PLP>
-29.2076

> <Gold.PLP.part.hbond>
-4.0862

> <Gold.PLP.part.metal>
0.0000

> <Gold.PLP.part.buried>
-4.9343

> <Gold.PLP.part.nonpolar>
-19.9106

> <Gold.PLP.part.repulsive>
0.1091

> <Gold.PLP.ligand.clash>
0.0000

> <Gold.PLP.ligand.torsion>
0.1088

> <Gold.PLP.Chemscore.Hbond>
4.6028

> <Gold.PLP.Chemscore.CHOScore>
0.0000

> <Gold.PLP.Chemscore.Metal>
0.0000

> <Gold.Chemscore.Hbonds>
donor molecule, donor type, donor heavy atom, donor atom, acceptor molecule, acceptor atom, score
      L1  H     3    18       P1 10747  1.00
      L1  H     7    31       P1 10186  2.00
      L1  H    10    23       P1 10747  0.79
      P1  H  6896  6907       L1    15  0.70

> <Gold.PLP.Chemscore.Internal.Correction>
0.0005

> <Gold.Rescore>
     Score         DG    S(hbond)    S(metal)    S(lipo)     H(rot)  DE(clash)    DE(int)     intcor
     17.54     -20.00       3.18        0.00      55.17       1.00       0.05       2.42       ----

> <Gold.Chemscore.Fitness>
17.5406

> <Gold.Chemscore.DG>
-20.0048

> <Gold.Chemscore.ZeroCoef>
-5.4800

> <Gold.Chemscore.Hbond>
3.1827

> <Gold.Chemscore.Metal>
0.0000

> <Gold.Chemscore.Lipo>
55.1673

> <Gold.Chemscore.Internal_Hbond>
0.0000

> <Gold.Chemscore.DEClash>
0.0491

> <Gold.Chemscore.DEInternal>
2.4151

> <Gold.Chemscore.Rot>
1.0000

> <Gold.Chemscore.Internal.Correction>
   9.000000E+99

> <Gold.Chemscore.Hbonds>
donor molecule, donor type, donor heavy atom, donor atom, acceptor molecule, acceptor atom, score
      L1  H     3    18       P1 10747  1.00
      L1  H     7    31       P1 10186  0.99
      L1  H    10    23       P1 10747  0.22
      P1  H  6896  6907       L1    15  0.21

> <Gold.Chemscore.Hbond.Weighted>
-10.6302

> <Gold.Chemscore.Metal.Weighted>
-0.0000

> <Gold.Chemscore.Lipo.Weighted>
-6.4546

> <Gold.Chemscore.Internal_Hbond.Weighted>
0.0000

> <Gold.Chemscore.DEClash.Weighted>
0.0491

> <Gold.Chemscore.DEInternal.Weighted>
2.4151

> <Gold.Chemscore.Rot.Weighted>
2.5600

> <Gold.Chemscore.Internal.Correction.Weighted>
   9.000000E+99

> <Gold.Protein.RotatedTorsions>
[ 6907 6896 6895 6894 ] final -110.74 input  -60.11 | X-H torsion
[ 7974 7965 7964 7962 ] final   37.59 input  175.53 | X-H torsion
[ 8008 7997 7996 7995 ] final   65.44 input   59.86 | X-H torsion
[ 10167 10162 10161 10158 ] final  162.34 input  -65.29 | X-H torsion
[ 10718 10713 10712 10709 ] final  178.30 input   66.30 | X-H torsion
[ 10763 10752 10751 10750 ] final   80.92 input  -60.55 | X-H torsion
[ 11005 11000 10999 10996 ] final   82.49 input  -57.11 | X-H torsion

> <Gold.Protein.ActiveResidues>
 VAL166  LYS551  ARG553  GLY616  TRP617  ASP618  TYR619  PRO620  LYS621  CYS622 
 ASP623  PHE694  ASN695  SER759  ASP760  ASP761  ALA762  ILE779  LEU786  VAL792 
 PHE793  MET794  SER795  GLU796  ALA797  LYS798  CYS799  TRP800  GLU811  SER814 

> <Gold.Protein.RotatedAtoms>
  150.7644  133.9338  159.3434 H   0  0  0  0  0  0  0  0  0  0  0  0  # atno 6907 bound_to 6896
  151.7239  135.0887  160.0298 H   0  0  0  0  0  0  0  0  0  0  0  0  # atno 6908 bound_to 6896
  152.3632  133.6286  159.6067 H   0  0  0  0  0  0  0  0  0  0  0  0  # atno 6909 bound_to 6896
  146.1126  139.5875  142.9342 H   0  0  0  0  0  0  0  0  0  0  0  0  # atno 7974 bound_to 7965
  155.6618  140.3497  155.4785 H   0  0  0  0  0  0  0  0  0  0  0  0  # atno 8008 bound_to 7997
  155.9762  140.1165  157.0791 H   0  0  0  0  0  0  0  0  0  0  0  0  # atno 8009 bound_to 7997
  154.4179  140.1147  156.5360 H   0  0  0  0  0  0  0  0  0  0  0  0  # atno 8010 bound_to 7997
  139.4859  144.4447  151.8907 H   0  0  0  0  0  0  0  0  0  0  0  0  # atno 10167 bound_to 10162
  156.8926  130.9852  151.3047 H   0  0  0  0  0  0  0  0  0  0  0  0  # atno 10718 bound_to 10713
  153.1073  135.4785  154.8974 H   0  0  0  0  0  0  0  0  0  0  0  0  # atno 10763 bound_to 10752
  154.7444  135.3090  154.8674 H   0  0  0  0  0  0  0  0  0  0  0  0  # atno 10764 bound_to 10752
  153.9273  135.6848  153.4799 H   0  0  0  0  0  0  0  0  0  0  0  0  # atno 10765 bound_to 10752
  139.9062  134.8075  156.2182 H   0  0  0  0  0  0  0  0  0  0  0  0  # atno 11005 bound_to 11000
  145.5633  141.0402  143.2214 LP  0  0  0  0  0  0  0  0  0  0  0  0  # atno 17320 bound_to 7965
  144.7524  139.7159  143.7267 LP  0  0  0  0  0  0  0  0  0  0  0  0  # atno 17321 bound_to 7965
  140.3901  144.2627  150.5900 LP  0  0  0  0  0  0  0  0  0  0  0  0  # atno 17342 bound_to 10162
  140.5154  143.2279  151.8471 LP  0  0  0  0  0  0  0  0  0  0  0  0  # atno 17343 bound_to 10162
  157.6074  130.8557  149.8897 LP  0  0  0  0  0  0  0  0  0  0  0  0  # atno 17370 bound_to 10713
  156.0621  130.3698  150.0958 LP  0  0  0  0  0  0  0  0  0  0  0  0  # atno 17371 bound_to 10713
  141.0422  133.6931  156.1619 LP  0  0  0  0  0  0  0  0  0  0  0  0  # atno 17394 bound_to 11000
  140.6937  134.4638  157.5588 LP  0  0  0  0  0  0  0  0  0  0  0  0  # atno 17395 bound_to 11000

$$$$
