AV-unprocessed.smi:2019|AV-procd|sdf|8172|dock10
  -GOLD-   2272010423D 1   1.00000     0.00000
 Structure written by MMmdl.
 36 37  0  0  0  0  0  0  0  0  1 V2000
  151.2738  140.8852  157.6240 O   0  0  0  0  0  0  0  0  0  0  0  0
  151.0435  141.9745  157.0970 C   0  0  0  0  0  0  0  0  0  0  0  0
  151.7937  143.2360  157.5448 C   0  0  0  0  0  0  0  0  0  0  0  0
  152.1315  143.2249  158.9777 N   0  0  0  0  0  0  0  0  0  0  0  0
  152.9473  142.1720  159.4384 C   0  0  0  0  0  0  0  0  0  0  0  0
  153.3181  142.0716  160.7248 C   0  0  0  0  0  0  0  0  0  0  0  0
  152.8581  143.0815  161.6485 C   0  0  0  0  0  0  0  0  0  0  0  0
  152.0791  144.0937  161.2180 C   0  0  0  0  0  0  0  0  0  0  0  0
  151.6716  144.2077  159.8127 C   0  0  0  0  0  0  0  0  0  0  0  0
  150.9605  145.1291  159.4112 O   0  0  0  0  0  0  0  0  0  0  0  0
  150.1306  142.1442  156.1273 N   0  0  0  0  0  0  0  0  0  0  0  0
  149.3206  141.0816  155.5273 C   0  0  1  0  0  0  0  0  0  0  0  0
  148.5698  141.6900  154.3205 C   0  0  0  0  0  0  0  0  0  0  0  0
  147.3077  140.9078  153.9164 C   0  0  0  0  0  0  0  0  0  0  0  0
  147.5646  139.4864  153.3928 C   0  0  0  0  0  0  0  0  0  0  0  0
  148.2087  138.5519  154.4310 C   0  0  0  0  0  0  0  0  0  0  0  0
  149.6368  138.7999  154.5798 N   0  0  0  0  0  0  0  0  0  0  0  0
  150.2172  139.9201  155.0361 C   0  0  0  0  0  0  0  0  0  0  0  0
  151.4440  140.0197  155.0567 O   0  0  0  0  0  0  0  0  0  0  0  0
  152.7009  143.3556  156.9489 H   0  0  0  0  0  0  0  0  0  0  0  0
  151.1759  144.1012  157.3006 H   0  0  0  0  0  0  0  0  0  0  0  0
  153.2542  141.4626  158.6836 H   0  0  0  0  0  0  0  0  0  0  0  0
  153.9468  141.2594  161.0590 H   0  0  0  0  0  0  0  0  0  0  0  0
  153.1410  143.0260  162.6894 H   0  0  0  0  0  0  0  0  0  0  0  0
  151.7453  144.8408  161.9233 H   0  0  0  0  0  0  0  0  0  0  0  0
  150.0092  143.0730  155.7507 H   0  0  0  0  0  0  0  0  0  0  0  0
  148.6068  140.7174  156.2688 H   0  0  0  0  0  0  0  0  0  0  0  0
  148.2488  142.7013  154.5751 H   0  0  0  0  0  0  0  0  0  0  0  0
  149.2348  141.8039  153.4622 H   0  0  0  0  0  0  0  0  0  0  0  0
  146.6235  140.8629  154.7649 H   0  0  0  0  0  0  0  0  0  0  0  0
  146.7834  141.4707  153.1435 H   0  0  0  0  0  0  0  0  0  0  0  0
  146.6072  139.0594  153.0918 H   0  0  0  0  0  0  0  0  0  0  0  0
  148.1731  139.5214  152.4877 H   0  0  0  0  0  0  0  0  0  0  0  0
  147.7039  138.6231  155.3954 H   0  0  0  0  0  0  0  0  0  0  0  0
  148.0954  137.5187  154.1019 H   0  0  0  0  0  0  0  0  0  0  0  0
  150.2515  138.0576  154.2776 H   0  0  0  0  0  0  0  0  0  0  0  0
  1  2  2  0  0  0  0
  2  3  1  0  0  0  0
  2 11  1  0  0  0  0
  3  4  1  0  0  0  0
  3 20  1  0  0  0  0
  3 21  1  0  0  0  0
  4  9  1  0  0  0  0
  4  5  1  0  0  0  0
  5  6  2  0  0  0  0
  5 22  1  0  0  0  0
  6  7  1  0  0  0  0
  6 23  1  0  0  0  0
  7  8  2  0  0  0  0
  7 24  1  0  0  0  0
  8  9  1  0  0  0  0
  8 25  1  0  0  0  0
  9 10  2  0  0  0  0
 11 12  1  0  0  0  0
 11 26  1  0  0  0  0
 12 18  1  0  0  0  0
 12 13  1  0  0  0  0
 12 27  1  0  0  0  0
 13 14  1  0  0  0  0
 13 28  1  0  0  0  0
 13 29  1  0  0  0  0
 14 15  1  0  0  0  0
 14 30  1  0  0  0  0
 14 31  1  0  0  0  0
 15 16  1  0  0  0  0
 15 32  1  0  0  0  0
 15 33  1  0  0  0  0
 16 17  1  0  0  0  0
 16 34  1  0  0  0  0
 16 35  1  0  0  0  0
 17 18  1  0  0  0  0
 17 36  1  0  0  0  0
 18 19  2  0  0  0  0
M  END
> <s_m_source_file>
AV-unprocessed.smi

> <i_m_source_file_index>
2019

> <i_lp_mmshare_version>
43012

> <i_f3d_flags>
0

> <s_epik_input>
Tz1jMVtjSF1bY0hdW2NIXVtjSF1uMVtDSDJdQyg9TylbTkhdW0NAQEhdMltDSDJdW0NIMl1bQ0gyXVtDSDJdW05IXUMyPU8=

> <s_epik_cmdline>
J2VwaWtfcHl0aG9uJywgJy1waCcsICc3LjAnLCAnLXRuJywgJzgnLCAnLW1hJywgJzIwMCcsICctbWV0YWxfYmluZGluZycsICctaW1hZScsICc8aW5maWxlLm1hZT4nLCAnLW9tYWUnLCAnPG91dGZpbGUubWFlPic=

> <r_lp_tautomer_probability>
1

> <r_epik_Ionization_Penalty>
3.70786e-07

> <r_epik_Ionization_Penalty_Charging>
3.17464e-07

> <r_epik_Ionization_Penalty_Neutral>
5.33217e-08

> <r_epik_State_Penalty>
-0

> <r_epik_Charging_Adjusted_Penalty>
3.17464e-07

> <i_epik_Tot_Q>
0

> <i_epik_Tot_abs_Q>
0

> <r_epik_Metal_State_Penalty>
-0

> <b_epik_Metal_Only>
0

> <s_lp_Force_Field>
OPLS_2005

> <r_lp_Energy>
20.0442

> <b_lp_Chiralities_Consistent>
1

> <s_lp_Variant>
AV-unprocessed.smi:2019-2

> <Gold.Version>
5.8.1

> <Gold.Id.Protein>
6NUR|6NUR_protein|mol2

> <Gold.PLP.Fitness>
49.0102

> <Gold.PLP.PLP>
-43.8592

> <Gold.PLP.part.hbond>
-2.0000

> <Gold.PLP.part.metal>
0.0000

> <Gold.PLP.part.buried>
-5.2768

> <Gold.PLP.part.nonpolar>
-36.7966

> <Gold.PLP.part.repulsive>
0.3730

> <Gold.PLP.ligand.clash>
0.0000

> <Gold.PLP.ligand.torsion>
0.4249

> <Gold.PLP.Chemscore.Hbond>
2.0000

> <Gold.PLP.Chemscore.CHOScore>
0.0000

> <Gold.PLP.Chemscore.Metal>
0.0000

> <Gold.Chemscore.Hbonds>
donor molecule, donor type, donor heavy atom, donor atom, acceptor molecule, acceptor atom, score
      L1  H    11    26       P1  8028  0.96
      P1  H  7989  7998       L1    19  0.90

> <Gold.PLP.Chemscore.Internal.Correction>
0.0009

> <Gold.Rescore>
     Score         DG    S(hbond)    S(metal)    S(lipo)     H(rot)  DE(clash)    DE(int)     intcor
     14.81     -17.14       1.95        0.00      78.79       1.59       0.05       2.29       ----

> <Gold.Chemscore.Fitness>
14.8053

> <Gold.Chemscore.DG>
-17.1418

> <Gold.Chemscore.ZeroCoef>
-5.4800

> <Gold.Chemscore.Hbond>
1.9531

> <Gold.Chemscore.Metal>
0.0000

> <Gold.Chemscore.Lipo>
78.7950

> <Gold.Chemscore.Internal_Hbond>
0.0000

> <Gold.Chemscore.DEClash>
0.0498

> <Gold.Chemscore.DEInternal>
2.2867

> <Gold.Chemscore.Rot>
1.5939

> <Gold.Chemscore.Internal.Correction>
   9.000000E+99

> <Gold.Chemscore.Hbonds>
donor molecule, donor type, donor heavy atom, donor atom, acceptor molecule, acceptor atom, score
      L1  H    11    26       P1  8028  0.89
      P1  H  7989  7998       L1    19  0.18

> <Gold.Chemscore.Hbond.Weighted>
-6.5232

> <Gold.Chemscore.Metal.Weighted>
-0.0000

> <Gold.Chemscore.Lipo.Weighted>
-9.2190

> <Gold.Chemscore.Internal_Hbond.Weighted>
0.0000

> <Gold.Chemscore.DEClash.Weighted>
0.0498

> <Gold.Chemscore.DEInternal.Weighted>
2.2867

> <Gold.Chemscore.Rot.Weighted>
4.0804

> <Gold.Chemscore.Internal.Correction.Weighted>
   9.000000E+99

> <Gold.Protein.RotatedTorsions>
[ 6907 6896 6895 6894 ] final  154.80 input  -60.11 | X-H torsion
[ 7974 7965 7964 7962 ] final  177.13 input  175.53 | X-H torsion
[ 8008 7997 7996 7995 ] final  -19.51 input   59.86 | X-H torsion
[ 10167 10162 10161 10158 ] final  145.78 input  -65.29 | X-H torsion
[ 10718 10713 10712 10709 ] final   74.24 input   66.30 | X-H torsion
[ 10763 10752 10751 10750 ] final  -24.63 input  -60.55 | X-H torsion
[ 11005 11000 10999 10996 ] final  146.14 input  -57.11 | X-H torsion

> <Gold.Protein.ActiveResidues>
 VAL166  LYS551  ARG553  GLY616  TRP617  ASP618  TYR619  PRO620  LYS621  CYS622 
 ASP623  PHE694  ASN695  SER759  ASP760  ASP761  ALA762  ILE779  LEU786  VAL792 
 PHE793  MET794  SER795  GLU796  ALA797  LYS798  CYS799  TRP800  GLU811  SER814 

> <Gold.Protein.RotatedAtoms>
  152.0533  133.4029  159.4386 H   0  0  0  0  0  0  0  0  0  0  0  0  # atno 6907 bound_to 6896
  150.6869  134.3283  159.4825 H   0  0  0  0  0  0  0  0  0  0  0  0  # atno 6908 bound_to 6896
  152.1096  134.9284  160.0617 H   0  0  0  0  0  0  0  0  0  0  0  0  # atno 6909 bound_to 6896
  144.7173  140.0200  143.6440 H   0  0  0  0  0  0  0  0  0  0  0  0  # atno 7974 bound_to 7965
  154.4832  140.2087  155.9715 H   0  0  0  0  0  0  0  0  0  0  0  0  # atno 8008 bound_to 7997
  156.1197  140.3215  155.8159 H   0  0  0  0  0  0  0  0  0  0  0  0  # atno 8009 bound_to 7997
  155.4490  140.0515  157.2994 H   0  0  0  0  0  0  0  0  0  0  0  0  # atno 8010 bound_to 7997
  139.4919  144.5877  151.6745 H   0  0  0  0  0  0  0  0  0  0  0  0  # atno 10167 bound_to 10162
  157.6583  130.9668  150.1183 H   0  0  0  0  0  0  0  0  0  0  0  0  # atno 10718 bound_to 10713
  153.6869  135.6964  153.5101 H   0  0  0  0  0  0  0  0  0  0  0  0  # atno 10763 bound_to 10752
  153.2442  135.4296  155.0729 H   0  0  0  0  0  0  0  0  0  0  0  0  # atno 10764 bound_to 10752
  154.8384  135.3515  154.6412 H   0  0  0  0  0  0  0  0  0  0  0  0  # atno 10765 bound_to 10752
  140.0769  134.9119  157.1438 H   0  0  0  0  0  0  0  0  0  0  0  0  # atno 11005 bound_to 11000
  146.0188  139.3233  143.0825 LP  0  0  0  0  0  0  0  0  0  0  0  0  # atno 17320 bound_to 7965
  145.8593  140.9484  143.0708 LP  0  0  0  0  0  0  0  0  0  0  0  0  # atno 17321 bound_to 7965
  140.5496  144.0446  150.6121 LP  0  0  0  0  0  0  0  0  0  0  0  0  # atno 17342 bound_to 10162
  140.3496  143.2971  152.0501 LP  0  0  0  0  0  0  0  0  0  0  0  0  # atno 17343 bound_to 10162
  156.2061  130.3663  149.8728 LP  0  0  0  0  0  0  0  0  0  0  0  0  # atno 17370 bound_to 10713
  156.6619  130.8785  151.3548 LP  0  0  0  0  0  0  0  0  0  0  0  0  # atno 17371 bound_to 10713
  140.3544  134.2563  155.7194 LP  0  0  0  0  0  0  0  0  0  0  0  0  # atno 17394 bound_to 11000
  141.2033  133.7916  157.0348 LP  0  0  0  0  0  0  0  0  0  0  0  0  # atno 17395 bound_to 11000

$$$$
