AV-unprocessed.smi:2894|AV-procd|sdf|11126|dock4
  -GOLD-   2272016 03D 1   1.00000     0.00000
 Structure written by MMmdl.
 35 36  0  0  0  0  0  0  0  0  1 V2000
  146.9061  139.3932  151.8545 C   0  0  0  0  0  0  0  0  0  0  0  0
  147.1897  140.2908  153.0225 C   0  0  0  0  0  0  0  0  0  0  0  0
  148.2845  140.2268  153.9327 C   0  0  0  0  0  0  0  0  0  0  0  0
  148.0345  141.2731  154.7782 C   0  0  0  0  0  0  0  0  0  0  0  0
  148.7553  141.6983  155.8497 N   0  0  0  0  0  0  0  0  0  0  0  0
  150.0470  141.4642  156.1401 C   0  0  0  0  0  0  0  0  0  0  0  0
  150.8240  140.7975  155.4559 O   0  0  0  0  0  0  0  0  0  0  0  0
  150.3967  142.0540  157.2923 N   0  0  0  0  0  0  0  0  0  0  0  0
  151.7305  142.0262  157.8893 C   0  0  2  0  0  0  0  0  0  0  0  0
  151.8064  140.9846  159.0219 C   0  0  0  0  0  0  0  0  0  0  0  0
  153.1386  141.1056  159.7673 C   0  0  0  0  0  0  0  0  0  0  0  0
  153.3093  142.5241  160.3353 C   0  0  0  0  0  0  0  0  0  0  0  0
  152.9730  143.5755  159.3743 N   0  0  0  0  0  0  0  0  0  0  0  0
  152.1997  143.4385  158.2826 C   0  0  0  0  0  0  0  0  0  0  0  0
  151.9006  144.4066  157.5852 O   0  0  0  0  0  0  0  0  0  0  0  0
  146.8737  141.8987  154.3809 N   0  0  0  0  0  0  0  0  0  0  0  0
  146.2050  143.0502  154.9549 C   0  0  0  0  0  0  0  0  0  0  0  0
  146.3544  141.2873  153.2945 N   0  0  0  0  0  0  0  0  0  0  0  0
  147.7191  138.6843  151.6962 H   0  0  0  0  0  0  0  0  0  0  0  0
  146.7847  139.9680  150.9362 H   0  0  0  0  0  0  0  0  0  0  0  0
  145.9925  138.8200  152.0138 H   0  0  0  0  0  0  0  0  0  0  0  0
  149.1041  139.5243  153.9437 H   0  0  0  0  0  0  0  0  0  0  0  0
  148.2455  142.2615  156.5143 H   0  0  0  0  0  0  0  0  0  0  0  0
  149.6953  142.5871  157.7857 H   0  0  0  0  0  0  0  0  0  0  0  0
  152.4365  141.7164  157.1162 H   0  0  0  0  0  0  0  0  0  0  0  0
  150.9830  141.1316  159.7224 H   0  0  0  0  0  0  0  0  0  0  0  0
  151.6966  139.9770  158.6189 H   0  0  0  0  0  0  0  0  0  0  0  0
  153.1957  140.3694  160.5696 H   0  0  0  0  0  0  0  0  0  0  0  0
  153.9582  140.8834  159.0825 H   0  0  0  0  0  0  0  0  0  0  0  0
  152.6626  142.6506  161.2044 H   0  0  0  0  0  0  0  0  0  0  0  0
  154.3321  142.6707  160.6830 H   0  0  0  0  0  0  0  0  0  0  0  0
  153.3033  144.5045  159.5928 H   0  0  0  0  0  0  0  0  0  0  0  0
  146.0495  142.8899  156.0222 H   0  0  0  0  0  0  0  0  0  0  0  0
  145.2366  143.2092  154.4785 H   0  0  0  0  0  0  0  0  0  0  0  0
  146.8208  143.9387  154.8127 H   0  0  0  0  0  0  0  0  0  0  0  0
  1  2  1  0  0  0  0
  1 19  1  0  0  0  0
  1 20  1  0  0  0  0
  1 21  1  0  0  0  0
  2 18  2  0  0  0  0
  2  3  1  0  0  0  0
  3  4  2  0  0  0  0
  3 22  1  0  0  0  0
  4  5  1  0  0  0  0
  4 16  1  0  0  0  0
  5  6  1  0  0  0  0
  5 23  1  0  0  0  0
  6  7  2  0  0  0  0
  6  8  1  0  0  0  0
  8  9  1  0  0  0  0
  8 24  1  0  0  0  0
  9 14  1  0  0  0  0
  9 10  1  0  0  0  0
  9 25  1  0  0  0  0
 10 11  1  0  0  0  0
 10 26  1  0  0  0  0
 10 27  1  0  0  0  0
 11 12  1  0  0  0  0
 11 28  1  0  0  0  0
 11 29  1  0  0  0  0
 12 13  1  0  0  0  0
 12 30  1  0  0  0  0
 12 31  1  0  0  0  0
 13 14  1  0  0  0  0
 13 32  1  0  0  0  0
 14 15  2  0  0  0  0
 16 17  1  0  0  0  0
 16 18  1  0  0  0  0
 17 33  1  0  0  0  0
 17 34  1  0  0  0  0
 17 35  1  0  0  0  0
M  END
> <s_m_source_file>
AV-unprocessed.smi

> <i_m_source_file_index>
2894

> <i_lp_mmshare_version>
43012

> <i_f3d_flags>
0

> <s_epik_input>
W0NIM11jMVtjSF1jKG4objEpW0NIM10pW05IXUMoPU8pW05IXVtDQEBIXTJbQ0gyXVtDSDJdW0NIMl1bTkhdQzI9Tw==

> <s_epik_cmdline>
J2VwaWtfcHl0aG9uJywgJy1waCcsICc3LjAnLCAnLXRuJywgJzgnLCAnLW1hJywgJzIwMCcsICctbWV0YWxfYmluZGluZycsICctaW1hZScsICc8aW5maWxlLm1hZT4nLCAnLW9tYWUnLCAnPG91dGZpbGUubWFlPic=

> <r_lp_tautomer_probability>
1

> <r_epik_Ionization_Penalty>
8.17286e-05

> <r_epik_Ionization_Penalty_Charging>
0

> <r_epik_Ionization_Penalty_Neutral>
8.17286e-05

> <r_epik_State_Penalty>
-0

> <r_epik_Charging_Adjusted_Penalty>
0

> <i_epik_Tot_Q>
0

> <i_epik_Tot_abs_Q>
0

> <r_epik_Metal_State_Penalty>
-0

> <b_epik_Metal_Only>
0

> <s_lp_Force_Field>
OPLS_2005

> <r_lp_Energy>
10.3718

> <b_lp_Chiralities_Consistent>
1

> <s_lp_Variant>
AV-unprocessed.smi:2894-1

> <Gold.Version>
5.8.1

> <Gold.Id.Protein>
6NUR|6NUR_protein|mol2

> <Gold.PLP.Fitness>
33.3694

> <Gold.PLP.PLP>
-31.8935

> <Gold.PLP.part.hbond>
-2.0000

> <Gold.PLP.part.metal>
0.0000

> <Gold.PLP.part.buried>
-0.9758

> <Gold.PLP.part.nonpolar>
-30.7087

> <Gold.PLP.part.repulsive>
1.9392

> <Gold.PLP.ligand.clash>
0.0000

> <Gold.PLP.ligand.torsion>
0.2774

> <Gold.PLP.Chemscore.Hbond>
0.6630

> <Gold.PLP.Chemscore.CHOScore>
0.0000

> <Gold.PLP.Chemscore.Metal>
0.0000

> <Gold.Chemscore.Hbonds>
donor molecule, donor type, donor heavy atom, donor atom, acceptor molecule, acceptor atom, score
      P1  H  7989  7998       L1     7  0.65

> <Gold.PLP.Chemscore.Internal.Correction>
0.0418

> <Gold.Rescore>
     Score         DG    S(hbond)    S(metal)    S(lipo)     H(rot)  DE(clash)    DE(int)     intcor
      9.92     -13.36       0.83        0.00      65.64       1.00       2.17       1.27       ----

> <Gold.Chemscore.Fitness>
9.9238

> <Gold.Chemscore.DG>
-13.3624

> <Gold.Chemscore.ZeroCoef>
-5.4800

> <Gold.Chemscore.Hbond>
0.8270

> <Gold.Chemscore.Metal>
0.0000

> <Gold.Chemscore.Lipo>
65.6417

> <Gold.Chemscore.Internal_Hbond>
0.0000

> <Gold.Chemscore.DEClash>
2.1691

> <Gold.Chemscore.DEInternal>
1.2695

> <Gold.Chemscore.Rot>
1.0000

> <Gold.Chemscore.Internal.Correction>
   9.000000E+99

> <Gold.Chemscore.Hbonds>
donor molecule, donor type, donor heavy atom, donor atom, acceptor molecule, acceptor atom, score
      P1  H  7989  7998       L1     7  0.64

> <Gold.Chemscore.Hbond.Weighted>
-2.7623

> <Gold.Chemscore.Metal.Weighted>
-0.0000

> <Gold.Chemscore.Lipo.Weighted>
-7.6801

> <Gold.Chemscore.Internal_Hbond.Weighted>
0.0000

> <Gold.Chemscore.DEClash.Weighted>
2.1691

> <Gold.Chemscore.DEInternal.Weighted>
1.2695

> <Gold.Chemscore.Rot.Weighted>
2.5600

> <Gold.Chemscore.Internal.Correction.Weighted>
   9.000000E+99

> <Gold.Protein.RotatedTorsions>
[ 6907 6896 6895 6894 ] final -125.83 input  -60.11 | X-H torsion
[ 7974 7965 7964 7962 ] final  -34.41 input  175.53 | X-H torsion
[ 8008 7997 7996 7995 ] final   78.40 input   59.86 | X-H torsion
[ 10167 10162 10161 10158 ] final    0.47 input  -65.29 | X-H torsion
[ 10718 10713 10712 10709 ] final  103.93 input   66.30 | X-H torsion
[ 10763 10752 10751 10750 ] final  -10.50 input  -60.55 | X-H torsion
[ 11005 11000 10999 10996 ] final    1.64 input  -57.11 | X-H torsion

> <Gold.Protein.ActiveResidues>
 VAL166  LYS551  ARG553  GLY616  TRP617  ASP618  TYR619  PRO620  LYS621  CYS622 
 ASP623  PHE694  ASN695  SER759  ASP760  ASP761  ALA762  ILE779  LEU786  VAL792 
 PHE793  MET794  SER795  GLU796  ALA797  LYS798  CYS799  TRP800  GLU811  SER814 

> <Gold.Protein.RotatedAtoms>
  150.8907  133.7247  159.2905 H   0  0  0  0  0  0  0  0  0  0  0  0  # atno 6907 bound_to 6896
  151.4798  135.1050  159.9784 H   0  0  0  0  0  0  0  0  0  0  0  0  # atno 6908 bound_to 6896
  152.4818  133.8226  159.7117 H   0  0  0  0  0  0  0  0  0  0  0  0  # atno 6909 bound_to 6896
  146.0831  140.6035  142.8899 H   0  0  0  0  0  0  0  0  0  0  0  0  # atno 7974 bound_to 7965
  155.8551  140.3456  155.5719 H   0  0  0  0  0  0  0  0  0  0  0  0  # atno 8008 bound_to 7997
  155.7994  140.0883  157.1985 H   0  0  0  0  0  0  0  0  0  0  0  0  # atno 8009 bound_to 7997
  154.4009  140.1468  156.3244 H   0  0  0  0  0  0  0  0  0  0  0  0  # atno 8010 bound_to 7997
  140.6727  143.7003  150.7957 H   0  0  0  0  0  0  0  0  0  0  0  0  # atno 10167 bound_to 10162
  157.6757  131.0791  150.5630 H   0  0  0  0  0  0  0  0  0  0  0  0  # atno 10718 bound_to 10713
  153.4701  135.7016  153.5999 H   0  0  0  0  0  0  0  0  0  0  0  0  # atno 10763 bound_to 10752
  153.4256  135.3815  155.2139 H   0  0  0  0  0  0  0  0  0  0  0  0  # atno 10764 bound_to 10752
  154.8725  135.3938  154.4137 H   0  0  0  0  0  0  0  0  0  0  0  0  # atno 10765 bound_to 10752
  140.6132  133.9729  155.8188 H   0  0  0  0  0  0  0  0  0  0  0  0  # atno 11005 bound_to 11000
  144.7307  140.4662  143.6940 LP  0  0  0  0  0  0  0  0  0  0  0  0  # atno 17320 bound_to 7965
  145.6180  139.1521  143.3038 LP  0  0  0  0  0  0  0  0  0  0  0  0  # atno 17321 bound_to 7965
  140.0691  143.5079  152.2589 LP  0  0  0  0  0  0  0  0  0  0  0  0  # atno 17342 bound_to 10162
  139.6003  144.7580  151.3187 LP  0  0  0  0  0  0  0  0  0  0  0  0  # atno 17343 bound_to 10162
  156.5932  130.4335  149.5928 LP  0  0  0  0  0  0  0  0  0  0  0  0  # atno 17370 bound_to 10713
  156.2566  130.6938  151.1693 LP  0  0  0  0  0  0  0  0  0  0  0  0  # atno 17371 bound_to 10713
  141.0793  134.0086  157.3410 LP  0  0  0  0  0  0  0  0  0  0  0  0  # atno 17394 bound_to 11000
  139.9183  135.0199  156.7968 LP  0  0  0  0  0  0  0  0  0  0  0  0  # atno 17395 bound_to 11000

$$$$
