AV-unprocessed.smi:3058|AV-procd|sdf|11675|dock2
  -GOLD-   2272017 83D 1   1.00000     0.00000
 Structure written by MMmdl.
 39 41  0  0  0  0  0  0  0  0  2 V2000
  151.7150  141.2658  157.8549 O   0  0  0  0  0  0  0  0  0  0  0  0
  151.3743  142.3694  157.4270 C   0  0  0  0  0  0  0  0  0  0  0  0
  150.4771  142.5225  156.4407 N   0  0  0  0  0  0  0  0  0  0  0  0
  149.7864  141.4324  155.7624 C   0  0  0  0  0  0  0  0  0  0  0  0
  148.5704  141.9396  154.9695 C   0  0  0  0  0  0  0  0  0  0  0  0
  148.0610  140.9076  153.9827 C   0  0  0  0  0  0  0  0  0  0  0  0
  146.9475  141.1893  153.1605 C   0  0  0  0  0  0  0  0  0  0  0  0
  146.4966  140.2119  152.2490 C   0  0  0  0  0  0  0  0  0  0  0  0
  147.1703  138.9752  152.1793 C   0  0  0  0  0  0  0  0  0  0  0  0
  148.2327  138.7420  152.9813 N   0  3  0  0  0  0  0  0  0  0  0  0
  148.6949  139.6514  153.8675 C   0  0  0  0  0  0  0  0  0  0  0  0
  151.9920  143.6634  157.9862 C   0  0  2  0  0  0  0  0  0  0  0  0
  152.8544  143.4720  159.2587 C   0  0  0  0  0  0  0  0  0  0  0  0
  152.2503  144.4916  160.2429 C   0  0  2  0  0  0  0  0  0  0  0  0
  150.8806  143.9852  160.7324 C   0  0  0  0  0  0  0  0  0  0  0  0
  149.9783  144.2081  159.5048 C   0  0  0  0  0  0  0  0  0  0  0  0
  150.9700  144.7374  158.4451 C   0  0  1  0  0  0  0  0  0  0  0  0
  151.8539  145.6308  159.3108 C   0  0  0  0  0  0  0  0  0  0  0  0
  150.2561  143.4616  156.1422 H   0  0  0  0  0  0  0  0  0  0  0  0
  150.4805  140.9048  155.1056 H   0  0  0  0  0  0  0  0  0  0  0  0
  149.4657  140.7137  156.5169 H   0  0  0  0  0  0  0  0  0  0  0  0
  147.7629  142.2071  155.6524 H   0  0  0  0  0  0  0  0  0  0  0  0
  148.8248  142.8500  154.4248 H   0  0  0  0  0  0  0  0  0  0  0  0
  146.4446  142.1436  153.2255 H   0  0  0  0  0  0  0  0  0  0  0  0
  145.6464  140.4090  151.6122 H   0  0  0  0  0  0  0  0  0  0  0  0
  146.8944  138.1721  151.5115 H   0  0  0  0  0  0  0  0  0  0  0  0
  149.5521  139.3487  154.4514 H   0  0  0  0  0  0  0  0  0  0  0  0
  152.6251  144.0992  157.2106 H   0  0  0  0  0  0  0  0  0  0  0  0
  152.8411  142.4598  159.6651 H   0  0  0  0  0  0  0  0  0  0  0  0
  153.8954  143.7192  159.0465 H   0  0  0  0  0  0  0  0  0  0  0  0
  152.9265  144.7706  161.0515 H   0  0  0  0  0  0  0  0  0  0  0  0
  150.9145  142.9388  161.0379 H   0  0  0  0  0  0  0  0  0  0  0  0
  150.5255  144.5714  161.5807 H   0  0  0  0  0  0  0  0  0  0  0  0
  149.4413  143.3102  159.2022 H   0  0  0  0  0  0  0  0  0  0  0  0
  149.2263  144.9665  159.7268 H   0  0  0  0  0  0  0  0  0  0  0  0
  150.4864  145.2570  157.6174 H   0  0  0  0  0  0  0  0  0  0  0  0
  151.3061  146.4306  159.8128 H   0  0  0  0  0  0  0  0  0  0  0  0
  152.6986  146.0623  158.7708 H   0  0  0  0  0  0  0  0  0  0  0  0
  148.7066  137.8408  152.9142 H   0  0  0  0  0  0  0  0  0  0  0  0
  1  2  2  0  0  0  0
  2  3  1  0  0  0  0
  2 12  1  0  0  0  0
  3  4  1  0  0  0  0
  3 19  1  0  0  0  0
  4  5  1  0  0  0  0
  4 20  1  0  0  0  0
  4 21  1  0  0  0  0
  5  6  1  0  0  0  0
  5 22  1  0  0  0  0
  5 23  1  0  0  0  0
  6 11  1  0  0  0  0
  6  7  2  0  0  0  0
  7  8  1  0  0  0  0
  7 24  1  0  0  0  0
  8  9  2  0  0  0  0
  8 25  1  0  0  0  0
  9 10  1  0  0  0  0
  9 26  1  0  0  0  0
 10 11  2  0  0  0  0
 10 39  1  0  0  0  0
 11 27  1  0  0  0  0
 12 17  1  0  0  0  0
 12 13  1  0  0  0  0
 12 28  1  0  0  0  0
 13 14  1  0  0  0  0
 13 29  1  0  0  0  0
 13 30  1  0  0  0  0
 14 18  1  0  0  0  0
 14 15  1  0  0  0  0
 14 31  1  0  0  0  0
 15 16  1  0  0  0  0
 15 32  1  0  0  0  0
 15 33  1  0  0  0  0
 16 17  1  0  0  0  0
 16 34  1  0  0  0  0
 16 35  1  0  0  0  0
 17 18  1  0  0  0  0
 17 36  1  0  0  0  0
 18 37  1  0  0  0  0
 18 38  1  0  0  0  0
M  CHG  1  10   1
M  END
> <s_m_source_file>
AV-unprocessed.smi

> <i_m_source_file_index>
3058

> <i_lp_mmshare_version>
43012

> <i_f3d_flags>
0

> <s_epik_input>
W0NIMl0xW0NIMl1bQ0BIXShbQ0gyXTIpW0NAQEhdKFtDSDJdW0NAQEhdMTIpQyg9TylbTkhdW0NIMl1bQ0gyXWMzW2NIXVtjSF1bY0hdbltjSF0z

> <s_epik_cmdline>
J2VwaWtfcHl0aG9uJywgJy1waCcsICc3LjAnLCAnLXRuJywgJzgnLCAnLW1hJywgJzIwMCcsICctbWV0YWxfYmluZGluZycsICctaW1hZScsICc8aW5maWxlLm1hZT4nLCAnLW9tYWUnLCAnPG91dGZpbGUubWFlPic=

> <r_epik_Ionization_Penalty>
2.24375

> <r_epik_Ionization_Penalty_Charging>
2.24375

> <r_epik_Ionization_Penalty_Neutral>
1.89995e-08

> <r_epik_State_Penalty>
2.39035

> <r_epik_Charging_Adjusted_Penalty>
4.63411

> <i_epik_Tot_Q>
1

> <i_epik_Tot_abs_Q>
1

> <r_epik_Metal_State_Penalty>
2.40369

> <b_epik_Metal_Only>
0

> <s_lp_Force_Field>
OPLS_2005

> <r_lp_Energy>
54.0755

> <b_lp_Chiralities_Consistent>
1

> <s_lp_Variant>
AV-unprocessed.smi:3058-7

> <Gold.Version>
5.8.1

> <Gold.Id.Protein>
6NUR|6NUR_protein|mol2

> <Gold.PLP.Fitness>
45.6941

> <Gold.PLP.PLP>
-38.2090

> <Gold.PLP.part.hbond>
-3.0000

> <Gold.PLP.part.metal>
0.0000

> <Gold.PLP.part.buried>
4.8888

> <Gold.PLP.part.nonpolar>
-40.5243

> <Gold.PLP.part.repulsive>
0.1326

> <Gold.PLP.ligand.clash>
0.0000

> <Gold.PLP.ligand.torsion>
0.2971

> <Gold.PLP.Chemscore.Hbond>
2.6880

> <Gold.PLP.Chemscore.CHOScore>
0.0000

> <Gold.PLP.Chemscore.Metal>
0.0000

> <Gold.Chemscore.Hbonds>
donor molecule, donor type, donor heavy atom, donor atom, acceptor molecule, acceptor atom, score
      L1  H     3    19       P1  8028  0.96
      L1  H    10    39       P1  7948  1.82

> <Gold.PLP.Chemscore.Internal.Correction>
0.0154

> <Gold.Rescore>
     Score         DG    S(hbond)    S(metal)    S(lipo)     H(rot)  DE(clash)    DE(int)     intcor
     20.49     -23.03       1.71        0.00     132.99       1.45       2.40       0.14       ----

> <Gold.Chemscore.Fitness>
20.4895

> <Gold.Chemscore.DG>
-23.0289

> <Gold.Chemscore.ZeroCoef>
-5.4800

> <Gold.Chemscore.Hbond>
1.7107

> <Gold.Chemscore.Metal>
0.0000

> <Gold.Chemscore.Lipo>
132.9860

> <Gold.Chemscore.Internal_Hbond>
0.0000

> <Gold.Chemscore.DEClash>
2.3955

> <Gold.Chemscore.DEInternal>
0.1439

> <Gold.Chemscore.Rot>
1.4548

> <Gold.Chemscore.Internal.Correction>
   9.000000E+99

> <Gold.Chemscore.Hbonds>
donor molecule, donor type, donor heavy atom, donor atom, acceptor molecule, acceptor atom, score
      L1  H     3    19       P1  8028  0.92
      L1  H    10    39       P1  7948  0.89

> <Gold.Chemscore.Hbond.Weighted>
-5.7137

> <Gold.Chemscore.Metal.Weighted>
-0.0000

> <Gold.Chemscore.Lipo.Weighted>
-15.5594

> <Gold.Chemscore.Internal_Hbond.Weighted>
0.0000

> <Gold.Chemscore.DEClash.Weighted>
2.3955

> <Gold.Chemscore.DEInternal.Weighted>
0.1439

> <Gold.Chemscore.Rot.Weighted>
3.7242

> <Gold.Chemscore.Internal.Correction.Weighted>
   9.000000E+99

> <Gold.Protein.RotatedTorsions>
[ 6907 6896 6895 6894 ] final  161.13 input  -60.11 | X-H torsion
[ 7974 7965 7964 7962 ] final  -71.77 input  175.53 | X-H torsion
[ 8008 7997 7996 7995 ] final   48.85 input   59.86 | X-H torsion
[ 10167 10162 10161 10158 ] final   -4.91 input  -65.29 | X-H torsion
[ 10718 10713 10712 10709 ] final   20.98 input   66.30 | X-H torsion
[ 10763 10752 10751 10750 ] final  126.83 input  -60.55 | X-H torsion
[ 11005 11000 10999 10996 ] final  -59.49 input  -57.11 | X-H torsion

> <Gold.Protein.ActiveResidues>
 VAL166  LYS551  ARG553  GLY616  TRP617  ASP618  TYR619  PRO620  LYS621  CYS622 
 ASP623  PHE694  ASN695  SER759  ASP760  ASP761  ALA762  ILE779  LEU786  VAL792 
 PHE793  MET794  SER795  GLU796  ALA797  LYS798  CYS799  TRP800  GLU811  SER814 

> <Gold.Protein.RotatedAtoms>
  151.9603  133.3693  159.4032 H   0  0  0  0  0  0  0  0  0  0  0  0  # atno 6907 bound_to 6896
  150.6965  134.4248  159.5230 H   0  0  0  0  0  0  0  0  0  0  0  0  # atno 6908 bound_to 6896
  152.1935  134.8651  160.0566 H   0  0  0  0  0  0  0  0  0  0  0  0  # atno 6909 bound_to 6896
  145.6738  140.9212  143.0869 H   0  0  0  0  0  0  0  0  0  0  0  0  # atno 7974 bound_to 7965
  155.3924  140.3434  155.4252 H   0  0  0  0  0  0  0  0  0  0  0  0  # atno 8008 bound_to 7997
  156.1550  140.1582  156.8741 H   0  0  0  0  0  0  0  0  0  0  0  0  # atno 8009 bound_to 7997
  154.5086  140.0796  156.7926 H   0  0  0  0  0  0  0  0  0  0  0  0  # atno 8010 bound_to 7997
  140.6944  143.6369  150.8471 H   0  0  0  0  0  0  0  0  0  0  0  0  # atno 10167 bound_to 10162
  157.1321  130.6595  149.5955 H   0  0  0  0  0  0  0  0  0  0  0  0  # atno 10718 bound_to 10713
  153.6997  135.3285  155.3222 H   0  0  0  0  0  0  0  0  0  0  0  0  # atno 10763 bound_to 10752
  154.8416  135.4451  154.1424 H   0  0  0  0  0  0  0  0  0  0  0  0  # atno 10764 bound_to 10752
  153.2488  135.6979  153.7780 H   0  0  0  0  0  0  0  0  0  0  0  0  # atno 10765 bound_to 10752
  141.1250  133.6616  156.5080 H   0  0  0  0  0  0  0  0  0  0  0  0  # atno 11005 bound_to 11000
  144.7048  139.8606  143.7433 LP  0  0  0  0  0  0  0  0  0  0  0  0  # atno 17320 bound_to 7965
  146.1023  139.4020  143.0339 LP  0  0  0  0  0  0  0  0  0  0  0  0  # atno 17321 bound_to 7965
  140.0086  143.5667  152.2848 LP  0  0  0  0  0  0  0  0  0  0  0  0  # atno 17342 bound_to 10162
  139.6383  144.7652  151.2393 LP  0  0  0  0  0  0  0  0  0  0  0  0  # atno 17343 bound_to 10162
  155.9806  130.4807  150.6780 LP  0  0  0  0  0  0  0  0  0  0  0  0  # atno 17370 bound_to 10713
  157.4383  131.0858  151.0969 LP  0  0  0  0  0  0  0  0  0  0  0  0  # atno 17371 bound_to 10713
  140.4392  134.7031  157.4983 LP  0  0  0  0  0  0  0  0  0  0  0  0  # atno 17394 bound_to 11000
  140.0241  134.6504  155.9198 LP  0  0  0  0  0  0  0  0  0  0  0  0  # atno 17395 bound_to 11000

$$$$
