AV-unprocessed.smi:2510|AV-procd|sdf|9881|dock4
  -GOLD-   2272013513D 1   1.00000     0.00000
 Structure written by MMmdl.
 48 49  0  0  0  0  0  0  0  0  1 V2000
  150.2270  137.6257  157.8258 C   0  0  0  0  0  0  0  0  0  0  0  0
  149.7859  138.5307  156.6633 C   0  0  0  0  0  0  0  0  0  0  0  0
  149.5773  137.8051  155.3113 C   0  0  0  0  0  0  0  0  0  0  0  0
  150.9317  137.2277  154.8301 C   0  0  0  0  0  0  0  0  0  0  0  0
  152.0110  138.2750  154.5156 C   0  0  0  0  0  0  0  0  0  0  0  0
  148.3344  136.8632  155.3072 C   0  0  2  0  0  0  0  0  0  0  0  0
  148.4563  135.7270  154.3940 N   0  0  0  0  0  0  0  0  0  0  0  0
  148.3487  134.4399  154.7565 C   0  0  0  0  0  0  0  0  0  0  0  0
  148.0500  134.0772  155.8938 O   0  0  0  0  0  0  0  0  0  0  0  0
  148.6547  133.4032  153.6754 C   0  0  0  0  0  0  0  0  0  0  0  0
  147.5395  133.3375  152.6807 C   0  0  0  0  0  0  0  0  0  0  0  0
  146.7409  132.2998  152.2882 C   0  0  0  0  0  0  0  0  0  0  0  0
  145.8502  132.8803  151.3385 C   0  0  0  0  0  0  0  0  0  0  0  0
  144.7426  132.2116  150.5793 C   0  0  0  0  0  0  0  0  0  0  0  0
  146.0816  134.1708  151.1507 N   0  0  0  0  0  0  0  0  0  0  0  0
  147.1138  134.4380  151.9715 N   0  0  0  0  0  0  0  0  0  0  0  0
  147.4898  137.9991  154.7014 C   0  0  2  0  0  0  0  0  0  0  0  0
  146.3900  137.6940  153.6875 C   0  0  0  0  0  0  0  0  0  0  0  0
  148.8154  138.6169  154.2342 C   0  0  1  0  0  0  0  0  0  0  0  0
  148.9269  140.0202  154.4205 O   0  0  0  0  0  0  0  0  0  0  0  0
  147.9443  140.7555  153.7131 C   0  0  0  0  0  0  0  0  0  0  0  0
  147.5065  135.3658  152.0439 H   0  0  0  0  0  0  0  0  0  0  0  0
  150.2353  138.1845  158.7616 H   0  0  0  0  0  0  0  0  0  0  0  0
  151.2335  137.2362  157.6771 H   0  0  0  0  0  0  0  0  0  0  0  0
  149.5538  136.7786  157.9559 H   0  0  0  0  0  0  0  0  0  0  0  0
  148.8576  139.0146  156.9672 H   0  0  0  0  0  0  0  0  0  0  0  0
  150.4952  139.3513  156.5605 H   0  0  0  0  0  0  0  0  0  0  0  0
  151.3220  136.5011  155.5423 H   0  0  0  0  0  0  0  0  0  0  0  0
  150.7865  136.6621  153.9100 H   0  0  0  0  0  0  0  0  0  0  0  0
  152.8801  137.8006  154.0598 H   0  0  0  0  0  0  0  0  0  0  0  0
  152.3591  138.7848  155.4133 H   0  0  0  0  0  0  0  0  0  0  0  0
  151.6430  139.0274  153.8179 H   0  0  0  0  0  0  0  0  0  0  0  0
  147.9823  136.5844  156.3015 H   0  0  0  0  0  0  0  0  0  0  0  0
  148.7038  135.9329  153.4371 H   0  0  0  0  0  0  0  0  0  0  0  0
  149.5905  133.6570  153.1756 H   0  0  0  0  0  0  0  0  0  0  0  0
  148.8015  132.4291  154.1432 H   0  0  0  0  0  0  0  0  0  0  0  0
  146.7796  131.2782  152.6360 H   0  0  0  0  0  0  0  0  0  0  0  0
  144.5190  131.2287  150.9942 H   0  0  0  0  0  0  0  0  0  0  0  0
  145.0127  132.0767  149.5318 H   0  0  0  0  0  0  0  0  0  0  0  0
  143.8263  132.8015  150.6156 H   0  0  0  0  0  0  0  0  0  0  0  0
  147.0847  138.5963  155.5202 H   0  0  0  0  0  0  0  0  0  0  0  0
  146.7926  137.2585  152.7727 H   0  0  0  0  0  0  0  0  0  0  0  0
  145.8484  138.5970  153.4071 H   0  0  0  0  0  0  0  0  0  0  0  0
  145.6630  136.9923  154.0964 H   0  0  0  0  0  0  0  0  0  0  0  0
  149.0878  138.3032  153.2238 H   0  0  0  0  0  0  0  0  0  0  0  0
  148.1112  141.8223  153.8614 H   0  0  0  0  0  0  0  0  0  0  0  0
  146.9407  140.5229  154.0686 H   0  0  0  0  0  0  0  0  0  0  0  0
  147.9939  140.5535  152.6424 H   0  0  0  0  0  0  0  0  0  0  0  0
  1  2  1  0  0  0  0
  1 23  1  0  0  0  0
  1 24  1  0  0  0  0
  1 25  1  0  0  0  0
  2  3  1  0  0  0  0
  2 26  1  0  0  0  0
  2 27  1  0  0  0  0
  3 19  1  0  0  0  0
  3  4  1  0  0  0  0
  3  6  1  0  0  0  0
  4  5  1  0  0  0  0
  4 28  1  0  0  0  0
  4 29  1  0  0  0  0
  5 30  1  0  0  0  0
  5 31  1  0  0  0  0
  5 32  1  0  0  0  0
  6  7  1  0  0  0  0
  6 17  1  0  0  0  0
  6 33  1  0  0  0  0
  7  8  1  0  0  0  0
  7 34  1  0  0  0  0
  8  9  2  0  0  0  0
  8 10  1  0  0  0  0
 10 35  1  0  0  0  0
 10 36  1  0  0  0  0
 10 11  1  0  0  0  0
 11 16  1  0  0  0  0
 11 12  2  0  0  0  0
 12 13  1  0  0  0  0
 12 37  1  0  0  0  0
 13 14  1  0  0  0  0
 13 15  2  0  0  0  0
 14 38  1  0  0  0  0
 14 39  1  0  0  0  0
 14 40  1  0  0  0  0
 15 16  1  0  0  0  0
 16 22  1  0  0  0  0
 17 18  1  0  0  0  0
 17 19  1  0  0  0  0
 17 41  1  0  0  0  0
 18 42  1  0  0  0  0
 18 43  1  0  0  0  0
 18 44  1  0  0  0  0
 19 20  1  0  0  0  0
 19 45  1  0  0  0  0
 20 21  1  0  0  0  0
 21 46  1  0  0  0  0
 21 47  1  0  0  0  0
 21 48  1  0  0  0  0
M  END
> <s_m_source_file>
AV-unprocessed.smi

> <i_m_source_file_index>
2510

> <i_lp_mmshare_version>
43012

> <i_f3d_flags>
0

> <s_epik_input>
W0NIM11PW0NAQEhdMVtDQEhdKFtDSDNdKVtDQEBIXShDMShbQ0gyXVtDSDNdKVtDSDJdW0NIM10pW05IXUMoPU8pW0NIMl1jMltjSF1jKFtDSDNdKVtuSF1uMg==

> <s_epik_cmdline>
J2VwaWtfcHl0aG9uJywgJy1waCcsICc3LjAnLCAnLXRuJywgJzgnLCAnLW1hJywgJzIwMCcsICctbWV0YWxfYmluZGluZycsICctaW1hZScsICc8aW5maWxlLm1hZT4nLCAnLW9tYWUnLCAnPG91dGZpbGUubWFlPic=

> <r_lp_tautomer_probability>
0.5

> <r_epik_Ionization_Penalty>
0.000134763

> <r_epik_Ionization_Penalty_Charging>
0

> <r_epik_Ionization_Penalty_Neutral>
0.000134763

> <r_epik_State_Penalty>
0.41068

> <r_epik_Charging_Adjusted_Penalty>
0.41068

> <i_epik_Tot_Q>
0

> <i_epik_Tot_abs_Q>
0

> <r_epik_Metal_State_Penalty>
0.410661

> <b_epik_Metal_Only>
0

> <s_lp_Force_Field>
OPLS_2005

> <r_lp_Energy>
24.0531

> <b_lp_Chiralities_Consistent>
1

> <s_lp_Variant>
AV-unprocessed.smi:2510-12

> <Gold.Version>
5.8.1

> <Gold.Id.Protein>
6NUR|6NUR_protein|mol2

> <Gold.PLP.Fitness>
34.2533

> <Gold.PLP.PLP>
-29.2297

> <Gold.PLP.part.hbond>
-2.0000

> <Gold.PLP.part.metal>
0.0000

> <Gold.PLP.part.buried>
-4.2345

> <Gold.PLP.part.nonpolar>
-23.2557

> <Gold.PLP.part.repulsive>
0.3400

> <Gold.PLP.ligand.clash>
0.0000

> <Gold.PLP.ligand.torsion>
0.4984

> <Gold.PLP.Chemscore.Hbond>
1.8160

> <Gold.PLP.Chemscore.CHOScore>
0.0000

> <Gold.PLP.Chemscore.Metal>
0.0000

> <Gold.Chemscore.Hbonds>
donor molecule, donor type, donor heavy atom, donor atom, acceptor molecule, acceptor atom, score
      L1  H     7    34       P1  7948  1.00
      L1  H    16    22       P1  7948  0.82

> <Gold.PLP.Chemscore.Internal.Correction>
0.5723

> <Gold.Rescore>
     Score         DG    S(hbond)    S(metal)    S(lipo)     H(rot)  DE(clash)    DE(int)     intcor
     15.34     -15.86       1.88        0.00      74.62       1.81       0.01       0.51       ----

> <Gold.Chemscore.Fitness>
15.3404

> <Gold.Chemscore.DG>
-15.8636

> <Gold.Chemscore.ZeroCoef>
-5.4800

> <Gold.Chemscore.Hbond>
1.8825

> <Gold.Chemscore.Metal>
0.0000

> <Gold.Chemscore.Lipo>
74.6171

> <Gold.Chemscore.Internal_Hbond>
0.0000

> <Gold.Chemscore.DEClash>
0.0149

> <Gold.Chemscore.DEInternal>
0.5083

> <Gold.Chemscore.Rot>
1.8102

> <Gold.Chemscore.Internal.Correction>
   9.000000E+99

> <Gold.Chemscore.Hbonds>
donor molecule, donor type, donor heavy atom, donor atom, acceptor molecule, acceptor atom, score
      L1  H     7    34       P1  7948  0.99
      L1  H    16    22       P1  7948  0.81

> <Gold.Chemscore.Hbond.Weighted>
-6.2875

> <Gold.Chemscore.Metal.Weighted>
-0.0000

> <Gold.Chemscore.Lipo.Weighted>
-8.7302

> <Gold.Chemscore.Internal_Hbond.Weighted>
0.0000

> <Gold.Chemscore.DEClash.Weighted>
0.0149

> <Gold.Chemscore.DEInternal.Weighted>
0.5083

> <Gold.Chemscore.Rot.Weighted>
4.6341

> <Gold.Chemscore.Internal.Correction.Weighted>
   9.000000E+99

> <Gold.Protein.RotatedTorsions>
[ 6907 6896 6895 6894 ] final   36.57 input  -60.11 | X-H torsion
[ 7974 7965 7964 7962 ] final  143.81 input  175.53 | X-H torsion
[ 8008 7997 7996 7995 ] final    8.47 input   59.86 | X-H torsion
[ 10167 10162 10161 10158 ] final  158.29 input  -65.29 | X-H torsion
[ 10718 10713 10712 10709 ] final   93.55 input   66.30 | X-H torsion
[ 10763 10752 10751 10750 ] final  101.01 input  -60.55 | X-H torsion
[ 11005 11000 10999 10996 ] final   56.40 input  -57.11 | X-H torsion

> <Gold.Protein.ActiveResidues>
 VAL166  LYS551  ARG553  GLY616  TRP617  ASP618  TYR619  PRO620  LYS621  CYS622 
 ASP623  PHE694  ASN695  SER759  ASP760  ASP761  ALA762  ILE779  LEU786  VAL792 
 PHE793  MET794  SER795  GLU796  ALA797  LYS798  CYS799  TRP800  GLU811  SER814 

> <Gold.Protein.RotatedAtoms>
  152.1315  134.9131  160.0558 H   0  0  0  0  0  0  0  0  0  0  0  0  # atno 6907 bound_to 6896
  152.0234  133.3903  159.4276 H   0  0  0  0  0  0  0  0  0  0  0  0  # atno 6908 bound_to 6896
  150.6857  134.3522  159.4958 H   0  0  0  0  0  0  0  0  0  0  0  0  # atno 6909 bound_to 6896
  144.8888  139.5588  143.5808 H   0  0  0  0  0  0  0  0  0  0  0  0  # atno 7974 bound_to 7965
  154.7673  140.2795  155.6166 H   0  0  0  0  0  0  0  0  0  0  0  0  # atno 8008 bound_to 7997
  156.2927  140.2648  156.2394 H   0  0  0  0  0  0  0  0  0  0  0  0  # atno 8009 bound_to 7997
  154.9944  140.0373  157.2323 H   0  0  0  0  0  0  0  0  0  0  0  0  # atno 8010 bound_to 7997
  139.4826  144.4838  151.8406 H   0  0  0  0  0  0  0  0  0  0  0  0  # atno 10167 bound_to 10162
  157.6954  131.0482  150.4052 H   0  0  0  0  0  0  0  0  0  0  0  0  # atno 10718 bound_to 10713
  153.3212  135.4059  155.1418 H   0  0  0  0  0  0  0  0  0  0  0  0  # atno 10763 bound_to 10752
  154.8601  135.3588  154.5594 H   0  0  0  0  0  0  0  0  0  0  0  0  # atno 10764 bound_to 10752
  153.6028  135.7070  153.5437 H   0  0  0  0  0  0  0  0  0  0  0  0  # atno 10765 bound_to 10752
  140.0532  134.5708  155.9239 H   0  0  0  0  0  0  0  0  0  0  0  0  # atno 11005 bound_to 11000
  146.3041  139.7522  142.9069 LP  0  0  0  0  0  0  0  0  0  0  0  0  # atno 17320 bound_to 7965
  145.3819  141.0359  143.3172 LP  0  0  0  0  0  0  0  0  0  0  0  0  # atno 17321 bound_to 7965
  140.4317  144.2107  150.5888 LP  0  0  0  0  0  0  0  0  0  0  0  0  # atno 17342 bound_to 10162
  140.4773  143.2391  151.9005 LP  0  0  0  0  0  0  0  0  0  0  0  0  # atno 17343 bound_to 10162
  156.4441  130.3998  149.6678 LP  0  0  0  0  0  0  0  0  0  0  0  0  # atno 17370 bound_to 10713
  156.3851  130.7598  151.2595 LP  0  0  0  0  0  0  0  0  0  0  0  0  # atno 17371 bound_to 10713
  141.1940  133.6581  156.5573 LP  0  0  0  0  0  0  0  0  0  0  0  0  # atno 17394 bound_to 11000
  140.3885  134.7461  157.4707 LP  0  0  0  0  0  0  0  0  0  0  0  0  # atno 17395 bound_to 11000

$$$$
