AV-unprocessed.smi:2597|AV-procd|sdf|10172|dock8
  -GOLD-   2272014183D 1   1.00000     0.00000
 Structure written by MMmdl.
 31 32  0  0  0  0  0  0  0  0  2 V2000
  150.6638  144.2691  157.7458 N   0  3  0  0  0  0  0  0  0  0  0  0
  151.7735  143.3347  158.0134 C   0  0  1  0  0  0  0  0  0  0  0  0
  152.3787  143.6173  159.4017 C   0  0  0  0  0  0  0  0  0  0  0  0
  153.5209  142.6427  159.7289 C   0  0  0  0  0  0  0  0  0  0  0  0
  153.0504  141.1842  159.6295 C   0  0  0  0  0  0  0  0  0  0  0  0
  152.4529  140.8885  158.2456 C   0  0  0  0  0  0  0  0  0  0  0  0
  151.3041  141.8605  157.9048 C   0  0  2  0  0  0  0  0  0  0  0  0
  150.7415  141.5462  156.5973 N   0  0  0  0  0  0  0  0  0  0  0  0
  149.5701  142.0163  156.0403 C   0  0  0  0  0  0  0  0  0  0  0  0
  149.5138  141.3841  154.8304 C   0  0  0  0  0  0  0  0  0  0  0  0
  148.4719  141.4777  153.7580 C   0  0  0  0  0  0  0  0  0  0  0  0
  148.1396  140.1540  153.3997 O   0  0  0  0  0  0  0  0  0  0  0  0
  150.6347  140.5659  154.7024 N   0  0  0  0  0  0  0  0  0  0  0  0
  151.3561  140.6603  155.7737 N   0  0  0  0  0  0  0  0  0  0  0  0
  152.5428  143.5263  157.2639 H   0  0  0  0  0  0  0  0  0  0  0  0
  150.5099  141.7043  158.6373 H   0  0  0  0  0  0  0  0  0  0  0  0
  151.0022  145.2196  157.7929 H   0  0  0  0  0  0  0  0  0  0  0  0
  149.9392  144.1358  158.4373 H   0  0  0  0  0  0  0  0  0  0  0  0
  152.7503  144.6417  159.4471 H   0  0  0  0  0  0  0  0  0  0  0  0
  151.6056  143.5349  160.1671 H   0  0  0  0  0  0  0  0  0  0  0  0
  154.3520  142.8069  159.0417 H   0  0  0  0  0  0  0  0  0  0  0  0
  153.9042  142.8410  160.7303 H   0  0  0  0  0  0  0  0  0  0  0  0
  153.8850  140.5102  159.8252 H   0  0  0  0  0  0  0  0  0  0  0  0
  152.3050  140.9856  160.4005 H   0  0  0  0  0  0  0  0  0  0  0  0
  153.2393  140.9602  157.4928 H   0  0  0  0  0  0  0  0  0  0  0  0
  152.0925  139.8594  158.2157 H   0  0  0  0  0  0  0  0  0  0  0  0
  148.9077  142.7163  156.5277 H   0  0  0  0  0  0  0  0  0  0  0  0
  147.5816  141.9953  154.1150 H   0  0  0  0  0  0  0  0  0  0  0  0
  148.8406  142.0117  152.8817 H   0  0  0  0  0  0  0  0  0  0  0  0
  148.4831  139.9813  152.5365 H   0  0  0  0  0  0  0  0  0  0  0  0
  150.2869  144.0912  156.8258 H   0  0  0  0  0  0  0  0  0  0  0  0
  1  2  1  0  0  0  0
  1 17  1  0  0  0  0
  1 18  1  0  0  0  0
  1 31  1  0  0  0  0
  2 15  1  0  0  0  0
  2  7  1  0  0  0  0
  2  3  1  0  0  0  0
  3  4  1  0  0  0  0
  3 19  1  0  0  0  0
  3 20  1  0  0  0  0
  4  5  1  0  0  0  0
  4 21  1  0  0  0  0
  4 22  1  0  0  0  0
  5  6  1  0  0  0  0
  5 23  1  0  0  0  0
  5 24  1  0  0  0  0
  6  7  1  0  0  0  0
  6 25  1  0  0  0  0
  6 26  1  0  0  0  0
  7 16  1  0  0  0  0
  7  8  1  0  0  0  0
  8 14  1  0  0  0  0
  8  9  1  0  0  0  0
  9 10  2  0  0  0  0
  9 27  1  0  0  0  0
 10 11  1  0  0  0  0
 10 13  1  0  0  0  0
 11 12  1  0  0  0  0
 11 28  1  0  0  0  0
 11 29  1  0  0  0  0
 12 30  1  0  0  0  0
 13 14  2  0  0  0  0
M  CHG  1   1   1
M  END
> <s_m_source_file>
AV-unprocessed.smi

> <i_m_source_file_index>
2597

> <i_lp_mmshare_version>
43012

> <i_f3d_flags>
0

> <s_epik_input>
W05IMl1bQ0BIXTFbQ0gyXVtDSDJdW0NIMl1bQ0gyXVtDQEhdMW4yW2NIXWMobm4yKVtDSDJdW09IXQ==

> <s_epik_cmdline>
J2VwaWtfcHl0aG9uJywgJy1waCcsICc3LjAnLCAnLXRuJywgJzgnLCAnLW1hJywgJzIwMCcsICctbWV0YWxfYmluZGluZycsICctaW1hZScsICc8aW5maWxlLm1hZT4nLCAnLW9tYWUnLCAnPG91dGZpbGUubWFlPic=

> <r_lp_tautomer_probability>
1

> <r_epik_Ionization_Penalty>
0.014346

> <r_epik_Ionization_Penalty_Charging>
0.014316

> <r_epik_Ionization_Penalty_Neutral>
3.00097e-05

> <r_epik_State_Penalty>
0.0111909

> <r_epik_Charging_Adjusted_Penalty>
0.0255069

> <i_epik_Tot_Q>
1

> <i_epik_Tot_abs_Q>
1

> <r_epik_Metal_State_Penalty>
0.011192

> <b_epik_Metal_Only>
0

> <s_lp_Force_Field>
OPLS_2005

> <r_lp_Energy>
13.7949

> <b_lp_Chiralities_Consistent>
1

> <s_lp_Variant>
AV-unprocessed.smi:2597-3

> <Gold.Version>
5.8.1

> <Gold.Id.Protein>
6NUR|6NUR_protein|mol2

> <Gold.PLP.Fitness>
42.9538

> <Gold.PLP.PLP>
-30.7444

> <Gold.PLP.part.hbond>
-3.7247

> <Gold.PLP.part.metal>
0.0000

> <Gold.PLP.part.buried>
-0.3089

> <Gold.PLP.part.nonpolar>
-25.6308

> <Gold.PLP.part.repulsive>
0.1423

> <Gold.PLP.ligand.clash>
0.0000

> <Gold.PLP.ligand.torsion>
0.2774

> <Gold.PLP.Chemscore.Hbond>
3.5360

> <Gold.PLP.Chemscore.CHOScore>
0.7094

> <Gold.PLP.Chemscore.Metal>
0.0000

> <Gold.Chemscore.Hbonds>
donor molecule, donor type, donor heavy atom, donor atom, acceptor molecule, acceptor atom, score
      L1  H     1    31       P1  8028  1.54
      L1  H    12    30       P1  7957  1.00
      P1  H  7989  7998       L1    13  1.00
      L1  C     9    27       P1  8028  0.71

> <Gold.PLP.Chemscore.Internal.Correction>
0.0279

> <Gold.Rescore>
     Score         DG    S(hbond)    S(metal)    S(lipo)     H(rot)  DE(clash)    DE(int)     intcor
     17.99     -18.65       2.47        0.00      82.67       1.86       0.13       0.53       ----

> <Gold.Chemscore.Fitness>
17.9928

> <Gold.Chemscore.DG>
-18.6492

> <Gold.Chemscore.ZeroCoef>
-5.4800

> <Gold.Chemscore.Hbond>
2.4689

> <Gold.Chemscore.Metal>
0.0000

> <Gold.Chemscore.Lipo>
82.6681

> <Gold.Chemscore.Internal_Hbond>
0.0000

> <Gold.Chemscore.DEClash>
0.1270

> <Gold.Chemscore.DEInternal>
0.5294

> <Gold.Chemscore.Rot>
1.8551

> <Gold.Chemscore.Internal.Correction>
   9.000000E+99

> <Gold.Chemscore.Hbonds>
donor molecule, donor type, donor heavy atom, donor atom, acceptor molecule, acceptor atom, score
      L1  H     1    31       P1  8028  0.77
      L1  H    12    30       P1  7957  0.99
      P1  H  7989  7998       L1    13  0.44

> <Gold.Chemscore.Hbond.Weighted>
-8.2460

> <Gold.Chemscore.Metal.Weighted>
-0.0000

> <Gold.Chemscore.Lipo.Weighted>
-9.6722

> <Gold.Chemscore.Internal_Hbond.Weighted>
0.0000

> <Gold.Chemscore.DEClash.Weighted>
0.1270

> <Gold.Chemscore.DEInternal.Weighted>
0.5294

> <Gold.Chemscore.Rot.Weighted>
4.7489

> <Gold.Chemscore.Internal.Correction.Weighted>
   9.000000E+99

> <Gold.Protein.RotatedTorsions>
[ 6907 6896 6895 6894 ] final  -51.93 input  -60.11 | X-H torsion
[ 7974 7965 7964 7962 ] final  161.15 input  175.53 | X-H torsion
[ 8008 7997 7996 7995 ] final  -49.94 input   59.86 | X-H torsion
[ 10167 10162 10161 10158 ] final  -65.99 input  -65.29 | X-H torsion
[ 10718 10713 10712 10709 ] final  112.46 input   66.30 | X-H torsion
[ 10763 10752 10751 10750 ] final   17.65 input  -60.55 | X-H torsion
[ 11005 11000 10999 10996 ] final   99.74 input  -57.11 | X-H torsion

> <Gold.Protein.ActiveResidues>
 VAL166  LYS551  ARG553  GLY616  TRP617  ASP618  TYR619  PRO620  LYS621  CYS622 
 ASP623  PHE694  ASN695  SER759  ASP760  ASP761  ALA762  ILE779  LEU786  VAL792 
 PHE793  MET794  SER795  GLU796  ALA797  LYS798  CYS799  TRP800  GLU811  SER814 

> <Gold.Protein.RotatedAtoms>
  150.8565  134.7905  159.7049 H   0  0  0  0  0  0  0  0  0  0  0  0  # atno 6907 bound_to 6896
  152.4615  134.5170  159.9781 H   0  0  0  0  0  0  0  0  0  0  0  0  # atno 6908 bound_to 6896
  151.5282  133.3416  159.2949 H   0  0  0  0  0  0  0  0  0  0  0  0  # atno 6909 bound_to 6896
  144.7700  139.7857  143.6300 H   0  0  0  0  0  0  0  0  0  0  0  0  # atno 7974 bound_to 7965
  154.4053  140.1284  156.4585 H   0  0  0  0  0  0  0  0  0  0  0  0  # atno 8008 bound_to 7997
  155.7297  140.3491  155.5034 H   0  0  0  0  0  0  0  0  0  0  0  0  # atno 8009 bound_to 7997
  155.9139  140.1040  157.1249 H   0  0  0  0  0  0  0  0  0  0  0  0  # atno 8010 bound_to 7997
  140.5690  143.2316  151.6577 H   0  0  0  0  0  0  0  0  0  0  0  0  # atno 10167 bound_to 10162
  157.6391  131.0968  150.6898 H   0  0  0  0  0  0  0  0  0  0  0  0  # atno 10718 bound_to 10713
  153.1320  135.6742  153.9164 H   0  0  0  0  0  0  0  0  0  0  0  0  # atno 10763 bound_to 10752
  153.8647  135.3077  155.3440 H   0  0  0  0  0  0  0  0  0  0  0  0  # atno 10764 bound_to 10752
  154.7715  135.4937  153.9740 H   0  0  0  0  0  0  0  0  0  0  0  0  # atno 10765 bound_to 10752
  139.8770  134.9109  156.4651 H   0  0  0  0  0  0  0  0  0  0  0  0  # atno 11005 bound_to 11000
  146.1839  139.5045  142.9848 LP  0  0  0  0  0  0  0  0  0  0  0  0  # atno 17320 bound_to 7965
  145.6352  141.0296  143.1841 LP  0  0  0  0  0  0  0  0  0  0  0  0  # atno 17321 bound_to 7965
  139.5107  144.3532  152.0632 LP  0  0  0  0  0  0  0  0  0  0  0  0  # atno 17342 bound_to 10162
  140.2668  144.4008  150.6166 LP  0  0  0  0  0  0  0  0  0  0  0  0  # atno 17343 bound_to 10162
  156.7225  130.4685  149.5519 LP  0  0  0  0  0  0  0  0  0  0  0  0  # atno 17370 bound_to 10713
  156.1656  130.6403  151.0774 LP  0  0  0  0  0  0  0  0  0  0  0  0  # atno 17371 bound_to 10713
  140.8836  133.7900  155.9493 LP  0  0  0  0  0  0  0  0  0  0  0  0  # atno 17394 bound_to 11000
  140.8828  134.2590  157.5135 LP  0  0  0  0  0  0  0  0  0  0  0  0  # atno 17395 bound_to 11000

$$$$
