AV-unprocessed.smi:2947|AV-procd|sdf|11282|dock6
  -GOLD-   2272016173D 1   1.00000     0.00000
 Structure written by MMmdl.
 33 34  0  0  0  0  0  0  0  0  1 V2000
  150.7013  140.6311  156.2997 O   0  0  0  0  0  0  0  0  0  0  0  0
  150.1526  141.7076  156.0618 C   0  0  0  0  0  0  0  0  0  0  0  0
  149.1371  141.8897  155.1993 N   0  0  0  0  0  0  0  0  0  0  0  0
  148.4883  140.9200  154.3889 C   0  0  0  0  0  0  0  0  0  0  0  0
  147.4642  141.4248  153.5560 C   0  0  0  0  0  0  0  0  0  0  0  0
  146.7593  140.5441  152.7127 C   0  0  0  0  0  0  0  0  0  0  0  0
  147.0973  139.1790  152.7237 C   0  0  0  0  0  0  0  0  0  0  0  0
  148.1293  138.7585  153.5827 C   0  0  0  0  0  0  0  0  0  0  0  0
  148.8059  139.6009  154.3918 N   0  0  0  0  0  0  0  0  0  0  0  0
  150.5042  142.8621  156.6470 N   0  0  0  0  0  0  0  0  0  0  0  0
  151.5709  143.0184  157.6315 C   0  0  0  0  0  0  0  0  0  0  0  0
  151.2843  142.1656  158.8851 C   0  0  0  0  0  0  0  0  0  0  0  0
  152.3562  142.3773  159.9665 C   0  0  0  0  0  0  0  0  0  0  0  0
  152.4950  143.8635  160.3317 C   0  0  0  0  0  0  0  0  0  0  0  0
  152.7873  144.7150  159.0863 C   0  0  0  0  0  0  0  0  0  0  0  0
  151.7154  144.5064  158.0041 C   0  0  0  0  0  0  0  0  0  0  0  0
  148.7878  142.8324  155.1110 H   0  0  0  0  0  0  0  0  0  0  0  0
  147.2177  142.4766  153.5597 H   0  0  0  0  0  0  0  0  0  0  0  0
  145.9738  140.9107  152.0688 H   0  0  0  0  0  0  0  0  0  0  0  0
  146.5799  138.4728  152.0913 H   0  0  0  0  0  0  0  0  0  0  0  0
  148.4195  137.7189  153.6215 H   0  0  0  0  0  0  0  0  0  0  0  0
  149.9981  143.6974  156.3919 H   0  0  0  0  0  0  0  0  0  0  0  0
  152.5132  142.6884  157.1890 H   0  0  0  0  0  0  0  0  0  0  0  0
  150.3052  142.4234  159.2917 H   0  0  0  0  0  0  0  0  0  0  0  0
  151.2393  141.1084  158.6205 H   0  0  0  0  0  0  0  0  0  0  0  0
  152.1066  141.7973  160.8554 H   0  0  0  0  0  0  0  0  0  0  0  0
  153.3142  141.9978  159.6092 H   0  0  0  0  0  0  0  0  0  0  0  0
  151.5759  144.2112  160.8051 H   0  0  0  0  0  0  0  0  0  0  0  0
  153.2903  143.9934  161.0664 H   0  0  0  0  0  0  0  0  0  0  0  0
  152.8388  145.7690  159.3605 H   0  0  0  0  0  0  0  0  0  0  0  0
  153.7671  144.4518  158.6853 H   0  0  0  0  0  0  0  0  0  0  0  0
  151.9704  145.0908  157.1193 H   0  0  0  0  0  0  0  0  0  0  0  0
  150.7606  144.8923  158.3648 H   0  0  0  0  0  0  0  0  0  0  0  0
  1  2  2  0  0  0  0
  2  3  1  0  0  0  0
  2 10  1  0  0  0  0
  3  4  1  0  0  0  0
  3 17  1  0  0  0  0
  4  9  1  0  0  0  0
  4  5  2  0  0  0  0
  5  6  1  0  0  0  0
  5 18  1  0  0  0  0
  6  7  2  0  0  0  0
  6 19  1  0  0  0  0
  7  8  1  0  0  0  0
  7 20  1  0  0  0  0
  8  9  2  0  0  0  0
  8 21  1  0  0  0  0
 10 11  1  0  0  0  0
 10 22  1  0  0  0  0
 11 16  1  0  0  0  0
 11 12  1  0  0  0  0
 11 23  1  0  0  0  0
 12 13  1  0  0  0  0
 12 24  1  0  0  0  0
 12 25  1  0  0  0  0
 13 14  1  0  0  0  0
 13 26  1  0  0  0  0
 13 27  1  0  0  0  0
 14 15  1  0  0  0  0
 14 28  1  0  0  0  0
 14 29  1  0  0  0  0
 15 16  1  0  0  0  0
 15 30  1  0  0  0  0
 15 31  1  0  0  0  0
 16 32  1  0  0  0  0
 16 33  1  0  0  0  0
M  END
> <s_m_source_file>
AV-unprocessed.smi

> <i_m_source_file_index>
2947

> <i_lp_mmshare_version>
43012

> <i_f3d_flags>
0

> <s_epik_input>
W0NIMl0xW0NIMl1bQ0gyXVtDSDJdW0NIMl1bQ0hdMVtOSF1DKD1PKVtOSF1jMltjSF1bY0hdW2NIXVtjSF1uMg==

> <s_epik_cmdline>
J2VwaWtfcHl0aG9uJywgJy1waCcsICc3LjAnLCAnLXRuJywgJzgnLCAnLW1hJywgJzIwMCcsICctbWV0YWxfYmluZGluZycsICctaW1hZScsICc8aW5maWxlLm1hZT4nLCAnLW9tYWUnLCAnPG91dGZpbGUubWFlPic=

> <r_lp_tautomer_probability>
1

> <r_epik_Ionization_Penalty>
5.26121e-05

> <r_epik_Ionization_Penalty_Charging>
0

> <r_epik_Ionization_Penalty_Neutral>
5.26121e-05

> <r_epik_State_Penalty>
-0

> <r_epik_Charging_Adjusted_Penalty>
0

> <i_epik_Tot_Q>
0

> <i_epik_Tot_abs_Q>
0

> <r_epik_Metal_State_Penalty>
-0

> <b_epik_Metal_Only>
0

> <s_lp_Force_Field>
OPLS_2005

> <r_lp_Energy>
11.3585

> <b_lp_Chiralities_Consistent>
1

> <s_lp_Variant>
AV-unprocessed.smi:2947-1

> <Gold.Version>
5.8.1

> <Gold.Id.Protein>
6NUR|6NUR_protein|mol2

> <Gold.PLP.Fitness>
42.6867

> <Gold.PLP.PLP>
-33.6949

> <Gold.PLP.part.hbond>
-2.0000

> <Gold.PLP.part.metal>
0.0000

> <Gold.PLP.part.buried>
-1.0208

> <Gold.PLP.part.nonpolar>
-29.3745

> <Gold.PLP.part.repulsive>
0.3816

> <Gold.PLP.ligand.clash>
0.0000

> <Gold.PLP.ligand.torsion>
0.0057

> <Gold.PLP.Chemscore.Hbond>
2.0000

> <Gold.PLP.Chemscore.CHOScore>
1.0000

> <Gold.PLP.Chemscore.Metal>
0.0000

> <Gold.Chemscore.Hbonds>
donor molecule, donor type, donor heavy atom, donor atom, acceptor molecule, acceptor atom, score
      L1  H     3    17       P1  8028  0.99
      L1  H    10    22       P1  8028  1.00
      L1  C     8    21       P1  7948  0.99

> <Gold.PLP.Chemscore.Internal.Correction>
0.0031

> <Gold.Rescore>
     Score         DG    S(hbond)    S(metal)    S(lipo)     H(rot)  DE(clash)    DE(int)     intcor
     19.06     -20.51       1.90        0.00      96.12       1.00       0.14       1.31       ----

> <Gold.Chemscore.Fitness>
19.0617

> <Gold.Chemscore.DG>
-20.5112

> <Gold.Chemscore.ZeroCoef>
-5.4800

> <Gold.Chemscore.Hbond>
1.8997

> <Gold.Chemscore.Metal>
0.0000

> <Gold.Chemscore.Lipo>
96.1214

> <Gold.Chemscore.Internal_Hbond>
0.0000

> <Gold.Chemscore.DEClash>
0.1398

> <Gold.Chemscore.DEInternal>
1.3098

> <Gold.Chemscore.Rot>
1.0000

> <Gold.Chemscore.Internal.Correction>
   9.000000E+99

> <Gold.Chemscore.Hbonds>
donor molecule, donor type, donor heavy atom, donor atom, acceptor molecule, acceptor atom, score
      L1  H     3    17       P1  8028  0.93
      L1  H    10    22       P1  8028  1.00

> <Gold.Chemscore.Hbond.Weighted>
-6.3450

> <Gold.Chemscore.Metal.Weighted>
-0.0000

> <Gold.Chemscore.Lipo.Weighted>
-11.2462

> <Gold.Chemscore.Internal_Hbond.Weighted>
0.0000

> <Gold.Chemscore.DEClash.Weighted>
0.1398

> <Gold.Chemscore.DEInternal.Weighted>
1.3098

> <Gold.Chemscore.Rot.Weighted>
2.5600

> <Gold.Chemscore.Internal.Correction.Weighted>
   9.000000E+99

> <Gold.Protein.RotatedTorsions>
[ 6907 6896 6895 6894 ] final   97.55 input  -60.11 | X-H torsion
[ 7974 7965 7964 7962 ] final -109.40 input  175.53 | X-H torsion
[ 8008 7997 7996 7995 ] final -166.80 input   59.86 | X-H torsion
[ 10167 10162 10161 10158 ] final   72.27 input  -65.29 | X-H torsion
[ 10718 10713 10712 10709 ] final -100.17 input   66.30 | X-H torsion
[ 10763 10752 10751 10750 ] final  110.29 input  -60.55 | X-H torsion
[ 11005 11000 10999 10996 ] final  129.13 input  -57.11 | X-H torsion

> <Gold.Protein.ActiveResidues>
 VAL166  LYS551  ARG553  GLY616  TRP617  ASP618  TYR619  PRO620  LYS621  CYS622 
 ASP623  PHE694  ASN695  SER759  ASP760  ASP761  ALA762  ILE779  LEU786  VAL792 
 PHE793  MET794  SER795  GLU796  ALA797  LYS798  CYS799  TRP800  GLU811  SER814 

> <Gold.Protein.RotatedAtoms>
  152.5422  134.0716  159.8195 H   0  0  0  0  0  0  0  0  0  0  0  0  # atno 6907 bound_to 6896
  151.0829  133.5368  159.2627 H   0  0  0  0  0  0  0  0  0  0  0  0  # atno 6908 bound_to 6896
  151.2188  135.0519  159.8995 H   0  0  0  0  0  0  0  0  0  0  0  0  # atno 6909 bound_to 6896
  145.1810  140.8971  143.3480 H   0  0  0  0  0  0  0  0  0  0  0  0  # atno 7974 bound_to 7965
  155.8689  140.0990  157.1564 H   0  0  0  0  0  0  0  0  0  0  0  0  # atno 8008 bound_to 7997
  154.3995  140.1351  156.4116 H   0  0  0  0  0  0  0  0  0  0  0  0  # atno 8009 bound_to 7997
  155.7773  140.3459  155.5281 H   0  0  0  0  0  0  0  0  0  0  0  0  # atno 8010 bound_to 7997
  140.0371  144.5419  150.7462 H   0  0  0  0  0  0  0  0  0  0  0  0  # atno 10167 bound_to 10162
  156.0155  130.5315  150.6777 H   0  0  0  0  0  0  0  0  0  0  0  0  # atno 10718 bound_to 10713
  153.4469  135.3753  155.2261 H   0  0  0  0  0  0  0  0  0  0  0  0  # atno 10763 bound_to 10752
  154.8755  135.3876  154.4086 H   0  0  0  0  0  0  0  0  0  0  0  0  # atno 10764 bound_to 10752
  153.4639  135.7087  153.6097 H   0  0  0  0  0  0  0  0  0  0  0  0  # atno 10765 bound_to 10752
  139.9598  134.9605  156.9103 H   0  0  0  0  0  0  0  0  0  0  0  0  # atno 11005 bound_to 11000
  145.0136  139.3487  143.6107 LP  0  0  0  0  0  0  0  0  0  0  0  0  # atno 17320 bound_to 7965
  146.3453  139.9408  142.8741 LP  0  0  0  0  0  0  0  0  0  0  0  0  # atno 17321 bound_to 7965
  140.7276  143.2653  151.4064 LP  0  0  0  0  0  0  0  0  0  0  0  0  # atno 17342 bound_to 10162
  139.6038  144.1240  152.2227 LP  0  0  0  0  0  0  0  0  0  0  0  0  # atno 17343 bound_to 10162
  157.4486  131.0870  151.0869 LP  0  0  0  0  0  0  0  0  0  0  0  0  # atno 17370 bound_to 10713
  157.1392  130.6135  149.5550 LP  0  0  0  0  0  0  0  0  0  0  0  0  # atno 17371 bound_to 10713
  140.5526  134.0613  155.7374 LP  0  0  0  0  0  0  0  0  0  0  0  0  # atno 17394 bound_to 11000
  141.1274  133.9360  157.2607 LP  0  0  0  0  0  0  0  0  0  0  0  0  # atno 17395 bound_to 11000

$$$$
