AV-unprocessed.smi:322|AV-procd|sdf|2335|dock3
  -GOLD-   2262022243D 1   1.00000     0.00000
 Structure written by MMmdl.
 43 45  0  0  0  0  0  0  0  0  1 V2000
  152.7350  139.6863  155.9980 O   0  0  0  0  0  0  0  0  0  0  0  0
  152.1596  139.5282  157.2792 C   0  0  0  0  0  0  0  0  0  0  0  0
  152.0580  140.8054  158.0647 C   0  0  0  0  0  0  0  0  0  0  0  0
  151.3318  141.8512  157.6628 N   0  0  0  0  0  0  0  0  0  0  0  0
  151.5446  142.7763  158.6653 C   0  0  0  0  0  0  0  0  0  0  0  0
  151.0503  144.0909  158.8213 C   0  0  0  0  0  0  0  0  0  0  0  0
  151.4122  144.8607  159.9462 C   0  0  0  0  0  0  0  0  0  0  0  0
  152.2707  144.3276  160.9295 C   0  0  0  0  0  0  0  0  0  0  0  0
  152.7741  143.0196  160.7932 C   0  0  0  0  0  0  0  0  0  0  0  0
  152.4110  142.2557  159.6676 C   0  0  0  0  0  0  0  0  0  0  0  0
  152.7216  140.9689  159.2372 N   0  0  0  0  0  0  0  0  0  0  0  0
  153.5899  140.0153  159.9158 C   0  0  0  0  0  0  0  0  0  0  0  0
  155.0102  140.5651  160.1589 C   0  0  2  0  0  0  0  0  0  0  0  0
  155.8269  140.2406  159.0509 O   0  0  0  0  0  0  0  0  0  0  0  0
  155.6452  139.9643  161.4227 C   0  0  0  0  0  0  0  0  0  0  0  0
  155.2260  140.7159  162.5529 O   0  0  0  0  0  0  0  0  0  0  0  0
  155.6886  140.1978  163.7924 C   0  0  0  0  0  0  0  0  0  0  0  0
  155.5912  141.1931  164.9364 C   0  0  0  0  0  0  0  0  0  0  0  0
  155.1421  142.5091  164.6961 C   0  0  0  0  0  0  0  0  0  0  0  0
  155.0377  143.4270  165.7592 C   0  0  0  0  0  0  0  0  0  0  0  0
  155.3758  143.0312  167.0681 C   0  0  0  0  0  0  0  0  0  0  0  0
  155.2455  144.1546  168.3711 Cl  0  0  0  0  0  0  0  0  0  0  0  0
  155.8174  141.7161  167.3129 C   0  0  0  0  0  0  0  0  0  0  0  0
  155.9223  140.7982  166.2496 C   0  0  0  0  0  0  0  0  0  0  0  0
  152.5815  138.8984  155.4999 H   0  0  0  0  0  0  0  0  0  0  0  0
  151.1663  139.0985  157.1532 H   0  0  0  0  0  0  0  0  0  0  0  0
  152.7572  138.8121  157.8436 H   0  0  0  0  0  0  0  0  0  0  0  0
  150.3923  144.5078  158.0733 H   0  0  0  0  0  0  0  0  0  0  0  0
  151.0295  145.8648  160.0554 H   0  0  0  0  0  0  0  0  0  0  0  0
  152.5424  144.9234  161.7885 H   0  0  0  0  0  0  0  0  0  0  0  0
  153.4298  142.6080  161.5463 H   0  0  0  0  0  0  0  0  0  0  0  0
  153.1255  139.7333  160.8609 H   0  0  0  0  0  0  0  0  0  0  0  0
  153.6352  139.1017  159.3215 H   0  0  0  0  0  0  0  0  0  0  0  0
  154.9655  141.6500  160.2561 H   0  0  0  0  0  0  0  0  0  0  0  0
  156.5646  139.7371  159.3596 H   0  0  0  0  0  0  0  0  0  0  0  0
  155.3003  138.9375  161.5535 H   0  0  0  0  0  0  0  0  0  0  0  0
  156.7324  139.9289  161.3341 H   0  0  0  0  0  0  0  0  0  0  0  0
  155.0696  139.3374  164.0470 H   0  0  0  0  0  0  0  0  0  0  0  0
  156.7089  139.8246  163.6891 H   0  0  0  0  0  0  0  0  0  0  0  0
  154.8788  142.8176  163.6949 H   0  0  0  0  0  0  0  0  0  0  0  0
  154.6963  144.4340  165.5693 H   0  0  0  0  0  0  0  0  0  0  0  0
  156.0743  141.4091  168.3160 H   0  0  0  0  0  0  0  0  0  0  0  0
  156.2585  139.7908  166.4466 H   0  0  0  0  0  0  0  0  0  0  0  0
  1  2  1  0  0  0  0
  1 25  1  0  0  0  0
  2  3  1  0  0  0  0
  2 26  1  0  0  0  0
  2 27  1  0  0  0  0
  3 11  1  0  0  0  0
  3  4  2  0  0  0  0
  4  5  1  0  0  0  0
  5 10  2  0  0  0  0
  5  6  1  0  0  0  0
  6  7  2  0  0  0  0
  6 28  1  0  0  0  0
  7  8  1  0  0  0  0
  7 29  1  0  0  0  0
  8  9  2  0  0  0  0
  8 30  1  0  0  0  0
  9 10  1  0  0  0  0
  9 31  1  0  0  0  0
 10 11  1  0  0  0  0
 11 12  1  0  0  0  0
 12 13  1  0  0  0  0
 12 32  1  0  0  0  0
 12 33  1  0  0  0  0
 13 14  1  0  0  0  0
 13 15  1  0  0  0  0
 13 34  1  0  0  0  0
 14 35  1  0  0  0  0
 15 16  1  0  0  0  0
 15 36  1  0  0  0  0
 15 37  1  0  0  0  0
 16 17  1  0  0  0  0
 17 18  1  0  0  0  0
 17 38  1  0  0  0  0
 17 39  1  0  0  0  0
 18 24  1  0  0  0  0
 18 19  2  0  0  0  0
 19 20  1  0  0  0  0
 19 40  1  0  0  0  0
 20 21  2  0  0  0  0
 20 41  1  0  0  0  0
 21 22  1  0  0  0  0
 21 23  1  0  0  0  0
 23 24  2  0  0  0  0
 23 42  1  0  0  0  0
 24 43  1  0  0  0  0
M  END
> <s_m_source_file>
AV-unprocessed.smi

> <i_m_source_file_index>
322

> <i_lp_mmshare_version>
43012

> <i_f3d_flags>
0

> <s_epik_input>
W2NIXTFbY0hdW2NIXVtjSF1jKGMxMiluKGMobjIpW0NIMl1bT0hdKVtDSDJdW0NASF0oW09IXSlbQ0gyXU9bQ0gyXWMzW2NIXVtjSF1jKENsKVtjSF1bY0hdMw==

> <s_epik_cmdline>
J2VwaWtfcHl0aG9uJywgJy1waCcsICc3LjAnLCAnLXRuJywgJzgnLCAnLW1hJywgJzIwMCcsICctbWV0YWxfYmluZGluZycsICctaW1hZScsICc8aW5maWxlLm1hZT4nLCAnLW9tYWUnLCAnPG91dGZpbGUubWFlPic=

> <r_epik_Ionization_Penalty>
0.0649918

> <r_epik_Ionization_Penalty_Charging>
0

> <r_epik_Ionization_Penalty_Neutral>
0.0649918

> <r_epik_State_Penalty>
0.0565791

> <r_epik_Charging_Adjusted_Penalty>
0.0565791

> <i_epik_Tot_Q>
0

> <i_epik_Tot_abs_Q>
0

> <r_epik_Metal_State_Penalty>
5.93658e-05

> <b_epik_Metal_Only>
0

> <s_lp_Force_Field>
OPLS_2005

> <r_lp_Energy>
16.0387

> <b_lp_Chiralities_Consistent>
1

> <s_lp_Variant>
AV-unprocessed.smi:322-1

> <Gold.Version>
5.8.1

> <Gold.Id.Protein>
6NUR|6NUR_protein|mol2

> <Gold.PLP.Fitness>
57.7859

> <Gold.PLP.PLP>
-54.5096

> <Gold.PLP.part.hbond>
-3.0000

> <Gold.PLP.part.metal>
0.0000

> <Gold.PLP.part.buried>
-6.0295

> <Gold.PLP.part.nonpolar>
-44.6994

> <Gold.PLP.part.repulsive>
0.0336

> <Gold.PLP.ligand.clash>
0.0000

> <Gold.PLP.ligand.torsion>
0.7562

> <Gold.PLP.Chemscore.Hbond>
1.5460

> <Gold.PLP.Chemscore.CHOScore>
0.0000

> <Gold.PLP.Chemscore.Metal>
0.0000

> <Gold.Chemscore.Hbonds>
donor molecule, donor type, donor heavy atom, donor atom, acceptor molecule, acceptor atom, score
      P1  H  7997  8009       L1    14  0.54
      P1  H  7997  8010       L1     1  0.95

> <Gold.PLP.Chemscore.Internal.Correction>
0.1508

> <Gold.Rescore>
     Score         DG    S(hbond)    S(metal)    S(lipo)     H(rot)  DE(clash)    DE(int)     intcor
     19.94     -20.72       1.93        0.00     143.71       3.13       0.00       0.78       ----

> <Gold.Chemscore.Fitness>
19.9386

> <Gold.Chemscore.DG>
-20.7212

> <Gold.Chemscore.ZeroCoef>
-5.4800

> <Gold.Chemscore.Hbond>
1.9309

> <Gold.Chemscore.Metal>
0.0000

> <Gold.Chemscore.Lipo>
143.7133

> <Gold.Chemscore.Internal_Hbond>
0.0000

> <Gold.Chemscore.DEClash>
0.0000

> <Gold.Chemscore.DEInternal>
0.7826

> <Gold.Chemscore.Rot>
3.1337

> <Gold.Chemscore.Internal.Correction>
   9.000000E+99

> <Gold.Chemscore.Hbonds>
donor molecule, donor type, donor heavy atom, donor atom, acceptor molecule, acceptor atom, score
      P1  H  7997  8009       L1    14  0.25
      P1  H  7997  8010       L1     1  0.21

> <Gold.Chemscore.Hbond.Weighted>
-6.4491

> <Gold.Chemscore.Metal.Weighted>
-0.0000

> <Gold.Chemscore.Lipo.Weighted>
-16.8145

> <Gold.Chemscore.Internal_Hbond.Weighted>
0.0000

> <Gold.Chemscore.DEClash.Weighted>
0.0000

> <Gold.Chemscore.DEInternal.Weighted>
0.7826

> <Gold.Chemscore.Rot.Weighted>
8.0224

> <Gold.Chemscore.Internal.Correction.Weighted>
   9.000000E+99

> <Gold.Protein.RotatedTorsions>
[ 6907 6896 6895 6894 ] final  -71.11 input  -60.11 | X-H torsion
[ 7974 7965 7964 7962 ] final -157.75 input  175.53 | X-H torsion
[ 8008 7997 7996 7995 ] final   67.52 input   59.86 | X-H torsion
[ 10167 10162 10161 10158 ] final   24.42 input  -65.29 | X-H torsion
[ 10718 10713 10712 10709 ] final   55.04 input   66.30 | X-H torsion
[ 10763 10752 10751 10750 ] final  172.02 input  -60.55 | X-H torsion
[ 11005 11000 10999 10996 ] final   -5.89 input  -57.11 | X-H torsion

> <Gold.Protein.ActiveResidues>
 VAL166  LYS551  ARG553  GLY616  TRP617  ASP618  TYR619  PRO620  LYS621  CYS622 
 ASP623  PHE694  ASN695  SER759  ASP760  ASP761  ALA762  ILE779  LEU786  VAL792 
 PHE793  MET794  SER795  GLU796  ALA797  LYS798  CYS799  TRP800  GLU811  SER814 

> <Gold.Protein.RotatedAtoms>
  150.7227  134.5356  159.5721 H   0  0  0  0  0  0  0  0  0  0  0  0  # atno 6907 bound_to 6896
  152.2879  134.7752  160.0393 H   0  0  0  0  0  0  0  0  0  0  0  0  # atno 6908 bound_to 6896
  151.8376  133.3383  159.3669 H   0  0  0  0  0  0  0  0  0  0  0  0  # atno 6909 bound_to 6896
  144.7535  140.3925  143.6030 H   0  0  0  0  0  0  0  0  0  0  0  0  # atno 7974 bound_to 7965
  155.6941  140.3496  155.4905 H   0  0  0  0  0  0  0  0  0  0  0  0  # atno 8008 bound_to 7997
  155.9498  140.1117  157.1008 H   0  0  0  0  0  0  0  0  0  0  0  0  # atno 8009 bound_to 7997
  154.4119  140.1196  156.5024 H   0  0  0  0  0  0  0  0  0  0  0  0  # atno 8010 bound_to 7997
  140.5190  144.0035  150.6407 H   0  0  0  0  0  0  0  0  0  0  0  0  # atno 10167 bound_to 10162
  157.5310  130.8630  149.8688 H   0  0  0  0  0  0  0  0  0  0  0  0  # atno 10718 bound_to 10713
  154.4202  135.2757  155.1980 H   0  0  0  0  0  0  0  0  0  0  0  0  # atno 10763 bound_to 10752
  154.3930  135.6062  153.5857 H   0  0  0  0  0  0  0  0  0  0  0  0  # atno 10764 bound_to 10752
  152.9833  135.5908  154.4496 H   0  0  0  0  0  0  0  0  0  0  0  0  # atno 10765 bound_to 10752
  140.6961  133.9030  155.8651 H   0  0  0  0  0  0  0  0  0  0  0  0  # atno 11005 bound_to 11000
  145.6862  139.1629  143.2673 LP  0  0  0  0  0  0  0  0  0  0  0  0  # atno 17320 bound_to 7965
  146.1515  140.6918  142.9320 LP  0  0  0  0  0  0  0  0  0  0  0  0  # atno 17321 bound_to 7965
  140.3378  143.3038  152.0620 LP  0  0  0  0  0  0  0  0  0  0  0  0  # atno 17342 bound_to 10162
  139.4917  144.6464  151.6770 LP  0  0  0  0  0  0  0  0  0  0  0  0  # atno 17343 bound_to 10162
  156.0423  130.3736  150.1405 LP  0  0  0  0  0  0  0  0  0  0  0  0  # atno 17370 bound_to 10713
  156.9590  130.9799  151.3483 LP  0  0  0  0  0  0  0  0  0  0  0  0  # atno 17371 bound_to 10713
  141.0202  134.0899  157.4128 LP  0  0  0  0  0  0  0  0  0  0  0  0  # atno 17394 bound_to 11000
  139.8910  135.0115  156.6766 LP  0  0  0  0  0  0  0  0  0  0  0  0  # atno 17395 bound_to 11000

$$$$
