AV-unprocessed.smi:3200|AV-procd|sdf|12235|dock7
  -GOLD-   2272018 73D 1   1.00000     0.00000
 Structure written by MMmdl.
 38 39  0  0  0  0  0  0  0  0  2 V2000
  150.1630  136.5337  155.7172 C   0  0  0  0  0  0  0  0  0  0  0  0
  150.5416  137.9627  155.5245 C   0  0  0  0  0  0  0  0  0  0  0  0
  151.5814  138.3092  154.7751 N   0  0  0  0  0  0  0  0  0  0  0  0
  151.5843  139.7093  154.8525 O   0  0  0  0  0  0  0  0  0  0  0  0
  150.5484  140.0359  155.6617 C   0  0  0  0  0  0  0  0  0  0  0  0
  150.2529  141.4773  155.9086 C   0  0  0  0  0  0  0  0  0  0  0  0
  150.3437  141.8466  157.3947 C   0  0  0  0  0  0  0  0  0  0  0  0
  150.6196  143.2875  157.5663 N   0  3  0  0  0  0  0  0  0  0  0  0
  150.8026  143.7241  158.9692 C   0  0  2  0  0  0  0  0  0  0  0  0
  150.8078  145.2495  159.1417 C   0  0  0  0  0  0  0  0  0  0  0  0
  151.6197  145.5138  160.4165 C   0  0  0  0  0  0  0  0  0  0  0  0
  152.2351  144.1670  160.8252 C   0  0  0  0  0  0  0  0  0  0  0  0
  152.1311  143.2476  159.5948 C   0  0  0  0  0  0  0  0  0  0  0  0
  152.0706  141.7656  160.0099 C   0  0  0  0  0  0  0  0  0  0  0  0
  153.3483  143.4747  158.6680 C   0  0  0  0  0  0  0  0  0  0  0  0
  149.8504  138.9887  156.0932 N   0  0  0  0  0  0  0  0  0  0  0  0
  150.8218  135.8742  155.1509 H   0  0  0  0  0  0  0  0  0  0  0  0
  149.1389  136.3672  155.3825 H   0  0  0  0  0  0  0  0  0  0  0  0
  150.2308  136.2659  156.7716 H   0  0  0  0  0  0  0  0  0  0  0  0
  150.9533  142.0790  155.3276 H   0  0  0  0  0  0  0  0  0  0  0  0
  149.2558  141.6978  155.5251 H   0  0  0  0  0  0  0  0  0  0  0  0
  149.4095  141.5916  157.8963 H   0  0  0  0  0  0  0  0  0  0  0  0
  151.1361  141.2685  157.8724 H   0  0  0  0  0  0  0  0  0  0  0  0
  151.4691  143.5024  157.0638 H   0  0  0  0  0  0  0  0  0  0  0  0
  149.9798  143.3192  159.5620 H   0  0  0  0  0  0  0  0  0  0  0  0
  151.2976  145.7297  158.2934 H   0  0  0  0  0  0  0  0  0  0  0  0
  149.7984  145.6571  159.2082 H   0  0  0  0  0  0  0  0  0  0  0  0
  152.3987  146.2508  160.2188 H   0  0  0  0  0  0  0  0  0  0  0  0
  150.9924  145.9107  161.2154 H   0  0  0  0  0  0  0  0  0  0  0  0
  153.2576  144.2741  161.1904 H   0  0  0  0  0  0  0  0  0  0  0  0
  151.6495  143.7543  161.6482 H   0  0  0  0  0  0  0  0  0  0  0  0
  152.9825  141.4646  160.5268 H   0  0  0  0  0  0  0  0  0  0  0  0
  151.9541  141.1155  159.1420 H   0  0  0  0  0  0  0  0  0  0  0  0
  151.2339  141.5687  160.6811 H   0  0  0  0  0  0  0  0  0  0  0  0
  154.2788  143.2248  159.1787 H   0  0  0  0  0  0  0  0  0  0  0  0
  153.4286  144.5116  158.3409 H   0  0  0  0  0  0  0  0  0  0  0  0
  153.2979  142.8508  157.7754 H   0  0  0  0  0  0  0  0  0  0  0  0
  149.8631  143.8187  157.1591 H   0  0  0  0  0  0  0  0  0  0  0  0
  1  2  1  0  0  0  0
  1 17  1  0  0  0  0
  1 18  1  0  0  0  0
  1 19  1  0  0  0  0
  2 16  1  0  0  0  0
  2  3  2  0  0  0  0
  3  4  1  0  0  0  0
  4  5  1  0  0  0  0
  5  6  1  0  0  0  0
  5 16  2  0  0  0  0
  6  7  1  0  0  0  0
  6 20  1  0  0  0  0
  6 21  1  0  0  0  0
  7  8  1  0  0  0  0
  7 22  1  0  0  0  0
  7 23  1  0  0  0  0
  8  9  1  0  0  0  0
  8 24  1  0  0  0  0
  8 38  1  0  0  0  0
  9 13  1  0  0  0  0
  9 10  1  0  0  0  0
  9 25  1  0  0  0  0
 10 11  1  0  0  0  0
 10 26  1  0  0  0  0
 10 27  1  0  0  0  0
 11 12  1  0  0  0  0
 11 28  1  0  0  0  0
 11 29  1  0  0  0  0
 12 13  1  0  0  0  0
 12 30  1  0  0  0  0
 12 31  1  0  0  0  0
 13 14  1  0  0  0  0
 13 15  1  0  0  0  0
 14 32  1  0  0  0  0
 14 33  1  0  0  0  0
 14 34  1  0  0  0  0
 15 35  1  0  0  0  0
 15 36  1  0  0  0  0
 15 37  1  0  0  0  0
M  CHG  1   8   1
M  END
> <s_m_source_file>
AV-unprocessed.smi

> <i_m_source_file_index>
3200

> <i_lp_mmshare_version>
43012

> <i_f3d_flags>
0

> <s_epik_input>
W0NIM11jMW5vYyhuMSlbQ0gyXVtDSDJdW05IXVtDQEBIXShDMihbQ0gzXSlbQ0gzXSlbQ0gyXVtDSDJdW0NIMl0y

> <s_epik_cmdline>
J2VwaWtfcHl0aG9uJywgJy1waCcsICc3LjAnLCAnLXRuJywgJzgnLCAnLW1hJywgJzIwMCcsICctbWV0YWxfYmluZGluZycsICctaW1hZScsICc8aW5maWxlLm1hZT4nLCAnLW9tYWUnLCAnPG91dGZpbGUubWFlPic=

> <r_lp_tautomer_probability>
1

> <r_epik_Ionization_Penalty>
0.000953161

> <r_epik_Ionization_Penalty_Charging>
0.000953161

> <r_epik_Ionization_Penalty_Neutral>
4.23223e-13

> <r_epik_State_Penalty>
0.000619331

> <r_epik_Charging_Adjusted_Penalty>
0.00157249

> <i_epik_Tot_Q>
1

> <i_epik_Tot_abs_Q>
1

> <r_epik_Metal_State_Penalty>
-0

> <b_epik_Metal_Only>
0

> <s_lp_Force_Field>
OPLS_2005

> <r_lp_Energy>
25.4915

> <b_lp_Chiralities_Consistent>
1

> <s_lp_Variant>
AV-unprocessed.smi:3200-1

> <Gold.Version>
5.8.1

> <Gold.Id.Protein>
6NUR|6NUR_protein|mol2

> <Gold.PLP.Fitness>
42.6740

> <Gold.PLP.PLP>
-34.0928

> <Gold.PLP.part.hbond>
-2.0000

> <Gold.PLP.part.metal>
0.0000

> <Gold.PLP.part.buried>
-5.8177

> <Gold.PLP.part.nonpolar>
-27.2641

> <Gold.PLP.part.repulsive>
0.1573

> <Gold.PLP.ligand.clash>
0.0000

> <Gold.PLP.ligand.torsion>
0.2080

> <Gold.PLP.Chemscore.Hbond>
2.9920

> <Gold.PLP.Chemscore.CHOScore>
0.0000

> <Gold.PLP.Chemscore.Metal>
0.0000

> <Gold.Chemscore.Hbonds>
donor molecule, donor type, donor heavy atom, donor atom, acceptor molecule, acceptor atom, score
      L1  H     8    38       P1  8028  2.00
      P1  H  7989  7998       L1     4  1.00

> <Gold.PLP.Chemscore.Internal.Correction>
0.0213

> <Gold.Rescore>
     Score         DG    S(hbond)    S(metal)    S(lipo)     H(rot)  DE(clash)    DE(int)     intcor
     18.06     -18.39       1.84        0.00      96.96       1.79       0.17       0.16       ----

> <Gold.Chemscore.Fitness>
18.0558

> <Gold.Chemscore.DG>
-18.3906

> <Gold.Chemscore.ZeroCoef>
-5.4800

> <Gold.Chemscore.Hbond>
1.8388

> <Gold.Chemscore.Metal>
0.0000

> <Gold.Chemscore.Lipo>
96.9601

> <Gold.Chemscore.Internal_Hbond>
0.0000

> <Gold.Chemscore.DEClash>
0.1707

> <Gold.Chemscore.DEInternal>
0.1640

> <Gold.Chemscore.Rot>
1.7872

> <Gold.Chemscore.Internal.Correction>
   9.000000E+99

> <Gold.Chemscore.Hbonds>
donor molecule, donor type, donor heavy atom, donor atom, acceptor molecule, acceptor atom, score
      L1  H     8    38       P1  8028  0.84
      P1  H  7989  7998       L1     4  0.69

> <Gold.Chemscore.Hbond.Weighted>
-6.1415

> <Gold.Chemscore.Metal.Weighted>
-0.0000

> <Gold.Chemscore.Lipo.Weighted>
-11.3443

> <Gold.Chemscore.Internal_Hbond.Weighted>
0.0000

> <Gold.Chemscore.DEClash.Weighted>
0.1707

> <Gold.Chemscore.DEInternal.Weighted>
0.1640

> <Gold.Chemscore.Rot.Weighted>
4.5753

> <Gold.Chemscore.Internal.Correction.Weighted>
   9.000000E+99

> <Gold.Protein.RotatedTorsions>
[ 6907 6896 6895 6894 ] final -163.76 input  -60.11 | X-H torsion
[ 7974 7965 7964 7962 ] final  -26.91 input  175.53 | X-H torsion
[ 8008 7997 7996 7995 ] final  164.19 input   59.86 | X-H torsion
[ 10167 10162 10161 10158 ] final -100.70 input  -65.29 | X-H torsion
[ 10718 10713 10712 10709 ] final  -37.59 input   66.30 | X-H torsion
[ 10763 10752 10751 10750 ] final   46.02 input  -60.55 | X-H torsion
[ 11005 11000 10999 10996 ] final  -25.21 input  -57.11 | X-H torsion

> <Gold.Protein.ActiveResidues>
 VAL166  LYS551  ARG553  GLY616  TRP617  ASP618  TYR619  PRO620  LYS621  CYS622 
 ASP623  PHE694  ASN695  SER759  ASP760  ASP761  ALA762  ILE779  LEU786  VAL792 
 PHE793  MET794  SER795  GLU796  ALA797  LYS798  CYS799  TRP800  GLU811  SER814 

> <Gold.Protein.RotatedAtoms>
  151.4011  133.3757  159.2732 H   0  0  0  0  0  0  0  0  0  0  0  0  # atno 6907 bound_to 6896
  150.9433  134.8841  159.7636 H   0  0  0  0  0  0  0  0  0  0  0  0  # atno 6908 bound_to 6896
  152.5081  134.3962  159.9453 H   0  0  0  0  0  0  0  0  0  0  0  0  # atno 6909 bound_to 6896
  146.1393  140.5082  142.8659 H   0  0  0  0  0  0  0  0  0  0  0  0  # atno 7974 bound_to 7965
  156.1899  140.1703  156.8111 H   0  0  0  0  0  0  0  0  0  0  0  0  # atno 8008 bound_to 7997
  154.5459  140.0727  156.8620 H   0  0  0  0  0  0  0  0  0  0  0  0  # atno 8009 bound_to 7997
  155.3123  140.3368  155.4246 H   0  0  0  0  0  0  0  0  0  0  0  0  # atno 8010 bound_to 7997
  140.2491  143.3485  152.0731 H   0  0  0  0  0  0  0  0  0  0  0  0  # atno 10167 bound_to 10162
  156.3134  130.4255  149.8028 H   0  0  0  0  0  0  0  0  0  0  0  0  # atno 10718 bound_to 10713
  152.9816  135.6021  154.3532 H   0  0  0  0  0  0  0  0  0  0  0  0  # atno 10763 bound_to 10752
  154.3219  135.2769  155.2517 H   0  0  0  0  0  0  0  0  0  0  0  0  # atno 10764 bound_to 10752
  154.4679  135.5949  153.6357 H   0  0  0  0  0  0  0  0  0  0  0  0  # atno 10765 bound_to 10752
  140.8917  133.7584  156.0429 H   0  0  0  0  0  0  0  0  0  0  0  0  # atno 11005 bound_to 11000
  144.7775  140.5770  143.6628 LP  0  0  0  0  0  0  0  0  0  0  0  0  # atno 17320 bound_to 7965
  145.5083  139.1480  143.3619 LP  0  0  0  0  0  0  0  0  0  0  0  0  # atno 17321 bound_to 7965
  139.5052  144.6790  151.6056 LP  0  0  0  0  0  0  0  0  0  0  0  0  # atno 17342 bound_to 10162
  140.6054  143.9533  150.6415 LP  0  0  0  0  0  0  0  0  0  0  0  0  # atno 17343 bound_to 10162
  156.5363  130.8280  151.3254 LP  0  0  0  0  0  0  0  0  0  0  0  0  # atno 17370 bound_to 10713
  157.7396  130.9835  150.2325 LP  0  0  0  0  0  0  0  0  0  0  0  0  # atno 17371 bound_to 10713
  140.8339  134.3146  157.5339 LP  0  0  0  0  0  0  0  0  0  0  0  0  # atno 17394 bound_to 11000
  139.8730  134.9379  156.3699 LP  0  0  0  0  0  0  0  0  0  0  0  0  # atno 17395 bound_to 11000

$$$$
