AV-unprocessed.smi:1521|AV-procd|sdf|6132|dock7
  -GOLD-   22720 6273D 1   1.00000     0.00000
 Structure written by MMmdl.
 35 36  0  0  0  0  0  0  0  0  2 V2000
  154.5236  138.9817  158.9242 O   0  0  0  0  0  0  0  0  0  0  0  0
  153.4708  138.5924  159.4300 C   0  0  0  0  0  0  0  0  0  0  0  0
  153.3649  137.4432  160.1113 N   0  0  0  0  0  0  0  0  0  0  0  0
  154.4587  136.5114  160.3610 C   0  0  0  0  0  0  0  0  0  0  0  0
  154.2794  135.7761  161.6996 C   0  0  2  0  0  0  0  0  0  0  0  0
  154.0595  136.7569  162.8685 C   0  0  0  0  0  0  0  0  0  0  0  0
  153.9603  136.0279  164.0849 O   0  0  0  0  0  0  0  0  0  0  0  0
  155.1414  135.2785  164.3350 C   0  0  0  0  0  0  0  0  0  0  0  0
  155.3611  134.2931  163.1756 C   0  0  0  0  0  0  0  0  0  0  0  0
  155.4614  135.0261  161.9622 O   0  0  0  0  0  0  0  0  0  0  0  0
  152.2934  139.2421  159.4035 N   0  0  0  0  0  0  0  0  0  0  0  0
  151.9601  140.4549  158.7776 C   0  0  0  0  0  0  0  0  0  0  0  0
  152.0114  141.6770  159.3768 C   0  0  0  0  0  0  0  0  0  0  0  0
  151.6699  142.9061  158.6716 C   0  0  0  0  0  0  0  0  0  0  0  0
  151.6267  144.2732  159.3304 C   0  0  0  0  0  0  0  0  0  0  0  0
  150.3884  144.7671  159.3289 F   0  0  0  0  0  0  0  0  0  0  0  0
  152.0533  144.2108  160.5919 F   0  0  0  0  0  0  0  0  0  0  0  0
  152.4121  145.1207  158.6673 F   0  0  0  0  0  0  0  0  0  0  0  0
  151.2902  142.6720  157.3642 C   0  0  0  0  0  0  0  0  0  0  0  0
  151.2396  141.5028  156.6891 N   0  5  0  0  0  0  0  0  0  0  0  0
  151.5662  140.3602  157.3567 C   0  0  0  0  0  0  0  0  0  0  0  0
  151.5407  139.2607  156.8024 O   0  0  0  0  0  0  0  0  0  0  0  0
  152.4657  137.2045  160.5032 H   0  0  0  0  0  0  0  0  0  0  0  0
  154.4932  135.7936  159.5410 H   0  0  0  0  0  0  0  0  0  0  0  0
  155.4113  137.0434  160.3450 H   0  0  0  0  0  0  0  0  0  0  0  0
  153.4251  135.0997  161.6313 H   0  0  0  0  0  0  0  0  0  0  0  0
  154.8733  137.4811  162.9313 H   0  0  0  0  0  0  0  0  0  0  0  0
  153.1383  137.3211  162.7216 H   0  0  0  0  0  0  0  0  0  0  0  0
  155.9967  135.9471  164.4448 H   0  0  0  0  0  0  0  0  0  0  0  0
  155.0306  134.7399  165.2763 H   0  0  0  0  0  0  0  0  0  0  0  0
  156.2805  133.7275  163.3270 H   0  0  0  0  0  0  0  0  0  0  0  0
  154.5444  133.5721  163.1161 H   0  0  0  0  0  0  0  0  0  0  0  0
  151.5409  138.8297  159.9351 H   0  0  0  0  0  0  0  0  0  0  0  0
  152.3325  141.7768  160.4006 H   0  0  0  0  0  0  0  0  0  0  0  0
  150.9792  143.5584  156.7714 H   0  0  0  0  0  0  0  0  0  0  0  0
  1  2  2  0  0  0  0
  2  3  1  0  0  0  0
  2 11  1  0  0  0  0
  3  4  1  0  0  0  0
  3 23  1  0  0  0  0
  4  5  1  0  0  0  0
  4 24  1  0  0  0  0
  4 25  1  0  0  0  0
  5 10  1  0  0  0  0
  5  6  1  0  0  0  0
  5 26  1  0  0  0  0
  6  7  1  0  0  0  0
  6 27  1  0  0  0  0
  6 28  1  0  0  0  0
  7  8  1  0  0  0  0
  8  9  1  0  0  0  0
  8 29  1  0  0  0  0
  8 30  1  0  0  0  0
  9 10  1  0  0  0  0
  9 31  1  0  0  0  0
  9 32  1  0  0  0  0
 11 12  1  0  0  0  0
 11 33  1  0  0  0  0
 12 21  1  0  0  0  0
 12 13  2  0  0  0  0
 13 14  1  0  0  0  0
 13 34  1  0  0  0  0
 14 15  1  0  0  0  0
 14 19  2  0  0  0  0
 15 16  1  0  0  0  0
 15 17  1  0  0  0  0
 15 18  1  0  0  0  0
 19 20  1  0  0  0  0
 19 35  1  0  0  0  0
 20 21  1  0  0  0  0
 21 22  2  0  0  0  0
M  CHG  1  20  -1
M  END
> <s_m_source_file>
AV-unprocessed.smi

> <i_m_source_file_index>
1521

> <i_lp_mmshare_version>
43012

> <i_f3d_flags>
0

> <s_epik_input>
Tz1jMVtuSF1bY0hdYyhDKEYpKEYpRilbY0hdYzFbTkhdQyg9TylbTkhdW0NIMl1bQ0BASF0yW0NIMl1PW0NIMl1bQ0gyXU8y

> <s_epik_cmdline>
J2VwaWtfcHl0aG9uJywgJy1waCcsICc3LjAnLCAnLXRuJywgJzgnLCAnLW1hJywgJzIwMCcsICctbWV0YWxfYmluZGluZycsICctaW1hZScsICc8aW5maWxlLm1hZT4nLCAnLW9tYWUnLCAnPG91dGZpbGUubWFlPic=

> <r_lp_tautomer_probability>
1

> <r_epik_Ionization_Penalty>
3.1412

> <r_epik_Ionization_Penalty_Charging>
0.17015

> <r_epik_Ionization_Penalty_Neutral>
2.97105

> <r_epik_State_Penalty>
2.96707

> <r_epik_Charging_Adjusted_Penalty>
3.13722

> <i_epik_Tot_Q>
-1

> <i_epik_Tot_abs_Q>
1

> <r_epik_Metal_State_Penalty>
0.451298

> <b_epik_Metal_Only>
1

> <s_lp_Force_Field>
OPLS_2005

> <r_lp_Energy>
20.4323

> <b_lp_Chiralities_Consistent>
1

> <s_lp_Variant>
AV-unprocessed.smi:1521-3

> <Gold.Version>
5.8.1

> <Gold.Id.Protein>
6NUR|6NUR_protein|mol2

> <Gold.PLP.Fitness>
38.4026

> <Gold.PLP.PLP>
-37.3472

> <Gold.PLP.part.hbond>
-1.0000

> <Gold.PLP.part.metal>
0.0000

> <Gold.PLP.part.buried>
-7.2195

> <Gold.PLP.part.nonpolar>
-29.2198

> <Gold.PLP.part.repulsive>
0.3164

> <Gold.PLP.ligand.clash>
0.0000

> <Gold.PLP.ligand.torsion>
0.9998

> <Gold.PLP.Chemscore.Hbond>
1.0000

> <Gold.PLP.Chemscore.CHOScore>
0.0000

> <Gold.PLP.Chemscore.Metal>
0.0000

> <Gold.Chemscore.Hbonds>
donor molecule, donor type, donor heavy atom, donor atom, acceptor molecule, acceptor atom, score
      P1  H  7997  8010       L1     1  1.00

> <Gold.PLP.Chemscore.Internal.Correction>
0.0549

> <Gold.Rescore>
     Score         DG    S(hbond)    S(metal)    S(lipo)     H(rot)  DE(clash)    DE(int)     intcor
     13.10     -14.13       0.98        0.00      75.83       1.36       0.02       1.01       ----

> <Gold.Chemscore.Fitness>
13.0981

> <Gold.Chemscore.DG>
-14.1268

> <Gold.Chemscore.ZeroCoef>
-5.4800

> <Gold.Chemscore.Hbond>
0.9779

> <Gold.Chemscore.Metal>
0.0000

> <Gold.Chemscore.Lipo>
75.8325

> <Gold.Chemscore.Internal_Hbond>
0.0000

> <Gold.Chemscore.DEClash>
0.0174

> <Gold.Chemscore.DEInternal>
1.0113

> <Gold.Chemscore.Rot>
1.3640

> <Gold.Chemscore.Internal.Correction>
   9.000000E+99

> <Gold.Chemscore.Hbonds>
donor molecule, donor type, donor heavy atom, donor atom, acceptor molecule, acceptor atom, score
      P1  H  7997  8010       L1     1  0.97

> <Gold.Chemscore.Hbond.Weighted>
-3.2662

> <Gold.Chemscore.Metal.Weighted>
-0.0000

> <Gold.Chemscore.Lipo.Weighted>
-8.8724

> <Gold.Chemscore.Internal_Hbond.Weighted>
0.0000

> <Gold.Chemscore.DEClash.Weighted>
0.0174

> <Gold.Chemscore.DEInternal.Weighted>
1.0113

> <Gold.Chemscore.Rot.Weighted>
3.4918

> <Gold.Chemscore.Internal.Correction.Weighted>
   9.000000E+99

> <Gold.Protein.RotatedTorsions>
[ 6907 6896 6895 6894 ] final  160.72 input  -60.11 | X-H torsion
[ 7974 7965 7964 7962 ] final  -20.92 input  175.53 | X-H torsion
[ 8008 7997 7996 7995 ] final   -4.25 input   59.86 | X-H torsion
[ 10167 10162 10161 10158 ] final  -41.35 input  -65.29 | X-H torsion
[ 10718 10713 10712 10709 ] final   73.87 input   66.30 | X-H torsion
[ 10763 10752 10751 10750 ] final  -63.76 input  -60.55 | X-H torsion
[ 11005 11000 10999 10996 ] final   38.31 input  -57.11 | X-H torsion

> <Gold.Protein.ActiveResidues>
 VAL166  LYS551  ARG553  GLY616  TRP617  ASP618  TYR619  PRO620  LYS621  CYS622 
 ASP623  PHE694  ASN695  SER759  ASP760  ASP761  ALA762  ILE779  LEU786  VAL792 
 PHE793  MET794  SER795  GLU796  ALA797  LYS798  CYS799  TRP800  GLU811  SER814 

> <Gold.Protein.RotatedAtoms>
  151.9664  133.3711  159.4054 H   0  0  0  0  0  0  0  0  0  0  0  0  # atno 6907 bound_to 6896
  150.6956  134.4186  159.5204 H   0  0  0  0  0  0  0  0  0  0  0  0  # atno 6908 bound_to 6896
  152.1883  134.8694  160.0570 H   0  0  0  0  0  0  0  0  0  0  0  0  # atno 6909 bound_to 6896
  146.1761  140.4269  142.8513 H   0  0  0  0  0  0  0  0  0  0  0  0  # atno 7974 bound_to 7965
  154.6163  140.2489  155.7605 H   0  0  0  0  0  0  0  0  0  0  0  0  # atno 8008 bound_to 7997
  156.2401  140.2936  156.0369 H   0  0  0  0  0  0  0  0  0  0  0  0  # atno 8009 bound_to 7997
  155.1969  140.0393  157.2901 H   0  0  0  0  0  0  0  0  0  0  0  0  # atno 8010 bound_to 7997
  140.7005  143.3100  151.3054 H   0  0  0  0  0  0  0  0  0  0  0  0  # atno 10167 bound_to 10162
  157.6567  130.9650  150.1130 H   0  0  0  0  0  0  0  0  0  0  0  0  # atno 10718 bound_to 10713
  154.3199  135.6198  153.5503 H   0  0  0  0  0  0  0  0  0  0  0  0  # atno 10763 bound_to 10752
  152.9821  135.5721  154.5082 H   0  0  0  0  0  0  0  0  0  0  0  0  # atno 10764 bound_to 10752
  154.4748  135.2861  155.1592 H   0  0  0  0  0  0  0  0  0  0  0  0  # atno 10765 bound_to 10752
  140.2139  134.3722  155.8036 H   0  0  0  0  0  0  0  0  0  0  0  0  # atno 11005 bound_to 11000
  144.8239  140.6596  143.6335 LP  0  0  0  0  0  0  0  0  0  0  0  0  # atno 17320 bound_to 7965
  145.4206  139.1564  143.4076 LP  0  0  0  0  0  0  0  0  0  0  0  0  # atno 17321 bound_to 7965
  139.6519  144.0347  152.2632 LP  0  0  0  0  0  0  0  0  0  0  0  0  # atno 17342 bound_to 10162
  139.9886  144.6378  150.7835 LP  0  0  0  0  0  0  0  0  0  0  0  0  # atno 17343 bound_to 10162
  156.2021  130.3661  149.8775 LP  0  0  0  0  0  0  0  0  0  0  0  0  # atno 17370 bound_to 10713
  156.6675  130.8807  151.3557 LP  0  0  0  0  0  0  0  0  0  0  0  0  # atno 17371 bound_to 10713
  141.2225  133.7157  156.8463 LP  0  0  0  0  0  0  0  0  0  0  0  0  # atno 17394 bound_to 11000
  140.1922  134.8958  157.3073 LP  0  0  0  0  0  0  0  0  0  0  0  0  # atno 17395 bound_to 11000

$$$$
