AV-unprocessed.smi:1799|AV-procd|sdf|7261|dock2
  -GOLD-   22720 8513D 1   1.00000     0.00000
 Structure written by MMmdl.
 41 42  0  0  0  0  0  0  0  0  2 V2000
  146.3725  142.4904  156.2917 C   0  0  0  0  0  0  0  0  0  0  0  0
  146.2881  142.0938  154.8013 C   0  0  0  0  0  0  0  0  0  0  0  0
  145.3886  143.1422  154.1179 C   0  0  0  0  0  0  0  0  0  0  0  0
  147.6708  142.1249  154.1034 C   0  0  0  0  0  0  0  0  0  0  0  0
  148.5679  140.9004  154.3704 C   0  0  0  0  0  0  0  0  0  0  0  0
  149.1967  140.9059  155.6899 N   0  0  0  0  0  0  0  0  0  0  0  0
  150.4510  140.5135  155.9571 C   0  0  0  0  0  0  0  0  0  0  0  0
  151.2260  140.0918  155.0989 O   0  0  0  0  0  0  0  0  0  0  0  0
  150.7346  140.6474  157.2645 N   0  0  0  0  0  0  0  0  0  0  0  0
  151.9632  140.3892  157.9281 C   0  0  0  0  0  0  0  0  0  0  0  0
  152.8565  139.4779  157.5116 N   0  0  0  0  0  0  0  0  0  0  0  0
  153.9741  139.4322  158.3347 N   0  0  0  0  0  0  0  0  0  0  0  0
  153.8804  140.3097  159.3378 C   0  0  0  0  0  0  0  0  0  0  0  0
  152.4166  141.2777  159.3755 S   0  0  0  0  0  0  0  0  0  0  0  0
  147.7866  139.6024  154.1087 C   0  0  0  0  0  0  0  0  0  0  0  0
  146.4005  139.5143  154.7994 C   0  0  0  0  0  0  0  0  0  0  0  0
  145.5951  138.3960  154.1092 C   0  0  0  0  0  0  0  0  0  0  0  0
  146.5111  139.1219  156.2895 C   0  0  0  0  0  0  0  0  0  0  0  0
  145.6223  140.7730  154.6204 N   0  3  0  0  0  0  0  0  0  0  0  0
  146.7100  143.5220  156.3984 H   0  0  0  0  0  0  0  0  0  0  0  0
  147.0675  141.8884  156.8673 H   0  0  0  0  0  0  0  0  0  0  0  0
  145.3983  142.4184  156.7768 H   0  0  0  0  0  0  0  0  0  0  0  0
  145.8179  144.1425  154.1902 H   0  0  0  0  0  0  0  0  0  0  0  0
  144.3981  143.1781  154.5735 H   0  0  0  0  0  0  0  0  0  0  0  0
  145.2501  142.9242  153.0582 H   0  0  0  0  0  0  0  0  0  0  0  0
  147.5109  142.1657  153.0247 H   0  0  0  0  0  0  0  0  0  0  0  0
  148.1945  143.0508  154.3443 H   0  0  0  0  0  0  0  0  0  0  0  0
  149.3863  140.9277  153.6484 H   0  0  0  0  0  0  0  0  0  0  0  0
  148.6303  141.2287  156.4608 H   0  0  0  0  0  0  0  0  0  0  0  0
  149.9903  140.9903  157.8534 H   0  0  0  0  0  0  0  0  0  0  0  0
  154.6793  140.3876  160.0603 H   0  0  0  0  0  0  0  0  0  0  0  0
  147.6390  139.5366  153.0294 H   0  0  0  0  0  0  0  0  0  0  0  0
  148.3972  138.7358  154.3670 H   0  0  0  0  0  0  0  0  0  0  0  0
  146.1059  137.4345  154.1774 H   0  0  0  0  0  0  0  0  0  0  0  0
  145.4404  138.6073  153.0503 H   0  0  0  0  0  0  0  0  0  0  0  0
  144.6097  138.2754  154.5616 H   0  0  0  0  0  0  0  0  0  0  0  0
  146.9305  138.1207  156.3961 H   0  0  0  0  0  0  0  0  0  0  0  0
  145.5324  139.1132  156.7707 H   0  0  0  0  0  0  0  0  0  0  0  0
  147.1516  139.7775  156.8696 H   0  0  0  0  0  0  0  0  0  0  0  0
  144.7996  140.7366  155.2050 H   0  0  0  0  0  0  0  0  0  0  0  0
  145.3136  140.7603  153.6588 H   0  0  0  0  0  0  0  0  0  0  0  0
  1  2  1  0  0  0  0
  1 20  1  0  0  0  0
  1 21  1  0  0  0  0
  1 22  1  0  0  0  0
  2 19  1  0  0  0  0
  2  3  1  0  0  0  0
  2  4  1  0  0  0  0
  3 23  1  0  0  0  0
  3 24  1  0  0  0  0
  3 25  1  0  0  0  0
  4  5  1  0  0  0  0
  4 26  1  0  0  0  0
  4 27  1  0  0  0  0
  5  6  1  0  0  0  0
  5 15  1  0  0  0  0
  5 28  1  0  0  0  0
  6  7  1  0  0  0  0
  6 29  1  0  0  0  0
  7  8  2  0  0  0  0
  7  9  1  0  0  0  0
  9 10  1  0  0  0  0
  9 30  1  0  0  0  0
 10 14  1  0  0  0  0
 10 11  2  0  0  0  0
 11 12  1  0  0  0  0
 12 13  2  0  0  0  0
 13 14  1  0  0  0  0
 13 31  1  0  0  0  0
 15 16  1  0  0  0  0
 15 32  1  0  0  0  0
 15 33  1  0  0  0  0
 16 17  1  0  0  0  0
 16 18  1  0  0  0  0
 16 19  1  0  0  0  0
 17 34  1  0  0  0  0
 17 35  1  0  0  0  0
 17 36  1  0  0  0  0
 18 37  1  0  0  0  0
 18 38  1  0  0  0  0
 18 39  1  0  0  0  0
 19 40  1  0  0  0  0
 19 41  1  0  0  0  0
M  CHG  1  19   1
M  END
> <s_m_source_file>
AV-unprocessed.smi

> <i_m_source_file_index>
1799

> <i_lp_mmshare_version>
43012

> <i_f3d_flags>
0

> <s_epik_input>
W0NIM11DMShbQ0gzXSlbQ0gyXVtDSF0oW0NIMl1DKFtDSDNdKShbQ0gzXSlbTkhdMSlbTkhdQyg9TylbTkhdYzJubltjSF1zMg==

> <s_epik_cmdline>
J2VwaWtfcHl0aG9uJywgJy1waCcsICc3LjAnLCAnLXRuJywgJzgnLCAnLW1hJywgJzIwMCcsICctbWV0YWxfYmluZGluZycsICctaW1hZScsICc8aW5maWxlLm1hZT4nLCAnLW9tYWUnLCAnPG91dGZpbGUubWFlPic=

> <r_lp_tautomer_probability>
1

> <r_epik_Ionization_Penalty>
0.000698711

> <r_epik_Ionization_Penalty_Charging>
0.000101406

> <r_epik_Ionization_Penalty_Neutral>
0.000597305

> <r_epik_State_Penalty>
-0

> <r_epik_Charging_Adjusted_Penalty>
0.000101406

> <i_epik_Tot_Q>
1

> <i_epik_Tot_abs_Q>
1

> <r_epik_Metal_State_Penalty>
0.237927

> <b_epik_Metal_Only>
0

> <s_lp_Force_Field>
OPLS_2005

> <r_lp_Energy>
25.55

> <b_lp_Chiralities_Consistent>
1

> <s_lp_Variant>
AV-unprocessed.smi:1799-1

> <Gold.Version>
5.8.1

> <Gold.Id.Protein>
6NUR|6NUR_protein|mol2

> <Gold.PLP.Fitness>
37.5898

> <Gold.PLP.PLP>
-27.5266

> <Gold.PLP.part.hbond>
-4.0000

> <Gold.PLP.part.metal>
0.0000

> <Gold.PLP.part.buried>
-3.9781

> <Gold.PLP.part.nonpolar>
-20.3140

> <Gold.PLP.part.repulsive>
0.1515

> <Gold.PLP.ligand.clash>
0.0000

> <Gold.PLP.ligand.torsion>
0.5093

> <Gold.PLP.Chemscore.Hbond>
3.6880

> <Gold.PLP.Chemscore.CHOScore>
0.0000

> <Gold.PLP.Chemscore.Metal>
0.0000

> <Gold.Chemscore.Hbonds>
donor molecule, donor type, donor heavy atom, donor atom, acceptor molecule, acceptor atom, score
      L1  H    19    41       P1 10175  1.73
      P1  H  7989  7998       L1     8  1.00
      P1  H  7997  8010       L1    12  0.94

> <Gold.PLP.Chemscore.Internal.Correction>
0.0178

> <Gold.Rescore>
     Score         DG    S(hbond)    S(metal)    S(lipo)     H(rot)  DE(clash)    DE(int)     intcor
     15.08     -16.86       2.32        0.00      52.94       1.00       0.14       1.63       ----

> <Gold.Chemscore.Fitness>
15.0822

> <Gold.Chemscore.DG>
-16.8550

> <Gold.Chemscore.ZeroCoef>
-5.4800

> <Gold.Chemscore.Hbond>
2.3177

> <Gold.Chemscore.Metal>
0.0000

> <Gold.Chemscore.Lipo>
52.9379

> <Gold.Chemscore.Internal_Hbond>
0.0000

> <Gold.Chemscore.DEClash>
0.1390

> <Gold.Chemscore.DEInternal>
1.6338

> <Gold.Chemscore.Rot>
1.0000

> <Gold.Chemscore.Internal.Correction>
   9.000000E+99

> <Gold.Chemscore.Hbonds>
donor molecule, donor type, donor heavy atom, donor atom, acceptor molecule, acceptor atom, score
      L1  H    19    41       P1 10175  0.74
      P1  H  7989  7998       L1     8  0.99
      P1  H  7997  8010       L1    12  0.13

> <Gold.Chemscore.Hbond.Weighted>
-7.7413

> <Gold.Chemscore.Metal.Weighted>
-0.0000

> <Gold.Chemscore.Lipo.Weighted>
-6.1937

> <Gold.Chemscore.Internal_Hbond.Weighted>
0.0000

> <Gold.Chemscore.DEClash.Weighted>
0.1390

> <Gold.Chemscore.DEInternal.Weighted>
1.6338

> <Gold.Chemscore.Rot.Weighted>
2.5600

> <Gold.Chemscore.Internal.Correction.Weighted>
   9.000000E+99

> <Gold.Protein.RotatedTorsions>
[ 6907 6896 6895 6894 ] final   54.10 input  -60.11 | X-H torsion
[ 7974 7965 7964 7962 ] final -130.39 input  175.53 | X-H torsion
[ 8008 7997 7996 7995 ] final   -0.61 input   59.86 | X-H torsion
[ 10167 10162 10161 10158 ] final  147.73 input  -65.29 | X-H torsion
[ 10718 10713 10712 10709 ] final   98.20 input   66.30 | X-H torsion
[ 10763 10752 10751 10750 ] final  -33.38 input  -60.55 | X-H torsion
[ 11005 11000 10999 10996 ] final  -30.82 input  -57.11 | X-H torsion

> <Gold.Protein.ActiveResidues>
 VAL166  LYS551  ARG553  GLY616  TRP617  ASP618  TYR619  PRO620  LYS621  CYS622 
 ASP623  PHE694  ASN695  SER759  ASP760  ASP761  ALA762  ILE779  LEU786  VAL792 
 PHE793  MET794  SER795  GLU796  ALA797  LYS798  CYS799  TRP800  GLU811  SER814 

> <Gold.Protein.RotatedAtoms>
  152.3404  134.7142  160.0264 H   0  0  0  0  0  0  0  0  0  0  0  0  # atno 6907 bound_to 6896
  151.7528  133.3323  159.3404 H   0  0  0  0  0  0  0  0  0  0  0  0  # atno 6908 bound_to 6896
  150.7476  134.6109  159.6130 H   0  0  0  0  0  0  0  0  0  0  0  0  # atno 6909 bound_to 6896
  144.9480  140.7312  143.4806 H   0  0  0  0  0  0  0  0  0  0  0  0  # atno 7974 bound_to 7965
  154.6561  140.2580  155.7159 H   0  0  0  0  0  0  0  0  0  0  0  0  # atno 8008 bound_to 7997
  156.2597  140.2858  156.0936 H   0  0  0  0  0  0  0  0  0  0  0  0  # atno 8009 bound_to 7997
  155.1377  140.0379  157.2781 H   0  0  0  0  0  0  0  0  0  0  0  0  # atno 8010 bound_to 7997
  139.4885  144.5733  151.7013 H   0  0  0  0  0  0  0  0  0  0  0  0  # atno 10167 bound_to 10162
  157.6900  131.0633  150.4760 H   0  0  0  0  0  0  0  0  0  0  0  0  # atno 10718 bound_to 10713
  153.8293  135.6867  153.4816 H   0  0  0  0  0  0  0  0  0  0  0  0  # atno 10763 bound_to 10752
  153.1521  135.4614  154.9649 H   0  0  0  0  0  0  0  0  0  0  0  0  # atno 10764 bound_to 10752
  154.7894  135.3296  154.7758 H   0  0  0  0  0  0  0  0  0  0  0  0  # atno 10765 bound_to 10752
  140.9415  133.7276  156.1083 H   0  0  0  0  0  0  0  0  0  0  0  0  # atno 11005 bound_to 11000
  145.2888  139.1891  143.4751 LP  0  0  0  0  0  0  0  0  0  0  0  0  # atno 17320 bound_to 7965
  146.3310  140.2862  142.8613 LP  0  0  0  0  0  0  0  0  0  0  0  0  # atno 17321 bound_to 7965
  140.5325  144.0708  150.6058 LP  0  0  0  0  0  0  0  0  0  0  0  0  # atno 17342 bound_to 10162
  140.3703  143.2858  152.0285 LP  0  0  0  0  0  0  0  0  0  0  0  0  # atno 17343 bound_to 10162
  156.5095  130.4136  149.6309 LP  0  0  0  0  0  0  0  0  0  0  0  0  # atno 17370 bound_to 10713
  156.3254  130.7303  151.2222 LP  0  0  0  0  0  0  0  0  0  0  0  0  # atno 17371 bound_to 10713
  140.7727  134.3814  157.5504 LP  0  0  0  0  0  0  0  0  0  0  0  0  # atno 17394 bound_to 11000
  139.8822  134.9032  156.2850 LP  0  0  0  0  0  0  0  0  0  0  0  0  # atno 17395 bound_to 11000

$$$$
