AV-unprocessed.smi:3105|AV-procd|sdf|11821|dock3
  -GOLD-   2272017193D 1   1.00000     0.00000
 Structure written by MMmdl.
 34 34  0  0  0  0  0  0  0  0  2 V2000
  150.3779  141.5727  156.8797 C   0  0  0  0  0  0  0  0  0  0  0  0
  149.4587  141.3835  155.6542 C   0  0  2  0  0  0  0  0  0  0  0  0
  148.1336  141.9907  155.9163 N   0  3  0  0  0  0  0  0  0  0  0  0
  147.6493  141.8843  157.3112 C   0  0  0  0  0  0  0  0  0  0  0  0
  146.4953  142.8658  157.5982 C   0  0  0  0  0  0  0  0  0  0  0  0
  146.4307  143.3683  159.0471 C   0  0  0  0  0  0  0  0  0  0  0  0
  146.5478  144.6858  159.2280 N   0  0  0  0  0  0  0  0  0  0  0  0
  146.2776  142.5924  159.9891 O   0  0  0  0  0  0  0  0  0  0  0  0
  149.2805  139.8924  155.2597 C   0  0  1  0  0  0  0  0  0  0  0  0
  148.4832  139.7183  153.9521 C   0  0  0  0  0  0  0  0  0  0  0  0
  150.5536  139.1882  155.1662 N   0  0  0  0  0  0  0  0  0  0  0  0
  150.7719  137.8296  155.0625 C   0  0  0  0  0  0  0  0  0  0  0  0
  152.1222  137.6357  155.0046 C   0  0  0  0  0  0  0  0  0  0  0  0
  152.6565  138.9519  155.0791 C   0  0  0  0  0  0  0  0  0  0  0  0
  151.7170  139.8784  155.1763 N   0  0  0  0  0  0  0  0  0  0  0  0
  151.3844  141.1978  156.6936 H   0  0  0  0  0  0  0  0  0  0  0  0
  149.9846  141.0474  157.7507 H   0  0  0  0  0  0  0  0  0  0  0  0
  150.4860  142.6226  157.1494 H   0  0  0  0  0  0  0  0  0  0  0  0
  149.9087  141.9027  154.8064 H   0  0  0  0  0  0  0  0  0  0  0  0
  148.1978  142.9744  155.6963 H   0  0  0  0  0  0  0  0  0  0  0  0
  147.3280  140.8650  157.5268 H   0  0  0  0  0  0  0  0  0  0  0  0
  148.4793  142.0978  157.9857 H   0  0  0  0  0  0  0  0  0  0  0  0
  146.6023  143.7340  156.9468 H   0  0  0  0  0  0  0  0  0  0  0  0
  145.5409  142.4042  157.3414 H   0  0  0  0  0  0  0  0  0  0  0  0
  146.5071  145.0773  160.1581 H   0  0  0  0  0  0  0  0  0  0  0  0
  146.6716  145.2916  158.4292 H   0  0  0  0  0  0  0  0  0  0  0  0
  148.7151  139.4027  156.0544 H   0  0  0  0  0  0  0  0  0  0  0  0
  147.4767  140.1276  154.0374 H   0  0  0  0  0  0  0  0  0  0  0  0
  148.3813  138.6633  153.6950 H   0  0  0  0  0  0  0  0  0  0  0  0
  148.9727  140.2163  153.1143 H   0  0  0  0  0  0  0  0  0  0  0  0
  149.9576  137.1202  155.0404 H   0  0  0  0  0  0  0  0  0  0  0  0
  152.6484  136.6962  154.9215 H   0  0  0  0  0  0  0  0  0  0  0  0
  153.6919  139.2595  155.0662 H   0  0  0  0  0  0  0  0  0  0  0  0
  147.4554  141.5682  155.2979 H   0  0  0  0  0  0  0  0  0  0  0  0
  1  2  1  0  0  0  0
  1 16  1  0  0  0  0
  1 17  1  0  0  0  0
  1 18  1  0  0  0  0
  2  3  1  0  0  0  0
  2  9  1  0  0  0  0
  2 19  1  0  0  0  0
  3  4  1  0  0  0  0
  3 20  1  0  0  0  0
  3 34  1  0  0  0  0
  4  5  1  0  0  0  0
  4 21  1  0  0  0  0
  4 22  1  0  0  0  0
  5  6  1  0  0  0  0
  5 23  1  0  0  0  0
  5 24  1  0  0  0  0
  6  7  1  0  0  0  0
  6  8  2  0  0  0  0
  7 25  1  0  0  0  0
  7 26  1  0  0  0  0
  9 10  1  0  0  0  0
  9 11  1  0  0  0  0
  9 27  1  0  0  0  0
 10 28  1  0  0  0  0
 10 29  1  0  0  0  0
 10 30  1  0  0  0  0
 11 15  1  0  0  0  0
 11 12  1  0  0  0  0
 12 13  2  0  0  0  0
 12 31  1  0  0  0  0
 13 14  1  0  0  0  0
 13 32  1  0  0  0  0
 14 15  2  0  0  0  0
 14 33  1  0  0  0  0
M  CHG  1   3   1
M  END
> <s_m_source_file>
AV-unprocessed.smi

> <i_m_source_file_index>
3105

> <i_lp_mmshare_version>
43012

> <i_f3d_flags>
0

> <s_epik_input>
W05IMl1DKD1PKVtDSDJdW0NIMl1bTkhdW0NAQEhdKFtDSDNdKVtDQEhdKFtDSDNdKW4xW2NIXVtjSF1bY0hdbjE=

> <s_epik_cmdline>
J2VwaWtfcHl0aG9uJywgJy1waCcsICc3LjAnLCAnLXRuJywgJzgnLCAnLW1hJywgJzIwMCcsICctbWV0YWxfYmluZGluZycsICctaW1hZScsICc8aW5maWxlLm1hZT4nLCAnLW9tYWUnLCAnPG91dGZpbGUubWFlPic=

> <r_lp_tautomer_probability>
1

> <r_epik_Ionization_Penalty>
0.00475669

> <r_epik_Ionization_Penalty_Charging>
0.00474654

> <r_epik_Ionization_Penalty_Neutral>
1.01546e-05

> <r_epik_State_Penalty>
-0

> <r_epik_Charging_Adjusted_Penalty>
0.00474654

> <i_epik_Tot_Q>
1

> <i_epik_Tot_abs_Q>
1

> <r_epik_Metal_State_Penalty>
-0

> <b_epik_Metal_Only>
0

> <s_lp_Force_Field>
OPLS_2005

> <r_lp_Energy>
6.92169

> <b_lp_Chiralities_Consistent>
1

> <s_lp_Variant>
AV-unprocessed.smi:3105-3

> <Gold.Version>
5.8.1

> <Gold.Id.Protein>
6NUR|6NUR_protein|mol2

> <Gold.PLP.Fitness>
41.3989

> <Gold.PLP.PLP>
-25.5503

> <Gold.PLP.part.hbond>
-5.0000

> <Gold.PLP.part.metal>
0.0000

> <Gold.PLP.part.buried>
-1.2675

> <Gold.PLP.part.nonpolar>
-20.0316

> <Gold.PLP.part.repulsive>
0.1848

> <Gold.PLP.ligand.clash>
0.0000

> <Gold.PLP.ligand.torsion>
0.7894

> <Gold.PLP.Chemscore.Hbond>
5.7440

> <Gold.PLP.Chemscore.CHOScore>
0.0000

> <Gold.PLP.Chemscore.Metal>
0.0000

> <Gold.Chemscore.Hbonds>
donor molecule, donor type, donor heavy atom, donor atom, acceptor molecule, acceptor atom, score
      L1  H     3    20       P1  8028  2.00
      L1  H     7    26       P1  8029  0.91
      P1  H  6934  6946       L1     8  1.00
      P1  H  7989  7998       L1    15  1.00

> <Gold.PLP.Chemscore.Internal.Correction>
0.1953

> <Gold.Rescore>
     Score         DG    S(hbond)    S(metal)    S(lipo)     H(rot)  DE(clash)    DE(int)     intcor
     15.90     -18.71       4.46        0.00      48.01       2.85       0.19       2.62       ----

> <Gold.Chemscore.Fitness>
15.8986

> <Gold.Chemscore.DG>
-18.7088

> <Gold.Chemscore.ZeroCoef>
-5.4800

> <Gold.Chemscore.Hbond>
4.4613

> <Gold.Chemscore.Metal>
0.0000

> <Gold.Chemscore.Lipo>
48.0104

> <Gold.Chemscore.Internal_Hbond>
0.0000

> <Gold.Chemscore.DEClash>
0.1947

> <Gold.Chemscore.DEInternal>
2.6154

> <Gold.Chemscore.Rot>
2.8473

> <Gold.Chemscore.Internal.Correction>
   9.000000E+99

> <Gold.Chemscore.Hbonds>
donor molecule, donor type, donor heavy atom, donor atom, acceptor molecule, acceptor atom, score
      L1  H     3    20       P1  8028  0.90
      L1  H     7    26       P1  8029  0.90
      P1  H  6934  6946       L1     8  0.97
      P1  H  7989  7998       L1    15  0.24

> <Gold.Chemscore.Hbond.Weighted>
-14.9008

> <Gold.Chemscore.Metal.Weighted>
-0.0000

> <Gold.Chemscore.Lipo.Weighted>
-5.6172

> <Gold.Chemscore.Internal_Hbond.Weighted>
0.0000

> <Gold.Chemscore.DEClash.Weighted>
0.1947

> <Gold.Chemscore.DEInternal.Weighted>
2.6154

> <Gold.Chemscore.Rot.Weighted>
7.2892

> <Gold.Chemscore.Internal.Correction.Weighted>
   9.000000E+99

> <Gold.Protein.RotatedTorsions>
[ 6907 6896 6895 6894 ] final  130.75 input  -60.11 | X-H torsion
[ 7974 7965 7964 7962 ] final  116.31 input  175.53 | X-H torsion
[ 8008 7997 7996 7995 ] final  -18.98 input   59.86 | X-H torsion
[ 10167 10162 10161 10158 ] final  -11.19 input  -65.29 | X-H torsion
[ 10718 10713 10712 10709 ] final  148.56 input   66.30 | X-H torsion
[ 10763 10752 10751 10750 ] final   79.98 input  -60.55 | X-H torsion
[ 11005 11000 10999 10996 ] final   11.13 input  -57.11 | X-H torsion

> <Gold.Protein.ActiveResidues>
 VAL166  LYS551  ARG553  GLY616  TRP617  ASP618  TYR619  PRO620  LYS621  CYS622 
 ASP623  PHE694  ASN695  SER759  ASP760  ASP761  ALA762  ILE779  LEU786  VAL792 
 PHE793  MET794  SER795  GLU796  ALA797  LYS798  CYS799  TRP800  GLU811  SER814 

> <Gold.Protein.RotatedAtoms>
  152.3495  133.6162  159.5934 H   0  0  0  0  0  0  0  0  0  0  0  0  # atno 6907 bound_to 6896
  150.7528  133.9597  159.3520 H   0  0  0  0  0  0  0  0  0  0  0  0  # atno 6908 bound_to 6896
  151.7450  135.0846  160.0373 H   0  0  0  0  0  0  0  0  0  0  0  0  # atno 6909 bound_to 6896
  145.1812  139.3049  143.4417 H   0  0  0  0  0  0  0  0  0  0  0  0  # atno 7974 bound_to 7965
  154.4868  140.2101  155.9637 H   0  0  0  0  0  0  0  0  0  0  0  0  # atno 8008 bound_to 7997
  156.1248  140.3207  155.8230 H   0  0  0  0  0  0  0  0  0  0  0  0  # atno 8009 bound_to 7997
  155.4403  140.0509  157.3001 H   0  0  0  0  0  0  0  0  0  0  0  0  # atno 8010 bound_to 7997
  140.7132  143.5666  150.9137 H   0  0  0  0  0  0  0  0  0  0  0  0  # atno 10167 bound_to 10162
  157.3071  131.0881  151.1345 H   0  0  0  0  0  0  0  0  0  0  0  0  # atno 10718 bound_to 10713
  153.0996  135.4819  154.8843 H   0  0  0  0  0  0  0  0  0  0  0  0  # atno 10763 bound_to 10752
  154.7364  135.3072  154.8806 H   0  0  0  0  0  0  0  0  0  0  0  0  # atno 10764 bound_to 10752
  153.9427  135.6832  153.4797 H   0  0  0  0  0  0  0  0  0  0  0  0  # atno 10765 bound_to 10752
  140.5067  134.0692  155.7807 H   0  0  0  0  0  0  0  0  0  0  0  0  # atno 11005 bound_to 11000
  146.3453  140.1992  142.8589 LP  0  0  0  0  0  0  0  0  0  0  0  0  # atno 17320 bound_to 7965
  145.0134  140.8734  143.5210 LP  0  0  0  0  0  0  0  0  0  0  0  0  # atno 17321 bound_to 7965
  139.9392  143.6402  152.3058 LP  0  0  0  0  0  0  0  0  0  0  0  0  # atno 17342 bound_to 10162
  139.6880  144.7649  151.1489 LP  0  0  0  0  0  0  0  0  0  0  0  0  # atno 17343 bound_to 10162
  157.2681  130.6691  149.6006 LP  0  0  0  0  0  0  0  0  0  0  0  0  # atno 17370 bound_to 10713
  155.9675  130.4487  150.5631 LP  0  0  0  0  0  0  0  0  0  0  0  0  # atno 17371 bound_to 10713
  141.1407  133.9143  157.2332 LP  0  0  0  0  0  0  0  0  0  0  0  0  # atno 17394 bound_to 11000
  139.9682  135.0136  156.9442 LP  0  0  0  0  0  0  0  0  0  0  0  0  # atno 17395 bound_to 11000

$$$$
