AV-unprocessed.smi:1021|AV-procd|sdf|4457|dock7
  -GOLD-   22720 2433D 1   1.00000     0.00000
 Structure written by MMmdl.
 43 45  0  0  0  0  0  0  0  0  2 V2000
  151.9372  135.3462  156.4845 O   0  0  0  0  0  0  0  0  0  0  0  0
  151.1820  136.5389  156.5035 C   0  0  0  0  0  0  0  0  0  0  0  0
  152.0474  137.7295  156.0648 C   0  0  0  0  0  0  0  0  0  0  0  0
  151.8283  138.1257  154.5929 C   0  0  0  0  0  0  0  0  0  0  0  0
  150.5831  138.9291  154.3703 C   0  0  0  0  0  0  0  0  0  0  0  0
  149.5311  138.6080  153.5628 N   0  3  0  0  0  0  0  0  0  0  0  0
  148.5589  139.6064  153.6289 C   0  0  0  0  0  0  0  0  0  0  0  0
  147.3276  139.7218  152.9912 C   0  0  0  0  0  0  0  0  0  0  0  0
  146.5717  140.8771  153.2793 C   0  0  0  0  0  0  0  0  0  0  0  0
  147.0475  141.8623  154.1687 C   0  0  0  0  0  0  0  0  0  0  0  0
  148.2977  141.7337  154.8090 C   0  0  0  0  0  0  0  0  0  0  0  0
  149.0382  140.5871  154.5210 C   0  0  0  0  0  0  0  0  0  0  0  0
  150.2879  140.1263  154.9537 N   0  0  0  0  0  0  0  0  0  0  0  0
  151.0698  140.9253  155.9111 C   0  0  0  0  0  0  0  0  0  0  0  0
  150.4442  140.9561  157.3200 C   0  0  1  0  0  0  0  0  0  0  0  0
  150.7925  139.7858  158.0341 O   0  0  0  0  0  0  0  0  0  0  0  0
  150.8319  142.2219  158.0677 C   0  0  0  0  0  0  0  0  0  0  0  0
  149.8334  143.1311  158.4787 C   0  0  0  0  0  0  0  0  0  0  0  0
  150.1853  144.3101  159.1645 C   0  0  0  0  0  0  0  0  0  0  0  0
  151.5377  144.5882  159.4406 C   0  0  0  0  0  0  0  0  0  0  0  0
  151.8753  145.7224  160.0984 F   0  0  0  0  0  0  0  0  0  0  0  0
  152.5387  143.6867  159.0305 C   0  0  0  0  0  0  0  0  0  0  0  0
  152.1874  142.5074  158.3449 C   0  0  0  0  0  0  0  0  0  0  0  0
  152.2015  135.1425  157.3689 H   0  0  0  0  0  0  0  0  0  0  0  0
  150.3114  136.4291  155.8562 H   0  0  0  0  0  0  0  0  0  0  0  0
  150.8127  136.6976  157.5170 H   0  0  0  0  0  0  0  0  0  0  0  0
  151.8099  138.5825  156.7016 H   0  0  0  0  0  0  0  0  0  0  0  0
  153.0989  137.4967  156.2400 H   0  0  0  0  0  0  0  0  0  0  0  0
  152.6775  138.7066  154.2321 H   0  0  0  0  0  0  0  0  0  0  0  0
  151.7775  137.2292  153.9745 H   0  0  0  0  0  0  0  0  0  0  0  0
  146.9623  138.9691  152.3080 H   0  0  0  0  0  0  0  0  0  0  0  0
  145.6089  141.0107  152.8079 H   0  0  0  0  0  0  0  0  0  0  0  0
  146.4418  142.7353  154.3634 H   0  0  0  0  0  0  0  0  0  0  0  0
  148.6543  142.4978  155.4835 H   0  0  0  0  0  0  0  0  0  0  0  0
  152.0953  140.5564  155.9380 H   0  0  0  0  0  0  0  0  0  0  0  0
  151.1265  141.9386  155.5114 H   0  0  0  0  0  0  0  0  0  0  0  0
  149.3584  140.9420  157.2191 H   0  0  0  0  0  0  0  0  0  0  0  0
  150.0295  139.4843  158.5035 H   0  0  0  0  0  0  0  0  0  0  0  0
  148.7933  142.9293  158.2689 H   0  0  0  0  0  0  0  0  0  0  0  0
  149.4173  145.0018  159.4781 H   0  0  0  0  0  0  0  0  0  0  0  0
  153.5764  143.9002  159.2406 H   0  0  0  0  0  0  0  0  0  0  0  0
  152.9625  141.8237  158.0309 H   0  0  0  0  0  0  0  0  0  0  0  0
  149.4849  137.7633  153.0079 H   0  0  0  0  0  0  0  0  0  0  0  0
  1  2  1  0  0  0  0
  1 24  1  0  0  0  0
  2  3  1  0  0  0  0
  2 25  1  0  0  0  0
  2 26  1  0  0  0  0
  3  4  1  0  0  0  0
  3 27  1  0  0  0  0
  3 28  1  0  0  0  0
  4  5  1  0  0  0  0
  4 29  1  0  0  0  0
  4 30  1  0  0  0  0
  5 13  1  0  0  0  0
  5  6  2  0  0  0  0
  6  7  1  0  0  0  0
  6 43  1  0  0  0  0
  7 12  2  0  0  0  0
  7  8  1  0  0  0  0
  8  9  2  0  0  0  0
  8 31  1  0  0  0  0
  9 10  1  0  0  0  0
  9 32  1  0  0  0  0
 10 11  2  0  0  0  0
 10 33  1  0  0  0  0
 11 12  1  0  0  0  0
 11 34  1  0  0  0  0
 12 13  1  0  0  0  0
 13 14  1  0  0  0  0
 14 15  1  0  0  0  0
 14 35  1  0  0  0  0
 14 36  1  0  0  0  0
 15 16  1  0  0  0  0
 15 17  1  0  0  0  0
 15 37  1  0  0  0  0
 16 38  1  0  0  0  0
 17 23  1  0  0  0  0
 17 18  2  0  0  0  0
 18 19  1  0  0  0  0
 18 39  1  0  0  0  0
 19 20  2  0  0  0  0
 19 40  1  0  0  0  0
 20 21  1  0  0  0  0
 20 22  1  0  0  0  0
 22 23  2  0  0  0  0
 22 41  1  0  0  0  0
 23 42  1  0  0  0  0
M  CHG  1   6   1
M  END
> <s_m_source_file>
AV-unprocessed.smi

> <i_m_source_file_index>
1021

> <i_lp_mmshare_version>
43012

> <i_f3d_flags>
0

> <s_epik_input>
W09IXVtDSDJdW0NIMl1bQ0gyXWMobjEpbihjKGMxMilbY0hdW2NIXVtjSF1bY0hdMilbQ0gyXVtDQEhdKFtPSF0pYzNbY0hdW2NIXWMoRilbY0hdW2NIXTM=

> <s_epik_cmdline>
J2VwaWtfcHl0aG9uJywgJy1waCcsICc3LjAnLCAnLXRuJywgJzgnLCAnLW1hJywgJzIwMCcsICctbWV0YWxfYmluZGluZycsICctaW1hZScsICc8aW5maWxlLm1hZT4nLCAnLW9tYWUnLCAnPG91dGZpbGUubWFlPic=

> <r_epik_Ionization_Penalty>
0.786441

> <r_epik_Ionization_Penalty_Charging>
0.786439

> <r_epik_Ionization_Penalty_Neutral>
1.96029e-06

> <r_epik_State_Penalty>
0.816472

> <r_epik_Charging_Adjusted_Penalty>
1.60291

> <i_epik_Tot_Q>
1

> <i_epik_Tot_abs_Q>
1

> <r_epik_Metal_State_Penalty>
4.73733

> <b_epik_Metal_Only>
0

> <s_lp_Force_Field>
OPLS_2005

> <r_lp_Energy>
16.4086

> <b_lp_Chiralities_Consistent>
1

> <s_lp_Variant>
AV-unprocessed.smi:1021-4

> <Gold.Version>
5.8.1

> <Gold.Id.Protein>
6NUR|6NUR_protein|mol2

> <Gold.PLP.Fitness>
56.8721

> <Gold.PLP.PLP>
-49.2296

> <Gold.PLP.part.hbond>
-3.0000

> <Gold.PLP.part.metal>
0.0000

> <Gold.PLP.part.buried>
1.1359

> <Gold.PLP.part.nonpolar>
-47.4628

> <Gold.PLP.part.repulsive>
0.0769

> <Gold.PLP.ligand.clash>
0.0000

> <Gold.PLP.ligand.torsion>
0.7196

> <Gold.PLP.Chemscore.Hbond>
3.0000

> <Gold.PLP.Chemscore.CHOScore>
0.0000

> <Gold.PLP.Chemscore.Metal>
0.0000

> <Gold.Chemscore.Hbonds>
donor molecule, donor type, donor heavy atom, donor atom, acceptor molecule, acceptor atom, score
      L1  H     6    43       P1  7948  2.00
      P1  H 10752 10763       L1     1  1.00

> <Gold.PLP.Chemscore.Internal.Correction>
0.0819

> <Gold.Rescore>
     Score         DG    S(hbond)    S(metal)    S(lipo)     H(rot)  DE(clash)    DE(int)     intcor
     16.03     -18.13       1.79        0.00     126.05       3.16       1.35       0.74       ----

> <Gold.Chemscore.Fitness>
16.0341

> <Gold.Chemscore.DG>
-18.1313

> <Gold.Chemscore.ZeroCoef>
-5.4800

> <Gold.Chemscore.Hbond>
1.7947

> <Gold.Chemscore.Metal>
0.0000

> <Gold.Chemscore.Lipo>
126.0488

> <Gold.Chemscore.Internal_Hbond>
0.0000

> <Gold.Chemscore.DEClash>
1.3544

> <Gold.Chemscore.DEInternal>
0.7428

> <Gold.Chemscore.Rot>
3.1604

> <Gold.Chemscore.Internal.Correction>
   9.000000E+99

> <Gold.Chemscore.Hbonds>
donor molecule, donor type, donor heavy atom, donor atom, acceptor molecule, acceptor atom, score
      L1  H     6    43       P1  7948  0.87
      P1  H 10752 10763       L1     1  0.73

> <Gold.Chemscore.Hbond.Weighted>
-5.9943

> <Gold.Chemscore.Metal.Weighted>
-0.0000

> <Gold.Chemscore.Lipo.Weighted>
-14.7477

> <Gold.Chemscore.Internal_Hbond.Weighted>
0.0000

> <Gold.Chemscore.DEClash.Weighted>
1.3544

> <Gold.Chemscore.DEInternal.Weighted>
0.7428

> <Gold.Chemscore.Rot.Weighted>
8.0907

> <Gold.Chemscore.Internal.Correction.Weighted>
   9.000000E+99

> <Gold.Protein.RotatedTorsions>
[ 6907 6896 6895 6894 ] final  154.63 input  -60.11 | X-H torsion
[ 7974 7965 7964 7962 ] final -100.24 input  175.53 | X-H torsion
[ 8008 7997 7996 7995 ] final  108.44 input   59.86 | X-H torsion
[ 10167 10162 10161 10158 ] final  -51.62 input  -65.29 | X-H torsion
[ 10718 10713 10712 10709 ] final    0.75 input   66.30 | X-H torsion
[ 10763 10752 10751 10750 ] final  110.74 input  -60.55 | X-H torsion
[ 11005 11000 10999 10996 ] final -168.91 input  -57.11 | X-H torsion

> <Gold.Protein.ActiveResidues>
 VAL166  LYS551  ARG553  GLY616  TRP617  ASP618  TYR619  PRO620  LYS621  CYS622 
 ASP623  PHE694  ASN695  SER759  ASP760  ASP761  ALA762  ILE779  LEU786  VAL792 
 PHE793  MET794  SER795  GLU796  ALA797  LYS798  CYS799  TRP800  GLU811  SER814 

> <Gold.Protein.RotatedAtoms>
  152.0557  133.4039  159.4395 H   0  0  0  0  0  0  0  0  0  0  0  0  # atno 6907 bound_to 6896
  150.6868  134.3257  159.4815 H   0  0  0  0  0  0  0  0  0  0  0  0  # atno 6908 bound_to 6896
  152.1073  134.9299  160.0618 H   0  0  0  0  0  0  0  0  0  0  0  0  # atno 6909 bound_to 6896
  145.2971  140.9368  143.2844 H   0  0  0  0  0  0  0  0  0  0  0  0  # atno 7974 bound_to 7965
  156.1903  140.3076  155.9319 H   0  0  0  0  0  0  0  0  0  0  0  0  # atno 8008 bound_to 7997
  155.3189  140.0455  157.3055 H   0  0  0  0  0  0  0  0  0  0  0  0  # atno 8009 bound_to 7997
  154.5444  140.2272  155.8597 H   0  0  0  0  0  0  0  0  0  0  0  0  # atno 8010 bound_to 7997
  140.6579  143.2613  151.4529 H   0  0  0  0  0  0  0  0  0  0  0  0  # atno 10167 bound_to 10162
  156.8380  130.5511  149.5680 H   0  0  0  0  0  0  0  0  0  0  0  0  # atno 10718 bound_to 10713
  153.4533  135.3739  155.2296 H   0  0  0  0  0  0  0  0  0  0  0  0  # atno 10763 bound_to 10752
  154.8756  135.3891  154.4012 H   0  0  0  0  0  0  0  0  0  0  0  0  # atno 10764 bound_to 10752
  153.4574  135.7086  153.6135 H   0  0  0  0  0  0  0  0  0  0  0  0  # atno 10765 bound_to 10752
  140.5366  134.5563  157.5089 H   0  0  0  0  0  0  0  0  0  0  0  0  # atno 11005 bound_to 11000
  144.9124  139.4512  143.6580 LP  0  0  0  0  0  0  0  0  0  0  0  0  # atno 17320 bound_to 7965
  146.3165  139.7939  142.8979 LP  0  0  0  0  0  0  0  0  0  0  0  0  # atno 17321 bound_to 7965
  139.5806  144.1719  152.1963 LP  0  0  0  0  0  0  0  0  0  0  0  0  # atno 17342 bound_to 10162
  140.1043  144.5513  150.6968 LP  0  0  0  0  0  0  0  0  0  0  0  0  # atno 17343 bound_to 10162
  156.0896  130.5885  150.9710 LP  0  0  0  0  0  0  0  0  0  0  0  0  # atno 17370 bound_to 10713
  157.6371  131.0915  150.8327 LP  0  0  0  0  0  0  0  0  0  0  0  0  # atno 17371 bound_to 10713
  139.9526  134.7591  156.0415 LP  0  0  0  0  0  0  0  0  0  0  0  0  # atno 17394 bound_to 11000
  141.1251  133.6601  156.3315 LP  0  0  0  0  0  0  0  0  0  0  0  0  # atno 17395 bound_to 11000

$$$$
