AV-unprocessed.smi:1218|AV-procd|sdf|5108|dock6
  -GOLD-   22720 4163D 1   1.00000     0.00000
 Structure written by MMmdl.
 45 46  0  0  0  0  0  0  0  0  2 V2000
  148.9624  135.2680  154.8781 C   0  0  0  0  0  0  0  0  0  0  0  0
  148.4277  136.3881  155.7861 C   0  0  0  0  0  0  0  0  0  0  0  0
  147.6761  135.7922  156.9858 C   0  0  0  0  0  0  0  0  0  0  0  0
  147.5224  137.3734  155.0154 C   0  0  0  0  0  0  0  0  0  0  0  0
  148.2335  138.0877  153.9197 N   0  3  1  0  0  0  0  0  0  0  0  0
  147.3390  138.9140  153.0729 C   0  0  0  0  0  0  0  0  0  0  0  0
  146.9779  140.2370  153.7720 C   0  0  0  0  0  0  0  0  0  0  0  0
  148.1708  140.9385  154.1001 O   0  0  0  0  0  0  0  0  0  0  0  0
  148.9965  140.2160  155.0090 C   0  0  2  0  0  0  0  0  0  0  0  0
  150.2196  141.0853  155.3515 C   0  0  0  0  0  0  0  0  0  0  0  0
  149.9876  141.9200  156.5254 N   0  0  0  0  0  0  0  0  0  0  0  0
  149.8432  141.4627  157.7787 C   0  0  0  0  0  0  0  0  0  0  0  0
  149.8767  140.2648  158.0643 O   0  0  0  0  0  0  0  0  0  0  0  0
  149.6368  142.5251  158.8642 C   0  0  0  0  0  0  0  0  0  0  0  0
  150.8787  143.1778  159.2445 N   0  0  0  0  0  0  0  0  0  0  0  0
  151.2088  144.5145  159.1532 C   0  0  0  0  0  0  0  0  0  0  0  0
  152.4818  144.6527  159.6276 C   0  0  0  0  0  0  0  0  0  0  0  0
  152.8533  143.3274  159.9889 C   0  0  0  0  0  0  0  0  0  0  0  0
  151.8929  142.4470  159.7573 N   0  0  0  0  0  0  0  0  0  0  0  0
  149.4130  138.8819  154.3510 C   0  0  0  0  0  0  0  0  0  0  0  0
  148.1488  134.6857  154.4442 H   0  0  0  0  0  0  0  0  0  0  0  0
  149.5989  134.5815  155.4373 H   0  0  0  0  0  0  0  0  0  0  0  0
  149.5604  135.6675  154.0587 H   0  0  0  0  0  0  0  0  0  0  0  0
  149.2831  136.9267  156.1922 H   0  0  0  0  0  0  0  0  0  0  0  0
  146.8008  135.2260  156.6657 H   0  0  0  0  0  0  0  0  0  0  0  0
  147.3363  136.5743  157.6656 H   0  0  0  0  0  0  0  0  0  0  0  0
  148.3168  135.1197  157.5569 H   0  0  0  0  0  0  0  0  0  0  0  0
  146.6897  136.8074  154.5953 H   0  0  0  0  0  0  0  0  0  0  0  0
  147.0752  138.0924  155.7016 H   0  0  0  0  0  0  0  0  0  0  0  0
  147.8568  139.1312  152.1377 H   0  0  0  0  0  0  0  0  0  0  0  0
  146.4408  138.3585  152.8014 H   0  0  0  0  0  0  0  0  0  0  0  0
  146.3779  140.8592  153.1078 H   0  0  0  0  0  0  0  0  0  0  0  0
  146.3806  140.0640  154.6685 H   0  0  0  0  0  0  0  0  0  0  0  0
  148.4377  140.0174  155.9241 H   0  0  0  0  0  0  0  0  0  0  0  0
  151.0949  140.4564  155.5232 H   0  0  0  0  0  0  0  0  0  0  0  0
  150.4665  141.7342  154.5106 H   0  0  0  0  0  0  0  0  0  0  0  0
  149.9477  142.9179  156.3756 H   0  0  0  0  0  0  0  0  0  0  0  0
  148.9279  143.2727  158.5046 H   0  0  0  0  0  0  0  0  0  0  0  0
  149.2017  142.0722  159.7564 H   0  0  0  0  0  0  0  0  0  0  0  0
  150.5174  145.2470  158.7633 H   0  0  0  0  0  0  0  0  0  0  0  0
  153.0601  145.5615  159.7044 H   0  0  0  0  0  0  0  0  0  0  0  0
  153.7860  142.9808  160.4090 H   0  0  0  0  0  0  0  0  0  0  0  0
  150.0505  138.3069  155.0211 H   0  0  0  0  0  0  0  0  0  0  0  0
  150.0171  139.0902  153.4668 H   0  0  0  0  0  0  0  0  0  0  0  0
  148.5828  137.3560  153.3171 H   0  0  0  0  0  0  0  0  0  0  0  0
  1  2  1  0  0  0  0
  1 21  1  0  0  0  0
  1 22  1  0  0  0  0
  1 23  1  0  0  0  0
  2  3  1  0  0  0  0
  2  4  1  0  0  0  0
  2 24  1  0  0  0  0
  3 25  1  0  0  0  0
  3 26  1  0  0  0  0
  3 27  1  0  0  0  0
  4  5  1  0  0  0  0
  4 28  1  0  0  0  0
  4 29  1  0  0  0  0
  5 20  1  0  0  0  0
  5  6  1  0  0  0  0
  5 45  1  0  0  0  0
  6  7  1  0  0  0  0
  6 30  1  0  0  0  0
  6 31  1  0  0  0  0
  7  8  1  0  0  0  0
  7 32  1  0  0  0  0
  7 33  1  0  0  0  0
  8  9  1  0  0  0  0
  9 10  1  0  0  0  0
  9 20  1  0  0  0  0
  9 34  1  0  0  0  0
 10 11  1  0  0  0  0
 10 35  1  0  0  0  0
 10 36  1  0  0  0  0
 11 12  1  0  0  0  0
 11 37  1  0  0  0  0
 12 13  2  0  0  0  0
 12 14  1  0  0  0  0
 14 15  1  0  0  0  0
 14 38  1  0  0  0  0
 14 39  1  0  0  0  0
 15 19  1  0  0  0  0
 15 16  1  0  0  0  0
 16 17  2  0  0  0  0
 16 40  1  0  0  0  0
 17 18  1  0  0  0  0
 17 41  1  0  0  0  0
 18 19  2  0  0  0  0
 18 42  1  0  0  0  0
 20 43  1  0  0  0  0
 20 44  1  0  0  0  0
M  CHG  1   5   1
M  END
> <s_m_source_file>
AV-unprocessed.smi

> <i_m_source_file_index>
1218

> <i_lp_mmshare_version>
43012

> <i_f3d_flags>
0

> <s_epik_input>
W0NIM11bQ0hdKFtDSDNdKVtDSDJdTjFbQ0gyXVtDSDJdT1tDQEhdKFtDSDJdMSlbQ0gyXVtOSF1DKD1PKVtDSDJdbjJbY0hdW2NIXVtjSF1uMg==

> <s_epik_cmdline>
J2VwaWtfcHl0aG9uJywgJy1waCcsICc3LjAnLCAnLXRuJywgJzgnLCAnLW1hJywgJzIwMCcsICctbWV0YWxfYmluZGluZycsICctaW1hZScsICc8aW5maWxlLm1hZT4nLCAnLW9tYWUnLCAnPG91dGZpbGUubWFlPic=

> <r_lp_tautomer_probability>
1

> <r_epik_Ionization_Penalty>
0.0995066

> <r_epik_Ionization_Penalty_Charging>
0.0994921

> <r_epik_Ionization_Penalty_Neutral>
1.44634e-05

> <r_epik_State_Penalty>
0.0895432

> <r_epik_Charging_Adjusted_Penalty>
0.189035

> <i_epik_Tot_Q>
1

> <i_epik_Tot_abs_Q>
1

> <r_epik_Metal_State_Penalty>
0.0895432

> <b_epik_Metal_Only>
0

> <s_lp_Force_Field>
OPLS_2005

> <r_lp_Energy>
21.49

> <b_lp_Chiralities_Consistent>
1

> <s_lp_Variant>
AV-unprocessed.smi:1218-3

> <Gold.Version>
5.8.1

> <Gold.Id.Protein>
6NUR|6NUR_protein|mol2

> <Gold.PLP.Fitness>
41.6417

> <Gold.PLP.PLP>
-30.9074

> <Gold.PLP.part.hbond>
-2.0000

> <Gold.PLP.part.metal>
0.0000

> <Gold.PLP.part.buried>
-3.2166

> <Gold.PLP.part.nonpolar>
-25.8139

> <Gold.PLP.part.repulsive>
0.2557

> <Gold.PLP.ligand.clash>
0.0000

> <Gold.PLP.ligand.torsion>
0.6941

> <Gold.PLP.Chemscore.Hbond>
3.0000

> <Gold.PLP.Chemscore.CHOScore>
1.0000

> <Gold.PLP.Chemscore.Metal>
0.0000

> <Gold.Chemscore.Hbonds>
donor molecule, donor type, donor heavy atom, donor atom, acceptor molecule, acceptor atom, score
      L1  H     5    45       P1  7948  2.00
      L1  H    11    37       P1  8028  0.55

> <Gold.PLP.Chemscore.Internal.Correction>
0.1225

> <Gold.Rescore>
     Score         DG    S(hbond)    S(metal)    S(lipo)     H(rot)  DE(clash)    DE(int)     intcor
     15.29     -16.44       2.00        0.00      79.59       1.96       0.28       0.87       ----

> <Gold.Chemscore.Fitness>
15.2931

> <Gold.Chemscore.DG>
-16.4358

> <Gold.Chemscore.ZeroCoef>
-5.4800

> <Gold.Chemscore.Hbond>
1.9963

> <Gold.Chemscore.Metal>
0.0000

> <Gold.Chemscore.Lipo>
79.5884

> <Gold.Chemscore.Internal_Hbond>
0.0000

> <Gold.Chemscore.DEClash>
0.2753

> <Gold.Chemscore.DEInternal>
0.8674

> <Gold.Chemscore.Rot>
1.9624

> <Gold.Chemscore.Internal.Correction>
   9.000000E+99

> <Gold.Chemscore.Hbonds>
donor molecule, donor type, donor heavy atom, donor atom, acceptor molecule, acceptor atom, score
      L1  H     5    45       P1  7948  1.00
      L1  H    11    37       P1  8028  0.52

> <Gold.Chemscore.Hbond.Weighted>
-6.6677

> <Gold.Chemscore.Metal.Weighted>
-0.0000

> <Gold.Chemscore.Lipo.Weighted>
-9.3118

> <Gold.Chemscore.Internal_Hbond.Weighted>
0.0000

> <Gold.Chemscore.DEClash.Weighted>
0.2753

> <Gold.Chemscore.DEInternal.Weighted>
0.8674

> <Gold.Chemscore.Rot.Weighted>
5.0237

> <Gold.Chemscore.Internal.Correction.Weighted>
   9.000000E+99

> <Gold.Protein.RotatedTorsions>
[ 6907 6896 6895 6894 ] final -106.23 input  -60.11 | X-H torsion
[ 7974 7965 7964 7962 ] final  117.06 input  175.53 | X-H torsion
[ 8008 7997 7996 7995 ] final   92.24 input   59.86 | X-H torsion
[ 10167 10162 10161 10158 ] final   57.24 input  -65.29 | X-H torsion
[ 10718 10713 10712 10709 ] final   81.12 input   66.30 | X-H torsion
[ 10763 10752 10751 10750 ] final  -14.90 input  -60.55 | X-H torsion
[ 11005 11000 10999 10996 ] final   99.38 input  -57.11 | X-H torsion

> <Gold.Protein.ActiveResidues>
 VAL166  LYS551  ARG553  GLY616  TRP617  ASP618  TYR619  PRO620  LYS621  CYS622 
 ASP623  PHE694  ASN695  SER759  ASP760  ASP761  ALA762  ILE779  LEU786  VAL792 
 PHE793  MET794  SER795  GLU796  ALA797  LYS798  CYS799  TRP800  GLU811  SER814 

> <Gold.Protein.RotatedAtoms>
  150.7378  134.0008  159.3637 H   0  0  0  0  0  0  0  0  0  0  0  0  # atno 6907 bound_to 6896
  151.7961  135.0720  160.0403 H   0  0  0  0  0  0  0  0  0  0  0  0  # atno 6908 bound_to 6896
  152.3173  133.5780  159.5757 H   0  0  0  0  0  0  0  0  0  0  0  0  # atno 6909 bound_to 6896
  145.1720  139.3096  143.4462 H   0  0  0  0  0  0  0  0  0  0  0  0  # atno 7974 bound_to 7965
  156.0331  140.3328  155.7161 H   0  0  0  0  0  0  0  0  0  0  0  0  # atno 8008 bound_to 7997
  155.5856  140.0641  157.2789 H   0  0  0  0  0  0  0  0  0  0  0  0  # atno 8009 bound_to 7997
  154.4361  140.1836  156.1010 H   0  0  0  0  0  0  0  0  0  0  0  0  # atno 8010 bound_to 7997
  140.2001  144.3996  150.6532 H   0  0  0  0  0  0  0  0  0  0  0  0  # atno 10167 bound_to 10162
  157.6824  130.9990  150.2180 H   0  0  0  0  0  0  0  0  0  0  0  0  # atno 10718 bound_to 10713
  153.5353  135.7014  153.5663 H   0  0  0  0  0  0  0  0  0  0  0  0  # atno 10763 bound_to 10752
  153.3653  135.3959  155.1748 H   0  0  0  0  0  0  0  0  0  0  0  0  # atno 10764 bound_to 10752
  154.8680  135.3798  154.4853 H   0  0  0  0  0  0  0  0  0  0  0  0  # atno 10765 bound_to 10752
  139.8771  134.9093  156.4597 H   0  0  0  0  0  0  0  0  0  0  0  0  # atno 11005 bound_to 11000
  146.3467  140.1869  142.8589 LP  0  0  0  0  0  0  0  0  0  0  0  0  # atno 17320 bound_to 7965
  145.0223  140.8803  143.5159 LP  0  0  0  0  0  0  0  0  0  0  0  0  # atno 17321 bound_to 7965
  140.6396  143.2201  151.6319 LP  0  0  0  0  0  0  0  0  0  0  0  0  # atno 17342 bound_to 10162
  139.5220  144.3175  152.0940 LP  0  0  0  0  0  0  0  0  0  0  0  0  # atno 17343 bound_to 10162
  156.2837  130.3736  149.7909 LP  0  0  0  0  0  0  0  0  0  0  0  0  # atno 17370 bound_to 10713
  156.5590  130.8375  151.3323 LP  0  0  0  0  0  0  0  0  0  0  0  0  # atno 17371 bound_to 10713
  140.8872  133.7874  155.9532 LP  0  0  0  0  0  0  0  0  0  0  0  0  # atno 17394 bound_to 11000
  140.8791  134.2633  157.5153 LP  0  0  0  0  0  0  0  0  0  0  0  0  # atno 17395 bound_to 11000

$$$$
