AV-unprocessed.smi:252|AV-procd|sdf|1936|dock4
  -GOLD-   2262021 53D 1   1.00000     0.00000
 Structure written by MMmdl.
 56 59  0  0  0  0  0  0  0  0  1 V2000
  151.5136  145.5535  159.8389 C   0  0  0  0  0  0  0  0  0  0  0  0
  152.3200  145.2109  158.5763 C   0  0  0  0  0  0  0  0  0  0  0  0
  152.1344  143.7642  158.1074 C   0  0  0  0  0  0  0  0  0  0  0  0
  152.7339  142.8396  158.6572 O   0  0  0  0  0  0  0  0  0  0  0  0
  151.2913  143.5849  157.0792 N   0  0  0  0  0  0  0  0  0  0  0  0
  150.9690  142.3003  156.4665 C   0  0  2  0  0  0  0  0  0  0  0  0
  149.7895  142.4473  155.4849 C   0  0  0  0  0  0  0  0  0  0  0  0
  149.3828  141.0759  154.9257 C   0  0  0  0  0  0  0  0  0  0  0  0
  149.0824  140.0849  156.0612 C   0  0  0  0  0  0  0  0  0  0  0  0
  150.2112  140.0008  156.9894 N   0  0  0  0  0  0  0  0  0  0  0  0
  150.2414  138.9538  157.8527 C   0  0  0  0  0  0  0  0  0  0  0  0
  151.4197  138.5685  158.4125 N   0  0  0  0  0  0  0  0  0  0  0  0
  151.4613  137.5277  159.2494 C   0  0  0  0  0  0  0  0  0  0  0  0
  150.4610  136.7453  159.6581 N   0  0  0  0  0  0  0  0  0  0  0  0
  149.2738  137.1334  159.1106 C   0  0  0  0  0  0  0  0  0  0  0  0
  149.0767  138.2156  158.2067 C   0  0  0  0  0  0  0  0  0  0  0  0
  147.7312  138.3100  157.8701 N   0  0  0  0  0  0  0  0  0  0  0  0
  147.1684  137.3334  158.5274 C   0  0  0  0  0  0  0  0  0  0  0  0
  148.0199  136.5794  159.3027 N   0  0  0  0  0  0  0  0  0  0  0  0
  147.6643  135.4375  160.1318 C   0  0  0  0  0  0  0  0  0  0  0  0
  146.9492  135.8272  161.4525 C   0  0  1  0  0  0  0  0  0  0  0  0
  147.5985  136.9702  161.9837 O   0  0  0  0  0  0  0  0  0  0  0  0
  145.4737  136.1738  161.2676 C   0  0  0  0  0  0  0  0  0  0  0  0
  144.8597  135.7909  162.6054 C   0  0  0  0  0  0  0  0  0  0  0  0
  145.5463  134.5936  162.9222 O   0  0  0  0  0  0  0  0  0  0  0  0
  146.9182  134.7414  162.5659 C   0  0  1  0  0  0  0  0  0  0  0  0
  147.4563  133.3505  162.1949 C   0  0  0  0  0  0  0  0  0  0  0  0
  150.6339  141.2768  157.5666 C   0  0  0  0  0  0  0  0  0  0  0  0
  151.7153  146.5761  160.1585 H   0  0  0  0  0  0  0  0  0  0  0  0
  151.7709  144.8923  160.6674 H   0  0  0  0  0  0  0  0  0  0  0  0
  150.4406  145.4708  159.6616 H   0  0  0  0  0  0  0  0  0  0  0  0
  152.0340  145.8799  157.7640 H   0  0  0  0  0  0  0  0  0  0  0  0
  153.3794  145.3864  158.7691 H   0  0  0  0  0  0  0  0  0  0  0  0
  150.8412  144.4005  156.6897 H   0  0  0  0  0  0  0  0  0  0  0  0
  151.8406  141.9335  155.9205 H   0  0  0  0  0  0  0  0  0  0  0  0
  148.9367  142.8994  155.9933 H   0  0  0  0  0  0  0  0  0  0  0  0
  150.0560  143.1165  154.6660 H   0  0  0  0  0  0  0  0  0  0  0  0
  148.5117  141.1777  154.2782 H   0  0  0  0  0  0  0  0  0  0  0  0
  150.1881  140.6832  154.3035 H   0  0  0  0  0  0  0  0  0  0  0  0
  148.1910  140.4016  156.6048 H   0  0  0  0  0  0  0  0  0  0  0  0
  148.8709  139.1025  155.6369 H   0  0  0  0  0  0  0  0  0  0  0  0
  152.4361  137.2859  159.6465 H   0  0  0  0  0  0  0  0  0  0  0  0
  146.1078  137.1373  158.4657 H   0  0  0  0  0  0  0  0  0  0  0  0
  147.0289  134.7848  159.5324 H   0  0  0  0  0  0  0  0  0  0  0  0
  148.5739  134.8740  160.3432 H   0  0  0  0  0  0  0  0  0  0  0  0
  147.2286  137.1582  162.8326 H   0  0  0  0  0  0  0  0  0  0  0  0
  145.2942  137.2146  160.9940 H   0  0  0  0  0  0  0  0  0  0  0  0
  145.0355  135.5464  160.4906 H   0  0  0  0  0  0  0  0  0  0  0  0
  145.0628  136.5473  163.3650 H   0  0  0  0  0  0  0  0  0  0  0  0
  143.7823  135.6350  162.5479 H   0  0  0  0  0  0  0  0  0  0  0  0
  147.4524  135.0902  163.4518 H   0  0  0  0  0  0  0  0  0  0  0  0
  148.5111  133.3910  161.9229 H   0  0  0  0  0  0  0  0  0  0  0  0
  146.9037  132.9154  161.3619 H   0  0  0  0  0  0  0  0  0  0  0  0
  147.3643  132.6660  163.0384 H   0  0  0  0  0  0  0  0  0  0  0  0
  151.4990  141.1514  158.2172 H   0  0  0  0  0  0  0  0  0  0  0  0
  149.8253  141.6539  158.1948 H   0  0  0  0  0  0  0  0  0  0  0  0
  1  2  1  0  0  0  0
  1 29  1  0  0  0  0
  1 30  1  0  0  0  0
  1 31  1  0  0  0  0
  2  3  1  0  0  0  0
  2 32  1  0  0  0  0
  2 33  1  0  0  0  0
  3  4  2  0  0  0  0
  3  5  1  0  0  0  0
  5  6  1  0  0  0  0
  5 34  1  0  0  0  0
  6 28  1  0  0  0  0
  6  7  1  0  0  0  0
  6 35  1  0  0  0  0
  7  8  1  0  0  0  0
  7 36  1  0  0  0  0
  7 37  1  0  0  0  0
  8  9  1  0  0  0  0
  8 38  1  0  0  0  0
  8 39  1  0  0  0  0
  9 10  1  0  0  0  0
  9 40  1  0  0  0  0
  9 41  1  0  0  0  0
 10 11  1  0  0  0  0
 10 28  1  0  0  0  0
 11 16  1  0  0  0  0
 11 12  2  0  0  0  0
 12 13  1  0  0  0  0
 13 14  2  0  0  0  0
 13 42  1  0  0  0  0
 14 15  1  0  0  0  0
 15 19  1  0  0  0  0
 15 16  2  0  0  0  0
 16 17  1  0  0  0  0
 17 18  2  0  0  0  0
 18 19  1  0  0  0  0
 18 43  1  0  0  0  0
 19 20  1  0  0  0  0
 20 21  1  0  0  0  0
 20 44  1  0  0  0  0
 20 45  1  0  0  0  0
 21 26  1  0  0  0  0
 21 22  1  0  0  0  0
 21 23  1  0  0  0  0
 22 46  1  0  0  0  0
 23 24  1  0  0  0  0
 23 47  1  0  0  0  0
 23 48  1  0  0  0  0
 24 25  1  0  0  0  0
 24 49  1  0  0  0  0
 24 50  1  0  0  0  0
 25 26  1  0  0  0  0
 26 27  1  0  0  0  0
 26 51  1  0  0  0  0
 27 52  1  0  0  0  0
 27 53  1  0  0  0  0
 27 54  1  0  0  0  0
 28 55  1  0  0  0  0
 28 56  1  0  0  0  0
M  END
> <s_m_source_file>
AV-unprocessed.smi

> <i_m_source_file_index>
252

> <i_lp_mmshare_version>
43012

> <i_f3d_flags>
0

> <s_epik_input>
W0NIM11bQ0gyXUMoPU8pW05IXVtDQEBIXTFbQ0gyXVtDSDJdW0NIMl1OKFtDSDJdMSljKG5bY0hdbjIpYyhjMjMpbltjSF1uM1tDSDJdW0NAQF00KFtPSF0pW0NIMl1bQ0gyXU9bQ0BIXTRbQ0gzXQ==

> <s_epik_cmdline>
J2VwaWtfcHl0aG9uJywgJy1waCcsICc3LjAnLCAnLXRuJywgJzgnLCAnLW1hJywgJzIwMCcsICctbWV0YWxfYmluZGluZycsICctaW1hZScsICc8aW5maWxlLm1hZT4nLCAnLW9tYWUnLCAnPG91dGZpbGUubWFlPic=

> <r_lp_tautomer_probability>
1

> <r_epik_Ionization_Penalty>
0.00182575

> <r_epik_Ionization_Penalty_Charging>
0

> <r_epik_Ionization_Penalty_Neutral>
0.00182575

> <r_epik_State_Penalty>
0.00104524

> <r_epik_Charging_Adjusted_Penalty>
0.00104524

> <i_epik_Tot_Q>
0

> <i_epik_Tot_abs_Q>
0

> <r_epik_Metal_State_Penalty>
-0

> <b_epik_Metal_Only>
0

> <s_lp_Force_Field>
OPLS_2005

> <r_lp_Energy>
34.3477

> <b_lp_Chiralities_Consistent>
1

> <s_lp_Variant>
AV-unprocessed.smi:252-1

> <Gold.Version>
5.8.1

> <Gold.Id.Protein>
6NUR|6NUR_protein|mol2

> <Gold.PLP.Fitness>
52.6455

> <Gold.PLP.PLP>
-46.7686

> <Gold.PLP.part.hbond>
-3.7559

> <Gold.PLP.part.metal>
0.0000

> <Gold.PLP.part.buried>
-4.3206

> <Gold.PLP.part.nonpolar>
-37.8525

> <Gold.PLP.part.repulsive>
0.0301

> <Gold.PLP.ligand.clash>
0.0000

> <Gold.PLP.ligand.torsion>
1.1080

> <Gold.PLP.Chemscore.Hbond>
2.5298

> <Gold.PLP.Chemscore.CHOScore>
0.0000

> <Gold.PLP.Chemscore.Metal>
0.0000

> <Gold.Chemscore.Hbonds>
donor molecule, donor type, donor heavy atom, donor atom, acceptor molecule, acceptor atom, score
      L1  H     5    34       P1  8028  0.39
      P1  H  6896  6909       L1    14  0.86
      P1  H  6931  6943       L1    22  1.00
      P1  H  6934  6947       L1    22  0.16

> <Gold.PLP.Chemscore.Internal.Correction>
0.5035

> <Gold.Rescore>
     Score         DG    S(hbond)    S(metal)    S(lipo)     H(rot)  DE(clash)    DE(int)     intcor
     12.79     -17.81       2.20        0.00     101.67       2.70       1.53       3.49       ----

> <Gold.Chemscore.Fitness>
12.7903

> <Gold.Chemscore.DG>
-17.8131

> <Gold.Chemscore.ZeroCoef>
-5.4800

> <Gold.Chemscore.Hbond>
2.2035

> <Gold.Chemscore.Metal>
0.0000

> <Gold.Chemscore.Lipo>
101.6736

> <Gold.Chemscore.Internal_Hbond>
0.0000

> <Gold.Chemscore.DEClash>
1.5342

> <Gold.Chemscore.DEInternal>
3.4886

> <Gold.Chemscore.Rot>
2.7041

> <Gold.Chemscore.Internal.Correction>
   9.000000E+99

> <Gold.Chemscore.Hbonds>
donor molecule, donor type, donor heavy atom, donor atom, acceptor molecule, acceptor atom, score
      L1  H     5    34       P1  8028  0.40
      P1  H  6896  6909       L1    14  0.16
      P1  H  6931  6943       L1    22  0.29
      P1  H  6934  6947       L1    22  0.04

> <Gold.Chemscore.Hbond.Weighted>
-7.3598

> <Gold.Chemscore.Metal.Weighted>
-0.0000

> <Gold.Chemscore.Lipo.Weighted>
-11.8958

> <Gold.Chemscore.Internal_Hbond.Weighted>
0.0000

> <Gold.Chemscore.DEClash.Weighted>
1.5342

> <Gold.Chemscore.DEInternal.Weighted>
3.4886

> <Gold.Chemscore.Rot.Weighted>
6.9225

> <Gold.Chemscore.Internal.Correction.Weighted>
   9.000000E+99

> <Gold.Protein.RotatedTorsions>
[ 6907 6896 6895 6894 ] final  115.74 input  -60.11 | X-H torsion
[ 7974 7965 7964 7962 ] final -118.03 input  175.53 | X-H torsion
[ 8008 7997 7996 7995 ] final   61.02 input   59.86 | X-H torsion
[ 10167 10162 10161 10158 ] final  -29.68 input  -65.29 | X-H torsion
[ 10718 10713 10712 10709 ] final -153.82 input   66.30 | X-H torsion
[ 10763 10752 10751 10750 ] final -159.31 input  -60.55 | X-H torsion
[ 11005 11000 10999 10996 ] final  -41.37 input  -57.11 | X-H torsion

> <Gold.Protein.ActiveResidues>
 VAL166  LYS551  ARG553  GLY616  TRP617  ASP618  TYR619  PRO620  LYS621  CYS622 
 ASP623  PHE694  ASN695  SER759  ASP760  ASP761  ALA762  ILE779  LEU786  VAL792 
 PHE793  MET794  SER795  GLU796  ALA797  LYS798  CYS799  TRP800  GLU811  SER814 

> <Gold.Protein.RotatedAtoms>
  152.4723  133.8057  159.6976 H   0  0  0  0  0  0  0  0  0  0  0  0  # atno 6907 bound_to 6896
  150.8718  133.7484  159.2965 H   0  0  0  0  0  0  0  0  0  0  0  0  # atno 6908 bound_to 6896
  151.5017  135.1065  159.9882 H   0  0  0  0  0  0  0  0  0  0  0  0  # atno 6909 bound_to 6896
  145.0785  140.8409  143.4053 H   0  0  0  0  0  0  0  0  0  0  0  0  # atno 7974 bound_to 7965
  155.5917  140.3493  155.4568 H   0  0  0  0  0  0  0  0  0  0  0  0  # atno 8008 bound_to 7997
  156.0296  140.1271  157.0297 H   0  0  0  0  0  0  0  0  0  0  0  0  # atno 8009 bound_to 7997
  154.4347  140.1046  156.6066 H   0  0  0  0  0  0  0  0  0  0  0  0  # atno 8010 bound_to 7997
  140.7258  143.3909  151.1432 H   0  0  0  0  0  0  0  0  0  0  0  0  # atno 10167 bound_to 10162
  156.4910  130.8347  151.2570 H   0  0  0  0  0  0  0  0  0  0  0  0  # atno 10718 bound_to 10713
  154.7485  135.3086  154.8600 H   0  0  0  0  0  0  0  0  0  0  0  0  # atno 10763 bound_to 10752
  153.9394  135.6776  153.4748 H   0  0  0  0  0  0  0  0  0  0  0  0  # atno 10764 bound_to 10752
  153.1081  135.4879  154.8915 H   0  0  0  0  0  0  0  0  0  0  0  0  # atno 10765 bound_to 10752
  141.0241  133.6849  156.2448 H   0  0  0  0  0  0  0  0  0  0  0  0  # atno 11005 bound_to 11000
  145.1207  139.2695  143.5590 LP  0  0  0  0  0  0  0  0  0  0  0  0  # atno 17320 bound_to 7965
  146.3530  140.0830  142.8616 LP  0  0  0  0  0  0  0  0  0  0  0  0  # atno 17321 bound_to 7965
  139.7514  143.8773  152.3077 LP  0  0  0  0  0  0  0  0  0  0  0  0  # atno 17342 bound_to 10162
  139.8628  144.7108  150.9079 LP  0  0  0  0  0  0  0  0  0  0  0  0  # atno 17343 bound_to 10162
  157.7474  131.0013  150.2960 LP  0  0  0  0  0  0  0  0  0  0  0  0  # atno 17370 bound_to 10713
  156.3427  130.3818  149.7395 LP  0  0  0  0  0  0  0  0  0  0  0  0  # atno 17371 bound_to 10713
  140.6522  134.5055  157.5578 LP  0  0  0  0  0  0  0  0  0  0  0  0  # atno 17394 bound_to 11000
  139.9164  134.8237  156.1351 LP  0  0  0  0  0  0  0  0  0  0  0  0  # atno 17395 bound_to 11000

$$$$
