AV-unprocessed.smi:2079|AV-procd|sdf|8486|dock3
  -GOLD-   2272011193D 1   1.00000     0.00000
 Structure written by MMmdl.
 41 42  0  0  0  0  0  0  0  0  3 V2000
  149.7834  133.4153  154.0938 C   0  0  0  0  0  0  0  0  0  0  0  0
  149.8757  134.7636  154.7215 C   0  0  0  0  0  0  0  0  0  0  0  0
  150.8536  135.7177  154.7353 C   0  0  0  0  0  0  0  0  0  0  0  0
  150.2802  136.7546  155.5183 C   0  0  0  0  0  0  0  0  0  0  0  0
  151.0010  137.9508  155.7753 N   0  0  0  0  0  0  0  0  0  0  0  0
  152.1515  138.3763  155.2226 C   0  0  0  0  0  0  0  0  0  0  0  0
  152.7274  137.6890  154.3705 O   0  0  0  0  0  0  0  0  0  0  0  0
  152.5416  139.5872  155.7093 N   0  5  0  0  0  0  0  0  0  0  0  0
  151.6434  140.5740  156.3069 C   0  0  0  0  0  0  0  0  0  0  0  0
  151.8340  140.6171  157.8367 C   0  0  0  0  0  0  0  0  0  0  0  0
  152.2079  141.9853  158.2962 N   0  3  1  0  0  0  0  0  0  0  0  0
  151.3270  143.0171  157.6780 C   0  0  0  0  0  0  0  0  0  0  0  0
  151.7806  144.4424  158.0167 C   0  0  0  0  0  0  0  0  0  0  0  0
  151.8191  144.6385  159.5323 C   0  0  0  0  0  0  0  0  0  0  0  0
  152.7386  143.5848  160.1551 C   0  0  0  0  0  0  0  0  0  0  0  0
  152.3208  142.1437  159.7835 C   0  0  2  0  0  0  0  0  0  0  0  0
  153.3363  141.1667  160.4138 C   0  0  0  0  0  0  0  0  0  0  0  0
  149.0614  136.4580  155.9446 N   0  0  0  0  0  0  0  0  0  0  0  0
  148.7959  135.1814  155.4355 O   0  0  0  0  0  0  0  0  0  0  0  0
  150.7742  133.0312  153.8502 H   0  0  0  0  0  0  0  0  0  0  0  0
  149.2010  133.4582  153.1736 H   0  0  0  0  0  0  0  0  0  0  0  0
  149.3028  132.7053  154.7670 H   0  0  0  0  0  0  0  0  0  0  0  0
  151.8225  135.6791  154.2607 H   0  0  0  0  0  0  0  0  0  0  0  0
  150.5953  138.5638  156.4665 H   0  0  0  0  0  0  0  0  0  0  0  0
  151.8325  141.5691  155.9035 H   0  0  0  0  0  0  0  0  0  0  0  0
  150.5961  140.3667  156.0824 H   0  0  0  0  0  0  0  0  0  0  0  0
  150.9089  140.3002  158.3217 H   0  0  0  0  0  0  0  0  0  0  0  0
  152.5699  139.8768  158.1488 H   0  0  0  0  0  0  0  0  0  0  0  0
  151.3269  142.8932  156.5938 H   0  0  0  0  0  0  0  0  0  0  0  0
  150.2998  142.8651  158.0139 H   0  0  0  0  0  0  0  0  0  0  0  0
  152.7672  144.6290  157.5903 H   0  0  0  0  0  0  0  0  0  0  0  0
  151.1029  145.1669  157.5642 H   0  0  0  0  0  0  0  0  0  0  0  0
  152.1742  145.6406  159.7748 H   0  0  0  0  0  0  0  0  0  0  0  0
  150.8143  144.5505  159.9476 H   0  0  0  0  0  0  0  0  0  0  0  0
  153.7631  143.7663  159.8262 H   0  0  0  0  0  0  0  0  0  0  0  0
  152.7409  143.7048  161.2392 H   0  0  0  0  0  0  0  0  0  0  0  0
  151.3380  141.9474  160.2155 H   0  0  0  0  0  0  0  0  0  0  0  0
  153.4458  141.3571  161.4818 H   0  0  0  0  0  0  0  0  0  0  0  0
  154.3221  141.2741  159.9601 H   0  0  0  0  0  0  0  0  0  0  0  0
  153.0383  140.1236  160.3166 H   0  0  0  0  0  0  0  0  0  0  0  0
  153.1334  142.1491  157.9266 H   0  0  0  0  0  0  0  0  0  0  0  0
  1  2  1  0  0  0  0
  1 20  1  0  0  0  0
  1 21  1  0  0  0  0
  1 22  1  0  0  0  0
  2 19  1  0  0  0  0
  2  3  2  0  0  0  0
  3  4  1  0  0  0  0
  3 23  1  0  0  0  0
  4  5  1  0  0  0  0
  4 18  2  0  0  0  0
  5  6  1  0  0  0  0
  5 24  1  0  0  0  0
  6  7  2  0  0  0  0
  6  8  1  0  0  0  0
  8  9  1  0  0  0  0
  9 10  1  0  0  0  0
  9 25  1  0  0  0  0
  9 26  1  0  0  0  0
 10 11  1  0  0  0  0
 10 27  1  0  0  0  0
 10 28  1  0  0  0  0
 11 16  1  0  0  0  0
 11 12  1  0  0  0  0
 11 41  1  0  0  0  0
 12 13  1  0  0  0  0
 12 29  1  0  0  0  0
 12 30  1  0  0  0  0
 13 14  1  0  0  0  0
 13 31  1  0  0  0  0
 13 32  1  0  0  0  0
 14 15  1  0  0  0  0
 14 33  1  0  0  0  0
 14 34  1  0  0  0  0
 15 16  1  0  0  0  0
 15 35  1  0  0  0  0
 15 36  1  0  0  0  0
 16 17  1  0  0  0  0
 16 37  1  0  0  0  0
 17 38  1  0  0  0  0
 17 39  1  0  0  0  0
 17 40  1  0  0  0  0
 18 19  1  0  0  0  0
M  CHG  1   8  -1
M  CHG  1  11   1
M  END
> <s_m_source_file>
AV-unprocessed.smi

> <i_m_source_file_index>
2079

> <i_lp_mmshare_version>
43012

> <i_f3d_flags>
0

> <s_epik_input>
W0NIM11jMVtjSF1jKG5vMSlbTkhdQyg9TylbTkhdW0NIMl1bQ0gyXU4yW0NIMl1bQ0gyXVtDSDJdW0NIMl1bQ0BIXTJbQ0gzXQ==

> <s_epik_cmdline>
J2VwaWtfcHl0aG9uJywgJy1waCcsICc3LjAnLCAnLXRuJywgJzgnLCAnLW1hJywgJzIwMCcsICctbWV0YWxfYmluZGluZycsICctaW1hZScsICc8aW5maWxlLm1hZT4nLCAnLW9tYWUnLCAnPG91dGZpbGUubWFlPic=

> <r_epik_Ionization_Penalty>
6.7666

> <r_epik_Ionization_Penalty_Charging>
6.7666

> <r_epik_Ionization_Penalty_Neutral>
5.77131e-06

> <r_epik_State_Penalty>
6.79217

> <r_epik_Charging_Adjusted_Penalty>
13.5588

> <i_epik_Tot_Q>
0

> <i_epik_Tot_abs_Q>
2

> <r_epik_Metal_State_Penalty>
2.72569

> <b_epik_Metal_Only>
1

> <s_lp_Force_Field>
OPLS_2005

> <r_lp_Energy>
14.3166

> <b_lp_Chiralities_Consistent>
1

> <s_lp_Variant>
AV-unprocessed.smi:2079-12

> <Gold.Version>
5.8.1

> <Gold.Id.Protein>
6NUR|6NUR_protein|mol2

> <Gold.PLP.Fitness>
46.5266

> <Gold.PLP.PLP>
-40.3014

> <Gold.PLP.part.hbond>
-2.0000

> <Gold.PLP.part.metal>
0.0000

> <Gold.PLP.part.buried>
-4.0415

> <Gold.PLP.part.nonpolar>
-33.8408

> <Gold.PLP.part.repulsive>
0.3365

> <Gold.PLP.ligand.clash>
0.2130

> <Gold.PLP.ligand.torsion>
0.6481

> <Gold.PLP.Chemscore.Hbond>
2.5600

> <Gold.PLP.Chemscore.CHOScore>
0.0000

> <Gold.PLP.Chemscore.Metal>
0.0000

> <Gold.Chemscore.Hbonds>
donor molecule, donor type, donor heavy atom, donor atom, acceptor molecule, acceptor atom, score
      P1  H  7997  8008       L1     8  2.00
      P1  H 10752 10764       L1     7  0.48

> <Gold.PLP.Chemscore.Internal.Correction>
0.0544

> <Gold.Rescore>
     Score         DG    S(hbond)    S(metal)    S(lipo)     H(rot)  DE(clash)    DE(int)     intcor
     14.54     -16.69       1.23        0.00      94.32       1.54       0.00       2.15       ----

> <Gold.Chemscore.Fitness>
14.5432

> <Gold.Chemscore.DG>
-16.6935

> <Gold.Chemscore.ZeroCoef>
-5.4800

> <Gold.Chemscore.Hbond>
1.2343

> <Gold.Chemscore.Metal>
0.0000

> <Gold.Chemscore.Lipo>
94.3199

> <Gold.Chemscore.Internal_Hbond>
0.0000

> <Gold.Chemscore.DEClash>
0.0004

> <Gold.Chemscore.DEInternal>
2.1499

> <Gold.Chemscore.Rot>
1.5409

> <Gold.Chemscore.Internal.Correction>
   9.000000E+99

> <Gold.Chemscore.Hbonds>
donor molecule, donor type, donor heavy atom, donor atom, acceptor molecule, acceptor atom, score
      P1  H  7997  8008       L1     8  0.49
      P1  H 10752 10764       L1     7  0.46

> <Gold.Chemscore.Hbond.Weighted>
-4.1227

> <Gold.Chemscore.Metal.Weighted>
-0.0000

> <Gold.Chemscore.Lipo.Weighted>
-11.0354

> <Gold.Chemscore.Internal_Hbond.Weighted>
0.0000

> <Gold.Chemscore.DEClash.Weighted>
0.0004

> <Gold.Chemscore.DEInternal.Weighted>
2.1499

> <Gold.Chemscore.Rot.Weighted>
3.9446

> <Gold.Chemscore.Internal.Correction.Weighted>
   9.000000E+99

> <Gold.Protein.RotatedTorsions>
[ 6907 6896 6895 6894 ] final  -37.86 input  -60.11 | X-H torsion
[ 7974 7965 7964 7962 ] final  -95.35 input  175.53 | X-H torsion
[ 8008 7997 7996 7995 ] final  -39.31 input   59.86 | X-H torsion
[ 10167 10162 10161 10158 ] final -146.08 input  -65.29 | X-H torsion
[ 10718 10713 10712 10709 ] final  -73.91 input   66.30 | X-H torsion
[ 10763 10752 10751 10750 ] final  -83.95 input  -60.55 | X-H torsion
[ 11005 11000 10999 10996 ] final   43.35 input  -57.11 | X-H torsion

> <Gold.Protein.ActiveResidues>
 VAL166  LYS551  ARG553  GLY616  TRP617  ASP618  TYR619  PRO620  LYS621  CYS622 
 ASP623  PHE694  ASN695  SER759  ASP760  ASP761  ALA762  ILE779  LEU786  VAL792 
 PHE793  MET794  SER795  GLU796  ALA797  LYS798  CYS799  TRP800  GLU811  SER814 

> <Gold.Protein.RotatedAtoms>
  151.0095  134.9385  159.7998 H   0  0  0  0  0  0  0  0  0  0  0  0  # atno 6907 bound_to 6896
  152.5299  134.3047  159.9101 H   0  0  0  0  0  0  0  0  0  0  0  0  # atno 6908 bound_to 6896
  151.3053  133.4062  159.2677 H   0  0  0  0  0  0  0  0  0  0  0  0  # atno 6909 bound_to 6896
  145.3612  140.9492  143.2500 H   0  0  0  0  0  0  0  0  0  0  0  0  # atno 7974 bound_to 7965
  154.4024  140.1555  156.2843 H   0  0  0  0  0  0  0  0  0  0  0  0  # atno 8008 bound_to 7997
  155.8842  140.3442  155.5887 H   0  0  0  0  0  0  0  0  0  0  0  0  # atno 8009 bound_to 7997
  155.7633  140.0820  157.2135 H   0  0  0  0  0  0  0  0  0  0  0  0  # atno 8010 bound_to 7997
  139.7746  143.8189  152.2630 H   0  0  0  0  0  0  0  0  0  0  0  0  # atno 10167 bound_to 10162
  156.0262  130.4405  150.2813 H   0  0  0  0  0  0  0  0  0  0  0  0  # atno 10718 bound_to 10713
  154.5938  135.5538  153.7305 H   0  0  0  0  0  0  0  0  0  0  0  0  # atno 10763 bound_to 10752
  153.0127  135.6350  154.1811 H   0  0  0  0  0  0  0  0  0  0  0  0  # atno 10764 bound_to 10752
  154.1752  135.2890  155.3049 H   0  0  0  0  0  0  0  0  0  0  0  0  # atno 10765 bound_to 10752
  140.1653  134.4290  155.8291 H   0  0  0  0  0  0  0  0  0  0  0  0  # atno 11005 bound_to 11000
  144.8645  139.5128  143.6796 LP  0  0  0  0  0  0  0  0  0  0  0  0  # atno 17320 bound_to 7965
  146.2926  139.7185  142.9149 LP  0  0  0  0  0  0  0  0  0  0  0  0  # atno 17321 bound_to 7965
  139.8233  144.7286  150.9544 LP  0  0  0  0  0  0  0  0  0  0  0  0  # atno 17342 bound_to 10162
  140.7816  143.4138  151.0950 LP  0  0  0  0  0  0  0  0  0  0  0  0  # atno 17343 bound_to 10162
  157.0916  131.0171  151.3119 LP  0  0  0  0  0  0  0  0  0  0  0  0  # atno 17370 bound_to 10713
  157.4849  130.7787  149.7450 LP  0  0  0  0  0  0  0  0  0  0  0  0  # atno 17371 bound_to 10713
  141.2213  133.6931  156.7667 LP  0  0  0  0  0  0  0  0  0  0  0  0  # atno 17394 bound_to 11000
  140.2441  134.8591  157.3603 LP  0  0  0  0  0  0  0  0  0  0  0  0  # atno 17395 bound_to 11000

$$$$
