AV-unprocessed.smi:2189|AV-procd|sdf|8885|dock1
  -GOLD-   2272012 83D 1   1.00000     0.00000
 Structure written by MMmdl.
 40 42  0  0  0  0  0  0  0  0  2 V2000
  150.6464  139.4406  154.0547 O   0  0  0  0  0  0  0  0  0  0  0  0
  151.0054  139.1716  155.2027 C   0  0  0  0  0  0  0  0  0  0  0  0
  151.1630  137.8948  155.6033 N   0  0  0  0  0  0  0  0  0  0  0  0
  150.9514  136.7048  154.7822 C   0  0  0  0  0  0  0  0  0  0  0  0
  151.2890  135.3997  155.5298 C   0  0  0  0  0  0  0  0  0  0  0  0
  150.7401  134.1509  154.8626 C   0  0  0  0  0  0  0  0  0  0  0  0
  151.0521  132.8523  155.3215 C   0  0  0  0  0  0  0  0  0  0  0  0
  150.4880  131.7371  154.6680 C   0  0  0  0  0  0  0  0  0  0  0  0
  149.6276  131.9428  153.5696 C   0  0  0  0  0  0  0  0  0  0  0  0
  149.3525  133.2606  153.1519 C   0  0  0  0  0  0  0  0  0  0  0  0
  149.9127  134.3032  153.8033 N   0  3  0  0  0  0  0  0  0  0  0  0
  151.2911  140.1646  156.2554 C   0  0  0  0  0  0  0  0  0  0  0  0
  150.6893  141.3829  156.1981 C   0  0  0  0  0  0  0  0  0  0  0  0
  150.9123  142.3890  157.2066 C   0  0  0  0  0  0  0  0  0  0  0  0
  151.7689  142.1102  158.1947 C   0  0  0  0  0  0  0  0  0  0  0  0
  152.4530  140.9001  158.2922 N   0  0  0  0  0  0  0  0  0  0  0  0
  153.4432  140.7845  159.3576 C   0  0  0  0  0  0  0  0  0  0  0  0
  153.3769  139.4082  159.9938 C   0  0  0  0  0  0  0  0  0  0  0  0
  153.8300  138.2251  158.6753 S   0  0  0  0  0  0  0  0  0  0  0  0
  155.1899  138.5498  158.2172 O   0  0  0  0  0  0  0  0  0  0  0  0
  153.5349  136.8673  159.1569 O   0  0  0  0  0  0  0  0  0  0  0  0
  152.7326  138.6577  157.4863 N   0  0  0  0  0  0  0  0  0  0  0  0
  152.2122  139.8462  157.3663 C   0  0  0  0  0  0  0  0  0  0  0  0
  151.4660  137.7387  156.5539 H   0  0  0  0  0  0  0  0  0  0  0  0
  149.9277  136.6737  154.4057 H   0  0  0  0  0  0  0  0  0  0  0  0
  151.5917  136.7914  153.9041 H   0  0  0  0  0  0  0  0  0  0  0  0
  152.3715  135.2995  155.6173 H   0  0  0  0  0  0  0  0  0  0  0  0
  150.9084  135.4538  156.5506 H   0  0  0  0  0  0  0  0  0  0  0  0
  151.7068  132.7109  156.1690 H   0  0  0  0  0  0  0  0  0  0  0  0
  150.7103  130.7359  155.0066 H   0  0  0  0  0  0  0  0  0  0  0  0
  149.1836  131.1020  153.0569 H   0  0  0  0  0  0  0  0  0  0  0  0
  148.7037  133.5109  152.3251 H   0  0  0  0  0  0  0  0  0  0  0  0
  150.0255  141.6455  155.3870 H   0  0  0  0  0  0  0  0  0  0  0  0
  150.3998  143.3390  157.1673 H   0  0  0  0  0  0  0  0  0  0  0  0
  151.9764  142.8229  158.9798 H   0  0  0  0  0  0  0  0  0  0  0  0
  154.4358  140.9783  158.9495 H   0  0  0  0  0  0  0  0  0  0  0  0
  153.2708  141.5363  160.1284 H   0  0  0  0  0  0  0  0  0  0  0  0
  154.0864  139.3068  160.8147 H   0  0  0  0  0  0  0  0  0  0  0  0
  152.3789  139.1741  160.3659 H   0  0  0  0  0  0  0  0  0  0  0  0
  149.6937  135.2486  153.4877 H   0  0  0  0  0  0  0  0  0  0  0  0
  1  2  2  0  0  0  0
  2  3  1  0  0  0  0
  2 12  1  0  0  0  0
  3  4  1  0  0  0  0
  3 24  1  0  0  0  0
  4  5  1  0  0  0  0
  4 25  1  0  0  0  0
  4 26  1  0  0  0  0
  5  6  1  0  0  0  0
  5 27  1  0  0  0  0
  5 28  1  0  0  0  0
  6 11  1  0  0  0  0
  6  7  2  0  0  0  0
  7  8  1  0  0  0  0
  7 29  1  0  0  0  0
  8  9  2  0  0  0  0
  8 30  1  0  0  0  0
  9 10  1  0  0  0  0
  9 31  1  0  0  0  0
 10 11  2  0  0  0  0
 10 32  1  0  0  0  0
 11 40  1  0  0  0  0
 12 23  1  0  0  0  0
 12 13  2  0  0  0  0
 13 14  1  0  0  0  0
 13 33  1  0  0  0  0
 14 15  2  0  0  0  0
 14 34  1  0  0  0  0
 15 16  1  0  0  0  0
 15 35  1  0  0  0  0
 16 23  1  0  0  0  0
 16 17  1  0  0  0  0
 17 18  1  0  0  0  0
 17 36  1  0  0  0  0
 17 37  1  0  0  0  0
 18 19  1  0  0  0  0
 18 38  1  0  0  0  0
 18 39  1  0  0  0  0
 19 20  2  0  0  0  0
 19 21  2  0  0  0  0
 19 22  1  0  0  0  0
 22 23  2  0  0  0  0
M  CHG  1  11   1
M  END
> <s_m_source_file>
AV-unprocessed.smi

> <i_m_source_file_index>
2189

> <i_lp_mmshare_version>
43012

> <i_f3d_flags>
0

> <s_epik_input>
W0NIMl0xW0NIMl1TKD1PKSg9TylOPUMoTjEyKUMoPVtDSF1bQ0hdPVtDSF0yKUMoPU8pW05IXVtDSDJdW0NIMl1jM1tjSF1bY0hdW2NIXVtjSF1uMw==

> <s_epik_cmdline>
J2VwaWtfcHl0aG9uJywgJy1waCcsICc3LjAnLCAnLXRuJywgJzgnLCAnLW1hJywgJzIwMCcsICctbWV0YWxfYmluZGluZycsICctaW1hZScsICc8aW5maWxlLm1hZT4nLCAnLW9tYWUnLCAnPG91dGZpbGUubWFlPic=

> <r_epik_Ionization_Penalty>
2.08937

> <r_epik_Ionization_Penalty_Charging>
2.08928

> <r_epik_Ionization_Penalty_Neutral>
8.13788e-05

> <r_epik_State_Penalty>
2.22459

> <r_epik_Charging_Adjusted_Penalty>
4.31388

> <i_epik_Tot_Q>
1

> <i_epik_Tot_abs_Q>
1

> <r_epik_Metal_State_Penalty>
2.35797

> <b_epik_Metal_Only>
0

> <s_lp_Force_Field>
OPLS_2005

> <r_lp_Energy>
32.7786

> <b_lp_Chiralities_Consistent>
1

> <s_lp_Variant>
AV-unprocessed.smi:2189-2

> <Gold.Version>
5.8.1

> <Gold.Id.Protein>
6NUR|6NUR_protein|mol2

> <Gold.PLP.Fitness>
50.1879

> <Gold.PLP.PLP>
-38.0783

> <Gold.PLP.part.hbond>
-3.7082

> <Gold.PLP.part.metal>
0.0000

> <Gold.PLP.part.buried>
-3.5543

> <Gold.PLP.part.nonpolar>
-31.3947

> <Gold.PLP.part.repulsive>
0.2654

> <Gold.PLP.ligand.clash>
0.0000

> <Gold.PLP.ligand.torsion>
0.3933

> <Gold.PLP.Chemscore.Hbond>
4.2185

> <Gold.PLP.Chemscore.CHOScore>
0.0000

> <Gold.PLP.Chemscore.Metal>
0.0000

> <Gold.Chemscore.Hbonds>
donor molecule, donor type, donor heavy atom, donor atom, acceptor molecule, acceptor atom, score
      L1  H    11    40       P1  7948  0.71
      P1  H  7989  7998       L1     1  1.00
      P1  H  7997  8010       L1    20  1.00

> <Gold.PLP.Chemscore.Internal.Correction>
0.2407

> <Gold.Rescore>
     Score         DG    S(hbond)    S(metal)    S(lipo)     H(rot)  DE(clash)    DE(int)     intcor
     17.95     -20.09       2.67        0.00      82.33       1.54       0.11       2.03       ----

> <Gold.Chemscore.Fitness>
17.9512

> <Gold.Chemscore.DG>
-20.0861

> <Gold.Chemscore.ZeroCoef>
-5.4800

> <Gold.Chemscore.Hbond>
2.6660

> <Gold.Chemscore.Metal>
0.0000

> <Gold.Chemscore.Lipo>
82.3306

> <Gold.Chemscore.Internal_Hbond>
0.0000

> <Gold.Chemscore.DEClash>
0.1078

> <Gold.Chemscore.DEInternal>
2.0271

> <Gold.Chemscore.Rot>
1.5355

> <Gold.Chemscore.Internal.Correction>
   9.000000E+99

> <Gold.Chemscore.Hbonds>
donor molecule, donor type, donor heavy atom, donor atom, acceptor molecule, acceptor atom, score
      L1  H    11    40       P1  7948  0.01
      P1  H  6896  6907       L1    21  0.01
      P1  H  7989  7998       L1     1  0.65
      P1  H  7997  8010       L1    20  0.78

> <Gold.Chemscore.Hbond.Weighted>
-8.9044

> <Gold.Chemscore.Metal.Weighted>
-0.0000

> <Gold.Chemscore.Lipo.Weighted>
-9.6327

> <Gold.Chemscore.Internal_Hbond.Weighted>
0.0000

> <Gold.Chemscore.DEClash.Weighted>
0.1078

> <Gold.Chemscore.DEInternal.Weighted>
2.0271

> <Gold.Chemscore.Rot.Weighted>
3.9309

> <Gold.Chemscore.Internal.Correction.Weighted>
   9.000000E+99

> <Gold.Protein.RotatedTorsions>
[ 6907 6896 6895 6894 ] final   26.80 input  -60.11 | X-H torsion
[ 7974 7965 7964 7962 ] final -120.55 input  175.53 | X-H torsion
[ 8008 7997 7996 7995 ] final   -6.44 input   59.86 | X-H torsion
[ 10167 10162 10161 10158 ] final  -40.43 input  -65.29 | X-H torsion
[ 10718 10713 10712 10709 ] final   18.14 input   66.30 | X-H torsion
[ 10763 10752 10751 10750 ] final   89.08 input  -60.55 | X-H torsion
[ 11005 11000 10999 10996 ] final -126.45 input  -57.11 | X-H torsion

> <Gold.Protein.ActiveResidues>
 VAL166  LYS551  ARG553  GLY616  TRP617  ASP618  TYR619  PRO620  LYS621  CYS622 
 ASP623  PHE694  ASN695  SER759  ASP760  ASP761  ALA762  ILE779  LEU786  VAL792 
 PHE793  MET794  SER795  GLU796  ALA797  LYS798  CYS799  TRP800  GLU811  SER814 

> <Gold.Protein.RotatedAtoms>
  151.9928  134.9970  160.0561 H   0  0  0  0  0  0  0  0  0  0  0  0  # atno 6907 bound_to 6896
  152.1592  133.4566  159.4861 H   0  0  0  0  0  0  0  0  0  0  0  0  # atno 6908 bound_to 6896
  150.6885  134.2010  159.4365 H   0  0  0  0  0  0  0  0  0  0  0  0  # atno 6909 bound_to 6896
  145.0501  140.8212  143.4214 H   0  0  0  0  0  0  0  0  0  0  0  0  # atno 7974 bound_to 7965
  154.5937  140.2433  155.7885 H   0  0  0  0  0  0  0  0  0  0  0  0  # atno 8008 bound_to 7997
  156.2265  140.2981  156.0033 H   0  0  0  0  0  0  0  0  0  0  0  0  # atno 8009 bound_to 7997
  155.2329  140.0404  157.2955 H   0  0  0  0  0  0  0  0  0  0  0  0  # atno 8010 bound_to 7997
  140.7034  143.3154  151.2923 H   0  0  0  0  0  0  0  0  0  0  0  0  # atno 10167 bound_to 10162
  157.0921  130.6432  149.5851 H   0  0  0  0  0  0  0  0  0  0  0  0  # atno 10718 bound_to 10713
  153.1834  135.4483  155.0058 H   0  0  0  0  0  0  0  0  0  0  0  0  # atno 10763 bound_to 10752
  154.8045  135.3269  154.7469 H   0  0  0  0  0  0  0  0  0  0  0  0  # atno 10764 bound_to 10752
  153.7931  135.6968  153.4923 H   0  0  0  0  0  0  0  0  0  0  0  0  # atno 10765 bound_to 10752
  140.9680  134.0845  157.3899 H   0  0  0  0  0  0  0  0  0  0  0  0  # atno 11005 bound_to 11000
  145.1538  139.2499  143.5427 LP  0  0  0  0  0  0  0  0  0  0  0  0  # atno 17320 bound_to 7965
  146.3517  140.1247  142.8599 LP  0  0  0  0  0  0  0  0  0  0  0  0  # atno 17321 bound_to 7965
  139.6591  144.0222  152.2680 LP  0  0  0  0  0  0  0  0  0  0  0  0  # atno 17342 bound_to 10162
  139.9783  144.6446  150.7924 LP  0  0  0  0  0  0  0  0  0  0  0  0  # atno 17343 bound_to 10162
  155.9895  130.4943  150.7217 LP  0  0  0  0  0  0  0  0  0  0  0  0  # atno 17370 bound_to 10713
  157.4712  131.0893  151.0640 LP  0  0  0  0  0  0  0  0  0  0  0  0  # atno 17371 bound_to 10713
  139.8901  135.0110  156.6720 LP  0  0  0  0  0  0  0  0  0  0  0  0  # atno 17394 bound_to 11000
  140.7371  133.9009  155.8251 LP  0  0  0  0  0  0  0  0  0  0  0  0  # atno 17395 bound_to 11000

$$$$
