AV-unprocessed.smi:3204|AV-procd|sdf|12253|dock4
  -GOLD-   2272018 83D 1   1.00000     0.00000
 Structure written by MMmdl.
 30 31  0  0  0  0  0  0  0  0  1 V2000
  154.5783  140.6450  160.2812 C   0  0  0  0  0  0  0  0  0  0  0  0
  153.6597  141.6944  160.9177 C   0  0  0  0  0  0  0  0  0  0  0  0
  152.7607  142.3667  159.8968 C   0  0  0  0  0  0  0  0  0  0  0  0
  152.8813  143.7074  159.7706 N   0  0  0  0  0  0  0  0  0  0  0  0
  152.1003  144.2985  158.8636 C   0  0  0  0  0  0  0  0  0  0  0  0
  151.2128  143.7021  158.0633 N   0  0  0  0  0  0  0  0  0  0  0  0
  151.0829  142.3582  158.1745 C   0  0  0  0  0  0  0  0  0  0  0  0
  150.1725  141.6794  157.3518 N   0  0  0  0  0  0  0  0  0  0  0  0
  150.4423  141.4512  155.9366 C   0  0  1  0  0  0  0  0  0  0  0  0
  151.3397  140.2294  155.7340 C   0  0  0  0  0  0  0  0  0  0  0  0
  150.9876  139.7665  154.4433 O   0  0  0  0  0  0  0  0  0  0  0  0
  149.5732  139.8360  154.3508 C   0  0  0  0  0  0  0  0  0  0  0  0
  149.1887  141.1020  155.1274 C   0  0  2  0  0  0  0  0  0  0  0  0
  148.8865  142.1373  154.2142 O   0  0  0  0  0  0  0  0  0  0  0  0
  151.8566  141.6282  159.1023 C   0  0  0  0  0  0  0  0  0  0  0  0
  151.7410  140.2826  159.2190 F   0  0  0  0  0  0  0  0  0  0  0  0
  155.2148  140.1786  161.0335 H   0  0  0  0  0  0  0  0  0  0  0  0
  155.2269  141.0928  159.5276 H   0  0  0  0  0  0  0  0  0  0  0  0
  153.9986  139.8568  159.8000 H   0  0  0  0  0  0  0  0  0  0  0  0
  153.0494  141.2311  161.6935 H   0  0  0  0  0  0  0  0  0  0  0  0
  154.2615  142.4547  161.4172 H   0  0  0  0  0  0  0  0  0  0  0  0
  152.1964  145.3696  158.7662 H   0  0  0  0  0  0  0  0  0  0  0  0
  149.2887  141.3755  157.7348 H   0  0  0  0  0  0  0  0  0  0  0  0
  150.9441  142.3196  155.5060 H   0  0  0  0  0  0  0  0  0  0  0  0
  152.4005  140.4720  155.8009 H   0  0  0  0  0  0  0  0  0  0  0  0
  151.1217  139.4446  156.4612 H   0  0  0  0  0  0  0  0  0  0  0  0
  149.2386  139.8372  153.3126 H   0  0  0  0  0  0  0  0  0  0  0  0
  149.1500  138.9549  154.8354 H   0  0  0  0  0  0  0  0  0  0  0  0
  148.3176  140.9137  155.7567 H   0  0  0  0  0  0  0  0  0  0  0  0
  149.0050  142.9651  154.6552 H   0  0  0  0  0  0  0  0  0  0  0  0
  1  2  1  0  0  0  0
  1 17  1  0  0  0  0
  1 18  1  0  0  0  0
  1 19  1  0  0  0  0
  2  3  1  0  0  0  0
  2 20  1  0  0  0  0
  2 21  1  0  0  0  0
  3 15  1  0  0  0  0
  3  4  2  0  0  0  0
  4  5  1  0  0  0  0
  5  6  2  0  0  0  0
  5 22  1  0  0  0  0
  6  7  1  0  0  0  0
  7  8  1  0  0  0  0
  7 15  2  0  0  0  0
  8  9  1  0  0  0  0
  8 23  1  0  0  0  0
  9 13  1  0  0  0  0
  9 10  1  0  0  0  0
  9 24  1  0  0  0  0
 10 11  1  0  0  0  0
 10 25  1  0  0  0  0
 10 26  1  0  0  0  0
 11 12  1  0  0  0  0
 12 13  1  0  0  0  0
 12 27  1  0  0  0  0
 12 28  1  0  0  0  0
 13 14  1  0  0  0  0
 13 29  1  0  0  0  0
 14 30  1  0  0  0  0
 15 16  1  0  0  0  0
M  END
> <s_m_source_file>
AV-unprocessed.smi

> <i_m_source_file_index>
3204

> <i_lp_mmshare_version>
43012

> <i_f3d_flags>
0

> <s_epik_input>
W0NIM11bQ0gyXWMxbltjSF1uYyhjMUYpW05IXVtDQEBIXTJbQ0gyXU9bQ0gyXVtDQEhdMltPSF0=

> <s_epik_cmdline>
J2VwaWtfcHl0aG9uJywgJy1waCcsICc3LjAnLCAnLXRuJywgJzgnLCAnLW1hJywgJzIwMCcsICctbWV0YWxfYmluZGluZycsICctaW1hZScsICc8aW5maWxlLm1hZT4nLCAnLW9tYWUnLCAnPG91dGZpbGUubWFlPic=

> <r_lp_tautomer_probability>
1

> <r_epik_Ionization_Penalty>
0.000484964

> <r_epik_Ionization_Penalty_Charging>
0

> <r_epik_Ionization_Penalty_Neutral>
0.000484964

> <r_epik_State_Penalty>
-0

> <r_epik_Charging_Adjusted_Penalty>
0

> <i_epik_Tot_Q>
0

> <i_epik_Tot_abs_Q>
0

> <r_epik_Metal_State_Penalty>
-0

> <b_epik_Metal_Only>
0

> <s_lp_Force_Field>
OPLS_2005

> <r_lp_Energy>
13.9367

> <b_lp_Chiralities_Consistent>
1

> <s_lp_Variant>
AV-unprocessed.smi:3204-4

> <Gold.Version>
5.8.1

> <Gold.Id.Protein>
6NUR|6NUR_protein|mol2

> <Gold.PLP.Fitness>
42.6685

> <Gold.PLP.PLP>
-37.7806

> <Gold.PLP.part.hbond>
-3.0000

> <Gold.PLP.part.metal>
0.0000

> <Gold.PLP.part.buried>
-4.5183

> <Gold.PLP.part.nonpolar>
-29.8447

> <Gold.PLP.part.repulsive>
0.2686

> <Gold.PLP.ligand.clash>
0.0000

> <Gold.PLP.ligand.torsion>
0.9764

> <Gold.PLP.Chemscore.Hbond>
2.2766

> <Gold.PLP.Chemscore.CHOScore>
0.0000

> <Gold.PLP.Chemscore.Metal>
0.0000

> <Gold.Chemscore.Hbonds>
donor molecule, donor type, donor heavy atom, donor atom, acceptor molecule, acceptor atom, score
      L1  H    14    30       P1  8028  1.00
      P1  H  7989  7998       L1    11  1.00
      P1  H  8011  8017       L1    14  0.27

> <Gold.PLP.Chemscore.Internal.Correction>
0.0108

> <Gold.Rescore>
     Score         DG    S(hbond)    S(metal)    S(lipo)     H(rot)  DE(clash)    DE(int)     intcor
     13.61     -14.43       1.75        0.00      66.70       1.83       0.03       0.80       ----

> <Gold.Chemscore.Fitness>
13.6068

> <Gold.Chemscore.DG>
-14.4341

> <Gold.Chemscore.ZeroCoef>
-5.4800

> <Gold.Chemscore.Hbond>
1.7498

> <Gold.Chemscore.Metal>
0.0000

> <Gold.Chemscore.Lipo>
66.7005

> <Gold.Chemscore.Internal_Hbond>
0.0000

> <Gold.Chemscore.DEClash>
0.0310

> <Gold.Chemscore.DEInternal>
0.7963

> <Gold.Chemscore.Rot>
1.8337

> <Gold.Chemscore.Internal.Correction>
   9.000000E+99

> <Gold.Chemscore.Hbonds>
donor molecule, donor type, donor heavy atom, donor atom, acceptor molecule, acceptor atom, score
      L1  H    14    30       P1  8028  0.96
      P1  H  7989  7998       L1    11  0.29
      P1  H  8011  8017       L1    14  0.10

> <Gold.Chemscore.Hbond.Weighted>
-5.8444

> <Gold.Chemscore.Metal.Weighted>
-0.0000

> <Gold.Chemscore.Lipo.Weighted>
-7.8040

> <Gold.Chemscore.Internal_Hbond.Weighted>
0.0000

> <Gold.Chemscore.DEClash.Weighted>
0.0310

> <Gold.Chemscore.DEInternal.Weighted>
0.7963

> <Gold.Chemscore.Rot.Weighted>
4.6942

> <Gold.Chemscore.Internal.Correction.Weighted>
   9.000000E+99

> <Gold.Protein.RotatedTorsions>
[ 6907 6896 6895 6894 ] final  173.92 input  -60.11 | X-H torsion
[ 7974 7965 7964 7962 ] final  -29.00 input  175.53 | X-H torsion
[ 8008 7997 7996 7995 ] final  126.13 input   59.86 | X-H torsion
[ 10167 10162 10161 10158 ] final   62.17 input  -65.29 | X-H torsion
[ 10718 10713 10712 10709 ] final   59.98 input   66.30 | X-H torsion
[ 10763 10752 10751 10750 ] final  -49.80 input  -60.55 | X-H torsion
[ 11005 11000 10999 10996 ] final -157.25 input  -57.11 | X-H torsion

> <Gold.Protein.ActiveResidues>
 VAL166  LYS551  ARG553  GLY616  TRP617  ASP618  TYR619  PRO620  LYS621  CYS622 
 ASP623  PHE694  ASN695  SER759  ASP760  ASP761  ALA762  ILE779  LEU786  VAL792 
 PHE793  MET794  SER795  GLU796  ALA797  LYS798  CYS799  TRP800  GLU811  SER814 

> <Gold.Protein.RotatedAtoms>
  151.7605  133.3333  159.3416 H   0  0  0  0  0  0  0  0  0  0  0  0  # atno 6907 bound_to 6896
  150.7499  134.6110  159.6095 H   0  0  0  0  0  0  0  0  0  0  0  0  # atno 6908 bound_to 6896
  152.3408  134.7139  160.0315 H   0  0  0  0  0  0  0  0  0  0  0  0  # atno 6909 bound_to 6896
  146.1248  140.5355  142.8719 H   0  0  0  0  0  0  0  0  0  0  0  0  # atno 7974 bound_to 7965
  156.2855  140.2700  156.2061 H   0  0  0  0  0  0  0  0  0  0  0  0  # atno 8008 bound_to 7997
  155.0311  140.0386  157.2492 H   0  0  0  0  0  0  0  0  0  0  0  0  # atno 8009 bound_to 7997
  154.7353  140.2714  155.6425 H   0  0  0  0  0  0  0  0  0  0  0  0  # atno 8010 bound_to 7997
  140.1468  144.4501  150.6781 H   0  0  0  0  0  0  0  0  0  0  0  0  # atno 10167 bound_to 10162
  157.5717  130.8913  149.9279 H   0  0  0  0  0  0  0  0  0  0  0  0  # atno 10718 bound_to 10713
  154.0999  135.6565  153.4866 H   0  0  0  0  0  0  0  0  0  0  0  0  # atno 10763 bound_to 10752
  153.0292  135.5222  154.7296 H   0  0  0  0  0  0  0  0  0  0  0  0  # atno 10764 bound_to 10752
  154.6445  135.2993  155.0032 H   0  0  0  0  0  0  0  0  0  0  0  0  # atno 10765 bound_to 10752
  140.6667  134.4291  157.5233 H   0  0  0  0  0  0  0  0  0  0  0  0  # atno 11005 bound_to 11000
  144.7632  140.5469  143.6721 LP  0  0  0  0  0  0  0  0  0  0  0  0  # atno 17320 bound_to 7965
  145.5389  139.1475  143.3458 LP  0  0  0  0  0  0  0  0  0  0  0  0  # atno 17321 bound_to 7965
  140.6727  143.2292  151.5585 LP  0  0  0  0  0  0  0  0  0  0  0  0  # atno 17342 bound_to 10162
  139.5445  144.2558  152.1415 LP  0  0  0  0  0  0  0  0  0  0  0  0  # atno 17343 bound_to 10162
  156.0763  130.3678  150.0672 LP  0  0  0  0  0  0  0  0  0  0  0  0  # atno 17370 bound_to 10713
  156.8823  130.9561  151.3598 LP  0  0  0  0  0  0  0  0  0  0  0  0  # atno 17371 bound_to 10713
  139.8995  134.8590  156.1958 LP  0  0  0  0  0  0  0  0  0  0  0  0  # atno 17394 bound_to 11000
  141.0424  133.6931  156.1621 LP  0  0  0  0  0  0  0  0  0  0  0  0  # atno 17395 bound_to 11000

$$$$
