AV-unprocessed.smi:109|AV-procd|sdf|1059|dock2
  -GOLD-   2262018133D 1   1.00000     0.00000
 Structure written by MMmdl.
 58 61  0  0  0  0  0  0  0  0  1 V2000
  152.2411  138.2029  157.3473 O   0  0  0  0  0  0  0  0  0  0  0  0
  151.5502  139.3547  157.7806 C   0  0  0  0  0  0  0  0  0  0  0  0
  151.0362  140.1457  156.5651 C   0  0  0  0  0  0  0  0  0  0  0  0
  150.4522  141.5386  156.9102 C   0  0  2  0  0  0  0  0  0  0  0  0
  149.7689  142.0878  155.7365 N   0  0  0  0  0  0  0  0  0  0  0  0
  148.8058  141.4079  155.0743 C   0  0  0  0  0  0  0  0  0  0  0  0
  148.7214  141.4328  153.7190 N   0  0  0  0  0  0  0  0  0  0  0  0
  147.7502  140.7594  153.0965 C   0  0  0  0  0  0  0  0  0  0  0  0
  146.7805  140.0130  153.6287 N   0  0  0  0  0  0  0  0  0  0  0  0
  146.8620  139.9780  154.9904 C   0  0  0  0  0  0  0  0  0  0  0  0
  147.8393  140.6461  155.7802 C   0  0  0  0  0  0  0  0  0  0  0  0
  147.6118  140.3917  157.1258 N   0  0  0  0  0  0  0  0  0  0  0  0
  146.5589  139.6194  157.1269 C   0  0  0  0  0  0  0  0  0  0  0  0
  146.0406  139.3204  155.8862 N   0  0  0  0  0  0  0  0  0  0  0  0
  144.8435  138.4666  155.5893 C   0  0  2  0  0  0  0  0  0  0  0  0
  145.1467  137.5904  154.5423 O   0  0  0  0  0  0  0  0  0  0  0  0
  144.2726  137.8063  153.4342 C   0  0  1  0  0  0  0  0  0  0  0  0
  144.0351  136.4794  152.6982 C   0  0  0  0  0  0  0  0  0  0  0  0
  145.2176  136.0755  152.0421 O   0  0  0  0  0  0  0  0  0  0  0  0
  143.0176  138.3744  154.0983 C   0  0  2  0  0  0  0  0  0  0  0  0
  142.1671  139.0630  153.2011 O   0  0  0  0  0  0  0  0  0  0  0  0
  143.5996  139.2773  155.1764 C   0  0  2  0  0  0  0  0  0  0  0  0
  143.9025  140.5789  154.6971 O   0  0  0  0  0  0  0  0  0  0  0  0
  151.5216  142.5558  157.4037 C   0  0  0  0  0  0  0  0  0  0  0  0
  152.1973  142.1384  158.7344 C   0  0  0  0  0  0  0  0  0  0  0  0
  153.2182  143.1771  159.2283 C   0  0  0  0  0  0  0  0  0  0  0  0
  152.5832  144.5648  159.3756 C   0  0  0  0  0  0  0  0  0  0  0  0
  151.9386  145.0039  158.0560 C   0  0  0  0  0  0  0  0  0  0  0  0
  150.9098  143.9708  157.5715 C   0  0  0  0  0  0  0  0  0  0  0  0
  144.6857  137.8859  156.4992 H   0  0  0  0  0  0  0  0  0  0  0  0
  144.6989  138.5555  152.7650 H   0  0  0  0  0  0  0  0  0  0  0  0
  142.4563  137.5658  154.5698 H   0  0  0  0  0  0  0  0  0  0  0  0
  142.9246  139.3742  156.0274 H   0  0  0  0  0  0  0  0  0  0  0  0
  152.8828  138.4617  156.7036 H   0  0  0  0  0  0  0  0  0  0  0  0
  150.7296  139.0415  158.4260 H   0  0  0  0  0  0  0  0  0  0  0  0
  152.2250  139.9667  158.3796 H   0  0  0  0  0  0  0  0  0  0  0  0
  151.8812  140.2572  155.8881 H   0  0  0  0  0  0  0  0  0  0  0  0
  150.2893  139.5565  156.0312 H   0  0  0  0  0  0  0  0  0  0  0  0
  149.7503  141.4074  157.7335 H   0  0  0  0  0  0  0  0  0  0  0  0
  150.0513  143.0205  155.4710 H   0  0  0  0  0  0  0  0  0  0  0  0
  147.7488  140.8300  152.0188 H   0  0  0  0  0  0  0  0  0  0  0  0
  146.1253  139.2450  158.0427 H   0  0  0  0  0  0  0  0  0  0  0  0
  143.6935  135.7012  153.3813 H   0  0  0  0  0  0  0  0  0  0  0  0
  143.2648  136.6037  151.9367 H   0  0  0  0  0  0  0  0  0  0  0  0
  145.9171  136.0459  152.6771 H   0  0  0  0  0  0  0  0  0  0  0  0
  142.7046  139.5357  152.5839 H   0  0  0  0  0  0  0  0  0  0  0  0
  143.8595  140.5657  153.7526 H   0  0  0  0  0  0  0  0  0  0  0  0
  152.3028  142.6165  156.6440 H   0  0  0  0  0  0  0  0  0  0  0  0
  151.4370  141.9807  159.5003 H   0  0  0  0  0  0  0  0  0  0  0  0
  152.7265  141.1937  158.6214 H   0  0  0  0  0  0  0  0  0  0  0  0
  153.6380  142.8592  160.1830 H   0  0  0  0  0  0  0  0  0  0  0  0
  154.0520  143.2304  158.5274 H   0  0  0  0  0  0  0  0  0  0  0  0
  151.8299  144.5435  160.1641 H   0  0  0  0  0  0  0  0  0  0  0  0
  153.3367  145.2901  159.6836 H   0  0  0  0  0  0  0  0  0  0  0  0
  151.4583  145.9744  158.1828 H   0  0  0  0  0  0  0  0  0  0  0  0
  152.7098  145.1368  157.2962 H   0  0  0  0  0  0  0  0  0  0  0  0
  150.4893  144.3259  156.6305 H   0  0  0  0  0  0  0  0  0  0  0  0
  150.0797  143.9287  158.2781 H   0  0  0  0  0  0  0  0  0  0  0  0
  1  2  1  0  0  0  0
  1 34  1  0  0  0  0
  2  3  1  0  0  0  0
  2 35  1  0  0  0  0
  2 36  1  0  0  0  0
  3  4  1  0  0  0  0
  3 37  1  0  0  0  0
  3 38  1  0  0  0  0
  4  5  1  0  0  0  0
  4 24  1  0  0  0  0
  4 39  1  0  0  0  0
  5  6  1  0  0  0  0
  5 40  1  0  0  0  0
  6 11  1  0  0  0  0
  6  7  2  0  0  0  0
  7  8  1  0  0  0  0
  8  9  2  0  0  0  0
  8 41  1  0  0  0  0
  9 10  1  0  0  0  0
 10 14  1  0  0  0  0
 10 11  2  0  0  0  0
 11 12  1  0  0  0  0
 12 13  2  0  0  0  0
 13 14  1  0  0  0  0
 13 42  1  0  0  0  0
 14 15  1  0  0  0  0
 15 30  1  0  0  0  0
 15 22  1  0  0  0  0
 15 16  1  0  0  0  0
 16 17  1  0  0  0  0
 17 31  1  0  0  0  0
 17 18  1  0  0  0  0
 17 20  1  0  0  0  0
 18 19  1  0  0  0  0
 18 43  1  0  0  0  0
 18 44  1  0  0  0  0
 19 45  1  0  0  0  0
 20 32  1  0  0  0  0
 20 21  1  0  0  0  0
 20 22  1  0  0  0  0
 21 46  1  0  0  0  0
 22 33  1  0  0  0  0
 22 23  1  0  0  0  0
 23 47  1  0  0  0  0
 24 29  1  0  0  0  0
 24 25  1  0  0  0  0
 24 48  1  0  0  0  0
 25 26  1  0  0  0  0
 25 49  1  0  0  0  0
 25 50  1  0  0  0  0
 26 27  1  0  0  0  0
 26 51  1  0  0  0  0
 26 52  1  0  0  0  0
 27 28  1  0  0  0  0
 27 53  1  0  0  0  0
 27 54  1  0  0  0  0
 28 29  1  0  0  0  0
 28 55  1  0  0  0  0
 28 56  1  0  0  0  0
 29 57  1  0  0  0  0
 29 58  1  0  0  0  0
M  END
> <s_m_source_file>
AV-unprocessed.smi

> <i_m_source_file_index>
109

> <i_lp_mmshare_version>
43012

> <i_f3d_flags>
0

> <s_epik_input>
W0NIMl0xW0NIMl1bQ0gyXVtDSDJdW0NIMl1bQ0hdMVtDQEhdKFtDSDJdW0NIMl1bT0hdKVtOSF1jKG5bY0hdbjIpYyhjMjMpbltjSF1uM1tDQEBIXTRPW0NASF0oW0NIMl1bT0hdKVtDQEBIXShbT0hdKVtDQEhdNFtPSF0=

> <s_epik_cmdline>
J2VwaWtfcHl0aG9uJywgJy1waCcsICc3LjAnLCAnLXRuJywgJzgnLCAnLW1hJywgJzIwMCcsICctbWV0YWxfYmluZGluZycsICctaW1hZScsICc8aW5maWxlLm1hZT4nLCAnLW9tYWUnLCAnPG91dGZpbGUubWFlPic=

> <r_lp_tautomer_probability>
1

> <r_epik_Ionization_Penalty>
0.000793976

> <r_epik_Ionization_Penalty_Charging>
0

> <r_epik_Ionization_Penalty_Neutral>
0.000793976

> <r_epik_State_Penalty>
-0

> <r_epik_Charging_Adjusted_Penalty>
0

> <i_epik_Tot_Q>
0

> <i_epik_Tot_abs_Q>
0

> <r_epik_Metal_State_Penalty>
-0

> <b_epik_Metal_Only>
0

> <s_epik_Chemistry_Notes>
This compound contains an acetal/aminal-like group ( X-CH(R)-Y where X, Y are N, S, or O) that may be acid/base labile, releasing an aldehyde.

> <s_lp_Force_Field>
OPLS_2005

> <r_lp_Energy>
58.6638

> <b_lp_Chiralities_Consistent>
1

> <s_lp_Variant>
AV-unprocessed.smi:109-29

> <Gold.Version>
5.8.1

> <Gold.Id.Protein>
6NUR|6NUR_protein|mol2

> <Gold.PLP.Fitness>
53.4561

> <Gold.PLP.PLP>
-40.5403

> <Gold.PLP.part.hbond>
-6.0000

> <Gold.PLP.part.metal>
0.0000

> <Gold.PLP.part.buried>
-4.0427

> <Gold.PLP.part.nonpolar>
-30.9002

> <Gold.PLP.part.repulsive>
0.5921

> <Gold.PLP.ligand.clash>
0.0000

> <Gold.PLP.ligand.torsion>
0.8348

> <Gold.PLP.Chemscore.Hbond>
4.4748

> <Gold.PLP.Chemscore.CHOScore>
0.3283

> <Gold.PLP.Chemscore.Metal>
0.0000

> <Gold.Chemscore.Hbonds>
donor molecule, donor type, donor heavy atom, donor atom, acceptor molecule, acceptor atom, score
      L1  H     5    40       P1  8028  0.47
      L1  H    21    46       P1 10175  0.32
      L1  H    23    47       P1 10175  0.32
      P1  H  8011  8017       L1     7  0.75
      L1  C     8    41       P1  7957  0.66

> <Gold.PLP.Chemscore.Internal.Correction>
0.1762

> <Gold.Rescore>
     Score         DG    S(hbond)    S(metal)    S(lipo)     H(rot)  DE(clash)    DE(int)     intcor
     13.34     -16.23       3.92        0.00      99.49       5.47       0.05       2.84       ----

> <Gold.Chemscore.Fitness>
13.3429

> <Gold.Chemscore.DG>
-16.2291

> <Gold.Chemscore.ZeroCoef>
-5.4800

> <Gold.Chemscore.Hbond>
3.9230

> <Gold.Chemscore.Metal>
0.0000

> <Gold.Chemscore.Lipo>
99.4855

> <Gold.Chemscore.Internal_Hbond>
0.0000

> <Gold.Chemscore.DEClash>
0.0504

> <Gold.Chemscore.DEInternal>
2.8357

> <Gold.Chemscore.Rot>
5.4662

> <Gold.Chemscore.Internal.Correction>
   9.000000E+99

> <Gold.Chemscore.Hbonds>
donor molecule, donor type, donor heavy atom, donor atom, acceptor molecule, acceptor atom, score
      L1  H     5    40       P1  8028  0.46
      L1  H    21    46       P1 10175  0.29
      L1  H    23    47       P1 10175  0.33
      P1  H  8011  8017       L1     7  0.47

> <Gold.Chemscore.Hbond.Weighted>
-13.1028

> <Gold.Chemscore.Metal.Weighted>
-0.0000

> <Gold.Chemscore.Lipo.Weighted>
-11.6398

> <Gold.Chemscore.Internal_Hbond.Weighted>
0.0000

> <Gold.Chemscore.DEClash.Weighted>
0.0504

> <Gold.Chemscore.DEInternal.Weighted>
2.8357

> <Gold.Chemscore.Rot.Weighted>
13.9935

> <Gold.Chemscore.Internal.Correction.Weighted>
   9.000000E+99

> <Gold.Protein.RotatedTorsions>
[ 6907 6896 6895 6894 ] final  107.39 input  -60.11 | X-H torsion
[ 7974 7965 7964 7962 ] final -178.21 input  175.53 | X-H torsion
[ 8008 7997 7996 7995 ] final  126.74 input   59.86 | X-H torsion
[ 10167 10162 10161 10158 ] final -151.04 input  -65.29 | X-H torsion
[ 10718 10713 10712 10709 ] final -129.01 input   66.30 | X-H torsion
[ 10763 10752 10751 10750 ] final -116.74 input  -60.55 | X-H torsion
[ 11005 11000 10999 10996 ] final -109.17 input  -57.11 | X-H torsion

> <Gold.Protein.ActiveResidues>
 VAL166  LYS551  ARG553  GLY616  TRP617  ASP618  TYR619  PRO620  LYS621  CYS622 
 ASP623  PHE694  ASN695  SER759  ASP760  ASP761  ALA762  ILE779  LEU786  VAL792 
 PHE793  MET794  SER795  GLU796  ALA797  LYS798  CYS799  TRP800  GLU811  SER814 

> <Gold.Protein.RotatedAtoms>
  152.5156  133.9241  159.7548 H   0  0  0  0  0  0  0  0  0  0  0  0  # atno 6907 bound_to 6896
  150.9606  133.6441  159.2762 H   0  0  0  0  0  0  0  0  0  0  0  0  # atno 6908 bound_to 6896
  151.3687  135.0923  159.9511 H   0  0  0  0  0  0  0  0  0  0  0  0  # atno 6909 bound_to 6896
  144.7130  140.0902  143.6421 H   0  0  0  0  0  0  0  0  0  0  0  0  # atno 7974 bound_to 7965
  156.2872  140.2685  156.2159 H   0  0  0  0  0  0  0  0  0  0  0  0  # atno 8008 bound_to 7997
  155.0217  140.0386  157.2458 H   0  0  0  0  0  0  0  0  0  0  0  0  # atno 8009 bound_to 7997
  154.7430  140.2728  155.6362 H   0  0  0  0  0  0  0  0  0  0  0  0  # atno 8010 bound_to 7997
  139.7302  143.8820  152.2532 H   0  0  0  0  0  0  0  0  0  0  0  0  # atno 10167 bound_to 10162
  156.2005  130.6854  151.0534 H   0  0  0  0  0  0  0  0  0  0  0  0  # atno 10718 bound_to 10713
  154.8530  135.4335  154.1868 H   0  0  0  0  0  0  0  0  0  0  0  0  # atno 10763 bound_to 10752
  153.2946  135.6964  153.7266 H   0  0  0  0  0  0  0  0  0  0  0  0  # atno 10764 bound_to 10752
  153.6420  135.3466  155.3049 H   0  0  0  0  0  0  0  0  0  0  0  0  # atno 10765 bound_to 10752
  141.0862  133.9135  157.2180 H   0  0  0  0  0  0  0  0  0  0  0  0  # atno 11005 bound_to 11000
  145.9626  139.2812  143.1146 LP  0  0  0  0  0  0  0  0  0  0  0  0  # atno 17320 bound_to 7965
  145.9204  140.9119  143.0408 LP  0  0  0  0  0  0  0  0  0  0  0  0  # atno 17321 bound_to 7965
  139.8741  144.7052  150.8953 LP  0  0  0  0  0  0  0  0  0  0  0  0  # atno 17342 bound_to 10162
  140.7770  143.3714  151.1642 LP  0  0  0  0  0  0  0  0  0  0  0  0  # atno 17343 bound_to 10162
  157.6983  131.0786  150.6900 LP  0  0  0  0  0  0  0  0  0  0  0  0  # atno 17370 bound_to 10713
  156.6958  130.4608  149.5587 LP  0  0  0  0  0  0  0  0  0  0  0  0  # atno 17371 bound_to 10713
  139.9681  135.0136  156.9439 LP  0  0  0  0  0  0  0  0  0  0  0  0  # atno 17394 bound_to 11000
  140.5357  134.0769  155.7328 LP  0  0  0  0  0  0  0  0  0  0  0  0  # atno 17395 bound_to 11000

$$$$
