AV-unprocessed.smi:3011|AV-procd|sdf|11459|dock8
  -GOLD-   2272016393D 1   1.00000     0.00000
 Structure written by MMmdl.
 47 49  0  0  0  0  0  0  0  0  2 V2000
  153.9045  141.5283  161.1879 C   0  0  0  0  0  0  0  0  0  0  0  0
  153.2600  141.3063  159.9424 O   0  0  0  0  0  0  0  0  0  0  0  0
  152.6122  142.3676  159.3430 C   0  0  0  0  0  0  0  0  0  0  0  0
  152.6147  143.6866  159.8636 C   0  0  0  0  0  0  0  0  0  0  0  0
  151.9322  144.7188  159.1949 C   0  0  0  0  0  0  0  0  0  0  0  0
  151.2411  144.4474  158.0018 C   0  0  0  0  0  0  0  0  0  0  0  0
  151.2317  143.1427  157.4763 C   0  0  0  0  0  0  0  0  0  0  0  0
  151.9161  142.0957  158.1428 C   0  0  0  0  0  0  0  0  0  0  0  0
  151.9492  140.7946  157.6913 O   0  0  0  0  0  0  0  0  0  0  0  0
  151.2918  140.4703  156.4746 C   0  0  0  0  0  0  0  0  0  0  0  0
  150.2934  139.3366  156.7485 C   0  0  0  0  0  0  0  0  0  0  0  0
  149.5461  138.9538  155.5411 N   0  0  0  0  0  0  0  0  0  0  0  0
  149.4877  137.7619  154.8767 C   0  0  0  0  0  0  0  0  0  0  0  0
  150.1824  136.4848  155.2618 C   0  0  2  0  0  0  0  0  0  0  0  0
  151.1227  135.9709  154.1555 C   0  0  0  0  0  0  0  0  0  0  0  0
  149.2478  135.4488  155.6957 N   0  0  0  0  0  0  0  0  0  0  0  0
  149.1915  134.9142  156.9234 C   0  0  0  0  0  0  0  0  0  0  0  0
  149.9408  135.2485  157.8370 O   0  0  0  0  0  0  0  0  0  0  0  0
  148.6406  137.9362  153.8210 N   0  3  0  0  0  0  0  0  0  0  0  0
  148.1746  139.2504  153.7968 C   0  0  0  0  0  0  0  0  0  0  0  0
  147.3086  139.8940  152.9182 C   0  0  0  0  0  0  0  0  0  0  0  0
  147.0397  141.2539  153.1781 C   0  0  0  0  0  0  0  0  0  0  0  0
  147.6237  141.9215  154.2743 C   0  0  0  0  0  0  0  0  0  0  0  0
  148.4989  141.2573  155.1590 C   0  0  0  0  0  0  0  0  0  0  0  0
  148.7568  139.9121  154.8965 C   0  0  0  0  0  0  0  0  0  0  0  0
  154.3611  140.5987  161.5269 H   0  0  0  0  0  0  0  0  0  0  0  0
  153.1947  141.8444  161.9534 H   0  0  0  0  0  0  0  0  0  0  0  0
  154.6976  142.2718  161.0995 H   0  0  0  0  0  0  0  0  0  0  0  0
  153.1342  143.9339  160.7767 H   0  0  0  0  0  0  0  0  0  0  0  0
  151.9393  145.7207  159.5984 H   0  0  0  0  0  0  0  0  0  0  0  0
  150.7170  145.2405  157.4892 H   0  0  0  0  0  0  0  0  0  0  0  0
  150.6894  142.9700  156.5594 H   0  0  0  0  0  0  0  0  0  0  0  0
  150.7603  141.3387  156.0832 H   0  0  0  0  0  0  0  0  0  0  0  0
  152.0194  140.1511  155.7268 H   0  0  0  0  0  0  0  0  0  0  0  0
  150.8218  138.4523  157.1056 H   0  0  0  0  0  0  0  0  0  0  0  0
  149.5898  139.6105  157.5350 H   0  0  0  0  0  0  0  0  0  0  0  0
  150.8052  136.7022  156.1292 H   0  0  0  0  0  0  0  0  0  0  0  0
  151.8711  136.7222  153.9011 H   0  0  0  0  0  0  0  0  0  0  0  0
  150.5828  135.7187  153.2423 H   0  0  0  0  0  0  0  0  0  0  0  0
  151.6561  135.0776  154.4815 H   0  0  0  0  0  0  0  0  0  0  0  0
  148.5965  135.1063  155.0037 H   0  0  0  0  0  0  0  0  0  0  0  0
  148.4018  134.1509  157.0049 H   0  0  0  0  0  0  0  0  0  0  0  0
  146.8613  139.3848  152.0772 H   0  0  0  0  0  0  0  0  0  0  0  0
  146.3731  141.7960  152.5230 H   0  0  0  0  0  0  0  0  0  0  0  0
  147.3953  142.9641  154.4411 H   0  0  0  0  0  0  0  0  0  0  0  0
  148.9414  141.7780  155.9951 H   0  0  0  0  0  0  0  0  0  0  0  0
  148.4041  137.2045  153.1632 H   0  0  0  0  0  0  0  0  0  0  0  0
  1  2  1  0  0  0  0
  1 26  1  0  0  0  0
  1 27  1  0  0  0  0
  1 28  1  0  0  0  0
  2  3  1  0  0  0  0
  3  8  1  0  0  0  0
  3  4  2  0  0  0  0
  4  5  1  0  0  0  0
  4 29  1  0  0  0  0
  5  6  2  0  0  0  0
  5 30  1  0  0  0  0
  6  7  1  0  0  0  0
  6 31  1  0  0  0  0
  7  8  2  0  0  0  0
  7 32  1  0  0  0  0
  8  9  1  0  0  0  0
  9 10  1  0  0  0  0
 10 11  1  0  0  0  0
 10 33  1  0  0  0  0
 10 34  1  0  0  0  0
 11 12  1  0  0  0  0
 11 35  1  0  0  0  0
 11 36  1  0  0  0  0
 12 25  1  0  0  0  0
 12 13  1  0  0  0  0
 13 14  1  0  0  0  0
 13 19  2  0  0  0  0
 14 15  1  0  0  0  0
 14 16  1  0  0  0  0
 14 37  1  0  0  0  0
 15 38  1  0  0  0  0
 15 39  1  0  0  0  0
 15 40  1  0  0  0  0
 16 17  1  0  0  0  0
 16 41  1  0  0  0  0
 17 18  2  0  0  0  0
 17 42  1  0  0  0  0
 19 20  1  0  0  0  0
 19 47  1  0  0  0  0
 20 25  2  0  0  0  0
 20 21  1  0  0  0  0
 21 22  2  0  0  0  0
 21 43  1  0  0  0  0
 22 23  1  0  0  0  0
 22 44  1  0  0  0  0
 23 24  2  0  0  0  0
 23 45  1  0  0  0  0
 24 25  1  0  0  0  0
 24 46  1  0  0  0  0
M  CHG  1  19   1
M  END
> <s_m_source_file>
AV-unprocessed.smi

> <i_m_source_file_index>
3011

> <i_lp_mmshare_version>
43012

> <i_f3d_flags>
0

> <s_epik_input>
W0NIM11PYzFbY0hdW2NIXVtjSF1bY0hdYzFPW0NIMl1bQ0gyXW4oYyhuMilbQ0BIXShbQ0gzXSlbTkhdW0NIXT1PKWMoYzIzKVtjSF1bY0hdW2NIXVtjSF0z

> <s_epik_cmdline>
J2VwaWtfcHl0aG9uJywgJy1waCcsICc3LjAnLCAnLXRuJywgJzgnLCAnLW1hJywgJzIwMCcsICctbWV0YWxfYmluZGluZycsICctaW1hZScsICc8aW5maWxlLm1hZT4nLCAnLW9tYWUnLCAnPG91dGZpbGUubWFlPic=

> <r_lp_tautomer_probability>
1

> <r_epik_Ionization_Penalty>
1.14644

> <r_epik_Ionization_Penalty_Charging>
1.14644

> <r_epik_Ionization_Penalty_Neutral>
5.5802e-08

> <r_epik_State_Penalty>
1.20743

> <r_epik_Charging_Adjusted_Penalty>
2.35387

> <i_epik_Tot_Q>
1

> <i_epik_Tot_abs_Q>
1

> <r_epik_Metal_State_Penalty>
1.28856

> <b_epik_Metal_Only>
0

> <s_lp_Force_Field>
OPLS_2005

> <r_lp_Energy>
19.8167

> <b_lp_Chiralities_Consistent>
1

> <s_lp_Variant>
AV-unprocessed.smi:3011-3

> <Gold.Version>
5.8.1

> <Gold.Id.Protein>
6NUR|6NUR_protein|mol2

> <Gold.PLP.Fitness>
51.0941

> <Gold.PLP.PLP>
-44.9605

> <Gold.PLP.part.hbond>
-2.0000

> <Gold.PLP.part.metal>
0.0000

> <Gold.PLP.part.buried>
-4.2051

> <Gold.PLP.part.nonpolar>
-38.6919

> <Gold.PLP.part.repulsive>
0.0067

> <Gold.PLP.ligand.clash>
0.0000

> <Gold.PLP.ligand.torsion>
0.4538

> <Gold.PLP.Chemscore.Hbond>
2.3005

> <Gold.PLP.Chemscore.CHOScore>
0.0000

> <Gold.PLP.Chemscore.Metal>
0.0000

> <Gold.Chemscore.Hbonds>
donor molecule, donor type, donor heavy atom, donor atom, acceptor molecule, acceptor atom, score
      L1  H    19    47       P1  7948  1.79
      P1  H  6896  6907       L1    18  0.85

> <Gold.PLP.Chemscore.Internal.Correction>
0.1396

> <Gold.Rescore>
     Score         DG    S(hbond)    S(metal)    S(lipo)     H(rot)  DE(clash)    DE(int)     intcor
     18.69     -19.18       1.48        0.00     133.04       2.66       0.05       0.44       ----

> <Gold.Chemscore.Fitness>
18.6881

> <Gold.Chemscore.DG>
-19.1777

> <Gold.Chemscore.ZeroCoef>
-5.4800

> <Gold.Chemscore.Hbond>
1.4798

> <Gold.Chemscore.Metal>
0.0000

> <Gold.Chemscore.Lipo>
133.0407

> <Gold.Chemscore.Internal_Hbond>
0.0000

> <Gold.Chemscore.DEClash>
0.0459

> <Gold.Chemscore.DEInternal>
0.4438

> <Gold.Chemscore.Rot>
2.6604

> <Gold.Chemscore.Internal.Correction>
   9.000000E+99

> <Gold.Chemscore.Hbonds>
donor molecule, donor type, donor heavy atom, donor atom, acceptor molecule, acceptor atom, score
      L1  H    19    47       P1  7948  0.88
      P1  H  6896  6907       L1    18  0.83

> <Gold.Chemscore.Hbond.Weighted>
-4.9426

> <Gold.Chemscore.Metal.Weighted>
-0.0000

> <Gold.Chemscore.Lipo.Weighted>
-15.5658

> <Gold.Chemscore.Internal_Hbond.Weighted>
0.0000

> <Gold.Chemscore.DEClash.Weighted>
0.0459

> <Gold.Chemscore.DEInternal.Weighted>
0.4438

> <Gold.Chemscore.Rot.Weighted>
6.8106

> <Gold.Chemscore.Internal.Correction.Weighted>
   9.000000E+99

> <Gold.Protein.RotatedTorsions>
[ 6907 6896 6895 6894 ] final  -88.00 input  -60.11 | X-H torsion
[ 7974 7965 7964 7962 ] final  -80.77 input  175.53 | X-H torsion
[ 8008 7997 7996 7995 ] final   45.10 input   59.86 | X-H torsion
[ 10167 10162 10161 10158 ] final  119.50 input  -65.29 | X-H torsion
[ 10718 10713 10712 10709 ] final   68.71 input   66.30 | X-H torsion
[ 10763 10752 10751 10750 ] final    6.22 input  -60.55 | X-H torsion
[ 11005 11000 10999 10996 ] final -128.26 input  -57.11 | X-H torsion

> <Gold.Protein.ActiveResidues>
 VAL166  LYS551  ARG553  GLY616  TRP617  ASP618  TYR619  PRO620  LYS621  CYS622 
 ASP623  PHE694  ASN695  SER759  ASP760  ASP761  ALA762  ILE779  LEU786  VAL792 
 PHE793  MET794  SER795  GLU796  ALA797  LYS798  CYS799  TRP800  GLU811  SER814 

> <Gold.Protein.RotatedAtoms>
  150.6867  134.2809  159.4626 H   0  0  0  0  0  0  0  0  0  0  0  0  # atno 6907 bound_to 6896
  152.0723  134.9522  160.0583 H   0  0  0  0  0  0  0  0  0  0  0  0  # atno 6908 bound_to 6896
  152.0907  133.4164  159.4579 H   0  0  0  0  0  0  0  0  0  0  0  0  # atno 6909 bound_to 6896
  145.5555  140.9490  143.1476 H   0  0  0  0  0  0  0  0  0  0  0  0  # atno 7974 bound_to 7965
  155.3304  140.3402  155.4239 H   0  0  0  0  0  0  0  0  0  0  0  0  # atno 8008 bound_to 7997
  156.1865  140.1682  156.8212 H   0  0  0  0  0  0  0  0  0  0  0  0  # atno 8009 bound_to 7997
  154.5392  140.0728  156.8463 H   0  0  0  0  0  0  0  0  0  0  0  0  # atno 8010 bound_to 7997
  139.6042  144.7065  151.2993 H   0  0  0  0  0  0  0  0  0  0  0  0  # atno 10167 bound_to 10162
  157.6305  130.9388  150.0415 H   0  0  0  0  0  0  0  0  0  0  0  0  # atno 10718 bound_to 10713
  153.2503  135.6913  153.7687 H   0  0  0  0  0  0  0  0  0  0  0  0  # atno 10763 bound_to 10752
  153.6784  135.3332  155.3172 H   0  0  0  0  0  0  0  0  0  0  0  0  # atno 10764 bound_to 10752
  154.8391  135.4516  154.1457 H   0  0  0  0  0  0  0  0  0  0  0  0  # atno 10765 bound_to 10752
  140.9531  134.1038  157.4042 H   0  0  0  0  0  0  0  0  0  0  0  0  # atno 11005 bound_to 11000
  144.7508  139.7198  143.7274 LP  0  0  0  0  0  0  0  0  0  0  0  0  # atno 17320 bound_to 7965
  146.1887  139.5116  142.9819 LP  0  0  0  0  0  0  0  0  0  0  0  0  # atno 17321 bound_to 7965
  140.7272  143.6969  150.7876 LP  0  0  0  0  0  0  0  0  0  0  0  0  # atno 17342 bound_to 10162
  140.0551  143.5210  152.2655 LP  0  0  0  0  0  0  0  0  0  0  0  0  # atno 17343 bound_to 10162
  156.1505  130.3642  149.9445 LP  0  0  0  0  0  0  0  0  0  0  0  0  # atno 17370 bound_to 10713
  156.7466  130.9099  151.3635 LP  0  0  0  0  0  0  0  0  0  0  0  0  # atno 17371 bound_to 10713
  139.8854  135.0072  156.6430 LP  0  0  0  0  0  0  0  0  0  0  0  0  # atno 17394 bound_to 11000
  140.7574  133.8846  155.8392 LP  0  0  0  0  0  0  0  0  0  0  0  0  # atno 17395 bound_to 11000

$$$$
