AV-unprocessed.smi:197|AV-procd|sdf|1550|dock10
  -GOLD-   2262019413D 1   1.00000     0.00000
 Structure written by MMmdl.
 54 57  0  0  0  0  0  0  0  0  1 V2000
  152.1504  144.4565  159.3433 C   0  0  0  0  0  0  0  0  0  0  0  0
  151.6589  143.1243  159.3461 O   0  0  0  0  0  0  0  0  0  0  0  0
  151.4957  142.5525  158.0537 C   0  0  0  0  0  0  0  0  0  0  0  0
  150.6659  141.2556  158.0904 C   0  0  0  0  0  0  0  0  0  0  0  0
  150.4355  140.6179  156.6940 C   0  0  2  0  0  0  0  0  0  0  0  0
  150.1486  141.7023  155.6294 C   0  0  0  0  0  0  0  0  0  0  0  0
  149.9204  141.1043  154.3582 O   0  0  0  0  0  0  0  0  0  0  0  0
  148.7898  140.2430  154.3731 C   0  0  0  0  0  0  0  0  0  0  0  0
  149.0441  139.1028  155.3677 C   0  0  0  0  0  0  0  0  0  0  0  0
  149.3371  139.6422  156.6907 N   0  0  0  0  0  0  0  0  0  0  0  0
  149.4273  138.6488  157.6036 C   0  0  0  0  0  0  0  0  0  0  0  0
  150.6227  138.4874  158.2218 N   0  0  0  0  0  0  0  0  0  0  0  0
  150.7908  137.4938  159.0998 C   0  0  0  0  0  0  0  0  0  0  0  0
  149.9135  136.5667  159.4905 N   0  0  0  0  0  0  0  0  0  0  0  0
  148.7064  136.7350  158.8778 C   0  0  0  0  0  0  0  0  0  0  0  0
  148.3738  137.7507  157.9386 C   0  0  0  0  0  0  0  0  0  0  0  0
  147.0479  137.6157  157.5449 N   0  0  0  0  0  0  0  0  0  0  0  0
  146.6261  136.5693  158.1994 C   0  0  0  0  0  0  0  0  0  0  0  0
  147.5621  135.9679  159.0102 N   0  0  0  0  0  0  0  0  0  0  0  0
  147.3729  134.7809  159.8295 C   0  0  0  0  0  0  0  0  0  0  0  0
  146.8471  135.0973  161.2551 C   0  0  2  0  0  0  0  0  0  0  0  0
  145.5409  135.6352  161.1324 O   0  0  0  0  0  0  0  0  0  0  0  0
  147.6990  136.1165  162.0082 C   0  0  0  0  0  0  0  0  0  0  0  0
  147.4879  135.7320  163.4643 C   0  0  0  0  0  0  0  0  0  0  0  0
  147.4885  134.3169  163.4070 O   0  0  0  0  0  0  0  0  0  0  0  0
  146.7742  133.9008  162.2459 C   0  0  2  0  0  0  0  0  0  0  0  0
  147.3854  132.5720  161.7748 C   0  0  0  0  0  0  0  0  0  0  0  0
  152.2879  144.7926  160.3710 H   0  0  0  0  0  0  0  0  0  0  0  0
  151.4589  145.1492  158.8648 H   0  0  0  0  0  0  0  0  0  0  0  0
  153.1148  144.5214  158.8384 H   0  0  0  0  0  0  0  0  0  0  0  0
  151.0404  143.2768  157.3768 H   0  0  0  0  0  0  0  0  0  0  0  0
  152.4862  142.3484  157.6490 H   0  0  0  0  0  0  0  0  0  0  0  0
  151.1660  140.5640  158.7662 H   0  0  0  0  0  0  0  0  0  0  0  0
  149.7016  141.4561  158.5585 H   0  0  0  0  0  0  0  0  0  0  0  0
  151.3440  140.0966  156.3935 H   0  0  0  0  0  0  0  0  0  0  0  0
  149.2871  142.3101  155.9112 H   0  0  0  0  0  0  0  0  0  0  0  0
  150.9956  142.3802  155.5304 H   0  0  0  0  0  0  0  0  0  0  0  0
  147.8910  140.8020  154.6391 H   0  0  0  0  0  0  0  0  0  0  0  0
  148.6338  139.8419  153.3716 H   0  0  0  0  0  0  0  0  0  0  0  0
  148.1694  138.4524  155.4143 H   0  0  0  0  0  0  0  0  0  0  0  0
  149.8814  138.4936  155.0240 H   0  0  0  0  0  0  0  0  0  0  0  0
  151.7711  137.4276  159.5480 H   0  0  0  0  0  0  0  0  0  0  0  0
  145.6163  136.1989  158.0984 H   0  0  0  0  0  0  0  0  0  0  0  0
  146.6850  134.1134  159.3088 H   0  0  0  0  0  0  0  0  0  0  0  0
  148.3300  134.2615  159.8804 H   0  0  0  0  0  0  0  0  0  0  0  0
  145.0961  135.1858  160.4299 H   0  0  0  0  0  0  0  0  0  0  0  0
  148.7527  135.9807  161.7612 H   0  0  0  0  0  0  0  0  0  0  0  0
  147.4391  137.1543  161.7955 H   0  0  0  0  0  0  0  0  0  0  0  0
  148.2726  136.1095  164.1201 H   0  0  0  0  0  0  0  0  0  0  0  0
  146.5247  136.0887  163.8321 H   0  0  0  0  0  0  0  0  0  0  0  0
  145.7403  133.7164  162.5441 H   0  0  0  0  0  0  0  0  0  0  0  0
  146.8672  132.1838  160.8978 H   0  0  0  0  0  0  0  0  0  0  0  0
  147.3097  131.8167  162.5573 H   0  0  0  0  0  0  0  0  0  0  0  0
  148.4418  132.6807  161.5289 H   0  0  0  0  0  0  0  0  0  0  0  0
  1  2  1  0  0  0  0
  1 28  1  0  0  0  0
  1 29  1  0  0  0  0
  1 30  1  0  0  0  0
  2  3  1  0  0  0  0
  3  4  1  0  0  0  0
  3 31  1  0  0  0  0
  3 32  1  0  0  0  0
  4  5  1  0  0  0  0
  4 33  1  0  0  0  0
  4 34  1  0  0  0  0
  5 10  1  0  0  0  0
  5  6  1  0  0  0  0
  5 35  1  0  0  0  0
  6  7  1  0  0  0  0
  6 36  1  0  0  0  0
  6 37  1  0  0  0  0
  7  8  1  0  0  0  0
  8  9  1  0  0  0  0
  8 38  1  0  0  0  0
  8 39  1  0  0  0  0
  9 10  1  0  0  0  0
  9 40  1  0  0  0  0
  9 41  1  0  0  0  0
 10 11  1  0  0  0  0
 11 16  1  0  0  0  0
 11 12  2  0  0  0  0
 12 13  1  0  0  0  0
 13 14  2  0  0  0  0
 13 42  1  0  0  0  0
 14 15  1  0  0  0  0
 15 19  1  0  0  0  0
 15 16  2  0  0  0  0
 16 17  1  0  0  0  0
 17 18  2  0  0  0  0
 18 19  1  0  0  0  0
 18 43  1  0  0  0  0
 19 20  1  0  0  0  0
 20 21  1  0  0  0  0
 20 44  1  0  0  0  0
 20 45  1  0  0  0  0
 21 26  1  0  0  0  0
 21 22  1  0  0  0  0
 21 23  1  0  0  0  0
 22 46  1  0  0  0  0
 23 24  1  0  0  0  0
 23 47  1  0  0  0  0
 23 48  1  0  0  0  0
 24 25  1  0  0  0  0
 24 49  1  0  0  0  0
 24 50  1  0  0  0  0
 25 26  1  0  0  0  0
 26 27  1  0  0  0  0
 26 51  1  0  0  0  0
 27 52  1  0  0  0  0
 27 53  1  0  0  0  0
 27 54  1  0  0  0  0
M  END
> <s_m_source_file>
AV-unprocessed.smi

> <i_m_source_file_index>
197

> <i_lp_mmshare_version>
43012

> <i_f3d_flags>
0

> <s_epik_input>
W0NIM11PW0NIMl1bQ0gyXVtDQEBIXTFbQ0gyXU9bQ0gyXVtDSDJdTjFjKG5bY0hdbjIpYyhjMjMpbltjSF1uM1tDSDJdW0NAQF00KFtPSF0pW0NIMl1bQ0gyXU9bQ0BIXTRbQ0gzXQ==

> <s_epik_cmdline>
J2VwaWtfcHl0aG9uJywgJy1waCcsICc3LjAnLCAnLXRuJywgJzgnLCAnLW1hJywgJzIwMCcsICctbWV0YWxfYmluZGluZycsICctaW1hZScsICc8aW5maWxlLm1hZT4nLCAnLW9tYWUnLCAnPG91dGZpbGUubWFlPic=

> <r_lp_tautomer_probability>
1

> <r_epik_Ionization_Penalty>
0.000106218

> <r_epik_Ionization_Penalty_Charging>
0

> <r_epik_Ionization_Penalty_Neutral>
0.000106218

> <r_epik_State_Penalty>
-0

> <r_epik_Charging_Adjusted_Penalty>
0

> <i_epik_Tot_Q>
0

> <i_epik_Tot_abs_Q>
0

> <r_epik_Metal_State_Penalty>
-0

> <b_epik_Metal_Only>
0

> <s_lp_Force_Field>
OPLS_2005

> <r_lp_Energy>
42.452

> <b_lp_Chiralities_Consistent>
1

> <s_lp_Variant>
AV-unprocessed.smi:197-7

> <Gold.Version>
5.8.1

> <Gold.Id.Protein>
6NUR|6NUR_protein|mol2

> <Gold.PLP.Fitness>
45.2113

> <Gold.PLP.PLP>
-41.1522

> <Gold.PLP.part.hbond>
-4.3869

> <Gold.PLP.part.metal>
0.0000

> <Gold.PLP.part.buried>
-5.0404

> <Gold.PLP.part.nonpolar>
-31.9855

> <Gold.PLP.part.repulsive>
0.2173

> <Gold.PLP.ligand.clash>
0.0000

> <Gold.PLP.ligand.torsion>
0.7587

> <Gold.PLP.Chemscore.Hbond>
1.7770

> <Gold.PLP.Chemscore.CHOScore>
0.0000

> <Gold.PLP.Chemscore.Metal>
0.0000

> <Gold.Chemscore.Hbonds>
donor molecule, donor type, donor heavy atom, donor atom, acceptor molecule, acceptor atom, score
      P1  H  6896  6909       L1    14  1.00
      P1  H  7989  7998       L1     7  0.51
      P1  H  8011  8017       L1     7  0.03

> <Gold.PLP.Chemscore.Internal.Correction>
0.2455

> <Gold.Rescore>
     Score         DG    S(hbond)    S(metal)    S(lipo)     H(rot)  DE(clash)    DE(int)     intcor
     10.49     -13.43       1.18        0.00      96.39       2.84       0.72       2.22       ----

> <Gold.Chemscore.Fitness>
10.4896

> <Gold.Chemscore.DG>
-13.4309

> <Gold.Chemscore.ZeroCoef>
-5.4800

> <Gold.Chemscore.Hbond>
1.1776

> <Gold.Chemscore.Metal>
0.0000

> <Gold.Chemscore.Lipo>
96.3872

> <Gold.Chemscore.Internal_Hbond>
0.0000

> <Gold.Chemscore.DEClash>
0.7195

> <Gold.Chemscore.DEInternal>
2.2219

> <Gold.Chemscore.Rot>
2.8358

> <Gold.Chemscore.Internal.Correction>
   9.000000E+99

> <Gold.Chemscore.Hbonds>
donor molecule, donor type, donor heavy atom, donor atom, acceptor molecule, acceptor atom, score
      P1  H  6896  6909       L1    14  0.55
      P1  H  7989  7998       L1     7  0.34
      P1  H  8011  8017       L1     7  0.04

> <Gold.Chemscore.Hbond.Weighted>
-3.9332

> <Gold.Chemscore.Metal.Weighted>
-0.0000

> <Gold.Chemscore.Lipo.Weighted>
-11.2773

> <Gold.Chemscore.Internal_Hbond.Weighted>
0.0000

> <Gold.Chemscore.DEClash.Weighted>
0.7195

> <Gold.Chemscore.DEInternal.Weighted>
2.2219

> <Gold.Chemscore.Rot.Weighted>
7.2596

> <Gold.Chemscore.Internal.Correction.Weighted>
   9.000000E+99

> <Gold.Protein.RotatedTorsions>
[ 6907 6896 6895 6894 ] final   78.09 input  -60.11 | X-H torsion
[ 7974 7965 7964 7962 ] final -178.08 input  175.53 | X-H torsion
[ 8008 7997 7996 7995 ] final  -37.58 input   59.86 | X-H torsion
[ 10167 10162 10161 10158 ] final -110.77 input  -65.29 | X-H torsion
[ 10718 10713 10712 10709 ] final  166.23 input   66.30 | X-H torsion
[ 10763 10752 10751 10750 ] final  -15.55 input  -60.55 | X-H torsion
[ 11005 11000 10999 10996 ] final  177.35 input  -57.11 | X-H torsion

> <Gold.Protein.ActiveResidues>
 VAL166  LYS551  ARG553  GLY616  TRP617  ASP618  TYR619  PRO620  LYS621  CYS622 
 ASP623  PHE694  ASN695  SER759  ASP760  ASP761  ALA762  ILE779  LEU786  VAL792 
 PHE793  MET794  SER795  GLU796  ALA797  LYS798  CYS799  TRP800  GLU811  SER814 

> <Gold.Protein.RotatedAtoms>
  152.5145  134.3717  159.9320 H   0  0  0  0  0  0  0  0  0  0  0  0  # atno 6907 bound_to 6896
  151.3672  133.3861  159.2703 H   0  0  0  0  0  0  0  0  0  0  0  0  # atno 6908 bound_to 6896
  150.9606  134.9014  159.7786 H   0  0  0  0  0  0  0  0  0  0  0  0  # atno 6909 bound_to 6896
  144.7129  140.0922  143.6420 H   0  0  0  0  0  0  0  0  0  0  0  0  # atno 7974 bound_to 7965
  154.4051  140.1600  156.2561 H   0  0  0  0  0  0  0  0  0  0  0  0  # atno 8008 bound_to 7997
  155.9077  140.3429  155.6052 H   0  0  0  0  0  0  0  0  0  0  0  0  # atno 8009 bound_to 7997
  155.7373  140.0788  157.2252 H   0  0  0  0  0  0  0  0  0  0  0  0  # atno 8010 bound_to 7997
  140.1409  143.4280  152.1563 H   0  0  0  0  0  0  0  0  0  0  0  0  # atno 10167 bound_to 10162
  157.0689  131.0360  151.2619 H   0  0  0  0  0  0  0  0  0  0  0  0  # atno 10718 bound_to 10713
  153.5450  135.7012  153.5618 H   0  0  0  0  0  0  0  0  0  0  0  0  # atno 10763 bound_to 10752
  153.3567  135.3980  155.1687 H   0  0  0  0  0  0  0  0  0  0  0  0  # atno 10764 bound_to 10752
  154.8669  135.3779  154.4957 H   0  0  0  0  0  0  0  0  0  0  0  0  # atno 10765 bound_to 10752
  140.3831  134.6929  157.4463 H   0  0  0  0  0  0  0  0  0  0  0  0  # atno 11005 bound_to 11000
  145.9610  139.2800  143.1155 LP  0  0  0  0  0  0  0  0  0  0  0  0  # atno 17320 bound_to 7965
  145.9221  140.9108  143.0400 LP  0  0  0  0  0  0  0  0  0  0  0  0  # atno 17321 bound_to 7965
  139.5472  144.7309  151.4545 LP  0  0  0  0  0  0  0  0  0  0  0  0  # atno 17342 bound_to 10162
  140.6761  143.8186  150.7060 LP  0  0  0  0  0  0  0  0  0  0  0  0  # atno 17343 bound_to 10162
  157.4894  130.7813  149.7493 LP  0  0  0  0  0  0  0  0  0  0  0  0  # atno 17370 bound_to 10713
  155.9956  130.3911  150.2811 LP  0  0  0  0  0  0  0  0  0  0  0  0  # atno 17371 bound_to 10713
  140.0463  134.6194  155.8916 LP  0  0  0  0  0  0  0  0  0  0  0  0  # atno 17394 bound_to 11000
  141.1917  133.6572  156.5467 LP  0  0  0  0  0  0  0  0  0  0  0  0  # atno 17395 bound_to 11000

$$$$
