AV-unprocessed.smi:2190|AV-procd|sdf|8889|dock10
  -GOLD-   2272012 93D 1   1.00000     0.00000
 Structure written by MMmdl.
 46 48  0  0  0  0  0  0  0  0  1 V2000
  148.5011  145.2045  161.4381 C   0  0  0  0  0  0  0  0  0  0  0  0
  147.4739  144.6649  160.4640 C   0  0  0  0  0  0  0  0  0  0  0  0
  146.1419  145.1198  160.5107 C   0  0  0  0  0  0  0  0  0  0  0  0
  145.1940  144.6121  159.6040 C   0  0  0  0  0  0  0  0  0  0  0  0
  145.5703  143.6466  158.6474 C   0  0  0  0  0  0  0  0  0  0  0  0
  144.5356  143.1097  157.6761 C   0  0  0  0  0  0  0  0  0  0  0  0
  146.9038  143.1794  158.5913 C   0  0  0  0  0  0  0  0  0  0  0  0
  147.2024  142.2312  157.6352 O   0  0  0  0  0  0  0  0  0  0  0  0
  148.5121  141.6781  157.6067 C   0  0  0  0  0  0  0  0  0  0  0  0
  148.9358  141.4181  156.1515 C   0  0  1  0  0  0  0  0  0  0  0  0
  148.0255  142.0592  155.2801 O   0  0  0  0  0  0  0  0  0  0  0  0
  150.3937  141.8223  155.8488 C   0  0  0  0  0  0  0  0  0  0  0  0
  151.3247  141.3524  156.8660 N   0  0  0  0  0  0  0  0  0  0  0  0
  151.8669  140.1158  157.0065 C   0  0  0  0  0  0  0  0  0  0  0  0
  151.5457  139.0037  156.0479 C   0  0  0  0  0  0  0  0  0  0  0  0
  151.8194  139.3128  154.6960 O   0  0  0  0  0  0  0  0  0  0  0  0
  152.7017  139.9677  158.0386 N   0  0  0  0  0  0  0  0  0  0  0  0
  152.6976  141.2203  158.6195 C   0  0  0  0  0  0  0  0  0  0  0  0
  153.3833  141.7091  159.7545 C   0  0  0  0  0  0  0  0  0  0  0  0
  153.2219  143.0493  160.1636 C   0  0  0  0  0  0  0  0  0  0  0  0
  152.3745  143.9179  159.4453 C   0  0  0  0  0  0  0  0  0  0  0  0
  151.6821  143.4506  158.3116 C   0  0  0  0  0  0  0  0  0  0  0  0
  151.8465  142.1119  157.9081 C   0  0  0  0  0  0  0  0  0  0  0  0
  147.8520  143.6999  159.5088 C   0  0  0  0  0  0  0  0  0  0  0  0
  148.1124  146.0592  161.9926 H   0  0  0  0  0  0  0  0  0  0  0  0
  149.3978  145.5249  160.9070 H   0  0  0  0  0  0  0  0  0  0  0  0
  148.7828  144.4320  162.1541 H   0  0  0  0  0  0  0  0  0  0  0  0
  145.8417  145.8577  161.2402 H   0  0  0  0  0  0  0  0  0  0  0  0
  144.1750  144.9678  159.6473 H   0  0  0  0  0  0  0  0  0  0  0  0
  144.8640  143.2632  156.6477 H   0  0  0  0  0  0  0  0  0  0  0  0
  143.5734  143.6071  157.8014 H   0  0  0  0  0  0  0  0  0  0  0  0
  144.3887  142.0409  157.8341 H   0  0  0  0  0  0  0  0  0  0  0  0
  149.2070  142.3914  158.0531 H   0  0  0  0  0  0  0  0  0  0  0  0
  148.5645  140.7551  158.1868 H   0  0  0  0  0  0  0  0  0  0  0  0
  148.8266  140.3493  155.9633 H   0  0  0  0  0  0  0  0  0  0  0  0
  148.1657  142.9924  155.3319 H   0  0  0  0  0  0  0  0  0  0  0  0
  150.7069  141.4522  154.8726 H   0  0  0  0  0  0  0  0  0  0  0  0
  150.4718  142.9089  155.7964 H   0  0  0  0  0  0  0  0  0  0  0  0
  152.1183  138.1157  156.3147 H   0  0  0  0  0  0  0  0  0  0  0  0
  150.4891  138.7512  156.1408 H   0  0  0  0  0  0  0  0  0  0  0  0
  152.4935  138.7285  154.3853 H   0  0  0  0  0  0  0  0  0  0  0  0
  154.0351  141.0516  160.3106 H   0  0  0  0  0  0  0  0  0  0  0  0
  153.7514  143.4124  161.0323 H   0  0  0  0  0  0  0  0  0  0  0  0
  152.2570  144.9428  159.7650 H   0  0  0  0  0  0  0  0  0  0  0  0
  151.0324  144.1127  157.7590 H   0  0  0  0  0  0  0  0  0  0  0  0
  148.8800  143.3708  159.5006 H   0  0  0  0  0  0  0  0  0  0  0  0
  1  2  1  0  0  0  0
  1 25  1  0  0  0  0
  1 26  1  0  0  0  0
  1 27  1  0  0  0  0
  2 24  1  0  0  0  0
  2  3  2  0  0  0  0
  3  4  1  0  0  0  0
  3 28  1  0  0  0  0
  4  5  2  0  0  0  0
  4 29  1  0  0  0  0
  5  6  1  0  0  0  0
  5  7  1  0  0  0  0
  6 30  1  0  0  0  0
  6 31  1  0  0  0  0
  6 32  1  0  0  0  0
  7  8  1  0  0  0  0
  7 24  2  0  0  0  0
  8  9  1  0  0  0  0
  9 10  1  0  0  0  0
  9 33  1  0  0  0  0
  9 34  1  0  0  0  0
 10 11  1  0  0  0  0
 10 12  1  0  0  0  0
 10 35  1  0  0  0  0
 11 36  1  0  0  0  0
 12 13  1  0  0  0  0
 12 37  1  0  0  0  0
 12 38  1  0  0  0  0
 13 23  1  0  0  0  0
 13 14  1  0  0  0  0
 14 15  1  0  0  0  0
 14 17  2  0  0  0  0
 15 16  1  0  0  0  0
 15 39  1  0  0  0  0
 15 40  1  0  0  0  0
 16 41  1  0  0  0  0
 17 18  1  0  0  0  0
 18 23  2  0  0  0  0
 18 19  1  0  0  0  0
 19 20  2  0  0  0  0
 19 42  1  0  0  0  0
 20 21  1  0  0  0  0
 20 43  1  0  0  0  0
 21 22  2  0  0  0  0
 21 44  1  0  0  0  0
 22 23  1  0  0  0  0
 22 45  1  0  0  0  0
 24 46  1  0  0  0  0
M  END
> <s_m_source_file>
AV-unprocessed.smi

> <i_m_source_file_index>
2190

> <i_lp_mmshare_version>
43012

> <i_f3d_flags>
0

> <s_epik_input>
W0NIM11jMVtjSF1bY0hdYyhbQ0gzXSljKFtjSF0xKU9bQ0gyXVtDQEhdKFtPSF0pW0NIMl1uKGMobjIpW0NIMl1bT0hdKWMoYzIzKVtjSF1bY0hdW2NIXVtjSF0z

> <s_epik_cmdline>
J2VwaWtfcHl0aG9uJywgJy1waCcsICc3LjAnLCAnLXRuJywgJzgnLCAnLW1hJywgJzIwMCcsICctbWV0YWxfYmluZGluZycsICctaW1hZScsICc8aW5maWxlLm1hZT4nLCAnLW9tYWUnLCAnPG91dGZpbGUubWFlPic=

> <r_lp_tautomer_probability>
1

> <r_epik_Ionization_Penalty>
0.0555874

> <r_epik_Ionization_Penalty_Charging>
0

> <r_epik_Ionization_Penalty_Neutral>
0.0555874

> <r_epik_State_Penalty>
0.0478234

> <r_epik_Charging_Adjusted_Penalty>
0.0478234

> <i_epik_Tot_Q>
0

> <i_epik_Tot_abs_Q>
0

> <r_epik_Metal_State_Penalty>
4.98044e-05

> <b_epik_Metal_Only>
0

> <s_lp_Force_Field>
OPLS_2005

> <r_lp_Energy>
17.5395

> <b_lp_Chiralities_Consistent>
1

> <s_lp_Variant>
AV-unprocessed.smi:2190-2

> <Gold.Version>
5.8.1

> <Gold.Id.Protein>
6NUR|6NUR_protein|mol2

> <Gold.PLP.Fitness>
49.4115

> <Gold.PLP.PLP>
-43.8027

> <Gold.PLP.part.hbond>
-2.9493

> <Gold.PLP.part.metal>
0.0000

> <Gold.PLP.part.buried>
-6.9863

> <Gold.PLP.part.nonpolar>
-33.5305

> <Gold.PLP.part.repulsive>
0.1270

> <Gold.PLP.ligand.clash>
0.0000

> <Gold.PLP.ligand.torsion>
1.2673

> <Gold.PLP.Chemscore.Hbond>
2.7015

> <Gold.PLP.Chemscore.CHOScore>
0.0000

> <Gold.PLP.Chemscore.Metal>
0.0000

> <Gold.Chemscore.Hbonds>
donor molecule, donor type, donor heavy atom, donor atom, acceptor molecule, acceptor atom, score
      L1  H    11    36       P1  8028  1.00
      P1  H  7989  7998       L1    16  1.00
      P1  H  7997  8010       L1    17  0.66

> <Gold.PLP.Chemscore.Internal.Correction>
0.0388

> <Gold.Rescore>
     Score         DG    S(hbond)    S(metal)    S(lipo)     H(rot)  DE(clash)    DE(int)     intcor
     15.64     -16.97       1.85        0.00     110.21       2.96       0.19       1.14       ----

> <Gold.Chemscore.Fitness>
15.6418

> <Gold.Chemscore.DG>
-16.9748

> <Gold.Chemscore.ZeroCoef>
-5.4800

> <Gold.Chemscore.Hbond>
1.8465

> <Gold.Chemscore.Metal>
0.0000

> <Gold.Chemscore.Lipo>
110.2144

> <Gold.Chemscore.Internal_Hbond>
0.0000

> <Gold.Chemscore.DEClash>
0.1904

> <Gold.Chemscore.DEInternal>
1.1426

> <Gold.Chemscore.Rot>
2.9561

> <Gold.Chemscore.Internal.Correction>
   9.000000E+99

> <Gold.Chemscore.Hbonds>
donor molecule, donor type, donor heavy atom, donor atom, acceptor molecule, acceptor atom, score
      L1  H    11    36       P1  8028  0.96
      P1  H  7989  7998       L1    16  0.70
      P1  H  7997  8010       L1    17  0.04

> <Gold.Chemscore.Hbond.Weighted>
-6.1674

> <Gold.Chemscore.Metal.Weighted>
-0.0000

> <Gold.Chemscore.Lipo.Weighted>
-12.8951

> <Gold.Chemscore.Internal_Hbond.Weighted>
0.0000

> <Gold.Chemscore.DEClash.Weighted>
0.1904

> <Gold.Chemscore.DEInternal.Weighted>
1.1426

> <Gold.Chemscore.Rot.Weighted>
7.5677

> <Gold.Chemscore.Internal.Correction.Weighted>
   9.000000E+99

> <Gold.Protein.RotatedTorsions>
[ 6907 6896 6895 6894 ] final   51.57 input  -60.11 | X-H torsion
[ 7974 7965 7964 7962 ] final   80.55 input  175.53 | X-H torsion
[ 8008 7997 7996 7995 ] final   31.74 input   59.86 | X-H torsion
[ 10167 10162 10161 10158 ] final -125.20 input  -65.29 | X-H torsion
[ 10718 10713 10712 10709 ] final   85.86 input   66.30 | X-H torsion
[ 10763 10752 10751 10750 ] final   75.70 input  -60.55 | X-H torsion
[ 11005 11000 10999 10996 ] final  121.97 input  -57.11 | X-H torsion

> <Gold.Protein.ActiveResidues>
 VAL166  LYS551  ARG553  GLY616  TRP617  ASP618  TYR619  PRO620  LYS621  CYS622 
 ASP623  PHE694  ASN695  SER759  ASP760  ASP761  ALA762  ILE779  LEU786  VAL792 
 PHE793  MET794  SER795  GLU796  ALA797  LYS798  CYS799  TRP800  GLU811  SER814 

> <Gold.Protein.RotatedAtoms>
  152.3141  134.7462  160.0329 H   0  0  0  0  0  0  0  0  0  0  0  0  # atno 6907 bound_to 6896
  151.7933  133.3356  159.3513 H   0  0  0  0  0  0  0  0  0  0  0  0  # atno 6908 bound_to 6896
  150.7335  134.5753  159.5955 H   0  0  0  0  0  0  0  0  0  0  0  0  # atno 6909 bound_to 6896
  145.6497  139.2444  143.1984 H   0  0  0  0  0  0  0  0  0  0  0  0  # atno 7974 bound_to 7965
  155.1113  140.3239  155.4521 H   0  0  0  0  0  0  0  0  0  0  0  0  # atno 8008 bound_to 7997
  156.2689  140.2043  156.6185 H   0  0  0  0  0  0  0  0  0  0  0  0  # atno 8009 bound_to 7997
  154.6753  140.0532  157.0196 H   0  0  0  0  0  0  0  0  0  0  0  0  # atno 8010 bound_to 7997
  139.9847  143.5705  152.2365 H   0  0  0  0  0  0  0  0  0  0  0  0  # atno 10167 bound_to 10162
  157.6921  131.0192  150.2885 H   0  0  0  0  0  0  0  0  0  0  0  0  # atno 10718 bound_to 10713
  153.0673  135.4978  154.8229 H   0  0  0  0  0  0  0  0  0  0  0  0  # atno 10763 bound_to 10752
  154.6972  135.2995  154.9396 H   0  0  0  0  0  0  0  0  0  0  0  0  # atno 10764 bound_to 10752
  154.0131  135.6751  153.4819 H   0  0  0  0  0  0  0  0  0  0  0  0  # atno 10765 bound_to 10752
  139.9248  134.9640  156.8038 H   0  0  0  0  0  0  0  0  0  0  0  0  # atno 11005 bound_to 11000
  146.1214  140.7304  142.9456 LP  0  0  0  0  0  0  0  0  0  0  0  0  # atno 17320 bound_to 7965
  144.7127  140.4098  143.7068 LP  0  0  0  0  0  0  0  0  0  0  0  0  # atno 17321 bound_to 7965
  139.6384  144.7652  151.2390 LP  0  0  0  0  0  0  0  0  0  0  0  0  # atno 17342 bound_to 10162
  140.7476  143.6359  150.8380 LP  0  0  0  0  0  0  0  0  0  0  0  0  # atno 17343 bound_to 10162
  156.3420  130.3817  149.7401 LP  0  0  0  0  0  0  0  0  0  0  0  0  # atno 17370 bound_to 10713
  156.4907  130.8083  151.3093 LP  0  0  0  0  0  0  0  0  0  0  0  0  # atno 17371 bound_to 10713
  140.6368  133.9855  155.7688 LP  0  0  0  0  0  0  0  0  0  0  0  0  # atno 17394 bound_to 11000
  141.0797  134.0081  157.3404 LP  0  0  0  0  0  0  0  0  0  0  0  0  # atno 17395 bound_to 11000

$$$$
