AV-unprocessed.smi:3274|AV-procd|sdf|12522|dock7
  -GOLD-   2272018433D 1   1.00000     0.00000
 Structure written by MMmdl.
 43 44  0  0  0  0  0  0  0  0  2 V2000
  152.5992  144.5886  158.2126 C   0  0  0  0  0  0  0  0  0  0  0  0
  152.7087  143.7846  159.4977 C   0  0  0  0  0  0  0  0  0  0  0  0
  152.4799  144.3632  160.6933 C   0  0  0  0  0  0  0  0  0  0  0  0
  152.6107  143.6630  162.0344 C   0  0  0  0  0  0  0  0  0  0  0  0
  152.8480  142.1496  161.9046 C   0  0  0  0  0  0  0  0  0  0  0  0
  153.7614  141.8249  160.7103 C   0  0  1  0  0  0  0  0  0  0  0  0
  154.2050  140.3518  160.7057 C   0  0  0  0  0  0  0  0  0  0  0  0
  153.1286  142.3129  159.3759 C   0  0  1  0  0  0  0  0  0  0  0  0
  151.9610  141.4136  158.8933 C   0  0  0  0  0  0  0  0  0  0  0  0
  151.6035  141.6507  157.4784 N   0  3  0  0  0  0  0  0  0  0  0  0
  151.0652  140.4778  156.7549 C   0  0  2  0  0  0  0  0  0  0  0  0
  150.1891  140.9599  155.5864 C   0  0  0  0  0  0  0  0  0  0  0  0
  150.2975  139.5408  157.7168 C   0  0  0  0  0  0  0  0  0  0  0  0
  151.0677  138.3753  158.1110 N   0  0  0  0  0  0  0  0  0  0  0  0
  151.3291  137.8730  159.3192 C   0  0  0  0  0  0  0  0  0  0  0  0
  152.0937  136.7905  159.2937 N   0  0  0  0  0  0  0  0  0  0  0  0
  152.2889  136.6791  157.9459 C   0  0  0  0  0  0  0  0  0  0  0  0
  151.7000  137.6079  157.1923 N   0  0  0  0  0  0  0  0  0  0  0  0
  153.4767  144.4310  157.5851 H   0  0  0  0  0  0  0  0  0  0  0  0
  152.5319  145.6563  158.4242 H   0  0  0  0  0  0  0  0  0  0  0  0
  151.7098  144.3164  157.6466 H   0  0  0  0  0  0  0  0  0  0  0  0
  152.2097  145.4083  160.7380 H   0  0  0  0  0  0  0  0  0  0  0  0
  153.4483  144.1216  162.5609 H   0  0  0  0  0  0  0  0  0  0  0  0
  151.7199  143.8538  162.6339 H   0  0  0  0  0  0  0  0  0  0  0  0
  153.2815  141.7724  162.8315 H   0  0  0  0  0  0  0  0  0  0  0  0
  151.8931  141.6365  161.7886 H   0  0  0  0  0  0  0  0  0  0  0  0
  154.6765  142.4038  160.8498 H   0  0  0  0  0  0  0  0  0  0  0  0
  153.3562  139.6681  160.7221 H   0  0  0  0  0  0  0  0  0  0  0  0
  154.8099  140.1294  161.5851 H   0  0  0  0  0  0  0  0  0  0  0  0
  154.8097  140.1238  159.8275 H   0  0  0  0  0  0  0  0  0  0  0  0
  153.9186  142.2657  158.6248 H   0  0  0  0  0  0  0  0  0  0  0  0
  152.2244  140.3601  158.9753 H   0  0  0  0  0  0  0  0  0  0  0  0
  151.0899  141.5721  159.5277 H   0  0  0  0  0  0  0  0  0  0  0  0
  150.9293  142.4011  157.4274 H   0  0  0  0  0  0  0  0  0  0  0  0
  151.9087  139.9349  156.3252 H   0  0  0  0  0  0  0  0  0  0  0  0
  149.8429  140.1275  154.9733 H   0  0  0  0  0  0  0  0  0  0  0  0
  150.7455  141.6306  154.9307 H   0  0  0  0  0  0  0  0  0  0  0  0
  149.3106  141.4979  155.9446 H   0  0  0  0  0  0  0  0  0  0  0  0
  150.0060  140.0645  158.6272 H   0  0  0  0  0  0  0  0  0  0  0  0
  149.3743  139.1978  157.2472 H   0  0  0  0  0  0  0  0  0  0  0  0
  150.9534  138.3053  160.2350 H   0  0  0  0  0  0  0  0  0  0  0  0
  152.8843  135.8918  157.5072 H   0  0  0  0  0  0  0  0  0  0  0  0
  152.4454  141.9460  157.0049 H   0  0  0  0  0  0  0  0  0  0  0  0
  1  2  1  0  0  0  0
  1 19  1  0  0  0  0
  1 20  1  0  0  0  0
  1 21  1  0  0  0  0
  2  8  1  0  0  0  0
  2  3  2  0  0  0  0
  3  4  1  0  0  0  0
  3 22  1  0  0  0  0
  4  5  1  0  0  0  0
  4 23  1  0  0  0  0
  4 24  1  0  0  0  0
  5  6  1  0  0  0  0
  5 25  1  0  0  0  0
  5 26  1  0  0  0  0
  6  7  1  0  0  0  0
  6  8  1  0  0  0  0
  6 27  1  0  0  0  0
  7 28  1  0  0  0  0
  7 29  1  0  0  0  0
  7 30  1  0  0  0  0
  8  9  1  0  0  0  0
  8 31  1  0  0  0  0
  9 10  1  0  0  0  0
  9 32  1  0  0  0  0
  9 33  1  0  0  0  0
 10 11  1  0  0  0  0
 10 34  1  0  0  0  0
 10 43  1  0  0  0  0
 11 12  1  0  0  0  0
 11 13  1  0  0  0  0
 11 35  1  0  0  0  0
 12 36  1  0  0  0  0
 12 37  1  0  0  0  0
 12 38  1  0  0  0  0
 13 14  1  0  0  0  0
 13 39  1  0  0  0  0
 13 40  1  0  0  0  0
 14 18  1  0  0  0  0
 14 15  1  0  0  0  0
 15 16  2  0  0  0  0
 15 41  1  0  0  0  0
 16 17  1  0  0  0  0
 17 18  2  0  0  0  0
 17 42  1  0  0  0  0
M  CHG  1  10   1
M  END
> <s_m_source_file>
AV-unprocessed.smi

> <i_m_source_file_index>
3274

> <i_lp_mmshare_version>
43012

> <i_f3d_flags>
0

> <s_epik_input>
W0NIM11DMT1bQ0hdW0NIMl1bQ0gyXVtDQEBIXShbQ0gzXSlbQ0BIXTFbQ0gyXVtOSF1bQ0BIXShbQ0gzXSlbQ0gyXW4yW2NIXW5bY0hdbjI=

> <s_epik_cmdline>
J2VwaWtfcHl0aG9uJywgJy1waCcsICc3LjAnLCAnLXRuJywgJzgnLCAnLW1hJywgJzIwMCcsICctbWV0YWxfYmluZGluZycsICctaW1hZScsICc8aW5maWxlLm1hZT4nLCAnLW9tYWUnLCAnPG91dGZpbGUubWFlPic=

> <r_lp_tautomer_probability>
1

> <r_epik_Ionization_Penalty>
0.0017527

> <r_epik_Ionization_Penalty_Charging>
0.00175191

> <r_epik_Ionization_Penalty_Neutral>
7.94565e-07

> <r_epik_State_Penalty>
0.00118605

> <r_epik_Charging_Adjusted_Penalty>
0.00293796

> <i_epik_Tot_Q>
1

> <i_epik_Tot_abs_Q>
1

> <r_epik_Metal_State_Penalty>
-0

> <b_epik_Metal_Only>
0

> <s_lp_Force_Field>
OPLS_2005

> <r_lp_Energy>
17.2811

> <b_lp_Chiralities_Consistent>
1

> <s_lp_Variant>
AV-unprocessed.smi:3274-1

> <Gold.Version>
5.8.1

> <Gold.Id.Protein>
6NUR|6NUR_protein|mol2

> <Gold.PLP.Fitness>
44.1673

> <Gold.PLP.PLP>
-43.7172

> <Gold.PLP.part.hbond>
-1.0000

> <Gold.PLP.part.metal>
0.0000

> <Gold.PLP.part.buried>
-4.8532

> <Gold.PLP.part.nonpolar>
-36.9578

> <Gold.PLP.part.repulsive>
0.0716

> <Gold.PLP.ligand.clash>
0.0000

> <Gold.PLP.ligand.torsion>
1.2920

> <Gold.PLP.Chemscore.Hbond>
1.0000

> <Gold.PLP.Chemscore.CHOScore>
0.0000

> <Gold.PLP.Chemscore.Metal>
0.0000

> <Gold.Chemscore.Hbonds>
donor molecule, donor type, donor heavy atom, donor atom, acceptor molecule, acceptor atom, score
      P1  H  6896  6909       L1    16  1.00

> <Gold.PLP.Chemscore.Internal.Correction>
0.0341

> <Gold.Rescore>
     Score         DG    S(hbond)    S(metal)    S(lipo)     H(rot)  DE(clash)    DE(int)     intcor
     14.94     -16.27       0.86        0.00     119.18       2.36       0.03       1.29       ----

> <Gold.Chemscore.Fitness>
14.9397

> <Gold.Chemscore.DG>
-16.2661

> <Gold.Chemscore.ZeroCoef>
-5.4800

> <Gold.Chemscore.Hbond>
0.8646

> <Gold.Chemscore.Metal>
0.0000

> <Gold.Chemscore.Lipo>
119.1765

> <Gold.Chemscore.Internal_Hbond>
0.0000

> <Gold.Chemscore.DEClash>
0.0348

> <Gold.Chemscore.DEInternal>
1.2916

> <Gold.Chemscore.Rot>
2.3615

> <Gold.Chemscore.Internal.Correction>
   9.000000E+99

> <Gold.Chemscore.Hbonds>
donor molecule, donor type, donor heavy atom, donor atom, acceptor molecule, acceptor atom, score
      P1  H  6896  6909       L1    16  0.72

> <Gold.Chemscore.Hbond.Weighted>
-2.8879

> <Gold.Chemscore.Metal.Weighted>
-0.0000

> <Gold.Chemscore.Lipo.Weighted>
-13.9436

> <Gold.Chemscore.Internal_Hbond.Weighted>
0.0000

> <Gold.Chemscore.DEClash.Weighted>
0.0348

> <Gold.Chemscore.DEInternal.Weighted>
1.2916

> <Gold.Chemscore.Rot.Weighted>
6.0454

> <Gold.Chemscore.Internal.Correction.Weighted>
   9.000000E+99

> <Gold.Protein.RotatedTorsions>
[ 6907 6896 6895 6894 ] final  128.03 input  -60.11 | X-H torsion
[ 7974 7965 7964 7962 ] final    8.18 input  175.53 | X-H torsion
[ 8008 7997 7996 7995 ] final   13.40 input   59.86 | X-H torsion
[ 10167 10162 10161 10158 ] final  -52.03 input  -65.29 | X-H torsion
[ 10718 10713 10712 10709 ] final  -14.34 input   66.30 | X-H torsion
[ 10763 10752 10751 10750 ] final -150.03 input  -60.55 | X-H torsion
[ 11005 11000 10999 10996 ] final  138.09 input  -57.11 | X-H torsion

> <Gold.Protein.ActiveResidues>
 VAL166  LYS551  ARG553  GLY616  TRP617  ASP618  TYR619  PRO620  LYS621  CYS622 
 ASP623  PHE694  ASN695  SER759  ASP760  ASP761  ALA762  ILE779  LEU786  VAL792 
 PHE793  MET794  SER795  GLU796  ALA797  LYS798  CYS799  TRP800  GLU811  SER814 

> <Gold.Protein.RotatedAtoms>
  152.3758  133.6479  159.6121 H   0  0  0  0  0  0  0  0  0  0  0  0  # atno 6907 bound_to 6896
  150.7702  133.9196  159.3403 H   0  0  0  0  0  0  0  0  0  0  0  0  # atno 6908 bound_to 6896
  151.7011  135.0931  160.0302 H   0  0  0  0  0  0  0  0  0  0  0  0  # atno 6909 bound_to 6896
  146.2419  139.9972  142.8419 H   0  0  0  0  0  0  0  0  0  0  0  0  # atno 7974 bound_to 7965
  154.8339  140.2904  155.5704 H   0  0  0  0  0  0  0  0  0  0  0  0  # atno 8008 bound_to 7997
  156.3007  140.2527  156.3201 H   0  0  0  0  0  0  0  0  0  0  0  0  # atno 8009 bound_to 7997
  154.9200  140.0386  157.1982 H   0  0  0  0  0  0  0  0  0  0  0  0  # atno 8010 bound_to 7997
  140.6558  143.2598  151.4589 H   0  0  0  0  0  0  0  0  0  0  0  0  # atno 10167 bound_to 10162
  156.6173  130.4866  149.6178 H   0  0  0  0  0  0  0  0  0  0  0  0  # atno 10718 bound_to 10713
  154.8143  135.3294  154.7220 H   0  0  0  0  0  0  0  0  0  0  0  0  # atno 10763 bound_to 10752
  153.7864  135.6914  153.4883 H   0  0  0  0  0  0  0  0  0  0  0  0  # atno 10764 bound_to 10752
  153.1946  135.4538  155.0139 H   0  0  0  0  0  0  0  0  0  0  0  0  # atno 10765 bound_to 10752
  140.0159  134.9418  157.0375 H   0  0  0  0  0  0  0  0  0  0  0  0  # atno 11005 bound_to 11000
  145.1449  140.9591  143.4467 LP  0  0  0  0  0  0  0  0  0  0  0  0  # atno 17320 bound_to 7965
  145.0261  139.3382  143.6048 LP  0  0  0  0  0  0  0  0  0  0  0  0  # atno 17321 bound_to 7965
  139.5781  144.1773  152.1931 LP  0  0  0  0  0  0  0  0  0  0  0  0  # atno 17342 bound_to 10162
  140.1090  144.5474  150.6938 LP  0  0  0  0  0  0  0  0  0  0  0  0  # atno 17343 bound_to 10162
  156.2340  130.6811  151.1491 LP  0  0  0  0  0  0  0  0  0  0  0  0  # atno 17370 bound_to 10713
  157.7237  131.0664  150.6024 LP  0  0  0  0  0  0  0  0  0  0  0  0  # atno 17371 bound_to 10713
  140.4472  134.1620  155.7178 LP  0  0  0  0  0  0  0  0  0  0  0  0  # atno 17394 bound_to 11000
  141.1742  133.8547  157.1474 LP  0  0  0  0  0  0  0  0  0  0  0  0  # atno 17395 bound_to 11000

$$$$
