AV-unprocessed.smi:419|AV-procd|sdf|2531|dock10
  -GOLD-   2262022493D 1   1.00000     0.00000
 Structure written by MMmdl.
 44 46  0  0  0  0  0  0  0  0  1 V2000
  142.6050  144.5343  155.4702 C   0  0  0  0  0  0  0  0  0  0  0  0
  143.4232  143.8584  154.5264 O   0  0  0  0  0  0  0  0  0  0  0  0
  144.5156  143.1616  154.9967 C   0  0  0  0  0  0  0  0  0  0  0  0
  144.7809  142.9247  156.3678 C   0  0  0  0  0  0  0  0  0  0  0  0
  145.9256  142.2028  156.7576 C   0  0  0  0  0  0  0  0  0  0  0  0
  146.8280  141.7010  155.7992 C   0  0  0  0  0  0  0  0  0  0  0  0
  147.9223  141.0074  156.2701 O   0  0  0  0  0  0  0  0  0  0  0  0
  148.8595  140.5070  155.3254 C   0  0  0  0  0  0  0  0  0  0  0  0
  150.2598  140.5024  155.9616 C   0  0  1  0  0  0  0  0  0  0  0  0
  151.1519  139.9537  155.0113 O   0  0  0  0  0  0  0  0  0  0  0  0
  150.7426  141.9306  156.2891 C   0  0  0  0  0  0  0  0  0  0  0  0
  151.4252  141.9908  157.5809 N   0  0  0  0  0  0  0  0  0  0  0  0
  152.2839  141.0711  158.0819 C   0  0  0  0  0  0  0  0  0  0  0  0
  152.6337  140.0315  157.5231 O   0  0  0  0  0  0  0  0  0  0  0  0
  152.6915  141.4975  159.3000 N   0  0  0  0  0  0  0  0  0  0  0  0
  153.6191  140.8231  160.1998 C   0  0  0  0  0  0  0  0  0  0  0  0
  152.0884  142.7301  159.5810 C   0  0  0  0  0  0  0  0  0  0  0  0
  152.1966  143.5767  160.6975 C   0  0  0  0  0  0  0  0  0  0  0  0
  151.4475  144.7764  160.6733 C   0  0  0  0  0  0  0  0  0  0  0  0
  150.6267  145.0984  159.5612 C   0  0  0  0  0  0  0  0  0  0  0  0
  150.5373  144.2277  158.4498 C   0  0  0  0  0  0  0  0  0  0  0  0
  151.2906  143.0416  158.5001 C   0  0  0  0  0  0  0  0  0  0  0  0
  146.5619  141.9369  154.4282 C   0  0  0  0  0  0  0  0  0  0  0  0
  145.4179  142.6596  154.0384 C   0  0  0  0  0  0  0  0  0  0  0  0
  141.7924  145.0378  154.9466 H   0  0  0  0  0  0  0  0  0  0  0  0
  143.1677  145.2947  156.0135 H   0  0  0  0  0  0  0  0  0  0  0  0
  142.1581  143.8377  156.1807 H   0  0  0  0  0  0  0  0  0  0  0  0
  144.1215  143.2868  157.1417 H   0  0  0  0  0  0  0  0  0  0  0  0
  146.1133  142.0319  157.8075 H   0  0  0  0  0  0  0  0  0  0  0  0
  148.5867  139.5089  154.9767 H   0  0  0  0  0  0  0  0  0  0  0  0
  148.8590  141.1739  154.4617 H   0  0  0  0  0  0  0  0  0  0  0  0
  150.2486  139.8896  156.8641 H   0  0  0  0  0  0  0  0  0  0  0  0
  150.7430  139.1996  154.6155 H   0  0  0  0  0  0  0  0  0  0  0  0
  151.3744  142.3276  155.4937 H   0  0  0  0  0  0  0  0  0  0  0  0
  149.8862  142.6047  156.3420 H   0  0  0  0  0  0  0  0  0  0  0  0
  153.2213  140.8085  161.2148 H   0  0  0  0  0  0  0  0  0  0  0  0
  154.5751  141.3467  160.2141 H   0  0  0  0  0  0  0  0  0  0  0  0
  153.8009  139.7901  159.8997 H   0  0  0  0  0  0  0  0  0  0  0  0
  152.8249  143.3251  161.5392 H   0  0  0  0  0  0  0  0  0  0  0  0
  151.5024  145.4562  161.5108 H   0  0  0  0  0  0  0  0  0  0  0  0
  150.0643  146.0206  159.5621 H   0  0  0  0  0  0  0  0  0  0  0  0
  149.9174  144.4707  157.5998 H   0  0  0  0  0  0  0  0  0  0  0  0
  147.2203  141.5759  153.6530 H   0  0  0  0  0  0  0  0  0  0  0  0
  145.2321  142.8317  152.9884 H   0  0  0  0  0  0  0  0  0  0  0  0
  1  2  1  0  0  0  0
  1 25  1  0  0  0  0
  1 26  1  0  0  0  0
  1 27  1  0  0  0  0
  2  3  1  0  0  0  0
  3 24  1  0  0  0  0
  3  4  2  0  0  0  0
  4  5  1  0  0  0  0
  4 28  1  0  0  0  0
  5  6  2  0  0  0  0
  5 29  1  0  0  0  0
  6  7  1  0  0  0  0
  6 23  1  0  0  0  0
  7  8  1  0  0  0  0
  8  9  1  0  0  0  0
  8 30  1  0  0  0  0
  8 31  1  0  0  0  0
  9 10  1  0  0  0  0
  9 11  1  0  0  0  0
  9 32  1  0  0  0  0
 10 33  1  0  0  0  0
 11 12  1  0  0  0  0
 11 34  1  0  0  0  0
 11 35  1  0  0  0  0
 12 22  1  0  0  0  0
 12 13  1  0  0  0  0
 13 14  2  0  0  0  0
 13 15  1  0  0  0  0
 15 16  1  0  0  0  0
 15 17  1  0  0  0  0
 16 36  1  0  0  0  0
 16 37  1  0  0  0  0
 16 38  1  0  0  0  0
 17 22  2  0  0  0  0
 17 18  1  0  0  0  0
 18 19  2  0  0  0  0
 18 39  1  0  0  0  0
 19 20  1  0  0  0  0
 19 40  1  0  0  0  0
 20 21  2  0  0  0  0
 20 41  1  0  0  0  0
 21 22  1  0  0  0  0
 21 42  1  0  0  0  0
 23 24  2  0  0  0  0
 23 43  1  0  0  0  0
 24 44  1  0  0  0  0
M  END
> <s_m_source_file>
AV-unprocessed.smi

> <i_m_source_file_index>
419

> <i_lp_mmshare_version>
43012

> <i_f3d_flags>
0

> <s_epik_input>
W0NIM11PYzFbY0hdW2NIXWMoW2NIXVtjSF0xKU9bQ0gyXVtDQEhdKFtPSF0pW0NIMl1uKGMoPU8pbjJbQ0gzXSljKGMyMylbY0hdW2NIXVtjSF1bY0hdMw==

> <s_epik_cmdline>
J2VwaWtfcHl0aG9uJywgJy1waCcsICc3LjAnLCAnLXRuJywgJzgnLCAnLW1hJywgJzIwMCcsICctbWV0YWxfYmluZGluZycsICctaW1hZScsICc8aW5maWxlLm1hZT4nLCAnLW9tYWUnLCAnPG91dGZpbGUubWFlPic=

> <r_lp_tautomer_probability>
1

> <r_epik_Ionization_Penalty>
2.40131e-06

> <r_epik_Ionization_Penalty_Charging>
2.01037e-09

> <r_epik_Ionization_Penalty_Neutral>
2.3993e-06

> <r_epik_State_Penalty>
-0

> <r_epik_Charging_Adjusted_Penalty>
2.01037e-09

> <i_epik_Tot_Q>
0

> <i_epik_Tot_abs_Q>
0

> <r_epik_Metal_State_Penalty>
-0

> <b_epik_Metal_Only>
0

> <s_lp_Force_Field>
OPLS_2005

> <r_lp_Energy>
50.9462

> <b_lp_Chiralities_Consistent>
1

> <s_lp_Variant>
AV-unprocessed.smi:419-2

> <Gold.Version>
5.8.1

> <Gold.Id.Protein>
6NUR|6NUR_protein|mol2

> <Gold.PLP.Fitness>
56.3468

> <Gold.PLP.PLP>
-52.5777

> <Gold.PLP.part.hbond>
-2.0000

> <Gold.PLP.part.metal>
0.0000

> <Gold.PLP.part.buried>
-8.2635

> <Gold.PLP.part.nonpolar>
-42.1784

> <Gold.PLP.part.repulsive>
0.2171

> <Gold.PLP.ligand.clash>
0.0000

> <Gold.PLP.ligand.torsion>
1.1660

> <Gold.PLP.Chemscore.Hbond>
2.0000

> <Gold.PLP.Chemscore.CHOScore>
0.0000

> <Gold.PLP.Chemscore.Metal>
0.0000

> <Gold.Chemscore.Hbonds>
donor molecule, donor type, donor heavy atom, donor atom, acceptor molecule, acceptor atom, score
      P1  H  7989  7998       L1    10  1.00
      P1  H  7997  8010       L1    14  1.00

> <Gold.PLP.Chemscore.Internal.Correction>
0.1011

> <Gold.Rescore>
     Score         DG    S(hbond)    S(metal)    S(lipo)     H(rot)  DE(clash)    DE(int)     intcor
     15.99     -19.23       1.48        0.00     127.64       2.40       0.63       2.61       ----

> <Gold.Chemscore.Fitness>
15.9897

> <Gold.Chemscore.DG>
-19.2294

> <Gold.Chemscore.ZeroCoef>
-5.4800

> <Gold.Chemscore.Hbond>
1.4811

> <Gold.Chemscore.Metal>
0.0000

> <Gold.Chemscore.Lipo>
127.6411

> <Gold.Chemscore.Internal_Hbond>
0.0000

> <Gold.Chemscore.DEClash>
0.6262

> <Gold.Chemscore.DEInternal>
2.6135

> <Gold.Chemscore.Rot>
2.3952

> <Gold.Chemscore.Internal.Correction>
   9.000000E+99

> <Gold.Chemscore.Hbonds>
donor molecule, donor type, donor heavy atom, donor atom, acceptor molecule, acceptor atom, score
      P1  H  7989  7998       L1    10  0.25
      P1  H  7997  8010       L1    14  0.89

> <Gold.Chemscore.Hbond.Weighted>
-4.9470

> <Gold.Chemscore.Metal.Weighted>
-0.0000

> <Gold.Chemscore.Lipo.Weighted>
-14.9340

> <Gold.Chemscore.Internal_Hbond.Weighted>
0.0000

> <Gold.Chemscore.DEClash.Weighted>
0.6262

> <Gold.Chemscore.DEInternal.Weighted>
2.6135

> <Gold.Chemscore.Rot.Weighted>
6.1316

> <Gold.Chemscore.Internal.Correction.Weighted>
   9.000000E+99

> <Gold.Protein.RotatedTorsions>
[ 6907 6896 6895 6894 ] final -173.35 input  -60.11 | X-H torsion
[ 7974 7965 7964 7962 ] final  -22.71 input  175.53 | X-H torsion
[ 8008 7997 7996 7995 ] final   52.30 input   59.86 | X-H torsion
[ 10167 10162 10161 10158 ] final   36.61 input  -65.29 | X-H torsion
[ 10718 10713 10712 10709 ] final   -6.62 input   66.30 | X-H torsion
[ 10763 10752 10751 10750 ] final -171.52 input  -60.55 | X-H torsion
[ 11005 11000 10999 10996 ] final   29.83 input  -57.11 | X-H torsion

> <Gold.Protein.ActiveResidues>
 VAL166  LYS551  ARG553  GLY616  TRP617  ASP618  TYR619  PRO620  LYS621  CYS622 
 ASP623  PHE694  ASN695  SER759  ASP760  ASP761  ALA762  ILE779  LEU786  VAL792 
 PHE793  MET794  SER795  GLU796  ALA797  LYS798  CYS799  TRP800  GLU811  SER814 

> <Gold.Protein.RotatedAtoms>
  151.5547  133.3412  159.2959 H   0  0  0  0  0  0  0  0  0  0  0  0  # atno 6907 bound_to 6896
  150.8457  134.7768  159.6980 H   0  0  0  0  0  0  0  0  0  0  0  0  # atno 6908 bound_to 6896
  152.4515  134.5390  159.9885 H   0  0  0  0  0  0  0  0  0  0  0  0  # atno 6909 bound_to 6896
  146.1660  140.4516  142.8552 H   0  0  0  0  0  0  0  0  0  0  0  0  # atno 7974 bound_to 7965
  155.4496  140.3457  155.4299 H   0  0  0  0  0  0  0  0  0  0  0  0  # atno 8008 bound_to 7997
  156.1228  140.1492  156.9209 H   0  0  0  0  0  0  0  0  0  0  0  0  # atno 8009 bound_to 7997
  154.4836  140.0862  156.7414 H   0  0  0  0  0  0  0  0  0  0  0  0  # atno 8010 bound_to 7997
  140.4111  144.1591  150.6139 H   0  0  0  0  0  0  0  0  0  0  0  0  # atno 10167 bound_to 10162
  156.7292  130.5175  149.5849 H   0  0  0  0  0  0  0  0  0  0  0  0  # atno 10718 bound_to 10713
  154.6296  135.2885  155.0232 H   0  0  0  0  0  0  0  0  0  0  0  0  # atno 10763 bound_to 10752
  154.1397  135.6520  153.4943 H   0  0  0  0  0  0  0  0  0  0  0  0  # atno 10764 bound_to 10752
  153.0273  135.5330  154.7118 H   0  0  0  0  0  0  0  0  0  0  0  0  # atno 10765 bound_to 10752
  140.3007  134.2759  155.7754 H   0  0  0  0  0  0  0  0  0  0  0  0  # atno 11005 bound_to 11000
  144.8093  140.6356  143.6426 LP  0  0  0  0  0  0  0  0  0  0  0  0  # atno 17320 bound_to 7965
  145.4467  139.1528  143.3941 LP  0  0  0  0  0  0  0  0  0  0  0  0  # atno 17321 bound_to 7965
  140.4637  143.2439  151.9185 LP  0  0  0  0  0  0  0  0  0  0  0  0  # atno 17342 bound_to 10162
  139.4782  144.5441  151.8484 LP  0  0  0  0  0  0  0  0  0  0  0  0  # atno 17343 bound_to 10162
  156.1540  130.6329  151.0633 LP  0  0  0  0  0  0  0  0  0  0  0  0  # atno 17370 bound_to 10713
  157.6866  131.0823  150.7226 LP  0  0  0  0  0  0  0  0  0  0  0  0  # atno 17371 bound_to 10713
  141.2128  133.7644  156.9763 LP  0  0  0  0  0  0  0  0  0  0  0  0  # atno 17394 bound_to 11000
  140.1111  134.9476  157.2067 LP  0  0  0  0  0  0  0  0  0  0  0  0  # atno 17395 bound_to 11000

$$$$
