AV-unprocessed.smi:1376|AV-procd|sdf|5590|dock2
  -GOLD-   22720 5193D 1   1.00000     0.00000
 Structure written by MMmdl.
 42 43  0  0  0  0  0  0  0  0  1 V2000
  151.2855  140.7276  157.7995 O   0  0  0  0  0  0  0  0  0  0  0  0
  151.0682  141.8795  157.4211 C   0  0  0  0  0  0  0  0  0  0  0  0
  151.8998  143.0532  157.9577 C   0  0  0  0  0  0  0  0  0  0  0  0
  152.4225  142.8233  159.3150 N   0  0  0  0  0  0  0  0  0  0  0  0
  152.0203  143.7262  160.3196 C   0  0  0  0  0  0  0  0  0  0  0  0
  152.4373  143.6070  161.5899 C   0  0  0  0  0  0  0  0  0  0  0  0
  153.3230  142.5152  161.9178 C   0  0  0  0  0  0  0  0  0  0  0  0
  153.7178  141.6486  160.9638 C   0  0  0  0  0  0  0  0  0  0  0  0
  153.2679  141.7778  159.5728 C   0  0  0  0  0  0  0  0  0  0  0  0
  153.6277  140.9938  158.6939 O   0  0  0  0  0  0  0  0  0  0  0  0
  150.1286  142.1914  156.5155 N   0  0  0  0  0  0  0  0  0  0  0  0
  149.2304  141.2403  155.8672 C   0  0  2  0  0  0  0  0  0  0  0  0
  150.0342  140.2027  155.0579 C   0  0  0  0  0  0  0  0  0  0  0  0
  149.1052  139.2398  154.3031 C   0  0  0  0  0  0  0  0  0  0  0  0
  148.1199  140.0019  153.4011 C   0  0  0  0  0  0  0  0  0  0  0  0
  147.3062  141.0417  154.1922 C   0  0  1  0  0  0  0  0  0  0  0  0
  146.4443  140.3338  155.0766 O   0  0  0  0  0  0  0  0  0  0  0  0
  145.5091  141.1429  155.7766 C   0  0  0  0  0  0  0  0  0  0  0  0
  144.5927  140.2440  156.6156 C   0  0  0  0  0  0  0  0  0  0  0  0
  145.3187  139.6146  157.5387 F   0  0  0  0  0  0  0  0  0  0  0  0
  143.6640  140.9771  157.2290 F   0  0  0  0  0  0  0  0  0  0  0  0
  144.0046  139.3338  155.8397 F   0  0  0  0  0  0  0  0  0  0  0  0
  148.2461  141.9993  154.9567 C   0  0  0  0  0  0  0  0  0  0  0  0
  152.7182  143.2347  157.2598 H   0  0  0  0  0  0  0  0  0  0  0  0
  151.3001  143.9652  157.9362 H   0  0  0  0  0  0  0  0  0  0  0  0
  151.3638  144.5186  159.9901 H   0  0  0  0  0  0  0  0  0  0  0  0
  152.1221  144.3112  162.3456 H   0  0  0  0  0  0  0  0  0  0  0  0
  153.6716  142.3931  162.9327 H   0  0  0  0  0  0  0  0  0  0  0  0
  154.3812  140.8381  161.2273 H   0  0  0  0  0  0  0  0  0  0  0  0
  150.0249  143.1622  156.2578 H   0  0  0  0  0  0  0  0  0  0  0  0
  148.6508  140.7201  156.6328 H   0  0  0  0  0  0  0  0  0  0  0  0
  150.6826  140.7125  154.3436 H   0  0  0  0  0  0  0  0  0  0  0  0
  150.6899  139.6340  155.7185 H   0  0  0  0  0  0  0  0  0  0  0  0
  149.6964  138.5468  153.7041 H   0  0  0  0  0  0  0  0  0  0  0  0
  148.5517  138.6319  155.0201 H   0  0  0  0  0  0  0  0  0  0  0  0
  148.6747  140.5047  152.6078 H   0  0  0  0  0  0  0  0  0  0  0  0
  147.4477  139.2997  152.9067 H   0  0  0  0  0  0  0  0  0  0  0  0
  146.7043  141.6105  153.4817 H   0  0  0  0  0  0  0  0  0  0  0  0
  146.0206  141.8515  156.4277 H   0  0  0  0  0  0  0  0  0  0  0  0
  144.9110  141.7201  155.0700 H   0  0  0  0  0  0  0  0  0  0  0  0
  147.6745  142.7202  155.5405 H   0  0  0  0  0  0  0  0  0  0  0  0
  148.8100  142.5874  154.2311 H   0  0  0  0  0  0  0  0  0  0  0  0
  1  2  2  0  0  0  0
  2  3  1  0  0  0  0
  2 11  1  0  0  0  0
  3  4  1  0  0  0  0
  3 24  1  0  0  0  0
  3 25  1  0  0  0  0
  4  9  1  0  0  0  0
  4  5  1  0  0  0  0
  5  6  2  0  0  0  0
  5 26  1  0  0  0  0
  6  7  1  0  0  0  0
  6 27  1  0  0  0  0
  7  8  2  0  0  0  0
  7 28  1  0  0  0  0
  8  9  1  0  0  0  0
  8 29  1  0  0  0  0
  9 10  2  0  0  0  0
 11 12  1  0  0  0  0
 11 30  1  0  0  0  0
 12 23  1  0  0  0  0
 12 13  1  0  0  0  0
 12 31  1  0  0  0  0
 13 14  1  0  0  0  0
 13 32  1  0  0  0  0
 13 33  1  0  0  0  0
 14 15  1  0  0  0  0
 14 34  1  0  0  0  0
 14 35  1  0  0  0  0
 15 16  1  0  0  0  0
 15 36  1  0  0  0  0
 15 37  1  0  0  0  0
 16 17  1  0  0  0  0
 16 23  1  0  0  0  0
 16 38  1  0  0  0  0
 17 18  1  0  0  0  0
 18 19  1  0  0  0  0
 18 39  1  0  0  0  0
 18 40  1  0  0  0  0
 19 20  1  0  0  0  0
 19 21  1  0  0  0  0
 19 22  1  0  0  0  0
 23 41  1  0  0  0  0
 23 42  1  0  0  0  0
M  END
> <s_m_source_file>
AV-unprocessed.smi

> <i_m_source_file_index>
1376

> <i_lp_mmshare_version>
43012

> <i_f3d_flags>
0

> <s_epik_input>
Tz1jMVtjSF1bY0hdW2NIXVtjSF1uMVtDSDJdQyg9TylbTkhdW0NAQEhdMltDSDJdW0NIMl1bQ0gyXVtDQEhdKFtDSDJdMilPW0NIMl1DKEYpKEYpRg==

> <s_epik_cmdline>
J2VwaWtfcHl0aG9uJywgJy1waCcsICc3LjAnLCAnLXRuJywgJzgnLCAnLW1hJywgJzIwMCcsICctbWV0YWxfYmluZGluZycsICctaW1hZScsICc8aW5maWxlLm1hZT4nLCAnLW9tYWUnLCAnPG91dGZpbGUubWFlPic=

> <r_lp_tautomer_probability>
1

> <r_epik_Ionization_Penalty>
4.08567e-07

> <r_epik_Ionization_Penalty_Charging>
3.90028e-07

> <r_epik_Ionization_Penalty_Neutral>
1.85393e-08

> <r_epik_State_Penalty>
-0

> <r_epik_Charging_Adjusted_Penalty>
3.90028e-07

> <i_epik_Tot_Q>
0

> <i_epik_Tot_abs_Q>
0

> <r_epik_Metal_State_Penalty>
-0

> <b_epik_Metal_Only>
0

> <s_lp_Force_Field>
OPLS_2005

> <r_lp_Energy>
21.1399

> <b_lp_Chiralities_Consistent>
1

> <s_lp_Variant>
AV-unprocessed.smi:1376-1

> <Gold.Version>
5.8.1

> <Gold.Id.Protein>
6NUR|6NUR_protein|mol2

> <Gold.PLP.Fitness>
42.5924

> <Gold.PLP.PLP>
-40.0591

> <Gold.PLP.part.hbond>
-1.9445

> <Gold.PLP.part.metal>
0.0000

> <Gold.PLP.part.buried>
2.8097

> <Gold.PLP.part.nonpolar>
-40.5434

> <Gold.PLP.part.repulsive>
0.1358

> <Gold.PLP.ligand.clash>
0.0000

> <Gold.PLP.ligand.torsion>
0.4096

> <Gold.PLP.Chemscore.Hbond>
1.0987

> <Gold.PLP.Chemscore.CHOScore>
0.0000

> <Gold.PLP.Chemscore.Metal>
0.0000

> <Gold.Chemscore.Hbonds>
donor molecule, donor type, donor heavy atom, donor atom, acceptor molecule, acceptor atom, score
      L1  H    11    30       P1  8028  1.00
      P1  H  7997  8009       L1    10  0.42

> <Gold.PLP.Chemscore.Internal.Correction>
0.0564

> <Gold.Rescore>
     Score         DG    S(hbond)    S(metal)    S(lipo)     H(rot)  DE(clash)    DE(int)     intcor
     11.20     -15.90       1.64        0.00      89.79       2.18       1.65       3.05       ----

> <Gold.Chemscore.Fitness>
11.1971

> <Gold.Chemscore.DG>
-15.8998

> <Gold.Chemscore.ZeroCoef>
-5.4800

> <Gold.Chemscore.Hbond>
1.6450

> <Gold.Chemscore.Metal>
0.0000

> <Gold.Chemscore.Lipo>
89.7930

> <Gold.Chemscore.Internal_Hbond>
0.0000

> <Gold.Chemscore.DEClash>
1.6535

> <Gold.Chemscore.DEInternal>
3.0492

> <Gold.Chemscore.Rot>
2.1797

> <Gold.Chemscore.Internal.Correction>
   9.000000E+99

> <Gold.Chemscore.Hbonds>
donor molecule, donor type, donor heavy atom, donor atom, acceptor molecule, acceptor atom, score
      L1  H    11    30       P1  8028  0.91
      P1  H  7997  8009       L1    10  0.42

> <Gold.Chemscore.Hbond.Weighted>
-5.4942

> <Gold.Chemscore.Metal.Weighted>
-0.0000

> <Gold.Chemscore.Lipo.Weighted>
-10.5058

> <Gold.Chemscore.Internal_Hbond.Weighted>
0.0000

> <Gold.Chemscore.DEClash.Weighted>
1.6535

> <Gold.Chemscore.DEInternal.Weighted>
3.0492

> <Gold.Chemscore.Rot.Weighted>
5.5802

> <Gold.Chemscore.Internal.Correction.Weighted>
   9.000000E+99

> <Gold.Protein.RotatedTorsions>
[ 6907 6896 6895 6894 ] final   84.19 input  -60.11 | X-H torsion
[ 7974 7965 7964 7962 ] final  -77.36 input  175.53 | X-H torsion
[ 8008 7997 7996 7995 ] final  144.04 input   59.86 | X-H torsion
[ 10167 10162 10161 10158 ] final  -62.04 input  -65.29 | X-H torsion
[ 10718 10713 10712 10709 ] final -141.59 input   66.30 | X-H torsion
[ 10763 10752 10751 10750 ] final -172.00 input  -60.55 | X-H torsion
[ 11005 11000 10999 10996 ] final -114.56 input  -57.11 | X-H torsion

> <Gold.Protein.ActiveResidues>
 VAL166  LYS551  ARG553  GLY616  TRP617  ASP618  TYR619  PRO620  LYS621  CYS622 
 ASP623  PHE694  ASN695  SER759  ASP760  ASP761  ALA762  ILE779  LEU786  VAL792 
 PHE793  MET794  SER795  GLU796  ALA797  LYS798  CYS799  TRP800  GLU811  SER814 

> <Gold.Protein.RotatedAtoms>
  152.5346  134.2779  159.8996 H   0  0  0  0  0  0  0  0  0  0  0  0  # atno 6907 bound_to 6896
  151.2734  133.4237  159.2630 H   0  0  0  0  0  0  0  0  0  0  0  0  # atno 6908 bound_to 6896
  151.0347  134.9579  159.8186 H   0  0  0  0  0  0  0  0  0  0  0  0  # atno 6909 bound_to 6896
  145.6008  140.9409  143.1242 H   0  0  0  0  0  0  0  0  0  0  0  0  # atno 7974 bound_to 7965
  156.2917  140.2246  156.4988 H   0  0  0  0  0  0  0  0  0  0  0  0  # atno 8008 bound_to 7997
  154.7708  140.0467  157.1071 H   0  0  0  0  0  0  0  0  0  0  0  0  # atno 8009 bound_to 7997
  154.9877  140.3086  155.4923 H   0  0  0  0  0  0  0  0  0  0  0  0  # atno 8010 bound_to 7997
  140.5966  143.2352  151.6022 H   0  0  0  0  0  0  0  0  0  0  0  0  # atno 10167 bound_to 10162
  156.3358  130.7611  151.1737 H   0  0  0  0  0  0  0  0  0  0  0  0  # atno 10718 bound_to 10713
  154.6242  135.2879  155.0291 H   0  0  0  0  0  0  0  0  0  0  0  0  # atno 10763 bound_to 10752
  154.1475  135.6509  153.4960 H   0  0  0  0  0  0  0  0  0  0  0  0  # atno 10764 bound_to 10752
  153.0250  135.5347  154.7044 H   0  0  0  0  0  0  0  0  0  0  0  0  # atno 10765 bound_to 10752
  141.0544  133.9636  157.2780 H   0  0  0  0  0  0  0  0  0  0  0  0  # atno 11005 bound_to 11000
  144.7311  139.7724  143.7347 LP  0  0  0  0  0  0  0  0  0  0  0  0  # atno 17320 bound_to 7965
  146.1578  139.4682  143.0008 LP  0  0  0  0  0  0  0  0  0  0  0  0  # atno 17321 bound_to 7965
  139.5262  144.3052  152.1040 LP  0  0  0  0  0  0  0  0  0  0  0  0  # atno 17342 bound_to 10162
  140.2225  144.4452  150.6335 LP  0  0  0  0  0  0  0  0  0  0  0  0  # atno 17343 bound_to 10162
  157.7438  131.0468  150.4914 LP  0  0  0  0  0  0  0  0  0  0  0  0  # atno 17370 bound_to 10713
  156.5086  130.4134  149.6313 LP  0  0  0  0  0  0  0  0  0  0  0  0  # atno 17371 bound_to 10713
  139.9377  135.0194  156.8610 LP  0  0  0  0  0  0  0  0  0  0  0  0  # atno 17394 bound_to 11000
  140.5993  134.0187  155.7530 LP  0  0  0  0  0  0  0  0  0  0  0  0  # atno 17395 bound_to 11000

$$$$
