AV-unprocessed.smi:3111|AV-procd|sdf|11834|dock3
  -GOLD-   2272017203D 1   1.00000     0.00000
 Structure written by MMmdl.
 30 30  0  0  0  0  0  0  0  0  2 V2000
  150.8567  136.2648  155.1791 C   0  0  0  0  0  0  0  0  0  0  0  0
  150.0202  135.2491  154.5587 N   0  0  0  0  0  0  0  0  0  0  0  0
  149.9281  133.9829  154.9881 C   0  0  0  0  0  0  0  0  0  0  0  0
  150.5432  133.5578  155.9673 O   0  0  0  0  0  0  0  0  0  0  0  0
  148.9803  133.0698  154.2000 C   0  0  0  0  0  0  0  0  0  0  0  0
  148.2377  133.7829  153.1632 N   0  0  0  0  0  0  0  0  0  0  0  0
  147.0814  133.3702  152.6193 C   0  0  0  0  0  0  0  0  0  0  0  0
  146.5346  132.3099  152.9247 O   0  0  0  0  0  0  0  0  0  0  0  0
  146.4535  134.2939  151.5644 C   0  0  2  0  0  0  0  0  0  0  0  0
  145.9621  135.6257  152.1632 C   0  0  0  0  0  0  0  0  0  0  0  0
  145.3832  133.5969  150.8320 N   0  0  0  0  0  0  0  0  0  0  0  0
  145.4811  132.3935  150.1796 C   0  0  0  0  0  0  0  0  0  0  0  0
  144.2433  132.1290  149.6524 C   0  0  0  0  0  0  0  0  0  0  0  0
  143.4389  133.1783  150.0066 N   0  3  0  0  0  0  0  0  0  0  0  0
  144.1314  134.0685  150.7242 C   0  0  0  0  0  0  0  0  0  0  0  0
  150.7986  137.1933  154.6106 H   0  0  0  0  0  0  0  0  0  0  0  0
  151.9001  135.9476  155.2072 H   0  0  0  0  0  0  0  0  0  0  0  0
  150.5263  136.4677  156.1987 H   0  0  0  0  0  0  0  0  0  0  0  0
  149.4804  135.5249  153.7510 H   0  0  0  0  0  0  0  0  0  0  0  0
  149.5715  132.2886  153.7221 H   0  0  0  0  0  0  0  0  0  0  0  0
  148.2897  132.5682  154.8804 H   0  0  0  0  0  0  0  0  0  0  0  0
  148.6175  134.6684  152.8615 H   0  0  0  0  0  0  0  0  0  0  0  0
  147.2276  134.5335  150.8330 H   0  0  0  0  0  0  0  0  0  0  0  0
  146.7720  136.1491  152.6729 H   0  0  0  0  0  0  0  0  0  0  0  0
  145.1581  135.4799  152.8855 H   0  0  0  0  0  0  0  0  0  0  0  0
  145.5874  136.2880  151.3822 H   0  0  0  0  0  0  0  0  0  0  0  0
  146.4010  131.8283  150.1386 H   0  0  0  0  0  0  0  0  0  0  0  0
  143.8841  131.2940  149.0685 H   0  0  0  0  0  0  0  0  0  0  0  0
  143.7529  134.9867  151.1379 H   0  0  0  0  0  0  0  0  0  0  0  0
  142.4603  133.2695  149.7638 H   0  0  0  0  0  0  0  0  0  0  0  0
  1  2  1  0  0  0  0
  1 16  1  0  0  0  0
  1 17  1  0  0  0  0
  1 18  1  0  0  0  0
  2  3  1  0  0  0  0
  2 19  1  0  0  0  0
  3  4  2  0  0  0  0
  3  5  1  0  0  0  0
  5  6  1  0  0  0  0
  5 20  1  0  0  0  0
  5 21  1  0  0  0  0
  6  7  1  0  0  0  0
  6 22  1  0  0  0  0
  7  8  2  0  0  0  0
  7  9  1  0  0  0  0
  9 10  1  0  0  0  0
  9 11  1  0  0  0  0
  9 23  1  0  0  0  0
 10 24  1  0  0  0  0
 10 25  1  0  0  0  0
 10 26  1  0  0  0  0
 11 15  1  0  0  0  0
 11 12  1  0  0  0  0
 12 13  2  0  0  0  0
 12 27  1  0  0  0  0
 13 14  1  0  0  0  0
 13 28  1  0  0  0  0
 14 15  2  0  0  0  0
 14 30  1  0  0  0  0
 15 29  1  0  0  0  0
M  CHG  1  14   1
M  END
> <s_m_source_file>
AV-unprocessed.smi

> <i_m_source_file_index>
3111

> <i_lp_mmshare_version>
43012

> <i_f3d_flags>
0

> <s_epik_input>
W0NIM11bTkhdQyg9TylbQ0gyXVtOSF1DKD1PKVtDQEhdKFtDSDNdKW4xW2NIXVtjSF1uW2NIXTE=

> <s_epik_cmdline>
J2VwaWtfcHl0aG9uJywgJy1waCcsICc3LjAnLCAnLXRuJywgJzgnLCAnLW1hJywgJzIwMCcsICctbWV0YWxfYmluZGluZycsICctaW1hZScsICc8aW5maWxlLm1hZT4nLCAnLW9tYWUnLCAnPG91dGZpbGUubWFlPic=

> <r_lp_tautomer_probability>
1

> <r_epik_Ionization_Penalty>
0.581414

> <r_epik_Ionization_Penalty_Charging>
0

> <r_epik_Ionization_Penalty_Neutral>
0.581414

> <r_epik_State_Penalty>
0.594207

> <r_epik_Charging_Adjusted_Penalty>
0.594207

> <i_epik_Tot_Q>
1

> <i_epik_Tot_abs_Q>
1

> <r_epik_Metal_State_Penalty>
0.784638

> <b_epik_Metal_Only>
0

> <s_lp_Force_Field>
OPLS_2005

> <r_lp_Energy>
6.41512

> <b_lp_Chiralities_Consistent>
1

> <s_lp_Variant>
AV-unprocessed.smi:3111-3

> <Gold.Version>
5.8.1

> <Gold.Id.Protein>
6NUR|6NUR_protein|mol2

> <Gold.PLP.Fitness>
38.6654

> <Gold.PLP.PLP>
-26.1322

> <Gold.PLP.part.hbond>
-3.0000

> <Gold.PLP.part.metal>
0.0000

> <Gold.PLP.part.buried>
-1.8083

> <Gold.PLP.part.nonpolar>
-20.9029

> <Gold.PLP.part.repulsive>
0.2479

> <Gold.PLP.ligand.clash>
0.0000

> <Gold.PLP.ligand.torsion>
0.4187

> <Gold.PLP.Chemscore.Hbond>
3.6640

> <Gold.PLP.Chemscore.CHOScore>
0.7621

> <Gold.PLP.Chemscore.Metal>
0.0000

> <Gold.Chemscore.Hbonds>
donor molecule, donor type, donor heavy atom, donor atom, acceptor molecule, acceptor atom, score
      L1  H     2    19       P1  7948  0.96
      L1  H     6    22       P1  7948  0.90
      L1  H    14    30       P1 10186  1.89
      L1  C    12    27       P1 10747  0.46

> <Gold.PLP.Chemscore.Internal.Correction>
0.0922

> <Gold.Rescore>
     Score         DG    S(hbond)    S(metal)    S(lipo)     H(rot)  DE(clash)    DE(int)     intcor
     11.27     -13.17       2.72        0.00      39.10       2.33       0.12       1.78       ----

> <Gold.Chemscore.Fitness>
11.2696

> <Gold.Chemscore.DG>
-13.1674

> <Gold.Chemscore.ZeroCoef>
-5.4800

> <Gold.Chemscore.Hbond>
2.7187

> <Gold.Chemscore.Metal>
0.0000

> <Gold.Chemscore.Lipo>
39.0982

> <Gold.Chemscore.Internal_Hbond>
0.0000

> <Gold.Chemscore.DEClash>
0.1201

> <Gold.Chemscore.DEInternal>
1.7777

> <Gold.Chemscore.Rot>
2.3311

> <Gold.Chemscore.Internal.Correction>
   9.000000E+99

> <Gold.Chemscore.Hbonds>
donor molecule, donor type, donor heavy atom, donor atom, acceptor molecule, acceptor atom, score
      L1  H     2    19       P1  7948  0.23
      L1  H     6    22       P1  7948  0.18
      L1  H    14    30       P1 10186  0.91

> <Gold.Chemscore.Hbond.Weighted>
-9.0805

> <Gold.Chemscore.Metal.Weighted>
-0.0000

> <Gold.Chemscore.Lipo.Weighted>
-4.5745

> <Gold.Chemscore.Internal_Hbond.Weighted>
0.0000

> <Gold.Chemscore.DEClash.Weighted>
0.1201

> <Gold.Chemscore.DEInternal.Weighted>
1.7777

> <Gold.Chemscore.Rot.Weighted>
5.9676

> <Gold.Chemscore.Internal.Correction.Weighted>
   9.000000E+99

> <Gold.Protein.RotatedTorsions>
[ 6907 6896 6895 6894 ] final  113.74 input  -60.11 | X-H torsion
[ 7974 7965 7964 7962 ] final -127.18 input  175.53 | X-H torsion
[ 8008 7997 7996 7995 ] final   -4.11 input   59.86 | X-H torsion
[ 10167 10162 10161 10158 ] final   64.88 input  -65.29 | X-H torsion
[ 10718 10713 10712 10709 ] final   70.10 input   66.30 | X-H torsion
[ 10763 10752 10751 10750 ] final   61.60 input  -60.55 | X-H torsion
[ 11005 11000 10999 10996 ] final  148.20 input  -57.11 | X-H torsion

> <Gold.Protein.ActiveResidues>
 VAL166  LYS551  ARG553  GLY616  TRP617  ASP618  TYR619  PRO620  LYS621  CYS622 
 ASP623  PHE694  ASN695  SER759  ASP760  ASP761  ALA762  ILE779  LEU786  VAL792 
 PHE793  MET794  SER795  GLU796  ALA797  LYS798  CYS799  TRP800  GLU811  SER814 

> <Gold.Protein.RotatedAtoms>
  152.4843  133.8333  159.7114 H   0  0  0  0  0  0  0  0  0  0  0  0  # atno 6907 bound_to 6896
  150.8917  133.7225  159.2909 H   0  0  0  0  0  0  0  0  0  0  0  0  # atno 6908 bound_to 6896
  151.4696  135.1048  159.9800 H   0  0  0  0  0  0  0  0  0  0  0  0  # atno 6909 bound_to 6896
  144.9796  140.7627  143.4620 H   0  0  0  0  0  0  0  0  0  0  0  0  # atno 7974 bound_to 7965
  154.6178  140.2492  155.7587 H   0  0  0  0  0  0  0  0  0  0  0  0  # atno 8008 bound_to 7997
  156.2409  140.2933  156.0390 H   0  0  0  0  0  0  0  0  0  0  0  0  # atno 8009 bound_to 7997
  155.1946  140.0392  157.2897 H   0  0  0  0  0  0  0  0  0  0  0  0  # atno 8010 bound_to 7997
  140.1174  144.4763  150.6941 H   0  0  0  0  0  0  0  0  0  0  0  0  # atno 10167 bound_to 10162
  157.6382  130.9460  150.0605 H   0  0  0  0  0  0  0  0  0  0  0  0  # atno 10718 bound_to 10713
  152.9955  135.5495  154.6059 H   0  0  0  0  0  0  0  0  0  0  0  0  # atno 10763 bound_to 10752
  154.5390  135.2818  155.1114 H   0  0  0  0  0  0  0  0  0  0  0  0  # atno 10764 bound_to 10752
  154.2399  135.6418  153.5256 H   0  0  0  0  0  0  0  0  0  0  0  0  # atno 10765 bound_to 10752
  140.0939  134.9024  157.1694 H   0  0  0  0  0  0  0  0  0  0  0  0  # atno 11005 bound_to 11000
  145.2439  139.2060  143.4978 LP  0  0  0  0  0  0  0  0  0  0  0  0  # atno 17320 bound_to 7965
  146.3404  140.2340  142.8594 LP  0  0  0  0  0  0  0  0  0  0  0  0  # atno 17321 bound_to 7965
  140.6891  143.2366  151.5179 LP  0  0  0  0  0  0  0  0  0  0  0  0  # atno 17342 bound_to 10162
  139.5587  144.2211  152.1655 LP  0  0  0  0  0  0  0  0  0  0  0  0  # atno 17343 bound_to 10162
  156.1639  130.3644  149.9260 LP  0  0  0  0  0  0  0  0  0  0  0  0  # atno 17370 bound_to 10713
  156.7251  130.9022  151.3621 LP  0  0  0  0  0  0  0  0  0  0  0  0  # atno 17371 bound_to 10713
  140.3313  134.2807  155.7227 LP  0  0  0  0  0  0  0  0  0  0  0  0  # atno 17394 bound_to 11000
  141.2086  133.7772  157.0047 LP  0  0  0  0  0  0  0  0  0  0  0  0  # atno 17395 bound_to 11000

$$$$
