AV-unprocessed.smi:35|AV-procd|sdf|257|dock6
  -GOLD-   2262016 23D 1   1.00000     0.00000
 Structure written by MMmdl.
 29 30  0  0  0  0  0  0  0  0  1 V2000
  152.9576  136.4897  159.4200 O   0  0  0  0  0  0  0  0  0  0  0  0
  152.5167  137.1516  158.4831 C   0  0  0  0  0  0  0  0  0  0  0  0
  153.3417  137.4859  157.4047 N   0  0  0  0  0  0  0  0  0  0  0  0
  152.9568  138.2314  156.2880 C   0  0  0  0  0  0  0  0  0  0  0  0
  153.7677  138.4524  155.3896 O   0  0  0  0  0  0  0  0  0  0  0  0
  151.6204  138.6893  156.2504 N   0  0  0  0  0  0  0  0  0  0  0  0
  151.1312  139.5203  155.0837 C   0  0  2  0  0  0  0  0  0  0  0  0
  150.3767  140.5711  155.6007 O   0  0  0  0  0  0  0  0  0  0  0  0
  149.2605  140.8088  154.7578 C   0  0  2  0  0  0  0  0  0  0  0  0
  148.1606  141.5139  155.5671 C   0  0  0  0  0  0  0  0  0  0  0  0
  148.7262  142.4156  156.4939 O   0  0  0  0  0  0  0  0  0  0  0  0
  148.8897  139.4139  154.2395 C   0  0  1  0  0  0  0  0  0  0  0  0
  148.2436  139.5036  152.9847 O   0  0  0  0  0  0  0  0  0  0  0  0
  150.2433  138.7263  154.0968 C   0  0  2  0  0  0  0  0  0  0  0  0
  150.1372  137.3422  154.3810 O   0  0  0  0  0  0  0  0  0  0  0  0
  150.7626  138.3766  157.2961 C   0  0  0  0  0  0  0  0  0  0  0  0
  151.1505  137.6501  158.3698 C   0  0  0  0  0  0  0  0  0  0  0  0
  149.7732  137.3086  159.7520 Br  0  0  0  0  0  0  0  0  0  0  0  0
  154.2963  137.1580  157.4352 H   0  0  0  0  0  0  0  0  0  0  0  0
  152.0050  139.9543  154.5957 H   0  0  0  0  0  0  0  0  0  0  0  0
  149.6045  141.4446  153.9392 H   0  0  0  0  0  0  0  0  0  0  0  0
  147.4680  142.0427  154.9115 H   0  0  0  0  0  0  0  0  0  0  0  0
  147.5785  140.7790  156.1238 H   0  0  0  0  0  0  0  0  0  0  0  0
  148.7488  143.2753  156.1021 H   0  0  0  0  0  0  0  0  0  0  0  0
  148.2604  138.8926  154.9629 H   0  0  0  0  0  0  0  0  0  0  0  0
  148.8722  139.3100  152.3065 H   0  0  0  0  0  0  0  0  0  0  0  0
  150.6557  138.8646  153.0961 H   0  0  0  0  0  0  0  0  0  0  0  0
  149.8239  136.9012  153.6060 H   0  0  0  0  0  0  0  0  0  0  0  0
  149.7385  138.7192  157.2522 H   0  0  0  0  0  0  0  0  0  0  0  0
  1  2  2  0  0  0  0
  2 17  1  0  0  0  0
  2  3  1  0  0  0  0
  3 19  1  0  0  0  0
  3  4  1  0  0  0  0
  4  5  2  0  0  0  0
  4  6  1  0  0  0  0
  6  7  1  0  0  0  0
  6 16  1  0  0  0  0
  7 14  1  0  0  0  0
  7  8  1  0  0  0  0
  7 20  1  0  0  0  0
  8  9  1  0  0  0  0
  9 10  1  0  0  0  0
  9 12  1  0  0  0  0
  9 21  1  0  0  0  0
 10 11  1  0  0  0  0
 10 22  1  0  0  0  0
 10 23  1  0  0  0  0
 11 24  1  0  0  0  0
 12 13  1  0  0  0  0
 12 14  1  0  0  0  0
 12 25  1  0  0  0  0
 13 26  1  0  0  0  0
 14 15  1  0  0  0  0
 14 27  1  0  0  0  0
 15 28  1  0  0  0  0
 16 17  2  0  0  0  0
 16 29  1  0  0  0  0
 17 18  1  0  0  0  0
M  END
> <s_m_source_file>
AV-unprocessed.smi

> <i_m_source_file_index>
35

> <i_lp_mmshare_version>
43012

> <i_f3d_flags>
0

> <s_epik_input>
Tz1jMVtuSF1jKD1PKW4oW2NIXWMxQnIpW0NAQEhdMk9bQ0BASF0oW0NIMl1bT0hdKVtDQEBIXShbT0hdKVtDQEhdMltPSF0=

> <s_epik_cmdline>
J2VwaWtfcHl0aG9uJywgJy1waCcsICc3LjAnLCAnLXRuJywgJzgnLCAnLW1hJywgJzIwMCcsICctbWV0YWxfYmluZGluZycsICctaW1hZScsICc8aW5maWxlLm1hZT4nLCAnLW9tYWUnLCAnPG91dGZpbGUubWFlPic=

> <r_lp_tautomer_probability>
0.999537

> <r_epik_Ionization_Penalty>
0.10812

> <r_epik_Ionization_Penalty_Charging>
0.108119

> <r_epik_Ionization_Penalty_Neutral>
4.93006e-07

> <r_epik_State_Penalty>
0.0979238

> <r_epik_Charging_Adjusted_Penalty>
0.206043

> <i_epik_Tot_Q>
0

> <i_epik_Tot_abs_Q>
0

> <r_epik_Metal_State_Penalty>
3.07911

> <b_epik_Metal_Only>
0

> <s_epik_Chemistry_Notes>
This compound contains an acetal/aminal-like group ( X-CH(R)-Y where X, Y are N, S, or O) that may be acid/base labile, releasing an aldehyde.

> <s_lp_Force_Field>
OPLS_2005

> <r_lp_Energy>
32.3775

> <b_lp_Chiralities_Consistent>
1

> <s_lp_Variant>
AV-unprocessed.smi:35-11

> <Gold.Version>
5.8.1

> <Gold.Id.Protein>
6NUR|6NUR_protein|mol2

> <Gold.PLP.Fitness>
37.0265

> <Gold.PLP.PLP>
-24.8449

> <Gold.PLP.part.hbond>
-4.9826

> <Gold.PLP.part.metal>
0.0000

> <Gold.PLP.part.buried>
-1.8137

> <Gold.PLP.part.nonpolar>
-18.3904

> <Gold.PLP.part.repulsive>
0.2091

> <Gold.PLP.ligand.clash>
0.0000

> <Gold.PLP.ligand.torsion>
0.7104

> <Gold.PLP.Chemscore.Hbond>
4.4720

> <Gold.PLP.Chemscore.CHOScore>
0.0000

> <Gold.PLP.Chemscore.Metal>
0.0000

> <Gold.Chemscore.Hbonds>
donor molecule, donor type, donor heavy atom, donor atom, acceptor molecule, acceptor atom, score
      L1  H    11    24       P1  8028  0.96
      L1  H    13    26       P1  7957  0.78
      L1  H    15    28       P1  7948  1.00
      P1  H  6896  6907       L1     1  1.00
      P1  H  7997  8010       L1     5  0.67

> <Gold.PLP.Chemscore.Internal.Correction>
0.1864

> <Gold.Rescore>
     Score         DG    S(hbond)    S(metal)    S(lipo)     H(rot)  DE(clash)    DE(int)     intcor
     12.85     -13.42       3.91        0.00      36.62       3.67       0.01       0.57       ----

> <Gold.Chemscore.Fitness>
12.8470

> <Gold.Chemscore.DG>
-13.4205

> <Gold.Chemscore.ZeroCoef>
-5.4800

> <Gold.Chemscore.Hbond>
3.9078

> <Gold.Chemscore.Metal>
0.0000

> <Gold.Chemscore.Lipo>
36.6155

> <Gold.Chemscore.Internal_Hbond>
0.0000

> <Gold.Chemscore.DEClash>
0.0077

> <Gold.Chemscore.DEInternal>
0.5658

> <Gold.Chemscore.Rot>
3.6701

> <Gold.Chemscore.Internal.Correction>
   9.000000E+99

> <Gold.Chemscore.Hbonds>
donor molecule, donor type, donor heavy atom, donor atom, acceptor molecule, acceptor atom, score
      L1  H    11    24       P1  8028  0.89
      L1  H    13    26       P1  7957  0.74
      L1  H    15    28       P1  7948  0.47
      P1  H  6896  6907       L1     1  0.96
      P1  H  7997  8010       L1     5  0.34

> <Gold.Chemscore.Hbond.Weighted>
-13.0520

> <Gold.Chemscore.Metal.Weighted>
-0.0000

> <Gold.Chemscore.Lipo.Weighted>
-4.2840

> <Gold.Chemscore.Internal_Hbond.Weighted>
0.0000

> <Gold.Chemscore.DEClash.Weighted>
0.0077

> <Gold.Chemscore.DEInternal.Weighted>
0.5658

> <Gold.Chemscore.Rot.Weighted>
9.3955

> <Gold.Chemscore.Internal.Correction.Weighted>
   9.000000E+99

> <Gold.Protein.RotatedTorsions>
[ 6907 6896 6895 6894 ] final   40.41 input  -60.11 | X-H torsion
[ 7974 7965 7964 7962 ] final -137.92 input  175.53 | X-H torsion
[ 8008 7997 7996 7995 ] final  110.64 input   59.86 | X-H torsion
[ 10167 10162 10161 10158 ] final -174.77 input  -65.29 | X-H torsion
[ 10718 10713 10712 10709 ] final  -32.56 input   66.30 | X-H torsion
[ 10763 10752 10751 10750 ] final  177.11 input  -60.55 | X-H torsion
[ 11005 11000 10999 10996 ] final -111.41 input  -57.11 | X-H torsion

> <Gold.Protein.ActiveResidues>
 VAL166  LYS551  ARG553  GLY616  TRP617  ASP618  TYR619  PRO620  LYS621  CYS622 
 ASP623  PHE694  ASN695  SER759  ASP760  ASP761  ALA762  ILE779  LEU786  VAL792 
 PHE793  MET794  SER795  GLU796  ALA797  LYS798  CYS799  TRP800  GLU811  SER814 

> <Gold.Protein.RotatedAtoms>
  152.1822  134.8744  160.0525 H   0  0  0  0  0  0  0  0  0  0  0  0  # atno 6907 bound_to 6896
  151.9664  133.3707  159.4063 H   0  0  0  0  0  0  0  0  0  0  0  0  # atno 6908 bound_to 6896
  150.6919  134.4109  159.5205 H   0  0  0  0  0  0  0  0  0  0  0  0  # atno 6909 bound_to 6896
  144.8801  140.6495  143.5211 H   0  0  0  0  0  0  0  0  0  0  0  0  # atno 7974 bound_to 7965
  156.2067  140.3034  155.9643 H   0  0  0  0  0  0  0  0  0  0  0  0  # atno 8008 bound_to 7997
  155.2823  140.0438  157.3033 H   0  0  0  0  0  0  0  0  0  0  0  0  # atno 8009 bound_to 7997
  154.5643  140.2329  155.8295 H   0  0  0  0  0  0  0  0  0  0  0  0  # atno 8010 bound_to 7997
  139.5616  144.1856  152.1247 H   0  0  0  0  0  0  0  0  0  0  0  0  # atno 10167 bound_to 10162
  156.3734  130.4343  149.7527 H   0  0  0  0  0  0  0  0  0  0  0  0  # atno 10718 bound_to 10713
  154.4901  135.2778  155.1504 H   0  0  0  0  0  0  0  0  0  0  0  0  # atno 10763 bound_to 10752
  154.3179  135.6215  153.5498 H   0  0  0  0  0  0  0  0  0  0  0  0  # atno 10764 bound_to 10752
  152.9887  135.5735  154.5320 H   0  0  0  0  0  0  0  0  0  0  0  0  # atno 10765 bound_to 10752
  141.0736  133.9339  157.2436 H   0  0  0  0  0  0  0  0  0  0  0  0  # atno 11005 bound_to 11000
  145.3970  139.1605  143.4198 LP  0  0  0  0  0  0  0  0  0  0  0  0  # atno 17320 bound_to 7965
  146.2989  140.4063  142.8711 LP  0  0  0  0  0  0  0  0  0  0  0  0  # atno 17321 bound_to 7965
  140.1371  144.5236  150.6767 LP  0  0  0  0  0  0  0  0  0  0  0  0  # atno 17342 bound_to 10162
  140.6896  143.2368  151.5167 LP  0  0  0  0  0  0  0  0  0  0  0  0  # atno 17343 bound_to 10162
  156.4645  130.7967  151.2987 LP  0  0  0  0  0  0  0  0  0  0  0  0  # atno 17370 bound_to 10713
  157.7486  131.0055  150.3116 LP  0  0  0  0  0  0  0  0  0  0  0  0  # atno 17371 bound_to 10713
  139.9548  135.0168  156.9098 LP  0  0  0  0  0  0  0  0  0  0  0  0  # atno 17394 bound_to 11000
  140.5621  134.0524  155.7402 LP  0  0  0  0  0  0  0  0  0  0  0  0  # atno 17395 bound_to 11000

$$$$
