AV-unprocessed.smi:1143|AV-procd|sdf|4875|dock1
  -GOLD-   22720 3443D 1   1.00000     0.00000
 Structure written by MMmdl.
 35 36  0  0  0  0  0  0  0  0  1 V2000
  151.3101  130.3976  155.7047 C   0  0  0  0  0  0  0  0  0  0  0  0
  150.7463  131.7500  155.7247 N   0  0  0  0  0  0  0  0  0  0  0  0
  149.9522  132.1471  154.6312 C   0  0  0  0  0  0  0  0  0  0  0  0
  149.3881  133.3726  154.5574 C   0  0  0  0  0  0  0  0  0  0  0  0
  148.5732  133.8312  153.5127 N   0  0  0  0  0  0  0  0  0  0  0  0
  147.4958  133.2492  152.9451 C   0  0  0  0  0  0  0  0  0  0  0  0
  147.0630  132.1331  153.2241 O   0  0  0  0  0  0  0  0  0  0  0  0
  146.9166  133.9937  151.9851 N   0  0  0  0  0  0  0  0  0  0  0  0
  145.7413  133.6727  151.1716 C   0  0  0  0  0  0  0  0  0  0  0  0
  144.6395  133.0826  152.0638 C   0  0  0  0  0  0  0  0  0  0  0  0
  143.4476  132.6098  151.2154 C   0  0  0  0  0  0  0  0  0  0  0  0
  143.8847  131.6657  150.2434 O   0  0  0  0  0  0  0  0  0  0  0  0
  144.8222  132.2115  149.3216 C   0  0  0  0  0  0  0  0  0  0  0  0
  146.0905  132.6614  150.0647 C   0  0  0  0  0  0  0  0  0  0  0  0
  149.6256  134.2710  155.6670 C   0  0  0  0  0  0  0  0  0  0  0  0
  150.3834  133.8989  156.7166 C   0  0  0  0  0  0  0  0  0  0  0  0
  150.9982  132.5712  156.7850 C   0  0  0  0  0  0  0  0  0  0  0  0
  151.6951  132.2182  157.7366 O   0  0  0  0  0  0  0  0  0  0  0  0
  151.0194  129.8295  154.8205 H   0  0  0  0  0  0  0  0  0  0  0  0
  150.9777  129.8311  156.5759 H   0  0  0  0  0  0  0  0  0  0  0  0
  152.4001  130.4381  155.7216 H   0  0  0  0  0  0  0  0  0  0  0  0
  149.8341  131.3801  153.8827 H   0  0  0  0  0  0  0  0  0  0  0  0
  148.8409  134.7270  153.1324 H   0  0  0  0  0  0  0  0  0  0  0  0
  147.3742  134.8659  151.7617 H   0  0  0  0  0  0  0  0  0  0  0  0
  145.3479  134.5838  150.7165 H   0  0  0  0  0  0  0  0  0  0  0  0
  145.0323  132.2369  152.6301 H   0  0  0  0  0  0  0  0  0  0  0  0
  144.3074  133.8212  152.7943 H   0  0  0  0  0  0  0  0  0  0  0  0
  142.6994  132.1378  151.8523 H   0  0  0  0  0  0  0  0  0  0  0  0
  142.9600  133.4536  150.7245 H   0  0  0  0  0  0  0  0  0  0  0  0
  145.0725  131.4510  148.5818 H   0  0  0  0  0  0  0  0  0  0  0  0
  144.3731  133.0452  148.7798 H   0  0  0  0  0  0  0  0  0  0  0  0
  146.7990  133.0926  149.3569 H   0  0  0  0  0  0  0  0  0  0  0  0
  146.5786  131.7886  150.5008 H   0  0  0  0  0  0  0  0  0  0  0  0
  149.1913  135.2602  155.6565 H   0  0  0  0  0  0  0  0  0  0  0  0
  150.5420  134.5945  157.5274 H   0  0  0  0  0  0  0  0  0  0  0  0
  1  2  1  0  0  0  0
  1 19  1  0  0  0  0
  1 20  1  0  0  0  0
  1 21  1  0  0  0  0
  2 17  1  0  0  0  0
  2  3  1  0  0  0  0
  3  4  2  0  0  0  0
  3 22  1  0  0  0  0
  4  5  1  0  0  0  0
  4 15  1  0  0  0  0
  5  6  1  0  0  0  0
  5 23  1  0  0  0  0
  6  7  2  0  0  0  0
  6  8  1  0  0  0  0
  8  9  1  0  0  0  0
  8 24  1  0  0  0  0
  9 14  1  0  0  0  0
  9 10  1  0  0  0  0
  9 25  1  0  0  0  0
 10 11  1  0  0  0  0
 10 26  1  0  0  0  0
 10 27  1  0  0  0  0
 11 12  1  0  0  0  0
 11 28  1  0  0  0  0
 11 29  1  0  0  0  0
 12 13  1  0  0  0  0
 13 14  1  0  0  0  0
 13 30  1  0  0  0  0
 13 31  1  0  0  0  0
 14 32  1  0  0  0  0
 14 33  1  0  0  0  0
 15 16  2  0  0  0  0
 15 34  1  0  0  0  0
 16 17  1  0  0  0  0
 16 35  1  0  0  0  0
 17 18  2  0  0  0  0
M  END
> <s_m_source_file>
AV-unprocessed.smi

> <i_m_source_file_index>
1143

> <i_lp_mmshare_version>
43012

> <i_f3d_flags>
0

> <s_epik_input>
Tz1jMVtjSF1bY0hdYyhbY0hdbjFbQ0gzXSlbTkhdQyg9TylbTkhdW0NIXTJbQ0gyXVtDSDJdT1tDSDJdW0NIMl0y

> <s_epik_cmdline>
J2VwaWtfcHl0aG9uJywgJy1waCcsICc3LjAnLCAnLXRuJywgJzgnLCAnLW1hJywgJzIwMCcsICctbWV0YWxfYmluZGluZycsICctaW1hZScsICc8aW5maWxlLm1hZT4nLCAnLW9tYWUnLCAnPG91dGZpbGUubWFlPic=

> <r_lp_tautomer_probability>
1

> <r_epik_Ionization_Penalty>
2.54991e-05

> <r_epik_Ionization_Penalty_Charging>
5.93057e-06

> <r_epik_Ionization_Penalty_Neutral>
1.95685e-05

> <r_epik_State_Penalty>
-0

> <r_epik_Charging_Adjusted_Penalty>
5.93057e-06

> <i_epik_Tot_Q>
0

> <i_epik_Tot_abs_Q>
0

> <r_epik_Metal_State_Penalty>
-0

> <b_epik_Metal_Only>
0

> <s_lp_Force_Field>
OPLS_2005

> <r_lp_Energy>
32.4408

> <b_lp_Chiralities_Consistent>
1

> <s_lp_Variant>
AV-unprocessed.smi:1143-1

> <Gold.Version>
5.8.1

> <Gold.Id.Protein>
6NUR|6NUR_protein|mol2

> <Gold.PLP.Fitness>
40.4994

> <Gold.PLP.PLP>
-31.6465

> <Gold.PLP.part.hbond>
-3.9587

> <Gold.PLP.part.metal>
0.0000

> <Gold.PLP.part.buried>
-3.2633

> <Gold.PLP.part.nonpolar>
-25.1056

> <Gold.PLP.part.repulsive>
0.3240

> <Gold.PLP.ligand.clash>
0.0000

> <Gold.PLP.ligand.torsion>
0.6571

> <Gold.PLP.Chemscore.Hbond>
3.3887

> <Gold.PLP.Chemscore.CHOScore>
0.0000

> <Gold.PLP.Chemscore.Metal>
0.0000

> <Gold.Chemscore.Hbonds>
donor molecule, donor type, donor heavy atom, donor atom, acceptor molecule, acceptor atom, score
      L1  H     5    23       P1  7948  0.90
      L1  H     8    24       P1  7948  0.98
      P1  H  6896  6907       L1    18  1.00
      P1  H 10785 10796       L1    12  0.22

> <Gold.PLP.Chemscore.Internal.Correction>
0.0011

> <Gold.Rescore>
     Score         DG    S(hbond)    S(metal)    S(lipo)     H(rot)  DE(clash)    DE(int)     intcor
     18.19     -19.72       2.66        0.00      67.79       1.00       0.01       1.53       ----

> <Gold.Chemscore.Fitness>
18.1852

> <Gold.Chemscore.DG>
-19.7214

> <Gold.Chemscore.ZeroCoef>
-5.4800

> <Gold.Chemscore.Hbond>
2.6557

> <Gold.Chemscore.Metal>
0.0000

> <Gold.Chemscore.Lipo>
67.7899

> <Gold.Chemscore.Internal_Hbond>
0.0000

> <Gold.Chemscore.DEClash>
0.0073

> <Gold.Chemscore.DEInternal>
1.5288

> <Gold.Chemscore.Rot>
1.0000

> <Gold.Chemscore.Internal.Correction>
   9.000000E+99

> <Gold.Chemscore.Hbonds>
donor molecule, donor type, donor heavy atom, donor atom, acceptor molecule, acceptor atom, score
      L1  H     5    23       P1  7948  0.18
      L1  H     8    24       P1  7948  0.66
      P1  H  6896  6907       L1    18  0.94
      P1  H 10785 10796       L1    12  0.02

> <Gold.Chemscore.Hbond.Weighted>
-8.8699

> <Gold.Chemscore.Metal.Weighted>
-0.0000

> <Gold.Chemscore.Lipo.Weighted>
-7.9314

> <Gold.Chemscore.Internal_Hbond.Weighted>
0.0000

> <Gold.Chemscore.DEClash.Weighted>
0.0073

> <Gold.Chemscore.DEInternal.Weighted>
1.5288

> <Gold.Chemscore.Rot.Weighted>
2.5600

> <Gold.Chemscore.Internal.Correction.Weighted>
   9.000000E+99

> <Gold.Protein.RotatedTorsions>
[ 6907 6896 6895 6894 ] final  179.40 input  -60.11 | X-H torsion
[ 7974 7965 7964 7962 ] final   69.14 input  175.53 | X-H torsion
[ 8008 7997 7996 7995 ] final  -25.61 input   59.86 | X-H torsion
[ 10167 10162 10161 10158 ] final  133.71 input  -65.29 | X-H torsion
[ 10718 10713 10712 10709 ] final   98.23 input   66.30 | X-H torsion
[ 10763 10752 10751 10750 ] final -172.69 input  -60.55 | X-H torsion
[ 11005 11000 10999 10996 ] final -170.90 input  -57.11 | X-H torsion

> <Gold.Protein.ActiveResidues>
 VAL166  LYS551  ARG553  GLY616  TRP617  ASP618  TYR619  PRO620  LYS621  CYS622 
 ASP623  PHE694  ASN695  SER759  ASP760  ASP761  ALA762  ILE779  LEU786  VAL792 
 PHE793  MET794  SER795  GLU796  ALA797  LYS798  CYS799  TRP800  GLU811  SER814 

> <Gold.Protein.RotatedAtoms>
  151.6722  133.3313  159.3199 H   0  0  0  0  0  0  0  0  0  0  0  0  # atno 6907 bound_to 6896
  150.7862  134.6852  159.6476 H   0  0  0  0  0  0  0  0  0  0  0  0  # atno 6908 bound_to 6896
  152.3932  134.6411  160.0151 H   0  0  0  0  0  0  0  0  0  0  0  0  # atno 6909 bound_to 6896
  145.7941  139.2949  143.1193 H   0  0  0  0  0  0  0  0  0  0  0  0  # atno 7974 bound_to 7965
  154.4467  140.1922  156.0646 H   0  0  0  0  0  0  0  0  0  0  0  0  # atno 8008 bound_to 7997
  156.0557  140.3303  155.7375 H   0  0  0  0  0  0  0  0  0  0  0  0  # atno 8009 bound_to 7997
  155.5489  140.0593  157.2845 H   0  0  0  0  0  0  0  0  0  0  0  0  # atno 8010 bound_to 7997
  139.5286  144.6602  151.5035 H   0  0  0  0  0  0  0  0  0  0  0  0  # atno 10167 bound_to 10162
  157.6899  131.0634  150.4765 H   0  0  0  0  0  0  0  0  0  0  0  0  # atno 10718 bound_to 10713
  154.6164  135.2870  155.0375 H   0  0  0  0  0  0  0  0  0  0  0  0  # atno 10763 bound_to 10752
  154.1586  135.6492  153.4984 H   0  0  0  0  0  0  0  0  0  0  0  0  # atno 10764 bound_to 10752
  153.0217  135.5372  154.6937 H   0  0  0  0  0  0  0  0  0  0  0  0  # atno 10765 bound_to 10752
  140.5142  134.5772  157.5028 H   0  0  0  0  0  0  0  0  0  0  0  0  # atno 11005 bound_to 11000
  145.9946  140.8573  143.0049 LP  0  0  0  0  0  0  0  0  0  0  0  0  # atno 17320 bound_to 7965
  144.6777  140.2265  143.7360 LP  0  0  0  0  0  0  0  0  0  0  0  0  # atno 17321 bound_to 7965
  140.6447  143.8818  150.6726 LP  0  0  0  0  0  0  0  0  0  0  0  0  # atno 17342 bound_to 10162
  140.2164  143.3843  152.1678 LP  0  0  0  0  0  0  0  0  0  0  0  0  # atno 17343 bound_to 10162
  156.5099  130.4137  149.6307 LP  0  0  0  0  0  0  0  0  0  0  0  0  # atno 17370 bound_to 10713
  156.3250  130.7301  151.2220 LP  0  0  0  0  0  0  0  0  0  0  0  0  # atno 17371 bound_to 10713
  139.9641  134.7402  156.0174 LP  0  0  0  0  0  0  0  0  0  0  0  0  # atno 17394 bound_to 11000
  141.1369  133.6573  156.3619 LP  0  0  0  0  0  0  0  0  0  0  0  0  # atno 17395 bound_to 11000

$$$$
