AV-unprocessed.smi:1702|AV-procd|sdf|6845|dock9
  -GOLD-   22720 8 23D 1   1.00000     0.00000
 Structure written by MMmdl.
 44 46  0  0  0  0  0  0  0  0  2 V2000
  143.9312  139.5907  156.3257 C   0  0  0  0  0  0  0  0  0  0  0  0
  145.2913  139.9067  156.9636 C   0  0  2  0  0  0  0  0  0  0  0  0
  145.9999  141.0701  156.2497 C   0  0  0  0  0  0  0  0  0  0  0  0
  147.3741  141.3578  156.8776 C   0  0  0  0  0  0  0  0  0  0  0  0
  148.2343  140.1444  156.8697 N   0  3  1  0  0  0  0  0  0  0  0  0
  149.6152  140.3994  157.3555 C   0  0  0  0  0  0  0  0  0  0  0  0
  150.3810  141.3982  156.4655 C   0  0  2  0  0  0  0  0  0  0  0  0
  150.5743  140.8113  155.1926 O   0  0  0  0  0  0  0  0  0  0  0  0
  151.7492  141.7675  157.0703 C   0  0  0  0  0  0  0  0  0  0  0  0
  151.6306  142.6669  158.2045 N   0  0  0  0  0  0  0  0  0  0  0  0
  150.8920  143.7913  158.2701 C   0  0  0  0  0  0  0  0  0  0  0  0
  150.9255  144.4768  159.4089 N   0  0  0  0  0  0  0  0  0  0  0  0
  151.7817  143.7051  160.1754 C   0  0  0  0  0  0  0  0  0  0  0  0
  152.2387  143.8841  161.5004 C   0  0  0  0  0  0  0  0  0  0  0  0
  153.1241  142.9537  162.0833 C   0  0  0  0  0  0  0  0  0  0  0  0
  153.5523  143.1408  163.3543 F   0  0  0  0  0  0  0  0  0  0  0  0
  153.5658  141.8323  161.3502 C   0  0  0  0  0  0  0  0  0  0  0  0
  154.4161  140.9439  161.9168 F   0  0  0  0  0  0  0  0  0  0  0  0
  153.1248  141.6333  160.0277 C   0  0  0  0  0  0  0  0  0  0  0  0
  152.2406  142.5637  159.4509 C   0  0  0  0  0  0  0  0  0  0  0  0
  147.5868  139.0127  157.5817 C   0  0  0  0  0  0  0  0  0  0  0  0
  146.2166  138.6787  156.9680 C   0  0  0  0  0  0  0  0  0  0  0  0
  144.0406  139.2907  155.2830 H   0  0  0  0  0  0  0  0  0  0  0  0
  143.2729  140.4594  156.3546 H   0  0  0  0  0  0  0  0  0  0  0  0
  143.4285  138.7797  156.8538 H   0  0  0  0  0  0  0  0  0  0  0  0
  145.1115  140.2013  157.9987 H   0  0  0  0  0  0  0  0  0  0  0  0
  146.1249  140.8355  155.1915 H   0  0  0  0  0  0  0  0  0  0  0  0
  145.3818  141.9676  156.2952 H   0  0  0  0  0  0  0  0  0  0  0  0
  147.8513  142.1661  156.3249 H   0  0  0  0  0  0  0  0  0  0  0  0
  147.2494  141.7105  157.9027 H   0  0  0  0  0  0  0  0  0  0  0  0
  149.5730  140.7559  158.3859 H   0  0  0  0  0  0  0  0  0  0  0  0
  150.1779  139.4647  157.3831 H   0  0  0  0  0  0  0  0  0  0  0  0
  149.8034  142.3127  156.3338 H   0  0  0  0  0  0  0  0  0  0  0  0
  149.8097  140.2974  154.9786 H   0  0  0  0  0  0  0  0  0  0  0  0
  152.2670  140.8677  157.4052 H   0  0  0  0  0  0  0  0  0  0  0  0
  152.3894  142.2320  156.3192 H   0  0  0  0  0  0  0  0  0  0  0  0
  150.2990  144.1283  157.4323 H   0  0  0  0  0  0  0  0  0  0  0  0
  151.9081  144.7390  162.0713 H   0  0  0  0  0  0  0  0  0  0  0  0
  153.4641  140.7760  159.4660 H   0  0  0  0  0  0  0  0  0  0  0  0
  148.2247  138.1297  157.5254 H   0  0  0  0  0  0  0  0  0  0  0  0
  147.4778  139.2597  158.6391 H   0  0  0  0  0  0  0  0  0  0  0  0
  145.7539  137.8640  157.5262 H   0  0  0  0  0  0  0  0  0  0  0  0
  146.3537  138.3144  155.9486 H   0  0  0  0  0  0  0  0  0  0  0  0
  148.3262  139.8515  155.9071 H   0  0  0  0  0  0  0  0  0  0  0  0
  1  2  1  0  0  0  0
  1 23  1  0  0  0  0
  1 24  1  0  0  0  0
  1 25  1  0  0  0  0
  2 22  1  0  0  0  0
  2  3  1  0  0  0  0
  2 26  1  0  0  0  0
  3  4  1  0  0  0  0
  3 27  1  0  0  0  0
  3 28  1  0  0  0  0
  4  5  1  0  0  0  0
  4 29  1  0  0  0  0
  4 30  1  0  0  0  0
  5  6  1  0  0  0  0
  5 21  1  0  0  0  0
  5 44  1  0  0  0  0
  6  7  1  0  0  0  0
  6 31  1  0  0  0  0
  6 32  1  0  0  0  0
  7  8  1  0  0  0  0
  7  9  1  0  0  0  0
  7 33  1  0  0  0  0
  8 34  1  0  0  0  0
  9 10  1  0  0  0  0
  9 35  1  0  0  0  0
  9 36  1  0  0  0  0
 10 20  1  0  0  0  0
 10 11  1  0  0  0  0
 11 12  2  0  0  0  0
 11 37  1  0  0  0  0
 12 13  1  0  0  0  0
 13 20  2  0  0  0  0
 13 14  1  0  0  0  0
 14 15  2  0  0  0  0
 14 38  1  0  0  0  0
 15 16  1  0  0  0  0
 15 17  1  0  0  0  0
 17 18  1  0  0  0  0
 17 19  2  0  0  0  0
 19 20  1  0  0  0  0
 19 39  1  0  0  0  0
 21 22  1  0  0  0  0
 21 40  1  0  0  0  0
 21 41  1  0  0  0  0
 22 42  1  0  0  0  0
 22 43  1  0  0  0  0
M  CHG  1   5   1
M  END
> <s_m_source_file>
AV-unprocessed.smi

> <i_m_source_file_index>
1702

> <i_lp_mmshare_version>
43012

> <i_f3d_flags>
0

> <s_epik_input>
W0NIM11bQ0hdMVtDSDJdW0NIMl1OKFtDSDJdW0NIMl0xKVtDSDJdW0NASF0oW09IXSlbQ0gyXW4oW2NIXW4yKWMoYzIzKVtjSF1jKEYpYyhGKVtjSF0z

> <s_epik_cmdline>
J2VwaWtfcHl0aG9uJywgJy1waCcsICc3LjAnLCAnLXRuJywgJzgnLCAnLW1hJywgJzIwMCcsICctbWV0YWxfYmluZGluZycsICctaW1hZScsICc8aW5maWxlLm1hZT4nLCAnLW9tYWUnLCAnPG91dGZpbGUubWFlPic=

> <r_epik_Ionization_Penalty>
0.0135195

> <r_epik_Ionization_Penalty_Charging>
0.00181365

> <r_epik_Ionization_Penalty_Neutral>
0.0117059

> <r_epik_State_Penalty>
0.00902283

> <r_epik_Charging_Adjusted_Penalty>
0.0108365

> <i_epik_Tot_Q>
1

> <i_epik_Tot_abs_Q>
1

> <r_epik_Metal_State_Penalty>
9.09181e-06

> <b_epik_Metal_Only>
0

> <s_lp_Force_Field>
OPLS_2005

> <r_lp_Energy>
21.6828

> <b_lp_Chiralities_Consistent>
1

> <s_lp_Variant>
AV-unprocessed.smi:1702-1

> <Gold.Version>
5.8.1

> <Gold.Id.Protein>
6NUR|6NUR_protein|mol2

> <Gold.PLP.Fitness>
45.9697

> <Gold.PLP.PLP>
-40.9941

> <Gold.PLP.part.hbond>
-1.0000

> <Gold.PLP.part.metal>
0.0000

> <Gold.PLP.part.buried>
-6.2314

> <Gold.PLP.part.nonpolar>
-33.0848

> <Gold.PLP.part.repulsive>
0.1587

> <Gold.PLP.ligand.clash>
0.0000

> <Gold.PLP.ligand.torsion>
0.2787

> <Gold.PLP.Chemscore.Hbond>
0.8320

> <Gold.PLP.Chemscore.CHOScore>
1.0000

> <Gold.PLP.Chemscore.Metal>
0.0000

> <Gold.Chemscore.Hbonds>
donor molecule, donor type, donor heavy atom, donor atom, acceptor molecule, acceptor atom, score
      P1  H  7989  7998       L1     8  0.83
      L1  C    11    37       P1  8028  1.00

> <Gold.PLP.Chemscore.Internal.Correction>
0.0370

> <Gold.Rescore>
     Score         DG    S(hbond)    S(metal)    S(lipo)     H(rot)  DE(clash)    DE(int)     intcor
     12.13     -12.72       0.95        0.00      84.39       2.26       0.24       0.35       ----

> <Gold.Chemscore.Fitness>
12.1297

> <Gold.Chemscore.DG>
-12.7225

> <Gold.Chemscore.ZeroCoef>
-5.4800

> <Gold.Chemscore.Hbond>
0.9459

> <Gold.Chemscore.Metal>
0.0000

> <Gold.Chemscore.Lipo>
84.3895

> <Gold.Chemscore.Internal_Hbond>
0.0000

> <Gold.Chemscore.DEClash>
0.2439

> <Gold.Chemscore.DEInternal>
0.3489

> <Gold.Chemscore.Rot>
2.2619

> <Gold.Chemscore.Internal.Correction>
   9.000000E+99

> <Gold.Chemscore.Hbonds>
donor molecule, donor type, donor heavy atom, donor atom, acceptor molecule, acceptor atom, score
      P1  H  7989  7998       L1     8  0.39

> <Gold.Chemscore.Hbond.Weighted>
-3.1594

> <Gold.Chemscore.Metal.Weighted>
-0.0000

> <Gold.Chemscore.Lipo.Weighted>
-9.8736

> <Gold.Chemscore.Internal_Hbond.Weighted>
0.0000

> <Gold.Chemscore.DEClash.Weighted>
0.2439

> <Gold.Chemscore.DEInternal.Weighted>
0.3489

> <Gold.Chemscore.Rot.Weighted>
5.7904

> <Gold.Chemscore.Internal.Correction.Weighted>
   9.000000E+99

> <Gold.Protein.RotatedTorsions>
[ 6907 6896 6895 6894 ] final -146.63 input  -60.11 | X-H torsion
[ 7974 7965 7964 7962 ] final  -95.09 input  175.53 | X-H torsion
[ 8008 7997 7996 7995 ] final -149.17 input   59.86 | X-H torsion
[ 10167 10162 10161 10158 ] final   69.82 input  -65.29 | X-H torsion
[ 10718 10713 10712 10709 ] final -121.07 input   66.30 | X-H torsion
[ 10763 10752 10751 10750 ] final   84.88 input  -60.55 | X-H torsion
[ 11005 11000 10999 10996 ] final  -68.57 input  -57.11 | X-H torsion

> <Gold.Protein.ActiveResidues>
 VAL166  LYS551  ARG553  GLY616  TRP617  ASP618  TYR619  PRO620  LYS621  CYS622 
 ASP623  PHE694  ASN695  SER759  ASP760  ASP761  ALA762  ILE779  LEU786  VAL792 
 PHE793  MET794  SER795  GLU796  ALA797  LYS798  CYS799  TRP800  GLU811  SER814 

> <Gold.Protein.RotatedAtoms>
  151.1444  133.4950  159.2596 H   0  0  0  0  0  0  0  0  0  0  0  0  # atno 6907 bound_to 6896
  151.1621  135.0278  159.8725 H   0  0  0  0  0  0  0  0  0  0  0  0  # atno 6908 bound_to 6896
  152.5463  134.1316  159.8495 H   0  0  0  0  0  0  0  0  0  0  0  0  # atno 6909 bound_to 6896
  145.3647  140.9497  143.2481 H   0  0  0  0  0  0  0  0  0  0  0  0  # atno 7974 bound_to 7965
  155.6034  140.0664  157.2726 H   0  0  0  0  0  0  0  0  0  0  0  0  # atno 8008 bound_to 7997
  154.4272  140.1814  156.1244 H   0  0  0  0  0  0  0  0  0  0  0  0  # atno 8009 bound_to 7997
  156.0141  140.3323  155.6974 H   0  0  0  0  0  0  0  0  0  0  0  0  # atno 8010 bound_to 7997
  140.0637  144.5211  150.7276 H   0  0  0  0  0  0  0  0  0  0  0  0  # atno 10167 bound_to 10162
  156.1308  130.6394  150.9618 H   0  0  0  0  0  0  0  0  0  0  0  0  # atno 10718 bound_to 10713
  153.1423  135.4638  154.9514 H   0  0  0  0  0  0  0  0  0  0  0  0  # atno 10763 bound_to 10752
  154.7757  135.3172  154.8099 H   0  0  0  0  0  0  0  0  0  0  0  0  # atno 10764 bound_to 10752
  153.8619  135.6912  153.4836 H   0  0  0  0  0  0  0  0  0  0  0  0  # atno 10765 bound_to 10752
  141.1535  133.6744  156.6466 H   0  0  0  0  0  0  0  0  0  0  0  0  # atno 11005 bound_to 11000
  144.8621  139.5162  143.6807 LP  0  0  0  0  0  0  0  0  0  0  0  0  # atno 17320 bound_to 7965
  146.2912  139.7145  142.9159 LP  0  0  0  0  0  0  0  0  0  0  0  0  # atno 17321 bound_to 7965
  140.7160  143.2545  151.4434 LP  0  0  0  0  0  0  0  0  0  0  0  0  # atno 17342 bound_to 10162
  139.5878  144.1565  152.2051 LP  0  0  0  0  0  0  0  0  0  0  0  0  # atno 17343 bound_to 10162
  157.6486  131.0900  150.8099 LP  0  0  0  0  0  0  0  0  0  0  0  0  # atno 17370 bound_to 10713
  156.8184  130.4976  149.5346 LP  0  0  0  0  0  0  0  0  0  0  0  0  # atno 17371 bound_to 10713
  140.3352  134.7895  157.4356 LP  0  0  0  0  0  0  0  0  0  0  0  0  # atno 17394 bound_to 11000
  140.0983  134.5507  155.8377 LP  0  0  0  0  0  0  0  0  0  0  0  0  # atno 17395 bound_to 11000

$$$$
