AV-unprocessed.smi:2241|AV-procd|sdf|9059|dock2
  -GOLD-   2272012263D 1   1.00000     0.00000
 Structure written by MMmdl.
 45 47  0  0  0  0  0  0  0  0  1 V2000
  147.0132  132.7315  152.4290 C   0  0  0  0  0  0  0  0  0  0  0  0
  148.1642  132.5353  153.3942 C   0  0  0  0  0  0  0  0  0  0  0  0
  148.5319  131.2404  153.8099 C   0  0  0  0  0  0  0  0  0  0  0  0
  149.6020  131.0683  154.7065 C   0  0  0  0  0  0  0  0  0  0  0  0
  150.3064  132.1873  155.1910 C   0  0  0  0  0  0  0  0  0  0  0  0
  151.6143  131.9498  156.2946 Cl  0  0  0  0  0  0  0  0  0  0  0  0
  149.9497  133.4918  154.7840 C   0  0  0  0  0  0  0  0  0  0  0  0
  150.6827  134.5376  155.3029 O   0  0  0  0  0  0  0  0  0  0  0  0
  150.4842  135.8403  154.7713 C   0  0  0  0  0  0  0  0  0  0  0  0
  151.0509  136.8578  155.7728 C   0  0  1  0  0  0  0  0  0  0  0  0
  152.1316  136.2365  156.4390 O   0  0  0  0  0  0  0  0  0  0  0  0
  151.5648  138.1363  155.0719 C   0  0  0  0  0  0  0  0  0  0  0  0
  151.5329  139.3069  155.9616 N   0  0  0  0  0  0  0  0  0  0  0  0
  152.1827  139.1685  157.2021 C   0  0  0  0  0  0  0  0  0  0  0  0
  152.2381  140.1419  158.0545 N   0  0  0  0  0  0  0  0  0  0  0  0
  151.6349  141.3680  157.7506 C   0  0  0  0  0  0  0  0  0  0  0  0
  151.7234  142.4746  158.7924 C   0  0  0  0  0  0  0  0  0  0  0  0
  150.8101  143.6925  158.5720 C   0  0  0  0  0  0  0  0  0  0  0  0
  151.9660  144.5671  159.0698 C   0  0  0  0  0  0  0  0  0  0  0  0
  152.9137  143.4370  158.6517 C   0  0  0  0  0  0  0  0  0  0  0  0
  150.9753  141.5401  156.5802 C   0  0  0  0  0  0  0  0  0  0  0  0
  150.8961  140.4583  155.5986 C   0  0  0  0  0  0  0  0  0  0  0  0
  150.3020  140.5769  154.5267 O   0  0  0  0  0  0  0  0  0  0  0  0
  148.8718  133.6548  153.8771 C   0  0  0  0  0  0  0  0  0  0  0  0
  146.4683  131.8015  152.2644 H   0  0  0  0  0  0  0  0  0  0  0  0
  147.3845  133.0851  151.4669 H   0  0  0  0  0  0  0  0  0  0  0  0
  146.3120  133.4699  152.8195 H   0  0  0  0  0  0  0  0  0  0  0  0
  147.9967  130.3761  153.4442 H   0  0  0  0  0  0  0  0  0  0  0  0
  149.8822  130.0748  155.0241 H   0  0  0  0  0  0  0  0  0  0  0  0
  151.0066  135.9217  153.8163 H   0  0  0  0  0  0  0  0  0  0  0  0
  149.4244  136.0372  154.5987 H   0  0  0  0  0  0  0  0  0  0  0  0
  150.2810  137.0922  156.5095 H   0  0  0  0  0  0  0  0  0  0  0  0
  152.2799  136.6864  157.2565 H   0  0  0  0  0  0  0  0  0  0  0  0
  152.5551  137.9725  154.6415 H   0  0  0  0  0  0  0  0  0  0  0  0
  150.9392  138.3567  154.2051 H   0  0  0  0  0  0  0  0  0  0  0  0
  152.6300  138.1910  157.3913 H   0  0  0  0  0  0  0  0  0  0  0  0
  151.6376  142.0810  159.8068 H   0  0  0  0  0  0  0  0  0  0  0  0
  150.5724  143.8798  157.5231 H   0  0  0  0  0  0  0  0  0  0  0  0
  149.9179  143.7131  159.1982 H   0  0  0  0  0  0  0  0  0  0  0  0
  152.1001  145.5019  158.5249 H   0  0  0  0  0  0  0  0  0  0  0  0
  151.9436  144.7251  160.1494 H   0  0  0  0  0  0  0  0  0  0  0  0
  153.7362  143.2507  159.3428 H   0  0  0  0  0  0  0  0  0  0  0  0
  153.2658  143.5470  157.6243 H   0  0  0  0  0  0  0  0  0  0  0  0
  150.5045  142.4867  156.3572 H   0  0  0  0  0  0  0  0  0  0  0  0
  148.5685  134.6330  153.5363 H   0  0  0  0  0  0  0  0  0  0  0  0
  1  2  1  0  0  0  0
  1 25  1  0  0  0  0
  1 26  1  0  0  0  0
  1 27  1  0  0  0  0
  2 24  1  0  0  0  0
  2  3  2  0  0  0  0
  3  4  1  0  0  0  0
  3 28  1  0  0  0  0
  4  5  2  0  0  0  0
  4 29  1  0  0  0  0
  5  6  1  0  0  0  0
  5  7  1  0  0  0  0
  7  8  1  0  0  0  0
  7 24  2  0  0  0  0
  8  9  1  0  0  0  0
  9 10  1  0  0  0  0
  9 30  1  0  0  0  0
  9 31  1  0  0  0  0
 10 11  1  0  0  0  0
 10 12  1  0  0  0  0
 10 32  1  0  0  0  0
 11 33  1  0  0  0  0
 12 13  1  0  0  0  0
 12 34  1  0  0  0  0
 12 35  1  0  0  0  0
 13 22  1  0  0  0  0
 13 14  1  0  0  0  0
 14 15  2  0  0  0  0
 14 36  1  0  0  0  0
 15 16  1  0  0  0  0
 16 17  1  0  0  0  0
 16 21  2  0  0  0  0
 17 20  1  0  0  0  0
 17 18  1  0  0  0  0
 17 37  1  0  0  0  0
 18 19  1  0  0  0  0
 18 38  1  0  0  0  0
 18 39  1  0  0  0  0
 19 20  1  0  0  0  0
 19 40  1  0  0  0  0
 19 41  1  0  0  0  0
 20 42  1  0  0  0  0
 20 43  1  0  0  0  0
 21 22  1  0  0  0  0
 21 44  1  0  0  0  0
 22 23  2  0  0  0  0
 24 45  1  0  0  0  0
M  END
> <s_m_source_file>
AV-unprocessed.smi

> <i_m_source_file_index>
2241

> <i_lp_mmshare_version>
43012

> <i_f3d_flags>
0

> <s_epik_input>
W0NIM11jMVtjSF1bY0hdYyhDbCljKFtjSF0xKU9bQ0gyXVtDQEhdKFtPSF0pW0NIMl1uMltjSF1uYyhbY0hdYzI9TylbQ0hdM1tDSDJdW0NIMl1bQ0gyXTM=

> <s_epik_cmdline>
J2VwaWtfcHl0aG9uJywgJy1waCcsICc3LjAnLCAnLXRuJywgJzgnLCAnLW1hJywgJzIwMCcsICctbWV0YWxfYmluZGluZycsICctaW1hZScsICc8aW5maWxlLm1hZT4nLCAnLW9tYWUnLCAnPG91dGZpbGUubWFlPic=

> <r_lp_tautomer_probability>
1

> <r_epik_Ionization_Penalty>
1.78212e-05

> <r_epik_Ionization_Penalty_Charging>
5.61663e-08

> <r_epik_Ionization_Penalty_Neutral>
1.7765e-05

> <r_epik_State_Penalty>
-0

> <r_epik_Charging_Adjusted_Penalty>
5.61663e-08

> <i_epik_Tot_Q>
0

> <i_epik_Tot_abs_Q>
0

> <r_epik_Metal_State_Penalty>
-0

> <b_epik_Metal_Only>
0

> <s_lp_Force_Field>
OPLS_2005

> <r_lp_Energy>
30.2703

> <b_lp_Chiralities_Consistent>
1

> <s_lp_Variant>
AV-unprocessed.smi:2241-2

> <Gold.Version>
5.8.1

> <Gold.Id.Protein>
6NUR|6NUR_protein|mol2

> <Gold.PLP.Fitness>
52.5225

> <Gold.PLP.PLP>
-49.0537

> <Gold.PLP.part.hbond>
-2.0426

> <Gold.PLP.part.metal>
0.0000

> <Gold.PLP.part.buried>
-4.0344

> <Gold.PLP.part.nonpolar>
-42.7780

> <Gold.PLP.part.repulsive>
0.2058

> <Gold.PLP.ligand.clash>
0.0000

> <Gold.PLP.ligand.torsion>
1.3681

> <Gold.PLP.Chemscore.Hbond>
1.9120

> <Gold.PLP.Chemscore.CHOScore>
0.0000

> <Gold.PLP.Chemscore.Metal>
0.0000

> <Gold.Chemscore.Hbonds>
donor molecule, donor type, donor heavy atom, donor atom, acceptor molecule, acceptor atom, score
      P1  H  7989  7998       L1    23  0.91
      P1  H 10752 10765       L1    11  1.00

> <Gold.PLP.Chemscore.Internal.Correction>
0.4690

> <Gold.Rescore>
     Score         DG    S(hbond)    S(metal)    S(lipo)     H(rot)  DE(clash)    DE(int)     intcor
     14.43     -16.76       1.05        0.00     118.41       2.38       0.00       2.33       ----

> <Gold.Chemscore.Fitness>
14.4320

> <Gold.Chemscore.DG>
-16.7595

> <Gold.Chemscore.ZeroCoef>
-5.4800

> <Gold.Chemscore.Hbond>
1.0533

> <Gold.Chemscore.Metal>
0.0000

> <Gold.Chemscore.Lipo>
118.4138

> <Gold.Chemscore.Internal_Hbond>
0.0000

> <Gold.Chemscore.DEClash>
0.0024

> <Gold.Chemscore.DEInternal>
2.3251

> <Gold.Chemscore.Rot>
2.3801

> <Gold.Chemscore.Internal.Correction>
   9.000000E+99

> <Gold.Chemscore.Hbonds>
donor molecule, donor type, donor heavy atom, donor atom, acceptor molecule, acceptor atom, score
      P1  H  7989  7998       L1    23  0.23
      P1  H 10752 10765       L1    11  0.35

> <Gold.Chemscore.Hbond.Weighted>
-3.5181

> <Gold.Chemscore.Metal.Weighted>
-0.0000

> <Gold.Chemscore.Lipo.Weighted>
-13.8544

> <Gold.Chemscore.Internal_Hbond.Weighted>
0.0000

> <Gold.Chemscore.DEClash.Weighted>
0.0024

> <Gold.Chemscore.DEInternal.Weighted>
2.3251

> <Gold.Chemscore.Rot.Weighted>
6.0931

> <Gold.Chemscore.Internal.Correction.Weighted>
   9.000000E+99

> <Gold.Protein.RotatedTorsions>
[ 6907 6896 6895 6894 ] final  174.47 input  -60.11 | X-H torsion
[ 7974 7965 7964 7962 ] final  162.47 input  175.53 | X-H torsion
[ 8008 7997 7996 7995 ] final  150.43 input   59.86 | X-H torsion
[ 10167 10162 10161 10158 ] final  156.72 input  -65.29 | X-H torsion
[ 10718 10713 10712 10709 ] final    6.27 input   66.30 | X-H torsion
[ 10763 10752 10751 10750 ] final -156.08 input  -60.55 | X-H torsion
[ 11005 11000 10999 10996 ] final   65.05 input  -57.11 | X-H torsion

> <Gold.Protein.ActiveResidues>
 VAL166  LYS551  ARG553  GLY616  TRP617  ASP618  TYR619  PRO620  LYS621  CYS622 
 ASP623  PHE694  ASN695  SER759  ASP760  ASP761  ALA762  ILE779  LEU786  VAL792 
 PHE793  MET794  SER795  GLU796  ALA797  LYS798  CYS799  TRP800  GLU811  SER814 

> <Gold.Protein.RotatedAtoms>
  151.7518  133.3328  159.3393 H   0  0  0  0  0  0  0  0  0  0  0  0  # atno 6907 bound_to 6896
  150.7532  134.6185  159.6133 H   0  0  0  0  0  0  0  0  0  0  0  0  # atno 6908 bound_to 6896
  152.3463  134.7068  160.0301 H   0  0  0  0  0  0  0  0  0  0  0  0  # atno 6909 bound_to 6896
  144.7635  139.8044  143.6324 H   0  0  0  0  0  0  0  0  0  0  0  0  # atno 7974 bound_to 7965
  156.2716  140.2075  156.6016 H   0  0  0  0  0  0  0  0  0  0  0  0  # atno 8008 bound_to 7997
  154.6902  140.0531  157.0379 H   0  0  0  0  0  0  0  0  0  0  0  0  # atno 8009 bound_to 7997
  155.0877  140.3193  155.4585 H   0  0  0  0  0  0  0  0  0  0  0  0  # atno 8010 bound_to 7997
  139.4821  144.4983  151.8207 H   0  0  0  0  0  0  0  0  0  0  0  0  # atno 10167 bound_to 10162
  156.9198  130.5786  149.5647 H   0  0  0  0  0  0  0  0  0  0  0  0  # atno 10718 bound_to 10713
  154.7740  135.3154  154.8131 H   0  0  0  0  0  0  0  0  0  0  0  0  # atno 10763 bound_to 10752
  153.8859  135.6830  153.4768 H   0  0  0  0  0  0  0  0  0  0  0  0  # atno 10764 bound_to 10752
  153.1359  135.4760  154.9357 H   0  0  0  0  0  0  0  0  0  0  0  0  # atno 10765 bound_to 10752
  139.9919  134.6577  156.0075 H   0  0  0  0  0  0  0  0  0  0  0  0  # atno 11005 bound_to 11000
  146.1721  139.4876  142.9920 LP  0  0  0  0  0  0  0  0  0  0  0  0  # atno 17320 bound_to 7965
  145.6543  141.0256  143.1743 LP  0  0  0  0  0  0  0  0  0  0  0  0  # atno 17321 bound_to 7965
  140.4473  144.1903  150.5895 LP  0  0  0  0  0  0  0  0  0  0  0  0  # atno 17342 bound_to 10162
  140.4621  143.2445  151.9206 LP  0  0  0  0  0  0  0  0  0  0  0  0  # atno 17343 bound_to 10162
  156.0496  130.5568  150.8960 LP  0  0  0  0  0  0  0  0  0  0  0  0  # atno 17370 bound_to 10713
  157.5915  131.0944  150.9111 LP  0  0  0  0  0  0  0  0  0  0  0  0  # atno 17371 bound_to 10713
  141.1573  133.6541  156.4203 LP  0  0  0  0  0  0  0  0  0  0  0  0  # atno 17394 bound_to 11000
  140.4891  134.6592  157.5203 LP  0  0  0  0  0  0  0  0  0  0  0  0  # atno 17395 bound_to 11000

$$$$
