AV-unprocessed.smi:302|AV-procd|sdf|2272|dock2
  -GOLD-   2262022163D 1   1.00000     0.00000
 Structure written by MMmdl.
 44 45  0  0  0  0  0  0  0  0  1 V2000
  142.1385  141.8126  155.4214 C   0  0  0  0  0  0  0  0  0  0  0  0
  141.2093  140.8216  156.1253 C   0  0  0  0  0  0  0  0  0  0  0  0
  139.9581  140.8079  155.4466 O   0  0  0  0  0  0  0  0  0  0  0  0
  140.0024  140.4059  154.0787 C   0  0  2  0  0  0  0  0  0  0  0  0
  138.6452  140.7856  153.4511 C   0  0  0  0  0  0  0  0  0  0  0  0
  137.4332  140.1244  154.1249 C   0  0  0  0  0  0  0  0  0  0  0  0
  140.2971  138.8979  153.9823 C   0  0  0  0  0  0  0  0  0  0  0  0
  139.5222  138.0910  154.4954 O   0  0  0  0  0  0  0  0  0  0  0  0
  141.4371  138.5662  153.3484 N   0  0  0  0  0  0  0  0  0  0  0  0
  141.9857  137.2739  153.1323 C   0  0  0  0  0  0  0  0  0  0  0  0
  141.3476  136.0657  153.4955 C   0  0  0  0  0  0  0  0  0  0  0  0
  141.9917  134.8446  153.2188 C   0  0  0  0  0  0  0  0  0  0  0  0
  143.2531  134.8554  152.5776 C   0  0  0  0  0  0  0  0  0  0  0  0
  143.9209  133.6426  152.3000 N   0  0  0  0  0  0  0  0  0  0  0  0
  143.7922  133.1372  150.9354 C   0  0  0  0  0  0  0  0  0  0  0  0
  144.2728  131.6777  150.8593 C   0  0  0  0  0  0  0  0  0  0  0  0
  145.6009  131.5788  151.3630 O   0  0  0  0  0  0  0  0  0  0  0  0
  145.6797  131.9724  152.7288 C   0  0  0  0  0  0  0  0  0  0  0  0
  145.2523  133.4430  152.8695 C   0  0  0  0  0  0  0  0  0  0  0  0
  143.8557  136.0164  152.2210 N   0  0  0  0  0  0  0  0  0  0  0  0
  143.2339  137.1841  152.4856 C   0  0  0  0  0  0  0  0  0  0  0  0
  143.1120  141.8491  155.9110 H   0  0  0  0  0  0  0  0  0  0  0  0
  141.7195  142.8194  155.4351 H   0  0  0  0  0  0  0  0  0  0  0  0
  142.2974  141.5288  154.3807 H   0  0  0  0  0  0  0  0  0  0  0  0
  141.6544  139.8256  156.1124 H   0  0  0  0  0  0  0  0  0  0  0  0
  141.0894  141.1162  157.1684 H   0  0  0  0  0  0  0  0  0  0  0  0
  140.7851  140.9710  153.5684 H   0  0  0  0  0  0  0  0  0  0  0  0
  138.5181  141.8691  153.4580 H   0  0  0  0  0  0  0  0  0  0  0  0
  138.6545  140.4959  152.3999 H   0  0  0  0  0  0  0  0  0  0  0  0
  136.5128  140.3843  153.6018 H   0  0  0  0  0  0  0  0  0  0  0  0
  137.3223  140.4456  155.1608 H   0  0  0  0  0  0  0  0  0  0  0  0
  137.5231  139.0379  154.1174 H   0  0  0  0  0  0  0  0  0  0  0  0
  142.0165  139.3381  153.0516 H   0  0  0  0  0  0  0  0  0  0  0  0
  140.3791  136.0491  153.9707 H   0  0  0  0  0  0  0  0  0  0  0  0
  141.5180  133.9205  153.5141 H   0  0  0  0  0  0  0  0  0  0  0  0
  142.7654  133.1909  150.5776 H   0  0  0  0  0  0  0  0  0  0  0  0
  144.3919  133.7618  150.2721 H   0  0  0  0  0  0  0  0  0  0  0  0
  143.6091  131.0204  151.4235 H   0  0  0  0  0  0  0  0  0  0  0  0
  144.2589  131.3323  149.8255 H   0  0  0  0  0  0  0  0  0  0  0  0
  145.0515  131.3245  153.3423 H   0  0  0  0  0  0  0  0  0  0  0  0
  146.7046  131.8442  153.0774 H   0  0  0  0  0  0  0  0  0  0  0  0
  145.9651  134.0901  152.3563 H   0  0  0  0  0  0  0  0  0  0  0  0
  145.2587  133.7200  153.9244 H   0  0  0  0  0  0  0  0  0  0  0  0
  143.7573  138.0775  152.1776 H   0  0  0  0  0  0  0  0  0  0  0  0
  1  2  1  0  0  0  0
  1 22  1  0  0  0  0
  1 23  1  0  0  0  0
  1 24  1  0  0  0  0
  2  3  1  0  0  0  0
  2 25  1  0  0  0  0
  2 26  1  0  0  0  0
  3  4  1  0  0  0  0
  4  5  1  0  0  0  0
  4  7  1  0  0  0  0
  4 27  1  0  0  0  0
  5  6  1  0  0  0  0
  5 28  1  0  0  0  0
  5 29  1  0  0  0  0
  6 30  1  0  0  0  0
  6 31  1  0  0  0  0
  6 32  1  0  0  0  0
  7  8  2  0  0  0  0
  7  9  1  0  0  0  0
  9 10  1  0  0  0  0
  9 33  1  0  0  0  0
 10 21  1  0  0  0  0
 10 11  2  0  0  0  0
 11 12  1  0  0  0  0
 11 34  1  0  0  0  0
 12 13  2  0  0  0  0
 12 35  1  0  0  0  0
 13 14  1  0  0  0  0
 13 20  1  0  0  0  0
 14 19  1  0  0  0  0
 14 15  1  0  0  0  0
 15 16  1  0  0  0  0
 15 36  1  0  0  0  0
 15 37  1  0  0  0  0
 16 17  1  0  0  0  0
 16 38  1  0  0  0  0
 16 39  1  0  0  0  0
 17 18  1  0  0  0  0
 18 19  1  0  0  0  0
 18 40  1  0  0  0  0
 18 41  1  0  0  0  0
 19 42  1  0  0  0  0
 19 43  1  0  0  0  0
 20 21  2  0  0  0  0
 21 44  1  0  0  0  0
M  END
> <s_m_source_file>
AV-unprocessed.smi

> <i_m_source_file_index>
302

> <i_lp_mmshare_version>
43012

> <i_f3d_flags>
0

> <s_epik_input>
W0NIM11bQ0gyXU9bQ0BIXShbQ0gyXVtDSDNdKUMoPU8pW05IXWMxW2NIXVtjSF1jKG5bY0hdMSlOMltDSDJdW0NIMl1PW0NIMl1bQ0gyXTI=

> <s_epik_cmdline>
J2VwaWtfcHl0aG9uJywgJy1waCcsICc3LjAnLCAnLXRuJywgJzgnLCAnLW1hJywgJzIwMCcsICctbWV0YWxfYmluZGluZycsICctaW1hZScsICc8aW5maWxlLm1hZT4nLCAnLW9tYWUnLCAnPG91dGZpbGUubWFlPic=

> <r_lp_tautomer_probability>
1

> <r_epik_Ionization_Penalty>
0.000497413

> <r_epik_Ionization_Penalty_Charging>
0

> <r_epik_Ionization_Penalty_Neutral>
0.000497413

> <r_epik_State_Penalty>
0.000308489

> <r_epik_Charging_Adjusted_Penalty>
0.000308489

> <i_epik_Tot_Q>
0

> <i_epik_Tot_abs_Q>
0

> <r_epik_Metal_State_Penalty>
-0

> <b_epik_Metal_Only>
0

> <s_lp_Force_Field>
OPLS_2005

> <r_lp_Energy>
24.0205

> <b_lp_Chiralities_Consistent>
1

> <s_lp_Variant>
AV-unprocessed.smi:302-1

> <Gold.Version>
5.8.1

> <Gold.Id.Protein>
6NUR|6NUR_protein|mol2

> <Gold.PLP.Fitness>
38.5583

> <Gold.PLP.PLP>
-30.8463

> <Gold.PLP.part.hbond>
-1.0000

> <Gold.PLP.part.metal>
0.0000

> <Gold.PLP.part.buried>
-5.4203

> <Gold.PLP.part.nonpolar>
-23.9353

> <Gold.PLP.part.repulsive>
0.4930

> <Gold.PLP.ligand.clash>
0.0000

> <Gold.PLP.ligand.torsion>
0.3894

> <Gold.PLP.Chemscore.Hbond>
1.0000

> <Gold.PLP.Chemscore.CHOScore>
1.6889

> <Gold.PLP.Chemscore.Metal>
0.0000

> <Gold.Chemscore.Hbonds>
donor molecule, donor type, donor heavy atom, donor atom, acceptor molecule, acceptor atom, score
      L1  H     9    33       P1 10175  1.00
      L1  C    21    44       P1 10171  0.77
      L1  C    21    44       P1 10175  1.00

> <Gold.PLP.Chemscore.Internal.Correction>
0.4242

> <Gold.Rescore>
     Score         DG    S(hbond)    S(metal)    S(lipo)     H(rot)  DE(clash)    DE(int)     intcor
      9.04     -12.07       0.94        0.00      65.15       1.63       0.02       3.00       ----

> <Gold.Chemscore.Fitness>
9.0440

> <Gold.Chemscore.DG>
-12.0657

> <Gold.Chemscore.ZeroCoef>
-5.4800

> <Gold.Chemscore.Hbond>
0.9357

> <Gold.Chemscore.Metal>
0.0000

> <Gold.Chemscore.Lipo>
65.1548

> <Gold.Chemscore.Internal_Hbond>
0.0000

> <Gold.Chemscore.DEClash>
0.0240

> <Gold.Chemscore.DEInternal>
2.9977

> <Gold.Chemscore.Rot>
1.6260

> <Gold.Chemscore.Internal.Correction>
   9.000000E+99

> <Gold.Chemscore.Hbonds>
donor molecule, donor type, donor heavy atom, donor atom, acceptor molecule, acceptor atom, score
      L1  H     9    33       P1 10175  0.86

> <Gold.Chemscore.Hbond.Weighted>
-3.1251

> <Gold.Chemscore.Metal.Weighted>
-0.0000

> <Gold.Chemscore.Lipo.Weighted>
-7.6231

> <Gold.Chemscore.Internal_Hbond.Weighted>
0.0000

> <Gold.Chemscore.DEClash.Weighted>
0.0240

> <Gold.Chemscore.DEInternal.Weighted>
2.9977

> <Gold.Chemscore.Rot.Weighted>
4.1626

> <Gold.Chemscore.Internal.Correction.Weighted>
   9.000000E+99

> <Gold.Protein.RotatedTorsions>
[ 6907 6896 6895 6894 ] final   20.30 input  -60.11 | X-H torsion
[ 7974 7965 7964 7962 ] final  -78.05 input  175.53 | X-H torsion
[ 8008 7997 7996 7995 ] final  -11.77 input   59.86 | X-H torsion
[ 10167 10162 10161 10158 ] final  -45.16 input  -65.29 | X-H torsion
[ 10718 10713 10712 10709 ] final  -68.34 input   66.30 | X-H torsion
[ 10763 10752 10751 10750 ] final    5.54 input  -60.55 | X-H torsion
[ 11005 11000 10999 10996 ] final    8.29 input  -57.11 | X-H torsion

> <Gold.Protein.ActiveResidues>
 VAL166  LYS551  ARG553  GLY616  TRP617  ASP618  TYR619  PRO620  LYS621  CYS622 
 ASP623  PHE694  ASN695  SER759  ASP760  ASP761  ALA762  ILE779  LEU786  VAL792 
 PHE793  MET794  SER795  GLU796  ALA797  LYS798  CYS799  TRP800  GLU811  SER814 

> <Gold.Protein.RotatedAtoms>
  151.8942  135.0404  160.0500 H   0  0  0  0  0  0  0  0  0  0  0  0  # atno 6907 bound_to 6896
  152.2411  133.5132  159.5279 H   0  0  0  0  0  0  0  0  0  0  0  0  # atno 6908 bound_to 6896
  150.7054  134.1004  159.4006 H   0  0  0  0  0  0  0  0  0  0  0  0  # atno 6909 bound_to 6896
  145.5915  140.9428  143.1289 H   0  0  0  0  0  0  0  0  0  0  0  0  # atno 7974 bound_to 7965
  154.5435  140.2293  155.8602 H   0  0  0  0  0  0  0  0  0  0  0  0  # atno 8008 bound_to 7997
  156.1881  140.3084  155.9240 H   0  0  0  0  0  0  0  0  0  0  0  0  # atno 8009 bound_to 7997
  155.3211  140.0440  157.3030 H   0  0  0  0  0  0  0  0  0  0  0  0  # atno 8010 bound_to 7997
  140.6869  143.2893  151.3599 H   0  0  0  0  0  0  0  0  0  0  0  0  # atno 10167 bound_to 10162
  156.0510  130.4293  150.1986 H   0  0  0  0  0  0  0  0  0  0  0  0  # atno 10718 bound_to 10713
  153.2582  135.6920  153.7606 H   0  0  0  0  0  0  0  0  0  0  0  0  # atno 10763 bound_to 10752
  153.6675  135.3350  155.3145 H   0  0  0  0  0  0  0  0  0  0  0  0  # atno 10764 bound_to 10752
  154.8420  135.4492  154.1563 H   0  0  0  0  0  0  0  0  0  0  0  0  # atno 10765 bound_to 10752
  140.5386  134.0396  155.7897 H   0  0  0  0  0  0  0  0  0  0  0  0  # atno 11005 bound_to 11000
  144.7349  139.7615  143.7333 LP  0  0  0  0  0  0  0  0  0  0  0  0  # atno 17320 bound_to 7965
  146.1643  139.4769  142.9968 LP  0  0  0  0  0  0  0  0  0  0  0  0  # atno 17321 bound_to 7965
  139.6235  144.0860  152.2413 LP  0  0  0  0  0  0  0  0  0  0  0  0  # atno 17342 bound_to 10162
  140.0312  144.6080  150.7487 LP  0  0  0  0  0  0  0  0  0  0  0  0  # atno 17343 bound_to 10162
  157.0069  130.9939  151.3376 LP  0  0  0  0  0  0  0  0  0  0  0  0  # atno 17370 bound_to 10713
  157.5436  130.8136  149.8059 LP  0  0  0  0  0  0  0  0  0  0  0  0  # atno 17371 bound_to 10713
  141.1240  133.9414  157.2673 LP  0  0  0  0  0  0  0  0  0  0  0  0  # atno 17394 bound_to 11000
  139.9516  135.0174  156.9009 LP  0  0  0  0  0  0  0  0  0  0  0  0  # atno 17395 bound_to 11000

$$$$
