AV-unprocessed.smi:1669|AV-procd|sdf|6691|dock4
  -GOLD-   22720 7423D 1   1.00000     0.00000
 Structure written by MMmdl.
 49 51  0  0  0  0  0  0  0  0  3 V2000
  146.1794  132.3297  158.4442 C   0  0  0  0  0  0  0  0  0  0  0  0
  145.3605  133.5529  158.2701 N   0  3  1  0  0  0  0  0  0  0  0  0
  146.1199  134.7659  158.6722 C   0  0  0  0  0  0  0  0  0  0  0  0
  146.4829  134.7736  160.1480 C   0  0  0  0  0  0  0  0  0  0  0  0
  145.9059  133.8321  161.0279 C   0  0  0  0  0  0  0  0  0  0  0  0
  146.2525  133.8340  162.3928 C   0  0  0  0  0  0  0  0  0  0  0  0
  147.1729  134.7797  162.8844 C   0  0  0  0  0  0  0  0  0  0  0  0
  147.7467  135.7236  162.0108 C   0  0  0  0  0  0  0  0  0  0  0  0
  147.4022  135.7212  160.6451 C   0  0  0  0  0  0  0  0  0  0  0  0
  144.7569  133.6667  156.9131 C   0  0  0  0  0  0  0  0  0  0  0  0
  145.6716  133.1725  155.7695 C   0  0  1  0  0  0  0  0  0  0  0  0
  145.3109  131.8525  155.4156 O   0  0  0  0  0  0  0  0  0  0  0  0
  145.5694  134.0252  154.4866 C   0  0  0  0  0  0  0  0  0  0  0  0
  146.0647  133.3396  153.2810 N   0  0  0  0  0  0  0  0  0  0  0  0
  147.3151  132.8772  152.9887 C   0  0  0  0  0  0  0  0  0  0  0  0
  148.5293  132.9617  153.8536 C   0  0  0  0  0  0  0  0  0  0  0  0
  148.8461  134.2908  154.2021 O   0  0  0  0  0  0  0  0  0  0  0  0
  147.2552  132.3009  151.7555 N   0  3  0  0  0  0  0  0  0  0  0  0
  145.9566  132.3906  151.2535 C   0  0  0  0  0  0  0  0  0  0  0  0
  145.4144  131.9504  150.0500 C   0  0  0  0  0  0  0  0  0  0  0  0
  144.0418  132.2006  149.8447 C   0  0  0  0  0  0  0  0  0  0  0  0
  143.2636  132.8631  150.8157 C   0  0  0  0  0  0  0  0  0  0  0  0
  143.8240  133.3028  152.0330 C   0  0  0  0  0  0  0  0  0  0  0  0
  145.1833  133.0536  152.2291 C   0  0  0  0  0  0  0  0  0  0  0  0
  147.0002  132.3035  157.7263 H   0  0  0  0  0  0  0  0  0  0  0  0
  145.5843  131.4260  158.3198 H   0  0  0  0  0  0  0  0  0  0  0  0
  146.6054  132.2888  159.4472 H   0  0  0  0  0  0  0  0  0  0  0  0
  147.0498  134.8231  158.1044 H   0  0  0  0  0  0  0  0  0  0  0  0
  145.5482  135.6607  158.4205 H   0  0  0  0  0  0  0  0  0  0  0  0
  145.2011  133.1013  160.6583 H   0  0  0  0  0  0  0  0  0  0  0  0
  145.8122  133.1107  163.0634 H   0  0  0  0  0  0  0  0  0  0  0  0
  147.4381  134.7819  163.9317 H   0  0  0  0  0  0  0  0  0  0  0  0
  148.4516  136.4495  162.3889 H   0  0  0  0  0  0  0  0  0  0  0  0
  147.8482  136.4470  159.9805 H   0  0  0  0  0  0  0  0  0  0  0  0
  143.8395  133.0820  156.8676 H   0  0  0  0  0  0  0  0  0  0  0  0
  144.4682  134.7059  156.7510 H   0  0  0  0  0  0  0  0  0  0  0  0
  146.7119  133.1680  156.0921 H   0  0  0  0  0  0  0  0  0  0  0  0
  144.4350  131.8560  155.0612 H   0  0  0  0  0  0  0  0  0  0  0  0
  144.5285  134.2939  154.3014 H   0  0  0  0  0  0  0  0  0  0  0  0
  146.1019  134.9695  154.6013 H   0  0  0  0  0  0  0  0  0  0  0  0
  148.3676  132.3850  154.7645 H   0  0  0  0  0  0  0  0  0  0  0  0
  149.3786  132.5143  153.3376 H   0  0  0  0  0  0  0  0  0  0  0  0
  148.5327  134.8659  153.5205 H   0  0  0  0  0  0  0  0  0  0  0  0
  146.0078  131.4394  149.3057 H   0  0  0  0  0  0  0  0  0  0  0  0
  143.5763  131.8762  148.9250 H   0  0  0  0  0  0  0  0  0  0  0  0
  142.2139  133.0350  150.6241 H   0  0  0  0  0  0  0  0  0  0  0  0
  143.2127  133.8072  152.7663 H   0  0  0  0  0  0  0  0  0  0  0  0
  144.5919  133.4810  158.9217 H   0  0  0  0  0  0  0  0  0  0  0  0
  148.0467  131.8683  151.2964 H   0  0  0  0  0  0  0  0  0  0  0  0
  1  2  1  0  0  0  0
  1 25  1  0  0  0  0
  1 26  1  0  0  0  0
  1 27  1  0  0  0  0
  2  3  1  0  0  0  0
  2 10  1  0  0  0  0
  2 48  1  0  0  0  0
  3  4  1  0  0  0  0
  3 28  1  0  0  0  0
  3 29  1  0  0  0  0
  4  9  1  0  0  0  0
  4  5  2  0  0  0  0
  5  6  1  0  0  0  0
  5 30  1  0  0  0  0
  6  7  2  0  0  0  0
  6 31  1  0  0  0  0
  7  8  1  0  0  0  0
  7 32  1  0  0  0  0
  8  9  2  0  0  0  0
  8 33  1  0  0  0  0
  9 34  1  0  0  0  0
 10 11  1  0  0  0  0
 10 35  1  0  0  0  0
 10 36  1  0  0  0  0
 11 12  1  0  0  0  0
 11 13  1  0  0  0  0
 11 37  1  0  0  0  0
 12 38  1  0  0  0  0
 13 14  1  0  0  0  0
 13 39  1  0  0  0  0
 13 40  1  0  0  0  0
 14 24  1  0  0  0  0
 14 15  1  0  0  0  0
 15 16  1  0  0  0  0
 15 18  2  0  0  0  0
 16 17  1  0  0  0  0
 16 41  1  0  0  0  0
 16 42  1  0  0  0  0
 17 43  1  0  0  0  0
 18 19  1  0  0  0  0
 18 49  1  0  0  0  0
 19 24  2  0  0  0  0
 19 20  1  0  0  0  0
 20 21  2  0  0  0  0
 20 44  1  0  0  0  0
 21 22  1  0  0  0  0
 21 45  1  0  0  0  0
 22 23  2  0  0  0  0
 22 46  1  0  0  0  0
 23 24  1  0  0  0  0
 23 47  1  0  0  0  0
M  CHG  1   2   1
M  CHG  1  18   1
M  END
> <s_m_source_file>
AV-unprocessed.smi

> <i_m_source_file_index>
1669

> <i_lp_mmshare_version>
43012

> <i_f3d_flags>
0

> <s_epik_input>
W2NIXTFbY0hdW2NIXVtjSF1bY0hdYzFbQ0gyXU4oW0NIM10pW0NIMl1bQ0BIXShbT0hdKVtDSDJdbihjKG4yKVtDSDJdW09IXSljKGMyMylbY0hdW2NIXVtjSF1bY0hdMw==

> <s_epik_cmdline>
J2VwaWtfcHl0aG9uJywgJy1waCcsICc3LjAnLCAnLXRuJywgJzgnLCAnLW1hJywgJzIwMCcsICctbWV0YWxfYmluZGluZycsICctaW1hZScsICc8aW5maWxlLm1hZT4nLCAnLW9tYWUnLCAnPG91dGZpbGUubWFlPic=

> <r_epik_Ionization_Penalty>
1.57484

> <r_epik_Ionization_Penalty_Charging>
1.57398

> <r_epik_Ionization_Penalty_Neutral>
0.000858917

> <r_epik_State_Penalty>
1.64997

> <r_epik_Charging_Adjusted_Penalty>
3.22395

> <i_epik_Tot_Q>
2

> <i_epik_Tot_abs_Q>
2

> <r_epik_Metal_State_Penalty>
5.70481

> <b_epik_Metal_Only>
0

> <s_lp_Force_Field>
OPLS_2005

> <r_lp_Energy>
25.6323

> <b_lp_Chiralities_Consistent>
1

> <s_lp_Variant>
AV-unprocessed.smi:1669-9

> <Gold.Version>
5.8.1

> <Gold.Id.Protein>
6NUR|6NUR_protein|mol2

> <Gold.PLP.Fitness>
49.8416

> <Gold.PLP.PLP>
-42.8221

> <Gold.PLP.part.hbond>
-3.0000

> <Gold.PLP.part.metal>
0.0000

> <Gold.PLP.part.buried>
-5.9666

> <Gold.PLP.part.nonpolar>
-34.7846

> <Gold.PLP.part.repulsive>
0.0365

> <Gold.PLP.ligand.clash>
0.0000

> <Gold.PLP.ligand.torsion>
1.1838

> <Gold.PLP.Chemscore.Hbond>
2.9913

> <Gold.PLP.Chemscore.CHOScore>
0.0000

> <Gold.PLP.Chemscore.Metal>
0.0000

> <Gold.Chemscore.Hbonds>
donor molecule, donor type, donor heavy atom, donor atom, acceptor molecule, acceptor atom, score
      L1  H    12    38       P1 10957  1.00
      L1  H    17    43       P1  7948  0.67
      L1  H    18    49       P1 10747  1.00

> <Gold.PLP.Chemscore.Internal.Correction>
0.4133

> <Gold.Rescore>
     Score         DG    S(hbond)    S(metal)    S(lipo)     H(rot)  DE(clash)    DE(int)     intcor
     16.07     -17.43       2.57        0.00     100.46       3.27       0.01       1.35       ----

> <Gold.Chemscore.Fitness>
16.0729

> <Gold.Chemscore.DG>
-17.4328

> <Gold.Chemscore.ZeroCoef>
-5.4800

> <Gold.Chemscore.Hbond>
2.5672

> <Gold.Chemscore.Metal>
0.0000

> <Gold.Chemscore.Lipo>
100.4646

> <Gold.Chemscore.Internal_Hbond>
0.0000

> <Gold.Chemscore.DEClash>
0.0126

> <Gold.Chemscore.DEInternal>
1.3473

> <Gold.Chemscore.Rot>
3.2718

> <Gold.Chemscore.Internal.Correction>
   9.000000E+99

> <Gold.Chemscore.Hbonds>
donor molecule, donor type, donor heavy atom, donor atom, acceptor molecule, acceptor atom, score
      L1  H    12    38       P1 10957  0.30
      L1  H    17    43       P1  7948  0.46
      L1  H    18    49       P1 10747  1.00

> <Gold.Chemscore.Hbond.Weighted>
-8.5743

> <Gold.Chemscore.Metal.Weighted>
-0.0000

> <Gold.Chemscore.Lipo.Weighted>
-11.7544

> <Gold.Chemscore.Internal_Hbond.Weighted>
0.0000

> <Gold.Chemscore.DEClash.Weighted>
0.0126

> <Gold.Chemscore.DEInternal.Weighted>
1.3473

> <Gold.Chemscore.Rot.Weighted>
8.3759

> <Gold.Chemscore.Internal.Correction.Weighted>
   9.000000E+99

> <Gold.Protein.RotatedTorsions>
[ 6907 6896 6895 6894 ] final -146.86 input  -60.11 | X-H torsion
[ 7974 7965 7964 7962 ] final   81.05 input  175.53 | X-H torsion
[ 8008 7997 7996 7995 ] final  163.14 input   59.86 | X-H torsion
[ 10167 10162 10161 10158 ] final -165.05 input  -65.29 | X-H torsion
[ 10718 10713 10712 10709 ] final -149.75 input   66.30 | X-H torsion
[ 10763 10752 10751 10750 ] final   30.20 input  -60.55 | X-H torsion
[ 11005 11000 10999 10996 ] final   54.70 input  -57.11 | X-H torsion

> <Gold.Protein.ActiveResidues>
 VAL166  LYS551  ARG553  GLY616  TRP617  ASP618  TYR619  PRO620  LYS621  CYS622 
 ASP623  PHE694  ASN695  SER759  ASP760  ASP761  ALA762  ILE779  LEU786  VAL792 
 PHE793  MET794  SER795  GLU796  ALA797  LYS798  CYS799  TRP800  GLU811  SER814 

> <Gold.Protein.RotatedAtoms>
  151.1475  133.4929  159.2595 H   0  0  0  0  0  0  0  0  0  0  0  0  # atno 6907 bound_to 6896
  151.1589  135.0263  159.8711 H   0  0  0  0  0  0  0  0  0  0  0  0  # atno 6908 bound_to 6896
  152.5463  134.1351  159.8509 H   0  0  0  0  0  0  0  0  0  0  0  0  # atno 6909 bound_to 6896
  145.6432  139.2430  143.2019 H   0  0  0  0  0  0  0  0  0  0  0  0  # atno 7974 bound_to 7965
  156.1979  140.1731  156.7960 H   0  0  0  0  0  0  0  0  0  0  0  0  # atno 8008 bound_to 7997
  154.5554  140.0709  156.8765 H   0  0  0  0  0  0  0  0  0  0  0  0  # atno 8009 bound_to 7997
  155.2949  140.3358  155.4253 H   0  0  0  0  0  0  0  0  0  0  0  0  # atno 8010 bound_to 7997
  139.6208  144.0628  152.1931 H   0  0  0  0  0  0  0  0  0  0  0  0  # atno 10167 bound_to 10162
  156.4371  130.8104  151.2333 H   0  0  0  0  0  0  0  0  0  0  0  0  # atno 10718 bound_to 10713
  153.0385  135.6470  154.1008 H   0  0  0  0  0  0  0  0  0  0  0  0  # atno 10763 bound_to 10752
  154.0718  135.2880  155.3308 H   0  0  0  0  0  0  0  0  0  0  0  0  # atno 10764 bound_to 10752
  154.6589  135.5399  153.8057 H   0  0  0  0  0  0  0  0  0  0  0  0  # atno 10765 bound_to 10752
  140.0665  134.5529  155.9093 H   0  0  0  0  0  0  0  0  0  0  0  0  # atno 11005 bound_to 11000
  146.1264  140.7243  142.9433 LP  0  0  0  0  0  0  0  0  0  0  0  0  # atno 17320 bound_to 7965
  144.7149  140.4175  143.7052 LP  0  0  0  0  0  0  0  0  0  0  0  0  # atno 17321 bound_to 7965
  140.0269  144.6110  150.7520 LP  0  0  0  0  0  0  0  0  0  0  0  0  # atno 17342 bound_to 10162
  140.7381  143.2773  151.3702 LP  0  0  0  0  0  0  0  0  0  0  0  0  # atno 17343 bound_to 10162
  157.7507  131.0180  150.3607 LP  0  0  0  0  0  0  0  0  0  0  0  0  # atno 17370 bound_to 10713
  156.3957  130.3906  149.6997 LP  0  0  0  0  0  0  0  0  0  0  0  0  # atno 17371 bound_to 10713
  141.1995  133.6607  156.5846 LP  0  0  0  0  0  0  0  0  0  0  0  0  # atno 17394 bound_to 11000
  140.3691  134.7621  157.4586 LP  0  0  0  0  0  0  0  0  0  0  0  0  # atno 17395 bound_to 11000

$$$$
