AV-unprocessed.smi:411|AV-procd|sdf|2508|dock4
  -GOLD-   2262022453D 1   1.00000     0.00000
 Structure written by MMmdl.
 35 36  0  0  0  0  0  0  0  0  1 V2000
  149.3817  140.2530  157.3137 O   0  0  0  0  0  0  0  0  0  0  0  0
  149.5938  141.3454  156.7887 C   0  0  0  0  0  0  0  0  0  0  0  0
  151.0372  141.8745  156.7204 C   0  0  0  0  0  0  0  0  0  0  0  0
  151.6596  142.1516  158.0288 N   0  0  0  0  0  0  0  0  0  0  0  0
  151.2510  143.3238  158.6895 C   0  0  0  0  0  0  0  0  0  0  0  0
  151.7426  143.6661  159.8878 C   0  0  0  0  0  0  0  0  0  0  0  0
  152.7175  142.7962  160.4991 C   0  0  0  0  0  0  0  0  0  0  0  0
  153.1263  141.6589  159.8903 C   0  0  0  0  0  0  0  0  0  0  0  0
  154.1571  140.7270  160.5226 C   0  0  0  0  0  0  0  0  0  0  0  0
  153.7286  139.4648  160.4861 F   0  0  0  0  0  0  0  0  0  0  0  0
  155.3162  140.7925  159.8664 F   0  0  0  0  0  0  0  0  0  0  0  0
  154.3927  141.0414  161.7973 F   0  0  0  0  0  0  0  0  0  0  0  0
  152.5750  141.2893  158.5706 C   0  0  0  0  0  0  0  0  0  0  0  0
  152.9055  140.2580  157.9832 O   0  0  0  0  0  0  0  0  0  0  0  0
  148.6138  142.1024  156.2664 N   0  0  0  0  0  0  0  0  0  0  0  0
  147.1966  141.7613  156.2516 C   0  0  2  0  0  0  0  0  0  0  0  0
  146.5637  141.9702  154.8605 C   0  0  0  0  0  0  0  0  0  0  0  0
  145.0378  141.9740  155.0102 C   0  0  0  0  0  0  0  0  0  0  0  0
  144.6910  142.6507  156.6779 S   0  0  0  0  0  0  0  0  0  0  0  0
  144.2439  144.0470  156.5603 O   0  0  0  0  0  0  0  0  0  0  0  0
  143.9075  141.6659  157.4389 O   0  0  0  0  0  0  0  0  0  0  0  0
  146.4282  142.6282  157.2587 C   0  0  0  0  0  0  0  0  0  0  0  0
  151.6403  141.1613  156.1559 H   0  0  0  0  0  0  0  0  0  0  0  0
  151.0336  142.7783  156.1096 H   0  0  0  0  0  0  0  0  0  0  0  0
  150.5135  143.9154  158.1665 H   0  0  0  0  0  0  0  0  0  0  0  0
  151.4153  144.5677  160.3847 H   0  0  0  0  0  0  0  0  0  0  0  0
  153.1179  143.0727  161.4632 H   0  0  0  0  0  0  0  0  0  0  0  0
  148.8726  142.9854  155.8508 H   0  0  0  0  0  0  0  0  0  0  0  0
  147.0677  140.7159  156.5391 H   0  0  0  0  0  0  0  0  0  0  0  0
  146.8774  142.9376  154.4656 H   0  0  0  0  0  0  0  0  0  0  0  0
  146.8910  141.2145  154.1456 H   0  0  0  0  0  0  0  0  0  0  0  0
  144.5368  142.5709  154.2480 H   0  0  0  0  0  0  0  0  0  0  0  0
  144.6439  140.9581  154.9721 H   0  0  0  0  0  0  0  0  0  0  0  0
  146.4795  142.2448  158.2780 H   0  0  0  0  0  0  0  0  0  0  0  0
  146.7902  143.6570  157.2554 H   0  0  0  0  0  0  0  0  0  0  0  0
  1  2  2  0  0  0  0
  2  3  1  0  0  0  0
  2 15  1  0  0  0  0
  3  4  1  0  0  0  0
  3 23  1  0  0  0  0
  3 24  1  0  0  0  0
  4 13  1  0  0  0  0
  4  5  1  0  0  0  0
  5  6  2  0  0  0  0
  5 25  1  0  0  0  0
  6  7  1  0  0  0  0
  6 26  1  0  0  0  0
  7  8  2  0  0  0  0
  7 27  1  0  0  0  0
  8  9  1  0  0  0  0
  8 13  1  0  0  0  0
  9 10  1  0  0  0  0
  9 11  1  0  0  0  0
  9 12  1  0  0  0  0
 13 14  2  0  0  0  0
 15 16  1  0  0  0  0
 15 28  1  0  0  0  0
 16 22  1  0  0  0  0
 16 17  1  0  0  0  0
 16 29  1  0  0  0  0
 17 18  1  0  0  0  0
 17 30  1  0  0  0  0
 17 31  1  0  0  0  0
 18 19  1  0  0  0  0
 18 32  1  0  0  0  0
 18 33  1  0  0  0  0
 19 20  2  0  0  0  0
 19 21  2  0  0  0  0
 19 22  1  0  0  0  0
 22 34  1  0  0  0  0
 22 35  1  0  0  0  0
M  END
> <s_m_source_file>
AV-unprocessed.smi

> <i_m_source_file_index>
411

> <i_lp_mmshare_version>
43012

> <i_f3d_flags>
0

> <s_epik_input>
Tz1TMSg9TylbQ0gyXVtDSDJdW0NASF0oW0NIMl0xKVtOSF1DKD1PKVtDSDJdbjJbY0hdW2NIXVtjSF1jKEMoRikoRilGKWMyPU8=

> <s_epik_cmdline>
J2VwaWtfcHl0aG9uJywgJy1waCcsICc3LjAnLCAnLXRuJywgJzgnLCAnLW1hJywgJzIwMCcsICctbWV0YWxfYmluZGluZycsICctaW1hZScsICc8aW5maWxlLm1hZT4nLCAnLW9tYWUnLCAnPG91dGZpbGUubWFlPic=

> <r_lp_tautomer_probability>
1

> <r_epik_Ionization_Penalty>
1.08759e-07

> <r_epik_Ionization_Penalty_Charging>
1.56656e-09

> <r_epik_Ionization_Penalty_Neutral>
1.07193e-07

> <r_epik_State_Penalty>
-0

> <r_epik_Charging_Adjusted_Penalty>
1.56656e-09

> <i_epik_Tot_Q>
0

> <i_epik_Tot_abs_Q>
0

> <r_epik_Metal_State_Penalty>
-0

> <b_epik_Metal_Only>
0

> <s_lp_Force_Field>
OPLS_2005

> <r_lp_Energy>
11.8943

> <b_lp_Chiralities_Consistent>
1

> <s_lp_Variant>
AV-unprocessed.smi:411-1

> <Gold.Version>
5.8.1

> <Gold.Id.Protein>
6NUR|6NUR_protein|mol2

> <Gold.PLP.Fitness>
43.9044

> <Gold.PLP.PLP>
-39.0368

> <Gold.PLP.part.hbond>
-1.9651

> <Gold.PLP.part.metal>
0.0000

> <Gold.PLP.part.buried>
-4.3042

> <Gold.PLP.part.nonpolar>
-32.5698

> <Gold.PLP.part.repulsive>
0.1394

> <Gold.PLP.ligand.clash>
0.0000

> <Gold.PLP.ligand.torsion>
0.7184

> <Gold.PLP.Chemscore.Hbond>
1.9920

> <Gold.PLP.Chemscore.CHOScore>
0.0000

> <Gold.PLP.Chemscore.Metal>
0.0000

> <Gold.Chemscore.Hbonds>
donor molecule, donor type, donor heavy atom, donor atom, acceptor molecule, acceptor atom, score
      L1  H    15    28       P1  8028  1.00
      P1  H  7997  8010       L1    14  0.94

> <Gold.PLP.Chemscore.Internal.Correction>
0.3284

> <Gold.Rescore>
     Score         DG    S(hbond)    S(metal)    S(lipo)     H(rot)  DE(clash)    DE(int)     intcor
     13.68     -15.60       1.94        0.00      69.15       1.73       0.01       1.91       ----

> <Gold.Chemscore.Fitness>
13.6842

> <Gold.Chemscore.DG>
-15.6040

> <Gold.Chemscore.ZeroCoef>
-5.4800

> <Gold.Chemscore.Hbond>
1.9360

> <Gold.Chemscore.Metal>
0.0000

> <Gold.Chemscore.Lipo>
69.1478

> <Gold.Chemscore.Internal_Hbond>
0.0000

> <Gold.Chemscore.DEClash>
0.0053

> <Gold.Chemscore.DEInternal>
1.9145

> <Gold.Chemscore.Rot>
1.7314

> <Gold.Chemscore.Internal.Correction>
   9.000000E+99

> <Gold.Chemscore.Hbonds>
donor molecule, donor type, donor heavy atom, donor atom, acceptor molecule, acceptor atom, score
      L1  H    15    28       P1  8028  0.99
      P1  H  7997  8010       L1    14  0.90

> <Gold.Chemscore.Hbond.Weighted>
-6.4661

> <Gold.Chemscore.Metal.Weighted>
-0.0000

> <Gold.Chemscore.Lipo.Weighted>
-8.0903

> <Gold.Chemscore.Internal_Hbond.Weighted>
0.0000

> <Gold.Chemscore.DEClash.Weighted>
0.0053

> <Gold.Chemscore.DEInternal.Weighted>
1.9145

> <Gold.Chemscore.Rot.Weighted>
4.4324

> <Gold.Chemscore.Internal.Correction.Weighted>
   9.000000E+99

> <Gold.Protein.RotatedTorsions>
[ 6907 6896 6895 6894 ] final   45.68 input  -60.11 | X-H torsion
[ 7974 7965 7964 7962 ] final -126.81 input  175.53 | X-H torsion
[ 8008 7997 7996 7995 ] final   44.55 input   59.86 | X-H torsion
[ 10167 10162 10161 10158 ] final   -6.45 input  -65.29 | X-H torsion
[ 10718 10713 10712 10709 ] final -125.21 input   66.30 | X-H torsion
[ 10763 10752 10751 10750 ] final  -33.88 input  -60.55 | X-H torsion
[ 11005 11000 10999 10996 ] final  -92.76 input  -57.11 | X-H torsion

> <Gold.Protein.ActiveResidues>
 VAL166  LYS551  ARG553  GLY616  TRP617  ASP618  TYR619  PRO620  LYS621  CYS622 
 ASP623  PHE694  ASN695  SER759  ASP760  ASP761  ALA762  ILE779  LEU786  VAL792 
 PHE793  MET794  SER795  GLU796  ALA797  LYS798  CYS799  TRP800  GLU811  SER814 

> <Gold.Protein.RotatedAtoms>
  152.2474  134.8167  160.0450 H   0  0  0  0  0  0  0  0  0  0  0  0  # atno 6907 bound_to 6896
  151.8859  133.3500  159.3790 H   0  0  0  0  0  0  0  0  0  0  0  0  # atno 6908 bound_to 6896
  150.7073  134.4898  159.5554 H   0  0  0  0  0  0  0  0  0  0  0  0  # atno 6909 bound_to 6896
  144.9835  140.7663  143.4598 H   0  0  0  0  0  0  0  0  0  0  0  0  # atno 7974 bound_to 7965
  155.3211  140.3397  155.4241 H   0  0  0  0  0  0  0  0  0  0  0  0  # atno 8008 bound_to 7997
  156.1908  140.1697  156.8132 H   0  0  0  0  0  0  0  0  0  0  0  0  # atno 8009 bound_to 7997
  154.5440  140.0719  156.8542 H   0  0  0  0  0  0  0  0  0  0  0  0  # atno 8010 bound_to 7997
  140.6997  143.6193  150.8628 H   0  0  0  0  0  0  0  0  0  0  0  0  # atno 10167 bound_to 10162
  156.1656  130.6632  151.0110 H   0  0  0  0  0  0  0  0  0  0  0  0  # atno 10718 bound_to 10713
  153.8376  135.6860  153.4807 H   0  0  0  0  0  0  0  0  0  0  0  0  # atno 10763 bound_to 10752
  153.1473  135.4632  154.9583 H   0  0  0  0  0  0  0  0  0  0  0  0  # atno 10764 bound_to 10752
  154.7859  135.3284  154.7833 H   0  0  0  0  0  0  0  0  0  0  0  0  # atno 10765 bound_to 10752
  141.1514  133.7842  157.0065 H   0  0  0  0  0  0  0  0  0  0  0  0  # atno 11005 bound_to 11000
  145.2387  139.2082  143.5004 LP  0  0  0  0  0  0  0  0  0  0  0  0  # atno 17320 bound_to 7965
  146.3414  140.2278  142.8592 LP  0  0  0  0  0  0  0  0  0  0  0  0  # atno 17321 bound_to 7965
  139.9914  143.5843  152.2909 LP  0  0  0  0  0  0  0  0  0  0  0  0  # atno 17342 bound_to 10162
  139.6499  144.7660  151.2168 LP  0  0  0  0  0  0  0  0  0  0  0  0  # atno 17343 bound_to 10162
  157.6765  131.0849  150.7481 LP  0  0  0  0  0  0  0  0  0  0  0  0  # atno 17370 bound_to 10713
  156.7542  130.4778  149.5450 LP  0  0  0  0  0  0  0  0  0  0  0  0  # atno 17371 bound_to 10713
  140.0906  134.9595  157.1770 LP  0  0  0  0  0  0  0  0  0  0  0  0  # atno 17394 bound_to 11000
  140.3451  134.2660  155.7206 LP  0  0  0  0  0  0  0  0  0  0  0  0  # atno 17395 bound_to 11000

$$$$
