AV-unprocessed.smi:62|AV-procd|sdf|604|dock10
  -GOLD-   2262016503D 1   1.00000     0.00000
 Structure written by MMmdl.
 31 32  0  0  0  0  0  0  0  0  3 V2000
  150.6334  144.3640  159.5916 C   0  0  0  0  0  0  0  0  0  0  0  0
  151.1335  143.1792  158.9281 N   0  0  0  0  0  0  0  0  0  0  0  0
  150.9085  142.7539  157.6399 C   0  0  0  0  0  0  0  0  0  0  0  0
  151.5864  141.5801  157.4532 C   0  0  0  0  0  0  0  0  0  0  0  0
  151.6130  140.7920  156.1622 C   0  0  0  0  0  0  0  0  0  0  0  0
  150.2673  140.2675  155.8301 N   0  3  2  0  0  0  0  0  0  0  0  0
  150.2597  138.9138  155.2271 C   0  0  0  0  0  0  0  0  0  0  0  0
  149.1545  138.9088  154.1602 C   0  0  0  0  0  0  0  0  0  0  0  0
  148.3666  140.1926  154.4171 C   0  0  2  0  0  0  0  0  0  0  0  0
  147.7670  140.6900  153.2395 O   0  0  0  0  0  0  0  0  0  0  0  0
  149.4314  141.1327  154.9731 C   0  0  0  0  0  0  0  0  0  0  0  0
  152.2040  141.3598  158.7338 C   0  0  0  0  0  0  0  0  0  0  0  0
  153.0671  140.1639  159.0377 C   0  0  0  0  0  0  0  0  0  0  0  0
  153.3283  139.3322  158.1425 O   0  0  0  0  0  0  0  0  0  0  0  0
  153.5023  140.0403  160.2034 O   0  5  0  0  0  0  0  0  0  0  0  0
  151.9291  142.3275  159.5985 N   0  0  0  0  0  0  0  0  0  0  0  0
  150.2250  145.0592  158.8574 H   0  0  0  0  0  0  0  0  0  0  0  0
  151.4408  144.8569  160.1343 H   0  0  0  0  0  0  0  0  0  0  0  0
  149.8472  144.0861  160.2940 H   0  0  0  0  0  0  0  0  0  0  0  0
  150.2899  143.3210  156.9599 H   0  0  0  0  0  0  0  0  0  0  0  0
  152.0236  141.3435  155.3184 H   0  0  0  0  0  0  0  0  0  0  0  0
  152.2770  139.9349  156.2811 H   0  0  0  0  0  0  0  0  0  0  0  0
  151.2215  138.6696  154.7733 H   0  0  0  0  0  0  0  0  0  0  0  0
  150.0640  138.1783  156.0077 H   0  0  0  0  0  0  0  0  0  0  0  0
  149.6142  138.9408  153.1708 H   0  0  0  0  0  0  0  0  0  0  0  0
  148.5279  138.0175  154.2043 H   0  0  0  0  0  0  0  0  0  0  0  0
  147.5993  140.0135  155.1717 H   0  0  0  0  0  0  0  0  0  0  0  0
  148.3238  140.4825  152.5041 H   0  0  0  0  0  0  0  0  0  0  0  0
  149.0101  141.9744  155.5241 H   0  0  0  0  0  0  0  0  0  0  0  0
  150.0343  141.5246  154.1532 H   0  0  0  0  0  0  0  0  0  0  0  0
  149.7666  140.1778  156.7023 H   0  0  0  0  0  0  0  0  0  0  0  0
  1  2  1  0  0  0  0
  1 17  1  0  0  0  0
  1 18  1  0  0  0  0
  1 19  1  0  0  0  0
  2 16  1  0  0  0  0
  2  3  1  0  0  0  0
  3  4  2  0  0  0  0
  3 20  1  0  0  0  0
  4  5  1  0  0  0  0
  4 12  1  0  0  0  0
  5  6  1  0  0  0  0
  5 21  1  0  0  0  0
  5 22  1  0  0  0  0
  6 11  1  0  0  0  0
  6  7  1  0  0  0  0
  6 31  1  0  0  0  0
  7  8  1  0  0  0  0
  7 23  1  0  0  0  0
  7 24  1  0  0  0  0
  8  9  1  0  0  0  0
  8 25  1  0  0  0  0
  8 26  1  0  0  0  0
  9 10  1  0  0  0  0
  9 11  1  0  0  0  0
  9 27  1  0  0  0  0
 10 28  1  0  0  0  0
 11 29  1  0  0  0  0
 11 30  1  0  0  0  0
 12 13  1  0  0  0  0
 12 16  2  0  0  0  0
 13 14  2  0  0  0  0
 13 15  1  0  0  0  0
M  CHG  1   6   1
M  CHG  1  15  -1
M  END
> <s_m_source_file>
AV-unprocessed.smi

> <i_m_source_file_index>
62

> <i_lp_mmshare_version>
43012

> <i_f3d_flags>
0

> <s_epik_input>
W0NIM11uMVtjSF1jKGMobjEpQyg9TylbT0hdKVtDSDJdTjJbQ0gyXVtDSDJdW0NAQEhdKFtPSF0pW0NIMl0y

> <s_epik_cmdline>
J2VwaWtfcHl0aG9uJywgJy1waCcsICc3LjAnLCAnLXRuJywgJzgnLCAnLW1hJywgJzIwMCcsICctbWV0YWxfYmluZGluZycsICctaW1hZScsICc8aW5maWxlLm1hZT4nLCAnLW9tYWUnLCAnPG91dGZpbGUubWFlPic=

> <r_epik_Ionization_Penalty>
0.0522993

> <r_epik_Ionization_Penalty_Charging>
0.0522915

> <r_epik_Ionization_Penalty_Neutral>
7.84975e-06

> <r_epik_State_Penalty>
0.0448084

> <r_epik_Charging_Adjusted_Penalty>
0.0970998

> <i_epik_Tot_Q>
0

> <i_epik_Tot_abs_Q>
2

> <r_epik_Metal_State_Penalty>
0.0448097

> <b_epik_Metal_Only>
0

> <s_lp_Force_Field>
OPLS_2005

> <r_lp_Energy>
19.3538

> <b_lp_Chiralities_Consistent>
1

> <s_lp_Variant>
AV-unprocessed.smi:62-4

> <Gold.Version>
5.8.1

> <Gold.Id.Protein>
6NUR|6NUR_protein|mol2

> <Gold.PLP.Fitness>
37.8086

> <Gold.PLP.PLP>
-26.7818

> <Gold.PLP.part.hbond>
-2.0000

> <Gold.PLP.part.metal>
0.0000

> <Gold.PLP.part.buried>
-4.9386

> <Gold.PLP.part.nonpolar>
-19.4537

> <Gold.PLP.part.repulsive>
0.0807

> <Gold.PLP.ligand.clash>
0.0000

> <Gold.PLP.ligand.torsion>
0.4915

> <Gold.PLP.Chemscore.Hbond>
3.0000

> <Gold.PLP.Chemscore.CHOScore>
1.0000

> <Gold.PLP.Chemscore.Metal>
0.0000

> <Gold.Chemscore.Hbonds>
donor molecule, donor type, donor heavy atom, donor atom, acceptor molecule, acceptor atom, score
      L1  H    10    28       P1  7957  1.00
      P1  H  7997  8009       L1    14  2.00
      L1  C     3    20       P1  8028  1.00

> <Gold.PLP.Chemscore.Internal.Correction>
0.0099

> <Gold.Rescore>
     Score         DG    S(hbond)    S(metal)    S(lipo)     H(rot)  DE(clash)    DE(int)     intcor
     13.45     -15.15       1.98        0.00      65.74       1.81       0.18       1.51       ----

> <Gold.Chemscore.Fitness>
13.4479

> <Gold.Chemscore.DG>
-15.1459

> <Gold.Chemscore.ZeroCoef>
-5.4800

> <Gold.Chemscore.Hbond>
1.9776

> <Gold.Chemscore.Metal>
0.0000

> <Gold.Chemscore.Lipo>
65.7447

> <Gold.Chemscore.Internal_Hbond>
0.0000

> <Gold.Chemscore.DEClash>
0.1844

> <Gold.Chemscore.DEInternal>
1.5135

> <Gold.Chemscore.Rot>
1.8091

> <Gold.Chemscore.Internal.Correction>
   9.000000E+99

> <Gold.Chemscore.Hbonds>
donor molecule, donor type, donor heavy atom, donor atom, acceptor molecule, acceptor atom, score
      L1  H    10    28       P1  7957  1.00
      P1  H  7997  8009       L1    14  0.70

> <Gold.Chemscore.Hbond.Weighted>
-6.6051

> <Gold.Chemscore.Metal.Weighted>
-0.0000

> <Gold.Chemscore.Lipo.Weighted>
-7.6921

> <Gold.Chemscore.Internal_Hbond.Weighted>
0.0000

> <Gold.Chemscore.DEClash.Weighted>
0.1844

> <Gold.Chemscore.DEInternal.Weighted>
1.5135

> <Gold.Chemscore.Rot.Weighted>
4.6314

> <Gold.Chemscore.Internal.Correction.Weighted>
   9.000000E+99

> <Gold.Protein.RotatedTorsions>
[ 6907 6896 6895 6894 ] final  111.10 input  -60.11 | X-H torsion
[ 7974 7965 7964 7962 ] final  110.93 input  175.53 | X-H torsion
[ 8008 7997 7996 7995 ] final  156.43 input   59.86 | X-H torsion
[ 10167 10162 10161 10158 ] final   17.63 input  -65.29 | X-H torsion
[ 10718 10713 10712 10709 ] final   23.62 input   66.30 | X-H torsion
[ 10763 10752 10751 10750 ] final  -47.42 input  -60.55 | X-H torsion
[ 11005 11000 10999 10996 ] final -173.98 input  -57.11 | X-H torsion

> <Gold.Protein.ActiveResidues>
 VAL166  LYS551  ARG553  GLY616  TRP617  ASP618  TYR619  PRO620  LYS621  CYS622 
 ASP623  PHE694  ASN695  SER759  ASP760  ASP761  ALA762  ILE779  LEU786  VAL792 
 PHE793  MET794  SER795  GLU796  ALA797  LYS798  CYS799  TRP800  GLU811  SER814 

> <Gold.Protein.RotatedAtoms>
  152.4986  133.8706  159.7296 H   0  0  0  0  0  0  0  0  0  0  0  0  # atno 6907 bound_to 6896
  150.9194  133.6891  159.2842 H   0  0  0  0  0  0  0  0  0  0  0  0  # atno 6908 bound_to 6896
  151.4273  135.1009  159.9684 H   0  0  0  0  0  0  0  0  0  0  0  0  # atno 6909 bound_to 6896
  145.2487  139.2748  143.4079 H   0  0  0  0  0  0  0  0  0  0  0  0  # atno 7974 bound_to 7965
  156.2423  140.1912  156.6954 H   0  0  0  0  0  0  0  0  0  0  0  0  # atno 8008 bound_to 7997
  154.6221  140.0607  156.9654 H   0  0  0  0  0  0  0  0  0  0  0  0  # atno 8009 bound_to 7997
  155.1846  140.3279  155.4372 H   0  0  0  0  0  0  0  0  0  0  0  0  # atno 8010 bound_to 7997
  140.5712  143.9157  150.6714 H   0  0  0  0  0  0  0  0  0  0  0  0  # atno 10167 bound_to 10162
  157.1685  130.6749  149.6069 H   0  0  0  0  0  0  0  0  0  0  0  0  # atno 10718 bound_to 10713
  154.0611  135.6618  153.4812 H   0  0  0  0  0  0  0  0  0  0  0  0  # atno 10763 bound_to 10752
  153.0426  135.5135  154.7658 H   0  0  0  0  0  0  0  0  0  0  0  0  # atno 10764 bound_to 10752
  154.6695  135.3027  154.9728 H   0  0  0  0  0  0  0  0  0  0  0  0  # atno 10765 bound_to 10752
  140.4797  134.6087  157.4914 H   0  0  0  0  0  0  0  0  0  0  0  0  # atno 11005 bound_to 11000
  146.3308  140.2872  142.8613 LP  0  0  0  0  0  0  0  0  0  0  0  0  # atno 17320 bound_to 7965
  144.9522  140.8190  143.5565 LP  0  0  0  0  0  0  0  0  0  0  0  0  # atno 17321 bound_to 7965
  140.2633  143.3508  152.1303 LP  0  0  0  0  0  0  0  0  0  0  0  0  # atno 17342 bound_to 10162
  139.5118  144.6907  151.5767 LP  0  0  0  0  0  0  0  0  0  0  0  0  # atno 17343 bound_to 10162
  155.9742  130.4687  150.6369 LP  0  0  0  0  0  0  0  0  0  0  0  0  # atno 17370 bound_to 10713
  157.4065  131.0817  151.1260 LP  0  0  0  0  0  0  0  0  0  0  0  0  # atno 17371 bound_to 10713
  139.9834  134.7100  155.9818 LP  0  0  0  0  0  0  0  0  0  0  0  0  # atno 17394 bound_to 11000
  141.1537  133.6545  156.4094 LP  0  0  0  0  0  0  0  0  0  0  0  0  # atno 17395 bound_to 11000

$$$$
