AV-unprocessed.smi:1897|AV-procd|sdf|7691|dock10
  -GOLD-   22720 9433D 1   1.00000     0.00000
 Structure written by MMmdl.
 39 41  0  0  0  0  0  0  0  0  2 V2000
  152.1069  130.5385  157.5308 C   0  0  0  0  0  0  0  0  0  0  0  0
  151.3691  131.6458  156.8588 C   0  0  0  0  0  0  0  0  0  0  0  0
  151.2590  132.8683  157.3920 N   0  0  0  0  0  0  0  0  0  0  0  0
  150.5276  133.7288  156.5863 N   0  0  0  0  0  0  0  0  0  0  0  0
  150.0960  133.1278  155.4677 C   0  0  0  0  0  0  0  0  0  0  0  0
  149.3304  133.7664  154.4482 N   0  0  0  0  0  0  0  0  0  0  0  0
  148.0483  133.6069  154.0557 C   0  0  0  0  0  0  0  0  0  0  0  0
  147.3124  132.7927  154.6104 O   0  0  0  0  0  0  0  0  0  0  0  0
  147.6338  134.3843  153.0418 N   0  0  0  0  0  0  0  0  0  0  0  0
  146.2991  134.3752  152.4526 C   0  0  1  0  0  0  0  0  0  0  0  0
  145.7331  135.7738  152.2377 C   0  0  0  0  0  0  0  0  0  0  0  0
  144.6372  135.5219  151.2009 C   0  0  0  0  0  0  0  0  0  0  0  0
  145.1333  134.4208  150.3436 N   0  3  2  0  0  0  0  0  0  0  0  0
  144.0807  133.4968  149.8549 C   0  0  0  0  0  0  0  0  0  0  0  0
  144.6909  132.3997  148.9628 C   0  0  0  0  0  0  0  0  0  0  0  0
  145.9041  131.6987  149.6093 C   0  0  0  0  0  0  0  0  0  0  0  0
  146.2062  132.2302  151.0192 C   0  0  0  0  0  0  0  0  0  0  0  0
  146.2835  133.7738  151.0371 C   0  0  2  0  0  0  0  0  0  0  0  0
  150.5709  131.4452  155.3037 S   0  0  0  0  0  0  0  0  0  0  0  0
  152.9796  130.9279  158.0560 H   0  0  0  0  0  0  0  0  0  0  0  0
  152.4418  129.8063  156.7959 H   0  0  0  0  0  0  0  0  0  0  0  0
  151.4566  130.0407  158.2502 H   0  0  0  0  0  0  0  0  0  0  0  0
  149.8312  134.4851  153.9454 H   0  0  0  0  0  0  0  0  0  0  0  0
  148.3024  135.0298  152.6449 H   0  0  0  0  0  0  0  0  0  0  0  0
  145.6039  133.8302  153.0949 H   0  0  0  0  0  0  0  0  0  0  0  0
  145.3529  136.2255  153.1545 H   0  0  0  0  0  0  0  0  0  0  0  0
  146.4950  136.4358  151.8228 H   0  0  0  0  0  0  0  0  0  0  0  0
  143.7241  135.2125  151.7125 H   0  0  0  0  0  0  0  0  0  0  0  0
  144.4047  136.4107  150.6138 H   0  0  0  0  0  0  0  0  0  0  0  0
  143.5630  133.0460  150.7033 H   0  0  0  0  0  0  0  0  0  0  0  0
  143.3334  134.0606  149.2956 H   0  0  0  0  0  0  0  0  0  0  0  0
  143.9243  131.6641  148.7164 H   0  0  0  0  0  0  0  0  0  0  0  0
  144.9999  132.8389  148.0134 H   0  0  0  0  0  0  0  0  0  0  0  0
  145.7396  130.6212  149.6480 H   0  0  0  0  0  0  0  0  0  0  0  0
  146.7806  131.8469  148.9772 H   0  0  0  0  0  0  0  0  0  0  0  0
  145.4317  131.8857  151.7059 H   0  0  0  0  0  0  0  0  0  0  0  0
  147.1413  131.8028  151.3822 H   0  0  0  0  0  0  0  0  0  0  0  0
  147.1773  134.0918  150.4976 H   0  0  0  0  0  0  0  0  0  0  0  0
  145.5291  134.8550  149.5219 H   0  0  0  0  0  0  0  0  0  0  0  0
  1  2  1  0  0  0  0
  1 20  1  0  0  0  0
  1 21  1  0  0  0  0
  1 22  1  0  0  0  0
  2 19  1  0  0  0  0
  2  3  2  0  0  0  0
  3  4  1  0  0  0  0
  4  5  2  0  0  0  0
  5  6  1  0  0  0  0
  5 19  1  0  0  0  0
  6  7  1  0  0  0  0
  6 23  1  0  0  0  0
  7  8  2  0  0  0  0
  7  9  1  0  0  0  0
  9 10  1  0  0  0  0
  9 24  1  0  0  0  0
 10 18  1  0  0  0  0
 10 11  1  0  0  0  0
 10 25  1  0  0  0  0
 11 12  1  0  0  0  0
 11 26  1  0  0  0  0
 11 27  1  0  0  0  0
 12 13  1  0  0  0  0
 12 28  1  0  0  0  0
 12 29  1  0  0  0  0
 13 18  1  0  0  0  0
 13 14  1  0  0  0  0
 13 39  1  0  0  0  0
 14 15  1  0  0  0  0
 14 30  1  0  0  0  0
 14 31  1  0  0  0  0
 15 16  1  0  0  0  0
 15 32  1  0  0  0  0
 15 33  1  0  0  0  0
 16 17  1  0  0  0  0
 16 34  1  0  0  0  0
 16 35  1  0  0  0  0
 17 18  1  0  0  0  0
 17 36  1  0  0  0  0
 17 37  1  0  0  0  0
 18 38  1  0  0  0  0
M  CHG  1  13   1
M  END
> <s_m_source_file>
AV-unprocessed.smi

> <i_m_source_file_index>
1897

> <i_lp_mmshare_version>
43012

> <i_f3d_flags>
0

> <s_epik_input>
W0NIM11jMW5uYyhzMSlbTkhdQyg9TylbTkhdW0NASF0oW0NIMl1bQ0gyXTIpW0NAQEhdKE4yMylbQ0gyXVtDSDJdW0NIMl1bQ0gyXTM=

> <s_epik_cmdline>
J2VwaWtfcHl0aG9uJywgJy1waCcsICc3LjAnLCAnLXRuJywgJzgnLCAnLW1hJywgJzIwMCcsICctbWV0YWxfYmluZGluZycsICctaW1hZScsICc8aW5maWxlLm1hZT4nLCAnLW9tYWUnLCAnPG91dGZpbGUubWFlPic=

> <r_lp_tautomer_probability>
1

> <r_epik_Ionization_Penalty>
0.00228891

> <r_epik_Ionization_Penalty_Charging>
0.00107044

> <r_epik_Ionization_Penalty_Neutral>
0.00121847

> <r_epik_State_Penalty>
-0

> <r_epik_Charging_Adjusted_Penalty>
0.00107044

> <i_epik_Tot_Q>
1

> <i_epik_Tot_abs_Q>
1

> <r_epik_Metal_State_Penalty>
0.304057

> <b_epik_Metal_Only>
0

> <s_lp_Force_Field>
OPLS_2005

> <r_lp_Energy>
41.04

> <b_lp_Chiralities_Consistent>
1

> <s_lp_Variant>
AV-unprocessed.smi:1897-8

> <Gold.Version>
5.8.1

> <Gold.Id.Protein>
6NUR|6NUR_protein|mol2

> <Gold.PLP.Fitness>
37.5485

> <Gold.PLP.PLP>
-30.1633

> <Gold.PLP.part.hbond>
-2.9626

> <Gold.PLP.part.metal>
0.0000

> <Gold.PLP.part.buried>
-1.4115

> <Gold.PLP.part.nonpolar>
-25.6477

> <Gold.PLP.part.repulsive>
0.0922

> <Gold.PLP.ligand.clash>
0.0000

> <Gold.PLP.ligand.torsion>
0.7994

> <Gold.PLP.Chemscore.Hbond>
2.9920

> <Gold.PLP.Chemscore.CHOScore>
0.0000

> <Gold.PLP.Chemscore.Metal>
0.0000

> <Gold.Chemscore.Hbonds>
donor molecule, donor type, donor heavy atom, donor atom, acceptor molecule, acceptor atom, score
      L1  H     9    24       P1  7948  1.00
      L1  H    13    39       P1  7921  1.00
      P1  H  6896  6908       L1     3  0.99

> <Gold.PLP.Chemscore.Internal.Correction>
0.0080

> <Gold.Rescore>
     Score         DG    S(hbond)    S(metal)    S(lipo)     H(rot)  DE(clash)    DE(int)     intcor
     20.40     -21.22       2.76        0.00      77.70       1.00       0.14       0.68       ----

> <Gold.Chemscore.Fitness>
20.4020

> <Gold.Chemscore.DG>
-21.2229

> <Gold.Chemscore.ZeroCoef>
-5.4800

> <Gold.Chemscore.Hbond>
2.7581

> <Gold.Chemscore.Metal>
0.0000

> <Gold.Chemscore.Lipo>
77.7006

> <Gold.Chemscore.Internal_Hbond>
0.0000

> <Gold.Chemscore.DEClash>
0.1402

> <Gold.Chemscore.DEInternal>
0.6807

> <Gold.Chemscore.Rot>
1.0000

> <Gold.Chemscore.Internal.Correction>
   9.000000E+99

> <Gold.Chemscore.Hbonds>
donor molecule, donor type, donor heavy atom, donor atom, acceptor molecule, acceptor atom, score
      L1  H     9    24       P1  7948  0.70
      L1  H    13    39       P1  7921  0.94
      P1  H  6896  6908       L1     3  0.85

> <Gold.Chemscore.Hbond.Weighted>
-9.2119

> <Gold.Chemscore.Metal.Weighted>
-0.0000

> <Gold.Chemscore.Lipo.Weighted>
-9.0910

> <Gold.Chemscore.Internal_Hbond.Weighted>
0.0000

> <Gold.Chemscore.DEClash.Weighted>
0.1402

> <Gold.Chemscore.DEInternal.Weighted>
0.6807

> <Gold.Chemscore.Rot.Weighted>
2.5600

> <Gold.Chemscore.Internal.Correction.Weighted>
   9.000000E+99

> <Gold.Protein.RotatedTorsions>
[ 6907 6896 6895 6894 ] final   77.91 input  -60.11 | X-H torsion
[ 7974 7965 7964 7962 ] final -136.39 input  175.53 | X-H torsion
[ 8008 7997 7996 7995 ] final  147.31 input   59.86 | X-H torsion
[ 10167 10162 10161 10158 ] final -150.70 input  -65.29 | X-H torsion
[ 10718 10713 10712 10709 ] final  -17.62 input   66.30 | X-H torsion
[ 10763 10752 10751 10750 ] final  103.87 input  -60.55 | X-H torsion
[ 11005 11000 10999 10996 ] final -102.80 input  -57.11 | X-H torsion

> <Gold.Protein.ActiveResidues>
 VAL166  LYS551  ARG553  GLY616  TRP617  ASP618  TYR619  PRO620  LYS621  CYS622 
 ASP623  PHE694  ASN695  SER759  ASP760  ASP761  ALA762  ILE779  LEU786  VAL792 
 PHE793  MET794  SER795  GLU796  ALA797  LYS798  CYS799  TRP800  GLU811  SER814 

> <Gold.Protein.RotatedAtoms>
  152.5138  134.3744  159.9329 H   0  0  0  0  0  0  0  0  0  0  0  0  # atno 6907 bound_to 6896
  151.3699  133.3852  159.2706 H   0  0  0  0  0  0  0  0  0  0  0  0  # atno 6908 bound_to 6896
  150.9586  134.8996  159.7775 H   0  0  0  0  0  0  0  0  0  0  0  0  # atno 6909 bound_to 6896
  144.8931  140.6669  143.5132 H   0  0  0  0  0  0  0  0  0  0  0  0  # atno 7974 bound_to 7965
  156.2828  140.2159  156.5517 H   0  0  0  0  0  0  0  0  0  0  0  0  # atno 8008 bound_to 7997
  154.7285  140.0497  157.0727 H   0  0  0  0  0  0  0  0  0  0  0  0  # atno 8009 bound_to 7997
  155.0384  140.3143  155.4736 H   0  0  0  0  0  0  0  0  0  0  0  0  # atno 8010 bound_to 7997
  139.7332  143.8776  152.2541 H   0  0  0  0  0  0  0  0  0  0  0  0  # atno 10167 bound_to 10162
  156.5710  130.4749  149.6363 H   0  0  0  0  0  0  0  0  0  0  0  0  # atno 10718 bound_to 10713
  153.3583  135.3962  155.1699 H   0  0  0  0  0  0  0  0  0  0  0  0  # atno 10763 bound_to 10752
  154.8675  135.3673  154.5132 H   0  0  0  0  0  0  0  0  0  0  0  0  # atno 10764 bound_to 10752
  153.5589  135.7081  153.5617 H   0  0  0  0  0  0  0  0  0  0  0  0  # atno 10765 bound_to 10752
  141.1174  133.8588  157.1405 H   0  0  0  0  0  0  0  0  0  0  0  0  # atno 11005 bound_to 11000
  145.3748  139.1650  143.4313 LP  0  0  0  0  0  0  0  0  0  0  0  0  # atno 17320 bound_to 7965
  146.3065  140.3823  142.8685 LP  0  0  0  0  0  0  0  0  0  0  0  0  # atno 17321 bound_to 7965
  139.8705  144.7070  150.8993 LP  0  0  0  0  0  0  0  0  0  0  0  0  # atno 17342 bound_to 10162
  140.7774  143.3742  151.1594 LP  0  0  0  0  0  0  0  0  0  0  0  0  # atno 17343 bound_to 10162
  156.2715  130.7019  151.1818 LP  0  0  0  0  0  0  0  0  0  0  0  0  # atno 17370 bound_to 10713
  157.7348  131.0578  150.5504 LP  0  0  0  0  0  0  0  0  0  0  0  0  # atno 17371 bound_to 10713
  140.0105  134.9990  157.0385 LP  0  0  0  0  0  0  0  0  0  0  0  0  # atno 17394 bound_to 11000
  140.4608  134.1486  155.7191 LP  0  0  0  0  0  0  0  0  0  0  0  0  # atno 17395 bound_to 11000

$$$$
