AV-unprocessed.smi:829|AV-procd|sdf|3869|dock1
  -GOLD-   22720 1323D 1   1.00000     0.00000
 Structure written by MMmdl.
 50 52  0  0  0  0  0  0  0  0  3 V2000
  145.3119  138.9370  154.6501 O   0  0  0  0  0  0  0  0  0  0  0  0
  146.3962  138.6179  155.1360 C   0  0  0  0  0  0  0  0  0  0  0  0
  146.7754  137.3622  155.4323 N   0  0  0  0  0  0  0  0  0  0  0  0
  146.0511  136.1518  155.2499 C   0  0  0  0  0  0  0  0  0  0  0  0
  144.7439  136.2458  154.7220 C   0  0  0  0  0  0  0  0  0  0  0  0
  143.9829  135.0739  154.5338 C   0  0  0  0  0  0  0  0  0  0  0  0
  144.5030  133.8735  154.8678 N   0  3  0  0  0  0  0  0  0  0  0  0
  145.7407  133.7342  155.3889 C   0  0  0  0  0  0  0  0  0  0  0  0
  146.5486  134.8702  155.5997 C   0  0  0  0  0  0  0  0  0  0  0  0
  147.3491  139.5057  155.4580 N   0  0  0  0  0  0  0  0  0  0  0  0
  147.2566  140.9521  155.2558 C   0  0  2  0  0  0  0  0  0  0  0  0
  148.4286  141.4547  154.3943 C   0  0  0  0  0  0  0  0  0  0  0  0
  149.7635  141.4477  155.1631 C   0  0  0  0  0  0  0  0  0  0  0  0
  149.6629  142.2224  156.4270 N   0  3  2  0  0  0  0  0  0  0  0  0
  150.9673  142.3635  157.1252 C   0  0  0  0  0  0  0  0  0  0  0  0
  151.0746  143.6991  157.8867 C   0  0  0  0  0  0  0  0  0  0  0  0
  152.3753  143.8326  158.6823 C   0  0  0  0  0  0  0  0  0  0  0  0
  152.1096  144.9590  159.6844 C   0  0  0  0  0  0  0  0  0  0  0  0
  150.5918  144.9705  159.9160 C   0  0  0  0  0  0  0  0  0  0  0  0
  150.0000  143.9322  158.9549 C   0  0  0  0  0  0  0  0  0  0  0  0
  148.5875  141.6919  157.3048 C   0  0  0  0  0  0  0  0  0  0  0  0
  147.2257  141.7241  156.5908 C   0  0  0  0  0  0  0  0  0  0  0  0
  147.6660  137.2665  155.8978 H   0  0  0  0  0  0  0  0  0  0  0  0
  144.3255  137.2058  154.4555 H   0  0  0  0  0  0  0  0  0  0  0  0
  142.9811  135.0612  154.1299 H   0  0  0  0  0  0  0  0  0  0  0  0
  146.0450  132.7252  155.6258 H   0  0  0  0  0  0  0  0  0  0  0  0
  147.5266  134.7345  156.0353 H   0  0  0  0  0  0  0  0  0  0  0  0
  148.2100  139.1554  155.8520 H   0  0  0  0  0  0  0  0  0  0  0  0
  146.3305  141.1520  154.7134 H   0  0  0  0  0  0  0  0  0  0  0  0
  148.5150  140.8578  153.4855 H   0  0  0  0  0  0  0  0  0  0  0  0
  148.2161  142.4733  154.0665 H   0  0  0  0  0  0  0  0  0  0  0  0
  150.0710  140.4245  155.3848 H   0  0  0  0  0  0  0  0  0  0  0  0
  150.5379  141.8808  154.5284 H   0  0  0  0  0  0  0  0  0  0  0  0
  151.1486  141.5147  157.7867 H   0  0  0  0  0  0  0  0  0  0  0  0
  151.7751  142.3396  156.3919 H   0  0  0  0  0  0  0  0  0  0  0  0
  151.0372  144.5222  157.1709 H   0  0  0  0  0  0  0  0  0  0  0  0
  152.5780  142.9067  159.2228 H   0  0  0  0  0  0  0  0  0  0  0  0
  153.2367  144.0386  158.0461 H   0  0  0  0  0  0  0  0  0  0  0  0
  152.6670  144.8158  160.6106 H   0  0  0  0  0  0  0  0  0  0  0  0
  152.4220  145.9141  159.2600 H   0  0  0  0  0  0  0  0  0  0  0  0
  150.3403  144.7332  160.9503 H   0  0  0  0  0  0  0  0  0  0  0  0
  150.1903  145.9621  159.7034 H   0  0  0  0  0  0  0  0  0  0  0  0
  149.0529  144.2636  158.5281 H   0  0  0  0  0  0  0  0  0  0  0  0
  149.8119  143.0067  159.5011 H   0  0  0  0  0  0  0  0  0  0  0  0
  148.8309  140.6721  157.6073 H   0  0  0  0  0  0  0  0  0  0  0  0
  148.5226  142.2795  158.2194 H   0  0  0  0  0  0  0  0  0  0  0  0
  146.9534  142.7622  156.3956 H   0  0  0  0  0  0  0  0  0  0  0  0
  146.4495  141.3312  157.2482 H   0  0  0  0  0  0  0  0  0  0  0  0
  149.3880  143.1564  156.1576 H   0  0  0  0  0  0  0  0  0  0  0  0
  143.9358  133.0372  154.7248 H   0  0  0  0  0  0  0  0  0  0  0  0
  1  2  2  0  0  0  0
  2  3  1  0  0  0  0
  2 10  1  0  0  0  0
  3  4  1  0  0  0  0
  3 23  1  0  0  0  0
  4  9  1  0  0  0  0
  4  5  2  0  0  0  0
  5  6  1  0  0  0  0
  5 24  1  0  0  0  0
  6  7  2  0  0  0  0
  6 25  1  0  0  0  0
  7  8  1  0  0  0  0
  7 50  1  0  0  0  0
  8  9  2  0  0  0  0
  8 26  1  0  0  0  0
  9 27  1  0  0  0  0
 10 11  1  0  0  0  0
 10 28  1  0  0  0  0
 11 22  1  0  0  0  0
 11 12  1  0  0  0  0
 11 29  1  0  0  0  0
 12 13  1  0  0  0  0
 12 30  1  0  0  0  0
 12 31  1  0  0  0  0
 13 14  1  0  0  0  0
 13 32  1  0  0  0  0
 13 33  1  0  0  0  0
 14 15  1  0  0  0  0
 14 21  1  0  0  0  0
 14 49  1  0  0  0  0
 15 16  1  0  0  0  0
 15 34  1  0  0  0  0
 15 35  1  0  0  0  0
 16 20  1  0  0  0  0
 16 17  1  0  0  0  0
 16 36  1  0  0  0  0
 17 18  1  0  0  0  0
 17 37  1  0  0  0  0
 17 38  1  0  0  0  0
 18 19  1  0  0  0  0
 18 39  1  0  0  0  0
 18 40  1  0  0  0  0
 19 20  1  0  0  0  0
 19 41  1  0  0  0  0
 19 42  1  0  0  0  0
 20 43  1  0  0  0  0
 20 44  1  0  0  0  0
 21 22  1  0  0  0  0
 21 45  1  0  0  0  0
 21 46  1  0  0  0  0
 22 47  1  0  0  0  0
 22 48  1  0  0  0  0
M  CHG  1   7   1
M  CHG  1  14   1
M  END
> <s_m_source_file>
AV-unprocessed.smi

> <i_m_source_file_index>
829

> <i_lp_mmshare_version>
43012

> <i_f3d_flags>
0

> <s_epik_input>
W2NIXTFbY0hdbltjSF1bY0hdYzFbTkhdQyg9TylbTkhdW0NIXTJbQ0gyXVtDSDJdTihbQ0gyXVtDSDJdMilbQ0gyXVtDSF0zW0NIMl1bQ0gyXVtDSDJdW0NIMl0z

> <s_epik_cmdline>
J2VwaWtfcHl0aG9uJywgJy1waCcsICc3LjAnLCAnLXRuJywgJzgnLCAnLW1hJywgJzIwMCcsICctbWV0YWxfYmluZGluZycsICctaW1hZScsICc8aW5maWxlLm1hZT4nLCAnLW9tYWUnLCAnPG91dGZpbGUubWFlPic=

> <r_epik_Ionization_Penalty>
1.10644

> <r_epik_Ionization_Penalty_Charging>
1.10642

> <r_epik_Ionization_Penalty_Neutral>
1.84455e-05

> <r_epik_State_Penalty>
1.14949

> <r_epik_Charging_Adjusted_Penalty>
2.25592

> <i_epik_Tot_Q>
2

> <i_epik_Tot_abs_Q>
2

> <r_epik_Metal_State_Penalty>
1.23448

> <b_epik_Metal_Only>
0

> <s_lp_Force_Field>
OPLS_2005

> <r_lp_Energy>
50.4415

> <b_lp_Chiralities_Consistent>
1

> <s_lp_Variant>
AV-unprocessed.smi:829-4

> <Gold.Version>
5.8.1

> <Gold.Id.Protein>
6NUR|6NUR_protein|mol2

> <Gold.PLP.Fitness>
43.2738

> <Gold.PLP.PLP>
-31.9738

> <Gold.PLP.part.hbond>
-2.0000

> <Gold.PLP.part.metal>
0.0000

> <Gold.PLP.part.buried>
-5.0094

> <Gold.PLP.part.nonpolar>
-25.8006

> <Gold.PLP.part.repulsive>
0.1621

> <Gold.PLP.ligand.clash>
0.0000

> <Gold.PLP.ligand.torsion>
0.3744

> <Gold.PLP.Chemscore.Hbond>
4.0000

> <Gold.PLP.Chemscore.CHOScore>
0.0000

> <Gold.PLP.Chemscore.Metal>
0.0000

> <Gold.Chemscore.Hbonds>
donor molecule, donor type, donor heavy atom, donor atom, acceptor molecule, acceptor atom, score
      L1  H     7    50       P1 10957  2.00
      L1  H    14    49       P1  8028  2.00

> <Gold.PLP.Chemscore.Internal.Correction>
0.0488

> <Gold.Rescore>
     Score         DG    S(hbond)    S(metal)    S(lipo)     H(rot)  DE(clash)    DE(int)     intcor
     17.75     -19.81       2.00        0.00      95.39       1.37       0.23       1.83       ----

> <Gold.Chemscore.Fitness>
17.7493

> <Gold.Chemscore.DG>
-19.8118

> <Gold.Chemscore.ZeroCoef>
-5.4800

> <Gold.Chemscore.Hbond>
1.9999

> <Gold.Chemscore.Metal>
0.0000

> <Gold.Chemscore.Lipo>
95.3921

> <Gold.Chemscore.Internal_Hbond>
0.0000

> <Gold.Chemscore.DEClash>
0.2328

> <Gold.Chemscore.DEInternal>
1.8297

> <Gold.Chemscore.Rot>
1.3707

> <Gold.Chemscore.Internal.Correction>
   9.000000E+99

> <Gold.Chemscore.Hbonds>
donor molecule, donor type, donor heavy atom, donor atom, acceptor molecule, acceptor atom, score
      L1  H     7    50       P1 10957  1.00
      L1  H    14    49       P1  8028  1.00

> <Gold.Chemscore.Hbond.Weighted>
-6.6798

> <Gold.Chemscore.Metal.Weighted>
-0.0000

> <Gold.Chemscore.Lipo.Weighted>
-11.1609

> <Gold.Chemscore.Internal_Hbond.Weighted>
0.0000

> <Gold.Chemscore.DEClash.Weighted>
0.2328

> <Gold.Chemscore.DEInternal.Weighted>
1.8297

> <Gold.Chemscore.Rot.Weighted>
3.5089

> <Gold.Chemscore.Internal.Correction.Weighted>
   9.000000E+99

> <Gold.Protein.RotatedTorsions>
[ 6907 6896 6895 6894 ] final  -80.21 input  -60.11 | X-H torsion
[ 7974 7965 7964 7962 ] final   17.63 input  175.53 | X-H torsion
[ 8008 7997 7996 7995 ] final  127.97 input   59.86 | X-H torsion
[ 10167 10162 10161 10158 ] final -145.33 input  -65.29 | X-H torsion
[ 10718 10713 10712 10709 ] final -158.19 input   66.30 | X-H torsion
[ 10763 10752 10751 10750 ] final  -24.97 input  -60.55 | X-H torsion
[ 11005 11000 10999 10996 ] final   11.02 input  -57.11 | X-H torsion

> <Gold.Protein.ActiveResidues>
 VAL166  LYS551  ARG553  GLY616  TRP617  ASP618  TYR619  PRO620  LYS621  CYS622 
 ASP623  PHE694  ASN695  SER759  ASP760  ASP761  ALA762  ILE779  LEU786  VAL792 
 PHE793  MET794  SER795  GLU796  ALA797  LYS798  CYS799  TRP800  GLU811  SER814 

> <Gold.Protein.RotatedAtoms>
  150.6934  134.4004  159.5116 H   0  0  0  0  0  0  0  0  0  0  0  0  # atno 6907 bound_to 6896
  152.1779  134.8776  160.0538 H   0  0  0  0  0  0  0  0  0  0  0  0  # atno 6908 bound_to 6896
  151.9778  133.3712  159.4133 H   0  0  0  0  0  0  0  0  0  0  0  0  # atno 6909 bound_to 6896
  146.2212  139.8574  142.8611 H   0  0  0  0  0  0  0  0  0  0  0  0  # atno 7974 bound_to 7965
  156.2904  140.2656  156.2360 H   0  0  0  0  0  0  0  0  0  0  0  0  # atno 8008 bound_to 7997
  155.0025  140.0387  157.2384 H   0  0  0  0  0  0  0  0  0  0  0  0  # atno 8009 bound_to 7997
  154.7589  140.2757  155.6235 H   0  0  0  0  0  0  0  0  0  0  0  0  # atno 8010 bound_to 7997
  139.7815  143.8094  152.2639 H   0  0  0  0  0  0  0  0  0  0  0  0  # atno 10167 bound_to 10162
  156.5507  130.8604  151.2779 H   0  0  0  0  0  0  0  0  0  0  0  0  # atno 10718 bound_to 10713
  153.6923  135.6961  153.5086 H   0  0  0  0  0  0  0  0  0  0  0  0  # atno 10763 bound_to 10752
  153.2404  135.4308  155.0691 H   0  0  0  0  0  0  0  0  0  0  0  0  # atno 10764 bound_to 10752
  154.8369  135.3506  154.6464 H   0  0  0  0  0  0  0  0  0  0  0  0  # atno 10765 bound_to 10752
  140.5079  134.0681  155.7810 H   0  0  0  0  0  0  0  0  0  0  0  0  # atno 11005 bound_to 11000
  145.2739  141.0117  143.3756 LP  0  0  0  0  0  0  0  0  0  0  0  0  # atno 17320 bound_to 7965
  144.9202  139.4421  143.6545 LP  0  0  0  0  0  0  0  0  0  0  0  0  # atno 17321 bound_to 7965
  139.8158  144.7317  150.9637 LP  0  0  0  0  0  0  0  0  0  0  0  0  # atno 17342 bound_to 10162
  140.7818  143.4206  151.0847 LP  0  0  0  0  0  0  0  0  0  0  0  0  # atno 17343 bound_to 10162
  157.7388  130.9820  150.2274 LP  0  0  0  0  0  0  0  0  0  0  0  0  # atno 17370 bound_to 10713
  156.2887  130.3743  149.7863 LP  0  0  0  0  0  0  0  0  0  0  0  0  # atno 17371 bound_to 10713
  141.1401  133.9153  157.2345 LP  0  0  0  0  0  0  0  0  0  0  0  0  # atno 17394 bound_to 11000
  139.9676  135.0137  156.9427 LP  0  0  0  0  0  0  0  0  0  0  0  0  # atno 17395 bound_to 11000

$$$$
