AV-unprocessed.smi:3185|AV-procd|sdf|12165|dock8
  -GOLD-   2272018 03D 1   1.00000     0.00000
 Structure written by MMmdl.
 38 39  0  0  0  0  0  0  0  0  2 V2000
  144.1049  142.4889  162.4096 N   0  0  0  0  0  0  0  0  0  0  0  0
  144.7287  143.2121  161.7575 C   0  0  0  0  0  0  0  0  0  0  0  0
  145.5223  144.1322  160.9292 C   0  0  0  0  0  0  0  0  0  0  0  0
  147.0102  144.1234  161.2976 C   0  0  0  0  0  0  0  0  0  0  0  0
  147.8374  145.0426  160.3919 C   0  0  0  0  0  0  0  0  0  0  0  0
  148.4503  144.2829  159.2840 N   0  3  0  0  0  0  0  0  0  0  0  0
  149.8782  143.9411  159.4765 C   0  0  2  0  0  0  0  0  0  0  0  0
  150.6376  145.1785  159.9921 C   0  0  0  0  0  0  0  0  0  0  0  0
  152.1378  144.8937  160.1612 C   0  0  0  0  0  0  0  0  0  0  0  0
  152.7569  144.3920  158.8485 C   0  0  0  0  0  0  0  0  0  0  0  0
  152.0145  143.1527  158.3266 C   0  0  0  0  0  0  0  0  0  0  0  0
  150.5057  143.4282  158.1545 C   0  0  1  0  0  0  0  0  0  0  0  0
  149.8203  142.2492  157.6403 N   0  0  0  0  0  0  0  0  0  0  0  0
  149.1966  142.0925  156.4196 C   0  0  0  0  0  0  0  0  0  0  0  0
  148.6941  140.8236  156.3772 C   0  0  0  0  0  0  0  0  0  0  0  0
  149.0720  140.2678  157.6308 C   0  0  0  0  0  0  0  0  0  0  0  0
  149.7453  141.1220  158.3837 N   0  0  0  0  0  0  0  0  0  0  0  0
  145.3852  143.8451  159.8863 H   0  0  0  0  0  0  0  0  0  0  0  0
  145.1051  145.1322  161.0486 H   0  0  0  0  0  0  0  0  0  0  0  0
  147.1256  144.4343  162.3368 H   0  0  0  0  0  0  0  0  0  0  0  0
  147.3917  143.1034  161.2344 H   0  0  0  0  0  0  0  0  0  0  0  0
  147.2052  145.8304  159.9800 H   0  0  0  0  0  0  0  0  0  0  0  0
  148.6196  145.5273  160.9769 H   0  0  0  0  0  0  0  0  0  0  0  0
  147.9343  143.4234  159.1619 H   0  0  0  0  0  0  0  0  0  0  0  0
  149.9657  143.1612  160.2357 H   0  0  0  0  0  0  0  0  0  0  0  0
  150.5048  146.0106  159.2990 H   0  0  0  0  0  0  0  0  0  0  0  0
  150.2187  145.5024  160.9457 H   0  0  0  0  0  0  0  0  0  0  0  0
  152.6523  145.7959  160.4933 H   0  0  0  0  0  0  0  0  0  0  0  0
  152.2839  144.1483  160.9440 H   0  0  0  0  0  0  0  0  0  0  0  0
  152.7205  145.1838  158.0991 H   0  0  0  0  0  0  0  0  0  0  0  0
  153.8112  144.1578  158.9995 H   0  0  0  0  0  0  0  0  0  0  0  0
  152.4477  142.8408  157.3755 H   0  0  0  0  0  0  0  0  0  0  0  0
  152.1685  142.3251  159.0204 H   0  0  0  0  0  0  0  0  0  0  0  0
  150.3977  144.2122  157.4026 H   0  0  0  0  0  0  0  0  0  0  0  0
  149.1607  142.8886  155.6902 H   0  0  0  0  0  0  0  0  0  0  0  0
  148.1437  140.3611  155.5711 H   0  0  0  0  0  0  0  0  0  0  0  0
  148.8784  139.2765  158.0133 H   0  0  0  0  0  0  0  0  0  0  0  0
  148.3659  144.8301  158.4394 H   0  0  0  0  0  0  0  0  0  0  0  0
  1  2  3  0  0  0  0
  2  3  1  0  0  0  0
  3  4  1  0  0  0  0
  3 18  1  0  0  0  0
  3 19  1  0  0  0  0
  4  5  1  0  0  0  0
  4 20  1  0  0  0  0
  4 21  1  0  0  0  0
  5  6  1  0  0  0  0
  5 22  1  0  0  0  0
  5 23  1  0  0  0  0
  6  7  1  0  0  0  0
  6 24  1  0  0  0  0
  6 38  1  0  0  0  0
  7 12  1  0  0  0  0
  7  8  1  0  0  0  0
  7 25  1  0  0  0  0
  8  9  1  0  0  0  0
  8 26  1  0  0  0  0
  8 27  1  0  0  0  0
  9 10  1  0  0  0  0
  9 28  1  0  0  0  0
  9 29  1  0  0  0  0
 10 11  1  0  0  0  0
 10 30  1  0  0  0  0
 10 31  1  0  0  0  0
 11 12  1  0  0  0  0
 11 32  1  0  0  0  0
 11 33  1  0  0  0  0
 12 13  1  0  0  0  0
 12 34  1  0  0  0  0
 13 17  1  0  0  0  0
 13 14  1  0  0  0  0
 14 15  2  0  0  0  0
 14 35  1  0  0  0  0
 15 16  1  0  0  0  0
 15 36  1  0  0  0  0
 16 17  2  0  0  0  0
 16 37  1  0  0  0  0
M  CHG  1   6   1
M  END
> <s_m_source_file>
AV-unprocessed.smi

> <i_m_source_file_index>
3185

> <i_lp_mmshare_version>
43012

> <i_f3d_flags>
0

> <s_epik_input>
TiNDW0NIMl1bQ0gyXVtDSDJdW05IXVtDQEBIXTFbQ0gyXVtDSDJdW0NIMl1bQ0gyXVtDQEhdMW4yW2NIXVtjSF1bY0hdbjI=

> <s_epik_cmdline>
J2VwaWtfcHl0aG9uJywgJy1waCcsICc3LjAnLCAnLXRuJywgJzgnLCAnLW1hJywgJzIwMCcsICctbWV0YWxfYmluZGluZycsICctaW1hZScsICc8aW5maWxlLm1hZT4nLCAnLW9tYWUnLCAnPG91dGZpbGUubWFlPic=

> <r_lp_tautomer_probability>
1

> <r_epik_Ionization_Penalty>
0.0143465

> <r_epik_Ionization_Penalty_Charging>
0.0143338

> <r_epik_Ionization_Penalty_Neutral>
1.27047e-05

> <r_epik_State_Penalty>
0.0112058

> <r_epik_Charging_Adjusted_Penalty>
0.0255397

> <i_epik_Tot_Q>
1

> <i_epik_Tot_abs_Q>
1

> <r_epik_Metal_State_Penalty>
0.0112253

> <b_epik_Metal_Only>
0

> <s_lp_Force_Field>
OPLS_2005

> <r_lp_Energy>
16.2212

> <b_lp_Chiralities_Consistent>
1

> <s_lp_Variant>
AV-unprocessed.smi:3185-1

> <Gold.Version>
5.8.1

> <Gold.Id.Protein>
6NUR|6NUR_protein|mol2

> <Gold.PLP.Fitness>
42.4146

> <Gold.PLP.PLP>
-34.6612

> <Gold.PLP.part.hbond>
-2.5724

> <Gold.PLP.part.metal>
0.0000

> <Gold.PLP.part.buried>
-3.4349

> <Gold.PLP.part.nonpolar>
-28.4035

> <Gold.PLP.part.repulsive>
0.1917

> <Gold.PLP.ligand.clash>
0.0000

> <Gold.PLP.ligand.torsion>
0.6526

> <Gold.PLP.Chemscore.Hbond>
2.0000

> <Gold.PLP.Chemscore.CHOScore>
1.0000

> <Gold.PLP.Chemscore.Metal>
0.0000

> <Gold.Chemscore.Hbonds>
donor molecule, donor type, donor heavy atom, donor atom, acceptor molecule, acceptor atom, score
      L1  H     6    38       P1  8029  2.00
      L1  C    14    35       P1  8028  0.55

> <Gold.PLP.Chemscore.Internal.Correction>
0.0586

> <Gold.Rescore>
     Score         DG    S(hbond)    S(metal)    S(lipo)     H(rot)  DE(clash)    DE(int)     intcor
     12.23     -13.97       0.91        0.00      87.56       1.88       1.28       0.46       ----

> <Gold.Chemscore.Fitness>
12.2308

> <Gold.Chemscore.DG>
-13.9745

> <Gold.Chemscore.ZeroCoef>
-5.4800

> <Gold.Chemscore.Hbond>
0.9147

> <Gold.Chemscore.Metal>
0.0000

> <Gold.Chemscore.Lipo>
87.5580

> <Gold.Chemscore.Internal_Hbond>
0.0000

> <Gold.Chemscore.DEClash>
1.2815

> <Gold.Chemscore.DEInternal>
0.4623

> <Gold.Chemscore.Rot>
1.8769

> <Gold.Chemscore.Internal.Correction>
   9.000000E+99

> <Gold.Chemscore.Hbonds>
donor molecule, donor type, donor heavy atom, donor atom, acceptor molecule, acceptor atom, score
      L1  H     6    38       P1  8029  0.94

> <Gold.Chemscore.Hbond.Weighted>
-3.0552

> <Gold.Chemscore.Metal.Weighted>
-0.0000

> <Gold.Chemscore.Lipo.Weighted>
-10.2443

> <Gold.Chemscore.Internal_Hbond.Weighted>
0.0000

> <Gold.Chemscore.DEClash.Weighted>
1.2815

> <Gold.Chemscore.DEInternal.Weighted>
0.4623

> <Gold.Chemscore.Rot.Weighted>
4.8049

> <Gold.Chemscore.Internal.Correction.Weighted>
   9.000000E+99

> <Gold.Protein.RotatedTorsions>
[ 6907 6896 6895 6894 ] final  143.08 input  -60.11 | X-H torsion
[ 7974 7965 7964 7962 ] final   -9.95 input  175.53 | X-H torsion
[ 8008 7997 7996 7995 ] final   -8.51 input   59.86 | X-H torsion
[ 10167 10162 10161 10158 ] final -151.00 input  -65.29 | X-H torsion
[ 10718 10713 10712 10709 ] final  -31.01 input   66.30 | X-H torsion
[ 10763 10752 10751 10750 ] final   95.65 input  -60.55 | X-H torsion
[ 11005 11000 10999 10996 ] final -143.73 input  -57.11 | X-H torsion

> <Gold.Protein.ActiveResidues>
 VAL166  LYS551  ARG553  GLY616  TRP617  ASP618  TYR619  PRO620  LYS621  CYS622 
 ASP623  PHE694  ASN695  SER759  ASP760  ASP761  ALA762  ILE779  LEU786  VAL792 
 PHE793  MET794  SER795  GLU796  ALA797  LYS798  CYS799  TRP800  GLU811  SER814 

> <Gold.Protein.RotatedAtoms>
  152.2108  133.4910  159.5108 H   0  0  0  0  0  0  0  0  0  0  0  0  # atno 6907 bound_to 6896
  150.6990  134.1469  159.4135 H   0  0  0  0  0  0  0  0  0  0  0  0  # atno 6908 bound_to 6896
  151.9389  135.0222  160.0585 H   0  0  0  0  0  0  0  0  0  0  0  0  # atno 6909 bound_to 6896
  146.2236  140.2691  142.8356 H   0  0  0  0  0  0  0  0  0  0  0  0  # atno 7974 bound_to 7965
  154.5734  140.2379  155.8158 H   0  0  0  0  0  0  0  0  0  0  0  0  # atno 8008 bound_to 7997
  156.2124  140.3022  155.9720 H   0  0  0  0  0  0  0  0  0  0  0  0  # atno 8009 bound_to 7997
  155.2671  140.0417  157.2994 H   0  0  0  0  0  0  0  0  0  0  0  0  # atno 8010 bound_to 7997
  139.7305  143.8815  152.2533 H   0  0  0  0  0  0  0  0  0  0  0  0  # atno 10167 bound_to 10162
  156.3926  130.4376  149.7383 H   0  0  0  0  0  0  0  0  0  0  0  0  # atno 10718 bound_to 10713
  153.2557  135.4246  155.0843 H   0  0  0  0  0  0  0  0  0  0  0  0  # atno 10763 bound_to 10752
  154.8400  135.3436  154.6449 H   0  0  0  0  0  0  0  0  0  0  0  0  # atno 10764 bound_to 10752
  153.6870  135.7036  153.5158 H   0  0  0  0  0  0  0  0  0  0  0  0  # atno 10765 bound_to 10752
  140.8095  134.2761  157.4946 H   0  0  0  0  0  0  0  0  0  0  0  0  # atno 11005 bound_to 11000
  144.9281  140.7944  143.5706 LP  0  0  0  0  0  0  0  0  0  0  0  0  # atno 17320 bound_to 7965
  145.2633  139.1984  143.4880 LP  0  0  0  0  0  0  0  0  0  0  0  0  # atno 17321 bound_to 7965
  139.8737  144.7054  150.8957 LP  0  0  0  0  0  0  0  0  0  0  0  0  # atno 17342 bound_to 10162
  140.7770  143.3717  151.1637 LP  0  0  0  0  0  0  0  0  0  0  0  0  # atno 17343 bound_to 10162
  156.4430  130.7870  151.2891 LP  0  0  0  0  0  0  0  0  0  0  0  0  # atno 17370 bound_to 10713
  157.7500  131.0119  150.3363 LP  0  0  0  0  0  0  0  0  0  0  0  0  # atno 17371 bound_to 10713
  139.8715  134.9475  156.3969 LP  0  0  0  0  0  0  0  0  0  0  0  0  # atno 17394 bound_to 11000
  140.9212  133.7643  155.9909 LP  0  0  0  0  0  0  0  0  0  0  0  0  # atno 17395 bound_to 11000

$$$$
