AV-unprocessed.smi:1662|AV-procd|sdf|6663|dock9
  -GOLD-   22720 7373D 1   1.00000     0.00000
 Structure written by MMmdl.
 47 48  0  0  0  0  0  0  0  0  1 V2000
  146.8611  138.4537  154.4728 C   0  0  0  0  0  0  0  0  0  0  0  0
  148.2704  137.9706  154.6868 C   0  0  0  0  0  0  0  0  0  0  0  0
  148.4220  136.7093  154.9245 N   0  0  0  0  0  0  0  0  0  0  0  0
  149.6724  136.1626  155.1394 N   0  0  0  0  0  0  0  0  0  0  0  0
  149.6537  134.7200  155.4232 C   0  0  0  0  0  0  0  0  0  0  0  0
  149.0890  133.8727  154.2732 C   0  0  0  0  0  0  0  0  0  0  0  0
  149.6451  132.8327  153.9166 O   0  0  0  0  0  0  0  0  0  0  0  0
  147.9605  134.3317  153.7109 N   0  0  0  0  0  0  0  0  0  0  0  0
  147.2409  133.6923  152.6112 C   0  0  2  0  0  0  0  0  0  0  0  0
  145.9287  134.4521  152.3356 C   0  0  0  0  0  0  0  0  0  0  0  0
  145.1604  133.8313  151.1590 C   0  0  0  0  0  0  0  0  0  0  0  0
  144.9093  132.3308  151.3762 C   0  0  0  0  0  0  0  0  0  0  0  0
  146.2228  131.5736  151.6582 C   0  0  2  0  0  0  0  0  0  0  0  0
  145.9938  130.0574  151.7735 C   0  0  0  0  0  0  0  0  0  0  0  0
  146.9846  132.1807  152.8669 C   0  0  2  0  0  0  0  0  0  0  0  0
  146.3086  131.8991  154.2291 C   0  0  0  0  0  0  0  0  0  0  0  0
  150.8422  136.8644  155.1101 C   0  0  0  0  0  0  0  0  0  0  0  0
  151.9381  136.3334  155.2971 O   0  0  0  0  0  0  0  0  0  0  0  0
  150.6627  138.2930  154.8412 C   0  0  0  0  0  0  0  0  0  0  0  0
  151.8619  139.0665  154.8084 C   0  0  0  0  0  0  0  0  0  0  0  0
  152.8281  139.7028  154.7639 N   0  0  0  0  0  0  0  0  0  0  0  0
  149.4391  138.8431  154.6389 C   0  0  0  0  0  0  0  0  0  0  0  0
  149.1980  140.3199  154.3589 C   0  0  0  0  0  0  0  0  0  0  0  0
  146.7637  138.9528  153.5086 H   0  0  0  0  0  0  0  0  0  0  0  0
  146.5724  139.1596  155.2516 H   0  0  0  0  0  0  0  0  0  0  0  0
  146.1427  137.6327  154.4900 H   0  0  0  0  0  0  0  0  0  0  0  0
  150.6648  134.3679  155.6368 H   0  0  0  0  0  0  0  0  0  0  0  0
  149.0793  134.5230  156.3305 H   0  0  0  0  0  0  0  0  0  0  0  0
  147.5690  135.1904  154.0697 H   0  0  0  0  0  0  0  0  0  0  0  0
  147.8587  133.7848  151.7155 H   0  0  0  0  0  0  0  0  0  0  0  0
  145.2981  134.4534  153.2252 H   0  0  0  0  0  0  0  0  0  0  0  0
  146.1439  135.4981  152.1136 H   0  0  0  0  0  0  0  0  0  0  0  0
  144.2121  134.3507  151.0185 H   0  0  0  0  0  0  0  0  0  0  0  0
  145.7288  133.9743  150.2393 H   0  0  0  0  0  0  0  0  0  0  0  0
  144.2089  132.1894  152.1998 H   0  0  0  0  0  0  0  0  0  0  0  0
  144.4246  131.9159  150.4916 H   0  0  0  0  0  0  0  0  0  0  0  0
  146.8615  131.7140  150.7845 H   0  0  0  0  0  0  0  0  0  0  0  0
  145.2793  129.8134  152.5596 H   0  0  0  0  0  0  0  0  0  0  0  0
  146.9253  129.5335  151.9893 H   0  0  0  0  0  0  0  0  0  0  0  0
  145.5994  129.6534  150.8406 H   0  0  0  0  0  0  0  0  0  0  0  0
  147.9583  131.6899  152.9044 H   0  0  0  0  0  0  0  0  0  0  0  0
  145.3068  132.3232  154.2865 H   0  0  0  0  0  0  0  0  0  0  0  0
  146.8864  132.3108  155.0563 H   0  0  0  0  0  0  0  0  0  0  0  0
  146.2252  130.8296  154.4190 H   0  0  0  0  0  0  0  0  0  0  0  0
  150.1193  140.9010  154.3835 H   0  0  0  0  0  0  0  0  0  0  0  0
  148.5243  140.7460  155.1031 H   0  0  0  0  0  0  0  0  0  0  0  0
  148.7516  140.4537  153.3731 H   0  0  0  0  0  0  0  0  0  0  0  0
  1  2  1  0  0  0  0
  1 24  1  0  0  0  0
  1 25  1  0  0  0  0
  1 26  1  0  0  0  0
  2 22  1  0  0  0  0
  2  3  2  0  0  0  0
  3  4  1  0  0  0  0
  4  5  1  0  0  0  0
  4 17  1  0  0  0  0
  5  6  1  0  0  0  0
  5 27  1  0  0  0  0
  5 28  1  0  0  0  0
  6  7  2  0  0  0  0
  6  8  1  0  0  0  0
  8  9  1  0  0  0  0
  8 29  1  0  0  0  0
  9 15  1  0  0  0  0
  9 10  1  0  0  0  0
  9 30  1  0  0  0  0
 10 11  1  0  0  0  0
 10 31  1  0  0  0  0
 10 32  1  0  0  0  0
 11 12  1  0  0  0  0
 11 33  1  0  0  0  0
 11 34  1  0  0  0  0
 12 13  1  0  0  0  0
 12 35  1  0  0  0  0
 12 36  1  0  0  0  0
 13 14  1  0  0  0  0
 13 15  1  0  0  0  0
 13 37  1  0  0  0  0
 14 38  1  0  0  0  0
 14 39  1  0  0  0  0
 14 40  1  0  0  0  0
 15 16  1  0  0  0  0
 15 41  1  0  0  0  0
 16 42  1  0  0  0  0
 16 43  1  0  0  0  0
 16 44  1  0  0  0  0
 17 18  2  0  0  0  0
 17 19  1  0  0  0  0
 19 20  1  0  0  0  0
 19 22  2  0  0  0  0
 20 21  3  0  0  0  0
 22 23  1  0  0  0  0
 23 45  1  0  0  0  0
 23 46  1  0  0  0  0
 23 47  1  0  0  0  0
M  END
> <s_m_source_file>
AV-unprocessed.smi

> <i_m_source_file_index>
1662

> <i_lp_mmshare_version>
43012

> <i_f3d_flags>
0

> <s_epik_input>
TiNDYyhjMVtDSDNdKWMoPU8pbihuYzFbQ0gzXSlbQ0gyXUMoPU8pW05IXVtDQEBIXTJbQ0gyXVtDSDJdW0NIMl1bQ0BASF0oW0NIM10pW0NASF0yW0NIM10=

> <s_epik_cmdline>
J2VwaWtfcHl0aG9uJywgJy1waCcsICc3LjAnLCAnLXRuJywgJzgnLCAnLW1hJywgJzIwMCcsICctbWV0YWxfYmluZGluZycsICctaW1hZScsICc8aW5maWxlLm1hZT4nLCAnLW9tYWUnLCAnPG91dGZpbGUubWFlPic=

> <r_lp_tautomer_probability>
1

> <r_epik_Ionization_Penalty>
1.90709e-08

> <r_epik_Ionization_Penalty_Charging>
2.37982e-11

> <r_epik_Ionization_Penalty_Neutral>
1.90471e-08

> <r_epik_State_Penalty>
-0

> <r_epik_Charging_Adjusted_Penalty>
2.37982e-11

> <i_epik_Tot_Q>
0

> <i_epik_Tot_abs_Q>
0

> <r_epik_Metal_State_Penalty>
-0

> <b_epik_Metal_Only>
0

> <s_lp_Force_Field>
OPLS_2005

> <r_lp_Energy>
29.1366

> <b_lp_Chiralities_Consistent>
1

> <s_lp_Variant>
AV-unprocessed.smi:1662-7

> <Gold.Version>
5.8.1

> <Gold.Id.Protein>
6NUR|6NUR_protein|mol2

> <Gold.PLP.Fitness>
43.0608

> <Gold.PLP.PLP>
-37.4922

> <Gold.PLP.part.hbond>
-3.7922

> <Gold.PLP.part.metal>
0.0000

> <Gold.PLP.part.buried>
-5.4072

> <Gold.PLP.part.nonpolar>
-29.4055

> <Gold.PLP.part.repulsive>
0.3237

> <Gold.PLP.ligand.clash>
0.0000

> <Gold.PLP.ligand.torsion>
0.2550

> <Gold.PLP.Chemscore.Hbond>
2.0211

> <Gold.PLP.Chemscore.CHOScore>
0.0000

> <Gold.PLP.Chemscore.Metal>
0.0000

> <Gold.Chemscore.Hbonds>
donor molecule, donor type, donor heavy atom, donor atom, acceptor molecule, acceptor atom, score
      P1  H  7989  7998       L1    21  0.06
      P1  H  7997  8008       L1    21  0.91
      P1  H 10752 10765       L1    18  0.80

> <Gold.PLP.Chemscore.Internal.Correction>
0.0156

> <Gold.Rescore>
     Score         DG    S(hbond)    S(metal)    S(lipo)     H(rot)  DE(clash)    DE(int)     intcor
     14.41     -17.82       1.99        0.00      80.55       1.45       1.93       1.48       ----

> <Gold.Chemscore.Fitness>
14.4103

> <Gold.Chemscore.DG>
-17.8232

> <Gold.Chemscore.ZeroCoef>
-5.4800

> <Gold.Chemscore.Hbond>
1.9856

> <Gold.Chemscore.Metal>
0.0000

> <Gold.Chemscore.Lipo>
80.5484

> <Gold.Chemscore.Internal_Hbond>
0.0000

> <Gold.Chemscore.DEClash>
1.9283

> <Gold.Chemscore.DEInternal>
1.4847

> <Gold.Chemscore.Rot>
1.4504

> <Gold.Chemscore.Internal.Correction>
   9.000000E+99

> <Gold.Chemscore.Hbonds>
donor molecule, donor type, donor heavy atom, donor atom, acceptor molecule, acceptor atom, score
      P1  H  7997  8008       L1    21  0.88
      P1  H 10752 10765       L1    18  0.77

> <Gold.Chemscore.Hbond.Weighted>
-6.6320

> <Gold.Chemscore.Metal.Weighted>
-0.0000

> <Gold.Chemscore.Lipo.Weighted>
-9.4242

> <Gold.Chemscore.Internal_Hbond.Weighted>
0.0000

> <Gold.Chemscore.DEClash.Weighted>
1.9283

> <Gold.Chemscore.DEInternal.Weighted>
1.4847

> <Gold.Chemscore.Rot.Weighted>
3.7129

> <Gold.Chemscore.Internal.Correction.Weighted>
   9.000000E+99

> <Gold.Protein.RotatedTorsions>
[ 6907 6896 6895 6894 ] final -132.49 input  -60.11 | X-H torsion
[ 7974 7965 7964 7962 ] final  -85.96 input  175.53 | X-H torsion
[ 8008 7997 7996 7995 ] final  -25.55 input   59.86 | X-H torsion
[ 10167 10162 10161 10158 ] final  -58.39 input  -65.29 | X-H torsion
[ 10718 10713 10712 10709 ] final  -52.43 input   66.30 | X-H torsion
[ 10763 10752 10751 10750 ] final  174.64 input  -60.55 | X-H torsion
[ 11005 11000 10999 10996 ] final   94.77 input  -57.11 | X-H torsion

> <Gold.Protein.ActiveResidues>
 VAL166  LYS551  ARG553  GLY616  TRP617  ASP618  TYR619  PRO620  LYS621  CYS622 
 ASP623  PHE694  ASN695  SER759  ASP760  ASP761  ALA762  ILE779  LEU786  VAL792 
 PHE793  MET794  SER795  GLU796  ALA797  LYS798  CYS799  TRP800  GLU811  SER814 

> <Gold.Protein.RotatedAtoms>
  150.9630  133.6424  159.2750 H   0  0  0  0  0  0  0  0  0  0  0  0  # atno 6907 bound_to 6896
  151.3740  135.0926  159.9484 H   0  0  0  0  0  0  0  0  0  0  0  0  # atno 6908 bound_to 6896
  152.5155  133.9179  159.7574 H   0  0  0  0  0  0  0  0  0  0  0  0  # atno 6909 bound_to 6896
  145.4863  140.9555  143.1836 H   0  0  0  0  0  0  0  0  0  0  0  0  # atno 7974 bound_to 7965
  154.4470  140.1923  156.0636 H   0  0  0  0  0  0  0  0  0  0  0  0  # atno 8008 bound_to 7997
  156.0564  140.3302  155.7383 H   0  0  0  0  0  0  0  0  0  0  0  0  # atno 8009 bound_to 7997
  155.5479  140.0592  157.2847 H   0  0  0  0  0  0  0  0  0  0  0  0  # atno 8010 bound_to 7997
  140.6200  143.2416  151.5504 H   0  0  0  0  0  0  0  0  0  0  0  0  # atno 10167 bound_to 10162
  156.1622  130.4149  149.9775 H   0  0  0  0  0  0  0  0  0  0  0  0  # atno 10718 bound_to 10713
  154.4567  135.2766  155.1742 H   0  0  0  0  0  0  0  0  0  0  0  0  # atno 10763 bound_to 10752
  154.3547  135.6142  153.5664 H   0  0  0  0  0  0  0  0  0  0  0  0  # atno 10764 bound_to 10752
  152.9851  135.5820  154.4922 H   0  0  0  0  0  0  0  0  0  0  0  0  # atno 10765 bound_to 10752
  139.8795  134.8863  156.3914 H   0  0  0  0  0  0  0  0  0  0  0  0  # atno 11005 bound_to 11000
  144.7859  139.6427  143.7134 LP  0  0  0  0  0  0  0  0  0  0  0  0  # atno 17320 bound_to 7965
  146.2311  139.5815  142.9555 LP  0  0  0  0  0  0  0  0  0  0  0  0  # atno 17321 bound_to 7965
  139.5430  144.2595  152.1389 LP  0  0  0  0  0  0  0  0  0  0  0  0  # atno 17342 bound_to 10162
  140.1813  144.4841  150.6527 LP  0  0  0  0  0  0  0  0  0  0  0  0  # atno 17343 bound_to 10162
  156.7600  130.9147  151.3641 LP  0  0  0  0  0  0  0  0  0  0  0  0  # atno 17370 bound_to 10713
  157.6741  130.9078  150.0109 LP  0  0  0  0  0  0  0  0  0  0  0  0  # atno 17371 bound_to 10713
  140.9331  133.7566  156.0049 LP  0  0  0  0  0  0  0  0  0  0  0  0  # atno 17394 bound_to 11000
  140.8308  134.3181  157.5349 LP  0  0  0  0  0  0  0  0  0  0  0  0  # atno 17395 bound_to 11000

$$$$
