AV-unprocessed.smi:296|AV-procd|sdf|2258|dock4
  -GOLD-   2262022143D 1   1.00000     0.00000
 Structure written by MMmdl.
 36 37  0  0  0  0  0  0  0  0  1 V2000
  149.6112  132.8276  155.0990 N   0  0  0  0  0  0  0  0  0  0  0  0
  149.7148  133.9792  155.0499 C   0  0  0  0  0  0  0  0  0  0  0  0
  149.8450  135.4252  154.9883 C   0  0  0  0  0  0  0  0  0  0  0  0
  148.8004  136.2488  155.2929 N   0  0  0  0  0  0  0  0  0  0  0  0
  149.3967  137.4185  155.0970 C   0  0  0  0  0  0  0  0  0  0  0  0
  150.6738  137.3198  154.7128 N   0  0  0  0  0  0  0  0  0  0  0  0
  151.6504  138.3509  154.4136 C   0  0  0  0  0  0  0  0  0  0  0  0
  151.9227  139.2247  155.6382 C   0  0  0  0  0  0  0  0  0  0  0  0
  153.0605  139.2933  156.1014 O   0  0  0  0  0  0  0  0  0  0  0  0
  150.8680  139.8777  156.1520 N   0  0  0  0  0  0  0  0  0  0  0  0
  150.8891  140.7432  157.3278 C   0  0  0  0  0  0  0  0  0  0  0  0
  151.1270  142.2168  156.9484 C   0  0  0  0  0  0  0  0  0  0  0  0
  151.5516  143.0887  158.1201 C   0  0  0  0  0  0  0  0  0  0  0  0
  151.4947  144.4337  158.0638 C   0  0  0  0  0  0  0  0  0  0  0  0
  151.8678  145.3511  159.2143 C   0  0  0  0  0  0  0  0  0  0  0  0
  151.9715  144.5971  160.5504 C   0  0  0  0  0  0  0  0  0  0  0  0
  152.7295  143.2752  160.3803 C   0  0  0  0  0  0  0  0  0  0  0  0
  152.0290  142.3520  159.3671 C   0  0  0  0  0  0  0  0  0  0  0  0
  150.9904  136.0040  154.6339 N   0  0  0  0  0  0  0  0  0  0  0  0
  148.8957  138.3650  155.2388 H   0  0  0  0  0  0  0  0  0  0  0  0
  152.5777  137.8894  154.0703 H   0  0  0  0  0  0  0  0  0  0  0  0
  151.2725  138.9632  153.5936 H   0  0  0  0  0  0  0  0  0  0  0  0
  149.9754  139.7585  155.6947 H   0  0  0  0  0  0  0  0  0  0  0  0
  149.9779  140.6362  157.9178 H   0  0  0  0  0  0  0  0  0  0  0  0
  151.7020  140.4033  157.9696 H   0  0  0  0  0  0  0  0  0  0  0  0
  151.8953  142.2788  156.1770 H   0  0  0  0  0  0  0  0  0  0  0  0
  150.2192  142.6245  156.5010 H   0  0  0  0  0  0  0  0  0  0  0  0
  151.1654  144.9201  157.1573 H   0  0  0  0  0  0  0  0  0  0  0  0
  152.8191  145.8262  158.9727 H   0  0  0  0  0  0  0  0  0  0  0  0
  151.1264  146.1464  159.2942 H   0  0  0  0  0  0  0  0  0  0  0  0
  152.4613  145.2243  161.2959 H   0  0  0  0  0  0  0  0  0  0  0  0
  150.9703  144.3879  160.9301 H   0  0  0  0  0  0  0  0  0  0  0  0
  153.7436  143.4868  160.0389 H   0  0  0  0  0  0  0  0  0  0  0  0
  152.8270  142.7674  161.3403 H   0  0  0  0  0  0  0  0  0  0  0  0
  151.1668  141.8801  159.8377 H   0  0  0  0  0  0  0  0  0  0  0  0
  152.7080  141.5487  159.0793 H   0  0  0  0  0  0  0  0  0  0  0  0
  1  2  3  0  0  0  0
  2  3  1  0  0  0  0
  3 19  2  0  0  0  0
  3  4  1  0  0  0  0
  4  5  2  0  0  0  0
  5  6  1  0  0  0  0
  5 20  1  0  0  0  0
  6  7  1  0  0  0  0
  6 19  1  0  0  0  0
  7  8  1  0  0  0  0
  7 21  1  0  0  0  0
  7 22  1  0  0  0  0
  8  9  2  0  0  0  0
  8 10  1  0  0  0  0
 10 11  1  0  0  0  0
 10 23  1  0  0  0  0
 11 12  1  0  0  0  0
 11 24  1  0  0  0  0
 11 25  1  0  0  0  0
 12 13  1  0  0  0  0
 12 26  1  0  0  0  0
 12 27  1  0  0  0  0
 13 18  1  0  0  0  0
 13 14  2  0  0  0  0
 14 15  1  0  0  0  0
 14 28  1  0  0  0  0
 15 16  1  0  0  0  0
 15 29  1  0  0  0  0
 15 30  1  0  0  0  0
 16 17  1  0  0  0  0
 16 31  1  0  0  0  0
 16 32  1  0  0  0  0
 17 18  1  0  0  0  0
 17 33  1  0  0  0  0
 17 34  1  0  0  0  0
 18 35  1  0  0  0  0
 18 36  1  0  0  0  0
M  END
> <s_m_source_file>
AV-unprocessed.smi

> <i_m_source_file_index>
296

> <i_lp_mmshare_version>
43012

> <i_f3d_flags>
0

> <s_epik_input>
TiNDYzFuW2NIXW4objEpW0NIMl1DKD1PKVtOSF1bQ0gyXVtDSDJdQzI9W0NIXVtDSDJdW0NIMl1bQ0gyXVtDSDJdMg==

> <s_epik_cmdline>
J2VwaWtfcHl0aG9uJywgJy1waCcsICc3LjAnLCAnLXRuJywgJzgnLCAnLW1hJywgJzIwMCcsICctbWV0YWxfYmluZGluZycsICctaW1hZScsICc8aW5maWxlLm1hZT4nLCAnLW9tYWUnLCAnPG91dGZpbGUubWFlPic=

> <r_lp_tautomer_probability>
1

> <r_epik_Ionization_Penalty>
6.69355e-08

> <r_epik_Ionization_Penalty_Charging>
0

> <r_epik_Ionization_Penalty_Neutral>
6.69355e-08

> <r_epik_State_Penalty>
-0

> <r_epik_Charging_Adjusted_Penalty>
0

> <i_epik_Tot_Q>
0

> <i_epik_Tot_abs_Q>
0

> <r_epik_Metal_State_Penalty>
-0

> <b_epik_Metal_Only>
0

> <s_lp_Force_Field>
OPLS_2005

> <r_lp_Energy>
11.6781

> <b_lp_Chiralities_Consistent>
1

> <s_lp_Variant>
AV-unprocessed.smi:296-1

> <Gold.Version>
5.8.1

> <Gold.Id.Protein>
6NUR|6NUR_protein|mol2

> <Gold.PLP.Fitness>
47.9560

> <Gold.PLP.PLP>
-42.8250

> <Gold.PLP.part.hbond>
-1.8967

> <Gold.PLP.part.metal>
0.0000

> <Gold.PLP.part.buried>
-7.5435

> <Gold.PLP.part.nonpolar>
-35.1199

> <Gold.PLP.part.repulsive>
0.3913

> <Gold.PLP.ligand.clash>
0.0000

> <Gold.PLP.ligand.torsion>
0.4560

> <Gold.PLP.Chemscore.Hbond>
2.0000

> <Gold.PLP.Chemscore.CHOScore>
0.0000

> <Gold.PLP.Chemscore.Metal>
0.0000

> <Gold.Chemscore.Hbonds>
donor molecule, donor type, donor heavy atom, donor atom, acceptor molecule, acceptor atom, score
      P1  H  7997  8010       L1     9  1.00
      P1  H 10752 10763       L1    19  1.00

> <Gold.PLP.Chemscore.Internal.Correction>
0.0430

> <Gold.Rescore>
     Score         DG    S(hbond)    S(metal)    S(lipo)     H(rot)  DE(clash)    DE(int)     intcor
     15.89     -16.45       1.97        0.00      95.05       2.63       0.01       0.55       ----

> <Gold.Chemscore.Fitness>
15.8872

> <Gold.Chemscore.DG>
-16.4493

> <Gold.Chemscore.ZeroCoef>
-5.4800

> <Gold.Chemscore.Hbond>
1.9685

> <Gold.Chemscore.Metal>
0.0000

> <Gold.Chemscore.Lipo>
95.0469

> <Gold.Chemscore.Internal_Hbond>
0.0000

> <Gold.Chemscore.DEClash>
0.0137

> <Gold.Chemscore.DEInternal>
0.5484

> <Gold.Chemscore.Rot>
2.6273

> <Gold.Chemscore.Internal.Correction>
   9.000000E+99

> <Gold.Chemscore.Hbonds>
donor molecule, donor type, donor heavy atom, donor atom, acceptor molecule, acceptor atom, score
      P1  H  7997  8010       L1     9  0.96
      P1  H 10752 10763       L1    19  0.88

> <Gold.Chemscore.Hbond.Weighted>
-6.5747

> <Gold.Chemscore.Metal.Weighted>
-0.0000

> <Gold.Chemscore.Lipo.Weighted>
-11.1205

> <Gold.Chemscore.Internal_Hbond.Weighted>
0.0000

> <Gold.Chemscore.DEClash.Weighted>
0.0137

> <Gold.Chemscore.DEInternal.Weighted>
0.5484

> <Gold.Chemscore.Rot.Weighted>
6.7259

> <Gold.Chemscore.Internal.Correction.Weighted>
   9.000000E+99

> <Gold.Protein.RotatedTorsions>
[ 6907 6896 6895 6894 ] final   85.71 input  -60.11 | X-H torsion
[ 7974 7965 7964 7962 ] final   42.35 input  175.53 | X-H torsion
[ 8008 7997 7996 7995 ] final   64.02 input   59.86 | X-H torsion
[ 10167 10162 10161 10158 ] final -162.34 input  -65.29 | X-H torsion
[ 10718 10713 10712 10709 ] final   49.03 input   66.30 | X-H torsion
[ 10763 10752 10751 10750 ] final   64.38 input  -60.55 | X-H torsion
[ 11005 11000 10999 10996 ] final   59.51 input  -57.11 | X-H torsion

> <Gold.Protein.ActiveResidues>
 VAL166  LYS551  ARG553  GLY616  TRP617  ASP618  TYR619  PRO620  LYS621  CYS622 
 ASP623  PHE694  ASN695  SER759  ASP760  ASP761  ALA762  ILE779  LEU786  VAL792 
 PHE793  MET794  SER795  GLU796  ALA797  LYS798  CYS799  TRP800  GLU811  SER814 

> <Gold.Protein.RotatedAtoms>
  152.5380  134.2544  159.8911 H   0  0  0  0  0  0  0  0  0  0  0  0  # atno 6907 bound_to 6896
  151.2506  133.4345  159.2619 H   0  0  0  0  0  0  0  0  0  0  0  0  # atno 6908 bound_to 6896
  151.0542  134.9708  159.8283 H   0  0  0  0  0  0  0  0  0  0  0  0  # atno 6909 bound_to 6896
  146.0747  139.5310  142.9575 H   0  0  0  0  0  0  0  0  0  0  0  0  # atno 7974 bound_to 7965
  155.6394  140.3496  155.4710 H   0  0  0  0  0  0  0  0  0  0  0  0  # atno 8008 bound_to 7997
  155.9938  140.1199  157.0636 H   0  0  0  0  0  0  0  0  0  0  0  0  # atno 8009 bound_to 7997
  154.4227  140.1114  156.5589 H   0  0  0  0  0  0  0  0  0  0  0  0  # atno 8010 bound_to 7997
  139.6399  144.0279  152.2084 H   0  0  0  0  0  0  0  0  0  0  0  0  # atno 10167 bound_to 10162
  157.4746  130.8276  149.8025 H   0  0  0  0  0  0  0  0  0  0  0  0  # atno 10718 bound_to 10713
  153.0053  135.5395  154.6500 H   0  0  0  0  0  0  0  0  0  0  0  0  # atno 10763 bound_to 10752
  154.5734  135.2843  155.0806 H   0  0  0  0  0  0  0  0  0  0  0  0  # atno 10764 bound_to 10752
  154.1963  135.6491  153.5127 H   0  0  0  0  0  0  0  0  0  0  0  0  # atno 10765 bound_to 10752
  140.0299  134.6028  155.9522 H   0  0  0  0  0  0  0  0  0  0  0  0  # atno 11005 bound_to 11000
  145.6327  141.0301  143.1854 LP  0  0  0  0  0  0  0  0  0  0  0  0  # atno 17320 bound_to 7965
  144.7254  139.7892  143.7367 LP  0  0  0  0  0  0  0  0  0  0  0  0  # atno 17321 bound_to 7965
  139.9966  144.6323  150.7767 LP  0  0  0  0  0  0  0  0  0  0  0  0  # atno 17342 bound_to 10162
  140.7485  143.2924  151.3296 LP  0  0  0  0  0  0  0  0  0  0  0  0  # atno 17343 bound_to 10162
  156.0090  130.3842  150.2330 LP  0  0  0  0  0  0  0  0  0  0  0  0  # atno 17370 bound_to 10713
  157.0513  131.0063  151.3252 LP  0  0  0  0  0  0  0  0  0  0  0  0  # atno 17371 bound_to 10713
  141.1824  133.6549  156.5077 LP  0  0  0  0  0  0  0  0  0  0  0  0  # atno 17394 bound_to 11000
  140.4244  134.7158  157.4907 LP  0  0  0  0  0  0  0  0  0  0  0  0  # atno 17395 bound_to 11000

$$$$
