AV-unprocessed.smi:3056|AV-procd|sdf|11655|dock10
  -GOLD-   2272017 53D 1   1.00000     0.00000
 Structure written by MMmdl.
 47 48  0  0  0  0  0  0  0  0  1 V2000
  143.9076  145.1695  153.7920 C   0  0  0  0  0  0  0  0  0  0  0  0
  144.8909  144.1318  154.2504 C   0  0  0  0  0  0  0  0  0  0  0  0
  145.0180  143.5607  155.5475 C   0  0  0  0  0  0  0  0  0  0  0  0
  145.9862  142.6630  155.6203 N   0  0  0  0  0  0  0  0  0  0  0  0
  146.5253  142.6352  154.3817 N   0  0  0  0  0  0  0  0  0  0  0  0
  147.6196  141.7098  154.1033 C   0  0  2  0  0  0  0  0  0  0  0  0
  147.1737  140.5904  153.1385 C   0  0  0  0  0  0  0  0  0  0  0  0
  148.2722  141.1929  155.4140 C   0  0  1  0  0  0  0  0  0  0  0  0
  149.5123  140.3027  155.1854 C   0  0  0  0  0  0  0  0  0  0  0  0
  148.5524  142.3454  156.2728 N   0  0  0  0  0  0  0  0  0  0  0  0
  148.7767  142.0462  157.6978 C   0  0  0  0  0  0  0  0  0  0  0  0
  150.1432  141.4051  158.0069 C   0  0  0  0  0  0  0  0  0  0  0  0
  150.2547  140.1794  157.9390 O   0  0  0  0  0  0  0  0  0  0  0  0
  151.1851  142.2036  158.3401 N   0  0  0  0  0  0  0  0  0  0  0  0
  152.4860  141.6874  158.7713 C   0  0  0  0  0  0  0  0  0  0  0  0
  152.6922  142.0897  160.2427 C   0  0  0  0  0  0  0  0  0  0  0  0
  152.6027  143.5076  160.3735 O   0  0  0  0  0  0  0  0  0  0  0  0
  151.3598  144.0460  159.9223 C   0  0  1  0  0  0  0  0  0  0  0  0
  151.3900  145.5636  160.1324 C   0  0  0  0  0  0  0  0  0  0  0  0
  151.1599  143.6653  158.4419 C   0  0  0  0  0  0  0  0  0  0  0  0
  145.8700  143.5066  153.5320 C   0  0  0  0  0  0  0  0  0  0  0  0
  143.0109  145.1788  154.4119 H   0  0  0  0  0  0  0  0  0  0  0  0
  143.5856  144.9950  152.7652 H   0  0  0  0  0  0  0  0  0  0  0  0
  144.3354  146.1713  153.8297 H   0  0  0  0  0  0  0  0  0  0  0  0
  144.4347  143.7672  156.4328 H   0  0  0  0  0  0  0  0  0  0  0  0
  148.3765  142.2884  153.5693 H   0  0  0  0  0  0  0  0  0  0  0  0
  148.0152  139.9676  152.8355 H   0  0  0  0  0  0  0  0  0  0  0  0
  146.7425  141.0107  152.2295 H   0  0  0  0  0  0  0  0  0  0  0  0
  146.4263  139.9353  153.5854 H   0  0  0  0  0  0  0  0  0  0  0  0
  147.5206  140.5885  155.9244 H   0  0  0  0  0  0  0  0  0  0  0  0
  149.2946  139.4812  154.5041 H   0  0  0  0  0  0  0  0  0  0  0  0
  149.8531  139.8451  156.1137 H   0  0  0  0  0  0  0  0  0  0  0  0
  150.3456  140.8677  154.7679 H   0  0  0  0  0  0  0  0  0  0  0  0
  149.2802  142.9295  155.8856 H   0  0  0  0  0  0  0  0  0  0  0  0
  148.7310  142.9861  158.2483 H   0  0  0  0  0  0  0  0  0  0  0  0
  147.9624  141.4231  158.0691 H   0  0  0  0  0  0  0  0  0  0  0  0
  152.5716  140.6047  158.6701 H   0  0  0  0  0  0  0  0  0  0  0  0
  153.2734  142.1132  158.1481 H   0  0  0  0  0  0  0  0  0  0  0  0
  151.9506  141.6104  160.8836 H   0  0  0  0  0  0  0  0  0  0  0  0
  153.6729  141.7641  160.5898 H   0  0  0  0  0  0  0  0  0  0  0  0
  150.5509  143.6260  160.5231 H   0  0  0  0  0  0  0  0  0  0  0  0
  150.4536  146.0222  159.8143 H   0  0  0  0  0  0  0  0  0  0  0  0
  152.1990  146.0246  159.5652 H   0  0  0  0  0  0  0  0  0  0  0  0
  151.5388  145.8080  161.1843 H   0  0  0  0  0  0  0  0  0  0  0  0
  151.9684  144.0782  157.8372 H   0  0  0  0  0  0  0  0  0  0  0  0
  150.2496  144.1173  158.0520 H   0  0  0  0  0  0  0  0  0  0  0  0
  146.1464  143.6113  152.4932 H   0  0  0  0  0  0  0  0  0  0  0  0
  1  2  1  0  0  0  0
  1 22  1  0  0  0  0
  1 23  1  0  0  0  0
  1 24  1  0  0  0  0
  2 21  2  0  0  0  0
  2  3  1  0  0  0  0
  3  4  2  0  0  0  0
  3 25  1  0  0  0  0
  4  5  1  0  0  0  0
  5  6  1  0  0  0  0
  5 21  1  0  0  0  0
  6  7  1  0  0  0  0
  6  8  1  0  0  0  0
  6 26  1  0  0  0  0
  7 27  1  0  0  0  0
  7 28  1  0  0  0  0
  7 29  1  0  0  0  0
  8  9  1  0  0  0  0
  8 10  1  0  0  0  0
  8 30  1  0  0  0  0
  9 31  1  0  0  0  0
  9 32  1  0  0  0  0
  9 33  1  0  0  0  0
 10 11  1  0  0  0  0
 10 34  1  0  0  0  0
 11 12  1  0  0  0  0
 11 35  1  0  0  0  0
 11 36  1  0  0  0  0
 12 13  2  0  0  0  0
 12 14  1  0  0  0  0
 14 20  1  0  0  0  0
 14 15  1  0  0  0  0
 15 16  1  0  0  0  0
 15 37  1  0  0  0  0
 15 38  1  0  0  0  0
 16 17  1  0  0  0  0
 16 39  1  0  0  0  0
 16 40  1  0  0  0  0
 17 18  1  0  0  0  0
 18 19  1  0  0  0  0
 18 20  1  0  0  0  0
 18 41  1  0  0  0  0
 19 42  1  0  0  0  0
 19 43  1  0  0  0  0
 19 44  1  0  0  0  0
 20 45  1  0  0  0  0
 20 46  1  0  0  0  0
 21 47  1  0  0  0  0
M  END
> <s_m_source_file>
AV-unprocessed.smi

> <i_m_source_file_index>
3056

> <i_lp_mmshare_version>
43012

> <i_f3d_flags>
0

> <s_epik_input>
W0NIM11jMVtjSF1ubihbY0hdMSlbQ0BIXShbQ0gzXSlbQ0BIXShbQ0gzXSlbTkhdW0NIMl1DKD1PKU4yW0NIMl1bQ0gyXU9bQ0BASF0oW0NIM10pW0NIMl0y

> <s_epik_cmdline>
J2VwaWtfcHl0aG9uJywgJy1waCcsICc3LjAnLCAnLXRuJywgJzgnLCAnLW1hJywgJzIwMCcsICctbWV0YWxfYmluZGluZycsICctaW1hZScsICc8aW5maWxlLm1hZT4nLCAnLW9tYWUnLCAnPG91dGZpbGUubWFlPic=

> <r_lp_tautomer_probability>
1

> <r_epik_Ionization_Penalty>
0.667689

> <r_epik_Ionization_Penalty_Charging>
0

> <r_epik_Ionization_Penalty_Neutral>
0.667689

> <r_epik_State_Penalty>
0.684601

> <r_epik_Charging_Adjusted_Penalty>
0.684601

> <i_epik_Tot_Q>
0

> <i_epik_Tot_abs_Q>
0

> <r_epik_Metal_State_Penalty>
0.681448

> <b_epik_Metal_Only>
0

> <s_lp_Force_Field>
OPLS_2005

> <r_lp_Energy>
33.6961

> <b_lp_Chiralities_Consistent>
1

> <s_lp_Variant>
AV-unprocessed.smi:3056-11

> <Gold.Version>
5.8.1

> <Gold.Id.Protein>
6NUR|6NUR_protein|mol2

> <Gold.PLP.Fitness>
45.8860

> <Gold.PLP.PLP>
-46.3199

> <Gold.PLP.part.hbond>
-0.8091

> <Gold.PLP.part.metal>
0.0000

> <Gold.PLP.part.buried>
-8.9222

> <Gold.PLP.part.nonpolar>
-38.2896

> <Gold.PLP.part.repulsive>
0.1589

> <Gold.PLP.ligand.clash>
0.0000

> <Gold.PLP.ligand.torsion>
0.8301

> <Gold.PLP.Chemscore.Hbond>
0.3360

> <Gold.PLP.Chemscore.CHOScore>
0.0000

> <Gold.PLP.Chemscore.Metal>
0.0000

> <Gold.Chemscore.Hbonds>
donor molecule, donor type, donor heavy atom, donor atom, acceptor molecule, acceptor atom, score
      L1  H    10    34       P1  8028  0.34

> <Gold.PLP.Chemscore.Internal.Correction>
0.2183

> <Gold.Rescore>
     Score         DG    S(hbond)    S(metal)    S(lipo)     H(rot)  DE(clash)    DE(int)     intcor
     13.29     -15.35       0.44        0.00     108.52       1.68       0.01       2.05       ----

> <Gold.Chemscore.Fitness>
13.2875

> <Gold.Chemscore.DG>
-15.3458

> <Gold.Chemscore.ZeroCoef>
-5.4800

> <Gold.Chemscore.Hbond>
0.4395

> <Gold.Chemscore.Metal>
0.0000

> <Gold.Chemscore.Lipo>
108.5209

> <Gold.Chemscore.Internal_Hbond>
0.0000

> <Gold.Chemscore.DEClash>
0.0131

> <Gold.Chemscore.DEInternal>
2.0452

> <Gold.Chemscore.Rot>
1.6793

> <Gold.Chemscore.Internal.Correction>
   9.000000E+99

> <Gold.Chemscore.Hbonds>
donor molecule, donor type, donor heavy atom, donor atom, acceptor molecule, acceptor atom, score
      L1  H    10    34       P1  8028  0.34

> <Gold.Chemscore.Hbond.Weighted>
-1.4679

> <Gold.Chemscore.Metal.Weighted>
-0.0000

> <Gold.Chemscore.Lipo.Weighted>
-12.6969

> <Gold.Chemscore.Internal_Hbond.Weighted>
0.0000

> <Gold.Chemscore.DEClash.Weighted>
0.0131

> <Gold.Chemscore.DEInternal.Weighted>
2.0452

> <Gold.Chemscore.Rot.Weighted>
4.2990

> <Gold.Chemscore.Internal.Correction.Weighted>
   9.000000E+99

> <Gold.Protein.RotatedTorsions>
[ 6907 6896 6895 6894 ] final  173.43 input  -60.11 | X-H torsion
[ 7974 7965 7964 7962 ] final  118.30 input  175.53 | X-H torsion
[ 8008 7997 7996 7995 ] final   14.27 input   59.86 | X-H torsion
[ 10167 10162 10161 10158 ] final -178.20 input  -65.29 | X-H torsion
[ 10718 10713 10712 10709 ] final   19.05 input   66.30 | X-H torsion
[ 10763 10752 10751 10750 ] final  -95.98 input  -60.55 | X-H torsion
[ 11005 11000 10999 10996 ] final  -70.25 input  -57.11 | X-H torsion

> <Gold.Protein.ActiveResidues>
 VAL166  LYS551  ARG553  GLY616  TRP617  ASP618  TYR619  PRO620  LYS621  CYS622 
 ASP623  PHE694  ASN695  SER759  ASP760  ASP761  ALA762  ILE779  LEU786  VAL792 
 PHE793  MET794  SER795  GLU796  ALA797  LYS798  CYS799  TRP800  GLU811  SER814 

> <Gold.Protein.RotatedAtoms>
  151.7684  133.3339  159.3437 H   0  0  0  0  0  0  0  0  0  0  0  0  # atno 6907 bound_to 6896
  150.7471  134.6041  159.6061 H   0  0  0  0  0  0  0  0  0  0  0  0  # atno 6908 bound_to 6896
  152.3358  134.7202  160.0329 H   0  0  0  0  0  0  0  0  0  0  0  0  # atno 6909 bound_to 6896
  145.1568  139.3178  143.4538 H   0  0  0  0  0  0  0  0  0  0  0  0  # atno 7974 bound_to 7965
  154.8461  140.2922  155.5628 H   0  0  0  0  0  0  0  0  0  0  0  0  # atno 8008 bound_to 7997
  156.3014  140.2505  156.3343 H   0  0  0  0  0  0  0  0  0  0  0  0  # atno 8009 bound_to 7997
  154.9072  140.0389  157.1915 H   0  0  0  0  0  0  0  0  0  0  0  0  # atno 8010 bound_to 7997
  139.5443  144.2277  152.0958 H   0  0  0  0  0  0  0  0  0  0  0  0  # atno 10167 bound_to 10162
  157.1049  130.6484  149.5882 H   0  0  0  0  0  0  0  0  0  0  0  0  # atno 10718 bound_to 10713
  154.7197  135.5101  153.8793 H   0  0  0  0  0  0  0  0  0  0  0  0  # atno 10763 bound_to 10752
  153.0852  135.6643  153.9973 H   0  0  0  0  0  0  0  0  0  0  0  0  # atno 10764 bound_to 10752
  153.9798  135.3030  155.3400 H   0  0  0  0  0  0  0  0  0  0  0  0  # atno 10765 bound_to 10752
  141.1570  133.6785  156.6724 H   0  0  0  0  0  0  0  0  0  0  0  0  # atno 11005 bound_to 11000
  146.3487  140.1664  142.8590 LP  0  0  0  0  0  0  0  0  0  0  0  0  # atno 17320 bound_to 7965
  145.0372  140.8917  143.5074 LP  0  0  0  0  0  0  0  0  0  0  0  0  # atno 17321 bound_to 7965
  140.1761  144.4890  150.6553 LP  0  0  0  0  0  0  0  0  0  0  0  0  # atno 17342 bound_to 10162
  140.6686  143.2277  151.5681 LP  0  0  0  0  0  0  0  0  0  0  0  0  # atno 17343 bound_to 10162
  155.9864  130.4899  150.7079 LP  0  0  0  0  0  0  0  0  0  0  0  0  # atno 17370 bound_to 10713
  157.4609  131.0883  151.0747 LP  0  0  0  0  0  0  0  0  0  0  0  0  # atno 17371 bound_to 10713
  140.3164  134.8043  157.4218 LP  0  0  0  0  0  0  0  0  0  0  0  0  # atno 17394 bound_to 11000
  140.1134  134.5315  155.8246 LP  0  0  0  0  0  0  0  0  0  0  0  0  # atno 17395 bound_to 11000

$$$$
