AV-unprocessed.smi:1664|AV-procd|sdf|6667|dock7
  -GOLD-   22720 7373D 1   1.00000     0.00000
 Structure written by MMmdl.
 35 36  0  0  0  0  0  0  0  0  3 V2000
  147.9895  140.2955  156.5136 C   0  0  0  0  0  0  0  0  0  0  0  0
  147.5978  141.7254  156.9360 C   0  0  1  0  0  0  0  0  0  0  0  0
  146.7754  141.6601  158.1627 C   0  0  0  0  0  0  0  0  0  0  0  0
  146.1317  141.6085  159.1235 N   0  0  0  0  0  0  0  0  0  0  0  0
  148.8105  142.5105  157.1724 N   0  0  0  0  0  0  0  0  0  0  0  0
  149.8063  142.2401  158.0337 C   0  0  0  0  0  0  0  0  0  0  0  0
  149.8486  141.2317  158.7366 O   0  0  0  0  0  0  0  0  0  0  0  0
  150.9258  143.2820  158.1206 C   0  0  0  0  0  0  0  0  0  0  0  0
  151.7667  143.0729  159.3101 N   0  0  0  0  0  0  0  0  0  0  0  0
  152.6245  141.9549  159.2946 C   0  0  0  0  0  0  0  0  0  0  0  0
  153.4536  141.6732  160.3184 C   0  0  0  0  0  0  0  0  0  0  0  0
  154.3362  140.5278  160.2773 N   0  3  0  0  0  0  0  0  0  0  0  0
  154.4420  139.9037  159.2265 O   0  0  0  0  0  0  0  0  0  0  0  0
  154.9509  140.2136  161.2923 O   0  5  0  0  0  0  0  0  0  0  0  0
  153.4381  142.5636  161.4627 C   0  0  0  0  0  0  0  0  0  0  0  0
  152.6226  143.6364  161.4827 C   0  0  0  0  0  0  0  0  0  0  0  0
  151.7264  143.9453  160.3636 C   0  0  0  0  0  0  0  0  0  0  0  0
  150.9858  144.9282  160.3736 O   0  0  0  0  0  0  0  0  0  0  0  0
  146.7836  142.3595  155.8100 C   0  0  0  0  0  0  0  0  0  0  0  0
  145.8755  141.5552  154.9063 C   0  0  0  0  0  0  0  0  0  0  0  0
  147.1346  142.1831  154.3494 C   0  0  0  0  0  0  0  0  0  0  0  0
  147.1052  139.6998  156.2849 H   0  0  0  0  0  0  0  0  0  0  0  0
  148.5318  139.7719  157.3014 H   0  0  0  0  0  0  0  0  0  0  0  0
  148.6211  140.3015  155.6246 H   0  0  0  0  0  0  0  0  0  0  0  0
  148.8852  143.3675  156.6439 H   0  0  0  0  0  0  0  0  0  0  0  0
  151.5262  143.2456  157.2097 H   0  0  0  0  0  0  0  0  0  0  0  0
  150.4848  144.2801  158.1281 H   0  0  0  0  0  0  0  0  0  0  0  0
  152.5654  141.3579  158.3958 H   0  0  0  0  0  0  0  0  0  0  0  0
  154.0805  142.3777  162.3109 H   0  0  0  0  0  0  0  0  0  0  0  0
  152.6283  144.2875  162.3445 H   0  0  0  0  0  0  0  0  0  0  0  0
  146.4095  143.3483  156.0715 H   0  0  0  0  0  0  0  0  0  0  0  0
  145.8598  140.4731  155.0182 H   0  0  0  0  0  0  0  0  0  0  0  0
  144.9244  142.0037  154.6267 H   0  0  0  0  0  0  0  0  0  0  0  0
  147.0191  143.0482  153.6997 H   0  0  0  0  0  0  0  0  0  0  0  0
  147.9567  141.5184  154.0924 H   0  0  0  0  0  0  0  0  0  0  0  0
  1  2  1  0  0  0  0
  1 22  1  0  0  0  0
  1 23  1  0  0  0  0
  1 24  1  0  0  0  0
  2  3  1  0  0  0  0
  2  5  1  0  0  0  0
  2 19  1  0  0  0  0
  3  4  3  0  0  0  0
  5  6  1  0  0  0  0
  5 25  1  0  0  0  0
  6  7  2  0  0  0  0
  6  8  1  0  0  0  0
  8  9  1  0  0  0  0
  8 26  1  0  0  0  0
  8 27  1  0  0  0  0
  9 17  1  0  0  0  0
  9 10  1  0  0  0  0
 10 11  2  0  0  0  0
 10 28  1  0  0  0  0
 11 12  1  0  0  0  0
 11 15  1  0  0  0  0
 12 13  2  0  0  0  0
 12 14  1  0  0  0  0
 15 16  2  0  0  0  0
 15 29  1  0  0  0  0
 16 17  1  0  0  0  0
 16 30  1  0  0  0  0
 17 18  2  0  0  0  0
 19 21  1  0  0  0  0
 19 20  1  0  0  0  0
 19 31  1  0  0  0  0
 20 21  1  0  0  0  0
 20 32  1  0  0  0  0
 20 33  1  0  0  0  0
 21 34  1  0  0  0  0
 21 35  1  0  0  0  0
M  CHG  1  12   1
M  CHG  1  14  -1
M  END
> <s_m_source_file>
AV-unprocessed.smi

> <i_m_source_file_index>
1664

> <i_lp_mmshare_version>
43012

> <i_f3d_flags>
0

> <s_epik_input>
W0NIMl0xW0NIMl1bQ0hdMVtDQF0oW0NIM10pKEMjTilbTkhdQyg9TylbQ0gyXW4yW2NIXWMoW04rXSg9TylbTy1dKVtjSF1bY0hdYzI9Tw==

> <s_epik_cmdline>
J2VwaWtfcHl0aG9uJywgJy1waCcsICc3LjAnLCAnLXRuJywgJzgnLCAnLW1hJywgJzIwMCcsICctbWV0YWxfYmluZGluZycsICctaW1hZScsICc8aW5maWxlLm1hZT4nLCAnLW9tYWUnLCAnPG91dGZpbGUubWFlPic=

> <r_lp_tautomer_probability>
1

> <r_epik_Ionization_Penalty>
4.65324e-07

> <r_epik_Ionization_Penalty_Charging>
6.17383e-11

> <r_epik_Ionization_Penalty_Neutral>
4.65262e-07

> <r_epik_State_Penalty>
-0

> <r_epik_Charging_Adjusted_Penalty>
6.17383e-11

> <i_epik_Tot_Q>
0

> <i_epik_Tot_abs_Q>
2

> <r_epik_Metal_State_Penalty>
-0

> <b_epik_Metal_Only>
0

> <s_lp_Force_Field>
OPLS_2005

> <r_lp_Energy>
25.9803

> <b_lp_Chiralities_Consistent>
1

> <s_lp_Variant>
AV-unprocessed.smi:1664-1

> <Gold.Version>
5.8.1

> <Gold.Id.Protein>
6NUR|6NUR_protein|mol2

> <Gold.PLP.Fitness>
45.9349

> <Gold.PLP.PLP>
-38.1492

> <Gold.PLP.part.hbond>
-3.5897

> <Gold.PLP.part.metal>
0.0000

> <Gold.PLP.part.buried>
-4.0111

> <Gold.PLP.part.nonpolar>
-30.1781

> <Gold.PLP.part.repulsive>
0.2243

> <Gold.PLP.ligand.clash>
0.0000

> <Gold.PLP.ligand.torsion>
1.0987

> <Gold.PLP.Chemscore.Hbond>
2.8112

> <Gold.PLP.Chemscore.CHOScore>
0.0000

> <Gold.PLP.Chemscore.Metal>
0.0000

> <Gold.Chemscore.Hbonds>
donor molecule, donor type, donor heavy atom, donor atom, acceptor molecule, acceptor atom, score
      L1  H     5    25       P1  8028  1.00
      P1  H  6934  6946       L1     4  0.86
      P1  H  7997  8008       L1    13  1.00

> <Gold.PLP.Chemscore.Internal.Correction>
1.5494

> <Gold.Rescore>
     Score         DG    S(hbond)    S(metal)    S(lipo)     H(rot)  DE(clash)    DE(int)     intcor
     15.06     -17.51       2.64        0.00      69.86       1.94       0.00       2.45       ----

> <Gold.Chemscore.Fitness>
15.0569

> <Gold.Chemscore.DG>
-17.5057

> <Gold.Chemscore.ZeroCoef>
-5.4800

> <Gold.Chemscore.Hbond>
2.6392

> <Gold.Chemscore.Metal>
0.0000

> <Gold.Chemscore.Lipo>
69.8588

> <Gold.Chemscore.Internal_Hbond>
0.0000

> <Gold.Chemscore.DEClash>
0.0015

> <Gold.Chemscore.DEInternal>
2.4474

> <Gold.Chemscore.Rot>
1.9386

> <Gold.Chemscore.Internal.Correction>
   9.000000E+99

> <Gold.Chemscore.Hbonds>
donor molecule, donor type, donor heavy atom, donor atom, acceptor molecule, acceptor atom, score
      L1  H     5    25       P1  8028  0.88
      P1  H  6934  6946       L1     4  0.81
      P1  H  7997  8008       L1    13  0.92

> <Gold.Chemscore.Hbond.Weighted>
-8.8150

> <Gold.Chemscore.Metal.Weighted>
-0.0000

> <Gold.Chemscore.Lipo.Weighted>
-8.1735

> <Gold.Chemscore.Internal_Hbond.Weighted>
0.0000

> <Gold.Chemscore.DEClash.Weighted>
0.0015

> <Gold.Chemscore.DEInternal.Weighted>
2.4474

> <Gold.Chemscore.Rot.Weighted>
4.9627

> <Gold.Chemscore.Internal.Correction.Weighted>
   9.000000E+99

> <Gold.Protein.RotatedTorsions>
[ 6907 6896 6895 6894 ] final  174.44 input  -60.11 | X-H torsion
[ 7974 7965 7964 7962 ] final -167.69 input  175.53 | X-H torsion
[ 8008 7997 7996 7995 ] final -109.51 input   59.86 | X-H torsion
[ 10167 10162 10161 10158 ] final   89.23 input  -65.29 | X-H torsion
[ 10718 10713 10712 10709 ] final   73.24 input   66.30 | X-H torsion
[ 10763 10752 10751 10750 ] final   32.71 input  -60.55 | X-H torsion
[ 11005 11000 10999 10996 ] final  176.59 input  -57.11 | X-H torsion

> <Gold.Protein.ActiveResidues>
 VAL166  LYS551  ARG553  GLY616  TRP617  ASP618  TYR619  PRO620  LYS621  CYS622 
 ASP623  PHE694  ASN695  SER759  ASP760  ASP761  ALA762  ILE779  LEU786  VAL792 
 PHE793  MET794  SER795  GLU796  ALA797  LYS798  CYS799  TRP800  GLU811  SER814 

> <Gold.Protein.RotatedAtoms>
  151.7522  133.3328  159.3394 H   0  0  0  0  0  0  0  0  0  0  0  0  # atno 6907 bound_to 6896
  150.7530  134.6182  159.6131 H   0  0  0  0  0  0  0  0  0  0  0  0  # atno 6908 bound_to 6896
  152.3461  134.7071  160.0301 H   0  0  0  0  0  0  0  0  0  0  0  0  # atno 6909 bound_to 6896
  144.7218  140.2481  143.6282 H   0  0  0  0  0  0  0  0  0  0  0  0  # atno 7974 bound_to 7965
  154.9604  140.0399  157.2187 H   0  0  0  0  0  0  0  0  0  0  0  0  # atno 8008 bound_to 7997
  154.7894  140.2833  155.5981 H   0  0  0  0  0  0  0  0  0  0  0  0  # atno 8009 bound_to 7997
  156.2947  140.2576  156.2738 H   0  0  0  0  0  0  0  0  0  0  0  0  # atno 8010 bound_to 7997
  139.8594  144.6552  150.9076 H   0  0  0  0  0  0  0  0  0  0  0  0  # atno 10167 bound_to 10162
  157.6538  130.9618  150.1041 H   0  0  0  0  0  0  0  0  0  0  0  0  # atno 10718 bound_to 10713
  153.0249  135.6406  154.1397 H   0  0  0  0  0  0  0  0  0  0  0  0  # atno 10763 bound_to 10752
  154.1127  135.2852  155.3228 H   0  0  0  0  0  0  0  0  0  0  0  0  # atno 10764 bound_to 10752
  154.6320  135.5489  153.7754 H   0  0  0  0  0  0  0  0  0  0  0  0  # atno 10765 bound_to 10752
  140.3748  134.6998  157.4415 H   0  0  0  0  0  0  0  0  0  0  0  0  # atno 11005 bound_to 11000
  145.8255  139.2062  143.1913 LP  0  0  0  0  0  0  0  0  0  0  0  0  # atno 17320 bound_to 7965
  146.0477  140.8101  142.9797 LP  0  0  0  0  0  0  0  0  0  0  0  0  # atno 17321 bound_to 7965
  140.7777  143.3758  151.1566 LP  0  0  0  0  0  0  0  0  0  0  0  0  # atno 17342 bound_to 10162
  139.7389  143.8956  152.3043 LP  0  0  0  0  0  0  0  0  0  0  0  0  # atno 17343 bound_to 10162
  156.1955  130.3657  149.8854 LP  0  0  0  0  0  0  0  0  0  0  0  0  # atno 17370 bound_to 10713
  156.6771  130.8843  151.3570 LP  0  0  0  0  0  0  0  0  0  0  0  0  # atno 17371 bound_to 10713
  140.0524  134.6112  155.8846 LP  0  0  0  0  0  0  0  0  0  0  0  0  # atno 17394 bound_to 11000
  141.1943  133.6582  156.5587 LP  0  0  0  0  0  0  0  0  0  0  0  0  # atno 17395 bound_to 11000

$$$$
