AV-unprocessed.smi:934|AV-procd|sdf|4205|dock4
  -GOLD-   22720 2113D 1   1.00000     0.00000
 Structure written by MMmdl.
 43 44  0  0  0  0  0  0  0  0  2 V2000
  148.4806  138.9230  154.1485 C   0  0  0  0  0  0  0  0  0  0  0  0
  149.5060  137.8540  154.2721 N   0  3  0  0  0  0  0  0  0  0  0  0
  150.8685  138.4275  154.1183 C   0  0  0  0  0  0  0  0  0  0  0  0
  149.2989  136.8974  155.4238 C   0  0  0  0  0  0  0  0  0  0  0  0
  147.8782  136.2560  155.2890 C   0  0  0  0  0  0  0  0  0  0  0  0
  147.6508  135.5934  154.0041 N   0  0  0  0  0  0  0  0  0  0  0  0
  146.5500  134.9074  153.6656 C   0  0  0  0  0  0  0  0  0  0  0  0
  145.5945  134.7444  154.4228 O   0  0  0  0  0  0  0  0  0  0  0  0
  146.6341  134.4468  152.4060 N   0  0  0  0  0  0  0  0  0  0  0  0
  145.6942  133.6634  151.6825 C   0  0  0  0  0  0  0  0  0  0  0  0
  144.3237  133.8884  151.9269 C   0  0  0  0  0  0  0  0  0  0  0  0
  143.3667  133.1409  151.2150 C   0  0  0  0  0  0  0  0  0  0  0  0
  143.8199  132.1968  150.2737 C   0  0  0  0  0  0  0  0  0  0  0  0
  145.1264  131.9780  150.0163 N   0  0  0  0  0  0  0  0  0  0  0  0
  146.0395  132.6973  150.7044 C   0  0  0  0  0  0  0  0  0  0  0  0
  150.3864  135.7792  155.4331 C   0  0  0  0  0  0  0  0  0  0  0  0
  150.3284  134.8870  156.6866 C   0  0  0  0  0  0  0  0  0  0  0  0
  150.4637  135.6964  157.8473 O   0  0  0  0  0  0  0  0  0  0  0  0
  149.4179  136.6492  157.9867 C   0  0  0  0  0  0  0  0  0  0  0  0
  149.4170  137.6237  156.7922 C   0  0  0  0  0  0  0  0  0  0  0  0
  148.5691  139.6566  154.9503 H   0  0  0  0  0  0  0  0  0  0  0  0
  147.4650  138.5316  154.1498 H   0  0  0  0  0  0  0  0  0  0  0  0
  148.6036  139.4549  153.2045 H   0  0  0  0  0  0  0  0  0  0  0  0
  151.1984  138.9361  155.0241 H   0  0  0  0  0  0  0  0  0  0  0  0
  150.8920  139.1545  153.3059 H   0  0  0  0  0  0  0  0  0  0  0  0
  151.5988  137.6635  153.8538 H   0  0  0  0  0  0  0  0  0  0  0  0
  147.6580  135.5671  156.1030 H   0  0  0  0  0  0  0  0  0  0  0  0
  147.1092  137.0213  155.3868 H   0  0  0  0  0  0  0  0  0  0  0  0
  148.3757  135.6911  153.3082 H   0  0  0  0  0  0  0  0  0  0  0  0
  147.4481  134.7321  151.8817 H   0  0  0  0  0  0  0  0  0  0  0  0
  144.0061  134.6225  152.6529 H   0  0  0  0  0  0  0  0  0  0  0  0
  142.3105  133.2884  151.3857 H   0  0  0  0  0  0  0  0  0  0  0  0
  143.1143  131.6058  149.7087 H   0  0  0  0  0  0  0  0  0  0  0  0
  147.0639  132.4939  150.4350 H   0  0  0  0  0  0  0  0  0  0  0  0
  150.3337  135.1701  154.5313 H   0  0  0  0  0  0  0  0  0  0  0  0
  151.3860  136.2113  155.4460 H   0  0  0  0  0  0  0  0  0  0  0  0
  149.4158  134.2939  156.7361 H   0  0  0  0  0  0  0  0  0  0  0  0
  151.1534  134.1749  156.6674 H   0  0  0  0  0  0  0  0  0  0  0  0
  148.4586  136.1419  158.0918 H   0  0  0  0  0  0  0  0  0  0  0  0
  149.5767  137.2018  158.9127 H   0  0  0  0  0  0  0  0  0  0  0  0
  150.3394  138.2032  156.8302 H   0  0  0  0  0  0  0  0  0  0  0  0
  148.6044  138.3380  156.9267 H   0  0  0  0  0  0  0  0  0  0  0  0
  149.3850  137.2814  153.4488 H   0  0  0  0  0  0  0  0  0  0  0  0
  1  2  1  0  0  0  0
  1 21  1  0  0  0  0
  1 22  1  0  0  0  0
  1 23  1  0  0  0  0
  2  3  1  0  0  0  0
  2  4  1  0  0  0  0
  2 43  1  0  0  0  0
  3 24  1  0  0  0  0
  3 25  1  0  0  0  0
  3 26  1  0  0  0  0
  4 20  1  0  0  0  0
  4  5  1  0  0  0  0
  4 16  1  0  0  0  0
  5  6  1  0  0  0  0
  5 27  1  0  0  0  0
  5 28  1  0  0  0  0
  6  7  1  0  0  0  0
  6 29  1  0  0  0  0
  7  8  2  0  0  0  0
  7  9  1  0  0  0  0
  9 10  1  0  0  0  0
  9 30  1  0  0  0  0
 10 15  1  0  0  0  0
 10 11  2  0  0  0  0
 11 12  1  0  0  0  0
 11 31  1  0  0  0  0
 12 13  2  0  0  0  0
 12 32  1  0  0  0  0
 13 14  1  0  0  0  0
 13 33  1  0  0  0  0
 14 15  2  0  0  0  0
 15 34  1  0  0  0  0
 16 17  1  0  0  0  0
 16 35  1  0  0  0  0
 16 36  1  0  0  0  0
 17 18  1  0  0  0  0
 17 37  1  0  0  0  0
 17 38  1  0  0  0  0
 18 19  1  0  0  0  0
 19 20  1  0  0  0  0
 19 39  1  0  0  0  0
 19 40  1  0  0  0  0
 20 41  1  0  0  0  0
 20 42  1  0  0  0  0
M  CHG  1   2   1
M  END
> <s_m_source_file>
AV-unprocessed.smi

> <i_m_source_file_index>
934

> <i_lp_mmshare_version>
43012

> <i_f3d_flags>
0

> <s_epik_input>
W0NIMl0xW0NIMl1PW0NIMl1bQ0gyXUMxKE4oW0NIM10pW0NIM10pW0NIMl1bTkhdQyg9TylbTkhdYzJbY0hdW2NIXVtjSF1uW2NIXTI=

> <s_epik_cmdline>
J2VwaWtfcHl0aG9uJywgJy1waCcsICc3LjAnLCAnLXRuJywgJzgnLCAnLW1hJywgJzIwMCcsICctbWV0YWxfYmluZGluZycsICctaW1hZScsICc8aW5maWxlLm1hZT4nLCAnLW9tYWUnLCAnPG91dGZpbGUubWFlPic=

> <r_epik_Ionization_Penalty>
0.0170741

> <r_epik_Ionization_Penalty_Charging>
0.0128317

> <r_epik_Ionization_Penalty_Neutral>
0.00424236

> <r_epik_State_Penalty>
0.00995429

> <r_epik_Charging_Adjusted_Penalty>
0.022786

> <i_epik_Tot_Q>
1

> <i_epik_Tot_abs_Q>
1

> <r_epik_Metal_State_Penalty>
0.00996615

> <b_epik_Metal_Only>
0

> <s_lp_Force_Field>
OPLS_2005

> <r_lp_Energy>
34.8396

> <b_lp_Chiralities_Consistent>
1

> <s_lp_Variant>
AV-unprocessed.smi:934-1

> <Gold.Version>
5.8.1

> <Gold.Id.Protein>
6NUR|6NUR_protein|mol2

> <Gold.PLP.Fitness>
45.5716

> <Gold.PLP.PLP>
-27.7856

> <Gold.PLP.part.hbond>
-4.0000

> <Gold.PLP.part.metal>
0.0000

> <Gold.PLP.part.buried>
-5.8128

> <Gold.PLP.part.nonpolar>
-18.7043

> <Gold.PLP.part.repulsive>
0.2165

> <Gold.PLP.ligand.clash>
0.0000

> <Gold.PLP.ligand.torsion>
0.3125

> <Gold.PLP.Chemscore.Hbond>
4.3383

> <Gold.PLP.Chemscore.CHOScore>
1.7573

> <Gold.PLP.Chemscore.Metal>
0.0000

> <Gold.Chemscore.Hbonds>
donor molecule, donor type, donor heavy atom, donor atom, acceptor molecule, acceptor atom, score
      L1  H     2    43       P1  7948  2.00
      L1  H     6    29       P1  7948  1.00
      L1  H     9    30       P1  7948  0.76
      P1  H  6896  6908       L1    18  0.64
      L1  C    13    33       P1 10952  0.77
      L1  C    15    34       P1 10747  1.00

> <Gold.PLP.Chemscore.Internal.Correction>
0.1240

> <Gold.Rescore>
     Score         DG    S(hbond)    S(metal)    S(lipo)     H(rot)  DE(clash)    DE(int)     intcor
     18.72     -20.26       3.25        0.00      66.22       1.49       0.00       1.53       ----

> <Gold.Chemscore.Fitness>
18.7219

> <Gold.Chemscore.DG>
-20.2578

> <Gold.Chemscore.ZeroCoef>
-5.4800

> <Gold.Chemscore.Hbond>
3.2505

> <Gold.Chemscore.Metal>
0.0000

> <Gold.Chemscore.Lipo>
66.2199

> <Gold.Chemscore.Internal_Hbond>
0.0000

> <Gold.Chemscore.DEClash>
0.0029

> <Gold.Chemscore.DEInternal>
1.5330

> <Gold.Chemscore.Rot>
1.4948

> <Gold.Chemscore.Internal.Correction>
   9.000000E+99

> <Gold.Chemscore.Hbonds>
donor molecule, donor type, donor heavy atom, donor atom, acceptor molecule, acceptor atom, score
      L1  H     2    43       P1  7948  0.95
      L1  H     6    29       P1  7948  0.97
      L1  H     9    30       P1  7948  0.51
      P1  H  6896  6908       L1    18  0.42

> <Gold.Chemscore.Hbond.Weighted>
-10.8568

> <Gold.Chemscore.Metal.Weighted>
-0.0000

> <Gold.Chemscore.Lipo.Weighted>
-7.7477

> <Gold.Chemscore.Internal_Hbond.Weighted>
0.0000

> <Gold.Chemscore.DEClash.Weighted>
0.0029

> <Gold.Chemscore.DEInternal.Weighted>
1.5330

> <Gold.Chemscore.Rot.Weighted>
3.8267

> <Gold.Chemscore.Internal.Correction.Weighted>
   9.000000E+99

> <Gold.Protein.RotatedTorsions>
[ 6907 6896 6895 6894 ] final  172.42 input  -60.11 | X-H torsion
[ 7974 7965 7964 7962 ] final   -3.27 input  175.53 | X-H torsion
[ 8008 7997 7996 7995 ] final -132.25 input   59.86 | X-H torsion
[ 10167 10162 10161 10158 ] final   49.56 input  -65.29 | X-H torsion
[ 10718 10713 10712 10709 ] final   22.35 input   66.30 | X-H torsion
[ 10763 10752 10751 10750 ] final  -50.32 input  -60.55 | X-H torsion
[ 11005 11000 10999 10996 ] final   -5.60 input  -57.11 | X-H torsion

> <Gold.Protein.ActiveResidues>
 VAL166  LYS551  ARG553  GLY616  TRP617  ASP618  TYR619  PRO620  LYS621  CYS622 
 ASP623  PHE694  ASN695  SER759  ASP760  ASP761  ALA762  ILE779  LEU786  VAL792 
 PHE793  MET794  SER795  GLU796  ALA797  LYS798  CYS799  TRP800  GLU811  SER814 

> <Gold.Protein.RotatedAtoms>
  151.7845  133.3353  159.3480 H   0  0  0  0  0  0  0  0  0  0  0  0  # atno 6907 bound_to 6896
  150.7414  134.5900  159.5992 H   0  0  0  0  0  0  0  0  0  0  0  0  # atno 6908 bound_to 6896
  152.3253  134.7330  160.0355 H   0  0  0  0  0  0  0  0  0  0  0  0  # atno 6909 bound_to 6896
  146.2392  140.1696  142.8332 H   0  0  0  0  0  0  0  0  0  0  0  0  # atno 7974 bound_to 7965
  155.3258  140.0464  157.3041 H   0  0  0  0  0  0  0  0  0  0  0  0  # atno 8008 bound_to 7997
  154.5355  140.2271  155.8696 H   0  0  0  0  0  0  0  0  0  0  0  0  # atno 8009 bound_to 7997
  156.1830  140.3069  155.9192 H   0  0  0  0  0  0  0  0  0  0  0  0  # atno 8010 bound_to 7997
  140.2816  144.3150  150.6263 H   0  0  0  0  0  0  0  0  0  0  0  0  # atno 10167 bound_to 10162
  157.1512  130.6675  149.6012 H   0  0  0  0  0  0  0  0  0  0  0  0  # atno 10718 bound_to 10713
  154.1085  135.6553  153.4881 H   0  0  0  0  0  0  0  0  0  0  0  0  # atno 10763 bound_to 10752
  153.0264  135.5242  154.7216 H   0  0  0  0  0  0  0  0  0  0  0  0  # atno 10764 bound_to 10752
  154.6389  135.2985  155.0097 H   0  0  0  0  0  0  0  0  0  0  0  0  # atno 10765 bound_to 10752
  140.6929  133.9056  155.8630 H   0  0  0  0  0  0  0  0  0  0  0  0  # atno 11005 bound_to 11000
  145.0023  140.8642  143.5274 LP  0  0  0  0  0  0  0  0  0  0  0  0  # atno 17320 bound_to 7965
  145.1717  139.2401  143.5339 LP  0  0  0  0  0  0  0  0  0  0  0  0  # atno 17321 bound_to 7965
  140.5807  143.2173  151.7434 LP  0  0  0  0  0  0  0  0  0  0  0  0  # atno 17342 bound_to 10162
  139.4961  144.4084  152.0106 LP  0  0  0  0  0  0  0  0  0  0  0  0  # atno 17343 bound_to 10162
  155.9770  130.4744  150.6566 LP  0  0  0  0  0  0  0  0  0  0  0  0  # atno 17370 bound_to 10713
  157.4219  131.0838  151.1123 LP  0  0  0  0  0  0  0  0  0  0  0  0  # atno 17371 bound_to 10713
  141.0227  134.0867  157.4103 LP  0  0  0  0  0  0  0  0  0  0  0  0  # atno 17394 bound_to 11000
  139.8918  135.0121  156.6813 LP  0  0  0  0  0  0  0  0  0  0  0  0  # atno 17395 bound_to 11000

$$$$
