AV-unprocessed.smi:2119|AV-procd|sdf|8633|dock9
  -GOLD-   2272011383D 1   1.00000     0.00000
 Structure written by MMmdl.
 47 49  0  0  0  0  0  0  0  0  1 V2000
  149.2271  136.3500  156.3220 O   0  0  0  0  0  0  0  0  0  0  0  0
  149.1213  136.2596  155.0994 C   0  0  0  0  0  0  0  0  0  0  0  0
  148.7316  137.2715  154.3123 N   0  0  0  0  0  0  0  0  0  0  0  0
  148.3288  138.5946  154.7753 C   0  0  0  0  0  0  0  0  0  0  0  0
  149.1743  139.7284  154.1306 C   0  0  1  0  0  0  0  0  0  0  0  0
  148.4106  141.0856  154.0923 C   0  0  1  0  0  0  0  0  0  0  0  0
  147.1486  141.0649  153.2434 C   0  0  0  0  0  0  0  0  0  0  0  0
  146.4091  142.3011  153.7354 C   0  0  0  0  0  0  0  0  0  0  0  0
  146.6802  142.3563  155.1286 O   0  0  0  0  0  0  0  0  0  0  0  0
  147.8308  141.5716  155.4295 C   0  0  0  0  0  0  0  0  0  0  0  0
  150.5128  139.8758  154.7302 N   0  0  0  0  0  0  0  0  0  0  0  0
  151.3667  138.7006  154.5801 C   0  0  0  0  0  0  0  0  0  0  0  0
  152.7921  138.9724  155.0903 C   0  0  0  0  0  0  0  0  0  0  0  0
  152.7392  139.4028  156.4472 O   0  0  0  0  0  0  0  0  0  0  0  0
  151.9526  140.5773  156.6236 C   0  0  0  0  0  0  0  0  0  0  0  0
  150.5205  140.3234  156.1224 C   0  0  0  0  0  0  0  0  0  0  0  0
  149.3860  135.1595  154.3743 N   0  0  0  0  0  0  0  0  0  0  0  0
  149.7602  133.8659  154.8285 C   0  0  0  0  0  0  0  0  0  0  0  0
  149.4604  132.7643  154.0008 C   0  0  0  0  0  0  0  0  0  0  0  0
  149.7991  131.4681  154.4330 C   0  0  0  0  0  0  0  0  0  0  0  0
  150.4208  131.3222  155.6880 C   0  0  0  0  0  0  0  0  0  0  0  0
  150.7029  132.3631  156.4992 N   0  0  0  0  0  0  0  0  0  0  0  0
  150.3765  133.6042  156.0779 C   0  0  0  0  0  0  0  0  0  0  0  0
  148.6879  137.1080  153.3172 H   0  0  0  0  0  0  0  0  0  0  0  0
  147.2702  138.7676  154.5748 H   0  0  0  0  0  0  0  0  0  0  0  0
  148.4381  138.5844  155.8585 H   0  0  0  0  0  0  0  0  0  0  0  0
  149.3353  139.4464  153.0890 H   0  0  0  0  0  0  0  0  0  0  0  0
  149.0667  141.8672  153.7063 H   0  0  0  0  0  0  0  0  0  0  0  0
  147.3500  141.1000  152.1721 H   0  0  0  0  0  0  0  0  0  0  0  0
  146.5619  140.1689  153.4515 H   0  0  0  0  0  0  0  0  0  0  0  0
  146.8105  143.1984  153.2625 H   0  0  0  0  0  0  0  0  0  0  0  0
  145.3383  142.2594  153.5359 H   0  0  0  0  0  0  0  0  0  0  0  0
  147.5125  140.7315  156.0478 H   0  0  0  0  0  0  0  0  0  0  0  0
  148.5499  142.1588  156.0008 H   0  0  0  0  0  0  0  0  0  0  0  0
  150.9562  137.8565  155.1332 H   0  0  0  0  0  0  0  0  0  0  0  0
  151.4089  138.4015  153.5323 H   0  0  0  0  0  0  0  0  0  0  0  0
  153.3963  138.0675  155.0261 H   0  0  0  0  0  0  0  0  0  0  0  0
  153.2840  139.7313  154.4797 H   0  0  0  0  0  0  0  0  0  0  0  0
  151.9426  140.8460  157.6798 H   0  0  0  0  0  0  0  0  0  0  0  0
  152.4063  141.4109  156.0854 H   0  0  0  0  0  0  0  0  0  0  0  0
  149.9401  141.2386  156.2338 H   0  0  0  0  0  0  0  0  0  0  0  0
  150.0515  139.5734  156.7601 H   0  0  0  0  0  0  0  0  0  0  0  0
  149.3389  135.2672  153.3717 H   0  0  0  0  0  0  0  0  0  0  0  0
  148.9788  132.9074  153.0444 H   0  0  0  0  0  0  0  0  0  0  0  0
  149.5862  130.6060  153.8183 H   0  0  0  0  0  0  0  0  0  0  0  0
  150.6938  130.3429  156.0523 H   0  0  0  0  0  0  0  0  0  0  0  0
  150.6023  134.3897  156.7816 H   0  0  0  0  0  0  0  0  0  0  0  0
  1  2  2  0  0  0  0
  2  3  1  0  0  0  0
  2 17  1  0  0  0  0
  3  4  1  0  0  0  0
  3 24  1  0  0  0  0
  4  5  1  0  0  0  0
  4 25  1  0  0  0  0
  4 26  1  0  0  0  0
  5  6  1  0  0  0  0
  5 11  1  0  0  0  0
  5 27  1  0  0  0  0
  6 10  1  0  0  0  0
  6  7  1  0  0  0  0
  6 28  1  0  0  0  0
  7  8  1  0  0  0  0
  7 29  1  0  0  0  0
  7 30  1  0  0  0  0
  8  9  1  0  0  0  0
  8 31  1  0  0  0  0
  8 32  1  0  0  0  0
  9 10  1  0  0  0  0
 10 33  1  0  0  0  0
 10 34  1  0  0  0  0
 11 16  1  0  0  0  0
 11 12  1  0  0  0  0
 12 13  1  0  0  0  0
 12 35  1  0  0  0  0
 12 36  1  0  0  0  0
 13 14  1  0  0  0  0
 13 37  1  0  0  0  0
 13 38  1  0  0  0  0
 14 15  1  0  0  0  0
 15 16  1  0  0  0  0
 15 39  1  0  0  0  0
 15 40  1  0  0  0  0
 16 41  1  0  0  0  0
 16 42  1  0  0  0  0
 17 18  1  0  0  0  0
 17 43  1  0  0  0  0
 18 23  1  0  0  0  0
 18 19  2  0  0  0  0
 19 20  1  0  0  0  0
 19 44  1  0  0  0  0
 20 21  2  0  0  0  0
 20 45  1  0  0  0  0
 21 22  1  0  0  0  0
 21 46  1  0  0  0  0
 22 23  2  0  0  0  0
 23 47  1  0  0  0  0
M  END
> <s_m_source_file>
AV-unprocessed.smi

> <i_m_source_file_index>
2119

> <i_lp_mmshare_version>
43012

> <i_f3d_flags>
0

> <s_epik_input>
W2NIXTFuW2NIXVtjSF1bY0hdYzFbTkhdQyg9TylbTkhdW0NIMl1bQ0BIXShbQ0BASF0yW0NIMl1bQ0gyXU9bQ0gyXTIpTjNbQ0gyXVtDSDJdT1tDSDJdW0NIMl0z

> <s_epik_cmdline>
J2VwaWtfcHl0aG9uJywgJy1waCcsICc3LjAnLCAnLXRuJywgJzgnLCAnLW1hJywgJzIwMCcsICctbWV0YWxfYmluZGluZycsICctaW1hZScsICc8aW5maWxlLm1hZT4nLCAnLW9tYWUnLCAnPG91dGZpbGUubWFlPic=

> <r_epik_Ionization_Penalty>
0.129787

> <r_epik_Ionization_Penalty_Charging>
0

> <r_epik_Ionization_Penalty_Neutral>
0.129787

> <r_epik_State_Penalty>
0.121311

> <r_epik_Charging_Adjusted_Penalty>
0.121311

> <i_epik_Tot_Q>
0

> <i_epik_Tot_abs_Q>
0

> <r_epik_Metal_State_Penalty>
0.117931

> <b_epik_Metal_Only>
0

> <s_lp_Force_Field>
OPLS_2005

> <r_lp_Energy>
52.557

> <b_lp_Chiralities_Consistent>
1

> <s_lp_Variant>
AV-unprocessed.smi:2119-4

> <Gold.Version>
5.8.1

> <Gold.Id.Protein>
6NUR|6NUR_protein|mol2

> <Gold.PLP.Fitness>
49.2499

> <Gold.PLP.PLP>
-39.8440

> <Gold.PLP.part.hbond>
-4.0000

> <Gold.PLP.part.metal>
0.0000

> <Gold.PLP.part.buried>
-3.7987

> <Gold.PLP.part.nonpolar>
-31.7465

> <Gold.PLP.part.repulsive>
0.2925

> <Gold.PLP.ligand.clash>
0.0000

> <Gold.PLP.ligand.torsion>
0.5004

> <Gold.PLP.Chemscore.Hbond>
3.4000

> <Gold.PLP.Chemscore.CHOScore>
0.0000

> <Gold.PLP.Chemscore.Metal>
0.0000

> <Gold.Chemscore.Hbonds>
donor molecule, donor type, donor heavy atom, donor atom, acceptor molecule, acceptor atom, score
      L1  H     3    24       P1  7948  1.00
      L1  H    17    43       P1  7948  0.80
      P1  H  7989  7998       L1    11  0.55
      P1  H  7997  8009       L1    14  0.70

> <Gold.PLP.Chemscore.Internal.Correction>
0.2067

> <Gold.Rescore>
     Score         DG    S(hbond)    S(metal)    S(lipo)     H(rot)  DE(clash)    DE(int)     intcor
     15.51     -18.31       1.90        0.00      91.43       1.65       0.15       2.66       ----

> <Gold.Chemscore.Fitness>
15.5070

> <Gold.Chemscore.DG>
-18.3108

> <Gold.Chemscore.ZeroCoef>
-5.4800

> <Gold.Chemscore.Hbond>
1.9041

> <Gold.Chemscore.Metal>
0.0000

> <Gold.Chemscore.Lipo>
91.4301

> <Gold.Chemscore.Internal_Hbond>
0.0000

> <Gold.Chemscore.DEClash>
0.1453

> <Gold.Chemscore.DEInternal>
2.6585

> <Gold.Chemscore.Rot>
1.6508

> <Gold.Chemscore.Internal.Correction>
   9.000000E+99

> <Gold.Chemscore.Hbonds>
donor molecule, donor type, donor heavy atom, donor atom, acceptor molecule, acceptor atom, score
      L1  H     3    24       P1  7948  0.98
      L1  H    17    43       P1  7948  0.12
      P1  H  7989  7998       L1    11  0.02
      P1  H  7997  8009       L1    14  0.02

> <Gold.Chemscore.Hbond.Weighted>
-6.3597

> <Gold.Chemscore.Metal.Weighted>
-0.0000

> <Gold.Chemscore.Lipo.Weighted>
-10.6973

> <Gold.Chemscore.Internal_Hbond.Weighted>
0.0000

> <Gold.Chemscore.DEClash.Weighted>
0.1453

> <Gold.Chemscore.DEInternal.Weighted>
2.6585

> <Gold.Chemscore.Rot.Weighted>
4.2262

> <Gold.Chemscore.Internal.Correction.Weighted>
   9.000000E+99

> <Gold.Protein.RotatedTorsions>
[ 6907 6896 6895 6894 ] final  -34.32 input  -60.11 | X-H torsion
[ 7974 7965 7964 7962 ] final -139.58 input  175.53 | X-H torsion
[ 8008 7997 7996 7995 ] final -166.29 input   59.86 | X-H torsion
[ 10167 10162 10161 10158 ] final -126.95 input  -65.29 | X-H torsion
[ 10718 10713 10712 10709 ] final   24.87 input   66.30 | X-H torsion
[ 10763 10752 10751 10750 ] final -111.59 input  -60.55 | X-H torsion
[ 11005 11000 10999 10996 ] final  -86.84 input  -57.11 | X-H torsion

> <Gold.Protein.ActiveResidues>
 VAL166  LYS551  ARG553  GLY616  TRP617  ASP618  TYR619  PRO620  LYS621  CYS622 
 ASP623  PHE694  ASN695  SER759  ASP760  ASP761  ALA762  ILE779  LEU786  VAL792 
 PHE793  MET794  SER795  GLU796  ALA797  LYS798  CYS799  TRP800  GLU811  SER814 

> <Gold.Protein.RotatedAtoms>
  151.0542  134.9693  159.8226 H   0  0  0  0  0  0  0  0  0  0  0  0  # atno 6907 bound_to 6896
  152.5385  134.2499  159.8905 H   0  0  0  0  0  0  0  0  0  0  0  0  # atno 6908 bound_to 6896
  151.2516  133.4304  159.2645 H   0  0  0  0  0  0  0  0  0  0  0  0  # atno 6909 bound_to 6896
  144.8665  140.6301  143.5294 H   0  0  0  0  0  0  0  0  0  0  0  0  # atno 7974 bound_to 7965
  155.8618  140.0979  157.1608 H   0  0  0  0  0  0  0  0  0  0  0  0  # atno 8008 bound_to 7997
  154.3991  140.1364  156.4032 H   0  0  0  0  0  0  0  0  0  0  0  0  # atno 8009 bound_to 7997
  155.7848  140.3457  155.5319 H   0  0  0  0  0  0  0  0  0  0  0  0  # atno 8010 bound_to 7997
  139.9660  143.5897  152.2429 H   0  0  0  0  0  0  0  0  0  0  0  0  # atno 10167 bound_to 10162
  157.1856  130.6822  149.6130 H   0  0  0  0  0  0  0  0  0  0  0  0  # atno 10718 bound_to 10713
  154.8308  135.4522  154.1062 H   0  0  0  0  0  0  0  0  0  0  0  0  # atno 10763 bound_to 10752
  153.2337  135.6908  153.7867 H   0  0  0  0  0  0  0  0  0  0  0  0  # atno 10764 bound_to 10752
  153.7240  135.3337  155.3248 H   0  0  0  0  0  0  0  0  0  0  0  0  # atno 10765 bound_to 10752
  141.1625  133.7477  156.9220 H   0  0  0  0  0  0  0  0  0  0  0  0  # atno 11005 bound_to 11000
  145.4212  139.1564  143.4073 LP  0  0  0  0  0  0  0  0  0  0  0  0  # atno 17320 bound_to 7965
  146.2899  140.4322  142.8743 LP  0  0  0  0  0  0  0  0  0  0  0  0  # atno 17321 bound_to 7965
  139.6517  144.7661  151.2134 LP  0  0  0  0  0  0  0  0  0  0  0  0  # atno 17342 bound_to 10162
  140.7538  143.6150  150.8569 LP  0  0  0  0  0  0  0  0  0  0  0  0  # atno 17343 bound_to 10162
  155.9718  130.4632  150.6173 LP  0  0  0  0  0  0  0  0  0  0  0  0  # atno 17370 bound_to 10713
  157.3910  131.0795  151.1393 LP  0  0  0  0  0  0  0  0  0  0  0  0  # atno 17371 bound_to 10713
  140.1445  134.9271  157.2511 LP  0  0  0  0  0  0  0  0  0  0  0  0  # atno 17394 bound_to 11000
  140.2796  134.3365  155.7347 LP  0  0  0  0  0  0  0  0  0  0  0  0  # atno 17395 bound_to 11000

$$$$
