AV-unprocessed.smi:1596|AV-procd|sdf|6418|dock2
  -GOLD-   22720 7 53D 1   1.00000     0.00000
 Structure written by MMmdl.
 48 49  0  0  0  0  0  0  0  0  1 V2000
  153.2998  142.3901  159.8795 C   0  0  0  0  0  0  0  0  0  0  0  0
  151.9230  141.8315  159.4885 C   0  0  0  0  0  0  0  0  0  0  0  0
  151.5925  142.0536  158.0784 N   0  0  0  0  0  0  0  0  0  0  0  0
  151.5031  143.4255  157.5777 C   0  0  0  0  0  0  0  0  0  0  0  0
  151.3535  144.4673  158.6954 C   0  0  0  0  0  0  0  0  0  0  0  0
  151.2173  140.9594  157.2590 C   0  0  0  0  0  0  0  0  0  0  0  0
  150.8717  141.1289  155.8944 C   0  0  0  0  0  0  0  0  0  0  0  0
  150.5156  140.0061  155.1227 C   0  0  0  0  0  0  0  0  0  0  0  0
  150.5062  138.7292  155.7301 C   0  0  0  0  0  0  0  0  0  0  0  0
  150.1883  137.5129  155.0650 N   0  0  0  0  0  0  0  0  0  0  0  0
  150.0587  136.2741  155.5710 C   0  0  0  0  0  0  0  0  0  0  0  0
  150.2595  135.9535  156.7419 O   0  0  0  0  0  0  0  0  0  0  0  0
  149.6852  135.4041  154.6218 N   0  0  0  0  0  0  0  0  0  0  0  0
  149.4416  133.9793  154.8290 C   0  0  2  0  0  0  0  0  0  0  0  0
  150.6399  133.3536  155.5685 C   0  0  0  0  0  0  0  0  0  0  0  0
  150.4627  131.8375  155.7498 C   0  0  0  0  0  0  0  0  0  0  0  0
  150.2312  131.1422  154.3976 C   0  0  1  0  0  0  0  0  0  0  0  0
  150.0090  129.7635  154.6065 O   0  0  0  0  0  0  0  0  0  0  0  0
  149.0254  131.7525  153.6632 C   0  0  0  0  0  0  0  0  0  0  0  0
  149.1968  133.2691  153.4805 C   0  0  0  0  0  0  0  0  0  0  0  0
  150.8681  138.6567  157.0890 C   0  0  0  0  0  0  0  0  0  0  0  0
  151.2094  139.7303  157.8305 N   0  0  0  0  0  0  0  0  0  0  0  0
  153.5003  142.2068  160.9349 H   0  0  0  0  0  0  0  0  0  0  0  0
  153.3571  143.4665  159.7174 H   0  0  0  0  0  0  0  0  0  0  0  0
  154.1017  141.9240  159.3087 H   0  0  0  0  0  0  0  0  0  0  0  0
  151.9070  140.7602  159.6907 H   0  0  0  0  0  0  0  0  0  0  0  0
  151.1488  142.2574  160.1273 H   0  0  0  0  0  0  0  0  0  0  0  0
  152.4059  143.6476  157.0081 H   0  0  0  0  0  0  0  0  0  0  0  0
  150.6897  143.5156  156.8582 H   0  0  0  0  0  0  0  0  0  0  0  0
  151.2360  145.4655  158.2734 H   0  0  0  0  0  0  0  0  0  0  0  0
  152.2312  144.4894  159.3403 H   0  0  0  0  0  0  0  0  0  0  0  0
  150.4821  144.2672  159.3189 H   0  0  0  0  0  0  0  0  0  0  0  0
  150.8664  142.0968  155.4180 H   0  0  0  0  0  0  0  0  0  0  0  0
  150.2702  140.1552  154.0837 H   0  0  0  0  0  0  0  0  0  0  0  0
  150.0483  137.5960  154.0688 H   0  0  0  0  0  0  0  0  0  0  0  0
  149.5494  135.7548  153.6851 H   0  0  0  0  0  0  0  0  0  0  0  0
  148.5569  133.8581  155.4572 H   0  0  0  0  0  0  0  0  0  0  0  0
  151.5593  133.5439  155.0128 H   0  0  0  0  0  0  0  0  0  0  0  0
  150.7648  133.8255  156.5438 H   0  0  0  0  0  0  0  0  0  0  0  0
  151.3421  131.4198  156.2413 H   0  0  0  0  0  0  0  0  0  0  0  0
  149.6176  131.6494  156.4138 H   0  0  0  0  0  0  0  0  0  0  0  0
  151.1235  131.2476  153.7789 H   0  0  0  0  0  0  0  0  0  0  0  0
  149.5371  129.6545  155.4180 H   0  0  0  0  0  0  0  0  0  0  0  0
  148.8979  131.2763  152.6903 H   0  0  0  0  0  0  0  0  0  0  0  0
  148.1110  131.5589  154.2258 H   0  0  0  0  0  0  0  0  0  0  0  0
  148.3104  133.6780  152.9940 H   0  0  0  0  0  0  0  0  0  0  0  0
  150.0331  133.4585  152.8060 H   0  0  0  0  0  0  0  0  0  0  0  0
  150.8862  137.7061  157.6018 H   0  0  0  0  0  0  0  0  0  0  0  0
  1  2  1  0  0  0  0
  1 23  1  0  0  0  0
  1 24  1  0  0  0  0
  1 25  1  0  0  0  0
  2  3  1  0  0  0  0
  2 26  1  0  0  0  0
  2 27  1  0  0  0  0
  3  4  1  0  0  0  0
  3  6  1  0  0  0  0
  4  5  1  0  0  0  0
  4 28  1  0  0  0  0
  4 29  1  0  0  0  0
  5 30  1  0  0  0  0
  5 31  1  0  0  0  0
  5 32  1  0  0  0  0
  6 22  1  0  0  0  0
  6  7  2  0  0  0  0
  7  8  1  0  0  0  0
  7 33  1  0  0  0  0
  8  9  2  0  0  0  0
  8 34  1  0  0  0  0
  9 10  1  0  0  0  0
  9 21  1  0  0  0  0
 10 11  1  0  0  0  0
 10 35  1  0  0  0  0
 11 12  2  0  0  0  0
 11 13  1  0  0  0  0
 13 14  1  0  0  0  0
 13 36  1  0  0  0  0
 14 20  1  0  0  0  0
 14 15  1  0  0  0  0
 14 37  1  0  0  0  0
 15 16  1  0  0  0  0
 15 38  1  0  0  0  0
 15 39  1  0  0  0  0
 16 17  1  0  0  0  0
 16 40  1  0  0  0  0
 16 41  1  0  0  0  0
 17 18  1  0  0  0  0
 17 19  1  0  0  0  0
 17 42  1  0  0  0  0
 18 43  1  0  0  0  0
 19 20  1  0  0  0  0
 19 44  1  0  0  0  0
 19 45  1  0  0  0  0
 20 46  1  0  0  0  0
 20 47  1  0  0  0  0
 21 22  2  0  0  0  0
 21 48  1  0  0  0  0
M  END
> <s_m_source_file>
AV-unprocessed.smi

> <i_m_source_file_index>
1596

> <i_lp_mmshare_version>
43012

> <i_f3d_flags>
0

> <s_epik_input>
W0NIM11bQ0gyXU4oW0NIMl1bQ0gzXSljMVtjSF1bY0hdYyhbY0hdbjEpW05IXUMoPU8pW05IXVtDQEBIXTJbQ0gyXVtDSDJdW0NAQEhdKFtPSF0pW0NIMl1bQ0gyXTI=

> <s_epik_cmdline>
J2VwaWtfcHl0aG9uJywgJy1waCcsICc3LjAnLCAnLXRuJywgJzgnLCAnLW1hJywgJzIwMCcsICctbWV0YWxfYmluZGluZycsICctaW1hZScsICc8aW5maWxlLm1hZT4nLCAnLW9tYWUnLCAnPG91dGZpbGUubWFlPic=

> <r_lp_tautomer_probability>
1

> <r_epik_Ionization_Penalty>
0.709395

> <r_epik_Ionization_Penalty_Charging>
0

> <r_epik_Ionization_Penalty_Neutral>
0.709395

> <r_epik_State_Penalty>
2.20721

> <r_epik_Charging_Adjusted_Penalty>
2.20721

> <i_epik_Tot_Q>
0

> <i_epik_Tot_abs_Q>
0

> <r_epik_Metal_State_Penalty>
1.55411

> <b_epik_Metal_Only>
0

> <s_lp_Force_Field>
OPLS_2005

> <r_lp_Energy>
16.3842

> <b_lp_Chiralities_Consistent>
1

> <s_lp_Variant>
AV-unprocessed.smi:1596-3

> <Gold.Version>
5.8.1

> <Gold.Id.Protein>
6NUR|6NUR_protein|mol2

> <Gold.PLP.Fitness>
42.9920

> <Gold.PLP.PLP>
-40.6747

> <Gold.PLP.part.hbond>
-1.0000

> <Gold.PLP.part.metal>
0.0000

> <Gold.PLP.part.buried>
-4.5653

> <Gold.PLP.part.nonpolar>
-34.0447

> <Gold.PLP.part.repulsive>
0.0714

> <Gold.PLP.ligand.clash>
0.0000

> <Gold.PLP.ligand.torsion>
0.3940

> <Gold.PLP.Chemscore.Hbond>
1.0000

> <Gold.PLP.Chemscore.CHOScore>
0.0000

> <Gold.PLP.Chemscore.Metal>
0.0000

> <Gold.Chemscore.Hbonds>
donor molecule, donor type, donor heavy atom, donor atom, acceptor molecule, acceptor atom, score
      L1  H    13    36       P1  7948  1.00

> <Gold.PLP.Chemscore.Internal.Correction>
0.1052

> <Gold.Rescore>
     Score         DG    S(hbond)    S(metal)    S(lipo)     H(rot)  DE(clash)    DE(int)     intcor
     12.43     -15.63       0.96        0.00      98.92       1.80       0.03       3.18       ----

> <Gold.Chemscore.Fitness>
12.4263

> <Gold.Chemscore.DG>
-15.6342

> <Gold.Chemscore.ZeroCoef>
-5.4800

> <Gold.Chemscore.Hbond>
0.9575

> <Gold.Chemscore.Metal>
0.0000

> <Gold.Chemscore.Lipo>
98.9216

> <Gold.Chemscore.Internal_Hbond>
0.0000

> <Gold.Chemscore.DEClash>
0.0291

> <Gold.Chemscore.DEInternal>
3.1788

> <Gold.Chemscore.Rot>
1.8038

> <Gold.Chemscore.Internal.Correction>
   9.000000E+99

> <Gold.Chemscore.Hbonds>
donor molecule, donor type, donor heavy atom, donor atom, acceptor molecule, acceptor atom, score
      L1  H    13    36       P1  7948  0.30

> <Gold.Chemscore.Hbond.Weighted>
-3.1980

> <Gold.Chemscore.Metal.Weighted>
-0.0000

> <Gold.Chemscore.Lipo.Weighted>
-11.5738

> <Gold.Chemscore.Internal_Hbond.Weighted>
0.0000

> <Gold.Chemscore.DEClash.Weighted>
0.0291

> <Gold.Chemscore.DEInternal.Weighted>
3.1788

> <Gold.Chemscore.Rot.Weighted>
4.6176

> <Gold.Chemscore.Internal.Correction.Weighted>
   9.000000E+99

> <Gold.Protein.RotatedTorsions>
[ 6907 6896 6895 6894 ] final  116.00 input  -60.11 | X-H torsion
[ 7974 7965 7964 7962 ] final    3.91 input  175.53 | X-H torsion
[ 8008 7997 7996 7995 ] final   58.58 input   59.86 | X-H torsion
[ 10167 10162 10161 10158 ] final   37.23 input  -65.29 | X-H torsion
[ 10718 10713 10712 10709 ] final  154.60 input   66.30 | X-H torsion
[ 10763 10752 10751 10750 ] final -112.96 input  -60.55 | X-H torsion
[ 11005 11000 10999 10996 ] final -169.58 input  -57.11 | X-H torsion

> <Gold.Protein.ActiveResidues>
 VAL166  LYS551  ARG553  GLY616  TRP617  ASP618  TYR619  PRO620  LYS621  CYS622 
 ASP623  PHE694  ASN695  SER759  ASP760  ASP761  ALA762  ILE779  LEU786  VAL792 
 PHE793  MET794  SER795  GLU796  ALA797  LYS798  CYS799  TRP800  GLU811  SER814 

> <Gold.Protein.RotatedAtoms>
  152.4706  133.8021  159.6958 H   0  0  0  0  0  0  0  0  0  0  0  0  # atno 6907 bound_to 6896
  150.8693  133.7519  159.2973 H   0  0  0  0  0  0  0  0  0  0  0  0  # atno 6908 bound_to 6896
  151.5059  135.1066  159.9893 H   0  0  0  0  0  0  0  0  0  0  0  0  # atno 6909 bound_to 6896
  146.2445  140.0614  142.8368 H   0  0  0  0  0  0  0  0  0  0  0  0  # atno 7974 bound_to 7965
  155.5523  140.3486  155.4471 H   0  0  0  0  0  0  0  0  0  0  0  0  # atno 8008 bound_to 7997
  156.0574  140.1332  157.0006 H   0  0  0  0  0  0  0  0  0  0  0  0  # atno 8009 bound_to 7997
  154.4463  140.0992  156.6451 H   0  0  0  0  0  0  0  0  0  0  0  0  # atno 8010 bound_to 7997
  140.4052  144.1669  150.6136 H   0  0  0  0  0  0  0  0  0  0  0  0  # atno 10167 bound_to 10162
  157.2295  131.0736  151.1862 H   0  0  0  0  0  0  0  0  0  0  0  0  # atno 10718 bound_to 10713
  154.8374  135.4472  154.1275 H   0  0  0  0  0  0  0  0  0  0  0  0  # atno 10763 bound_to 10752
  153.2494  135.6925  153.7702 H   0  0  0  0  0  0  0  0  0  0  0  0  # atno 10764 bound_to 10752
  153.7020  135.3370  155.3202 H   0  0  0  0  0  0  0  0  0  0  0  0  # atno 10765 bound_to 10752
  140.5292  134.5633  157.5070 H   0  0  0  0  0  0  0  0  0  0  0  0  # atno 11005 bound_to 11000
  145.0897  140.9276  143.4776 LP  0  0  0  0  0  0  0  0  0  0  0  0  # atno 17320 bound_to 7965
  145.0784  139.2978  143.5796 LP  0  0  0  0  0  0  0  0  0  0  0  0  # atno 17321 bound_to 7965
  140.4697  143.2417  151.9106 LP  0  0  0  0  0  0  0  0  0  0  0  0  # atno 17342 bound_to 10162
  139.4783  144.5382  151.8567 LP  0  0  0  0  0  0  0  0  0  0  0  0  # atno 17343 bound_to 10162
  157.3493  130.7073  149.6430 LP  0  0  0  0  0  0  0  0  0  0  0  0  # atno 17370 bound_to 10713
  155.9676  130.4257  150.4666 LP  0  0  0  0  0  0  0  0  0  0  0  0  # atno 17371 bound_to 10713
  139.9563  134.7529  156.0334 LP  0  0  0  0  0  0  0  0  0  0  0  0  # atno 17394 bound_to 11000
  141.1291  133.6591  156.3416 LP  0  0  0  0  0  0  0  0  0  0  0  0  # atno 17395 bound_to 11000

$$$$
