AV-unprocessed.smi:1664|AV-procd|sdf|6667|dock1
  -GOLD-   22720 7373D 1   1.00000     0.00000
 Structure written by MMmdl.
 35 36  0  0  0  0  0  0  0  0  3 V2000
  147.1320  134.9701  155.8718 C   0  0  0  0  0  0  0  0  0  0  0  0
  146.9661  134.9841  154.3392 C   0  0  1  0  0  0  0  0  0  0  0  0
  145.5627  134.6657  154.0009 C   0  0  0  0  0  0  0  0  0  0  0  0
  144.4636  134.4167  153.7357 N   0  0  0  0  0  0  0  0  0  0  0  0
  147.3310  136.3050  153.8241 N   0  0  0  0  0  0  0  0  0  0  0  0
  146.9819  137.5035  154.3223 C   0  0  0  0  0  0  0  0  0  0  0  0
  146.3145  137.6518  155.3447 O   0  0  0  0  0  0  0  0  0  0  0  0
  147.4541  138.7273  153.5314 C   0  0  0  0  0  0  0  0  0  0  0  0
  148.5946  139.3867  154.1871 N   0  0  0  0  0  0  0  0  0  0  0  0
  149.7892  138.6454  154.2833 C   0  0  0  0  0  0  0  0  0  0  0  0
  150.9038  139.1518  154.8456 C   0  0  0  0  0  0  0  0  0  0  0  0
  152.1243  138.3790  154.9226 N   0  3  0  0  0  0  0  0  0  0  0  0
  152.1301  137.2408  154.4651 O   0  0  0  0  0  0  0  0  0  0  0  0
  153.1154  138.8824  155.4431 O   0  5  0  0  0  0  0  0  0  0  0  0
  150.8419  140.5041  155.3650 C   0  0  0  0  0  0  0  0  0  0  0  0
  149.7037  141.2198  155.2734 C   0  0  0  0  0  0  0  0  0  0  0  0
  148.4938  140.6692  154.6539 C   0  0  0  0  0  0  0  0  0  0  0  0
  147.4544  141.3216  154.5606 O   0  0  0  0  0  0  0  0  0  0  0  0
  147.8878  133.9237  153.7402 C   0  0  0  0  0  0  0  0  0  0  0  0
  147.6319  133.2872  152.3919 C   0  0  0  0  0  0  0  0  0  0  0  0
  147.5046  132.4630  153.6547 C   0  0  0  0  0  0  0  0  0  0  0  0
  146.9119  133.9829  156.2793 H   0  0  0  0  0  0  0  0  0  0  0  0
  146.4590  135.6746  156.3611 H   0  0  0  0  0  0  0  0  0  0  0  0
  148.1506  135.2272  156.1647 H   0  0  0  0  0  0  0  0  0  0  0  0
  147.8851  136.3061  152.9802 H   0  0  0  0  0  0  0  0  0  0  0  0
  147.7130  138.4242  152.5152 H   0  0  0  0  0  0  0  0  0  0  0  0
  146.6197  139.4208  153.4149 H   0  0  0  0  0  0  0  0  0  0  0  0
  149.7344  137.6518  153.8623 H   0  0  0  0  0  0  0  0  0  0  0  0
  151.7074  140.9532  155.8298 H   0  0  0  0  0  0  0  0  0  0  0  0
  149.6801  142.2261  155.6654 H   0  0  0  0  0  0  0  0  0  0  0  0
  148.9369  134.1060  153.9682 H   0  0  0  0  0  0  0  0  0  0  0  0
  146.7159  133.5434  151.8637 H   0  0  0  0  0  0  0  0  0  0  0  0
  148.4946  133.1013  151.7556 H   0  0  0  0  0  0  0  0  0  0  0  0
  148.2827  131.7297  153.8561 H   0  0  0  0  0  0  0  0  0  0  0  0
  146.5036  132.1725  153.9667 H   0  0  0  0  0  0  0  0  0  0  0  0
  1  2  1  0  0  0  0
  1 22  1  0  0  0  0
  1 23  1  0  0  0  0
  1 24  1  0  0  0  0
  2  3  1  0  0  0  0
  2  5  1  0  0  0  0
  2 19  1  0  0  0  0
  3  4  3  0  0  0  0
  5  6  1  0  0  0  0
  5 25  1  0  0  0  0
  6  7  2  0  0  0  0
  6  8  1  0  0  0  0
  8  9  1  0  0  0  0
  8 26  1  0  0  0  0
  8 27  1  0  0  0  0
  9 17  1  0  0  0  0
  9 10  1  0  0  0  0
 10 11  2  0  0  0  0
 10 28  1  0  0  0  0
 11 12  1  0  0  0  0
 11 15  1  0  0  0  0
 12 13  2  0  0  0  0
 12 14  1  0  0  0  0
 15 16  2  0  0  0  0
 15 29  1  0  0  0  0
 16 17  1  0  0  0  0
 16 30  1  0  0  0  0
 17 18  2  0  0  0  0
 19 21  1  0  0  0  0
 19 20  1  0  0  0  0
 19 31  1  0  0  0  0
 20 21  1  0  0  0  0
 20 32  1  0  0  0  0
 20 33  1  0  0  0  0
 21 34  1  0  0  0  0
 21 35  1  0  0  0  0
M  CHG  1  12   1
M  CHG  1  14  -1
M  END
> <s_m_source_file>
AV-unprocessed.smi

> <i_m_source_file_index>
1664

> <i_lp_mmshare_version>
43012

> <i_f3d_flags>
0

> <s_epik_input>
W0NIMl0xW0NIMl1bQ0hdMVtDQF0oW0NIM10pKEMjTilbTkhdQyg9TylbQ0gyXW4yW2NIXWMoW04rXSg9TylbTy1dKVtjSF1bY0hdYzI9Tw==

> <s_epik_cmdline>
J2VwaWtfcHl0aG9uJywgJy1waCcsICc3LjAnLCAnLXRuJywgJzgnLCAnLW1hJywgJzIwMCcsICctbWV0YWxfYmluZGluZycsICctaW1hZScsICc8aW5maWxlLm1hZT4nLCAnLW9tYWUnLCAnPG91dGZpbGUubWFlPic=

> <r_lp_tautomer_probability>
1

> <r_epik_Ionization_Penalty>
4.65324e-07

> <r_epik_Ionization_Penalty_Charging>
6.17383e-11

> <r_epik_Ionization_Penalty_Neutral>
4.65262e-07

> <r_epik_State_Penalty>
-0

> <r_epik_Charging_Adjusted_Penalty>
6.17383e-11

> <i_epik_Tot_Q>
0

> <i_epik_Tot_abs_Q>
2

> <r_epik_Metal_State_Penalty>
-0

> <b_epik_Metal_Only>
0

> <s_lp_Force_Field>
OPLS_2005

> <r_lp_Energy>
25.9803

> <b_lp_Chiralities_Consistent>
1

> <s_lp_Variant>
AV-unprocessed.smi:1664-1

> <Gold.Version>
5.8.1

> <Gold.Id.Protein>
6NUR|6NUR_protein|mol2

> <Gold.PLP.Fitness>
40.1948

> <Gold.PLP.PLP>
-29.6818

> <Gold.PLP.part.hbond>
-2.9753

> <Gold.PLP.part.metal>
0.0000

> <Gold.PLP.part.buried>
-0.9900

> <Gold.PLP.part.nonpolar>
-26.3858

> <Gold.PLP.part.repulsive>
0.3740

> <Gold.PLP.ligand.clash>
0.0000

> <Gold.PLP.ligand.torsion>
1.2874

> <Gold.PLP.Chemscore.Hbond>
2.8393

> <Gold.PLP.Chemscore.CHOScore>
1.0000

> <Gold.PLP.Chemscore.Metal>
0.0000

> <Gold.Chemscore.Hbonds>
donor molecule, donor type, donor heavy atom, donor atom, acceptor molecule, acceptor atom, score
      L1  H     5    25       P1  7948  1.00
      P1  H  7997  8010       L1    14  1.00
      P1  H 10752 10763       L1    13  0.85
      L1  C    10    28       P1  7948  0.97

> <Gold.PLP.Chemscore.Internal.Correction>
1.5701

> <Gold.Rescore>
     Score         DG    S(hbond)    S(metal)    S(lipo)     H(rot)  DE(clash)    DE(int)     intcor
     14.66     -15.71       2.75        0.00      51.30       1.94       0.09       0.96       ----

> <Gold.Chemscore.Fitness>
14.6624

> <Gold.Chemscore.DG>
-15.7111

> <Gold.Chemscore.ZeroCoef>
-5.4800

> <Gold.Chemscore.Hbond>
2.7520

> <Gold.Chemscore.Metal>
0.0000

> <Gold.Chemscore.Lipo>
51.3018

> <Gold.Chemscore.Internal_Hbond>
0.0000

> <Gold.Chemscore.DEClash>
0.0918

> <Gold.Chemscore.DEInternal>
0.9570

> <Gold.Chemscore.Rot>
1.9386

> <Gold.Chemscore.Internal.Correction>
   9.000000E+99

> <Gold.Chemscore.Hbonds>
donor molecule, donor type, donor heavy atom, donor atom, acceptor molecule, acceptor atom, score
      L1  H     5    25       P1  7948  0.95
      P1  H  7997  8010       L1    14  0.98
      P1  H 10752 10763       L1    13  0.85

> <Gold.Chemscore.Hbond.Weighted>
-9.1916

> <Gold.Chemscore.Metal.Weighted>
-0.0000

> <Gold.Chemscore.Lipo.Weighted>
-6.0023

> <Gold.Chemscore.Internal_Hbond.Weighted>
0.0000

> <Gold.Chemscore.DEClash.Weighted>
0.0918

> <Gold.Chemscore.DEInternal.Weighted>
0.9570

> <Gold.Chemscore.Rot.Weighted>
4.9627

> <Gold.Chemscore.Internal.Correction.Weighted>
   9.000000E+99

> <Gold.Protein.RotatedTorsions>
[ 6907 6896 6895 6894 ] final  117.40 input  -60.11 | X-H torsion
[ 7974 7965 7964 7962 ] final -154.59 input  175.53 | X-H torsion
[ 8008 7997 7996 7995 ] final  102.49 input   59.86 | X-H torsion
[ 10167 10162 10161 10158 ] final  -85.95 input  -65.29 | X-H torsion
[ 10718 10713 10712 10709 ] final  137.22 input   66.30 | X-H torsion
[ 10763 10752 10751 10750 ] final   36.66 input  -60.55 | X-H torsion
[ 11005 11000 10999 10996 ] final -162.44 input  -57.11 | X-H torsion

> <Gold.Protein.ActiveResidues>
 VAL166  LYS551  ARG553  GLY616  TRP617  ASP618  TYR619  PRO620  LYS621  CYS622 
 ASP623  PHE694  ASN695  SER759  ASP760  ASP761  ALA762  ILE779  LEU786  VAL792 
 PHE793  MET794  SER795  GLU796  ALA797  LYS798  CYS799  TRP800  GLU811  SER814 

> <Gold.Protein.RotatedAtoms>
  152.4614  133.7830  159.6860 H   0  0  0  0  0  0  0  0  0  0  0  0  # atno 6907 bound_to 6896
  150.8560  133.7705  159.3015 H   0  0  0  0  0  0  0  0  0  0  0  0  # atno 6908 bound_to 6896
  151.5286  135.1071  159.9949 H   0  0  0  0  0  0  0  0  0  0  0  0  # atno 6909 bound_to 6896
  144.7682  140.4367  143.5926 H   0  0  0  0  0  0  0  0  0  0  0  0  # atno 7974 bound_to 7965
  156.1398  140.3180  155.8477 H   0  0  0  0  0  0  0  0  0  0  0  0  # atno 8008 bound_to 7997
  155.4176  140.0510  157.3045 H   0  0  0  0  0  0  0  0  0  0  0  0  # atno 8009 bound_to 7997
  154.4967  140.2113  155.9445 H   0  0  0  0  0  0  0  0  0  0  0  0  # atno 8010 bound_to 7997
  140.3989  143.2671  151.9169 H   0  0  0  0  0  0  0  0  0  0  0  0  # atno 10167 bound_to 10162
  157.4384  131.1055  151.0171 H   0  0  0  0  0  0  0  0  0  0  0  0  # atno 10718 bound_to 10713
  153.0068  135.6299  154.2021 H   0  0  0  0  0  0  0  0  0  0  0  0  # atno 10763 bound_to 10752
  154.1764  135.2815  155.3067 H   0  0  0  0  0  0  0  0  0  0  0  0  # atno 10764 bound_to 10752
  154.5869  135.5630  153.7299 H   0  0  0  0  0  0  0  0  0  0  0  0  # atno 10765 bound_to 10752
  140.6092  134.4867  157.5213 H   0  0  0  0  0  0  0  0  0  0  0  0  # atno 11005 bound_to 11000
  145.6405  139.1549  143.2918 LP  0  0  0  0  0  0  0  0  0  0  0  0  # atno 17320 bound_to 7965
  146.1807  140.6502  142.9190 LP  0  0  0  0  0  0  0  0  0  0  0  0  # atno 17321 bound_to 7965
  139.4785  144.5654  151.8173 LP  0  0  0  0  0  0  0  0  0  0  0  0  # atno 17342 bound_to 10162
  140.4761  144.1517  150.5925 LP  0  0  0  0  0  0  0  0  0  0  0  0  # atno 17343 bound_to 10162
  157.1043  130.5995  149.5467 LP  0  0  0  0  0  0  0  0  0  0  0  0  # atno 17370 bound_to 10713
  155.9939  130.5002  150.7399 LP  0  0  0  0  0  0  0  0  0  0  0  0  # atno 17371 bound_to 10713
  139.9199  134.8169  156.1244 LP  0  0  0  0  0  0  0  0  0  0  0  0  # atno 17394 bound_to 11000
  141.0820  133.6750  156.2356 LP  0  0  0  0  0  0  0  0  0  0  0  0  # atno 17395 bound_to 11000

$$$$
