AV-unprocessed.smi:2228|AV-procd|sdf|9024|dock7
  -GOLD-   2272012233D 1   1.00000     0.00000
 Structure written by MMmdl.
 40 41  0  0  0  0  0  0  0  0  1 V2000
  148.6052  138.2750  156.5517 C   0  0  0  0  0  0  0  0  0  0  0  0
  148.6936  139.5733  155.9876 O   0  0  0  0  0  0  0  0  0  0  0  0
  149.0194  139.5763  154.6000 C   0  0  1  0  0  0  0  0  0  0  0  0
  147.9037  138.8664  153.8252 C   0  0  0  0  0  0  0  0  0  0  0  0
  146.8252  139.9338  153.6639 C   0  0  0  0  0  0  0  0  0  0  0  0
  147.5968  141.2386  153.4500 C   0  0  0  0  0  0  0  0  0  0  0  0
  148.9992  141.0224  154.0525 C   0  0  1  0  0  0  0  0  0  0  0  0
  149.2996  142.0269  155.0707 N   0  0  0  0  0  0  0  0  0  0  0  0
  150.2298  141.8919  156.0267 C   0  0  0  0  0  0  0  0  0  0  0  0
  150.9495  140.8984  156.1360 O   0  0  0  0  0  0  0  0  0  0  0  0
  150.2607  142.9693  156.8301 N   0  0  0  0  0  0  0  0  0  0  0  0
  151.0801  143.1919  157.9682 C   0  0  0  0  0  0  0  0  0  0  0  0
  151.8848  142.0952  158.3497 C   0  0  0  0  0  0  0  0  0  0  0  0
  152.7376  142.2139  159.4656 C   0  0  0  0  0  0  0  0  0  0  0  0
  153.6100  141.0511  159.8892 C   0  0  0  0  0  0  0  0  0  0  0  0
  152.7623  143.4321  160.1712 C   0  0  0  0  0  0  0  0  0  0  0  0
  151.9293  144.4763  159.7240 C   0  0  0  0  0  0  0  0  0  0  0  0
  151.9110  145.8152  160.4310 C   0  0  0  0  0  0  0  0  0  0  0  0
  151.1126  144.3608  158.6551 N   0  0  0  0  0  0  0  0  0  0  0  0
  148.3421  138.3544  157.6064 H   0  0  0  0  0  0  0  0  0  0  0  0
  149.5610  137.7539  156.4847 H   0  0  0  0  0  0  0  0  0  0  0  0
  147.8428  137.6699  156.0608 H   0  0  0  0  0  0  0  0  0  0  0  0
  149.9962  139.1189  154.4319 H   0  0  0  0  0  0  0  0  0  0  0  0
  148.2731  138.5743  152.8414 H   0  0  0  0  0  0  0  0  0  0  0  0
  147.5326  137.9669  154.3160 H   0  0  0  0  0  0  0  0  0  0  0  0
  146.1377  139.7149  152.8469 H   0  0  0  0  0  0  0  0  0  0  0  0
  146.2392  140.0008  154.5816 H   0  0  0  0  0  0  0  0  0  0  0  0
  147.6868  141.4447  152.3829 H   0  0  0  0  0  0  0  0  0  0  0  0
  147.0672  142.0825  153.8942 H   0  0  0  0  0  0  0  0  0  0  0  0
  149.7278  141.1066  153.2438 H   0  0  0  0  0  0  0  0  0  0  0  0
  148.7472  142.8714  155.0547 H   0  0  0  0  0  0  0  0  0  0  0  0
  149.6162  143.7131  156.6076 H   0  0  0  0  0  0  0  0  0  0  0  0
  151.8507  141.1696  157.7932 H   0  0  0  0  0  0  0  0  0  0  0  0
  154.1558  141.2776  160.8055 H   0  0  0  0  0  0  0  0  0  0  0  0
  154.3341  140.8199  159.1079 H   0  0  0  0  0  0  0  0  0  0  0  0
  153.0002  140.1649  160.0664 H   0  0  0  0  0  0  0  0  0  0  0  0
  153.4038  143.5637  161.0303 H   0  0  0  0  0  0  0  0  0  0  0  0
  152.4748  145.7773  161.3634 H   0  0  0  0  0  0  0  0  0  0  0  0
  150.8876  146.1101  160.6649 H   0  0  0  0  0  0  0  0  0  0  0  0
  152.3534  146.5826  159.7951 H   0  0  0  0  0  0  0  0  0  0  0  0
  1  2  1  0  0  0  0
  1 20  1  0  0  0  0
  1 21  1  0  0  0  0
  1 22  1  0  0  0  0
  2  3  1  0  0  0  0
  3  7  1  0  0  0  0
  3  4  1  0  0  0  0
  3 23  1  0  0  0  0
  4  5  1  0  0  0  0
  4 24  1  0  0  0  0
  4 25  1  0  0  0  0
  5  6  1  0  0  0  0
  5 26  1  0  0  0  0
  5 27  1  0  0  0  0
  6  7  1  0  0  0  0
  6 28  1  0  0  0  0
  6 29  1  0  0  0  0
  7  8  1  0  0  0  0
  7 30  1  0  0  0  0
  8  9  1  0  0  0  0
  8 31  1  0  0  0  0
  9 10  2  0  0  0  0
  9 11  1  0  0  0  0
 11 12  1  0  0  0  0
 11 32  1  0  0  0  0
 12 19  1  0  0  0  0
 12 13  2  0  0  0  0
 13 14  1  0  0  0  0
 13 33  1  0  0  0  0
 14 15  1  0  0  0  0
 14 16  2  0  0  0  0
 15 34  1  0  0  0  0
 15 35  1  0  0  0  0
 15 36  1  0  0  0  0
 16 17  1  0  0  0  0
 16 37  1  0  0  0  0
 17 18  1  0  0  0  0
 17 19  2  0  0  0  0
 18 38  1  0  0  0  0
 18 39  1  0  0  0  0
 18 40  1  0  0  0  0
M  END
> <s_m_source_file>
AV-unprocessed.smi

> <i_m_source_file_index>
2228

> <i_lp_mmshare_version>
43012

> <i_f3d_flags>
0

> <s_epik_input>
W0NIM11PW0NAQEhdMVtDSDJdW0NIMl1bQ0gyXVtDQEhdMVtOSF1DKD1PKVtOSF1jMltjSF1jKFtDSDNdKVtjSF1jKG4yKVtDSDNd

> <s_epik_cmdline>
J2VwaWtfcHl0aG9uJywgJy1waCcsICc3LjAnLCAnLXRuJywgJzgnLCAnLW1hJywgJzIwMCcsICctbWV0YWxfYmluZGluZycsICctaW1hZScsICc8aW5maWxlLm1hZT4nLCAnLW9tYWUnLCAnPG91dGZpbGUubWFlPic=

> <r_lp_tautomer_probability>
1

> <r_epik_Ionization_Penalty>
0.000275391

> <r_epik_Ionization_Penalty_Charging>
0

> <r_epik_Ionization_Penalty_Neutral>
0.000275391

> <r_epik_State_Penalty>
-0

> <r_epik_Charging_Adjusted_Penalty>
0

> <i_epik_Tot_Q>
0

> <i_epik_Tot_abs_Q>
0

> <r_epik_Metal_State_Penalty>
-0

> <b_epik_Metal_Only>
0

> <s_lp_Force_Field>
OPLS_2005

> <r_lp_Energy>
22.5757

> <b_lp_Chiralities_Consistent>
1

> <s_lp_Variant>
AV-unprocessed.smi:2228-2

> <Gold.Version>
5.8.1

> <Gold.Id.Protein>
6NUR|6NUR_protein|mol2

> <Gold.PLP.Fitness>
40.9599

> <Gold.PLP.PLP>
-38.3475

> <Gold.PLP.part.hbond>
-2.0000

> <Gold.PLP.part.metal>
0.0000

> <Gold.PLP.part.buried>
-5.2906

> <Gold.PLP.part.nonpolar>
-32.7639

> <Gold.PLP.part.repulsive>
0.3807

> <Gold.PLP.ligand.clash>
2.3471

> <Gold.PLP.ligand.torsion>
0.2982

> <Gold.PLP.Chemscore.Hbond>
1.8480

> <Gold.PLP.Chemscore.CHOScore>
0.0000

> <Gold.PLP.Chemscore.Metal>
0.0000

> <Gold.Chemscore.Hbonds>
donor molecule, donor type, donor heavy atom, donor atom, acceptor molecule, acceptor atom, score
      L1  H     8    31       P1  8028  0.80
      L1  H    11    32       P1  8028  1.00

> <Gold.PLP.Chemscore.Internal.Correction>
0.0120

> <Gold.Rescore>
     Score         DG    S(hbond)    S(metal)    S(lipo)     H(rot)  DE(clash)    DE(int)     intcor
     16.52     -19.43       1.74        0.00      96.19       1.21       0.82       2.10       ----

> <Gold.Chemscore.Fitness>
16.5152

> <Gold.Chemscore.DG>
-19.4299

> <Gold.Chemscore.ZeroCoef>
-5.4800

> <Gold.Chemscore.Hbond>
1.7361

> <Gold.Chemscore.Metal>
0.0000

> <Gold.Chemscore.Lipo>
96.1866

> <Gold.Chemscore.Internal_Hbond>
0.0000

> <Gold.Chemscore.DEClash>
0.8155

> <Gold.Chemscore.DEInternal>
2.0992

> <Gold.Chemscore.Rot>
1.2119

> <Gold.Chemscore.Internal.Correction>
   9.000000E+99

> <Gold.Chemscore.Hbonds>
donor molecule, donor type, donor heavy atom, donor atom, acceptor molecule, acceptor atom, score
      L1  H     8    31       P1  8028  0.79
      L1  H    11    32       P1  8028  0.94

> <Gold.Chemscore.Hbond.Weighted>
-5.7986

> <Gold.Chemscore.Metal.Weighted>
-0.0000

> <Gold.Chemscore.Lipo.Weighted>
-11.2538

> <Gold.Chemscore.Internal_Hbond.Weighted>
0.0000

> <Gold.Chemscore.DEClash.Weighted>
0.8155

> <Gold.Chemscore.DEInternal.Weighted>
2.0992

> <Gold.Chemscore.Rot.Weighted>
3.1026

> <Gold.Chemscore.Internal.Correction.Weighted>
   9.000000E+99

> <Gold.Protein.RotatedTorsions>
[ 6907 6896 6895 6894 ] final  -50.30 input  -60.11 | X-H torsion
[ 7974 7965 7964 7962 ] final   56.52 input  175.53 | X-H torsion
[ 8008 7997 7996 7995 ] final  -17.40 input   59.86 | X-H torsion
[ 10167 10162 10161 10158 ] final   35.23 input  -65.29 | X-H torsion
[ 10718 10713 10712 10709 ] final  104.81 input   66.30 | X-H torsion
[ 10763 10752 10751 10750 ] final  156.64 input  -60.55 | X-H torsion
[ 11005 11000 10999 10996 ] final   80.43 input  -57.11 | X-H torsion

> <Gold.Protein.ActiveResidues>
 VAL166  LYS551  ARG553  GLY616  TRP617  ASP618  TYR619  PRO620  LYS621  CYS622 
 ASP623  PHE694  ASN695  SER759  ASP760  ASP761  ALA762  ILE779  LEU786  VAL792 
 PHE793  MET794  SER795  GLU796  ALA797  LYS798  CYS799  TRP800  GLU811  SER814 

> <Gold.Protein.RotatedAtoms>
  150.8720  134.8096  159.7161 H   0  0  0  0  0  0  0  0  0  0  0  0  # atno 6907 bound_to 6896
  152.4721  134.4931  159.9711 H   0  0  0  0  0  0  0  0  0  0  0  0  # atno 6908 bound_to 6896
  151.5018  133.3464  159.2906 H   0  0  0  0  0  0  0  0  0  0  0  0  # atno 6909 bound_to 6896
  145.9389  139.3871  143.0375 H   0  0  0  0  0  0  0  0  0  0  0  0  # atno 7974 bound_to 7965
  154.4981  140.2144  155.9404 H   0  0  0  0  0  0  0  0  0  0  0  0  # atno 8008 bound_to 7997
  156.1398  140.3182  155.8445 H   0  0  0  0  0  0  0  0  0  0  0  0  # atno 8009 bound_to 7997
  155.4142  140.0492  157.3020 H   0  0  0  0  0  0  0  0  0  0  0  0  # atno 8010 bound_to 7997
  140.4241  144.1418  150.6151 H   0  0  0  0  0  0  0  0  0  0  0  0  # atno 10167 bound_to 10162
  157.6727  131.0813  150.5763 H   0  0  0  0  0  0  0  0  0  0  0  0  # atno 10718 bound_to 10713
  154.1876  135.2796  155.3032 H   0  0  0  0  0  0  0  0  0  0  0  0  # atno 10763 bound_to 10752
  154.5954  135.5546  153.7323 H   0  0  0  0  0  0  0  0  0  0  0  0  # atno 10764 bound_to 10752
  153.0121  135.6378  154.2015 H   0  0  0  0  0  0  0  0  0  0  0  0  # atno 10765 bound_to 10752
  139.9135  134.7919  156.1908 H   0  0  0  0  0  0  0  0  0  0  0  0  # atno 11005 bound_to 11000
  145.8326  140.9623  143.0841 LP  0  0  0  0  0  0  0  0  0  0  0  0  # atno 17320 bound_to 7965
  144.6776  140.0182  143.7484 LP  0  0  0  0  0  0  0  0  0  0  0  0  # atno 17321 bound_to 7965
  140.4501  143.2490  151.9359 LP  0  0  0  0  0  0  0  0  0  0  0  0  # atno 17342 bound_to 10162
  139.4783  144.5570  151.8297 LP  0  0  0  0  0  0  0  0  0  0  0  0  # atno 17343 bound_to 10162
  156.6064  130.4368  149.5876 LP  0  0  0  0  0  0  0  0  0  0  0  0  # atno 17370 bound_to 10713
  156.2465  130.6882  151.1605 LP  0  0  0  0  0  0  0  0  0  0  0  0  # atno 17371 bound_to 10713
  141.0585  133.6853  156.1907 LP  0  0  0  0  0  0  0  0  0  0  0  0  # atno 17394 bound_to 11000
  140.6699  134.4879  157.5587 LP  0  0  0  0  0  0  0  0  0  0  0  0  # atno 17395 bound_to 11000

$$$$
