AV-unprocessed.smi:418|AV-procd|sdf|2529|dock6
  -GOLD-   2262022483D 1   1.00000     0.00000
 Structure written by MMmdl.
 40 42  0  0  0  0  0  0  0  0  1 V2000
  153.5175  142.8705  163.5495 C   0  0  0  0  0  0  0  0  0  0  0  0
  153.4192  142.3848  162.1783 N   0  0  0  0  0  0  0  0  0  0  0  0
  153.9494  141.2440  161.6782 C   0  0  0  0  0  0  0  0  0  0  0  0
  154.6142  140.4187  162.3043 O   0  0  0  0  0  0  0  0  0  0  0  0
  153.6246  141.1718  160.3657 N   0  0  0  0  0  0  0  0  0  0  0  0
  154.0095  140.1156  159.4321 C   0  0  0  0  0  0  0  0  0  0  0  0
  152.7960  139.5801  158.6458 C   0  0  1  0  0  0  0  0  0  0  0  0
  153.1417  139.3528  157.2948 O   0  0  0  0  0  0  0  0  0  0  0  0
  152.2409  138.2647  159.2168 C   0  0  0  0  0  0  0  0  0  0  0  0
  153.2533  137.2655  159.1955 O   0  0  0  0  0  0  0  0  0  0  0  0
  153.8632  136.9230  160.3834 C   0  0  0  0  0  0  0  0  0  0  0  0
  153.5445  137.5028  161.6379 C   0  0  0  0  0  0  0  0  0  0  0  0
  154.2201  137.0945  162.8045 C   0  0  0  0  0  0  0  0  0  0  0  0
  155.2184  136.1055  162.7341 C   0  0  0  0  0  0  0  0  0  0  0  0
  155.5404  135.5238  161.4941 C   0  0  0  0  0  0  0  0  0  0  0  0
  154.8660  135.9313  160.3268 C   0  0  0  0  0  0  0  0  0  0  0  0
  155.1862  135.3637  159.1393 F   0  0  0  0  0  0  0  0  0  0  0  0
  152.8780  142.3056  160.0139 C   0  0  0  0  0  0  0  0  0  0  0  0
  152.3221  142.7042  158.7856 C   0  0  0  0  0  0  0  0  0  0  0  0
  151.6166  143.9303  158.7637 C   0  0  0  0  0  0  0  0  0  0  0  0
  151.4849  144.7151  159.9392 C   0  0  0  0  0  0  0  0  0  0  0  0
  152.0560  144.2906  161.1620 C   0  0  0  0  0  0  0  0  0  0  0  0
  152.7498  143.0683  161.1554 C   0  0  0  0  0  0  0  0  0  0  0  0
  153.9624  142.1298  164.2152 H   0  0  0  0  0  0  0  0  0  0  0  0
  152.5278  143.1149  163.9360 H   0  0  0  0  0  0  0  0  0  0  0  0
  154.1315  143.7707  163.5857 H   0  0  0  0  0  0  0  0  0  0  0  0
  154.7941  140.4591  158.7552 H   0  0  0  0  0  0  0  0  0  0  0  0
  154.4555  139.3077  160.0135 H   0  0  0  0  0  0  0  0  0  0  0  0
  151.9909  140.3159  158.6569 H   0  0  0  0  0  0  0  0  0  0  0  0
  152.9418  138.4535  157.0828 H   0  0  0  0  0  0  0  0  0  0  0  0
  151.9319  138.4360  160.2490 H   0  0  0  0  0  0  0  0  0  0  0  0
  151.3603  137.9467  158.6555 H   0  0  0  0  0  0  0  0  0  0  0  0
  152.7850  138.2637  161.7327 H   0  0  0  0  0  0  0  0  0  0  0  0
  153.9714  137.5419  163.7555 H   0  0  0  0  0  0  0  0  0  0  0  0
  155.7360  135.7934  163.6292 H   0  0  0  0  0  0  0  0  0  0  0  0
  156.3059  134.7641  161.4369 H   0  0  0  0  0  0  0  0  0  0  0  0
  152.4282  142.1039  157.8940 H   0  0  0  0  0  0  0  0  0  0  0  0
  151.1734  144.2743  157.8408 H   0  0  0  0  0  0  0  0  0  0  0  0
  150.9432  145.6486  159.8993 H   0  0  0  0  0  0  0  0  0  0  0  0
  151.9621  144.8829  162.0602 H   0  0  0  0  0  0  0  0  0  0  0  0
  1  2  1  0  0  0  0
  1 24  1  0  0  0  0
  1 25  1  0  0  0  0
  1 26  1  0  0  0  0
  2 23  1  0  0  0  0
  2  3  1  0  0  0  0
  3  4  2  0  0  0  0
  3  5  1  0  0  0  0
  5  6  1  0  0  0  0
  5 18  1  0  0  0  0
  6  7  1  0  0  0  0
  6 27  1  0  0  0  0
  6 28  1  0  0  0  0
  7  8  1  0  0  0  0
  7  9  1  0  0  0  0
  7 29  1  0  0  0  0
  8 30  1  0  0  0  0
  9 10  1  0  0  0  0
  9 31  1  0  0  0  0
  9 32  1  0  0  0  0
 10 11  1  0  0  0  0
 11 16  1  0  0  0  0
 11 12  2  0  0  0  0
 12 13  1  0  0  0  0
 12 33  1  0  0  0  0
 13 14  2  0  0  0  0
 13 34  1  0  0  0  0
 14 15  1  0  0  0  0
 14 35  1  0  0  0  0
 15 16  2  0  0  0  0
 15 36  1  0  0  0  0
 16 17  1  0  0  0  0
 18 23  2  0  0  0  0
 18 19  1  0  0  0  0
 19 20  2  0  0  0  0
 19 37  1  0  0  0  0
 20 21  1  0  0  0  0
 20 38  1  0  0  0  0
 21 22  2  0  0  0  0
 21 39  1  0  0  0  0
 22 23  1  0  0  0  0
 22 40  1  0  0  0  0
M  END
> <s_m_source_file>
AV-unprocessed.smi

> <i_m_source_file_index>
418

> <i_lp_mmshare_version>
43012

> <i_f3d_flags>
0

> <s_epik_input>
W2NIXTFbY0hdW2NIXVtjSF1jKGMxMiluKFtDSDNdKWMoPU8pbjJbQ0gyXVtDQEhdKFtPSF0pW0NIMl1PYzNbY0hdW2NIXVtjSF1bY0hdYzNG

> <s_epik_cmdline>
J2VwaWtfcHl0aG9uJywgJy1waCcsICc3LjAnLCAnLXRuJywgJzgnLCAnLW1hJywgJzIwMCcsICctbWV0YWxfYmluZGluZycsICctaW1hZScsICc8aW5maWxlLm1hZT4nLCAnLW9tYWUnLCAnPG91dGZpbGUubWFlPic=

> <r_lp_tautomer_probability>
1

> <r_epik_Ionization_Penalty>
2.40171e-06

> <r_epik_Ionization_Penalty_Charging>
2.41238e-09

> <r_epik_Ionization_Penalty_Neutral>
2.3993e-06

> <r_epik_State_Penalty>
-0

> <r_epik_Charging_Adjusted_Penalty>
2.41238e-09

> <i_epik_Tot_Q>
0

> <i_epik_Tot_abs_Q>
0

> <r_epik_Metal_State_Penalty>
-0

> <b_epik_Metal_Only>
0

> <s_lp_Force_Field>
OPLS_2005

> <r_lp_Energy>
48.5553

> <b_lp_Chiralities_Consistent>
1

> <s_lp_Variant>
AV-unprocessed.smi:418-2

> <Gold.Version>
5.8.1

> <Gold.Id.Protein>
6NUR|6NUR_protein|mol2

> <Gold.PLP.Fitness>
55.3927

> <Gold.PLP.PLP>
-54.2809

> <Gold.PLP.part.hbond>
-1.0000

> <Gold.PLP.part.metal>
0.0000

> <Gold.PLP.part.buried>
-6.3458

> <Gold.PLP.part.nonpolar>
-46.5025

> <Gold.PLP.part.repulsive>
0.0000

> <Gold.PLP.ligand.clash>
0.0000

> <Gold.PLP.ligand.torsion>
0.9651

> <Gold.PLP.Chemscore.Hbond>
1.0000

> <Gold.PLP.Chemscore.CHOScore>
0.0000

> <Gold.PLP.Chemscore.Metal>
0.0000

> <Gold.Chemscore.Hbonds>
donor molecule, donor type, donor heavy atom, donor atom, acceptor molecule, acceptor atom, score
      P1  H  7997  8010       L1     8  1.00

> <Gold.PLP.Chemscore.Internal.Correction>
0.0421

> <Gold.Rescore>
     Score         DG    S(hbond)    S(metal)    S(lipo)     H(rot)  DE(clash)    DE(int)     intcor
     18.36     -19.37       0.98        0.00     140.27       2.27       0.04       0.96       ----

> <Gold.Chemscore.Fitness>
18.3593

> <Gold.Chemscore.DG>
-19.3666

> <Gold.Chemscore.ZeroCoef>
-5.4800

> <Gold.Chemscore.Hbond>
0.9845

> <Gold.Chemscore.Metal>
0.0000

> <Gold.Chemscore.Lipo>
140.2665

> <Gold.Chemscore.Internal_Hbond>
0.0000

> <Gold.Chemscore.DEClash>
0.0432

> <Gold.Chemscore.DEInternal>
0.9640

> <Gold.Chemscore.Rot>
2.2706

> <Gold.Chemscore.Internal.Correction>
   9.000000E+99

> <Gold.Chemscore.Hbonds>
donor molecule, donor type, donor heavy atom, donor atom, acceptor molecule, acceptor atom, score
      P1  H  7997  8010       L1     8  0.93

> <Gold.Chemscore.Hbond.Weighted>
-3.2882

> <Gold.Chemscore.Metal.Weighted>
-0.0000

> <Gold.Chemscore.Lipo.Weighted>
-16.4112

> <Gold.Chemscore.Internal_Hbond.Weighted>
0.0000

> <Gold.Chemscore.DEClash.Weighted>
0.0432

> <Gold.Chemscore.DEInternal.Weighted>
0.9640

> <Gold.Chemscore.Rot.Weighted>
5.8128

> <Gold.Chemscore.Internal.Correction.Weighted>
   9.000000E+99

> <Gold.Protein.RotatedTorsions>
[ 6907 6896 6895 6894 ] final  -71.47 input  -60.11 | X-H torsion
[ 7974 7965 7964 7962 ] final  -45.70 input  175.53 | X-H torsion
[ 8008 7997 7996 7995 ] final   57.68 input   59.86 | X-H torsion
[ 10167 10162 10161 10158 ] final  -55.00 input  -65.29 | X-H torsion
[ 10718 10713 10712 10709 ] final  -27.73 input   66.30 | X-H torsion
[ 10763 10752 10751 10750 ] final  151.03 input  -60.55 | X-H torsion
[ 11005 11000 10999 10996 ] final   96.86 input  -57.11 | X-H torsion

> <Gold.Protein.ActiveResidues>
 VAL166  LYS551  ARG553  GLY616  TRP617  ASP618  TYR619  PRO620  LYS621  CYS622 
 ASP623  PHE694  ASN695  SER759  ASP760  ASP761  ALA762  ILE779  LEU786  VAL792 
 PHE793  MET794  SER795  GLU796  ALA797  LYS798  CYS799  TRP800  GLU811  SER814 

> <Gold.Protein.RotatedAtoms>
  150.7211  134.5303  159.5696 H   0  0  0  0  0  0  0  0  0  0  0  0  # atno 6907 bound_to 6896
  152.2838  134.7796  160.0400 H   0  0  0  0  0  0  0  0  0  0  0  0  # atno 6908 bound_to 6896
  151.8433  133.3392  159.3687 H   0  0  0  0  0  0  0  0  0  0  0  0  # atno 6909 bound_to 6896
  145.9793  140.7300  142.9371 H   0  0  0  0  0  0  0  0  0  0  0  0  # atno 7974 bound_to 7965
  155.5376  140.3483  155.4440 H   0  0  0  0  0  0  0  0  0  0  0  0  # atno 8008 bound_to 7997
  156.0674  140.1354  156.9896 H   0  0  0  0  0  0  0  0  0  0  0  0  # atno 8009 bound_to 7997
  154.4510  140.0973  156.6592 H   0  0  0  0  0  0  0  0  0  0  0  0  # atno 8010 bound_to 7997
  140.6399  143.2502  151.5017 H   0  0  0  0  0  0  0  0  0  0  0  0  # atno 10167 bound_to 10162
  156.4344  130.4451  149.7095 H   0  0  0  0  0  0  0  0  0  0  0  0  # atno 10718 bound_to 10713
  154.0972  135.2848  155.3259 H   0  0  0  0  0  0  0  0  0  0  0  0  # atno 10763 bound_to 10752
  154.6580  135.5345  153.7986 H   0  0  0  0  0  0  0  0  0  0  0  0  # atno 10764 bound_to 10752
  153.0392  135.6526  154.1138 H   0  0  0  0  0  0  0  0  0  0  0  0  # atno 10765 bound_to 10752
  139.8779  134.8972  156.4221 H   0  0  0  0  0  0  0  0  0  0  0  0  # atno 11005 bound_to 11000
  144.6857  140.2882  143.7282 LP  0  0  0  0  0  0  0  0  0  0  0  0  # atno 17320 bound_to 7965
  145.7792  139.1885  143.2167 LP  0  0  0  0  0  0  0  0  0  0  0  0  # atno 17321 bound_to 7965
  139.5609  144.2160  152.1689 LP  0  0  0  0  0  0  0  0  0  0  0  0  # atno 17342 bound_to 10162
  140.1427  144.5187  150.6734 LP  0  0  0  0  0  0  0  0  0  0  0  0  # atno 17343 bound_to 10162
  156.3985  130.7663  151.2669 LP  0  0  0  0  0  0  0  0  0  0  0  0  # atno 17370 bound_to 10713
  157.7507  131.0247  150.3886 LP  0  0  0  0  0  0  0  0  0  0  0  0  # atno 17371 bound_to 10713
  140.9126  133.7701  155.9810 LP  0  0  0  0  0  0  0  0  0  0  0  0  # atno 17394 bound_to 11000
  140.8529  134.2933  157.5268 LP  0  0  0  0  0  0  0  0  0  0  0  0  # atno 17395 bound_to 11000

$$$$
