AV-unprocessed.smi:280|AV-procd|sdf|2097|dock5
  -GOLD-   2262021383D 1   1.00000     0.00000
 Structure written by MMmdl.
 59 62  0  0  0  0  0  0  0  0  2 V2000
  147.9978  140.5256  153.1987 C   0  0  0  0  0  0  0  0  0  0  0  0
  147.6987  139.1307  153.7847 C   0  0  2  0  0  0  0  0  0  0  0  0
  146.2737  139.1624  154.3921 C   0  0  0  0  0  0  0  0  0  0  0  0
  145.9388  137.9393  155.1158 N   0  0  0  0  0  0  0  0  0  0  0  0
  145.3855  136.8958  154.4416 C   0  0  0  0  0  0  0  0  0  0  0  0
  144.7553  135.9042  155.1263 N   0  0  0  0  0  0  0  0  0  0  0  0
  144.1940  134.8814  154.4755 C   0  0  0  0  0  0  0  0  0  0  0  0
  144.1464  134.6551  153.1622 N   0  0  0  0  0  0  0  0  0  0  0  0
  144.7834  135.6399  152.4666 C   0  0  0  0  0  0  0  0  0  0  0  0
  145.4303  136.7801  153.0227 C   0  0  0  0  0  0  0  0  0  0  0  0
  145.9933  137.5433  152.0070 N   0  0  0  0  0  0  0  0  0  0  0  0
  145.6859  136.8994  150.9148 C   0  0  0  0  0  0  0  0  0  0  0  0
  144.9410  135.7555  151.0957 N   0  0  0  0  0  0  0  0  0  0  0  0
  144.4596  134.8508  150.0602 C   0  0  0  0  0  0  0  0  0  0  0  0
  144.8023  133.3582  150.2897 C   0  0  0  0  0  0  0  0  0  0  0  0
  146.2202  133.2804  150.8719 C   0  0  0  0  0  0  0  0  0  0  0  0
  146.5898  131.9441  151.1454 O   0  0  0  0  0  0  0  0  0  0  0  0
  143.7390  132.4790  150.9710 C   0  0  0  0  0  0  0  0  0  0  0  0
  143.3034  131.9363  149.7068 O   0  0  0  0  0  0  0  0  0  0  0  0
  144.5276  132.4116  149.1086 C   0  0  0  0  0  0  0  0  0  0  0  0
  146.9096  137.5986  156.1466 C   0  0  0  0  0  0  0  0  0  0  0  0
  148.3079  137.4652  155.5294 C   0  0  0  0  0  0  0  0  0  0  0  0
  148.7143  138.6973  154.7973 N   0  3  1  0  0  0  0  0  0  0  0  0
  150.1049  138.5735  154.2699 C   0  0  0  0  0  0  0  0  0  0  0  0
  151.1802  139.0176  155.2917 C   0  0  0  0  0  0  0  0  0  0  0  0
  152.5844  138.8400  154.6893 C   0  0  0  0  0  0  0  0  0  0  0  0
  150.9906  140.4686  155.7697 C   0  0  0  0  0  0  0  0  0  0  0  0
  151.1174  138.1711  156.4222 O   0  0  0  0  0  0  0  0  0  0  0  0
  147.2107  140.8272  152.5070 H   0  0  0  0  0  0  0  0  0  0  0  0
  148.9302  140.5657  152.6383 H   0  0  0  0  0  0  0  0  0  0  0  0
  148.0463  141.2819  153.9825 H   0  0  0  0  0  0  0  0  0  0  0  0
  147.7171  138.4043  152.9711 H   0  0  0  0  0  0  0  0  0  0  0  0
  146.1999  139.9881  155.1011 H   0  0  0  0  0  0  0  0  0  0  0  0
  145.5288  139.3676  153.6219 H   0  0  0  0  0  0  0  0  0  0  0  0
  143.7124  134.1397  155.0954 H   0  0  0  0  0  0  0  0  0  0  0  0
  145.9962  137.2472  149.9403 H   0  0  0  0  0  0  0  0  0  0  0  0
  143.3792  134.9811  149.9856 H   0  0  0  0  0  0  0  0  0  0  0  0
  144.8642  135.1993  149.1095 H   0  0  0  0  0  0  0  0  0  0  0  0
  146.9516  133.6923  150.1757 H   0  0  0  0  0  0  0  0  0  0  0  0
  146.3019  133.8639  151.7894 H   0  0  0  0  0  0  0  0  0  0  0  0
  147.3828  131.7479  150.6703 H   0  0  0  0  0  0  0  0  0  0  0  0
  144.1565  131.7047  151.6171 H   0  0  0  0  0  0  0  0  0  0  0  0
  142.9562  133.0268  151.4927 H   0  0  0  0  0  0  0  0  0  0  0  0
  144.3717  132.9068  148.1515 H   0  0  0  0  0  0  0  0  0  0  0  0
  145.2590  131.6084  149.0043 H   0  0  0  0  0  0  0  0  0  0  0  0
  146.9083  138.3867  156.9007 H   0  0  0  0  0  0  0  0  0  0  0  0
  146.6493  136.6782  156.6671 H   0  0  0  0  0  0  0  0  0  0  0  0
  149.0276  137.2450  156.3177 H   0  0  0  0  0  0  0  0  0  0  0  0
  148.3225  136.6157  154.8443 H   0  0  0  0  0  0  0  0  0  0  0  0
  150.2964  137.5442  153.9605 H   0  0  0  0  0  0  0  0  0  0  0  0
  150.2286  139.1484  153.3538 H   0  0  0  0  0  0  0  0  0  0  0  0
  152.7181  139.4711  153.8100 H   0  0  0  0  0  0  0  0  0  0  0  0
  152.7611  137.8081  154.3831 H   0  0  0  0  0  0  0  0  0  0  0  0
  153.3630  139.1074  155.4046 H   0  0  0  0  0  0  0  0  0  0  0  0
  151.0335  141.1680  154.9343 H   0  0  0  0  0  0  0  0  0  0  0  0
  151.7702  140.7571  156.4760 H   0  0  0  0  0  0  0  0  0  0  0  0
  150.0332  140.6088  156.2724 H   0  0  0  0  0  0  0  0  0  0  0  0
  150.6726  138.6302  157.1187 H   0  0  0  0  0  0  0  0  0  0  0  0
  148.7425  139.4343  155.4871 H   0  0  0  0  0  0  0  0  0  0  0  0
  1  2  1  0  0  0  0
  1 29  1  0  0  0  0
  1 30  1  0  0  0  0
  1 31  1  0  0  0  0
  2 23  1  0  0  0  0
  2  3  1  0  0  0  0
  2 32  1  0  0  0  0
  3  4  1  0  0  0  0
  3 33  1  0  0  0  0
  3 34  1  0  0  0  0
  4  5  1  0  0  0  0
  4 21  1  0  0  0  0
  5 10  1  0  0  0  0
  5  6  2  0  0  0  0
  6  7  1  0  0  0  0
  7  8  2  0  0  0  0
  7 35  1  0  0  0  0
  8  9  1  0  0  0  0
  9 13  1  0  0  0  0
  9 10  2  0  0  0  0
 10 11  1  0  0  0  0
 11 12  2  0  0  0  0
 12 13  1  0  0  0  0
 12 36  1  0  0  0  0
 13 14  1  0  0  0  0
 14 15  1  0  0  0  0
 14 37  1  0  0  0  0
 14 38  1  0  0  0  0
 15 20  1  0  0  0  0
 15 16  1  0  0  0  0
 15 18  1  0  0  0  0
 16 17  1  0  0  0  0
 16 39  1  0  0  0  0
 16 40  1  0  0  0  0
 17 41  1  0  0  0  0
 18 19  1  0  0  0  0
 18 42  1  0  0  0  0
 18 43  1  0  0  0  0
 19 20  1  0  0  0  0
 20 44  1  0  0  0  0
 20 45  1  0  0  0  0
 21 22  1  0  0  0  0
 21 46  1  0  0  0  0
 21 47  1  0  0  0  0
 22 23  1  0  0  0  0
 22 48  1  0  0  0  0
 22 49  1  0  0  0  0
 23 24  1  0  0  0  0
 23 59  1  0  0  0  0
 24 25  1  0  0  0  0
 24 50  1  0  0  0  0
 24 51  1  0  0  0  0
 25 26  1  0  0  0  0
 25 27  1  0  0  0  0
 25 28  1  0  0  0  0
 26 52  1  0  0  0  0
 26 53  1  0  0  0  0
 26 54  1  0  0  0  0
 27 55  1  0  0  0  0
 27 56  1  0  0  0  0
 27 57  1  0  0  0  0
 28 58  1  0  0  0  0
M  CHG  1  23   1
M  END
> <s_m_source_file>
AV-unprocessed.smi

> <i_m_source_file_index>
280

> <i_lp_mmshare_version>
43012

> <i_f3d_flags>
0

> <s_epik_input>
W0NIM11DKFtDSDNdKShbT0hdKVtDSDJdTjFbQ0gyXVtDSDJdTihbQ0gyXVtDQEhdMVtDSDNdKWMobltjSF1uMiljKGMyMyluW2NIXW4zW0NIMl1DNChbQ0gyXVtPSF0pW0NIMl1PW0NIMl00

> <s_epik_cmdline>
J2VwaWtfcHl0aG9uJywgJy1waCcsICc3LjAnLCAnLXRuJywgJzgnLCAnLW1hJywgJzIwMCcsICctbWV0YWxfYmluZGluZycsICctaW1hZScsICc8aW5maWxlLm1hZT4nLCAnLW9tYWUnLCAnPG91dGZpbGUubWFlPic=

> <r_lp_tautomer_probability>
1

> <r_epik_Ionization_Penalty>
0.00179402

> <r_epik_Ionization_Penalty_Charging>
0.00173996

> <r_epik_Ionization_Penalty_Neutral>
5.40607e-05

> <r_epik_State_Penalty>
-0

> <r_epik_Charging_Adjusted_Penalty>
0.00173996

> <i_epik_Tot_Q>
1

> <i_epik_Tot_abs_Q>
1

> <r_epik_Metal_State_Penalty>
-0

> <b_epik_Metal_Only>
0

> <s_lp_Force_Field>
OPLS_2005

> <r_lp_Energy>
49.5757

> <b_lp_Chiralities_Consistent>
1

> <s_lp_Variant>
AV-unprocessed.smi:280-1

> <Gold.Version>
5.8.1

> <Gold.Id.Protein>
6NUR|6NUR_protein|mol2

> <Gold.PLP.Fitness>
44.7255

> <Gold.PLP.PLP>
-36.2976

> <Gold.PLP.part.hbond>
-2.0000

> <Gold.PLP.part.metal>
0.0000

> <Gold.PLP.part.buried>
2.4272

> <Gold.PLP.part.nonpolar>
-38.1625

> <Gold.PLP.part.repulsive>
0.8877

> <Gold.PLP.ligand.clash>
0.0000

> <Gold.PLP.ligand.torsion>
1.2031

> <Gold.PLP.Chemscore.Hbond>
2.0000

> <Gold.PLP.Chemscore.CHOScore>
1.2031

> <Gold.PLP.Chemscore.Metal>
0.0000

> <Gold.Chemscore.Hbonds>
donor molecule, donor type, donor heavy atom, donor atom, acceptor molecule, acceptor atom, score
      L1  H    17    41       P1 10747  1.00
      P1  H 10785 10796       L1    19  0.88
      L1  C     7    35       P1 10957  0.80
      L1  C    12    36       P1 10171  0.19

> <Gold.PLP.Chemscore.Internal.Correction>
1.2248

> <Gold.Rescore>
     Score         DG    S(hbond)    S(metal)    S(lipo)     H(rot)  DE(clash)    DE(int)     intcor
      2.86     -10.58       1.23        0.00      87.78       3.63       2.89       4.83       ----

> <Gold.Chemscore.Fitness>
2.8625

> <Gold.Chemscore.DG>
-10.5847

> <Gold.Chemscore.ZeroCoef>
-5.4800

> <Gold.Chemscore.Hbond>
1.2327

> <Gold.Chemscore.Metal>
0.0000

> <Gold.Chemscore.Lipo>
87.7777

> <Gold.Chemscore.Internal_Hbond>
0.0000

> <Gold.Chemscore.DEClash>
2.8889

> <Gold.Chemscore.DEInternal>
4.8332

> <Gold.Chemscore.Rot>
3.6260

> <Gold.Chemscore.Internal.Correction>
   9.000000E+99

> <Gold.Chemscore.Hbonds>
donor molecule, donor type, donor heavy atom, donor atom, acceptor molecule, acceptor atom, score
      L1  H    17    41       P1 10747  0.99
      P1  H 10785 10796       L1    19  0.16

> <Gold.Chemscore.Hbond.Weighted>
-4.1172

> <Gold.Chemscore.Metal.Weighted>
-0.0000

> <Gold.Chemscore.Lipo.Weighted>
-10.2700

> <Gold.Chemscore.Internal_Hbond.Weighted>
0.0000

> <Gold.Chemscore.DEClash.Weighted>
2.8889

> <Gold.Chemscore.DEInternal.Weighted>
4.8332

> <Gold.Chemscore.Rot.Weighted>
9.2825

> <Gold.Chemscore.Internal.Correction.Weighted>
   9.000000E+99

> <Gold.Protein.RotatedTorsions>
[ 6907 6896 6895 6894 ] final -158.29 input  -60.11 | X-H torsion
[ 7974 7965 7964 7962 ] final   48.57 input  175.53 | X-H torsion
[ 8008 7997 7996 7995 ] final   64.61 input   59.86 | X-H torsion
[ 10167 10162 10161 10158 ] final -153.01 input  -65.29 | X-H torsion
[ 10718 10713 10712 10709 ] final   50.96 input   66.30 | X-H torsion
[ 10763 10752 10751 10750 ] final  -10.97 input  -60.55 | X-H torsion
[ 11005 11000 10999 10996 ] final  -44.41 input  -57.11 | X-H torsion

> <Gold.Protein.ActiveResidues>
 VAL166  LYS551  ARG553  GLY616  TRP617  ASP618  TYR619  PRO620  LYS621  CYS622 
 ASP623  PHE694  ASN695  SER759  ASP760  ASP761  ALA762  ILE779  LEU786  VAL792 
 PHE793  MET794  SER795  GLU796  ALA797  LYS798  CYS799  TRP800  GLU811  SER814 

> <Gold.Protein.RotatedAtoms>
  151.3159  133.4060  159.2650 H   0  0  0  0  0  0  0  0  0  0  0  0  # atno 6907 bound_to 6896
  151.0075  134.9371  159.7999 H   0  0  0  0  0  0  0  0  0  0  0  0  # atno 6908 bound_to 6896
  152.5292  134.3124  159.9170 H   0  0  0  0  0  0  0  0  0  0  0  0  # atno 6909 bound_to 6896
  146.0192  139.4631  142.9908 H   0  0  0  0  0  0  0  0  0  0  0  0  # atno 7974 bound_to 7965
  155.6487  140.3497  155.4740 H   0  0  0  0  0  0  0  0  0  0  0  0  # atno 8008 bound_to 7997
  155.9866  140.1185  157.0701 H   0  0  0  0  0  0  0  0  0  0  0  0  # atno 8009 bound_to 7997
  154.4206  140.1128  156.5494 H   0  0  0  0  0  0  0  0  0  0  0  0  # atno 8010 bound_to 7997
  139.7133  143.9074  152.2476 H   0  0  0  0  0  0  0  0  0  0  0  0  # atno 10167 bound_to 10162
  157.4935  130.8391  149.8231 H   0  0  0  0  0  0  0  0  0  0  0  0  # atno 10718 bound_to 10713
  153.4769  135.7017  153.5960 H   0  0  0  0  0  0  0  0  0  0  0  0  # atno 10763 bound_to 10752
  153.4190  135.3830  155.2099 H   0  0  0  0  0  0  0  0  0  0  0  0  # atno 10764 bound_to 10752
  154.8723  135.3923  154.4214 H   0  0  0  0  0  0  0  0  0  0  0  0  # atno 10765 bound_to 10752
  141.0448  133.6765  156.2868 H   0  0  0  0  0  0  0  0  0  0  0  0  # atno 11005 bound_to 11000
  145.7220  141.0071  143.1397 LP  0  0  0  0  0  0  0  0  0  0  0  0  # atno 17320 bound_to 7965
  144.6983  139.8882  143.7451 LP  0  0  0  0  0  0  0  0  0  0  0  0  # atno 17321 bound_to 7965
  139.8949  144.6944  150.8729 LP  0  0  0  0  0  0  0  0  0  0  0  0  # atno 17342 bound_to 10162
  140.7738  143.3557  151.1925 LP  0  0  0  0  0  0  0  0  0  0  0  0  # atno 17343 bound_to 10162
  156.0187  130.3804  150.2029 LP  0  0  0  0  0  0  0  0  0  0  0  0  # atno 17370 bound_to 10713
  157.0218  130.9981  151.3337 LP  0  0  0  0  0  0  0  0  0  0  0  0  # atno 17371 bound_to 10713
  140.6167  134.5404  157.5541 LP  0  0  0  0  0  0  0  0  0  0  0  0  # atno 17394 bound_to 11000
  139.9303  134.7976  156.0949 LP  0  0  0  0  0  0  0  0  0  0  0  0  # atno 17395 bound_to 11000

$$$$
