AV-unprocessed.smi:2557|AV-procd|sdf|10031|dock5
  -GOLD-   2272014 73D 1   1.00000     0.00000
 Structure written by MMmdl.
 39 41  0  0  0  0  0  0  0  0  3 V2000
  145.2395  139.6921  155.3513 O   0  5  0  0  0  0  0  0  0  0  0  0
  145.9674  139.1329  154.4978 C   0  0  0  0  0  0  0  0  0  0  0  0
  145.7472  138.0684  153.6211 C   0  0  0  0  0  0  0  0  0  0  0  0
  144.4366  137.4082  153.5833 C   0  0  0  0  0  0  0  0  0  0  0  0
  143.4389  137.6894  154.2451 O   0  0  0  0  0  0  0  0  0  0  0  0
  144.3352  136.3159  152.6674 N   0  0  0  0  0  0  0  0  0  0  0  0
  145.3655  135.9234  151.8927 C   0  0  0  0  0  0  0  0  0  0  0  0
  145.1549  134.7557  150.9720 C   0  0  0  0  0  0  0  0  0  0  0  0
  143.9361  133.9357  151.4359 C   0  0  0  0  0  0  0  0  0  0  0  0
  143.7241  132.7066  150.5367 C   0  0  0  0  0  0  0  0  0  0  0  0
  144.9899  131.8349  150.4762 C   0  0  0  0  0  0  0  0  0  0  0  0
  146.2120  132.6524  150.0253 C   0  0  0  0  0  0  0  0  0  0  0  0
  146.4226  133.8802  150.9261 C   0  0  0  0  0  0  0  0  0  0  0  0
  146.5629  136.5403  151.9245 N   0  3  0  0  0  0  0  0  0  0  0  0
  146.7552  137.6349  152.7612 N   0  0  0  0  0  0  0  0  0  0  0  0
  147.3028  139.7567  154.5306 C   0  0  0  0  0  0  0  0  0  0  0  0
  147.4673  141.1300  154.2477 C   0  0  0  0  0  0  0  0  0  0  0  0
  148.7650  141.6770  154.2808 C   0  0  0  0  0  0  0  0  0  0  0  0
  149.8677  140.9544  154.5718 N   0  0  0  0  0  0  0  0  0  0  0  0
  149.7072  139.6397  154.8348 C   0  0  0  0  0  0  0  0  0  0  0  0
  148.4546  138.9954  154.8255 C   0  0  0  0  0  0  0  0  0  0  0  0
  144.9581  135.1316  149.9661 H   0  0  0  0  0  0  0  0  0  0  0  0
  144.0742  133.6074  152.4663 H   0  0  0  0  0  0  0  0  0  0  0  0
  143.0444  134.5629  151.4279 H   0  0  0  0  0  0  0  0  0  0  0  0
  142.8835  132.1172  150.9038 H   0  0  0  0  0  0  0  0  0  0  0  0
  143.4570  133.0319  149.5304 H   0  0  0  0  0  0  0  0  0  0  0  0
  145.1823  131.4023  151.4590 H   0  0  0  0  0  0  0  0  0  0  0  0
  144.8320  130.9972  149.7964 H   0  0  0  0  0  0  0  0  0  0  0  0
  147.1041  132.0255  150.0364 H   0  0  0  0  0  0  0  0  0  0  0  0
  146.0746  132.9758  148.9927 H   0  0  0  0  0  0  0  0  0  0  0  0
  147.2656  134.4692  150.5639 H   0  0  0  0  0  0  0  0  0  0  0  0
  146.6875  133.5446  151.9291 H   0  0  0  0  0  0  0  0  0  0  0  0
  147.3187  136.2218  151.3343 H   0  0  0  0  0  0  0  0  0  0  0  0
  147.7031  137.9841  152.7857 H   0  0  0  0  0  0  0  0  0  0  0  0
  146.6155  141.7489  154.0074 H   0  0  0  0  0  0  0  0  0  0  0  0
  148.9213  142.7242  154.0693 H   0  0  0  0  0  0  0  0  0  0  0  0
  150.6049  139.0837  155.0611 H   0  0  0  0  0  0  0  0  0  0  0  0
  148.3777  137.9398  155.0416 H   0  0  0  0  0  0  0  0  0  0  0  0
  143.4849  135.7831  152.5577 H   0  0  0  0  0  0  0  0  0  0  0  0
  1  2  1  0  0  0  0
  2  3  2  0  0  0  0
  2 16  1  0  0  0  0
  3 15  1  0  0  0  0
  3  4  1  0  0  0  0
  4  5  2  0  0  0  0
  4  6  1  0  0  0  0
  6  7  1  0  0  0  0
  6 39  1  0  0  0  0
  7  8  1  0  0  0  0
  7 14  2  0  0  0  0
  8 13  1  0  0  0  0
  8  9  1  0  0  0  0
  8 22  1  0  0  0  0
  9 10  1  0  0  0  0
  9 23  1  0  0  0  0
  9 24  1  0  0  0  0
 10 11  1  0  0  0  0
 10 25  1  0  0  0  0
 10 26  1  0  0  0  0
 11 12  1  0  0  0  0
 11 27  1  0  0  0  0
 11 28  1  0  0  0  0
 12 13  1  0  0  0  0
 12 29  1  0  0  0  0
 12 30  1  0  0  0  0
 13 31  1  0  0  0  0
 13 32  1  0  0  0  0
 14 15  1  0  0  0  0
 14 33  1  0  0  0  0
 15 34  1  0  0  0  0
 16 21  1  0  0  0  0
 16 17  2  0  0  0  0
 17 18  1  0  0  0  0
 17 35  1  0  0  0  0
 18 19  2  0  0  0  0
 18 36  1  0  0  0  0
 19 20  1  0  0  0  0
 20 21  2  0  0  0  0
 20 37  1  0  0  0  0
 21 38  1  0  0  0  0
M  CHG  1   1  -1
M  CHG  1  14   1
M  END
> <s_m_source_file>
AV-unprocessed.smi

> <i_m_source_file_index>
2557

> <i_lp_mmshare_version>
43012

> <i_f3d_flags>
0

> <s_epik_input>
W2NIXTFbY0hdbltjSF1bY0hdYzFDKD1PKUMyPUMoW09IXSlOPUMoW05IXVtOSF0yKVtDSF0zW0NIMl1bQ0gyXVtDSDJdW0NIMl1bQ0gyXTM=

> <s_epik_cmdline>
J2VwaWtfcHl0aG9uJywgJy1waCcsICc3LjAnLCAnLXRuJywgJzgnLCAnLW1hJywgJzIwMCcsICctbWV0YWxfYmluZGluZycsICctaW1hZScsICc8aW5maWxlLm1hZT4nLCAnLW9tYWUnLCAnPG91dGZpbGUubWFlPic=

> <r_epik_Ionization_Penalty>
2.4889

> <r_epik_Ionization_Penalty_Charging>
1.64109

> <r_epik_Ionization_Penalty_Neutral>
0.84781

> <r_epik_State_Penalty>
2.44612

> <r_epik_Charging_Adjusted_Penalty>
4.08721

> <i_epik_Tot_Q>
0

> <i_epik_Tot_abs_Q>
2

> <r_epik_Metal_State_Penalty>
1.55557

> <b_epik_Metal_Only>
0

> <s_epik_Chemistry_Notes>
This compound has an imine and may undergo hydrolysis.

> <s_lp_Force_Field>
OPLS_2005

> <r_lp_Energy>
23.4412

> <b_lp_Chiralities_Consistent>
1

> <s_lp_Variant>
AV-unprocessed.smi:2557-5

> <Gold.Version>
5.8.1

> <Gold.Id.Protein>
6NUR|6NUR_protein|mol2

> <Gold.PLP.Fitness>
38.1841

> <Gold.PLP.PLP>
-32.9199

> <Gold.PLP.part.hbond>
-2.5496

> <Gold.PLP.part.metal>
0.0000

> <Gold.PLP.part.buried>
-4.7900

> <Gold.PLP.part.nonpolar>
-26.0896

> <Gold.PLP.part.repulsive>
0.4414

> <Gold.PLP.ligand.clash>
1.4615

> <Gold.PLP.ligand.torsion>
1.6895

> <Gold.PLP.Chemscore.Hbond>
1.6251

> <Gold.PLP.Chemscore.CHOScore>
0.9969

> <Gold.PLP.Chemscore.Metal>
0.0000

> <Gold.Chemscore.Hbonds>
donor molecule, donor type, donor heavy atom, donor atom, acceptor molecule, acceptor atom, score
      L1  H    14    33       P1  7948  0.96
      L1  H    15    34       P1  7948  0.02
      P1  H  7989  7998       L1    19  0.60
      L1  C    18    36       P1  8028  1.00

> <Gold.PLP.Chemscore.Internal.Correction>
2.2386

> <Gold.Rescore>
     Score         DG    S(hbond)    S(metal)    S(lipo)     H(rot)  DE(clash)    DE(int)     intcor
     14.44     -17.17       1.43        0.00      80.85       1.00       0.14       2.59       ----

> <Gold.Chemscore.Fitness>
14.4391

> <Gold.Chemscore.DG>
-17.1681

> <Gold.Chemscore.ZeroCoef>
-5.4800

> <Gold.Chemscore.Hbond>
1.4338

> <Gold.Chemscore.Metal>
0.0000

> <Gold.Chemscore.Lipo>
80.8492

> <Gold.Chemscore.Internal_Hbond>
0.0000

> <Gold.Chemscore.DEClash>
0.1369

> <Gold.Chemscore.DEInternal>
2.5921

> <Gold.Chemscore.Rot>
1.0000

> <Gold.Chemscore.Internal.Correction>
   9.000000E+99

> <Gold.Chemscore.Hbonds>
donor molecule, donor type, donor heavy atom, donor atom, acceptor molecule, acceptor atom, score
      L1  H    14    33       P1  7948  0.48
      L1  H    15    34       P1  7948  0.03
      P1  H  7989  7998       L1    19  0.15

> <Gold.Chemscore.Hbond.Weighted>
-4.7887

> <Gold.Chemscore.Metal.Weighted>
-0.0000

> <Gold.Chemscore.Lipo.Weighted>
-9.4594

> <Gold.Chemscore.Internal_Hbond.Weighted>
0.0000

> <Gold.Chemscore.DEClash.Weighted>
0.1369

> <Gold.Chemscore.DEInternal.Weighted>
2.5921

> <Gold.Chemscore.Rot.Weighted>
2.5600

> <Gold.Chemscore.Internal.Correction.Weighted>
   9.000000E+99

> <Gold.Protein.RotatedTorsions>
[ 6907 6896 6895 6894 ] final   39.99 input  -60.11 | X-H torsion
[ 7974 7965 7964 7962 ] final -151.80 input  175.53 | X-H torsion
[ 8008 7997 7996 7995 ] final -170.37 input   59.86 | X-H torsion
[ 10167 10162 10161 10158 ] final   23.69 input  -65.29 | X-H torsion
[ 10718 10713 10712 10709 ] final  138.67 input   66.30 | X-H torsion
[ 10763 10752 10751 10750 ] final -117.96 input  -60.55 | X-H torsion
[ 11005 11000 10999 10996 ] final  -63.83 input  -57.11 | X-H torsion

> <Gold.Protein.ActiveResidues>
 VAL166  LYS551  ARG553  GLY616  TRP617  ASP618  TYR619  PRO620  LYS621  CYS622 
 ASP623  PHE694  ASN695  SER759  ASP760  ASP761  ALA762  ILE779  LEU786  VAL792 
 PHE793  MET794  SER795  GLU796  ALA797  LYS798  CYS799  TRP800  GLU811  SER814 

> <Gold.Protein.RotatedAtoms>
  152.1768  134.8788  160.0529 H   0  0  0  0  0  0  0  0  0  0  0  0  # atno 6907 bound_to 6896
  151.9727  133.3726  159.4085 H   0  0  0  0  0  0  0  0  0  0  0  0  # atno 6908 bound_to 6896
  150.6910  134.4045  159.5178 H   0  0  0  0  0  0  0  0  0  0  0  0  # atno 6909 bound_to 6896
  144.7829  140.4748  143.5826 H   0  0  0  0  0  0  0  0  0  0  0  0  # atno 7974 bound_to 7965
  155.9174  140.1068  157.1233 H   0  0  0  0  0  0  0  0  0  0  0  0  # atno 8008 bound_to 7997
  154.4049  140.1262  156.4701 H   0  0  0  0  0  0  0  0  0  0  0  0  # atno 8009 bound_to 7997
  155.7237  140.3469  155.5030 H   0  0  0  0  0  0  0  0  0  0  0  0  # atno 8010 bound_to 7997
  140.5248  143.9941  150.6435 H   0  0  0  0  0  0  0  0  0  0  0  0  # atno 10167 bound_to 10162
  157.4228  131.1040  151.0335 H   0  0  0  0  0  0  0  0  0  0  0  0  # atno 10718 bound_to 10713
  154.8572  135.4291  154.2063 H   0  0  0  0  0  0  0  0  0  0  0  0  # atno 10763 bound_to 10752
  153.3098  135.6975  153.7132 H   0  0  0  0  0  0  0  0  0  0  0  0  # atno 10764 bound_to 10752
  153.6229  135.3499  155.2991 H   0  0  0  0  0  0  0  0  0  0  0  0  # atno 10765 bound_to 10752
  141.1406  133.6657  156.5740 H   0  0  0  0  0  0  0  0  0  0  0  0  # atno 11005 bound_to 11000
  145.6000  139.1503  143.3134 LP  0  0  0  0  0  0  0  0  0  0  0  0  # atno 17320 bound_to 7965
  146.2047  140.6122  142.9086 LP  0  0  0  0  0  0  0  0  0  0  0  0  # atno 17321 bound_to 7965
  140.3300  143.3083  152.0697 LP  0  0  0  0  0  0  0  0  0  0  0  0  # atno 17342 bound_to 10162
  139.4935  144.6515  151.6664 LP  0  0  0  0  0  0  0  0  0  0  0  0  # atno 17343 bound_to 10162
  157.1259  130.6082  149.5517 LP  0  0  0  0  0  0  0  0  0  0  0  0  # atno 17370 bound_to 10713
  155.9886  130.4930  150.7178 LP  0  0  0  0  0  0  0  0  0  0  0  0  # atno 17371 bound_to 10713
  140.3890  134.7457  157.4709 LP  0  0  0  0  0  0  0  0  0  0  0  0  # atno 17394 bound_to 11000
  140.0580  134.6036  155.8782 LP  0  0  0  0  0  0  0  0  0  0  0  0  # atno 17395 bound_to 11000

$$$$
