AV-unprocessed.smi:1793|AV-procd|sdf|7228|dock10
  -GOLD-   22720 8473D 1   1.00000     0.00000
 Structure written by MMmdl.
 47 49  0  0  0  0  0  0  0  0  2 V2000
  146.5813  141.9575  153.7031 C   0  0  0  0  0  0  0  0  0  0  0  0
  147.1815  140.6061  153.2783 C   0  0  2  0  0  0  0  0  0  0  0  0
  146.1218  139.6059  153.1795 N   0  0  0  0  0  0  0  0  0  0  0  0
  146.1486  138.5212  152.3932 C   0  0  0  0  0  0  0  0  0  0  0  0
  147.0716  138.2575  151.6228 O   0  0  0  0  0  0  0  0  0  0  0  0
  145.0544  137.7639  152.5763 N   0  0  0  0  0  0  0  0  0  0  0  0
  144.7439  136.5111  151.9760 C   0  0  0  0  0  0  0  0  0  0  0  0
  145.6497  135.8779  151.0863 C   0  0  0  0  0  0  0  0  0  0  0  0
  145.3267  134.6284  150.5251 C   0  0  0  0  0  0  0  0  0  0  0  0
  144.0994  134.0306  150.8580 C   0  0  0  0  0  0  0  0  0  0  0  0
  143.2501  134.6673  151.6904 N   0  3  0  0  0  0  0  0  0  0  0  0
  143.4967  135.8778  152.2512 C   0  0  0  0  0  0  0  0  0  0  0  0
  142.5040  136.4258  153.0957 N   0  0  0  0  0  0  0  0  0  0  0  0
  141.3667  135.6180  153.5209 C   0  0  0  0  0  0  0  0  0  0  0  0
  140.3697  136.6144  154.1059 C   0  0  0  0  0  0  0  0  0  0  0  0
  140.5755  137.8418  153.2233 C   0  0  0  0  0  0  0  0  0  0  0  0
  142.0712  137.8046  152.8915 C   0  0  0  0  0  0  0  0  0  0  0  0
  148.2513  140.1056  154.2674 C   0  0  2  0  0  0  0  0  0  0  0  0
  149.4627  141.0292  154.4253 C   0  0  0  0  0  0  0  0  0  0  0  0
  150.6101  140.0858  154.7595 C   0  0  0  0  0  0  0  0  0  0  0  0
  150.0170  138.6895  154.5662 C   0  0  0  0  0  0  0  0  0  0  0  0
  148.8453  138.9050  153.7959 O   0  0  0  0  0  0  0  0  0  0  0  0
  147.3460  142.7330  153.7526 H   0  0  0  0  0  0  0  0  0  0  0  0
  146.1104  141.8918  154.6845 H   0  0  0  0  0  0  0  0  0  0  0  0
  145.8255  142.2951  152.9931 H   0  0  0  0  0  0  0  0  0  0  0  0
  147.6515  140.7247  152.3000 H   0  0  0  0  0  0  0  0  0  0  0  0
  145.3236  139.7373  153.7833 H   0  0  0  0  0  0  0  0  0  0  0  0
  144.4308  138.0612  153.3121 H   0  0  0  0  0  0  0  0  0  0  0  0
  146.5903  136.3359  150.8200 H   0  0  0  0  0  0  0  0  0  0  0  0
  146.0126  134.1361  149.8512 H   0  0  0  0  0  0  0  0  0  0  0  0
  143.7685  133.0739  150.4804 H   0  0  0  0  0  0  0  0  0  0  0  0
  140.9180  135.1112  152.6655 H   0  0  0  0  0  0  0  0  0  0  0  0
  141.6630  134.8653  154.2522 H   0  0  0  0  0  0  0  0  0  0  0  0
  139.3435  136.2462  154.0950 H   0  0  0  0  0  0  0  0  0  0  0  0
  140.6364  136.8496  155.1374 H   0  0  0  0  0  0  0  0  0  0  0  0
  139.9931  137.7344  152.3071 H   0  0  0  0  0  0  0  0  0  0  0  0
  140.2717  138.7703  153.7074 H   0  0  0  0  0  0  0  0  0  0  0  0
  142.6202  138.4488  153.5788 H   0  0  0  0  0  0  0  0  0  0  0  0
  142.2601  138.1502  151.8741 H   0  0  0  0  0  0  0  0  0  0  0  0
  147.8053  139.9121  155.2452 H   0  0  0  0  0  0  0  0  0  0  0  0
  149.6775  141.5424  153.4869 H   0  0  0  0  0  0  0  0  0  0  0  0
  149.3057  141.7885  155.1918 H   0  0  0  0  0  0  0  0  0  0  0  0
  151.4477  140.2532  154.0813 H   0  0  0  0  0  0  0  0  0  0  0  0
  150.9718  140.2220  155.7793 H   0  0  0  0  0  0  0  0  0  0  0  0
  150.7030  138.0056  154.0659 H   0  0  0  0  0  0  0  0  0  0  0  0
  149.7397  138.2527  155.5268 H   0  0  0  0  0  0  0  0  0  0  0  0
  142.3629  134.2122  151.9052 H   0  0  0  0  0  0  0  0  0  0  0  0
  1  2  1  0  0  0  0
  1 23  1  0  0  0  0
  1 24  1  0  0  0  0
  1 25  1  0  0  0  0
  2  3  1  0  0  0  0
  2 18  1  0  0  0  0
  2 26  1  0  0  0  0
  3  4  1  0  0  0  0
  3 27  1  0  0  0  0
  4  5  2  0  0  0  0
  4  6  1  0  0  0  0
  6  7  1  0  0  0  0
  6 28  1  0  0  0  0
  7 12  1  0  0  0  0
  7  8  2  0  0  0  0
  8  9  1  0  0  0  0
  8 29  1  0  0  0  0
  9 10  2  0  0  0  0
  9 30  1  0  0  0  0
 10 11  1  0  0  0  0
 10 31  1  0  0  0  0
 11 12  2  0  0  0  0
 11 47  1  0  0  0  0
 12 13  1  0  0  0  0
 13 17  1  0  0  0  0
 13 14  1  0  0  0  0
 14 15  1  0  0  0  0
 14 32  1  0  0  0  0
 14 33  1  0  0  0  0
 15 16  1  0  0  0  0
 15 34  1  0  0  0  0
 15 35  1  0  0  0  0
 16 17  1  0  0  0  0
 16 36  1  0  0  0  0
 16 37  1  0  0  0  0
 17 38  1  0  0  0  0
 17 39  1  0  0  0  0
 18 22  1  0  0  0  0
 18 19  1  0  0  0  0
 18 40  1  0  0  0  0
 19 20  1  0  0  0  0
 19 41  1  0  0  0  0
 19 42  1  0  0  0  0
 20 21  1  0  0  0  0
 20 43  1  0  0  0  0
 20 44  1  0  0  0  0
 21 22  1  0  0  0  0
 21 45  1  0  0  0  0
 21 46  1  0  0  0  0
M  CHG  1  11   1
M  END
> <s_m_source_file>
AV-unprocessed.smi

> <i_m_source_file_index>
1793

> <i_lp_mmshare_version>
43012

> <i_f3d_flags>
0

> <s_epik_input>
TzFbQ0gyXVtDSDJdW0NIMl1bQ0BIXTFbQ0BIXShbQ0gzXSlbTkhdQyg9TylbTkhdYzJbY0hdW2NIXVtjSF1uYzJOM1tDSDJdW0NIMl1bQ0gyXVtDSDJdMw==

> <s_epik_cmdline>
J2VwaWtfcHl0aG9uJywgJy1waCcsICc3LjAnLCAnLXRuJywgJzgnLCAnLW1hJywgJzIwMCcsICctbWV0YWxfYmluZGluZycsICctaW1hZScsICc8aW5maWxlLm1hZT4nLCAnLW9tYWUnLCAnPG91dGZpbGUubWFlPic=

> <r_lp_tautomer_probability>
0.999994

> <r_epik_Ionization_Penalty>
1.11092

> <r_epik_Ionization_Penalty_Charging>
1.1109

> <r_epik_Ionization_Penalty_Neutral>
1.9363e-05

> <r_epik_State_Penalty>
1.16888

> <r_epik_Charging_Adjusted_Penalty>
2.27978

> <i_epik_Tot_Q>
1

> <i_epik_Tot_abs_Q>
1

> <r_epik_Metal_State_Penalty>
1.25472

> <b_epik_Metal_Only>
0

> <s_lp_Force_Field>
OPLS_2005

> <r_lp_Energy>
52.5047

> <b_lp_Chiralities_Consistent>
1

> <s_lp_Variant>
AV-unprocessed.smi:1793-5

> <Gold.Version>
5.8.1

> <Gold.Id.Protein>
6NUR|6NUR_protein|mol2

> <Gold.PLP.Fitness>
40.6882

> <Gold.PLP.PLP>
-38.5858

> <Gold.PLP.part.hbond>
-4.3618

> <Gold.PLP.part.metal>
0.0000

> <Gold.PLP.part.buried>
0.1185

> <Gold.PLP.part.nonpolar>
-37.2632

> <Gold.PLP.part.repulsive>
4.3244

> <Gold.PLP.ligand.clash>
0.0000

> <Gold.PLP.ligand.torsion>
0.5572

> <Gold.PLP.Chemscore.Hbond>
0.9278

> <Gold.PLP.Chemscore.CHOScore>
0.0000

> <Gold.PLP.Chemscore.Metal>
0.0000

> <Gold.Chemscore.Hbonds>
donor molecule, donor type, donor heavy atom, donor atom, acceptor molecule, acceptor atom, score
      L1  H     3    27       P1 10175  0.07
      P1  H  7954  7966       L1     5  0.88

> <Gold.PLP.Chemscore.Internal.Correction>
0.4334

> <Gold.Rescore>
     Score         DG    S(hbond)    S(metal)    S(lipo)     H(rot)  DE(clash)    DE(int)     intcor
     10.96     -15.26       0.95        0.00      86.76       1.38       1.74       2.55       ----

> <Gold.Chemscore.Fitness>
10.9630

> <Gold.Chemscore.DG>
-15.2584

> <Gold.Chemscore.ZeroCoef>
-5.4800

> <Gold.Chemscore.Hbond>
0.9464

> <Gold.Chemscore.Metal>
0.0000

> <Gold.Chemscore.Lipo>
86.7562

> <Gold.Chemscore.Internal_Hbond>
0.0000

> <Gold.Chemscore.DEClash>
1.7417

> <Gold.Chemscore.DEInternal>
2.5537

> <Gold.Chemscore.Rot>
1.3802

> <Gold.Chemscore.Internal.Correction>
   9.000000E+99

> <Gold.Chemscore.Hbonds>
donor molecule, donor type, donor heavy atom, donor atom, acceptor molecule, acceptor atom, score
      L1  H     3    27       P1 10175  0.07
      P1  H  7954  7966       L1     5  0.85

> <Gold.Chemscore.Hbond.Weighted>
-3.1611

> <Gold.Chemscore.Metal.Weighted>
-0.0000

> <Gold.Chemscore.Lipo.Weighted>
-10.1505

> <Gold.Chemscore.Internal_Hbond.Weighted>
0.0000

> <Gold.Chemscore.DEClash.Weighted>
1.7417

> <Gold.Chemscore.DEInternal.Weighted>
2.5537

> <Gold.Chemscore.Rot.Weighted>
3.5332

> <Gold.Chemscore.Internal.Correction.Weighted>
   9.000000E+99

> <Gold.Protein.RotatedTorsions>
[ 6907 6896 6895 6894 ] final  123.31 input  -60.11 | X-H torsion
[ 7974 7965 7964 7962 ] final -156.87 input  175.53 | X-H torsion
[ 8008 7997 7996 7995 ] final   21.53 input   59.86 | X-H torsion
[ 10167 10162 10161 10158 ] final -103.11 input  -65.29 | X-H torsion
[ 10718 10713 10712 10709 ] final   14.35 input   66.30 | X-H torsion
[ 10763 10752 10751 10750 ] final  -27.78 input  -60.55 | X-H torsion
[ 11005 11000 10999 10996 ] final -118.48 input  -57.11 | X-H torsion

> <Gold.Protein.ActiveResidues>
 VAL166  LYS551  ARG553  GLY616  TRP617  ASP618  TYR619  PRO620  LYS621  CYS622 
 ASP623  PHE694  ASN695  SER759  ASP760  ASP761  ALA762  ILE779  LEU786  VAL792 
 PHE793  MET794  SER795  GLU796  ALA797  LYS798  CYS799  TRP800  GLU811  SER814 

> <Gold.Protein.RotatedAtoms>
  152.4172  133.7057  159.6449 H   0  0  0  0  0  0  0  0  0  0  0  0  # atno 6907 bound_to 6896
  150.8049  133.8518  159.3216 H   0  0  0  0  0  0  0  0  0  0  0  0  # atno 6908 bound_to 6896
  151.6245  135.1031  160.0160 H   0  0  0  0  0  0  0  0  0  0  0  0  # atno 6909 bound_to 6896
  144.7574  140.4049  143.6002 H   0  0  0  0  0  0  0  0  0  0  0  0  # atno 7974 bound_to 7965
  154.9520  140.3067  155.5071 H   0  0  0  0  0  0  0  0  0  0  0  0  # atno 8008 bound_to 7997
  156.2986  140.2317  156.4536 H   0  0  0  0  0  0  0  0  0  0  0  0  # atno 8009 bound_to 7997
  154.8046  140.0432  157.1286 H   0  0  0  0  0  0  0  0  0  0  0  0  # atno 8010 bound_to 7997
  140.2235  143.3658  152.0949 H   0  0  0  0  0  0  0  0  0  0  0  0  # atno 10167 bound_to 10162
  157.0378  130.6219  149.5746 H   0  0  0  0  0  0  0  0  0  0  0  0  # atno 10718 bound_to 10713
  153.7377  135.6934  153.4974 H   0  0  0  0  0  0  0  0  0  0  0  0  # atno 10763 bound_to 10752
  153.2091  135.4409  155.0357 H   0  0  0  0  0  0  0  0  0  0  0  0  # atno 10764 bound_to 10752
  154.8231  135.3432  154.6904 H   0  0  0  0  0  0  0  0  0  0  0  0  # atno 10765 bound_to 10752
  141.0283  134.0020  157.3181 H   0  0  0  0  0  0  0  0  0  0  0  0  # atno 11005 bound_to 11000
  145.6734  139.1604  143.2741 LP  0  0  0  0  0  0  0  0  0  0  0  0  # atno 17320 bound_to 7965
  146.1599  140.6803  142.9282 LP  0  0  0  0  0  0  0  0  0  0  0  0  # atno 17321 bound_to 7965
  139.5135  144.6934  151.5697 LP  0  0  0  0  0  0  0  0  0  0  0  0  # atno 17342 bound_to 10162
  140.6238  143.9208  150.6547 LP  0  0  0  0  0  0  0  0  0  0  0  0  # atno 17343 bound_to 10162
  156.0048  130.5133  150.7791 LP  0  0  0  0  0  0  0  0  0  0  0  0  # atno 17370 bound_to 10713
  157.5128  131.0926  151.0177 LP  0  0  0  0  0  0  0  0  0  0  0  0  # atno 17371 bound_to 10713
  139.9190  135.0199  156.7994 LP  0  0  0  0  0  0  0  0  0  0  0  0  # atno 17394 bound_to 11000
  140.6452  133.9782  155.7727 LP  0  0  0  0  0  0  0  0  0  0  0  0  # atno 17395 bound_to 11000

$$$$
