AV-unprocessed.smi:1816|AV-procd|sdf|7364|dock6
  -GOLD-   22720 9 23D 1   1.00000     0.00000
 Structure written by MMmdl.
 36 37  0  0  0  0  0  0  0  0  2 V2000
  142.3209  135.6133  153.4397 C   0  0  0  0  0  0  0  0  0  0  0  0
  143.7552  135.1538  153.0933 C   0  0  2  0  0  0  0  0  0  0  0  0
  144.3488  136.0187  151.9506 C   0  0  0  0  0  0  0  0  0  0  0  0
  144.6452  137.3866  152.3652 N   0  0  0  0  0  0  0  0  0  0  0  0
  145.8410  137.8145  152.7938 C   0  0  0  0  0  0  0  0  0  0  0  0
  146.8273  137.0834  152.8828 O   0  0  0  0  0  0  0  0  0  0  0  0
  145.8079  139.1196  153.1068 N   0  0  0  0  0  0  0  0  0  0  0  0
  146.8660  139.9197  153.6046 C   0  0  0  0  0  0  0  0  0  0  0  0
  148.0146  139.3310  153.9416 N   0  0  0  0  0  0  0  0  0  0  0  0
  148.9568  140.2501  154.4127 C   0  0  0  0  0  0  0  0  0  0  0  0
  148.5046  141.5461  154.4264 C   0  0  0  0  0  0  0  0  0  0  0  0
  146.8654  141.6686  153.8458 S   0  0  0  0  0  0  0  0  0  0  0  0
  143.7917  133.7084  152.7273 N   0  3  0  0  0  0  0  0  0  0  0  0
  142.9840  133.3386  151.5365 C   0  0  0  0  0  0  0  0  0  0  0  0
  143.7730  132.2741  150.7618 C   0  0  0  0  0  0  0  0  0  0  0  0
  144.9012  131.8653  151.7011 C   0  0  0  0  0  0  0  0  0  0  0  0
  145.1370  133.1285  152.5204 C   0  0  0  0  0  0  0  0  0  0  0  0
  142.2893  136.6714  153.6999 H   0  0  0  0  0  0  0  0  0  0  0  0
  141.9163  135.0792  154.2991 H   0  0  0  0  0  0  0  0  0  0  0  0
  141.6425  135.4603  152.6000 H   0  0  0  0  0  0  0  0  0  0  0  0
  144.3690  135.2784  153.9868 H   0  0  0  0  0  0  0  0  0  0  0  0
  145.2621  135.5788  151.5478 H   0  0  0  0  0  0  0  0  0  0  0  0
  143.6442  136.0670  151.1198 H   0  0  0  0  0  0  0  0  0  0  0  0
  143.8877  138.0529  152.3196 H   0  0  0  0  0  0  0  0  0  0  0  0
  144.9272  139.5959  152.9790 H   0  0  0  0  0  0  0  0  0  0  0  0
  149.9293  139.8936  154.7188 H   0  0  0  0  0  0  0  0  0  0  0  0
  149.0344  142.4325  154.7420 H   0  0  0  0  0  0  0  0  0  0  0  0
  142.0175  132.9550  151.8651 H   0  0  0  0  0  0  0  0  0  0  0  0
  142.7978  134.1987  150.8911 H   0  0  0  0  0  0  0  0  0  0  0  0
  143.1542  131.4281  150.4614 H   0  0  0  0  0  0  0  0  0  0  0  0
  144.1921  132.7154  149.8563 H   0  0  0  0  0  0  0  0  0  0  0  0
  144.5679  131.0564  152.3529 H   0  0  0  0  0  0  0  0  0  0  0  0
  145.7938  131.5281  151.1733 H   0  0  0  0  0  0  0  0  0  0  0  0
  145.7565  133.8245  151.9522 H   0  0  0  0  0  0  0  0  0  0  0  0
  145.6391  132.9135  153.4641 H   0  0  0  0  0  0  0  0  0  0  0  0
  143.3924  133.1979  153.5018 H   0  0  0  0  0  0  0  0  0  0  0  0
  1  2  1  0  0  0  0
  1 18  1  0  0  0  0
  1 19  1  0  0  0  0
  1 20  1  0  0  0  0
  2  3  1  0  0  0  0
  2 13  1  0  0  0  0
  2 21  1  0  0  0  0
  3  4  1  0  0  0  0
  3 22  1  0  0  0  0
  3 23  1  0  0  0  0
  4  5  1  0  0  0  0
  4 24  1  0  0  0  0
  5  6  2  0  0  0  0
  5  7  1  0  0  0  0
  7  8  1  0  0  0  0
  7 25  1  0  0  0  0
  8 12  1  0  0  0  0
  8  9  2  0  0  0  0
  9 10  1  0  0  0  0
 10 11  2  0  0  0  0
 10 26  1  0  0  0  0
 11 12  1  0  0  0  0
 11 27  1  0  0  0  0
 13 17  1  0  0  0  0
 13 14  1  0  0  0  0
 13 36  1  0  0  0  0
 14 15  1  0  0  0  0
 14 28  1  0  0  0  0
 14 29  1  0  0  0  0
 15 16  1  0  0  0  0
 15 30  1  0  0  0  0
 15 31  1  0  0  0  0
 16 17  1  0  0  0  0
 16 32  1  0  0  0  0
 16 33  1  0  0  0  0
 17 34  1  0  0  0  0
 17 35  1  0  0  0  0
M  CHG  1  13   1
M  END
> <s_m_source_file>
AV-unprocessed.smi

> <i_m_source_file_index>
1816

> <i_lp_mmshare_version>
43012

> <i_f3d_flags>
0

> <s_epik_input>
W0NIMl0xW0NIMl1bQ0gyXVtDSDJdTjFbQ0BIXShbQ0gzXSlbQ0gyXVtOSF1DKD1PKVtOSF1jMm5bY0hdW2NIXXMy

> <s_epik_cmdline>
J2VwaWtfcHl0aG9uJywgJy1waCcsICc3LjAnLCAnLXRuJywgJzgnLCAnLW1hJywgJzIwMCcsICctbWV0YWxfYmluZGluZycsICctaW1hZScsICc8aW5maWxlLm1hZT4nLCAnLW9tYWUnLCAnPG91dGZpbGUubWFlPic=

> <r_lp_tautomer_probability>
0.999

> <r_epik_Ionization_Penalty>
0.000988651

> <r_epik_Ionization_Penalty_Charging>
0.000848324

> <r_epik_Ionization_Penalty_Neutral>
0.000140327

> <r_epik_State_Penalty>
0.000546901

> <r_epik_Charging_Adjusted_Penalty>
0.00139523

> <i_epik_Tot_Q>
1

> <i_epik_Tot_abs_Q>
1

> <r_epik_Metal_State_Penalty>
0.0571994

> <b_epik_Metal_Only>
0

> <s_lp_Force_Field>
OPLS_2005

> <r_lp_Energy>
26.1685

> <b_lp_Chiralities_Consistent>
1

> <s_lp_Variant>
AV-unprocessed.smi:1816-1

> <Gold.Version>
5.8.1

> <Gold.Id.Protein>
6NUR|6NUR_protein|mol2

> <Gold.PLP.Fitness>
38.9365

> <Gold.PLP.PLP>
-27.2755

> <Gold.PLP.part.hbond>
-3.4275

> <Gold.PLP.part.metal>
0.0000

> <Gold.PLP.part.buried>
-5.3112

> <Gold.PLP.part.nonpolar>
-23.5103

> <Gold.PLP.part.repulsive>
4.1605

> <Gold.PLP.ligand.clash>
0.0000

> <Gold.PLP.ligand.torsion>
0.2782

> <Gold.PLP.Chemscore.Hbond>
3.0585

> <Gold.PLP.Chemscore.CHOScore>
1.0000

> <Gold.PLP.Chemscore.Metal>
0.0000

> <Gold.Chemscore.Hbonds>
donor molecule, donor type, donor heavy atom, donor atom, acceptor molecule, acceptor atom, score
      L1  H     4    24       P1 10175  0.06
      L1  H     7    25       P1 10175  1.00
      L1  H    13    36       P1 10957  1.89
      L1  C    11    27       P1  8028  1.00

> <Gold.PLP.Chemscore.Internal.Correction>
0.0419

> <Gold.Rescore>
     Score         DG    S(hbond)    S(metal)    S(lipo)     H(rot)  DE(clash)    DE(int)     intcor
     12.51     -15.73       2.29        0.00      57.35       1.60       1.44       1.79       ----

> <Gold.Chemscore.Fitness>
12.5055

> <Gold.Chemscore.DG>
-15.7330

> <Gold.Chemscore.ZeroCoef>
-5.4800

> <Gold.Chemscore.Hbond>
2.2895

> <Gold.Chemscore.Metal>
0.0000

> <Gold.Chemscore.Lipo>
57.3465

> <Gold.Chemscore.Internal_Hbond>
0.0000

> <Gold.Chemscore.DEClash>
1.4406

> <Gold.Chemscore.DEInternal>
1.7869

> <Gold.Chemscore.Rot>
1.6029

> <Gold.Chemscore.Internal.Correction>
   9.000000E+99

> <Gold.Chemscore.Hbonds>
donor molecule, donor type, donor heavy atom, donor atom, acceptor molecule, acceptor atom, score
      L1  H     4    24       P1 10175  0.09
      L1  H     7    25       P1 10175  0.99
      L1  H    13    36       P1 10957  0.86

> <Gold.Chemscore.Hbond.Weighted>
-7.6470

> <Gold.Chemscore.Metal.Weighted>
-0.0000

> <Gold.Chemscore.Lipo.Weighted>
-6.7095

> <Gold.Chemscore.Internal_Hbond.Weighted>
0.0000

> <Gold.Chemscore.DEClash.Weighted>
1.4406

> <Gold.Chemscore.DEInternal.Weighted>
1.7869

> <Gold.Chemscore.Rot.Weighted>
4.1035

> <Gold.Chemscore.Internal.Correction.Weighted>
   9.000000E+99

> <Gold.Protein.RotatedTorsions>
[ 6907 6896 6895 6894 ] final   64.42 input  -60.11 | X-H torsion
[ 7974 7965 7964 7962 ] final    4.80 input  175.53 | X-H torsion
[ 8008 7997 7996 7995 ] final  105.93 input   59.86 | X-H torsion
[ 10167 10162 10161 10158 ] final  -52.73 input  -65.29 | X-H torsion
[ 10718 10713 10712 10709 ] final   50.48 input   66.30 | X-H torsion
[ 10763 10752 10751 10750 ] final   82.97 input  -60.55 | X-H torsion
[ 11005 11000 10999 10996 ] final -124.38 input  -57.11 | X-H torsion

> <Gold.Protein.ActiveResidues>
 VAL166  LYS551  ARG553  GLY616  TRP617  ASP618  TYR619  PRO620  LYS621  CYS622 
 ASP623  PHE694  ASN695  SER759  ASP760  ASP761  ALA762  ILE779  LEU786  VAL792 
 PHE793  MET794  SER795  GLU796  ALA797  LYS798  CYS799  TRP800  GLU811  SER814 

> <Gold.Protein.RotatedAtoms>
  152.4330  134.5741  159.9929 H   0  0  0  0  0  0  0  0  0  0  0  0  # atno 6907 bound_to 6896
  151.5859  133.3366  159.3026 H   0  0  0  0  0  0  0  0  0  0  0  0  # atno 6908 bound_to 6896
  150.8225  134.7475  159.6849 H   0  0  0  0  0  0  0  0  0  0  0  0  # atno 6909 bound_to 6896
  146.2443  140.0481  142.8377 H   0  0  0  0  0  0  0  0  0  0  0  0  # atno 7974 bound_to 7965
  156.1700  140.3122  155.8957 H   0  0  0  0  0  0  0  0  0  0  0  0  # atno 8008 bound_to 7997
  155.3606  140.0476  157.3063 H   0  0  0  0  0  0  0  0  0  0  0  0  # atno 8009 bound_to 7997
  154.5231  140.2205  155.8949 H   0  0  0  0  0  0  0  0  0  0  0  0  # atno 8010 bound_to 7997
  140.6522  143.2574  151.4690 H   0  0  0  0  0  0  0  0  0  0  0  0  # atno 10167 bound_to 10162
  157.4888  130.8363  149.8179 H   0  0  0  0  0  0  0  0  0  0  0  0  # atno 10718 bound_to 10713
  153.1249  135.4709  154.9256 H   0  0  0  0  0  0  0  0  0  0  0  0  # atno 10763 bound_to 10752
  154.7611  135.3131  154.8379 H   0  0  0  0  0  0  0  0  0  0  0  0  # atno 10764 bound_to 10752
  153.8935  135.6882  153.4813 H   0  0  0  0  0  0  0  0  0  0  0  0  # atno 10765 bound_to 10752
  140.9845  134.0626  157.3726 H   0  0  0  0  0  0  0  0  0  0  0  0  # atno 11005 bound_to 11000
  145.1009  140.9345  143.4713 LP  0  0  0  0  0  0  0  0  0  0  0  0  # atno 17320 bound_to 7965
  145.0673  139.3058  143.5850 LP  0  0  0  0  0  0  0  0  0  0  0  0  # atno 17321 bound_to 7965
  139.5739  144.1865  152.1875 LP  0  0  0  0  0  0  0  0  0  0  0  0  # atno 17342 bound_to 10162
  140.1169  144.5407  150.6888 LP  0  0  0  0  0  0  0  0  0  0  0  0  # atno 17343 bound_to 10162
  156.0162  130.3813  150.2104 LP  0  0  0  0  0  0  0  0  0  0  0  0  # atno 17370 bound_to 10713
  157.0292  131.0002  151.3317 LP  0  0  0  0  0  0  0  0  0  0  0  0  # atno 17371 bound_to 10713
  139.8964  135.0146  156.7052 LP  0  0  0  0  0  0  0  0  0  0  0  0  # atno 17394 bound_to 11000
  140.7135  133.9202  155.8100 LP  0  0  0  0  0  0  0  0  0  0  0  0  # atno 17395 bound_to 11000

$$$$
