AV-unprocessed.smi:1809|AV-procd|sdf|7315|dock5
  -GOLD-   22720 8573D 1   1.00000     0.00000
 Structure written by MMmdl.
 40 42  0  0  0  0  0  0  0  0  2 V2000
  143.2654  131.9840  150.4140 C   0  0  0  0  0  0  0  0  0  0  0  0
  144.3574  132.8921  150.8664 C   0  0  0  0  0  0  0  0  0  0  0  0
  145.5327  132.4411  151.3220 N   0  0  0  0  0  0  0  0  0  0  0  0
  146.3870  133.4727  151.6856 N   0  0  0  0  0  0  0  0  0  0  0  0
  145.8294  134.6757  151.4910 C   0  0  0  0  0  0  0  0  0  0  0  0
  146.4816  135.9033  151.7814 N   0  0  0  0  0  0  0  0  0  0  0  0
  145.9251  137.0981  152.0467 C   0  0  0  0  0  0  0  0  0  0  0  0
  144.7164  137.3286  152.0881 O   0  0  0  0  0  0  0  0  0  0  0  0
  146.8595  138.0350  152.2637 N   0  0  0  0  0  0  0  0  0  0  0  0
  146.5789  139.4362  152.5584 C   0  0  0  0  0  0  0  0  0  0  0  0
  147.2265  139.8907  153.8862 C   0  0  2  0  0  0  0  0  0  0  0  0
  146.2104  139.9835  155.0505 C   0  0  0  0  0  0  0  0  0  0  0  0
  145.3853  141.1931  154.8761 N   0  3  1  0  0  0  0  0  0  0  0  0
  144.3427  141.4728  155.8782 C   0  0  0  0  0  0  0  0  0  0  0  0
  144.1043  142.9931  155.7866 C   0  0  0  0  0  0  0  0  0  0  0  0
  145.1916  143.5305  154.8384 C   0  0  0  0  0  0  0  0  0  0  0  0
  146.2137  142.3982  154.8024 C   0  0  2  0  0  0  0  0  0  0  0  0
  147.1347  142.2987  153.5812 C   0  0  0  0  0  0  0  0  0  0  0  0
  147.9418  141.1270  153.7302 O   0  0  0  0  0  0  0  0  0  0  0  0
  144.2010  134.6444  150.8357 S   0  0  0  0  0  0  0  0  0  0  0  0
  143.4084  130.9810  150.8180 H   0  0  0  0  0  0  0  0  0  0  0  0
  143.2576  131.9255  149.3256 H   0  0  0  0  0  0  0  0  0  0  0  0
  142.3002  132.3604  150.7529 H   0  0  0  0  0  0  0  0  0  0  0  0
  147.4902  135.8688  151.7734 H   0  0  0  0  0  0  0  0  0  0  0  0
  147.8305  137.7630  152.2124 H   0  0  0  0  0  0  0  0  0  0  0  0
  146.9303  140.0394  151.7218 H   0  0  0  0  0  0  0  0  0  0  0  0
  145.4987  139.5864  152.5995 H   0  0  0  0  0  0  0  0  0  0  0  0
  147.9665  139.1405  154.1666 H   0  0  0  0  0  0  0  0  0  0  0  0
  145.5763  139.0971  155.0866 H   0  0  0  0  0  0  0  0  0  0  0  0
  146.7382  140.0385  156.0038 H   0  0  0  0  0  0  0  0  0  0  0  0
  143.4411  140.8931  155.6784 H   0  0  0  0  0  0  0  0  0  0  0  0
  144.7034  141.2098  156.8742 H   0  0  0  0  0  0  0  0  0  0  0  0
  143.1088  143.2221  155.4045 H   0  0  0  0  0  0  0  0  0  0  0  0
  144.1891  143.4475  156.7743 H   0  0  0  0  0  0  0  0  0  0  0  0
  144.7699  143.6900  153.8448 H   0  0  0  0  0  0  0  0  0  0  0  0
  145.6205  144.4740  155.1776 H   0  0  0  0  0  0  0  0  0  0  0  0
  146.8245  142.4580  155.7060 H   0  0  0  0  0  0  0  0  0  0  0  0
  146.5655  142.2650  152.6519 H   0  0  0  0  0  0  0  0  0  0  0  0
  147.7854  143.1714  153.5243 H   0  0  0  0  0  0  0  0  0  0  0  0
  144.9140  141.1135  153.9864 H   0  0  0  0  0  0  0  0  0  0  0  0
  1  2  1  0  0  0  0
  1 21  1  0  0  0  0
  1 22  1  0  0  0  0
  1 23  1  0  0  0  0
  2 20  1  0  0  0  0
  2  3  2  0  0  0  0
  3  4  1  0  0  0  0
  4  5  2  0  0  0  0
  5  6  1  0  0  0  0
  5 20  1  0  0  0  0
  6  7  1  0  0  0  0
  6 24  1  0  0  0  0
  7  8  2  0  0  0  0
  7  9  1  0  0  0  0
  9 10  1  0  0  0  0
  9 25  1  0  0  0  0
 10 11  1  0  0  0  0
 10 26  1  0  0  0  0
 10 27  1  0  0  0  0
 11 19  1  0  0  0  0
 11 12  1  0  0  0  0
 11 28  1  0  0  0  0
 12 13  1  0  0  0  0
 12 29  1  0  0  0  0
 12 30  1  0  0  0  0
 13 17  1  0  0  0  0
 13 14  1  0  0  0  0
 13 40  1  0  0  0  0
 14 15  1  0  0  0  0
 14 31  1  0  0  0  0
 14 32  1  0  0  0  0
 15 16  1  0  0  0  0
 15 33  1  0  0  0  0
 15 34  1  0  0  0  0
 16 17  1  0  0  0  0
 16 35  1  0  0  0  0
 16 36  1  0  0  0  0
 17 18  1  0  0  0  0
 17 37  1  0  0  0  0
 18 19  1  0  0  0  0
 18 38  1  0  0  0  0
 18 39  1  0  0  0  0
M  CHG  1  13   1
M  END
> <s_m_source_file>
AV-unprocessed.smi

> <i_m_source_file_index>
1809

> <i_lp_mmshare_version>
43012

> <i_f3d_flags>
0

> <s_epik_input>
W0NIM11jMW5uYyhzMSlbTkhdQyg9TylbTkhdW0NIMl1bQ0BIXShbQ0gyXTIpT1tDSDJdW0NAQEhdKE4yMylbQ0gyXVtDSDJdW0NIMl0z

> <s_epik_cmdline>
J2VwaWtfcHl0aG9uJywgJy1waCcsICc3LjAnLCAnLXRuJywgJzgnLCAnLW1hJywgJzIwMCcsICctbWV0YWxfYmluZGluZycsICctaW1hZScsICc8aW5maWxlLm1hZT4nLCAnLW9tYWUnLCAnPG91dGZpbGUubWFlPic=

> <r_lp_tautomer_probability>
1

> <r_epik_Ionization_Penalty>
0.112474

> <r_epik_Ionization_Penalty_Charging>
0.108916

> <r_epik_Ionization_Penalty_Neutral>
0.00355844

> <r_epik_State_Penalty>
0.0565397

> <r_epik_Charging_Adjusted_Penalty>
0.165456

> <i_epik_Tot_Q>
1

> <i_epik_Tot_abs_Q>
1

> <r_epik_Metal_State_Penalty>
0.422831

> <b_epik_Metal_Only>
0

> <s_lp_Force_Field>
OPLS_2005

> <r_lp_Energy>
36.9848

> <b_lp_Chiralities_Consistent>
1

> <s_lp_Variant>
AV-unprocessed.smi:1809-7

> <Gold.Version>
5.8.1

> <Gold.Id.Protein>
6NUR|6NUR_protein|mol2

> <Gold.PLP.Fitness>
35.4251

> <Gold.PLP.PLP>
-25.5505

> <Gold.PLP.part.hbond>
-2.8691

> <Gold.PLP.part.metal>
0.0000

> <Gold.PLP.part.buried>
-4.8130

> <Gold.PLP.part.nonpolar>
-22.8410

> <Gold.PLP.part.repulsive>
3.3747

> <Gold.PLP.ligand.clash>
0.0000

> <Gold.PLP.ligand.torsion>
0.7770

> <Gold.PLP.Chemscore.Hbond>
3.8065

> <Gold.PLP.Chemscore.CHOScore>
0.0000

> <Gold.PLP.Chemscore.Metal>
0.0000

> <Gold.Chemscore.Hbonds>
donor molecule, donor type, donor heavy atom, donor atom, acceptor molecule, acceptor atom, score
      L1  H     6    24       P1  7948  0.86
      L1  H     9    25       P1  7948  0.83
      L1  H    13    40       P1 10175  1.98

> <Gold.PLP.Chemscore.Internal.Correction>
0.0091

> <Gold.Rescore>
     Score         DG    S(hbond)    S(metal)    S(lipo)     H(rot)  DE(clash)    DE(int)     intcor
     14.58     -17.70       2.70        0.00      56.65       1.34       1.27       1.85       ----

> <Gold.Chemscore.Fitness>
14.5768

> <Gold.Chemscore.DG>
-17.7025

> <Gold.Chemscore.ZeroCoef>
-5.4800

> <Gold.Chemscore.Hbond>
2.7014

> <Gold.Chemscore.Metal>
0.0000

> <Gold.Chemscore.Lipo>
56.6477

> <Gold.Chemscore.Internal_Hbond>
0.0000

> <Gold.Chemscore.DEClash>
1.2708

> <Gold.Chemscore.DEInternal>
1.8549

> <Gold.Chemscore.Rot>
1.3391

> <Gold.Chemscore.Internal.Correction>
   9.000000E+99

> <Gold.Chemscore.Hbonds>
donor molecule, donor type, donor heavy atom, donor atom, acceptor molecule, acceptor atom, score
      L1  H     6    24       P1  7948  0.84
      L1  H     9    25       P1  7948  0.83
      L1  H    13    40       P1 10175  0.69

> <Gold.Chemscore.Hbond.Weighted>
-9.0228

> <Gold.Chemscore.Metal.Weighted>
-0.0000

> <Gold.Chemscore.Lipo.Weighted>
-6.6278

> <Gold.Chemscore.Internal_Hbond.Weighted>
0.0000

> <Gold.Chemscore.DEClash.Weighted>
1.2708

> <Gold.Chemscore.DEInternal.Weighted>
1.8549

> <Gold.Chemscore.Rot.Weighted>
3.4281

> <Gold.Chemscore.Internal.Correction.Weighted>
   9.000000E+99

> <Gold.Protein.RotatedTorsions>
[ 6907 6896 6895 6894 ] final  -51.61 input  -60.11 | X-H torsion
[ 7974 7965 7964 7962 ] final   21.89 input  175.53 | X-H torsion
[ 8008 7997 7996 7995 ] final   22.36 input   59.86 | X-H torsion
[ 10167 10162 10161 10158 ] final   68.74 input  -65.29 | X-H torsion
[ 10718 10713 10712 10709 ] final -102.36 input   66.30 | X-H torsion
[ 10763 10752 10751 10750 ] final -165.42 input  -60.55 | X-H torsion
[ 11005 11000 10999 10996 ] final -127.22 input  -57.11 | X-H torsion

> <Gold.Protein.ActiveResidues>
 VAL166  LYS551  ARG553  GLY616  TRP617  ASP618  TYR619  PRO620  LYS621  CYS622 
 ASP623  PHE694  ASN695  SER759  ASP760  ASP761  ALA762  ILE779  LEU786  VAL792 
 PHE793  MET794  SER795  GLU796  ALA797  LYS798  CYS799  TRP800  GLU811  SER814 

> <Gold.Protein.RotatedAtoms>
  150.8595  134.7943  159.7071 H   0  0  0  0  0  0  0  0  0  0  0  0  # atno 6907 bound_to 6896
  152.4637  134.5123  159.9767 H   0  0  0  0  0  0  0  0  0  0  0  0  # atno 6908 bound_to 6896
  151.5229  133.3425  159.2940 H   0  0  0  0  0  0  0  0  0  0  0  0  # atno 6909 bound_to 6896
  146.2052  139.7963  142.8731 H   0  0  0  0  0  0  0  0  0  0  0  0  # atno 7974 bound_to 7965
  154.9645  140.3082  155.5016 H   0  0  0  0  0  0  0  0  0  0  0  0  # atno 8008 bound_to 7997
  156.2973  140.2295  156.4672 H   0  0  0  0  0  0  0  0  0  0  0  0  # atno 8009 bound_to 7997
  154.7934  140.0438  157.1206 H   0  0  0  0  0  0  0  0  0  0  0  0  # atno 8010 bound_to 7997
  140.0754  144.5117  150.7198 H   0  0  0  0  0  0  0  0  0  0  0  0  # atno 10167 bound_to 10162
  156.0226  130.5417  150.7098 H   0  0  0  0  0  0  0  0  0  0  0  0  # atno 10718 bound_to 10713
  154.6934  135.2975  154.9447 H   0  0  0  0  0  0  0  0  0  0  0  0  # atno 10763 bound_to 10752
  154.0403  135.6658  153.4793 H   0  0  0  0  0  0  0  0  0  0  0  0  # atno 10764 bound_to 10752
  153.0628  135.5105  154.8038 H   0  0  0  0  0  0  0  0  0  0  0  0  # atno 10765 bound_to 10752
  140.9618  134.0926  157.3961 H   0  0  0  0  0  0  0  0  0  0  0  0  # atno 11005 bound_to 11000
  145.3344  141.0274  143.3428 LP  0  0  0  0  0  0  0  0  0  0  0  0  # atno 17320 bound_to 7965
  144.8776  139.4949  143.6738 LP  0  0  0  0  0  0  0  0  0  0  0  0  # atno 17321 bound_to 7965
  140.7105  143.2501  151.4597 LP  0  0  0  0  0  0  0  0  0  0  0  0  # atno 17342 bound_to 10162
  139.5811  144.1707  152.1969 LP  0  0  0  0  0  0  0  0  0  0  0  0  # atno 17343 bound_to 10162
  157.4739  131.0896  151.0612 LP  0  0  0  0  0  0  0  0  0  0  0  0  # atno 17370 bound_to 10713
  157.1065  130.6003  149.5472 LP  0  0  0  0  0  0  0  0  0  0  0  0  # atno 17371 bound_to 10713
  139.8880  135.0094  156.6597 LP  0  0  0  0  0  0  0  0  0  0  0  0  # atno 17394 bound_to 11000
  140.7457  133.8940  155.8310 LP  0  0  0  0  0  0  0  0  0  0  0  0  # atno 17395 bound_to 11000

$$$$
