AV-unprocessed.smi:395|AV-procd|sdf|2486|dock2
  -GOLD-   2262022423D 1   1.00000     0.00000
 Structure written by MMmdl.
 34 35  0  0  0  0  0  0  0  0  1 V2000
  147.6047  136.1711  160.7744 C   0  0  0  0  0  0  0  0  0  0  0  0
  148.5571  136.7945  160.0592 C   0  0  0  0  0  0  0  0  0  0  0  0
  148.8749  136.5858  158.5847 C   0  0  0  0  0  0  0  0  0  0  0  0
  149.9108  137.4753  158.0662 N   0  0  0  0  0  0  0  0  0  0  0  0
  151.0704  137.7519  158.6819 C   0  0  0  0  0  0  0  0  0  0  0  0
  151.4017  137.2460  159.7550 O   0  0  0  0  0  0  0  0  0  0  0  0
  151.9896  138.7543  157.9682 C   0  0  0  0  0  0  0  0  0  0  0  0
  152.3810  139.8908  158.8301 N   0  0  0  0  0  0  0  0  0  0  0  0
  153.1939  139.6437  159.9659 C   0  0  0  0  0  0  0  0  0  0  0  0
  153.6003  138.5092  160.2225 O   0  0  0  0  0  0  0  0  0  0  0  0
  153.4881  140.8109  160.7940 C   0  0  0  0  0  0  0  0  0  0  0  0
  154.2746  140.5975  161.9637 C   0  0  0  0  0  0  0  0  0  0  0  0
  154.9186  140.4488  162.9139 N   0  0  0  0  0  0  0  0  0  0  0  0
  153.0238  142.0333  160.4629 C   0  0  0  0  0  0  0  0  0  0  0  0
  152.2676  142.2585  159.3335 N   0  0  0  0  0  0  0  0  0  0  0  0
  151.6502  143.5314  159.0883 C   0  0  0  0  0  0  0  0  0  0  0  0
  151.8282  144.2253  157.7520 C   0  0  0  0  0  0  0  0  0  0  0  0
  152.5241  144.7617  158.9792 C   0  0  0  0  0  0  0  0  0  0  0  0
  151.8825  141.1776  158.5109 C   0  0  0  0  0  0  0  0  0  0  0  0
  151.1257  141.3434  157.5505 O   0  0  0  0  0  0  0  0  0  0  0  0
  146.9493  135.4311  160.3392 H   0  0  0  0  0  0  0  0  0  0  0  0
  147.4684  136.3991  161.8211 H   0  0  0  0  0  0  0  0  0  0  0  0
  149.1765  137.5228  160.5621 H   0  0  0  0  0  0  0  0  0  0  0  0
  149.1541  135.5431  158.4256 H   0  0  0  0  0  0  0  0  0  0  0  0
  147.9634  136.7528  158.0109 H   0  0  0  0  0  0  0  0  0  0  0  0
  149.7206  137.9315  157.1857 H   0  0  0  0  0  0  0  0  0  0  0  0
  152.8580  138.2112  157.5934 H   0  0  0  0  0  0  0  0  0  0  0  0
  151.4959  139.1199  157.0656 H   0  0  0  0  0  0  0  0  0  0  0  0
  153.2556  142.8716  161.1043 H   0  0  0  0  0  0  0  0  0  0  0  0
  150.6859  143.6786  159.5719 H   0  0  0  0  0  0  0  0  0  0  0  0
  152.4497  143.7435  156.9996 H   0  0  0  0  0  0  0  0  0  0  0  0
  150.9825  144.7897  157.3650 H   0  0  0  0  0  0  0  0  0  0  0  0
  152.1438  145.6861  159.4091 H   0  0  0  0  0  0  0  0  0  0  0  0
  153.6030  144.6311  159.0365 H   0  0  0  0  0  0  0  0  0  0  0  0
  1  2  2  0  0  0  0
  1 21  1  0  0  0  0
  1 22  1  0  0  0  0
  2  3  1  0  0  0  0
  2 23  1  0  0  0  0
  3  4  1  0  0  0  0
  3 24  1  0  0  0  0
  3 25  1  0  0  0  0
  4  5  1  0  0  0  0
  4 26  1  0  0  0  0
  5  6  2  0  0  0  0
  5  7  1  0  0  0  0
  7  8  1  0  0  0  0
  7 27  1  0  0  0  0
  7 28  1  0  0  0  0
  8 19  1  0  0  0  0
  8  9  1  0  0  0  0
  9 10  2  0  0  0  0
  9 11  1  0  0  0  0
 11 12  1  0  0  0  0
 11 14  2  0  0  0  0
 12 13  3  0  0  0  0
 14 15  1  0  0  0  0
 14 29  1  0  0  0  0
 15 16  1  0  0  0  0
 15 19  1  0  0  0  0
 16 18  1  0  0  0  0
 16 17  1  0  0  0  0
 16 30  1  0  0  0  0
 17 18  1  0  0  0  0
 17 31  1  0  0  0  0
 17 32  1  0  0  0  0
 18 33  1  0  0  0  0
 18 34  1  0  0  0  0
 19 20  2  0  0  0  0
M  END
> <s_m_source_file>
AV-unprocessed.smi

> <i_m_source_file_index>
395

> <i_lp_mmshare_version>
43012

> <i_f3d_flags>
0

> <s_epik_input>
W0NIMl09W0NIXVtDSDJdW05IXUMoPU8pW0NIMl1uMWMoPU8pYyhDI04pW2NIXW4oYzE9TylbQ0hdMltDSDJdW0NIMl0y

> <s_epik_cmdline>
J2VwaWtfcHl0aG9uJywgJy1waCcsICc3LjAnLCAnLXRuJywgJzgnLCAnLW1hJywgJzIwMCcsICctbWV0YWxfYmluZGluZycsICctaW1hZScsICc8aW5maWxlLm1hZT4nLCAnLW9tYWUnLCAnPG91dGZpbGUubWFlPic=

> <r_lp_tautomer_probability>
1

> <r_epik_Ionization_Penalty>
1.93471e-08

> <r_epik_Ionization_Penalty_Charging>
8.01404e-11

> <r_epik_Ionization_Penalty_Neutral>
1.9267e-08

> <r_epik_State_Penalty>
-0

> <r_epik_Charging_Adjusted_Penalty>
8.01404e-11

> <i_epik_Tot_Q>
0

> <i_epik_Tot_abs_Q>
0

> <r_epik_Metal_State_Penalty>
-0

> <b_epik_Metal_Only>
0

> <s_lp_Force_Field>
OPLS_2005

> <r_lp_Energy>
28.6083

> <b_lp_Chiralities_Consistent>
1

> <s_lp_Variant>
AV-unprocessed.smi:395-1

> <Gold.Version>
5.8.1

> <Gold.Id.Protein>
6NUR|6NUR_protein|mol2

> <Gold.PLP.Fitness>
44.6471

> <Gold.PLP.PLP>
-41.9758

> <Gold.PLP.part.hbond>
-2.0000

> <Gold.PLP.part.metal>
0.0000

> <Gold.PLP.part.buried>
-5.2568

> <Gold.PLP.part.nonpolar>
-35.8890

> <Gold.PLP.part.repulsive>
0.1188

> <Gold.PLP.ligand.clash>
0.0000

> <Gold.PLP.ligand.torsion>
0.2867

> <Gold.PLP.Chemscore.Hbond>
0.9913

> <Gold.PLP.Chemscore.CHOScore>
0.0000

> <Gold.PLP.Chemscore.Metal>
0.0000

> <Gold.Chemscore.Hbonds>
donor molecule, donor type, donor heavy atom, donor atom, acceptor molecule, acceptor atom, score
      P1  H  6896  6909       L1     6  0.86

> <Gold.PLP.Chemscore.Internal.Correction>
0.2710

> <Gold.Rescore>
     Score         DG    S(hbond)    S(metal)    S(lipo)     H(rot)  DE(clash)    DE(int)     intcor
      8.99     -12.44       1.00        0.00      76.76       2.09       0.02       3.43       ----

> <Gold.Chemscore.Fitness>
8.9888

> <Gold.Chemscore.DG>
-12.4383

> <Gold.Chemscore.ZeroCoef>
-5.4800

> <Gold.Chemscore.Hbond>
0.9951

> <Gold.Chemscore.Metal>
0.0000

> <Gold.Chemscore.Lipo>
76.7638

> <Gold.Chemscore.Internal_Hbond>
0.0000

> <Gold.Chemscore.DEClash>
0.0235

> <Gold.Chemscore.DEInternal>
3.4260

> <Gold.Chemscore.Rot>
2.0886

> <Gold.Chemscore.Internal.Correction>
   9.000000E+99

> <Gold.Chemscore.Hbonds>
donor molecule, donor type, donor heavy atom, donor atom, acceptor molecule, acceptor atom, score
      P1  H  6896  6909       L1     6  0.83

> <Gold.Chemscore.Hbond.Weighted>
-3.3238

> <Gold.Chemscore.Metal.Weighted>
-0.0000

> <Gold.Chemscore.Lipo.Weighted>
-8.9814

> <Gold.Chemscore.Internal_Hbond.Weighted>
0.0000

> <Gold.Chemscore.DEClash.Weighted>
0.0235

> <Gold.Chemscore.DEInternal.Weighted>
3.4260

> <Gold.Chemscore.Rot.Weighted>
5.3469

> <Gold.Chemscore.Internal.Correction.Weighted>
   9.000000E+99

> <Gold.Protein.RotatedTorsions>
[ 6907 6896 6895 6894 ] final  114.44 input  -60.11 | X-H torsion
[ 7974 7965 7964 7962 ] final -121.73 input  175.53 | X-H torsion
[ 8008 7997 7996 7995 ] final    8.67 input   59.86 | X-H torsion
[ 10167 10162 10161 10158 ] final  -57.91 input  -65.29 | X-H torsion
[ 10718 10713 10712 10709 ] final  -78.32 input   66.30 | X-H torsion
[ 10763 10752 10751 10750 ] final -138.81 input  -60.55 | X-H torsion
[ 11005 11000 10999 10996 ] final  -65.98 input  -57.11 | X-H torsion

> <Gold.Protein.ActiveResidues>
 VAL166  LYS551  ARG553  GLY616  TRP617  ASP618  TYR619  PRO620  LYS621  CYS622 
 ASP623  PHE694  ASN695  SER759  ASP760  ASP761  ALA762  ILE779  LEU786  VAL792 
 PHE793  MET794  SER795  GLU796  ALA797  LYS798  CYS799  TRP800  GLU811  SER814 

> <Gold.Protein.RotatedAtoms>
  152.4802  133.8236  159.7065 H   0  0  0  0  0  0  0  0  0  0  0  0  # atno 6907 bound_to 6896
  150.8846  133.7315  159.2928 H   0  0  0  0  0  0  0  0  0  0  0  0  # atno 6908 bound_to 6896
  151.4808  135.1055  159.9829 H   0  0  0  0  0  0  0  0  0  0  0  0  # atno 6909 bound_to 6896
  145.0371  140.8115  143.4288 H   0  0  0  0  0  0  0  0  0  0  0  0  # atno 7974 bound_to 7965
  154.7699  140.2800  155.6146 H   0  0  0  0  0  0  0  0  0  0  0  0  # atno 8008 bound_to 7997
  156.2931  140.2643  156.2426 H   0  0  0  0  0  0  0  0  0  0  0  0  # atno 8009 bound_to 7997
  154.9913  140.0373  157.2310 H   0  0  0  0  0  0  0  0  0  0  0  0  # atno 8010 bound_to 7997
  140.6229  143.2427  151.5435 H   0  0  0  0  0  0  0  0  0  0  0  0  # atno 10167 bound_to 10162
  156.0120  130.4515  150.3479 H   0  0  0  0  0  0  0  0  0  0  0  0  # atno 10718 bound_to 10713
  154.8627  135.3601  154.5445 H   0  0  0  0  0  0  0  0  0  0  0  0  # atno 10763 bound_to 10752
  153.6065  135.7011  153.5368 H   0  0  0  0  0  0  0  0  0  0  0  0  # atno 10764 bound_to 10752
  153.3246  135.4141  155.1406 H   0  0  0  0  0  0  0  0  0  0  0  0  # atno 10765 bound_to 10752
  141.1469  133.6691  156.6069 H   0  0  0  0  0  0  0  0  0  0  0  0  # atno 11005 bound_to 11000
  145.1695  139.2412  143.5349 LP  0  0  0  0  0  0  0  0  0  0  0  0  # atno 17320 bound_to 7965
  146.3505  140.1443  142.8594 LP  0  0  0  0  0  0  0  0  0  0  0  0  # atno 17321 bound_to 7965
  139.5454  144.2534  152.1433 LP  0  0  0  0  0  0  0  0  0  0  0  0  # atno 17342 bound_to 10162
  140.1758  144.4892  150.6554 LP  0  0  0  0  0  0  0  0  0  0  0  0  # atno 17343 bound_to 10162
  157.1573  131.0336  151.2857 LP  0  0  0  0  0  0  0  0  0  0  0  0  # atno 17370 bound_to 10713
  157.4341  130.7507  149.7015 LP  0  0  0  0  0  0  0  0  0  0  0  0  # atno 17371 bound_to 10713
  140.3644  134.7659  157.4556 LP  0  0  0  0  0  0  0  0  0  0  0  0  # atno 17394 bound_to 11000
  140.0759  134.5798  155.8591 LP  0  0  0  0  0  0  0  0  0  0  0  0  # atno 17395 bound_to 11000

$$$$
