AV-unprocessed.smi:831|AV-procd|sdf|3874|dock6
  -GOLD-   22720 1323D 1   1.00000     0.00000
 Structure written by MMmdl.
 50 51  0  0  0  0  0  0  0  0  1 V2000
  152.6906  144.7580  158.0674 C   0  0  0  0  0  0  0  0  0  0  0  0
  151.4946  144.3333  158.9313 C   0  0  0  0  0  0  0  0  0  0  0  0
  151.7234  144.7096  160.4037 C   0  0  0  0  0  0  0  0  0  0  0  0
  151.2051  142.8319  158.7752 C   0  0  0  0  0  0  0  0  0  0  0  0
  150.9039  142.5565  157.4116 O   0  0  0  0  0  0  0  0  0  0  0  0
  150.2711  141.3039  157.1702 C   0  0  2  0  0  0  0  0  0  0  0  0
  151.3488  140.2187  157.3063 C   0  0  0  0  0  0  0  0  0  0  0  0
  149.6605  141.2935  155.7528 C   0  0  0  0  0  0  0  0  0  0  0  0
  150.3969  141.1175  154.7838 O   0  0  0  0  0  0  0  0  0  0  0  0
  148.3444  141.5001  155.5813 N   0  0  0  0  0  0  0  0  0  0  0  0
  147.6087  141.5232  154.3217 C   0  0  0  0  0  0  0  0  0  0  0  0
  146.9233  140.2088  153.9770 C   0  0  0  0  0  0  0  0  0  0  0  0
  146.0392  139.5545  154.8623 C   0  0  0  0  0  0  0  0  0  0  0  0
  145.4383  138.3466  154.4610 C   0  0  0  0  0  0  0  0  0  0  0  0
  145.7321  137.8191  153.1814 C   0  0  0  0  0  0  0  0  0  0  0  0
  145.1420  136.6071  152.7621 N   0  0  0  0  0  0  0  0  0  0  0  0
  143.6879  136.4847  152.8459 C   0  0  0  0  0  0  0  0  0  0  0  0
  143.2616  135.0222  152.6336 C   0  0  0  0  0  0  0  0  0  0  0  0
  143.7825  134.5460  151.3973 O   0  0  0  0  0  0  0  0  0  0  0  0
  145.2058  134.5709  151.3780 C   0  0  0  0  0  0  0  0  0  0  0  0
  145.7043  136.0160  151.5504 C   0  0  0  0  0  0  0  0  0  0  0  0
  146.5708  138.4570  152.3282 N   0  0  0  0  0  0  0  0  0  0  0  0
  147.1458  139.6139  152.7187 C   0  0  0  0  0  0  0  0  0  0  0  0
  153.6021  144.2419  158.3707 H   0  0  0  0  0  0  0  0  0  0  0  0
  152.8721  145.8300  158.1480 H   0  0  0  0  0  0  0  0  0  0  0  0
  152.5153  144.5339  157.0149 H   0  0  0  0  0  0  0  0  0  0  0  0
  150.6219  144.8823  158.5751 H   0  0  0  0  0  0  0  0  0  0  0  0
  152.5824  144.1816  160.8188 H   0  0  0  0  0  0  0  0  0  0  0  0
  150.8558  144.4621  161.0160 H   0  0  0  0  0  0  0  0  0  0  0  0
  151.9059  145.7788  160.5127 H   0  0  0  0  0  0  0  0  0  0  0  0
  152.0781  142.2478  159.0705 H   0  0  0  0  0  0  0  0  0  0  0  0
  150.3855  142.5441  159.4347 H   0  0  0  0  0  0  0  0  0  0  0  0
  149.5254  141.1352  157.9460 H   0  0  0  0  0  0  0  0  0  0  0  0
  150.9334  139.2253  157.1339 H   0  0  0  0  0  0  0  0  0  0  0  0
  151.7788  140.2257  158.3083 H   0  0  0  0  0  0  0  0  0  0  0  0
  152.1644  140.3697  156.5979 H   0  0  0  0  0  0  0  0  0  0  0  0
  147.8015  141.6782  156.4135 H   0  0  0  0  0  0  0  0  0  0  0  0
  146.8410  142.2970  154.3625 H   0  0  0  0  0  0  0  0  0  0  0  0
  148.2943  141.7839  153.5138 H   0  0  0  0  0  0  0  0  0  0  0  0
  145.8092  139.9637  155.8349 H   0  0  0  0  0  0  0  0  0  0  0  0
  144.7503  137.8507  155.1294 H   0  0  0  0  0  0  0  0  0  0  0  0
  143.3353  136.8261  153.8201 H   0  0  0  0  0  0  0  0  0  0  0  0
  143.2269  137.1213  152.0894 H   0  0  0  0  0  0  0  0  0  0  0  0
  143.6100  134.3930  153.4544 H   0  0  0  0  0  0  0  0  0  0  0  0
  142.1744  134.9465  152.6139 H   0  0  0  0  0  0  0  0  0  0  0  0
  145.6025  133.9263  152.1640 H   0  0  0  0  0  0  0  0  0  0  0  0
  145.5545  134.1645  150.4283 H   0  0  0  0  0  0  0  0  0  0  0  0
  145.4013  136.6188  150.6931 H   0  0  0  0  0  0  0  0  0  0  0  0
  146.7931  136.0155  151.5675 H   0  0  0  0  0  0  0  0  0  0  0  0
  147.8042  140.0807  152.0008 H   0  0  0  0  0  0  0  0  0  0  0  0
  1  2  1  0  0  0  0
  1 24  1  0  0  0  0
  1 25  1  0  0  0  0
  1 26  1  0  0  0  0
  2  3  1  0  0  0  0
  2  4  1  0  0  0  0
  2 27  1  0  0  0  0
  3 28  1  0  0  0  0
  3 29  1  0  0  0  0
  3 30  1  0  0  0  0
  4  5  1  0  0  0  0
  4 31  1  0  0  0  0
  4 32  1  0  0  0  0
  5  6  1  0  0  0  0
  6  7  1  0  0  0  0
  6  8  1  0  0  0  0
  6 33  1  0  0  0  0
  7 34  1  0  0  0  0
  7 35  1  0  0  0  0
  7 36  1  0  0  0  0
  8  9  2  0  0  0  0
  8 10  1  0  0  0  0
 10 11  1  0  0  0  0
 10 37  1  0  0  0  0
 11 12  1  0  0  0  0
 11 38  1  0  0  0  0
 11 39  1  0  0  0  0
 12 23  1  0  0  0  0
 12 13  2  0  0  0  0
 13 14  1  0  0  0  0
 13 40  1  0  0  0  0
 14 15  2  0  0  0  0
 14 41  1  0  0  0  0
 15 16  1  0  0  0  0
 15 22  1  0  0  0  0
 16 21  1  0  0  0  0
 16 17  1  0  0  0  0
 17 18  1  0  0  0  0
 17 42  1  0  0  0  0
 17 43  1  0  0  0  0
 18 19  1  0  0  0  0
 18 44  1  0  0  0  0
 18 45  1  0  0  0  0
 19 20  1  0  0  0  0
 20 21  1  0  0  0  0
 20 46  1  0  0  0  0
 20 47  1  0  0  0  0
 21 48  1  0  0  0  0
 21 49  1  0  0  0  0
 22 23  2  0  0  0  0
 23 50  1  0  0  0  0
M  END
> <s_m_source_file>
AV-unprocessed.smi

> <i_m_source_file_index>
831

> <i_lp_mmshare_version>
43012

> <i_f3d_flags>
0

> <s_epik_input>
W0NIM11bQ0hdKFtDSDNdKVtDSDJdT1tDQEhdKFtDSDNdKUMoPU8pW05IXVtDSDJdYzFbY0hdW2NIXWMobltjSF0xKU4yW0NIMl1bQ0gyXU9bQ0gyXVtDSDJdMg==

> <s_epik_cmdline>
J2VwaWtfcHl0aG9uJywgJy1waCcsICc3LjAnLCAnLXRuJywgJzgnLCAnLW1hJywgJzIwMCcsICctbWV0YWxfYmluZGluZycsICctaW1hZScsICc8aW5maWxlLm1hZT4nLCAnLW9tYWUnLCAnPG91dGZpbGUubWFlPic=

> <r_lp_tautomer_probability>
1

> <r_epik_Ionization_Penalty>
0.00456501

> <r_epik_Ionization_Penalty_Charging>
0

> <r_epik_Ionization_Penalty_Neutral>
0.00456501

> <r_epik_State_Penalty>
0.00329791

> <r_epik_Charging_Adjusted_Penalty>
0.00329791

> <i_epik_Tot_Q>
0

> <i_epik_Tot_abs_Q>
0

> <r_epik_Metal_State_Penalty>
-0

> <b_epik_Metal_Only>
0

> <s_lp_Force_Field>
OPLS_2005

> <r_lp_Energy>
23.9744

> <b_lp_Chiralities_Consistent>
1

> <s_lp_Variant>
AV-unprocessed.smi:831-1

> <Gold.Version>
5.8.1

> <Gold.Id.Protein>
6NUR|6NUR_protein|mol2

> <Gold.PLP.Fitness>
41.7123

> <Gold.PLP.PLP>
-38.6188

> <Gold.PLP.part.hbond>
-1.2221

> <Gold.PLP.part.metal>
0.0000

> <Gold.PLP.part.buried>
-4.8240

> <Gold.PLP.part.nonpolar>
-34.3619

> <Gold.PLP.part.repulsive>
0.9997

> <Gold.PLP.ligand.clash>
0.0000

> <Gold.PLP.ligand.torsion>
1.1144

> <Gold.PLP.Chemscore.Hbond>
0.6080

> <Gold.PLP.Chemscore.CHOScore>
1.0000

> <Gold.PLP.Chemscore.Metal>
0.0000

> <Gold.Chemscore.Hbonds>
donor molecule, donor type, donor heavy atom, donor atom, acceptor molecule, acceptor atom, score
      P1  H  7989  7998       L1     9  0.62
      L1  C    23    50       P1  7957  0.83

> <Gold.PLP.Chemscore.Internal.Correction>
0.4983

> <Gold.Rescore>
     Score         DG    S(hbond)    S(metal)    S(lipo)     H(rot)  DE(clash)    DE(int)     intcor
     12.99     -14.33       0.85        0.00      93.32       1.92       0.20       1.14       ----

> <Gold.Chemscore.Fitness>
12.9919

> <Gold.Chemscore.DG>
-14.3276

> <Gold.Chemscore.ZeroCoef>
-5.4800

> <Gold.Chemscore.Hbond>
0.8486

> <Gold.Chemscore.Metal>
0.0000

> <Gold.Chemscore.Lipo>
93.3170

> <Gold.Chemscore.Internal_Hbond>
0.0000

> <Gold.Chemscore.DEClash>
0.1986

> <Gold.Chemscore.DEInternal>
1.1371

> <Gold.Chemscore.Rot>
1.9159

> <Gold.Chemscore.Internal.Correction>
   9.000000E+99

> <Gold.Chemscore.Hbonds>
donor molecule, donor type, donor heavy atom, donor atom, acceptor molecule, acceptor atom, score
      P1  H  7989  7998       L1     9  0.62

> <Gold.Chemscore.Hbond.Weighted>
-2.8343

> <Gold.Chemscore.Metal.Weighted>
-0.0000

> <Gold.Chemscore.Lipo.Weighted>
-10.9181

> <Gold.Chemscore.Internal_Hbond.Weighted>
0.0000

> <Gold.Chemscore.DEClash.Weighted>
0.1986

> <Gold.Chemscore.DEInternal.Weighted>
1.1371

> <Gold.Chemscore.Rot.Weighted>
4.9047

> <Gold.Chemscore.Internal.Correction.Weighted>
   9.000000E+99

> <Gold.Protein.RotatedTorsions>
[ 6907 6896 6895 6894 ] final  -19.73 input  -60.11 | X-H torsion
[ 7974 7965 7964 7962 ] final   62.07 input  175.53 | X-H torsion
[ 8008 7997 7996 7995 ] final -155.95 input   59.86 | X-H torsion
[ 10167 10162 10161 10158 ] final  -89.22 input  -65.29 | X-H torsion
[ 10718 10713 10712 10709 ] final    2.04 input   66.30 | X-H torsion
[ 10763 10752 10751 10750 ] final  -24.90 input  -60.55 | X-H torsion
[ 11005 11000 10999 10996 ] final   94.69 input  -57.11 | X-H torsion

> <Gold.Protein.ActiveResidues>
 VAL166  LYS551  ARG553  GLY616  TRP617  ASP618  TYR619  PRO620  LYS621  CYS622 
 ASP623  PHE694  ASN695  SER759  ASP760  ASP761  ALA762  ILE779  LEU786  VAL792 
 PHE793  MET794  SER795  GLU796  ALA797  LYS798  CYS799  TRP800  GLU811  SER814 

> <Gold.Protein.RotatedAtoms>
  151.2588  135.0647  159.9089 H   0  0  0  0  0  0  0  0  0  0  0  0  # atno 6907 bound_to 6896
  152.5369  134.0254  159.8011 H   0  0  0  0  0  0  0  0  0  0  0  0  # atno 6908 bound_to 6896
  151.0473  133.5604  159.2676 H   0  0  0  0  0  0  0  0  0  0  0  0  # atno 6909 bound_to 6896
  145.8775  139.3420  143.0726 H   0  0  0  0  0  0  0  0  0  0  0  0  # atno 7974 bound_to 7965
  155.7097  140.0777  157.2376 H   0  0  0  0  0  0  0  0  0  0  0  0  # atno 8008 bound_to 7997
  154.4060  140.1632  156.2336 H   0  0  0  0  0  0  0  0  0  0  0  0  # atno 8009 bound_to 7997
  155.9294  140.3392  155.6239 H   0  0  0  0  0  0  0  0  0  0  0  0  # atno 8010 bound_to 7997
  140.3669  143.2813  151.9547 H   0  0  0  0  0  0  0  0  0  0  0  0  # atno 10167 bound_to 10162
  156.8572  130.5574  149.5665 H   0  0  0  0  0  0  0  0  0  0  0  0  # atno 10718 bound_to 10713
  153.6913  135.6961  153.5089 H   0  0  0  0  0  0  0  0  0  0  0  0  # atno 10763 bound_to 10752
  153.2411  135.4305  155.0698 H   0  0  0  0  0  0  0  0  0  0  0  0  # atno 10764 bound_to 10752
  154.8372  135.3508  154.6454 H   0  0  0  0  0  0  0  0  0  0  0  0  # atno 10765 bound_to 10752
  139.8796  134.8859  156.3901 H   0  0  0  0  0  0  0  0  0  0  0  0  # atno 11005 bound_to 11000
  145.9063  140.9209  143.0477 LP  0  0  0  0  0  0  0  0  0  0  0  0  # atno 17320 bound_to 7965
  144.6726  140.1100  143.7456 LP  0  0  0  0  0  0  0  0  0  0  0  0  # atno 17321 bound_to 7965
  139.4808  144.5942  151.7719 LP  0  0  0  0  0  0  0  0  0  0  0  0  # atno 17342 bound_to 10162
  140.5071  144.1081  150.5985 LP  0  0  0  0  0  0  0  0  0  0  0  0  # atno 17343 bound_to 10162
  156.0796  130.5810  150.9539 LP  0  0  0  0  0  0  0  0  0  0  0  0  # atno 17370 bound_to 10713
  157.6271  131.0924  150.8514 LP  0  0  0  0  0  0  0  0  0  0  0  0  # atno 17371 bound_to 10713
  140.9339  133.7560  156.0059 LP  0  0  0  0  0  0  0  0  0  0  0  0  # atno 17394 bound_to 11000
  140.8299  134.3191  157.5352 LP  0  0  0  0  0  0  0  0  0  0  0  0  # atno 17395 bound_to 11000

$$$$
