AV-unprocessed.smi:3056|AV-procd|sdf|11650|dock4
  -GOLD-   2272017 43D 1   1.00000     0.00000
 Structure written by MMmdl.
 48 49  0  0  0  0  0  0  0  0  2 V2000
  145.5645  132.3972  149.5942 C   0  0  0  0  0  0  0  0  0  0  0  0
  145.4092  133.4304  150.6725 C   0  0  0  0  0  0  0  0  0  0  0  0
  145.6739  133.2898  152.0640 C   0  0  0  0  0  0  0  0  0  0  0  0
  145.4219  134.3932  152.7490 N   0  0  0  0  0  0  0  0  0  0  0  0
  145.0040  135.2829  151.8220 N   0  0  0  0  0  0  0  0  0  0  0  0
  144.5990  136.6202  152.2394 C   0  0  1  0  0  0  0  0  0  0  0  0
  143.4554  136.5202  153.2673 C   0  0  0  0  0  0  0  0  0  0  0  0
  145.8141  137.4479  152.7426 C   0  0  2  0  0  0  0  0  0  0  0  0
  146.5940  138.1051  151.5909 C   0  0  0  0  0  0  0  0  0  0  0  0
  146.7543  136.5944  153.5116 N   0  3  0  0  0  0  0  0  0  0  0  0
  147.5312  137.2743  154.5752 C   0  0  0  0  0  0  0  0  0  0  0  0
  147.5249  138.8080  154.4593 C   0  0  0  0  0  0  0  0  0  0  0  0
  146.4628  139.4128  154.6158 O   0  0  0  0  0  0  0  0  0  0  0  0
  148.6855  139.4471  154.1787 N   0  0  0  0  0  0  0  0  0  0  0  0
  148.8732  140.8984  154.0909 C   0  0  0  0  0  0  0  0  0  0  0  0
  149.7890  141.3324  155.2486 C   0  0  0  0  0  0  0  0  0  0  0  0
  151.0258  140.6267  155.1722 O   0  0  0  0  0  0  0  0  0  0  0  0
  150.8769  139.2079  155.2190 C   0  0  2  0  0  0  0  0  0  0  0  0
  152.2712  138.5757  155.1507 C   0  0  0  0  0  0  0  0  0  0  0  0
  149.9724  138.7572  154.0538 C   0  0  0  0  0  0  0  0  0  0  0  0
  144.9777  134.7216  150.5602 C   0  0  0  0  0  0  0  0  0  0  0  0
  146.1243  131.5286  149.9421 H   0  0  0  0  0  0  0  0  0  0  0  0
  146.0954  132.7946  148.7289 H   0  0  0  0  0  0  0  0  0  0  0  0
  144.5983  132.0362  149.2417 H   0  0  0  0  0  0  0  0  0  0  0  0
  146.0336  132.4205  152.5950 H   0  0  0  0  0  0  0  0  0  0  0  0
  144.1884  137.1235  151.3618 H   0  0  0  0  0  0  0  0  0  0  0  0
  142.9942  137.4899  153.4523 H   0  0  0  0  0  0  0  0  0  0  0  0
  143.8059  136.1304  154.2233 H   0  0  0  0  0  0  0  0  0  0  0  0
  142.6648  135.8599  152.9087 H   0  0  0  0  0  0  0  0  0  0  0  0
  145.4530  138.2512  153.3871 H   0  0  0  0  0  0  0  0  0  0  0  0
  145.9910  138.8435  151.0630 H   0  0  0  0  0  0  0  0  0  0  0  0
  146.9317  137.3647  150.8647 H   0  0  0  0  0  0  0  0  0  0  0  0
  147.4751  138.6285  151.9635 H   0  0  0  0  0  0  0  0  0  0  0  0
  146.2170  135.8494  153.9321 H   0  0  0  0  0  0  0  0  0  0  0  0
  147.1703  136.9706  155.5569 H   0  0  0  0  0  0  0  0  0  0  0  0
  148.5625  136.9313  154.4889 H   0  0  0  0  0  0  0  0  0  0  0  0
  149.3388  141.1434  153.1350 H   0  0  0  0  0  0  0  0  0  0  0  0
  147.9468  141.4693  154.1229 H   0  0  0  0  0  0  0  0  0  0  0  0
  149.9891  142.4024  155.1919 H   0  0  0  0  0  0  0  0  0  0  0  0
  149.3119  141.1462  156.2122 H   0  0  0  0  0  0  0  0  0  0  0  0
  150.4156  138.9315  156.1687 H   0  0  0  0  0  0  0  0  0  0  0  0
  152.2111  137.4878  155.1889 H   0  0  0  0  0  0  0  0  0  0  0  0
  152.8887  138.9034  155.9873 H   0  0  0  0  0  0  0  0  0  0  0  0
  152.7850  138.8511  154.2293 H   0  0  0  0  0  0  0  0  0  0  0  0
  149.8723  137.6710  154.0591 H   0  0  0  0  0  0  0  0  0  0  0  0
  150.4290  139.0127  153.0962 H   0  0  0  0  0  0  0  0  0  0  0  0
  144.6523  135.2787  149.6940 H   0  0  0  0  0  0  0  0  0  0  0  0
  147.4169  136.1872  152.8672 H   0  0  0  0  0  0  0  0  0  0  0  0
  1  2  1  0  0  0  0
  1 22  1  0  0  0  0
  1 23  1  0  0  0  0
  1 24  1  0  0  0  0
  2 21  2  0  0  0  0
  2  3  1  0  0  0  0
  3  4  2  0  0  0  0
  3 25  1  0  0  0  0
  4  5  1  0  0  0  0
  5  6  1  0  0  0  0
  5 21  1  0  0  0  0
  6  7  1  0  0  0  0
  6  8  1  0  0  0  0
  6 26  1  0  0  0  0
  7 27  1  0  0  0  0
  7 28  1  0  0  0  0
  7 29  1  0  0  0  0
  8  9  1  0  0  0  0
  8 10  1  0  0  0  0
  8 30  1  0  0  0  0
  9 31  1  0  0  0  0
  9 32  1  0  0  0  0
  9 33  1  0  0  0  0
 10 11  1  0  0  0  0
 10 34  1  0  0  0  0
 10 48  1  0  0  0  0
 11 12  1  0  0  0  0
 11 35  1  0  0  0  0
 11 36  1  0  0  0  0
 12 13  2  0  0  0  0
 12 14  1  0  0  0  0
 14 20  1  0  0  0  0
 14 15  1  0  0  0  0
 15 16  1  0  0  0  0
 15 37  1  0  0  0  0
 15 38  1  0  0  0  0
 16 17  1  0  0  0  0
 16 39  1  0  0  0  0
 16 40  1  0  0  0  0
 17 18  1  0  0  0  0
 18 19  1  0  0  0  0
 18 20  1  0  0  0  0
 18 41  1  0  0  0  0
 19 42  1  0  0  0  0
 19 43  1  0  0  0  0
 19 44  1  0  0  0  0
 20 45  1  0  0  0  0
 20 46  1  0  0  0  0
 21 47  1  0  0  0  0
M  CHG  1  10   1
M  END
> <s_m_source_file>
AV-unprocessed.smi

> <i_m_source_file_index>
3056

> <i_lp_mmshare_version>
43012

> <i_f3d_flags>
0

> <s_epik_input>
W0NIM11jMVtjSF1ubihbY0hdMSlbQ0BIXShbQ0gzXSlbQ0BIXShbQ0gzXSlbTkhdW0NIMl1DKD1PKU4yW0NIMl1bQ0gyXU9bQ0BASF0oW0NIM10pW0NIMl0y

> <s_epik_cmdline>
J2VwaWtfcHl0aG9uJywgJy1waCcsICc3LjAnLCAnLXRuJywgJzgnLCAnLW1hJywgJzIwMCcsICctbWV0YWxfYmluZGluZycsICctaW1hZScsICc8aW5maWxlLm1hZT4nLCAnLW9tYWUnLCAnPG91dGZpbGUubWFlPic=

> <r_lp_tautomer_probability>
1

> <r_epik_Ionization_Penalty>
0.233715

> <r_epik_Ionization_Penalty_Charging>
0.233698

> <r_epik_Ionization_Penalty_Neutral>
1.68157e-05

> <r_epik_State_Penalty>
0.225221

> <r_epik_Charging_Adjusted_Penalty>
0.458919

> <i_epik_Tot_Q>
1

> <i_epik_Tot_abs_Q>
1

> <r_epik_Metal_State_Penalty>
0.225535

> <b_epik_Metal_Only>
0

> <s_lp_Force_Field>
OPLS_2005

> <r_lp_Energy>
28.2676

> <b_lp_Chiralities_Consistent>
1

> <s_lp_Variant>
AV-unprocessed.smi:3056-6

> <Gold.Version>
5.8.1

> <Gold.Id.Protein>
6NUR|6NUR_protein|mol2

> <Gold.PLP.Fitness>
44.9256

> <Gold.PLP.PLP>
-36.6861

> <Gold.PLP.part.hbond>
-2.0000

> <Gold.PLP.part.metal>
0.0000

> <Gold.PLP.part.buried>
1.1919

> <Gold.PLP.part.nonpolar>
-35.0145

> <Gold.PLP.part.repulsive>
0.2202

> <Gold.PLP.ligand.clash>
0.0000

> <Gold.PLP.ligand.torsion>
1.2893

> <Gold.PLP.Chemscore.Hbond>
2.8960

> <Gold.PLP.Chemscore.CHOScore>
0.6581

> <Gold.PLP.Chemscore.Metal>
0.0000

> <Gold.Chemscore.Hbonds>
donor molecule, donor type, donor heavy atom, donor atom, acceptor molecule, acceptor atom, score
      L1  H    10    48       P1  7948  2.00
      P1  H  7989  7998       L1    17  0.91
      L1  C    21    47       P1  7921  0.57

> <Gold.PLP.Chemscore.Internal.Correction>
0.1559

> <Gold.Rescore>
     Score         DG    S(hbond)    S(metal)    S(lipo)     H(rot)  DE(clash)    DE(int)     intcor
     13.10     -15.89       1.28        0.00      90.50       1.74       0.14       2.65       ----

> <Gold.Chemscore.Fitness>
13.1011

> <Gold.Chemscore.DG>
-15.8857

> <Gold.Chemscore.ZeroCoef>
-5.4800

> <Gold.Chemscore.Hbond>
1.2752

> <Gold.Chemscore.Metal>
0.0000

> <Gold.Chemscore.Lipo>
90.5042

> <Gold.Chemscore.Internal_Hbond>
0.0000

> <Gold.Chemscore.DEClash>
0.1393

> <Gold.Chemscore.DEInternal>
2.6453

> <Gold.Chemscore.Rot>
1.7354

> <Gold.Chemscore.Internal.Correction>
   9.000000E+99

> <Gold.Chemscore.Hbonds>
donor molecule, donor type, donor heavy atom, donor atom, acceptor molecule, acceptor atom, score
      L1  H    10    48       P1  7948  0.97
      P1  H  7989  7998       L1    17  0.17

> <Gold.Chemscore.Hbond.Weighted>
-4.2593

> <Gold.Chemscore.Metal.Weighted>
-0.0000

> <Gold.Chemscore.Lipo.Weighted>
-10.5890

> <Gold.Chemscore.Internal_Hbond.Weighted>
0.0000

> <Gold.Chemscore.DEClash.Weighted>
0.1393

> <Gold.Chemscore.DEInternal.Weighted>
2.6453

> <Gold.Chemscore.Rot.Weighted>
4.4426

> <Gold.Chemscore.Internal.Correction.Weighted>
   9.000000E+99

> <Gold.Protein.RotatedTorsions>
[ 6907 6896 6895 6894 ] final -119.98 input  -60.11 | X-H torsion
[ 7974 7965 7964 7962 ] final  -43.30 input  175.53 | X-H torsion
[ 8008 7997 7996 7995 ] final  127.42 input   59.86 | X-H torsion
[ 10167 10162 10161 10158 ] final  162.73 input  -65.29 | X-H torsion
[ 10718 10713 10712 10709 ] final -172.93 input   66.30 | X-H torsion
[ 10763 10752 10751 10750 ] final -172.11 input  -60.55 | X-H torsion
[ 11005 11000 10999 10996 ] final   19.54 input  -57.11 | X-H torsion

> <Gold.Protein.ActiveResidues>
 VAL166  LYS551  ARG553  GLY616  TRP617  ASP618  TYR619  PRO620  LYS621  CYS622 
 ASP623  PHE694  ASN695  SER759  ASP760  ASP761  ALA762  ILE779  LEU786  VAL792 
 PHE793  MET794  SER795  GLU796  ALA797  LYS798  CYS799  TRP800  GLU811  SER814 

> <Gold.Protein.RotatedAtoms>
  150.8353  133.8024  159.3082 H   0  0  0  0  0  0  0  0  0  0  0  0  # atno 6907 bound_to 6896
  151.5742  135.1059  160.0012 H   0  0  0  0  0  0  0  0  0  0  0  0  # atno 6908 bound_to 6896
  152.4426  133.7434  159.6710 H   0  0  0  0  0  0  0  0  0  0  0  0  # atno 6909 bound_to 6896
  146.0033  140.7049  142.9260 H   0  0  0  0  0  0  0  0  0  0  0  0  # atno 7974 bound_to 7965
  156.2890  140.2669  156.2271 H   0  0  0  0  0  0  0  0  0  0  0  0  # atno 8008 bound_to 7997
  155.0110  140.0387  157.2417 H   0  0  0  0  0  0  0  0  0  0  0  0  # atno 8009 bound_to 7997
  154.7518  140.2744  155.6291 H   0  0  0  0  0  0  0  0  0  0  0  0  # atno 8010 bound_to 7997
  139.4864  144.4408  151.8954 H   0  0  0  0  0  0  0  0  0  0  0  0  # atno 10167 bound_to 10162
  156.7628  130.9420  151.3118 H   0  0  0  0  0  0  0  0  0  0  0  0  # atno 10718 bound_to 10713
  154.6230  135.2877  155.0305 H   0  0  0  0  0  0  0  0  0  0  0  0  # atno 10763 bound_to 10752
  154.1493  135.6506  153.4963 H   0  0  0  0  0  0  0  0  0  0  0  0  # atno 10764 bound_to 10752
  153.0244  135.5351  154.7027 H   0  0  0  0  0  0  0  0  0  0  0  0  # atno 10765 bound_to 10752
  140.4126  134.1603  155.7668 H   0  0  0  0  0  0  0  0  0  0  0  0  # atno 11005 bound_to 11000
  144.6927  140.3270  143.7222 LP  0  0  0  0  0  0  0  0  0  0  0  0  # atno 17320 bound_to 7965
  145.7455  139.1777  143.2351 LP  0  0  0  0  0  0  0  0  0  0  0  0  # atno 17321 bound_to 7965
  140.3860  144.2676  150.5904 LP  0  0  0  0  0  0  0  0  0  0  0  0  # atno 17342 bound_to 10162
  140.5190  143.2270  151.8418 LP  0  0  0  0  0  0  0  0  0  0  0  0  # atno 17343 bound_to 10162
  157.6727  130.9066  150.0077 LP  0  0  0  0  0  0  0  0  0  0  0  0  # atno 17370 bound_to 10713
  156.1328  130.3643  149.9704 LP  0  0  0  0  0  0  0  0  0  0  0  0  # atno 17371 bound_to 10713
  141.1815  133.8403  157.1240 LP  0  0  0  0  0  0  0  0  0  0  0  0  # atno 17394 bound_to 11000
  140.0257  134.9925  157.0681 LP  0  0  0  0  0  0  0  0  0  0  0  0  # atno 17395 bound_to 11000

$$$$
