AV-unprocessed.smi:232|AV-procd|sdf|1776|dock3
  -GOLD-   2262020323D 1   1.00000     0.00000
 Structure written by MMmdl.
 52 55  0  0  0  0  0  0  0  0  1 V2000
  153.4946  142.2539  161.6807 C   0  0  0  0  0  0  0  0  0  0  0  0
  153.6739  141.9119  160.1965 C   0  0  0  0  0  0  0  0  0  0  0  0
  152.3868  142.1088  159.3671 C   0  0  1  0  0  0  0  0  0  0  0  0
  152.3291  143.4499  158.6188 C   0  0  0  0  0  0  0  0  0  0  0  0
  151.5740  143.1473  157.3189 C   0  0  0  0  0  0  0  0  0  0  0  0
  151.2138  141.6615  157.4191 C   0  0  1  0  0  0  0  0  0  0  0  0
  151.1717  140.9470  156.0587 C   0  0  0  0  0  0  0  0  0  0  0  0
  152.2097  141.1024  158.3261 N   0  0  0  0  0  0  0  0  0  0  0  0
  151.9758  139.8489  158.7826 C   0  0  0  0  0  0  0  0  0  0  0  0
  152.9764  139.1162  159.3400 N   0  0  0  0  0  0  0  0  0  0  0  0
  152.7343  137.8738  159.7697 C   0  0  0  0  0  0  0  0  0  0  0  0
  151.5913  137.1843  159.7316 N   0  0  0  0  0  0  0  0  0  0  0  0
  150.5887  137.9187  159.1687 C   0  0  0  0  0  0  0  0  0  0  0  0
  150.6945  139.2484  158.6757 C   0  0  0  0  0  0  0  0  0  0  0  0
  149.4703  139.6731  158.1750 N   0  0  0  0  0  0  0  0  0  0  0  0
  148.6829  138.6485  158.3592 C   0  0  0  0  0  0  0  0  0  0  0  0
  149.2733  137.5523  158.9467 N   0  0  0  0  0  0  0  0  0  0  0  0
  148.6325  136.2867  159.2554 C   0  0  0  0  0  0  0  0  0  0  0  0
  147.4150  136.4551  160.1854 C   0  0  2  0  0  0  0  0  0  0  0  0
  147.7987  137.2049  161.3223 O   0  0  0  0  0  0  0  0  0  0  0  0
  146.8438  135.1022  160.6481 C   0  0  1  0  0  0  0  0  0  0  0  0
  147.7308  134.3471  161.6397 C   0  0  0  0  0  0  0  0  0  0  0  0
  146.7254  133.4547  162.3297 C   0  0  0  0  0  0  0  0  0  0  0  0
  145.5139  134.3757  162.4368 C   0  0  0  0  0  0  0  0  0  0  0  0
  145.6171  135.2928  161.3503 O   0  0  0  0  0  0  0  0  0  0  0  0
  154.4148  142.0664  162.2343 H   0  0  0  0  0  0  0  0  0  0  0  0
  152.7078  141.6477  162.1302 H   0  0  0  0  0  0  0  0  0  0  0  0
  153.2338  143.3029  161.8209 H   0  0  0  0  0  0  0  0  0  0  0  0
  154.4816  142.5130  159.7770 H   0  0  0  0  0  0  0  0  0  0  0  0
  154.0024  140.8745  160.1302 H   0  0  0  0  0  0  0  0  0  0  0  0
  151.5262  142.0520  160.0365 H   0  0  0  0  0  0  0  0  0  0  0  0
  151.8340  144.2169  159.2148 H   0  0  0  0  0  0  0  0  0  0  0  0
  153.3308  143.8111  158.3818 H   0  0  0  0  0  0  0  0  0  0  0  0
  150.6864  143.7691  157.1975 H   0  0  0  0  0  0  0  0  0  0  0  0
  152.2279  143.3327  156.4656 H   0  0  0  0  0  0  0  0  0  0  0  0
  150.2293  141.5889  157.8841 H   0  0  0  0  0  0  0  0  0  0  0  0
  150.4480  141.4194  155.3944 H   0  0  0  0  0  0  0  0  0  0  0  0
  150.8832  139.9011  156.1677 H   0  0  0  0  0  0  0  0  0  0  0  0
  152.1449  140.9738  155.5675 H   0  0  0  0  0  0  0  0  0  0  0  0
  153.5780  137.3566  160.2022 H   0  0  0  0  0  0  0  0  0  0  0  0
  147.6425  138.6632  158.0686 H   0  0  0  0  0  0  0  0  0  0  0  0
  148.3298  135.8265  158.3143 H   0  0  0  0  0  0  0  0  0  0  0  0
  149.3686  135.6184  159.7039 H   0  0  0  0  0  0  0  0  0  0  0  0
  146.6371  137.0126  159.6621 H   0  0  0  0  0  0  0  0  0  0  0  0
  147.3028  136.8969  162.0657 H   0  0  0  0  0  0  0  0  0  0  0  0
  146.6389  134.4616  159.7886 H   0  0  0  0  0  0  0  0  0  0  0  0
  148.5342  133.7907  161.1559 H   0  0  0  0  0  0  0  0  0  0  0  0
  148.1759  135.0346  162.3606 H   0  0  0  0  0  0  0  0  0  0  0  0
  146.4918  132.5969  161.6973 H   0  0  0  0  0  0  0  0  0  0  0  0
  147.0682  133.0852  163.2965 H   0  0  0  0  0  0  0  0  0  0  0  0
  144.5732  133.8256  162.4050 H   0  0  0  0  0  0  0  0  0  0  0  0
  145.5436  134.9405  163.3692 H   0  0  0  0  0  0  0  0  0  0  0  0
  1  2  1  0  0  0  0
  1 26  1  0  0  0  0
  1 27  1  0  0  0  0
  1 28  1  0  0  0  0
  2  3  1  0  0  0  0
  2 29  1  0  0  0  0
  2 30  1  0  0  0  0
  3  8  1  0  0  0  0
  3  4  1  0  0  0  0
  3 31  1  0  0  0  0
  4  5  1  0  0  0  0
  4 32  1  0  0  0  0
  4 33  1  0  0  0  0
  5  6  1  0  0  0  0
  5 34  1  0  0  0  0
  5 35  1  0  0  0  0
  6  7  1  0  0  0  0
  6  8  1  0  0  0  0
  6 36  1  0  0  0  0
  7 37  1  0  0  0  0
  7 38  1  0  0  0  0
  7 39  1  0  0  0  0
  8  9  1  0  0  0  0
  9 14  1  0  0  0  0
  9 10  2  0  0  0  0
 10 11  1  0  0  0  0
 11 12  2  0  0  0  0
 11 40  1  0  0  0  0
 12 13  1  0  0  0  0
 13 17  1  0  0  0  0
 13 14  2  0  0  0  0
 14 15  1  0  0  0  0
 15 16  2  0  0  0  0
 16 17  1  0  0  0  0
 16 41  1  0  0  0  0
 17 18  1  0  0  0  0
 18 19  1  0  0  0  0
 18 42  1  0  0  0  0
 18 43  1  0  0  0  0
 19 20  1  0  0  0  0
 19 21  1  0  0  0  0
 19 44  1  0  0  0  0
 20 45  1  0  0  0  0
 21 25  1  0  0  0  0
 21 22  1  0  0  0  0
 21 46  1  0  0  0  0
 22 23  1  0  0  0  0
 22 47  1  0  0  0  0
 22 48  1  0  0  0  0
 23 24  1  0  0  0  0
 23 49  1  0  0  0  0
 23 50  1  0  0  0  0
 24 25  1  0  0  0  0
 24 51  1  0  0  0  0
 24 52  1  0  0  0  0
M  END
> <s_m_source_file>
AV-unprocessed.smi

> <i_m_source_file_index>
232

> <i_lp_mmshare_version>
43012

> <i_f3d_flags>
0

> <s_epik_input>
W0NIM11bQ0gyXVtDQEBIXTFbQ0gyXVtDSDJdW0NAQEhdKFtDSDNdKU4xYyhuW2NIXW4yKWMoYzIzKW5bY0hdbjNbQ0gyXVtDQEhdKFtPSF0pW0NAQEhdNFtDSDJdW0NIMl1bQ0gyXU80

> <s_epik_cmdline>
J2VwaWtfcHl0aG9uJywgJy1waCcsICc3LjAnLCAnLXRuJywgJzgnLCAnLW1hJywgJzIwMCcsICctbWV0YWxfYmluZGluZycsICctaW1hZScsICc8aW5maWxlLm1hZT4nLCAnLW9tYWUnLCAnPG91dGZpbGUubWFlPic=

> <r_lp_tautomer_probability>
1

> <r_epik_Ionization_Penalty>
0.00258048

> <r_epik_Ionization_Penalty_Charging>
0

> <r_epik_Ionization_Penalty_Neutral>
0.00258048

> <r_epik_State_Penalty>
0.00168551

> <r_epik_Charging_Adjusted_Penalty>
0.00168551

> <i_epik_Tot_Q>
0

> <i_epik_Tot_abs_Q>
0

> <r_epik_Metal_State_Penalty>
-0

> <b_epik_Metal_Only>
0

> <s_lp_Force_Field>
OPLS_2005

> <r_lp_Energy>
51.3027

> <b_lp_Chiralities_Consistent>
1

> <s_lp_Variant>
AV-unprocessed.smi:232-10

> <Gold.Version>
5.8.1

> <Gold.Id.Protein>
6NUR|6NUR_protein|mol2

> <Gold.PLP.Fitness>
52.6019

> <Gold.PLP.PLP>
-46.0189

> <Gold.PLP.part.hbond>
-3.0000

> <Gold.PLP.part.metal>
0.0000

> <Gold.PLP.part.buried>
-6.2116

> <Gold.PLP.part.nonpolar>
-36.5618

> <Gold.PLP.part.repulsive>
0.0000

> <Gold.PLP.ligand.clash>
0.0000

> <Gold.PLP.ligand.torsion>
0.9874

> <Gold.PLP.Chemscore.Hbond>
2.8080

> <Gold.PLP.Chemscore.CHOScore>
0.0000

> <Gold.PLP.Chemscore.Metal>
0.0000

> <Gold.Chemscore.Hbonds>
donor molecule, donor type, donor heavy atom, donor atom, acceptor molecule, acceptor atom, score
      P1  H  6896  6908       L1    12  1.00
      P1  H  6931  6943       L1    20  0.99
      P1  H  6934  6947       L1    20  0.77

> <Gold.PLP.Chemscore.Internal.Correction>
0.1337

> <Gold.Rescore>
     Score         DG    S(hbond)    S(metal)    S(lipo)     H(rot)  DE(clash)    DE(int)     intcor
     16.25     -19.17       2.29        0.00     104.69       2.43       0.04       2.88       ----

> <Gold.Chemscore.Fitness>
16.2451

> <Gold.Chemscore.DG>
-19.1673

> <Gold.Chemscore.ZeroCoef>
-5.4800

> <Gold.Chemscore.Hbond>
2.2902

> <Gold.Chemscore.Metal>
0.0000

> <Gold.Chemscore.Lipo>
104.6914

> <Gold.Chemscore.Internal_Hbond>
0.0000

> <Gold.Chemscore.DEClash>
0.0427

> <Gold.Chemscore.DEInternal>
2.8796

> <Gold.Chemscore.Rot>
2.4260

> <Gold.Chemscore.Internal.Correction>
   9.000000E+99

> <Gold.Chemscore.Hbonds>
donor molecule, donor type, donor heavy atom, donor atom, acceptor molecule, acceptor atom, score
      P1  H  6896  6908       L1    12  0.92
      P1  H  6931  6943       L1    20  0.62
      P1  H  6934  6947       L1    20  0.23

> <Gold.Chemscore.Hbond.Weighted>
-7.6491

> <Gold.Chemscore.Metal.Weighted>
-0.0000

> <Gold.Chemscore.Lipo.Weighted>
-12.2489

> <Gold.Chemscore.Internal_Hbond.Weighted>
0.0000

> <Gold.Chemscore.DEClash.Weighted>
0.0427

> <Gold.Chemscore.DEInternal.Weighted>
2.8796

> <Gold.Chemscore.Rot.Weighted>
6.2107

> <Gold.Chemscore.Internal.Correction.Weighted>
   9.000000E+99

> <Gold.Protein.RotatedTorsions>
[ 6907 6896 6895 6894 ] final -123.26 input  -60.11 | X-H torsion
[ 7974 7965 7964 7962 ] final  -43.67 input  175.53 | X-H torsion
[ 8008 7997 7996 7995 ] final -163.24 input   59.86 | X-H torsion
[ 10167 10162 10161 10158 ] final  -78.98 input  -65.29 | X-H torsion
[ 10718 10713 10712 10709 ] final -107.63 input   66.30 | X-H torsion
[ 10763 10752 10751 10750 ] final -131.25 input  -60.55 | X-H torsion
[ 11005 11000 10999 10996 ] final    8.75 input  -57.11 | X-H torsion

> <Gold.Protein.ActiveResidues>
 VAL166  LYS551  ARG553  GLY616  TRP617  ASP618  TYR619  PRO620  LYS621  CYS622 
 ASP623  PHE694  ASN695  SER759  ASP760  ASP761  ALA762  ILE779  LEU786  VAL792 
 PHE793  MET794  SER795  GLU796  ALA797  LYS798  CYS799  TRP800  GLU811  SER814 

> <Gold.Protein.RotatedAtoms>
  150.8654  133.7582  159.2978 H   0  0  0  0  0  0  0  0  0  0  0  0  # atno 6907 bound_to 6896
  151.5211  135.1065  159.9888 H   0  0  0  0  0  0  0  0  0  0  0  0  # atno 6908 bound_to 6896
  152.4657  133.7873  159.6939 H   0  0  0  0  0  0  0  0  0  0  0  0  # atno 6909 bound_to 6896
  145.9997  140.7089  142.9277 H   0  0  0  0  0  0  0  0  0  0  0  0  # atno 7974 bound_to 7965
  155.8185  140.0916  157.1863 H   0  0  0  0  0  0  0  0  0  0  0  0  # atno 8008 bound_to 7997
  154.3979  140.1441  156.3531 H   0  0  0  0  0  0  0  0  0  0  0  0  # atno 8009 bound_to 7997
  155.8291  140.3443  155.5563 H   0  0  0  0  0  0  0  0  0  0  0  0  # atno 8010 bound_to 7997
  140.4634  143.2447  151.8314 H   0  0  0  0  0  0  0  0  0  0  0  0  # atno 10167 bound_to 10162
  156.0446  130.5672  150.7848 H   0  0  0  0  0  0  0  0  0  0  0  0  # atno 10718 bound_to 10713
  154.8752  135.3836  154.4216 H   0  0  0  0  0  0  0  0  0  0  0  0  # atno 10763 bound_to 10752
  153.4919  135.7030  153.5884 H   0  0  0  0  0  0  0  0  0  0  0  0  # atno 10764 bound_to 10752
  153.4254  135.3891  155.2104 H   0  0  0  0  0  0  0  0  0  0  0  0  # atno 10765 bound_to 10752
  140.5335  134.0443  155.7881 H   0  0  0  0  0  0  0  0  0  0  0  0  # atno 11005 bound_to 11000
  144.6915  140.3211  143.7232 LP  0  0  0  0  0  0  0  0  0  0  0  0  # atno 17320 bound_to 7965
  145.7507  139.1793  143.2323 LP  0  0  0  0  0  0  0  0  0  0  0  0  # atno 17321 bound_to 7965
  139.4809  144.4980  151.9098 LP  0  0  0  0  0  0  0  0  0  0  0  0  # atno 17342 bound_to 10162
  140.4066  144.2424  150.5890 LP  0  0  0  0  0  0  0  0  0  0  0  0  # atno 17343 bound_to 10162
  157.5305  131.0936  150.9960 LP  0  0  0  0  0  0  0  0  0  0  0  0  # atno 17370 bound_to 10713
  157.0268  130.5695  149.5338 LP  0  0  0  0  0  0  0  0  0  0  0  0  # atno 17371 bound_to 10713
  141.1268  133.9370  157.2619 LP  0  0  0  0  0  0  0  0  0  0  0  0  # atno 17394 bound_to 11000
  139.9541  135.0169  156.9079 LP  0  0  0  0  0  0  0  0  0  0  0  0  # atno 17395 bound_to 11000

$$$$
