AV-unprocessed.smi:2331|AV-procd|sdf|9314|dock9
  -GOLD-   2272012533D 1   1.00000     0.00000
 Structure written by MMmdl.
 49 50  0  0  0  0  0  0  0  0  1 V2000
  150.1276  135.0235  156.7779 C   0  0  0  0  0  0  0  0  0  0  0  0
  149.5741  135.4377  155.3927 C   0  0  0  0  0  0  0  0  0  0  0  0
  150.0843  134.3931  154.3775 C   0  0  0  0  0  0  0  0  0  0  0  0
  148.0220  135.3800  155.4323 C   0  0  0  0  0  0  0  0  0  0  0  0
  147.4305  135.2170  154.1062 N   0  0  0  0  0  0  0  0  0  0  0  0
  146.4258  134.3860  153.7830 C   0  0  0  0  0  0  0  0  0  0  0  0
  145.9637  133.5619  154.5717 O   0  0  0  0  0  0  0  0  0  0  0  0
  146.0363  134.4940  152.4915 N   0  0  0  0  0  0  0  0  0  0  0  0
  146.0258  135.7777  151.7787 C   0  0  0  0  0  0  0  0  0  0  0  0
  144.8062  135.7307  150.8691 C   0  0  0  0  0  0  0  0  0  0  0  0
  144.6786  134.2556  150.5410 C   0  0  0  0  0  0  0  0  0  0  0  0
  145.1661  133.5176  151.8035 C   0  0  1  0  0  0  0  0  0  0  0  0
  145.8515  132.1468  151.4820 C   0  0  0  0  0  0  0  0  0  0  0  0
  146.4796  131.5095  152.7389 C   0  0  0  0  0  0  0  0  0  0  0  0
  144.9282  131.1397  150.7667 C   0  0  0  0  0  0  0  0  0  0  0  0
  146.9646  132.3823  150.6426 O   0  0  0  0  0  0  0  0  0  0  0  0
  150.0437  136.8431  154.9668 C   0  0  0  0  0  0  0  0  0  0  0  0
  151.4103  137.1795  154.8020 C   0  0  0  0  0  0  0  0  0  0  0  0
  151.7520  138.4971  154.4387 C   0  0  0  0  0  0  0  0  0  0  0  0
  150.8429  139.4721  154.2342 N   0  0  0  0  0  0  0  0  0  0  0  0
  149.5413  139.1556  154.3890 C   0  0  0  0  0  0  0  0  0  0  0  0
  149.0946  137.8699  154.7517 C   0  0  0  0  0  0  0  0  0  0  0  0
  149.7792  134.0293  157.0600 H   0  0  0  0  0  0  0  0  0  0  0  0
  149.8139  135.7037  157.5698 H   0  0  0  0  0  0  0  0  0  0  0  0
  151.2177  134.9931  156.7812 H   0  0  0  0  0  0  0  0  0  0  0  0
  149.7834  133.3844  154.6626 H   0  0  0  0  0  0  0  0  0  0  0  0
  151.1729  134.4039  154.3131 H   0  0  0  0  0  0  0  0  0  0  0  0
  149.6958  134.5695  153.3746 H   0  0  0  0  0  0  0  0  0  0  0  0
  147.6978  134.5213  156.0209 H   0  0  0  0  0  0  0  0  0  0  0  0
  147.6129  136.2532  155.9436 H   0  0  0  0  0  0  0  0  0  0  0  0
  147.7764  135.8302  153.3823 H   0  0  0  0  0  0  0  0  0  0  0  0
  145.9701  136.6438  152.4411 H   0  0  0  0  0  0  0  0  0  0  0  0
  146.9418  135.8598  151.1922 H   0  0  0  0  0  0  0  0  0  0  0  0
  143.9238  136.0650  151.4163 H   0  0  0  0  0  0  0  0  0  0  0  0
  144.9121  136.3573  149.9832 H   0  0  0  0  0  0  0  0  0  0  0  0
  143.6629  133.9784  150.2577 H   0  0  0  0  0  0  0  0  0  0  0  0
  145.3277  134.0404  149.6920 H   0  0  0  0  0  0  0  0  0  0  0  0
  144.2902  133.3467  152.4330 H   0  0  0  0  0  0  0  0  0  0  0  0
  145.7242  131.1865  153.4550 H   0  0  0  0  0  0  0  0  0  0  0  0
  147.1409  132.2100  153.2505 H   0  0  0  0  0  0  0  0  0  0  0  0
  147.0695  130.6272  152.4862 H   0  0  0  0  0  0  0  0  0  0  0  0
  144.0404  130.9229  151.3605 H   0  0  0  0  0  0  0  0  0  0  0  0
  145.4392  130.1932  150.5878 H   0  0  0  0  0  0  0  0  0  0  0  0
  144.5940  131.5101  149.7975 H   0  0  0  0  0  0  0  0  0  0  0  0
  147.4975  131.6024  150.6221 H   0  0  0  0  0  0  0  0  0  0  0  0
  152.2037  136.4641  154.9516 H   0  0  0  0  0  0  0  0  0  0  0  0
  152.7875  138.7759  154.3117 H   0  0  0  0  0  0  0  0  0  0  0  0
  148.8319  139.9527  154.2224 H   0  0  0  0  0  0  0  0  0  0  0  0
  148.0369  137.6864  154.8682 H   0  0  0  0  0  0  0  0  0  0  0  0
  1  2  1  0  0  0  0
  1 23  1  0  0  0  0
  1 24  1  0  0  0  0
  1 25  1  0  0  0  0
  2  3  1  0  0  0  0
  2  4  1  0  0  0  0
  2 17  1  0  0  0  0
  3 26  1  0  0  0  0
  3 27  1  0  0  0  0
  3 28  1  0  0  0  0
  4  5  1  0  0  0  0
  4 29  1  0  0  0  0
  4 30  1  0  0  0  0
  5  6  1  0  0  0  0
  5 31  1  0  0  0  0
  6  7  2  0  0  0  0
  6  8  1  0  0  0  0
  8 12  1  0  0  0  0
  8  9  1  0  0  0  0
  9 10  1  0  0  0  0
  9 32  1  0  0  0  0
  9 33  1  0  0  0  0
 10 11  1  0  0  0  0
 10 34  1  0  0  0  0
 10 35  1  0  0  0  0
 11 12  1  0  0  0  0
 11 36  1  0  0  0  0
 11 37  1  0  0  0  0
 12 13  1  0  0  0  0
 12 38  1  0  0  0  0
 13 14  1  0  0  0  0
 13 15  1  0  0  0  0
 13 16  1  0  0  0  0
 14 39  1  0  0  0  0
 14 40  1  0  0  0  0
 14 41  1  0  0  0  0
 15 42  1  0  0  0  0
 15 43  1  0  0  0  0
 15 44  1  0  0  0  0
 16 45  1  0  0  0  0
 17 22  1  0  0  0  0
 17 18  2  0  0  0  0
 18 19  1  0  0  0  0
 18 46  1  0  0  0  0
 19 20  2  0  0  0  0
 19 47  1  0  0  0  0
 20 21  1  0  0  0  0
 21 22  2  0  0  0  0
 21 48  1  0  0  0  0
 22 49  1  0  0  0  0
M  END
> <s_m_source_file>
AV-unprocessed.smi

> <i_m_source_file_index>
2331

> <i_lp_mmshare_version>
43012

> <i_f3d_flags>
0

> <s_epik_input>
W2NIXTFbY0hdbltjSF1bY0hdYzFDKFtDSDNdKShbQ0gzXSlbQ0gyXVtOSF1DKD1PKU4yW0NIMl1bQ0gyXVtDSDJdW0NASF0yQyhbQ0gzXSkoW0NIM10pW09IXQ==

> <s_epik_cmdline>
J2VwaWtfcHl0aG9uJywgJy1waCcsICc3LjAnLCAnLXRuJywgJzgnLCAnLW1hJywgJzIwMCcsICctbWV0YWxfYmluZGluZycsICctaW1hZScsICc8aW5maWxlLm1hZT4nLCAnLW9tYWUnLCAnPG91dGZpbGUubWFlPic=

> <r_epik_Ionization_Penalty>
0.0581496

> <r_epik_Ionization_Penalty_Charging>
0

> <r_epik_Ionization_Penalty_Neutral>
0.0581496

> <r_epik_State_Penalty>
0.0501956

> <r_epik_Charging_Adjusted_Penalty>
0.0501956

> <i_epik_Tot_Q>
0

> <i_epik_Tot_abs_Q>
0

> <r_epik_Metal_State_Penalty>
0.0456895

> <b_epik_Metal_Only>
0

> <s_lp_Force_Field>
OPLS_2005

> <r_lp_Energy>
47.1334

> <b_lp_Chiralities_Consistent>
1

> <s_lp_Variant>
AV-unprocessed.smi:2331-1

> <Gold.Version>
5.8.1

> <Gold.Id.Protein>
6NUR|6NUR_protein|mol2

> <Gold.PLP.Fitness>
41.6188

> <Gold.PLP.PLP>
-33.6188

> <Gold.PLP.part.hbond>
-2.9484

> <Gold.PLP.part.metal>
0.0000

> <Gold.PLP.part.buried>
-3.6023

> <Gold.PLP.part.nonpolar>
-26.7637

> <Gold.PLP.part.repulsive>
0.2307

> <Gold.PLP.ligand.clash>
0.0000

> <Gold.PLP.ligand.torsion>
0.7075

> <Gold.PLP.Chemscore.Hbond>
2.9920

> <Gold.PLP.Chemscore.CHOScore>
0.0000

> <Gold.PLP.Chemscore.Metal>
0.0000

> <Gold.Chemscore.Hbonds>
donor molecule, donor type, donor heavy atom, donor atom, acceptor molecule, acceptor atom, score
      L1  H     5    31       P1  7948  1.00
      L1  H    16    45       P1 10747  0.98
      P1  H  7989  7998       L1    20  1.00

> <Gold.PLP.Chemscore.Internal.Correction>
0.4390

> <Gold.Rescore>
     Score         DG    S(hbond)    S(metal)    S(lipo)     H(rot)  DE(clash)    DE(int)     intcor
     17.68     -20.99       2.85        0.00      93.58       1.94       1.28       2.03       ----

> <Gold.Chemscore.Fitness>
17.6778

> <Gold.Chemscore.DG>
-20.9897

> <Gold.Chemscore.ZeroCoef>
-5.4800

> <Gold.Chemscore.Hbond>
2.8485

> <Gold.Chemscore.Metal>
0.0000

> <Gold.Chemscore.Lipo>
93.5830

> <Gold.Chemscore.Internal_Hbond>
0.0000

> <Gold.Chemscore.DEClash>
1.2828

> <Gold.Chemscore.DEInternal>
2.0290

> <Gold.Chemscore.Rot>
1.9350

> <Gold.Chemscore.Internal.Correction>
   9.000000E+99

> <Gold.Chemscore.Hbonds>
donor molecule, donor type, donor heavy atom, donor atom, acceptor molecule, acceptor atom, score
      L1  H     5    31       P1  7948  0.94
      L1  H    16    45       P1 10747  0.93
      P1  H  7989  7998       L1    20  0.70

> <Gold.Chemscore.Hbond.Weighted>
-9.5141

> <Gold.Chemscore.Metal.Weighted>
-0.0000

> <Gold.Chemscore.Lipo.Weighted>
-10.9492

> <Gold.Chemscore.Internal_Hbond.Weighted>
0.0000

> <Gold.Chemscore.DEClash.Weighted>
1.2828

> <Gold.Chemscore.DEInternal.Weighted>
2.0290

> <Gold.Chemscore.Rot.Weighted>
4.9536

> <Gold.Chemscore.Internal.Correction.Weighted>
   9.000000E+99

> <Gold.Protein.RotatedTorsions>
[ 6907 6896 6895 6894 ] final  -40.00 input  -60.11 | X-H torsion
[ 7974 7965 7964 7962 ] final  -87.36 input  175.53 | X-H torsion
[ 8008 7997 7996 7995 ] final  -86.14 input   59.86 | X-H torsion
[ 10167 10162 10161 10158 ] final   56.28 input  -65.29 | X-H torsion
[ 10718 10713 10712 10709 ] final   -0.36 input   66.30 | X-H torsion
[ 10763 10752 10751 10750 ] final   -6.41 input  -60.55 | X-H torsion
[ 11005 11000 10999 10996 ] final -103.52 input  -57.11 | X-H torsion

> <Gold.Protein.ActiveResidues>
 VAL166  LYS551  ARG553  GLY616  TRP617  ASP618  TYR619  PRO620  LYS621  CYS622 
 ASP623  PHE694  ASN695  SER759  ASP760  ASP761  ALA762  ILE779  LEU786  VAL792 
 PHE793  MET794  SER795  GLU796  ALA797  LYS798  CYS799  TRP800  GLU811  SER814 

> <Gold.Protein.RotatedAtoms>
  150.9837  134.9187  159.7858 H   0  0  0  0  0  0  0  0  0  0  0  0  # atno 6907 bound_to 6896
  152.5230  134.3376  159.9215 H   0  0  0  0  0  0  0  0  0  0  0  0  # atno 6908 bound_to 6896
  151.3383  133.3932  159.2703 H   0  0  0  0  0  0  0  0  0  0  0  0  # atno 6909 bound_to 6896
  145.4676  140.9560  143.1935 H   0  0  0  0  0  0  0  0  0  0  0  0  # atno 7974 bound_to 7965
  154.6486  140.0582  156.9929 H   0  0  0  0  0  0  0  0  0  0  0  0  # atno 8008 bound_to 7997
  155.1406  140.3265  155.4434 H   0  0  0  0  0  0  0  0  0  0  0  0  # atno 8009 bound_to 7997
  156.2565  140.1964  156.6522 H   0  0  0  0  0  0  0  0  0  0  0  0  # atno 8010 bound_to 7997
  140.2104  144.3895  150.6491 H   0  0  0  0  0  0  0  0  0  0  0  0  # atno 10167 bound_to 10162
  156.8216  130.5458  149.5696 H   0  0  0  0  0  0  0  0  0  0  0  0  # atno 10718 bound_to 10713
  153.4120  135.7008  153.6353 H   0  0  0  0  0  0  0  0  0  0  0  0  # atno 10763 bound_to 10752
  153.4843  135.3687  155.2459 H   0  0  0  0  0  0  0  0  0  0  0  0  # atno 10764 bound_to 10752
  154.8717  135.4073  154.3473 H   0  0  0  0  0  0  0  0  0  0  0  0  # atno 10765 bound_to 10752
  141.1142  133.8647  157.1496 H   0  0  0  0  0  0  0  0  0  0  0  0  # atno 11005 bound_to 11000
  144.7965  139.6225  143.7090 LP  0  0  0  0  0  0  0  0  0  0  0  0  # atno 17320 bound_to 7965
  146.2415  139.6011  142.9488 LP  0  0  0  0  0  0  0  0  0  0  0  0  # atno 17321 bound_to 7965
  140.6327  143.2190  151.6460 LP  0  0  0  0  0  0  0  0  0  0  0  0  # atno 17342 bound_to 10162
  139.5182  144.3291  152.0842 LP  0  0  0  0  0  0  0  0  0  0  0  0  # atno 17343 bound_to 10162
  156.0985  130.5951  150.9855 LP  0  0  0  0  0  0  0  0  0  0  0  0  # atno 17370 bound_to 10713
  157.6454  131.0905  150.8165 LP  0  0  0  0  0  0  0  0  0  0  0  0  # atno 17371 bound_to 10713
  140.0054  135.0011  157.0280 LP  0  0  0  0  0  0  0  0  0  0  0  0  # atno 17394 bound_to 11000
  140.4692  134.1404  155.7201 LP  0  0  0  0  0  0  0  0  0  0  0  0  # atno 17395 bound_to 11000

$$$$
