AV-unprocessed.smi:1208|AV-procd|sdf|5068|dock1
  -GOLD-   22720 4113D 1   1.00000     0.00000
 Structure written by MMmdl.
 36 37  0  0  0  0  0  0  0  0  1 V2000
  153.6885  140.7263  161.0028 C   0  0  0  0  0  0  0  0  0  0  0  0
  153.2266  141.4037  159.7032 C   0  0  1  0  0  0  0  0  0  0  0  0
  151.9365  140.8352  159.3194 N   0  0  0  0  0  0  0  0  0  0  0  0
  151.6565  140.2535  158.1428 C   0  0  0  0  0  0  0  0  0  0  0  0
  152.4837  140.1282  157.2383 O   0  0  0  0  0  0  0  0  0  0  0  0
  150.2145  139.7506  157.9761 C   0  0  0  0  0  0  0  0  0  0  0  0
  149.6110  140.1072  156.6837 N   0  0  0  0  0  0  0  0  0  0  0  0
  149.9427  139.2450  155.6494 N   0  0  0  0  0  0  0  0  0  0  0  0
  149.4602  139.4385  154.4688 C   0  0  0  0  0  0  0  0  0  0  0  0
  149.8118  138.5580  153.4755 O   0  0  0  0  0  0  0  0  0  0  0  0
  148.5750  140.5488  154.1945 C   0  0  0  0  0  0  0  0  0  0  0  0
  148.2598  141.3851  155.2077 C   0  0  0  0  0  0  0  0  0  0  0  0
  148.7873  141.1932  156.5600 C   0  0  0  0  0  0  0  0  0  0  0  0
  148.5138  141.9369  157.5019 O   0  0  0  0  0  0  0  0  0  0  0  0
  153.1062  142.9355  159.8524 C   0  0  1  0  0  0  0  0  0  0  0  0
  152.6058  143.6631  158.6047 C   0  0  0  0  0  0  0  0  0  0  0  0
  152.0355  144.9587  159.1572 C   0  0  0  0  0  0  0  0  0  0  0  0
  151.8040  144.6591  160.6406 C   0  0  0  0  0  0  0  0  0  0  0  0
  152.1057  143.2797  160.7993 O   0  0  0  0  0  0  0  0  0  0  0  0
  150.0106  139.0950  152.7240 H   0  0  0  0  0  0  0  0  0  0  0  0
  154.6775  141.0726  161.3030 H   0  0  0  0  0  0  0  0  0  0  0  0
  153.7490  139.6445  160.8806 H   0  0  0  0  0  0  0  0  0  0  0  0
  153.0007  140.9307  161.8242 H   0  0  0  0  0  0  0  0  0  0  0  0
  153.9673  141.1797  158.9333 H   0  0  0  0  0  0  0  0  0  0  0  0
  151.1945  140.8974  160.0011 H   0  0  0  0  0  0  0  0  0  0  0  0
  150.1978  138.6688  158.1195 H   0  0  0  0  0  0  0  0  0  0  0  0
  149.6126  140.1600  158.7894 H   0  0  0  0  0  0  0  0  0  0  0  0
  148.1802  140.6971  153.2002 H   0  0  0  0  0  0  0  0  0  0  0  0
  147.5995  142.2182  155.0172 H   0  0  0  0  0  0  0  0  0  0  0  0
  154.0577  143.3639  160.1739 H   0  0  0  0  0  0  0  0  0  0  0  0
  153.3909  143.8291  157.8666 H   0  0  0  0  0  0  0  0  0  0  0  0
  151.8104  143.0882  158.1284 H   0  0  0  0  0  0  0  0  0  0  0  0
  152.7442  145.7797  159.0426 H   0  0  0  0  0  0  0  0  0  0  0  0
  151.1134  145.2361  158.6455 H   0  0  0  0  0  0  0  0  0  0  0  0
  152.4788  145.2497  161.2616 H   0  0  0  0  0  0  0  0  0  0  0  0
  150.7812  144.8690  160.9541 H   0  0  0  0  0  0  0  0  0  0  0  0
  1  2  1  0  0  0  0
  1 21  1  0  0  0  0
  1 22  1  0  0  0  0
  1 23  1  0  0  0  0
  2  3  1  0  0  0  0
  2 15  1  0  0  0  0
  2 24  1  0  0  0  0
  3  4  1  0  0  0  0
  3 25  1  0  0  0  0
  4  5  2  0  0  0  0
  4  6  1  0  0  0  0
  6 26  1  0  0  0  0
  6 27  1  0  0  0  0
  6  7  1  0  0  0  0
  7  8  1  0  0  0  0
  7 13  1  0  0  0  0
  8  9  2  0  0  0  0
  9 10  1  0  0  0  0
  9 11  1  0  0  0  0
 10 20  1  0  0  0  0
 11 28  1  0  0  0  0
 11 12  2  0  0  0  0
 12 29  1  0  0  0  0
 12 13  1  0  0  0  0
 13 14  2  0  0  0  0
 15 19  1  0  0  0  0
 15 16  1  0  0  0  0
 15 30  1  0  0  0  0
 16 17  1  0  0  0  0
 16 31  1  0  0  0  0
 16 32  1  0  0  0  0
 17 18  1  0  0  0  0
 17 33  1  0  0  0  0
 17 34  1  0  0  0  0
 18 19  1  0  0  0  0
 18 35  1  0  0  0  0
 18 36  1  0  0  0  0
M  END
> <s_m_source_file>
AV-unprocessed.smi

> <i_m_source_file_index>
1208

> <i_lp_mmshare_version>
43012

> <i_f3d_flags>
0

> <s_epik_input>
TzFbQ0gyXVtDSDJdW0NIMl1bQ0BIXTFbQ0BIXShbQ0gzXSlbTkhdQyg9TylbQ0gyXW4yW25IXWMoPU8pW2NIXVtjSF1jMj1P

> <s_epik_cmdline>
J2VwaWtfcHl0aG9uJywgJy1waCcsICc3LjAnLCAnLXRuJywgJzgnLCAnLW1hJywgJzIwMCcsICctbWV0YWxfYmluZGluZycsICctaW1hZScsICc8aW5maWxlLm1hZT4nLCAnLW9tYWUnLCAnPG91dGZpbGUubWFlPic=

> <r_lp_tautomer_probability>
0.9996

> <r_epik_Ionization_Penalty>
2.12735

> <r_epik_Ionization_Penalty_Charging>
3.86665e-08

> <r_epik_Ionization_Penalty_Neutral>
2.12735

> <r_epik_State_Penalty>
1.70441

> <r_epik_Charging_Adjusted_Penalty>
1.70441

> <i_epik_Tot_Q>
0

> <i_epik_Tot_abs_Q>
0

> <r_epik_Metal_State_Penalty>
1.70441

> <b_epik_Metal_Only>
0

> <s_lp_Force_Field>
OPLS_2005

> <r_lp_Energy>
29.9915

> <b_lp_Chiralities_Consistent>
1

> <s_lp_Variant>
AV-unprocessed.smi:1208-8

> <Gold.Version>
5.8.1

> <Gold.Id.Protein>
6NUR|6NUR_protein|mol2

> <Gold.PLP.Fitness>
44.2422

> <Gold.PLP.PLP>
-39.2850

> <Gold.PLP.part.hbond>
-3.0000

> <Gold.PLP.part.metal>
0.0000

> <Gold.PLP.part.buried>
-4.7442

> <Gold.PLP.part.nonpolar>
-31.8131

> <Gold.PLP.part.repulsive>
0.3889

> <Gold.PLP.ligand.clash>
0.0000

> <Gold.PLP.ligand.torsion>
0.5378

> <Gold.PLP.Chemscore.Hbond>
2.0000

> <Gold.PLP.Chemscore.CHOScore>
0.0000

> <Gold.PLP.Chemscore.Metal>
0.0000

> <Gold.Chemscore.Hbonds>
donor molecule, donor type, donor heavy atom, donor atom, acceptor molecule, acceptor atom, score
      L1  H    10    20       P1  7957  1.00
      P1  H  7997  8010       L1     5  1.00

> <Gold.PLP.Chemscore.Internal.Correction>
0.0328

> <Gold.Rescore>
     Score         DG    S(hbond)    S(metal)    S(lipo)     H(rot)  DE(clash)    DE(int)     intcor
     14.70     -15.20       1.98        0.00      84.01       2.63       0.05       0.45       ----

> <Gold.Chemscore.Fitness>
14.6996

> <Gold.Chemscore.DG>
-15.2024

> <Gold.Chemscore.ZeroCoef>
-5.4800

> <Gold.Chemscore.Hbond>
1.9810

> <Gold.Chemscore.Metal>
0.0000

> <Gold.Chemscore.Lipo>
84.0139

> <Gold.Chemscore.Internal_Hbond>
0.0000

> <Gold.Chemscore.DEClash>
0.0484

> <Gold.Chemscore.DEInternal>
0.4545

> <Gold.Chemscore.Rot>
2.6264

> <Gold.Chemscore.Internal.Correction>
   9.000000E+99

> <Gold.Chemscore.Hbonds>
donor molecule, donor type, donor heavy atom, donor atom, acceptor molecule, acceptor atom, score
      L1  H    10    20       P1  7957  0.77
      P1  H  7997  8010       L1     5  0.92

> <Gold.Chemscore.Hbond.Weighted>
-6.6165

> <Gold.Chemscore.Metal.Weighted>
-0.0000

> <Gold.Chemscore.Lipo.Weighted>
-9.8296

> <Gold.Chemscore.Internal_Hbond.Weighted>
0.0000

> <Gold.Chemscore.DEClash.Weighted>
0.0484

> <Gold.Chemscore.DEInternal.Weighted>
0.4545

> <Gold.Chemscore.Rot.Weighted>
6.7237

> <Gold.Chemscore.Internal.Correction.Weighted>
   9.000000E+99

> <Gold.Protein.RotatedTorsions>
[ 6907 6896 6895 6894 ] final  -55.55 input  -60.11 | X-H torsion
[ 7974 7965 7964 7962 ] final -147.22 input  175.53 | X-H torsion
[ 8008 7997 7996 7995 ] final   67.88 input   59.86 | X-H torsion
[ 10167 10162 10161 10158 ] final -104.58 input  -65.29 | X-H torsion
[ 10718 10713 10712 10709 ] final  -18.21 input   66.30 | X-H torsion
[ 10763 10752 10751 10750 ] final -115.91 input  -60.55 | X-H torsion
[ 11005 11000 10999 10996 ] final   33.15 input  -57.11 | X-H torsion

> <Gold.Protein.ActiveResidues>
 VAL166  LYS551  ARG553  GLY616  TRP617  ASP618  TYR619  PRO620  LYS621  CYS622 
 ASP623  PHE694  ASN695  SER759  ASP760  ASP761  ALA762  ILE779  LEU786  VAL792 
 PHE793  MET794  SER795  GLU796  ALA797  LYS798  CYS799  TRP800  GLU811  SER814 

> <Gold.Protein.RotatedAtoms>
  150.8242  134.7465  159.6798 H   0  0  0  0  0  0  0  0  0  0  0  0  # atno 6907 bound_to 6896
  152.4355  134.5691  159.9926 H   0  0  0  0  0  0  0  0  0  0  0  0  # atno 6908 bound_to 6896
  151.5868  133.3333  159.3055 H   0  0  0  0  0  0  0  0  0  0  0  0  # atno 6909 bound_to 6896
  144.8107  140.5354  143.5644 H   0  0  0  0  0  0  0  0  0  0  0  0  # atno 7974 bound_to 7965
  155.6997  140.3495  155.4928 H   0  0  0  0  0  0  0  0  0  0  0  0  # atno 8008 bound_to 7997
  155.9451  140.1109  157.1045 H   0  0  0  0  0  0  0  0  0  0  0  0  # atno 8009 bound_to 7997
  154.4110  140.1205  156.4965 H   0  0  0  0  0  0  0  0  0  0  0  0  # atno 8010 bound_to 7997
  140.2077  143.3770  152.1076 H   0  0  0  0  0  0  0  0  0  0  0  0  # atno 10167 bound_to 10162
  156.5627  130.4729  149.6399 H   0  0  0  0  0  0  0  0  0  0  0  0  # atno 10718 bound_to 10713
  154.8499  135.4364  154.1737 H   0  0  0  0  0  0  0  0  0  0  0  0  # atno 10763 bound_to 10752
  153.2844  135.6956  153.7359 H   0  0  0  0  0  0  0  0  0  0  0  0  # atno 10764 bound_to 10752
  153.6551  135.3444  155.3086 H   0  0  0  0  0  0  0  0  0  0  0  0  # atno 10765 bound_to 10752
  140.2661  134.3136  155.7842 H   0  0  0  0  0  0  0  0  0  0  0  0  # atno 11005 bound_to 11000
  145.5330  139.1475  143.3489 LP  0  0  0  0  0  0  0  0  0  0  0  0  # atno 17320 bound_to 7965
  146.2405  140.5470  142.8936 LP  0  0  0  0  0  0  0  0  0  0  0  0  # atno 17321 bound_to 7965
  139.5192  144.7016  151.5476 LP  0  0  0  0  0  0  0  0  0  0  0  0  # atno 17342 bound_to 10162
  140.6345  143.9010  150.6635 LP  0  0  0  0  0  0  0  0  0  0  0  0  # atno 17343 bound_to 10162
  156.2784  130.7057  151.1874 LP  0  0  0  0  0  0  0  0  0  0  0  0  # atno 17370 bound_to 10713
  157.7365  131.0561  150.5410 LP  0  0  0  0  0  0  0  0  0  0  0  0  # atno 17371 bound_to 10713
  141.2184  133.7438  156.9262 LP  0  0  0  0  0  0  0  0  0  0  0  0  # atno 17394 bound_to 11000
  140.1418  134.9289  157.2476 LP  0  0  0  0  0  0  0  0  0  0  0  0  # atno 17395 bound_to 11000

$$$$
