AV-unprocessed.smi:1417|AV-procd|sdf|5767|dock5
  -GOLD-   22720 5403D 1   1.00000     0.00000
 Structure written by MMmdl.
 40 41  0  0  0  0  0  0  0  0  2 V2000
  150.6569  141.8221  156.0808 C   0  0  0  0  0  0  0  0  0  0  0  0
  150.3580  140.5171  155.4261 C   0  0  0  0  0  0  0  0  0  0  0  0
  149.1969  139.8320  155.2039 C   0  0  0  0  0  0  0  0  0  0  0  0
  149.6428  138.6598  154.5266 C   0  0  0  0  0  0  0  0  0  0  0  0
  148.8288  137.5947  154.0623 N   0  0  0  0  0  0  0  0  0  0  0  0
  147.7478  137.0528  154.6476 C   0  0  0  0  0  0  0  0  0  0  0  0
  147.2637  137.4076  155.7220 O   0  0  0  0  0  0  0  0  0  0  0  0
  147.2461  136.0536  153.9068 N   0  0  0  0  0  0  0  0  0  0  0  0
  146.0670  135.2570  154.2456 C   0  0  2  0  0  0  0  0  0  0  0  0
  146.1558  133.8275  153.6744 C   0  0  0  0  0  0  0  0  0  0  0  0
  146.0117  133.8096  152.1426 C   0  0  0  0  0  0  0  0  0  0  0  0
  144.7462  134.4648  151.7170 N   0  3  2  0  0  0  0  0  0  0  0  0
  144.4921  134.3491  150.2575 C   0  0  0  0  0  0  0  0  0  0  0  0
  143.9851  132.9633  149.8444 C   0  0  0  0  0  0  0  0  0  0  0  0
  142.7024  132.8733  149.4853 N   0  0  0  0  0  0  0  0  0  0  0  0
  144.7303  131.9852  149.8624 O   0  0  0  0  0  0  0  0  0  0  0  0
  144.6700  135.8685  152.1965 C   0  0  0  0  0  0  0  0  0  0  0  0
  144.7893  135.9419  153.7300 C   0  0  0  0  0  0  0  0  0  0  0  0
  150.9519  138.6362  154.3582 N   0  0  0  0  0  0  0  0  0  0  0  0
  151.4190  139.8248  154.9313 O   0  0  0  0  0  0  0  0  0  0  0  0
  149.7615  142.2419  156.5395 H   0  0  0  0  0  0  0  0  0  0  0  0
  151.0335  142.5414  155.3534 H   0  0  0  0  0  0  0  0  0  0  0  0
  151.4102  141.7010  156.8594 H   0  0  0  0  0  0  0  0  0  0  0  0
  148.2006  140.1366  155.4869 H   0  0  0  0  0  0  0  0  0  0  0  0
  149.1031  137.2019  153.1740 H   0  0  0  0  0  0  0  0  0  0  0  0
  147.7061  135.8375  153.0346 H   0  0  0  0  0  0  0  0  0  0  0  0
  146.0036  135.1985  155.3339 H   0  0  0  0  0  0  0  0  0  0  0  0
  147.0923  133.3519  153.9675 H   0  0  0  0  0  0  0  0  0  0  0  0
  145.3626  133.2192  154.1113 H   0  0  0  0  0  0  0  0  0  0  0  0
  146.8602  134.3134  151.6775 H   0  0  0  0  0  0  0  0  0  0  0  0
  146.0346  132.7761  151.7965 H   0  0  0  0  0  0  0  0  0  0  0  0
  143.7214  135.0621  149.9617 H   0  0  0  0  0  0  0  0  0  0  0  0
  145.3922  134.6108  149.6988 H   0  0  0  0  0  0  0  0  0  0  0  0
  142.3143  131.9858  149.1994 H   0  0  0  0  0  0  0  0  0  0  0  0
  142.1208  133.6994  149.4967 H   0  0  0  0  0  0  0  0  0  0  0  0
  145.4558  136.4593  151.7234 H   0  0  0  0  0  0  0  0  0  0  0  0
  143.7192  136.3090  151.8943 H   0  0  0  0  0  0  0  0  0  0  0  0
  143.9199  135.4564  154.1760 H   0  0  0  0  0  0  0  0  0  0  0  0
  144.7567  136.9811  154.0598 H   0  0  0  0  0  0  0  0  0  0  0  0
  143.9918  133.9689  152.1711 H   0  0  0  0  0  0  0  0  0  0  0  0
  1  2  1  0  0  0  0
  1 21  1  0  0  0  0
  1 22  1  0  0  0  0
  1 23  1  0  0  0  0
  2 20  1  0  0  0  0
  2  3  2  0  0  0  0
  3  4  1  0  0  0  0
  3 24  1  0  0  0  0
  4  5  1  0  0  0  0
  4 19  2  0  0  0  0
  5  6  1  0  0  0  0
  5 25  1  0  0  0  0
  6  7  2  0  0  0  0
  6  8  1  0  0  0  0
  8  9  1  0  0  0  0
  8 26  1  0  0  0  0
  9 18  1  0  0  0  0
  9 10  1  0  0  0  0
  9 27  1  0  0  0  0
 10 11  1  0  0  0  0
 10 28  1  0  0  0  0
 10 29  1  0  0  0  0
 11 12  1  0  0  0  0
 11 30  1  0  0  0  0
 11 31  1  0  0  0  0
 12 13  1  0  0  0  0
 12 17  1  0  0  0  0
 12 40  1  0  0  0  0
 13 14  1  0  0  0  0
 13 32  1  0  0  0  0
 13 33  1  0  0  0  0
 14 15  1  0  0  0  0
 14 16  2  0  0  0  0
 15 34  1  0  0  0  0
 15 35  1  0  0  0  0
 17 18  1  0  0  0  0
 17 36  1  0  0  0  0
 17 37  1  0  0  0  0
 18 38  1  0  0  0  0
 18 39  1  0  0  0  0
 19 20  1  0  0  0  0
M  CHG  1  12   1
M  END
> <s_m_source_file>
AV-unprocessed.smi

> <i_m_source_file_index>
1417

> <i_lp_mmshare_version>
43012

> <i_f3d_flags>
0

> <s_epik_input>
W0NIM11jMVtjSF1jKG5vMSlbTkhdQyg9TylbTkhdW0NIXTJbQ0gyXVtDSDJdTihbQ0gyXVtDSDJdMilbQ0gyXUMoPU8pW05IMl0=

> <s_epik_cmdline>
J2VwaWtfcHl0aG9uJywgJy1waCcsICc3LjAnLCAnLXRuJywgJzgnLCAnLW1hJywgJzIwMCcsICctbWV0YWxfYmluZGluZycsICctaW1hZScsICc8aW5maWxlLm1hZT4nLCAnLW9tYWUnLCAnPG91dGZpbGUubWFlPic=

> <r_epik_Ionization_Penalty>
0.867698

> <r_epik_Ionization_Penalty_Charging>
0.867623

> <r_epik_Ionization_Penalty_Neutral>
7.46743e-05

> <r_epik_State_Penalty>
0.904669

> <r_epik_Charging_Adjusted_Penalty>
1.77229

> <i_epik_Tot_Q>
1

> <i_epik_Tot_abs_Q>
1

> <r_epik_Metal_State_Penalty>
0.930696

> <b_epik_Metal_Only>
0

> <s_lp_Force_Field>
OPLS_2005

> <r_lp_Energy>
12.5471

> <b_lp_Chiralities_Consistent>
1

> <s_lp_Variant>
AV-unprocessed.smi:1417-3

> <Gold.Version>
5.8.1

> <Gold.Id.Protein>
6NUR|6NUR_protein|mol2

> <Gold.PLP.Fitness>
39.4853

> <Gold.PLP.PLP>
-26.4431

> <Gold.PLP.part.hbond>
-5.0029

> <Gold.PLP.part.metal>
0.0000

> <Gold.PLP.part.buried>
-6.0384

> <Gold.PLP.part.nonpolar>
-16.3274

> <Gold.PLP.part.repulsive>
0.5171

> <Gold.PLP.ligand.clash>
0.0000

> <Gold.PLP.ligand.torsion>
0.9746

> <Gold.PLP.Chemscore.Hbond>
4.9840

> <Gold.PLP.Chemscore.CHOScore>
0.0000

> <Gold.PLP.Chemscore.Metal>
0.0000

> <Gold.Chemscore.Hbonds>
donor molecule, donor type, donor heavy atom, donor atom, acceptor molecule, acceptor atom, score
      L1  H     5    25       P1  7948  1.00
      L1  H     8    26       P1  7948  0.99
      L1  H    15    34       P1 10952  0.45
      L1  H    15    35       P1 10186  0.49
      P1  H  7989  7998       L1    20  0.80

> <Gold.PLP.Chemscore.Internal.Correction>
0.0394

> <Gold.Rescore>
     Score         DG    S(hbond)    S(metal)    S(lipo)     H(rot)  DE(clash)    DE(int)     intcor
     17.21     -18.21       4.03        0.00      38.52       2.05       0.09       0.92       ----

> <Gold.Chemscore.Fitness>
17.2098

> <Gold.Chemscore.DG>
-18.2115

> <Gold.Chemscore.ZeroCoef>
-5.4800

> <Gold.Chemscore.Hbond>
4.0306

> <Gold.Chemscore.Metal>
0.0000

> <Gold.Chemscore.Lipo>
38.5174

> <Gold.Chemscore.Internal_Hbond>
0.0000

> <Gold.Chemscore.DEClash>
0.0859

> <Gold.Chemscore.DEInternal>
0.9159

> <Gold.Chemscore.Rot>
2.0457

> <Gold.Chemscore.Internal.Correction>
   9.000000E+99

> <Gold.Chemscore.Hbonds>
donor molecule, donor type, donor heavy atom, donor atom, acceptor molecule, acceptor atom, score
      L1  H     5    25       P1  7948  0.98
      L1  H     8    26       P1  7948  0.93
      L1  H    15    34       P1 10952  0.44
      L1  H    15    35       P1 10186  0.47
      P1  H  7989  7998       L1    20  0.04

> <Gold.Chemscore.Hbond.Weighted>
-13.4621

> <Gold.Chemscore.Metal.Weighted>
-0.0000

> <Gold.Chemscore.Lipo.Weighted>
-4.5065

> <Gold.Chemscore.Internal_Hbond.Weighted>
0.0000

> <Gold.Chemscore.DEClash.Weighted>
0.0859

> <Gold.Chemscore.DEInternal.Weighted>
0.9159

> <Gold.Chemscore.Rot.Weighted>
5.2371

> <Gold.Chemscore.Internal.Correction.Weighted>
   9.000000E+99

> <Gold.Protein.RotatedTorsions>
[ 6907 6896 6895 6894 ] final  173.31 input  -60.11 | X-H torsion
[ 7974 7965 7964 7962 ] final -100.62 input  175.53 | X-H torsion
[ 8008 7997 7996 7995 ] final  -13.97 input   59.86 | X-H torsion
[ 10167 10162 10161 10158 ] final   58.22 input  -65.29 | X-H torsion
[ 10718 10713 10712 10709 ] final  -81.99 input   66.30 | X-H torsion
[ 10763 10752 10751 10750 ] final -117.30 input  -60.55 | X-H torsion
[ 11005 11000 10999 10996 ] final -121.49 input  -57.11 | X-H torsion

> <Gold.Protein.ActiveResidues>
 VAL166  LYS551  ARG553  GLY616  TRP617  ASP618  TYR619  PRO620  LYS621  CYS622 
 ASP623  PHE694  ASN695  SER759  ASP760  ASP761  ALA762  ILE779  LEU786  VAL792 
 PHE793  MET794  SER795  GLU796  ALA797  LYS798  CYS799  TRP800  GLU811  SER814 

> <Gold.Protein.RotatedAtoms>
  151.7704  133.3340  159.3442 H   0  0  0  0  0  0  0  0  0  0  0  0  # atno 6907 bound_to 6896
  150.7464  134.6024  159.6053 H   0  0  0  0  0  0  0  0  0  0  0  0  # atno 6908 bound_to 6896
  152.3345  134.7218  160.0332 H   0  0  0  0  0  0  0  0  0  0  0  0  # atno 6909 bound_to 6896
  145.2922  140.9355  143.2871 H   0  0  0  0  0  0  0  0  0  0  0  0  # atno 7974 bound_to 7965
  154.5248  140.2235  155.8909 H   0  0  0  0  0  0  0  0  0  0  0  0  # atno 8008 bound_to 7997
  156.1701  140.3123  155.8924 H   0  0  0  0  0  0  0  0  0  0  0  0  # atno 8009 bound_to 7997
  155.3574  140.0459  157.3037 H   0  0  0  0  0  0  0  0  0  0  0  0  # atno 8010 bound_to 7997
  140.1896  144.4099  150.6577 H   0  0  0  0  0  0  0  0  0  0  0  0  # atno 10167 bound_to 10162
  156.0040  130.4620  150.4036 H   0  0  0  0  0  0  0  0  0  0  0  0  # atno 10718 bound_to 10713
  154.8550  135.4315  154.1957 H   0  0  0  0  0  0  0  0  0  0  0  0  # atno 10763 bound_to 10752
  153.3015  135.6969  153.7204 H   0  0  0  0  0  0  0  0  0  0  0  0  # atno 10764 bound_to 10752
  153.6332  135.3481  155.3023 H   0  0  0  0  0  0  0  0  0  0  0  0  # atno 10765 bound_to 10752
  141.0066  134.0326  157.3469 H   0  0  0  0  0  0  0  0  0  0  0  0  # atno 11005 bound_to 11000
  144.9163  139.4466  143.6562 LP  0  0  0  0  0  0  0  0  0  0  0  0  # atno 17320 bound_to 7965
  146.3181  139.7999  142.8967 LP  0  0  0  0  0  0  0  0  0  0  0  0  # atno 17321 bound_to 7965
  140.6465  143.2214  151.6174 LP  0  0  0  0  0  0  0  0  0  0  0  0  # atno 17342 bound_to 10162
  139.5261  144.3054  152.1038 LP  0  0  0  0  0  0  0  0  0  0  0  0  # atno 17343 bound_to 10162
  157.2104  131.0459  151.2602 LP  0  0  0  0  0  0  0  0  0  0  0  0  # atno 17370 bound_to 10713
  157.3894  130.7274  149.6686 LP  0  0  0  0  0  0  0  0  0  0  0  0  # atno 17371 bound_to 10713
  139.9067  135.0181  156.7515 LP  0  0  0  0  0  0  0  0  0  0  0  0  # atno 17394 bound_to 11000
  140.6803  133.9481  155.7906 LP  0  0  0  0  0  0  0  0  0  0  0  0  # atno 17395 bound_to 11000

$$$$
