AV-unprocessed.smi:1129|AV-procd|sdf|4846|dock1
  -GOLD-   22720 3413D 1   1.00000     0.00000
 Structure written by MMmdl.
 40 41  0  0  0  0  0  0  0  0  1 V2000
  148.6448  127.1707  150.5002 C   0  0  0  0  0  0  0  0  0  0  0  0
  147.9313  127.7983  151.5511 O   0  0  0  0  0  0  0  0  0  0  0  0
  148.7835  128.4878  152.4503 C   0  0  0  0  0  0  0  0  0  0  0  0
  148.0947  128.5896  153.8139 C   0  0  0  0  0  0  0  0  0  0  0  0
  148.9815  129.2289  154.7270 O   0  0  0  0  0  0  0  0  0  0  0  0
  149.1393  130.5971  154.6442 C   0  0  0  0  0  0  0  0  0  0  0  0
  150.1395  131.2077  155.4262 C   0  0  0  0  0  0  0  0  0  0  0  0
  150.3071  132.6028  155.3434 C   0  0  0  0  0  0  0  0  0  0  0  0
  149.4804  133.3457  154.4768 C   0  0  0  0  0  0  0  0  0  0  0  0
  149.6664  134.7537  154.4246 N   0  0  0  0  0  0  0  0  0  0  0  0
  150.5405  135.5132  155.1109 C   0  0  0  0  0  0  0  0  0  0  0  0
  151.3469  135.0795  155.9334 O   0  0  0  0  0  0  0  0  0  0  0  0
  150.4750  137.0216  154.8323 C   0  0  2  0  0  0  0  0  0  0  0  0
  151.5622  137.7781  155.6130 C   0  0  0  0  0  0  0  0  0  0  0  0
  151.5336  139.2790  155.2826 C   0  0  0  0  0  0  0  0  0  0  0  0
  150.1212  139.8823  155.3063 C   0  0  0  0  0  0  0  0  0  0  0  0
  149.9856  141.1010  155.3832 O   0  0  0  0  0  0  0  0  0  0  0  0
  149.0602  139.0625  155.2047 N   0  0  0  0  0  0  0  0  0  0  0  0
  149.0907  137.5998  155.1977 C   0  0  0  0  0  0  0  0  0  0  0  0
  148.4945  132.6414  153.7434 C   0  0  0  0  0  0  0  0  0  0  0  0
  148.3274  131.3039  153.8199 N   0  0  0  0  0  0  0  0  0  0  0  0
  147.9488  126.6406  149.8501 H   0  0  0  0  0  0  0  0  0  0  0  0
  149.3625  126.4459  150.8869 H   0  0  0  0  0  0  0  0  0  0  0  0
  149.1789  127.9038  149.8945 H   0  0  0  0  0  0  0  0  0  0  0  0
  149.7306  127.9556  152.5494 H   0  0  0  0  0  0  0  0  0  0  0  0
  149.0035  129.4861  152.0691 H   0  0  0  0  0  0  0  0  0  0  0  0
  147.1711  129.1627  153.7163 H   0  0  0  0  0  0  0  0  0  0  0  0
  147.8379  127.5909  154.1708 H   0  0  0  0  0  0  0  0  0  0  0  0
  150.7663  130.6168  156.0775 H   0  0  0  0  0  0  0  0  0  0  0  0
  151.0664  133.0926  155.9356 H   0  0  0  0  0  0  0  0  0  0  0  0
  149.0136  135.2545  153.8392 H   0  0  0  0  0  0  0  0  0  0  0  0
  150.6470  137.1881  153.7669 H   0  0  0  0  0  0  0  0  0  0  0  0
  151.4211  137.6420  156.6868 H   0  0  0  0  0  0  0  0  0  0  0  0
  152.5480  137.3738  155.3789 H   0  0  0  0  0  0  0  0  0  0  0  0
  152.1757  139.8266  155.9737 H   0  0  0  0  0  0  0  0  0  0  0  0
  151.9423  139.4395  154.2843 H   0  0  0  0  0  0  0  0  0  0  0  0
  148.1458  139.4909  155.1902 H   0  0  0  0  0  0  0  0  0  0  0  0
  148.3366  137.2397  154.4973 H   0  0  0  0  0  0  0  0  0  0  0  0
  148.7802  137.2657  156.1889 H   0  0  0  0  0  0  0  0  0  0  0  0
  147.7993  133.1434  153.0891 H   0  0  0  0  0  0  0  0  0  0  0  0
  1  2  1  0  0  0  0
  1 22  1  0  0  0  0
  1 23  1  0  0  0  0
  1 24  1  0  0  0  0
  2  3  1  0  0  0  0
  3  4  1  0  0  0  0
  3 25  1  0  0  0  0
  3 26  1  0  0  0  0
  4  5  1  0  0  0  0
  4 27  1  0  0  0  0
  4 28  1  0  0  0  0
  5  6  1  0  0  0  0
  6 21  1  0  0  0  0
  6  7  2  0  0  0  0
  7  8  1  0  0  0  0
  7 29  1  0  0  0  0
  8  9  2  0  0  0  0
  8 30  1  0  0  0  0
  9 10  1  0  0  0  0
  9 20  1  0  0  0  0
 10 11  1  0  0  0  0
 10 31  1  0  0  0  0
 11 12  2  0  0  0  0
 11 13  1  0  0  0  0
 13 19  1  0  0  0  0
 13 14  1  0  0  0  0
 13 32  1  0  0  0  0
 14 15  1  0  0  0  0
 14 33  1  0  0  0  0
 14 34  1  0  0  0  0
 15 16  1  0  0  0  0
 15 35  1  0  0  0  0
 15 36  1  0  0  0  0
 16 17  2  0  0  0  0
 16 18  1  0  0  0  0
 18 19  1  0  0  0  0
 18 37  1  0  0  0  0
 19 38  1  0  0  0  0
 19 39  1  0  0  0  0
 20 21  2  0  0  0  0
 20 40  1  0  0  0  0
M  END
> <s_m_source_file>
AV-unprocessed.smi

> <i_m_source_file_index>
1129

> <i_lp_mmshare_version>
43012

> <i_f3d_flags>
0

> <s_epik_input>
W0NIM11PW0NIMl1bQ0gyXU9jMVtjSF1bY0hdYyhbY0hdbjEpW05IXUMoPU8pW0NAQEhdMltDSDJdW0NIMl1DKD1PKVtOSF1bQ0gyXTI=

> <s_epik_cmdline>
J2VwaWtfcHl0aG9uJywgJy1waCcsICc3LjAnLCAnLXRuJywgJzgnLCAnLW1hJywgJzIwMCcsICctbWV0YWxfYmluZGluZycsICctaW1hZScsICc8aW5maWxlLm1hZT4nLCAnLW9tYWUnLCAnPG91dGZpbGUubWFlPic=

> <r_lp_tautomer_probability>
1

> <r_epik_Ionization_Penalty>
1.79985e-05

> <r_epik_Ionization_Penalty_Charging>
0

> <r_epik_Ionization_Penalty_Neutral>
1.79985e-05

> <r_epik_State_Penalty>
-0

> <r_epik_Charging_Adjusted_Penalty>
0

> <i_epik_Tot_Q>
0

> <i_epik_Tot_abs_Q>
0

> <r_epik_Metal_State_Penalty>
-0

> <b_epik_Metal_Only>
0

> <s_lp_Force_Field>
OPLS_2005

> <r_lp_Energy>
17.0479

> <b_lp_Chiralities_Consistent>
1

> <s_lp_Variant>
AV-unprocessed.smi:1129-1

> <Gold.Version>
5.8.1

> <Gold.Id.Protein>
6NUR|6NUR_protein|mol2

> <Gold.PLP.Fitness>
39.8524

> <Gold.PLP.PLP>
-34.5774

> <Gold.PLP.part.hbond>
-3.0000

> <Gold.PLP.part.metal>
0.0000

> <Gold.PLP.part.buried>
-2.3656

> <Gold.PLP.part.nonpolar>
-28.9617

> <Gold.PLP.part.repulsive>
0.4646

> <Gold.PLP.ligand.clash>
0.0000

> <Gold.PLP.ligand.torsion>
0.2870

> <Gold.PLP.Chemscore.Hbond>
1.9024

> <Gold.PLP.Chemscore.CHOScore>
0.0000

> <Gold.PLP.Chemscore.Metal>
0.0000

> <Gold.Chemscore.Hbonds>
donor molecule, donor type, donor heavy atom, donor atom, acceptor molecule, acceptor atom, score
      L1  H    10    31       P1  7948  0.48
      P1  H 10752 10765       L1    12  0.94

> <Gold.PLP.Chemscore.Internal.Correction>
0.1419

> <Gold.Rescore>
     Score         DG    S(hbond)    S(metal)    S(lipo)     H(rot)  DE(clash)    DE(int)     intcor
     10.61     -12.35       1.28        0.00      66.53       2.03       0.04       1.70       ----

> <Gold.Chemscore.Fitness>
10.6100

> <Gold.Chemscore.DG>
-12.3495

> <Gold.Chemscore.ZeroCoef>
-5.4800

> <Gold.Chemscore.Hbond>
1.2786

> <Gold.Chemscore.Metal>
0.0000

> <Gold.Chemscore.Lipo>
66.5308

> <Gold.Chemscore.Internal_Hbond>
0.0000

> <Gold.Chemscore.DEClash>
0.0438

> <Gold.Chemscore.DEInternal>
1.6956

> <Gold.Chemscore.Rot>
2.0255

> <Gold.Chemscore.Internal.Correction>
   9.000000E+99

> <Gold.Chemscore.Hbonds>
donor molecule, donor type, donor heavy atom, donor atom, acceptor molecule, acceptor atom, score
      L1  H    10    31       P1  7948  0.31
      P1  H 10752 10765       L1    12  0.38

> <Gold.Chemscore.Hbond.Weighted>
-4.2706

> <Gold.Chemscore.Metal.Weighted>
-0.0000

> <Gold.Chemscore.Lipo.Weighted>
-7.7841

> <Gold.Chemscore.Internal_Hbond.Weighted>
0.0000

> <Gold.Chemscore.DEClash.Weighted>
0.0438

> <Gold.Chemscore.DEInternal.Weighted>
1.6956

> <Gold.Chemscore.Rot.Weighted>
5.1853

> <Gold.Chemscore.Internal.Correction.Weighted>
   9.000000E+99

> <Gold.Protein.RotatedTorsions>
[ 6907 6896 6895 6894 ] final -110.64 input  -60.11 | X-H torsion
[ 7974 7965 7964 7962 ] final  -79.55 input  175.53 | X-H torsion
[ 8008 7997 7996 7995 ] final  -75.12 input   59.86 | X-H torsion
[ 10167 10162 10161 10158 ] final  -93.70 input  -65.29 | X-H torsion
[ 10718 10713 10712 10709 ] final -102.00 input   66.30 | X-H torsion
[ 10763 10752 10751 10750 ] final -147.84 input  -60.55 | X-H torsion
[ 11005 11000 10999 10996 ] final -145.53 input  -57.11 | X-H torsion

> <Gold.Protein.ActiveResidues>
 VAL166  LYS551  ARG553  GLY616  TRP617  ASP618  TYR619  PRO620  LYS621  CYS622 
 ASP623  PHE694  ASN695  SER759  ASP760  ASP761  ALA762  ILE779  LEU786  VAL792 
 PHE793  MET794  SER795  GLU796  ALA797  LYS798  CYS799  TRP800  GLU811  SER814 

> <Gold.Protein.RotatedAtoms>
  150.7638  133.9352  159.3438 H   0  0  0  0  0  0  0  0  0  0  0  0  # atno 6907 bound_to 6896
  151.7255  135.0883  160.0300 H   0  0  0  0  0  0  0  0  0  0  0  0  # atno 6908 bound_to 6896
  152.3623  133.6275  159.6060 H   0  0  0  0  0  0  0  0  0  0  0  0  # atno 6909 bound_to 6896
  145.5718  140.9464  143.1391 H   0  0  0  0  0  0  0  0  0  0  0  0  # atno 7974 bound_to 7965
  154.5389  140.0749  156.8476 H   0  0  0  0  0  0  0  0  0  0  0  0  # atno 8008 bound_to 7997
  155.3221  140.3396  155.4223 H   0  0  0  0  0  0  0  0  0  0  0  0  # atno 8009 bound_to 7997
  156.1855  140.1667  156.8179 H   0  0  0  0  0  0  0  0  0  0  0  0  # atno 8010 bound_to 7997
  140.3220  143.3044  152.0036 H   0  0  0  0  0  0  0  0  0  0  0  0  # atno 10167 bound_to 10162
  156.0213  130.5400  150.7045 H   0  0  0  0  0  0  0  0  0  0  0  0  # atno 10718 bound_to 10713
  154.8264  135.3350  154.6881 H   0  0  0  0  0  0  0  0  0  0  0  0  # atno 10763 bound_to 10752
  153.7507  135.6939  153.4951 H   0  0  0  0  0  0  0  0  0  0  0  0  # atno 10764 bound_to 10752
  153.2179  135.4459  155.0405 H   0  0  0  0  0  0  0  0  0  0  0  0  # atno 10765 bound_to 10752
  140.7913  134.2965  157.5012 H   0  0  0  0  0  0  0  0  0  0  0  0  # atno 11005 bound_to 11000
  144.7434  139.7385  143.7301 LP  0  0  0  0  0  0  0  0  0  0  0  0  # atno 17320 bound_to 7965
  146.1779  139.4958  142.9885 LP  0  0  0  0  0  0  0  0  0  0  0  0  # atno 17321 bound_to 7965
  139.4872  144.6304  151.7082 LP  0  0  0  0  0  0  0  0  0  0  0  0  # atno 17342 bound_to 10162
  140.5475  144.0479  150.6113 LP  0  0  0  0  0  0  0  0  0  0  0  0  # atno 17343 bound_to 10162
  157.4697  131.0892  151.0655 LP  0  0  0  0  0  0  0  0  0  0  0  0  # atno 17370 bound_to 10713
  157.1119  130.6025  149.5484 LP  0  0  0  0  0  0  0  0  0  0  0  0  # atno 17371 bound_to 10713
  139.8731  134.9376  156.3692 LP  0  0  0  0  0  0  0  0  0  0  0  0  # atno 17394 bound_to 11000
  140.9387  133.7530  156.0118 LP  0  0  0  0  0  0  0  0  0  0  0  0  # atno 17395 bound_to 11000

$$$$
