AV-unprocessed.smi:287|AV-procd|sdf|2193|dock10
  -GOLD-   2262021593D 1   1.00000     0.00000
 Structure written by MMmdl.
 55 58  0  0  0  0  0  0  0  0  1 V2000
  150.8903  141.9337  157.6000 C   0  0  0  0  0  0  0  0  0  0  0  0
  150.0951  141.0771  156.6756 C   0  0  0  0  0  0  0  0  0  0  0  0
  148.7795  141.0450  156.3150 C   0  0  0  0  0  0  0  0  0  0  0  0
  148.6185  139.9751  155.3844 C   0  0  0  0  0  0  0  0  0  0  0  0
  147.3178  139.5630  154.7081 C   0  0  1  0  0  0  0  0  0  0  0  0
  146.6216  140.8024  154.1222 C   0  0  0  0  0  0  0  0  0  0  0  0
  147.5213  138.6923  153.6121 O   0  0  0  0  0  0  0  0  0  0  0  0
  146.3596  138.8189  155.6662 C   0  0  0  0  0  0  0  0  0  0  0  0
  144.9603  138.9412  155.2779 N   0  0  0  0  0  0  0  0  0  0  0  0
  144.2954  137.8943  154.7472 C   0  0  0  0  0  0  0  0  0  0  0  0
  143.0039  137.7666  155.1356 N   0  0  0  0  0  0  0  0  0  0  0  0
  142.2539  136.7684  154.6605 C   0  0  0  0  0  0  0  0  0  0  0  0
  142.5944  135.8044  153.8032 N   0  0  0  0  0  0  0  0  0  0  0  0
  143.8963  135.9227  153.4140 C   0  0  0  0  0  0  0  0  0  0  0  0
  144.8123  136.9298  153.8316 C   0  0  0  0  0  0  0  0  0  0  0  0
  146.0407  136.7125  153.2143 N   0  0  0  0  0  0  0  0  0  0  0  0
  145.8536  135.6500  152.4786 C   0  0  0  0  0  0  0  0  0  0  0  0
  144.5871  135.1137  152.5410 N   0  0  0  0  0  0  0  0  0  0  0  0
  144.0288  133.9255  151.8288 C   0  0  2  0  0  0  0  0  0  0  0  0
  144.9645  132.9027  151.8558 O   0  0  0  0  0  0  0  0  0  0  0  0
  144.6057  131.9746  150.8423 C   0  0  2  0  0  0  0  0  0  0  0  0
  145.8392  131.1515  150.4420 C   0  0  0  0  0  0  0  0  0  0  0  0
  146.7953  131.9771  149.8113 O   0  0  0  0  0  0  0  0  0  0  0  0
  144.0126  132.8335  149.7055 C   0  0  1  0  0  0  0  0  0  0  0  0
  142.7977  132.2602  149.2640 O   0  0  0  0  0  0  0  0  0  0  0  0
  143.7480  134.1980  150.3447 C   0  0  2  0  0  0  0  0  0  0  0  0
  144.5967  135.1875  149.7900 O   0  0  0  0  0  0  0  0  0  0  0  0
  149.8779  139.4441  155.2399 C   0  0  0  0  0  0  0  0  0  0  0  0
  150.4464  138.3307  154.4232 C   0  0  0  0  0  0  0  0  0  0  0  0
  150.7774  140.1033  156.0226 O   0  0  0  0  0  0  0  0  0  0  0  0
  143.1395  133.6354  152.3911 H   0  0  0  0  0  0  0  0  0  0  0  0
  143.8433  131.3214  151.2730 H   0  0  0  0  0  0  0  0  0  0  0  0
  144.6978  132.9163  148.8601 H   0  0  0  0  0  0  0  0  0  0  0  0
  142.7151  134.5321  150.2355 H   0  0  0  0  0  0  0  0  0  0  0  0
  150.2370  142.5489  158.2190 H   0  0  0  0  0  0  0  0  0  0  0  0
  151.5502  142.5970  157.0406 H   0  0  0  0  0  0  0  0  0  0  0  0
  151.5047  141.3230  158.2619 H   0  0  0  0  0  0  0  0  0  0  0  0
  148.0136  141.7115  156.6827 H   0  0  0  0  0  0  0  0  0  0  0  0
  146.3866  141.5285  154.9016 H   0  0  0  0  0  0  0  0  0  0  0  0
  145.6855  140.5401  153.6275 H   0  0  0  0  0  0  0  0  0  0  0  0
  147.2545  141.3031  153.3882 H   0  0  0  0  0  0  0  0  0  0  0  0
  148.1896  139.0629  153.0561 H   0  0  0  0  0  0  0  0  0  0  0  0
  146.6073  137.7567  155.6468 H   0  0  0  0  0  0  0  0  0  0  0  0
  146.5002  139.1585  156.6930 H   0  0  0  0  0  0  0  0  0  0  0  0
  144.5750  139.8734  155.3270 H   0  0  0  0  0  0  0  0  0  0  0  0
  141.2348  136.7391  155.0175 H   0  0  0  0  0  0  0  0  0  0  0  0
  146.6372  135.2323  151.8629 H   0  0  0  0  0  0  0  0  0  0  0  0
  146.2852  130.6639  151.3094 H   0  0  0  0  0  0  0  0  0  0  0  0
  145.5542  130.3659  149.7417 H   0  0  0  0  0  0  0  0  0  0  0  0
  147.5575  131.4556  149.6104 H   0  0  0  0  0  0  0  0  0  0  0  0
  142.1542  132.9479  149.1825 H   0  0  0  0  0  0  0  0  0  0  0  0
  144.8748  134.8946  148.9353 H   0  0  0  0  0  0  0  0  0  0  0  0
  150.2097  138.4671  153.3681 H   0  0  0  0  0  0  0  0  0  0  0  0
  150.0390  137.3712  154.7416 H   0  0  0  0  0  0  0  0  0  0  0  0
  151.5313  138.2831  154.5195 H   0  0  0  0  0  0  0  0  0  0  0  0
  1  2  1  0  0  0  0
  1 35  1  0  0  0  0
  1 36  1  0  0  0  0
  1 37  1  0  0  0  0
  2 30  1  0  0  0  0
  2  3  2  0  0  0  0
  3  4  1  0  0  0  0
  3 38  1  0  0  0  0
  4  5  1  0  0  0  0
  4 28  2  0  0  0  0
  5  6  1  0  0  0  0
  5  7  1  0  0  0  0
  5  8  1  0  0  0  0
  6 39  1  0  0  0  0
  6 40  1  0  0  0  0
  6 41  1  0  0  0  0
  7 42  1  0  0  0  0
  8  9  1  0  0  0  0
  8 43  1  0  0  0  0
  8 44  1  0  0  0  0
  9 10  1  0  0  0  0
  9 45  1  0  0  0  0
 10 15  1  0  0  0  0
 10 11  2  0  0  0  0
 11 12  1  0  0  0  0
 12 13  2  0  0  0  0
 12 46  1  0  0  0  0
 13 14  1  0  0  0  0
 14 18  1  0  0  0  0
 14 15  2  0  0  0  0
 15 16  1  0  0  0  0
 16 17  2  0  0  0  0
 17 18  1  0  0  0  0
 17 47  1  0  0  0  0
 18 19  1  0  0  0  0
 19 31  1  0  0  0  0
 19 26  1  0  0  0  0
 19 20  1  0  0  0  0
 20 21  1  0  0  0  0
 21 32  1  0  0  0  0
 21 22  1  0  0  0  0
 21 24  1  0  0  0  0
 22 23  1  0  0  0  0
 22 48  1  0  0  0  0
 22 49  1  0  0  0  0
 23 50  1  0  0  0  0
 24 33  1  0  0  0  0
 24 25  1  0  0  0  0
 24 26  1  0  0  0  0
 25 51  1  0  0  0  0
 26 34  1  0  0  0  0
 26 27  1  0  0  0  0
 27 52  1  0  0  0  0
 28 29  1  0  0  0  0
 28 30  1  0  0  0  0
 29 53  1  0  0  0  0
 29 54  1  0  0  0  0
 29 55  1  0  0  0  0
M  END
> <s_m_source_file>
AV-unprocessed.smi

> <i_m_source_file_index>
287

> <i_lp_mmshare_version>
43012

> <i_f3d_flags>
0

> <s_epik_input>
W0NIM11jMVtjSF1jKGMobzEpW0NIM10pW0NAQF0oW0NIM10pKFtPSF0pW0NIMl1bTkhdYyhuW2NIXW4yKWMoYzIzKW5bY0hdbjNbQ0BASF00T1tDQEhdKFtDSDJdW09IXSlbQ0BASF0oW09IXSlbQ0BIXTRbT0hd

> <s_epik_cmdline>
J2VwaWtfcHl0aG9uJywgJy1waCcsICc3LjAnLCAnLXRuJywgJzgnLCAnLW1hJywgJzIwMCcsICctbWV0YWxfYmluZGluZycsICctaW1hZScsICc8aW5maWxlLm1hZT4nLCAnLW9tYWUnLCAnPG91dGZpbGUubWFlPic=

> <r_lp_tautomer_probability>
1

> <r_epik_Ionization_Penalty>
0.000992612

> <r_epik_Ionization_Penalty_Charging>
0

> <r_epik_Ionization_Penalty_Neutral>
0.000992612

> <r_epik_State_Penalty>
-0

> <r_epik_Charging_Adjusted_Penalty>
0

> <i_epik_Tot_Q>
0

> <i_epik_Tot_abs_Q>
0

> <r_epik_Metal_State_Penalty>
-0

> <b_epik_Metal_Only>
0

> <s_epik_Chemistry_Notes>
This compound contains an acetal/aminal-like group ( X-CH(R)-Y where X, Y are N, S, or O) that may be acid/base labile, releasing an aldehyde.

> <s_lp_Force_Field>
OPLS_2005

> <r_lp_Energy>
41.001

> <b_lp_Chiralities_Consistent>
1

> <s_lp_Variant>
AV-unprocessed.smi:287-17

> <Gold.Version>
5.8.1

> <Gold.Id.Protein>
6NUR|6NUR_protein|mol2

> <Gold.PLP.Fitness>
56.8472

> <Gold.PLP.PLP>
-43.3408

> <Gold.PLP.part.hbond>
-7.8796

> <Gold.PLP.part.metal>
0.0000

> <Gold.PLP.part.buried>
-5.5268

> <Gold.PLP.part.nonpolar>
-33.2213

> <Gold.PLP.part.repulsive>
2.5962

> <Gold.PLP.ligand.clash>
0.0208

> <Gold.PLP.ligand.torsion>
1.6740

> <Gold.PLP.Chemscore.Hbond>
4.9165

> <Gold.PLP.Chemscore.CHOScore>
0.6933

> <Gold.PLP.Chemscore.Metal>
0.0000

> <Gold.Chemscore.Hbonds>
donor molecule, donor type, donor heavy atom, donor atom, acceptor molecule, acceptor atom, score
      L1  H    23    50       P1 10747  0.90
      L1  H    25    51       P1 10186  1.00
      L1  H    27    52       P1  7921  1.00
      P1  H 10785 10796       L1    25  0.54
      L1  C    17    47       P1  7948  0.84

> <Gold.PLP.Chemscore.Internal.Correction>
0.0458

> <Gold.Rescore>
     Score         DG    S(hbond)    S(metal)    S(lipo)     H(rot)  DE(clash)    DE(int)     intcor
      8.82     -16.70       4.25        0.00      89.81       5.27       3.21       4.66       ----

> <Gold.Chemscore.Fitness>
8.8239

> <Gold.Chemscore.DG>
-16.6961

> <Gold.Chemscore.ZeroCoef>
-5.4800

> <Gold.Chemscore.Hbond>
4.2493

> <Gold.Chemscore.Metal>
0.0000

> <Gold.Chemscore.Lipo>
89.8053

> <Gold.Chemscore.Internal_Hbond>
0.0000

> <Gold.Chemscore.DEClash>
3.2140

> <Gold.Chemscore.DEInternal>
4.6582

> <Gold.Chemscore.Rot>
5.2672

> <Gold.Chemscore.Internal.Correction>
   9.000000E+99

> <Gold.Chemscore.Hbonds>
donor molecule, donor type, donor heavy atom, donor atom, acceptor molecule, acceptor atom, score
      L1  H    23    50       P1 10747  0.86
      L1  H    25    51       P1 10186  1.00
      L1  H    27    52       P1  7921  0.94
      P1  H 10785 10796       L1    25  0.35

> <Gold.Chemscore.Hbond.Weighted>
-14.1928

> <Gold.Chemscore.Metal.Weighted>
-0.0000

> <Gold.Chemscore.Lipo.Weighted>
-10.5072

> <Gold.Chemscore.Internal_Hbond.Weighted>
0.0000

> <Gold.Chemscore.DEClash.Weighted>
3.2140

> <Gold.Chemscore.DEInternal.Weighted>
4.6582

> <Gold.Chemscore.Rot.Weighted>
13.4839

> <Gold.Chemscore.Internal.Correction.Weighted>
   9.000000E+99

> <Gold.Protein.RotatedTorsions>
[ 6907 6896 6895 6894 ] final   83.13 input  -60.11 | X-H torsion
[ 7974 7965 7964 7962 ] final   42.12 input  175.53 | X-H torsion
[ 8008 7997 7996 7995 ] final  -33.14 input   59.86 | X-H torsion
[ 10167 10162 10161 10158 ] final   83.93 input  -65.29 | X-H torsion
[ 10718 10713 10712 10709 ] final -170.27 input   66.30 | X-H torsion
[ 10763 10752 10751 10750 ] final  -65.83 input  -60.55 | X-H torsion
[ 11005 11000 10999 10996 ] final  -89.02 input  -57.11 | X-H torsion

> <Gold.Protein.ActiveResidues>
 VAL166  LYS551  ARG553  GLY616  TRP617  ASP618  TYR619  PRO620  LYS621  CYS622 
 ASP623  PHE694  ASN695  SER759  ASP760  ASP761  ALA762  ILE779  LEU786  VAL792 
 PHE793  MET794  SER795  GLU796  ALA797  LYS798  CYS799  TRP800  GLU811  SER814 

> <Gold.Protein.RotatedAtoms>
  152.5318  134.2943  159.9054 H   0  0  0  0  0  0  0  0  0  0  0  0  # atno 6907 bound_to 6896
  151.2895  133.4165  159.2640 H   0  0  0  0  0  0  0  0  0  0  0  0  # atno 6908 bound_to 6896
  151.0213  134.9487  159.8118 H   0  0  0  0  0  0  0  0  0  0  0  0  # atno 6909 bound_to 6896
  146.0767  139.5337  142.9563 H   0  0  0  0  0  0  0  0  0  0  0  0  # atno 7974 bound_to 7965
  154.4158  140.1718  156.1840 H   0  0  0  0  0  0  0  0  0  0  0  0  # atno 8008 bound_to 7997
  155.9659  140.3389  155.6508 H   0  0  0  0  0  0  0  0  0  0  0  0  # atno 8009 bound_to 7997
  155.6689  140.0709  157.2518 H   0  0  0  0  0  0  0  0  0  0  0  0  # atno 8010 bound_to 7997
  139.9133  144.6258  150.8515 H   0  0  0  0  0  0  0  0  0  0  0  0  # atno 10167 bound_to 10162
  156.7238  130.9280  151.3099 H   0  0  0  0  0  0  0  0  0  0  0  0  # atno 10718 bound_to 10713
  154.3509  135.6137  153.5642 H   0  0  0  0  0  0  0  0  0  0  0  0  # atno 10763 bound_to 10752
  152.9798  135.5792  154.4744 H   0  0  0  0  0  0  0  0  0  0  0  0  # atno 10764 bound_to 10752
  154.4465  135.2851  155.1788 H   0  0  0  0  0  0  0  0  0  0  0  0  # atno 10765 bound_to 10752
  141.1592  133.7605  156.9535 H   0  0  0  0  0  0  0  0  0  0  0  0  # atno 11005 bound_to 11000
  145.6293  141.0307  143.1872 LP  0  0  0  0  0  0  0  0  0  0  0  0  # atno 17320 bound_to 7965
  144.7266  139.7856  143.7362 LP  0  0  0  0  0  0  0  0  0  0  0  0  # atno 17321 bound_to 7965
  140.7680  143.3350  151.2329 LP  0  0  0  0  0  0  0  0  0  0  0  0  # atno 17342 bound_to 10162
  139.6924  143.9670  152.2866 LP  0  0  0  0  0  0  0  0  0  0  0  0  # atno 17343 bound_to 10162
  157.6887  130.9211  150.0455 LP  0  0  0  0  0  0  0  0  0  0  0  0  # atno 17370 bound_to 10713
  156.1576  130.3643  149.9346 LP  0  0  0  0  0  0  0  0  0  0  0  0  # atno 17371 bound_to 10713
  140.1241  134.9398  157.2245 LP  0  0  0  0  0  0  0  0  0  0  0  0  # atno 17394 bound_to 11000
  140.3035  134.3104  155.7284 LP  0  0  0  0  0  0  0  0  0  0  0  0  # atno 17395 bound_to 11000

$$$$
