AV-unprocessed.smi:1269|AV-procd|sdf|5328|dock9
  -GOLD-   22720 4453D 1   1.00000     0.00000
 Structure written by MMmdl.
 43 44  0  0  0  0  0  0  0  0  1 V2000
  144.7489  132.4348  150.2268 C   0  0  0  0  0  0  0  0  0  0  0  0
  143.7567  133.2472  150.8447 O   0  0  0  0  0  0  0  0  0  0  0  0
  144.1239  134.4972  151.2994 C   0  0  0  0  0  0  0  0  0  0  0  0
  143.1827  135.2540  152.0249 C   0  0  0  0  0  0  0  0  0  0  0  0
  143.5529  136.5294  152.4913 C   0  0  0  0  0  0  0  0  0  0  0  0
  144.8520  137.0085  152.2284 C   0  0  0  0  0  0  0  0  0  0  0  0
  145.1901  138.3068  152.6975 N   0  0  0  0  0  0  0  0  0  0  0  0
  146.3439  138.7264  153.2450 C   0  0  0  0  0  0  0  0  0  0  0  0
  147.3268  138.0194  153.4650 O   0  0  0  0  0  0  0  0  0  0  0  0
  146.2868  140.0310  153.5509 N   0  0  0  0  0  0  0  0  0  0  0  0
  147.3634  140.8091  154.1603 C   0  0  1  0  0  0  0  0  0  0  0  0
  146.8477  142.2430  154.3594 C   0  0  0  0  0  0  0  0  0  0  0  0
  147.8335  140.0956  155.4527 C   0  0  0  0  0  0  0  0  0  0  0  0
  149.2486  139.7173  155.5121 N   0  0  0  0  0  0  0  0  0  0  0  0
  150.0858  140.8785  155.8033 C   0  0  0  0  0  0  0  0  0  0  0  0
  151.5782  140.5124  155.8786 C   0  0  0  0  0  0  0  0  0  0  0  0
  151.9827  139.9070  154.6557 O   0  0  0  0  0  0  0  0  0  0  0  0
  151.2198  138.7471  154.3419 C   0  0  0  0  0  0  0  0  0  0  0  0
  149.7275  139.1149  154.2676 C   0  0  0  0  0  0  0  0  0  0  0  0
  145.7212  136.1773  151.4800 C   0  0  0  0  0  0  0  0  0  0  0  0
  145.3714  134.9538  151.0286 N   0  0  0  0  0  0  0  0  0  0  0  0
  144.3025  131.4873  149.9250 H   0  0  0  0  0  0  0  0  0  0  0  0
  145.5661  132.2114  150.9143 H   0  0  0  0  0  0  0  0  0  0  0  0
  145.1536  132.9094  149.3317 H   0  0  0  0  0  0  0  0  0  0  0  0
  142.1948  134.8635  152.2193 H   0  0  0  0  0  0  0  0  0  0  0  0
  142.8463  137.1287  153.0469 H   0  0  0  0  0  0  0  0  0  0  0  0
  144.4461  138.9876  152.6568 H   0  0  0  0  0  0  0  0  0  0  0  0
  145.4342  140.5290  153.3409 H   0  0  0  0  0  0  0  0  0  0  0  0
  148.1974  140.8505  153.4571 H   0  0  0  0  0  0  0  0  0  0  0  0
  147.6647  142.9400  154.5384 H   0  0  0  0  0  0  0  0  0  0  0  0
  146.1467  142.3062  155.1923 H   0  0  0  0  0  0  0  0  0  0  0  0
  146.3346  142.6020  153.4664 H   0  0  0  0  0  0  0  0  0  0  0  0
  147.5624  140.6821  156.3319 H   0  0  0  0  0  0  0  0  0  0  0  0
  147.2396  139.1834  155.5299 H   0  0  0  0  0  0  0  0  0  0  0  0
  149.9392  141.6433  155.0385 H   0  0  0  0  0  0  0  0  0  0  0  0
  149.7835  141.3246  156.7517 H   0  0  0  0  0  0  0  0  0  0  0  0
  152.1800  141.4048  156.0508 H   0  0  0  0  0  0  0  0  0  0  0  0
  151.7673  139.8318  156.7101 H   0  0  0  0  0  0  0  0  0  0  0  0
  151.5590  138.3459  153.3869 H   0  0  0  0  0  0  0  0  0  0  0  0
  151.3905  137.9751  155.0937 H   0  0  0  0  0  0  0  0  0  0  0  0
  149.1664  138.2180  154.0243 H   0  0  0  0  0  0  0  0  0  0  0  0
  149.5731  139.8072  153.4385 H   0  0  0  0  0  0  0  0  0  0  0  0
  146.7170  136.4882  151.2064 H   0  0  0  0  0  0  0  0  0  0  0  0
  1  2  1  0  0  0  0
  1 22  1  0  0  0  0
  1 23  1  0  0  0  0
  1 24  1  0  0  0  0
  2  3  1  0  0  0  0
  3 21  1  0  0  0  0
  3  4  2  0  0  0  0
  4  5  1  0  0  0  0
  4 25  1  0  0  0  0
  5  6  2  0  0  0  0
  5 26  1  0  0  0  0
  6  7  1  0  0  0  0
  6 20  1  0  0  0  0
  7  8  1  0  0  0  0
  7 27  1  0  0  0  0
  8  9  2  0  0  0  0
  8 10  1  0  0  0  0
 10 11  1  0  0  0  0
 10 28  1  0  0  0  0
 11 12  1  0  0  0  0
 11 13  1  0  0  0  0
 11 29  1  0  0  0  0
 12 30  1  0  0  0  0
 12 31  1  0  0  0  0
 12 32  1  0  0  0  0
 13 14  1  0  0  0  0
 13 33  1  0  0  0  0
 13 34  1  0  0  0  0
 14 19  1  0  0  0  0
 14 15  1  0  0  0  0
 15 16  1  0  0  0  0
 15 35  1  0  0  0  0
 15 36  1  0  0  0  0
 16 17  1  0  0  0  0
 16 37  1  0  0  0  0
 16 38  1  0  0  0  0
 17 18  1  0  0  0  0
 18 19  1  0  0  0  0
 18 39  1  0  0  0  0
 18 40  1  0  0  0  0
 19 41  1  0  0  0  0
 19 42  1  0  0  0  0
 20 21  2  0  0  0  0
 20 43  1  0  0  0  0
M  END
> <s_m_source_file>
AV-unprocessed.smi

> <i_m_source_file_index>
1269

> <i_lp_mmshare_version>
43012

> <i_f3d_flags>
0

> <s_epik_input>
W0NIM11PYzFbY0hdW2NIXWMoW2NIXW4xKVtOSF1DKD1PKVtOSF1bQ0BIXShbQ0gzXSlbQ0gyXU4yW0NIMl1bQ0gyXU9bQ0gyXVtDSDJdMg==

> <s_epik_cmdline>
J2VwaWtfcHl0aG9uJywgJy1waCcsICc3LjAnLCAnLXRuJywgJzgnLCAnLW1hJywgJzIwMCcsICctbWV0YWxfYmluZGluZycsICctaW1hZScsICc8aW5maWxlLm1hZT4nLCAnLW9tYWUnLCAnPG91dGZpbGUubWFlPic=

> <r_lp_tautomer_probability>
1

> <r_epik_Ionization_Penalty>
0.266086

> <r_epik_Ionization_Penalty_Charging>
0

> <r_epik_Ionization_Penalty_Neutral>
0.266086

> <r_epik_State_Penalty>
0.257924

> <r_epik_Charging_Adjusted_Penalty>
0.257924

> <i_epik_Tot_Q>
0

> <i_epik_Tot_abs_Q>
0

> <r_epik_Metal_State_Penalty>
0.25792

> <b_epik_Metal_Only>
0

> <s_lp_Force_Field>
OPLS_2005

> <r_lp_Energy>
29.6845

> <b_lp_Chiralities_Consistent>
1

> <s_lp_Variant>
AV-unprocessed.smi:1269-2

> <Gold.Version>
5.8.1

> <Gold.Id.Protein>
6NUR|6NUR_protein|mol2

> <Gold.PLP.Fitness>
44.3061

> <Gold.PLP.PLP>
-35.1197

> <Gold.PLP.part.hbond>
-3.4309

> <Gold.PLP.part.metal>
0.0000

> <Gold.PLP.part.buried>
-7.0571

> <Gold.PLP.part.nonpolar>
-26.6608

> <Gold.PLP.part.repulsive>
1.4479

> <Gold.PLP.ligand.clash>
0.0000

> <Gold.PLP.ligand.torsion>
1.2629

> <Gold.PLP.Chemscore.Hbond>
2.8880

> <Gold.PLP.Chemscore.CHOScore>
1.0000

> <Gold.PLP.Chemscore.Metal>
0.0000

> <Gold.Chemscore.Hbonds>
donor molecule, donor type, donor heavy atom, donor atom, acceptor molecule, acceptor atom, score
      L1  H     7    27       P1 10175  1.00
      L1  H    10    28       P1 10175  0.94
      P1  H  7989  7998       L1    17  0.87
      L1  C    20    43       P1  7948  1.00

> <Gold.PLP.Chemscore.Internal.Correction>
0.0481

> <Gold.Rescore>
     Score         DG    S(hbond)    S(metal)    S(lipo)     H(rot)  DE(clash)    DE(int)     intcor
     12.14     -17.51       2.26        0.00      75.91       1.72       2.44       2.93       ----

> <Gold.Chemscore.Fitness>
12.1420

> <Gold.Chemscore.DG>
-17.5138

> <Gold.Chemscore.ZeroCoef>
-5.4800

> <Gold.Chemscore.Hbond>
2.2612

> <Gold.Chemscore.Metal>
0.0000

> <Gold.Chemscore.Lipo>
75.9141

> <Gold.Chemscore.Internal_Hbond>
0.0000

> <Gold.Chemscore.DEClash>
2.4411

> <Gold.Chemscore.DEInternal>
2.9307

> <Gold.Chemscore.Rot>
1.7189

> <Gold.Chemscore.Internal.Correction>
   9.000000E+99

> <Gold.Chemscore.Hbonds>
donor molecule, donor type, donor heavy atom, donor atom, acceptor molecule, acceptor atom, score
      L1  H     7    27       P1 10175  0.99
      L1  H    10    28       P1 10175  0.85
      P1  H  7989  7998       L1    17  0.25

> <Gold.Chemscore.Hbond.Weighted>
-7.5523

> <Gold.Chemscore.Metal.Weighted>
-0.0000

> <Gold.Chemscore.Lipo.Weighted>
-8.8820

> <Gold.Chemscore.Internal_Hbond.Weighted>
0.0000

> <Gold.Chemscore.DEClash.Weighted>
2.4411

> <Gold.Chemscore.DEInternal.Weighted>
2.9307

> <Gold.Chemscore.Rot.Weighted>
4.4004

> <Gold.Chemscore.Internal.Correction.Weighted>
   9.000000E+99

> <Gold.Protein.RotatedTorsions>
[ 6907 6896 6895 6894 ] final  -50.62 input  -60.11 | X-H torsion
[ 7974 7965 7964 7962 ] final  104.57 input  175.53 | X-H torsion
[ 8008 7997 7996 7995 ] final -177.26 input   59.86 | X-H torsion
[ 10167 10162 10161 10158 ] final   92.03 input  -65.29 | X-H torsion
[ 10718 10713 10712 10709 ] final  -94.91 input   66.30 | X-H torsion
[ 10763 10752 10751 10750 ] final   53.94 input  -60.55 | X-H torsion
[ 11005 11000 10999 10996 ] final   62.80 input  -57.11 | X-H torsion

> <Gold.Protein.ActiveResidues>
 VAL166  LYS551  ARG553  GLY616  TRP617  ASP618  TYR619  PRO620  LYS621  CYS622 
 ASP623  PHE694  ASN695  SER759  ASP760  ASP761  ALA762  ILE779  LEU786  VAL792 
 PHE793  MET794  SER795  GLU796  ALA797  LYS798  CYS799  TRP800  GLU811  SER814 

> <Gold.Protein.RotatedAtoms>
  150.8689  134.8059  159.7139 H   0  0  0  0  0  0  0  0  0  0  0  0  # atno 6907 bound_to 6896
  152.4701  134.4978  159.9725 H   0  0  0  0  0  0  0  0  0  0  0  0  # atno 6908 bound_to 6896
  151.5070  133.3454  159.2914 H   0  0  0  0  0  0  0  0  0  0  0  0  # atno 6909 bound_to 6896
  145.3310  139.2487  143.3661 H   0  0  0  0  0  0  0  0  0  0  0  0  # atno 7974 bound_to 7965
  156.0048  140.1228  157.0512 H   0  0  0  0  0  0  0  0  0  0  0  0  # atno 8008 bound_to 7997
  154.4255  140.1099  156.5817 H   0  0  0  0  0  0  0  0  0  0  0  0  # atno 8009 bound_to 7997
  155.6162  140.3472  155.4640 H   0  0  0  0  0  0  0  0  0  0  0  0  # atno 8010 bound_to 7997
  139.8317  144.6684  150.9392 H   0  0  0  0  0  0  0  0  0  0  0  0  # atno 10167 bound_to 10162
  156.0034  130.5087  150.5998 H   0  0  0  0  0  0  0  0  0  0  0  0  # atno 10718 bound_to 10713
  152.9800  135.5762  154.4823 H   0  0  0  0  0  0  0  0  0  0  0  0  # atno 10763 bound_to 10752
  154.4370  135.2775  155.1875 H   0  0  0  0  0  0  0  0  0  0  0  0  # atno 10764 bound_to 10752
  154.3559  135.6199  153.5720 H   0  0  0  0  0  0  0  0  0  0  0  0  # atno 10765 bound_to 10752
  140.0067  134.6358  155.9844 H   0  0  0  0  0  0  0  0  0  0  0  0  # atno 11005 bound_to 11000
  146.3045  140.3887  142.8692 LP  0  0  0  0  0  0  0  0  0  0  0  0  # atno 17320 bound_to 7965
  144.8864  140.7468  143.5954 LP  0  0  0  0  0  0  0  0  0  0  0  0  # atno 17321 bound_to 7965
  140.7806  143.3995  151.1173 LP  0  0  0  0  0  0  0  0  0  0  0  0  # atno 17342 bound_to 10162
  139.7648  143.8582  152.3108 LP  0  0  0  0  0  0  0  0  0  0  0  0  # atno 17343 bound_to 10162
  157.3848  131.0786  151.1445 LP  0  0  0  0  0  0  0  0  0  0  0  0  # atno 17370 bound_to 10713
  157.2156  130.6457  149.5791 LP  0  0  0  0  0  0  0  0  0  0  0  0  # atno 17371 bound_to 10713
  141.1682  133.6537  156.4555 LP  0  0  0  0  0  0  0  0  0  0  0  0  # atno 17394 bound_to 11000
  140.4628  134.6825  157.5093 LP  0  0  0  0  0  0  0  0  0  0  0  0  # atno 17395 bound_to 11000

$$$$
