AV-unprocessed.smi:3316|AV-procd|sdf|12754|dock4
  -GOLD-   2272019 93D 1   1.00000     0.00000
 Structure written by MMmdl.
 41 43  0  0  0  0  0  0  0  0  2 V2000
  148.7388  141.4854  154.3740 C   0  0  0  0  0  0  0  0  0  0  0  0
  147.7504  141.2471  155.5264 C   0  0  1  0  0  0  0  0  0  0  0  0
  148.4715  141.1922  156.8872 C   0  0  0  0  0  0  0  0  0  0  0  0
  149.3689  142.3510  157.0712 N   0  3  0  0  0  0  0  0  0  0  0  0
  149.7325  142.6174  158.4759 C   0  0  0  0  0  0  0  0  0  0  0  0
  150.4355  143.9806  158.6145 C   0  0  2  0  0  0  0  0  0  0  0  0
  151.5818  144.2251  157.5834 C   0  0  0  0  0  0  0  0  0  0  0  0
  152.7810  144.6064  158.4814 C   0  0  2  0  0  0  0  0  0  0  0  0
  153.1837  143.3701  159.2555 C   0  0  0  0  0  0  0  0  0  0  0  0
  152.2190  143.1276  160.1444 C   0  0  0  0  0  0  0  0  0  0  0  0
  151.1617  144.1998  159.9682 C   0  0  1  0  0  0  0  0  0  0  0  0
  152.0546  145.3856  159.5832 C   0  0  0  0  0  0  0  0  0  0  0  0
  146.6298  142.2805  155.5189 C   0  0  0  0  0  0  0  0  0  0  0  0
  146.2362  142.9200  156.7135 C   0  0  0  0  0  0  0  0  0  0  0  0
  145.2053  143.8796  156.6574 C   0  0  0  0  0  0  0  0  0  0  0  0
  144.5744  144.2236  155.5147 N   0  0  0  0  0  0  0  0  0  0  0  0
  144.9524  143.6083  154.3744 C   0  0  0  0  0  0  0  0  0  0  0  0
  145.9707  142.6357  154.3216 C   0  0  0  0  0  0  0  0  0  0  0  0
  148.2269  141.4740  153.4112 H   0  0  0  0  0  0  0  0  0  0  0  0
  149.5047  140.7098  154.3471 H   0  0  0  0  0  0  0  0  0  0  0  0
  149.2458  142.4459  154.4694 H   0  0  0  0  0  0  0  0  0  0  0  0
  147.2983  140.2688  155.3562 H   0  0  0  0  0  0  0  0  0  0  0  0
  147.7412  141.1845  157.6974 H   0  0  0  0  0  0  0  0  0  0  0  0
  149.0491  140.2706  156.9725 H   0  0  0  0  0  0  0  0  0  0  0  0
  150.2186  142.1785  156.5527 H   0  0  0  0  0  0  0  0  0  0  0  0
  148.8256  142.6059  159.0817 H   0  0  0  0  0  0  0  0  0  0  0  0
  150.3733  141.8131  158.8397 H   0  0  0  0  0  0  0  0  0  0  0  0
  149.6864  144.7667  158.5034 H   0  0  0  0  0  0  0  0  0  0  0  0
  151.8015  143.3468  156.9743 H   0  0  0  0  0  0  0  0  0  0  0  0
  151.3235  145.0406  156.9068 H   0  0  0  0  0  0  0  0  0  0  0  0
  153.6035  145.1316  157.9952 H   0  0  0  0  0  0  0  0  0  0  0  0
  154.0780  142.7926  159.0745 H   0  0  0  0  0  0  0  0  0  0  0  0
  152.1561  142.3082  160.8452 H   0  0  0  0  0  0  0  0  0  0  0  0
  150.5239  144.3631  160.8374 H   0  0  0  0  0  0  0  0  0  0  0  0
  152.7185  145.6993  160.3915 H   0  0  0  0  0  0  0  0  0  0  0  0
  151.5060  146.2572  159.2207 H   0  0  0  0  0  0  0  0  0  0  0  0
  146.7086  142.6855  157.6563 H   0  0  0  0  0  0  0  0  0  0  0  0
  144.8812  144.3861  157.5544 H   0  0  0  0  0  0  0  0  0  0  0  0
  144.4298  143.9014  153.4759 H   0  0  0  0  0  0  0  0  0  0  0  0
  146.2342  142.1767  153.3801 H   0  0  0  0  0  0  0  0  0  0  0  0
  148.9204  143.1722  156.6909 H   0  0  0  0  0  0  0  0  0  0  0  0
  1  2  1  0  0  0  0
  1 19  1  0  0  0  0
  1 20  1  0  0  0  0
  1 21  1  0  0  0  0
  2  3  1  0  0  0  0
  2 13  1  0  0  0  0
  2 22  1  0  0  0  0
  3  4  1  0  0  0  0
  3 23  1  0  0  0  0
  3 24  1  0  0  0  0
  4  5  1  0  0  0  0
  4 25  1  0  0  0  0
  4 41  1  0  0  0  0
  5  6  1  0  0  0  0
  5 26  1  0  0  0  0
  5 27  1  0  0  0  0
  6 11  1  0  0  0  0
  6  7  1  0  0  0  0
  6 28  1  0  0  0  0
  7  8  1  0  0  0  0
  7 29  1  0  0  0  0
  7 30  1  0  0  0  0
  8 12  1  0  0  0  0
  8  9  1  0  0  0  0
  8 31  1  0  0  0  0
  9 10  2  0  0  0  0
  9 32  1  0  0  0  0
 10 11  1  0  0  0  0
 10 33  1  0  0  0  0
 11 12  1  0  0  0  0
 11 34  1  0  0  0  0
 12 35  1  0  0  0  0
 12 36  1  0  0  0  0
 13 18  1  0  0  0  0
 13 14  2  0  0  0  0
 14 15  1  0  0  0  0
 14 37  1  0  0  0  0
 15 16  2  0  0  0  0
 15 38  1  0  0  0  0
 16 17  1  0  0  0  0
 17 18  2  0  0  0  0
 17 39  1  0  0  0  0
 18 40  1  0  0  0  0
M  CHG  1   4   1
M  END
> <s_m_source_file>
AV-unprocessed.smi

> <i_m_source_file_index>
3316

> <i_lp_mmshare_version>
43012

> <i_f3d_flags>
0

> <s_epik_input>
W2NIXTFbY0hdbltjSF1bY0hdYzFbQ0BIXShbQ0gzXSlbQ0gyXVtOSF1bQ0gyXVtDQEhdKFtDSDJdW0NASF0yMylbQ0BIXShbQ0gyXTMpW0NIXT1bQ0hdMg==

> <s_epik_cmdline>
J2VwaWtfcHl0aG9uJywgJy1waCcsICc3LjAnLCAnLXRuJywgJzgnLCAnLW1hJywgJzIwMCcsICctbWV0YWxfYmluZGluZycsICctaW1hZScsICc8aW5maWxlLm1hZT4nLCAnLW9tYWUnLCAnPG91dGZpbGUubWFlPic=

> <r_lp_tautomer_probability>
1

> <r_epik_Ionization_Penalty>
0.00280406

> <r_epik_Ionization_Penalty_Charging>
0.000446589

> <r_epik_Ionization_Penalty_Neutral>
0.00235747

> <r_epik_State_Penalty>
-0

> <r_epik_Charging_Adjusted_Penalty>
0.000446589

> <i_epik_Tot_Q>
1

> <i_epik_Tot_abs_Q>
1

> <r_epik_Metal_State_Penalty>
-0

> <b_epik_Metal_Only>
0

> <s_lp_Force_Field>
OPLS_2005

> <r_lp_Energy>
65.6542

> <b_lp_Chiralities_Consistent>
1

> <s_lp_Variant>
AV-unprocessed.smi:3316-2

> <Gold.Version>
5.8.1

> <Gold.Id.Protein>
6NUR|6NUR_protein|mol2

> <Gold.PLP.Fitness>
50.6107

> <Gold.PLP.PLP>
-42.5807

> <Gold.PLP.part.hbond>
-1.0000

> <Gold.PLP.part.metal>
0.0000

> <Gold.PLP.part.buried>
-5.4764

> <Gold.PLP.part.nonpolar>
-38.4402

> <Gold.PLP.part.repulsive>
0.1436

> <Gold.PLP.ligand.clash>
0.0000

> <Gold.PLP.ligand.torsion>
0.5420

> <Gold.PLP.Chemscore.Hbond>
2.0000

> <Gold.PLP.Chemscore.CHOScore>
0.9922

> <Gold.PLP.Chemscore.Metal>
0.0000

> <Gold.Chemscore.Hbonds>
donor molecule, donor type, donor heavy atom, donor atom, acceptor molecule, acceptor atom, score
      L1  H     4    41       P1  8028  2.00
      L1  C    17    39       P1 10174  0.75

> <Gold.PLP.Chemscore.Internal.Correction>
0.1373

> <Gold.Rescore>
     Score         DG    S(hbond)    S(metal)    S(lipo)     H(rot)  DE(clash)    DE(int)     intcor
     20.12     -20.66       0.97        0.00     131.93       1.36       0.13       0.40       ----

> <Gold.Chemscore.Fitness>
20.1247

> <Gold.Chemscore.DG>
-20.6611

> <Gold.Chemscore.ZeroCoef>
-5.4800

> <Gold.Chemscore.Hbond>
0.9691

> <Gold.Chemscore.Metal>
0.0000

> <Gold.Chemscore.Lipo>
131.9342

> <Gold.Chemscore.Internal_Hbond>
0.0000

> <Gold.Chemscore.DEClash>
0.1328

> <Gold.Chemscore.DEInternal>
0.4036

> <Gold.Chemscore.Rot>
1.3640

> <Gold.Chemscore.Internal.Correction>
   9.000000E+99

> <Gold.Chemscore.Hbonds>
donor molecule, donor type, donor heavy atom, donor atom, acceptor molecule, acceptor atom, score
      L1  H     4    41       P1  8028  0.90

> <Gold.Chemscore.Hbond.Weighted>
-3.2367

> <Gold.Chemscore.Metal.Weighted>
-0.0000

> <Gold.Chemscore.Lipo.Weighted>
-15.4363

> <Gold.Chemscore.Internal_Hbond.Weighted>
0.0000

> <Gold.Chemscore.DEClash.Weighted>
0.1328

> <Gold.Chemscore.DEInternal.Weighted>
0.4036

> <Gold.Chemscore.Rot.Weighted>
3.4919

> <Gold.Chemscore.Internal.Correction.Weighted>
   9.000000E+99

> <Gold.Protein.RotatedTorsions>
[ 6907 6896 6895 6894 ] final -160.11 input  -60.11 | X-H torsion
[ 7974 7965 7964 7962 ] final   66.01 input  175.53 | X-H torsion
[ 8008 7997 7996 7995 ] final -106.63 input   59.86 | X-H torsion
[ 10167 10162 10161 10158 ] final -166.59 input  -65.29 | X-H torsion
[ 10718 10713 10712 10709 ] final -153.45 input   66.30 | X-H torsion
[ 10763 10752 10751 10750 ] final   98.14 input  -60.55 | X-H torsion
[ 11005 11000 10999 10996 ] final   78.98 input  -57.11 | X-H torsion

> <Gold.Protein.ActiveResidues>
 VAL166  LYS551  ARG553  GLY616  TRP617  ASP618  TYR619  PRO620  LYS621  CYS622 
 ASP623  PHE694  ASN695  SER759  ASP760  ASP761  ALA762  ILE779  LEU786  VAL792 
 PHE793  MET794  SER795  GLU796  ALA797  LYS798  CYS799  TRP800  GLU811  SER814 

> <Gold.Protein.RotatedAtoms>
  151.3440  133.3951  159.2673 H   0  0  0  0  0  0  0  0  0  0  0  0  # atno 6907 bound_to 6896
  150.9854  134.9201  159.7879 H   0  0  0  0  0  0  0  0  0  0  0  0  # atno 6908 bound_to 6896
  152.5230  134.3405  159.9267 H   0  0  0  0  0  0  0  0  0  0  0  0  # atno 6909 bound_to 6896
  145.8317  139.3143  143.0984 H   0  0  0  0  0  0  0  0  0  0  0  0  # atno 7974 bound_to 7965
  154.9173  140.0408  157.1979 H   0  0  0  0  0  0  0  0  0  0  0  0  # atno 8008 bound_to 7997
  154.8288  140.2896  155.5715 H   0  0  0  0  0  0  0  0  0  0  0  0  # atno 8009 bound_to 7997
  156.2985  140.2504  156.3210 H   0  0  0  0  0  0  0  0  0  0  0  0  # atno 8010 bound_to 7997
  139.6105  144.0825  152.1837 H   0  0  0  0  0  0  0  0  0  0  0  0  # atno 10167 bound_to 10162
  156.4860  130.8325  151.2550 H   0  0  0  0  0  0  0  0  0  0  0  0  # atno 10718 bound_to 10713
  153.2854  135.4158  155.1118 H   0  0  0  0  0  0  0  0  0  0  0  0  # atno 10763 bound_to 10752
  154.8503  135.3505  154.6054 H   0  0  0  0  0  0  0  0  0  0  0  0  # atno 10764 bound_to 10752
  153.6475  135.7054  153.5278 H   0  0  0  0  0  0  0  0  0  0  0  0  # atno 10765 bound_to 10752
  139.9191  134.7806  156.1719 H   0  0  0  0  0  0  0  0  0  0  0  0  # atno 11005 bound_to 11000
  145.9564  140.8869  143.0233 LP  0  0  0  0  0  0  0  0  0  0  0  0  # atno 17320 bound_to 7965
  144.6739  140.1751  143.7411 LP  0  0  0  0  0  0  0  0  0  0  0  0  # atno 17321 bound_to 7965
  140.0442  144.5983  150.7387 LP  0  0  0  0  0  0  0  0  0  0  0  0  # atno 17342 bound_to 10162
  140.7315  143.2695  151.3933 LP  0  0  0  0  0  0  0  0  0  0  0  0  # atno 17343 bound_to 10162
  157.7478  131.0029  150.3018 LP  0  0  0  0  0  0  0  0  0  0  0  0  # atno 17370 bound_to 10713
  156.3474  130.3825  149.7358 LP  0  0  0  0  0  0  0  0  0  0  0  0  # atno 17371 bound_to 10713
  141.0695  133.6803  156.2112 LP  0  0  0  0  0  0  0  0  0  0  0  0  # atno 17394 bound_to 11000
  140.6530  134.5047  157.5579 LP  0  0  0  0  0  0  0  0  0  0  0  0  # atno 17395 bound_to 11000

$$$$
