AV-unprocessed.smi:2706|AV-procd|sdf|10444|dock8
  -GOLD-   2272014483D 1   1.00000     0.00000
 Structure written by MMmdl.
 43 46  0  0  0  0  0  0  0  0  1 V2000
  145.9105  131.7612  149.3655 C   0  0  0  0  0  0  0  0  0  0  0  0
  144.6674  132.5207  149.4158 N   0  0  0  0  0  0  0  0  0  0  0  0
  143.6706  132.3586  148.3619 C   0  0  0  0  0  0  0  0  0  0  0  0
  144.3997  133.3755  150.5092 C   0  0  0  0  0  0  0  0  0  0  0  0
  143.1867  133.2945  151.2347 C   0  0  0  0  0  0  0  0  0  0  0  0
  142.9781  134.1742  152.3119 C   0  0  0  0  0  0  0  0  0  0  0  0
  143.9798  135.1067  152.6351 C   0  0  0  0  0  0  0  0  0  0  0  0
  145.1663  135.1343  151.8728 C   0  0  0  0  0  0  0  0  0  0  0  0
  146.1193  136.1089  152.2714 N   0  0  0  0  0  0  0  0  0  0  0  0
  145.8974  137.2908  152.8737 C   0  0  0  0  0  0  0  0  0  0  0  0
  144.7907  137.7391  153.1762 O   0  0  0  0  0  0  0  0  0  0  0  0
  147.0486  137.9359  153.1080 N   0  0  0  0  0  0  0  0  0  0  0  0
  147.1717  139.2179  153.7227 C   0  0  2  0  0  0  0  0  0  0  0  0
  148.5674  139.7988  153.8225 C   0  0  1  0  0  0  0  0  0  0  0  0
  148.9443  141.2254  154.2151 C   0  0  1  0  0  0  0  0  0  0  0  0
  147.6980  142.1303  154.3033 C   0  0  0  0  0  0  0  0  0  0  0  0
  146.9874  141.5964  155.5668 C   0  0  0  0  0  0  0  0  0  0  0  0
  147.9276  140.4612  156.0231 C   0  0  2  0  0  0  0  0  0  0  0  0
  149.2884  141.0662  155.6928 C   0  0  0  0  0  0  0  0  0  0  0  0
  147.8696  139.2732  155.0657 C   0  0  1  0  0  0  0  0  0  0  0  0
  145.3535  134.2804  150.8373 N   0  0  0  0  0  0  0  0  0  0  0  0
  146.7690  132.4328  149.3434 H   0  0  0  0  0  0  0  0  0  0  0  0
  145.9566  131.1343  148.4750 H   0  0  0  0  0  0  0  0  0  0  0  0
  145.9971  131.1095  150.2356 H   0  0  0  0  0  0  0  0  0  0  0  0
  143.4494  133.3176  147.8925 H   0  0  0  0  0  0  0  0  0  0  0  0
  142.7446  131.9521  148.7700 H   0  0  0  0  0  0  0  0  0  0  0  0
  144.0193  131.6795  147.5838 H   0  0  0  0  0  0  0  0  0  0  0  0
  142.4165  132.5793  150.9886 H   0  0  0  0  0  0  0  0  0  0  0  0
  142.0619  134.1344  152.8821 H   0  0  0  0  0  0  0  0  0  0  0  0
  143.8343  135.7897  153.4594 H   0  0  0  0  0  0  0  0  0  0  0  0
  147.0822  135.8785  152.0763 H   0  0  0  0  0  0  0  0  0  0  0  0
  147.9077  137.4880  152.8248 H   0  0  0  0  0  0  0  0  0  0  0  0
  146.3505  139.9097  153.5518 H   0  0  0  0  0  0  0  0  0  0  0  0
  149.3957  139.1936  153.4576 H   0  0  0  0  0  0  0  0  0  0  0  0
  149.7469  141.6263  153.5956 H   0  0  0  0  0  0  0  0  0  0  0  0
  147.9880  143.1728  154.4419 H   0  0  0  0  0  0  0  0  0  0  0  0
  147.0781  142.0790  153.4079 H   0  0  0  0  0  0  0  0  0  0  0  0
  146.9272  142.3762  156.3271 H   0  0  0  0  0  0  0  0  0  0  0  0
  145.9723  141.2484  155.3735 H   0  0  0  0  0  0  0  0  0  0  0  0
  147.7972  140.1606  157.0629 H   0  0  0  0  0  0  0  0  0  0  0  0
  150.1192  140.3807  155.8702 H   0  0  0  0  0  0  0  0  0  0  0  0
  149.4866  142.0106  156.2033 H   0  0  0  0  0  0  0  0  0  0  0  0
  148.2647  138.3427  155.4698 H   0  0  0  0  0  0  0  0  0  0  0  0
  1  2  1  0  0  0  0
  1 22  1  0  0  0  0
  1 23  1  0  0  0  0
  1 24  1  0  0  0  0
  2  3  1  0  0  0  0
  2  4  1  0  0  0  0
  3 25  1  0  0  0  0
  3 26  1  0  0  0  0
  3 27  1  0  0  0  0
  4 21  1  0  0  0  0
  4  5  2  0  0  0  0
  5  6  1  0  0  0  0
  5 28  1  0  0  0  0
  6  7  2  0  0  0  0
  6 29  1  0  0  0  0
  7  8  1  0  0  0  0
  7 30  1  0  0  0  0
  8  9  1  0  0  0  0
  8 21  2  0  0  0  0
  9 10  1  0  0  0  0
  9 31  1  0  0  0  0
 10 11  2  0  0  0  0
 10 12  1  0  0  0  0
 12 13  1  0  0  0  0
 12 32  1  0  0  0  0
 13 20  1  0  0  0  0
 13 14  1  0  0  0  0
 13 33  1  0  0  0  0
 14 20  1  0  0  0  0
 14 15  1  0  0  0  0
 14 34  1  0  0  0  0
 15 19  1  0  0  0  0
 15 16  1  0  0  0  0
 15 35  1  0  0  0  0
 16 17  1  0  0  0  0
 16 36  1  0  0  0  0
 16 37  1  0  0  0  0
 17 18  1  0  0  0  0
 17 38  1  0  0  0  0
 17 39  1  0  0  0  0
 18 19  1  0  0  0  0
 18 20  1  0  0  0  0
 18 40  1  0  0  0  0
 19 41  1  0  0  0  0
 19 42  1  0  0  0  0
 20 43  1  0  0  0  0
M  END
> <s_m_source_file>
AV-unprocessed.smi

> <i_m_source_file_index>
2706

> <i_lp_mmshare_version>
43012

> <i_f3d_flags>
0

> <s_epik_input>
W0NIM11OKFtDSDNdKWMxW2NIXVtjSF1bY0hdYyhuMSlbTkhdQyg9TylbTkhdW0NASF0yW0NAQEhdM1tDQEBIXShbQ0gyXTQpW0NIMl1bQ0gyXVtDQEBIXTRbQ0BIXTIz

> <s_epik_cmdline>
J2VwaWtfcHl0aG9uJywgJy1waCcsICc3LjAnLCAnLXRuJywgJzgnLCAnLW1hJywgJzIwMCcsICctbWV0YWxfYmluZGluZycsICctaW1hZScsICc8aW5maWxlLm1hZT4nLCAnLW9tYWUnLCAnPG91dGZpbGUubWFlPic=

> <r_lp_tautomer_probability>
1

> <r_epik_Ionization_Penalty>
0.0296788

> <r_epik_Ionization_Penalty_Charging>
0

> <r_epik_Ionization_Penalty_Neutral>
0.0296788

> <r_epik_State_Penalty>
0.0248512

> <r_epik_Charging_Adjusted_Penalty>
0.0248512

> <i_epik_Tot_Q>
0

> <i_epik_Tot_abs_Q>
0

> <r_epik_Metal_State_Penalty>
0.0237882

> <b_epik_Metal_Only>
0

> <s_lp_Force_Field>
OPLS_2005

> <r_lp_Energy>
79.5337

> <b_lp_Chiralities_Consistent>
1

> <s_lp_Variant>
AV-unprocessed.smi:2706-1

> <Gold.Version>
5.8.1

> <Gold.Id.Protein>
6NUR|6NUR_protein|mol2

> <Gold.PLP.Fitness>
38.5285

> <Gold.PLP.PLP>
-34.6530

> <Gold.PLP.part.hbond>
-2.0000

> <Gold.PLP.part.metal>
0.0000

> <Gold.PLP.part.buried>
0.5196

> <Gold.PLP.part.nonpolar>
-34.5473

> <Gold.PLP.part.repulsive>
1.1474

> <Gold.PLP.ligand.clash>
0.0000

> <Gold.PLP.ligand.torsion>
1.0825

> <Gold.PLP.Chemscore.Hbond>
2.0000

> <Gold.PLP.Chemscore.CHOScore>
0.0000

> <Gold.PLP.Chemscore.Metal>
0.0000

> <Gold.Chemscore.Hbonds>
donor molecule, donor type, donor heavy atom, donor atom, acceptor molecule, acceptor atom, score
      L1  H     9    31       P1  7948  1.00
      L1  H    12    32       P1  7948  1.00

> <Gold.PLP.Chemscore.Internal.Correction>
0.0406

> <Gold.Rescore>
     Score         DG    S(hbond)    S(metal)    S(lipo)     H(rot)  DE(clash)    DE(int)     intcor
     16.41     -19.38       1.97        0.00      84.43       1.00       0.70       2.27       ----

> <Gold.Chemscore.Fitness>
16.4104

> <Gold.Chemscore.DG>
-19.3773

> <Gold.Chemscore.ZeroCoef>
-5.4800

> <Gold.Chemscore.Hbond>
1.9698

> <Gold.Chemscore.Metal>
0.0000

> <Gold.Chemscore.Lipo>
84.4282

> <Gold.Chemscore.Internal_Hbond>
0.0000

> <Gold.Chemscore.DEClash>
0.6964

> <Gold.Chemscore.DEInternal>
2.2705

> <Gold.Chemscore.Rot>
1.0000

> <Gold.Chemscore.Internal.Correction>
   9.000000E+99

> <Gold.Chemscore.Hbonds>
donor molecule, donor type, donor heavy atom, donor atom, acceptor molecule, acceptor atom, score
      L1  H     9    31       P1  7948  0.99
      L1  H    12    32       P1  7948  0.98

> <Gold.Chemscore.Hbond.Weighted>
-6.5792

> <Gold.Chemscore.Metal.Weighted>
-0.0000

> <Gold.Chemscore.Lipo.Weighted>
-9.8781

> <Gold.Chemscore.Internal_Hbond.Weighted>
0.0000

> <Gold.Chemscore.DEClash.Weighted>
0.6964

> <Gold.Chemscore.DEInternal.Weighted>
2.2705

> <Gold.Chemscore.Rot.Weighted>
2.5600

> <Gold.Chemscore.Internal.Correction.Weighted>
   9.000000E+99

> <Gold.Protein.RotatedTorsions>
[ 6907 6896 6895 6894 ] final   39.76 input  -60.11 | X-H torsion
[ 7974 7965 7964 7962 ] final  137.04 input  175.53 | X-H torsion
[ 8008 7997 7996 7995 ] final  -44.96 input   59.86 | X-H torsion
[ 10167 10162 10161 10158 ] final   13.22 input  -65.29 | X-H torsion
[ 10718 10713 10712 10709 ] final -169.55 input   66.30 | X-H torsion
[ 10763 10752 10751 10750 ] final -110.55 input  -60.55 | X-H torsion
[ 11005 11000 10999 10996 ] final   27.73 input  -57.11 | X-H torsion

> <Gold.Protein.ActiveResidues>
 VAL166  LYS551  ARG553  GLY616  TRP617  ASP618  TYR619  PRO620  LYS621  CYS622 
 ASP623  PHE694  ASN695  SER759  ASP760  ASP761  ALA762  ILE779  LEU786  VAL792 
 PHE793  MET794  SER795  GLU796  ALA797  LYS798  CYS799  TRP800  GLU811  SER814 

> <Gold.Protein.RotatedAtoms>
  152.1737  134.8812  160.0532 H   0  0  0  0  0  0  0  0  0  0  0  0  # atno 6907 bound_to 6896
  151.9763  133.3737  159.4098 H   0  0  0  0  0  0  0  0  0  0  0  0  # atno 6908 bound_to 6896
  150.6906  134.4010  159.5162 H   0  0  0  0  0  0  0  0  0  0  0  0  # atno 6909 bound_to 6896
  144.9507  139.4822  143.5527 H   0  0  0  0  0  0  0  0  0  0  0  0  # atno 7974 bound_to 7965
  154.3999  140.1409  156.3770 H   0  0  0  0  0  0  0  0  0  0  0  0  # atno 8008 bound_to 7997
  155.8040  140.3475  155.5398 H   0  0  0  0  0  0  0  0  0  0  0  0  # atno 8009 bound_to 7997
  155.8455  140.0933  157.1698 H   0  0  0  0  0  0  0  0  0  0  0  0  # atno 8010 bound_to 7997
  140.6016  143.8592  150.6971 H   0  0  0  0  0  0  0  0  0  0  0  0  # atno 10167 bound_to 10162
  156.7132  130.9241  151.3091 H   0  0  0  0  0  0  0  0  0  0  0  0  # atno 10718 bound_to 10713
  154.8254  135.4560  154.0902 H   0  0  0  0  0  0  0  0  0  0  0  0  # atno 10763 bound_to 10752
  153.2221  135.6895  153.7995 H   0  0  0  0  0  0  0  0  0  0  0  0  # atno 10764 bound_to 10752
  153.7408  135.3313  155.3280 H   0  0  0  0  0  0  0  0  0  0  0  0  # atno 10765 bound_to 10752
  140.3231  134.2521  155.7714 H   0  0  0  0  0  0  0  0  0  0  0  0  # atno 11005 bound_to 11000
  146.3320  139.8590  142.8859 LP  0  0  0  0  0  0  0  0  0  0  0  0  # atno 17320 bound_to 7965
  145.2849  141.0150  143.3696 LP  0  0  0  0  0  0  0  0  0  0  0  0  # atno 17321 bound_to 7965
  140.2139  143.3861  152.1696 LP  0  0  0  0  0  0  0  0  0  0  0  0  # atno 17342 bound_to 10162
  139.5295  144.7143  151.5106 LP  0  0  0  0  0  0  0  0  0  0  0  0  # atno 17343 bound_to 10162
  157.6927  130.9250  150.0559 LP  0  0  0  0  0  0  0  0  0  0  0  0  # atno 17370 bound_to 10713
  156.1646  130.3644  149.9250 LP  0  0  0  0  0  0  0  0  0  0  0  0  # atno 17371 bound_to 10713
  141.2082  133.7785  157.0075 LP  0  0  0  0  0  0  0  0  0  0  0  0  # atno 17394 bound_to 11000
  140.0924  134.9584  157.1797 LP  0  0  0  0  0  0  0  0  0  0  0  0  # atno 17395 bound_to 11000

$$$$
