AV-unprocessed.smi:162|AV-procd|sdf|1378|dock3
  -GOLD-   2262019103D 1   1.00000     0.00000
 Structure written by MMmdl.
 54 57  0  0  0  0  0  0  0  0  1 V2000
  152.5343  138.6955  154.7569 C   0  0  0  0  0  0  0  0  0  0  0  0
  152.6190  139.5714  155.8663 O   0  0  0  0  0  0  0  0  0  0  0  0
  151.3600  139.8037  156.4768 C   0  0  0  0  0  0  0  0  0  0  0  0
  151.2478  141.2896  156.8552 C   0  0  2  0  0  0  0  0  0  0  0  0
  152.1652  141.7040  158.0023 C   0  0  0  0  0  0  0  0  0  0  0  0
  151.5482  143.0371  158.4346 C   0  0  2  0  0  0  0  0  0  0  0  0
  151.7825  143.3495  159.8001 O   0  0  0  0  0  0  0  0  0  0  0  0
  151.5411  144.7097  160.1215 C   0  0  0  0  0  0  0  0  0  0  0  0
  150.0470  142.8447  158.1711 C   0  0  0  0  0  0  0  0  0  0  0  0
  149.9201  141.6583  157.3323 N   0  0  0  0  0  0  0  0  0  0  0  0
  148.9316  141.7160  156.4148 C   0  0  0  0  0  0  0  0  0  0  0  0
  149.2738  141.4569  155.1294 N   0  0  0  0  0  0  0  0  0  0  0  0
  148.3461  141.5076  154.1687 C   0  0  0  0  0  0  0  0  0  0  0  0
  147.0458  141.7900  154.2767 N   0  0  0  0  0  0  0  0  0  0  0  0
  146.6990  142.0432  155.5715 C   0  0  0  0  0  0  0  0  0  0  0  0
  147.5706  142.0245  156.6963 C   0  0  0  0  0  0  0  0  0  0  0  0
  146.8586  142.3223  157.8522 N   0  0  0  0  0  0  0  0  0  0  0  0
  145.6382  142.5171  157.4326 C   0  0  0  0  0  0  0  0  0  0  0  0
  145.4517  142.3650  156.0770 N   0  0  0  0  0  0  0  0  0  0  0  0
  144.2046  142.5218  155.3440 C   0  0  0  0  0  0  0  0  0  0  0  0
  143.8291  143.9952  155.0508 C   0  0  0  0  0  0  0  0  0  0  0  0
  144.3530  144.3255  153.7757 O   0  0  0  0  0  0  0  0  0  0  0  0
  142.2967  144.1612  155.0047 C   0  0  0  0  0  0  0  0  0  0  0  0
  141.8772  145.6367  154.8777 C   0  0  0  0  0  0  0  0  0  0  0  0
  142.4464  146.3964  155.9369 O   0  0  0  0  0  0  0  0  0  0  0  0
  143.8683  146.4057  155.9048 C   0  0  0  0  0  0  0  0  0  0  0  0
  144.4133  144.9781  156.0895 C   0  0  0  0  0  0  0  0  0  0  0  0
  151.5134  141.8934  155.9874 H   0  0  0  0  0  0  0  0  0  0  0  0
  151.9131  143.8380  157.7887 H   0  0  0  0  0  0  0  0  0  0  0  0
  153.5251  138.5566  154.3246 H   0  0  0  0  0  0  0  0  0  0  0  0
  151.8828  139.1030  153.9828 H   0  0  0  0  0  0  0  0  0  0  0  0
  152.1563  137.7168  155.0554 H   0  0  0  0  0  0  0  0  0  0  0  0
  150.5423  139.5105  155.8162 H   0  0  0  0  0  0  0  0  0  0  0  0
  151.2891  139.1911  157.3771 H   0  0  0  0  0  0  0  0  0  0  0  0
  152.1044  140.9790  158.8157 H   0  0  0  0  0  0  0  0  0  0  0  0
  153.2088  141.7932  157.7000 H   0  0  0  0  0  0  0  0  0  0  0  0
  151.7155  144.8675  161.1857 H   0  0  0  0  0  0  0  0  0  0  0  0
  150.5093  144.9899  159.9057 H   0  0  0  0  0  0  0  0  0  0  0  0
  152.2074  145.3762  159.5733 H   0  0  0  0  0  0  0  0  0  0  0  0
  149.5152  142.6546  159.1040 H   0  0  0  0  0  0  0  0  0  0  0  0
  149.6076  143.7341  157.7166 H   0  0  0  0  0  0  0  0  0  0  0  0
  148.6965  141.2910  153.1704 H   0  0  0  0  0  0  0  0  0  0  0  0
  144.8329  142.7743  158.1054 H   0  0  0  0  0  0  0  0  0  0  0  0
  144.2812  141.9561  154.4142 H   0  0  0  0  0  0  0  0  0  0  0  0
  143.4128  142.0445  155.9226 H   0  0  0  0  0  0  0  0  0  0  0  0
  143.9043  143.8082  153.1244 H   0  0  0  0  0  0  0  0  0  0  0  0
  141.8719  143.5786  154.1864 H   0  0  0  0  0  0  0  0  0  0  0  0
  141.8634  143.7593  155.9218 H   0  0  0  0  0  0  0  0  0  0  0  0
  142.1776  146.0514  153.9143 H   0  0  0  0  0  0  0  0  0  0  0  0
  140.7916  145.7208  154.9313 H   0  0  0  0  0  0  0  0  0  0  0  0
  144.2194  146.8421  154.9684 H   0  0  0  0  0  0  0  0  0  0  0  0
  144.2320  147.0489  156.7062 H   0  0  0  0  0  0  0  0  0  0  0  0
  144.1550  144.6352  157.0923 H   0  0  0  0  0  0  0  0  0  0  0  0
  145.5029  144.9939  156.0432 H   0  0  0  0  0  0  0  0  0  0  0  0
  1  2  1  0  0  0  0
  1 30  1  0  0  0  0
  1 31  1  0  0  0  0
  1 32  1  0  0  0  0
  2  3  1  0  0  0  0
  3  4  1  0  0  0  0
  3 33  1  0  0  0  0
  3 34  1  0  0  0  0
  4 28  1  0  0  0  0
  4 10  1  0  0  0  0
  4  5  1  0  0  0  0
  5  6  1  0  0  0  0
  5 35  1  0  0  0  0
  5 36  1  0  0  0  0
  6 29  1  0  0  0  0
  6  7  1  0  0  0  0
  6  9  1  0  0  0  0
  7  8  1  0  0  0  0
  8 37  1  0  0  0  0
  8 38  1  0  0  0  0
  8 39  1  0  0  0  0
  9 10  1  0  0  0  0
  9 40  1  0  0  0  0
  9 41  1  0  0  0  0
 10 11  1  0  0  0  0
 11 16  1  0  0  0  0
 11 12  2  0  0  0  0
 12 13  1  0  0  0  0
 13 14  2  0  0  0  0
 13 42  1  0  0  0  0
 14 15  1  0  0  0  0
 15 19  1  0  0  0  0
 15 16  2  0  0  0  0
 16 17  1  0  0  0  0
 17 18  2  0  0  0  0
 18 19  1  0  0  0  0
 18 43  1  0  0  0  0
 19 20  1  0  0  0  0
 20 21  1  0  0  0  0
 20 44  1  0  0  0  0
 20 45  1  0  0  0  0
 21 27  1  0  0  0  0
 21 22  1  0  0  0  0
 21 23  1  0  0  0  0
 22 46  1  0  0  0  0
 23 24  1  0  0  0  0
 23 47  1  0  0  0  0
 23 48  1  0  0  0  0
 24 25  1  0  0  0  0
 24 49  1  0  0  0  0
 24 50  1  0  0  0  0
 25 26  1  0  0  0  0
 26 27  1  0  0  0  0
 26 51  1  0  0  0  0
 26 52  1  0  0  0  0
 27 53  1  0  0  0  0
 27 54  1  0  0  0  0
M  END
> <s_m_source_file>
AV-unprocessed.smi

> <i_m_source_file_index>
162

> <i_lp_mmshare_version>
43012

> <i_f3d_flags>
0

> <s_epik_input>
W0NIM11PW0NIMl1bQ0BASF0xW0NIMl1bQ0BASF0oT1tDSDNdKVtDSDJdTjFjKG5bY0hdbjIpYyhjMjMpbltjSF1uM1tDSDJdQzQoW09IXSlbQ0gyXVtDSDJdT1tDSDJdW0NIMl00

> <s_epik_cmdline>
J2VwaWtfcHl0aG9uJywgJy1waCcsICc3LjAnLCAnLXRuJywgJzgnLCAnLW1hJywgJzIwMCcsICctbWV0YWxfYmluZGluZycsICctaW1hZScsICc8aW5maWxlLm1hZT4nLCAnLW9tYWUnLCAnPG91dGZpbGUubWFlPic=

> <r_lp_tautomer_probability>
1

> <r_epik_Ionization_Penalty>
0.00660334

> <r_epik_Ionization_Penalty_Charging>
0

> <r_epik_Ionization_Penalty_Neutral>
0.00660334

> <r_epik_State_Penalty>
0.00469459

> <r_epik_Charging_Adjusted_Penalty>
0.00469459

> <i_epik_Tot_Q>
0

> <i_epik_Tot_abs_Q>
0

> <r_epik_Metal_State_Penalty>
-0

> <b_epik_Metal_Only>
0

> <s_lp_Force_Field>
OPLS_2005

> <r_lp_Energy>
44.4659

> <b_lp_Chiralities_Consistent>
1

> <s_lp_Variant>
AV-unprocessed.smi:162-3

> <Gold.Version>
5.8.1

> <Gold.Id.Protein>
6NUR|6NUR_protein|mol2

> <Gold.PLP.Fitness>
44.0732

> <Gold.PLP.PLP>
-37.7744

> <Gold.PLP.part.hbond>
-2.0000

> <Gold.PLP.part.metal>
0.0000

> <Gold.PLP.part.buried>
-8.1732

> <Gold.PLP.part.nonpolar>
-27.3897

> <Gold.PLP.part.repulsive>
0.4962

> <Gold.PLP.ligand.clash>
0.0000

> <Gold.PLP.ligand.torsion>
1.4392

> <Gold.PLP.Chemscore.Hbond>
2.0000

> <Gold.PLP.Chemscore.CHOScore>
1.0000

> <Gold.PLP.Chemscore.Metal>
0.0000

> <Gold.Chemscore.Hbonds>
donor molecule, donor type, donor heavy atom, donor atom, acceptor molecule, acceptor atom, score
      L1  H    22    46       P1 10174  0.96
      P1  H  7997  8010       L1     2  1.00
      L1  C    13    42       P1  7957  1.00

> <Gold.PLP.Chemscore.Internal.Correction>
0.1773

> <Gold.Rescore>
     Score         DG    S(hbond)    S(metal)    S(lipo)     H(rot)  DE(clash)    DE(int)     intcor
     10.87     -14.33       1.79        0.00      87.09       2.86       0.19       3.27       ----

> <Gold.Chemscore.Fitness>
10.8705

> <Gold.Chemscore.DG>
-14.3296

> <Gold.Chemscore.ZeroCoef>
-5.4800

> <Gold.Chemscore.Hbond>
1.7942

> <Gold.Chemscore.Metal>
0.0000

> <Gold.Chemscore.Lipo>
87.0871

> <Gold.Chemscore.Internal_Hbond>
0.0000

> <Gold.Chemscore.DEClash>
0.1928

> <Gold.Chemscore.DEInternal>
3.2663

> <Gold.Chemscore.Rot>
2.8642

> <Gold.Chemscore.Internal.Correction>
   9.000000E+99

> <Gold.Chemscore.Hbonds>
donor molecule, donor type, donor heavy atom, donor atom, acceptor molecule, acceptor atom, score
      L1  H    22    46       P1 10174  0.63
      P1  H  7997  8010       L1     2  0.54

> <Gold.Chemscore.Hbond.Weighted>
-5.9928

> <Gold.Chemscore.Metal.Weighted>
-0.0000

> <Gold.Chemscore.Lipo.Weighted>
-10.1892

> <Gold.Chemscore.Internal_Hbond.Weighted>
0.0000

> <Gold.Chemscore.DEClash.Weighted>
0.1928

> <Gold.Chemscore.DEInternal.Weighted>
3.2663

> <Gold.Chemscore.Rot.Weighted>
7.3324

> <Gold.Chemscore.Internal.Correction.Weighted>
   9.000000E+99

> <Gold.Protein.RotatedTorsions>
[ 6907 6896 6895 6894 ] final  120.54 input  -60.11 | X-H torsion
[ 7974 7965 7964 7962 ] final   57.46 input  175.53 | X-H torsion
[ 8008 7997 7996 7995 ] final  103.11 input   59.86 | X-H torsion
[ 10167 10162 10161 10158 ] final    7.40 input  -65.29 | X-H torsion
[ 10718 10713 10712 10709 ] final  129.51 input   66.30 | X-H torsion
[ 10763 10752 10751 10750 ] final  166.51 input  -60.55 | X-H torsion
[ 11005 11000 10999 10996 ] final  126.20 input  -57.11 | X-H torsion

> <Gold.Protein.ActiveResidues>
 VAL166  LYS551  ARG553  GLY616  TRP617  ASP618  TYR619  PRO620  LYS621  CYS622 
 ASP623  PHE694  ASN695  SER759  ASP760  ASP761  ALA762  ILE779  LEU786  VAL792 
 PHE793  MET794  SER795  GLU796  ALA797  LYS798  CYS799  TRP800  GLU811  SER814 

> <Gold.Protein.RotatedAtoms>
  152.4390  133.7414  159.6642 H   0  0  0  0  0  0  0  0  0  0  0  0  # atno 6907 bound_to 6896
  150.8278  133.8131  159.3117 H   0  0  0  0  0  0  0  0  0  0  0  0  # atno 6908 bound_to 6896
  151.5794  135.1061  160.0065 H   0  0  0  0  0  0  0  0  0  0  0  0  # atno 6909 bound_to 6896
  145.9287  139.3790  143.0434 H   0  0  0  0  0  0  0  0  0  0  0  0  # atno 7974 bound_to 7965
  156.1454  140.3170  155.8562 H   0  0  0  0  0  0  0  0  0  0  0  0  # atno 8008 bound_to 7997
  155.4074  140.0503  157.3050 H   0  0  0  0  0  0  0  0  0  0  0  0  # atno 8009 bound_to 7997
  154.5012  140.2130  155.9355 H   0  0  0  0  0  0  0  0  0  0  0  0  # atno 8010 bound_to 7997
  140.6374  143.7855  150.7378 H   0  0  0  0  0  0  0  0  0  0  0  0  # atno 10167 bound_to 10162
  157.5147  131.1097  150.9241 H   0  0  0  0  0  0  0  0  0  0  0  0  # atno 10718 bound_to 10713
  154.3400  135.2754  155.2427 H   0  0  0  0  0  0  0  0  0  0  0  0  # atno 10763 bound_to 10752
  154.4702  135.5885  153.6320 H   0  0  0  0  0  0  0  0  0  0  0  0  # atno 10764 bound_to 10752
  152.9858  135.6086  154.3600 H   0  0  0  0  0  0  0  0  0  0  0  0  # atno 10765 bound_to 10752
  139.9444  134.9631  156.8672 H   0  0  0  0  0  0  0  0  0  0  0  0  # atno 11005 bound_to 11000
  145.8454  140.9558  143.0777 LP  0  0  0  0  0  0  0  0  0  0  0  0  # atno 17320 bound_to 7965
  144.6762  140.0338  143.7482 LP  0  0  0  0  0  0  0  0  0  0  0  0  # atno 17321 bound_to 7965
  140.1479  143.4384  152.2151 LP  0  0  0  0  0  0  0  0  0  0  0  0  # atno 17342 bound_to 10162
  139.5584  144.7389  151.4227 LP  0  0  0  0  0  0  0  0  0  0  0  0  # atno 17343 bound_to 10162
  156.9870  130.5549  149.5300 LP  0  0  0  0  0  0  0  0  0  0  0  0  # atno 17370 bound_to 10713
  156.0313  130.5404  150.8540 LP  0  0  0  0  0  0  0  0  0  0  0  0  # atno 17371 bound_to 10713
  140.5870  134.0297  155.7485 LP  0  0  0  0  0  0  0  0  0  0  0  0  # atno 17394 bound_to 11000
  141.1090  133.9647  157.2945 LP  0  0  0  0  0  0  0  0  0  0  0  0  # atno 17395 bound_to 11000

$$$$
