AV-unprocessed.smi:3095|AV-procd|sdf|11792|dock4
  -GOLD-   2272017173D 1   1.00000     0.00000
 Structure written by MMmdl.
 25 26  0  0  0  0  0  0  0  0  2 V2000
  154.6243  140.9202  162.6658 C   0  0  0  0  0  0  0  0  0  0  0  0
  153.7041  141.7538  161.8305 C   0  0  0  0  0  0  0  0  0  0  0  0
  153.0788  142.9171  162.2033 C   0  0  0  0  0  0  0  0  0  0  0  0
  152.0910  143.5626  160.9219 S   0  0  0  0  0  0  0  0  0  0  0  0
  152.5845  142.2159  159.9018 C   0  0  0  0  0  0  0  0  0  0  0  0
  152.0766  142.0275  158.5077 C   0  0  2  0  0  0  0  0  0  0  0  0
  151.2528  143.2312  158.0124 C   0  0  0  0  0  0  0  0  0  0  0  0
  150.7142  142.9518  156.6669 N   0  3  0  0  0  0  0  0  0  0  0  0
  149.9409  141.6943  156.6429 C   0  0  0  0  0  0  0  0  0  0  0  0
  150.7925  140.5362  157.1933 C   0  0  0  0  0  0  0  0  0  0  0  0
  151.2596  140.8588  158.4992 O   0  0  0  0  0  0  0  0  0  0  0  0
  153.4045  141.3614  160.5227 N   0  0  0  0  0  0  0  0  0  0  0  0
  154.7354  141.3321  163.6692 H   0  0  0  0  0  0  0  0  0  0  0  0
  155.6183  140.8653  162.2215 H   0  0  0  0  0  0  0  0  0  0  0  0
  154.2503  139.9014  162.7684 H   0  0  0  0  0  0  0  0  0  0  0  0
  153.1375  143.4303  163.1520 H   0  0  0  0  0  0  0  0  0  0  0  0
  152.9369  141.8686  157.8550 H   0  0  0  0  0  0  0  0  0  0  0  0
  150.4248  143.4342  158.6935 H   0  0  0  0  0  0  0  0  0  0  0  0
  151.8676  144.1308  157.9745 H   0  0  0  0  0  0  0  0  0  0  0  0
  150.1223  143.7168  156.3754 H   0  0  0  0  0  0  0  0  0  0  0  0
  149.0387  141.8167  157.2438 H   0  0  0  0  0  0  0  0  0  0  0  0
  149.6221  141.4850  155.6215 H   0  0  0  0  0  0  0  0  0  0  0  0
  150.1975  139.6243  157.2459 H   0  0  0  0  0  0  0  0  0  0  0  0
  151.6378  140.3276  156.5354 H   0  0  0  0  0  0  0  0  0  0  0  0
  151.4863  142.8684  156.0211 H   0  0  0  0  0  0  0  0  0  0  0  0
  1  2  1  0  0  0  0
  1 13  1  0  0  0  0
  1 14  1  0  0  0  0
  1 15  1  0  0  0  0
  2 12  1  0  0  0  0
  2  3  2  0  0  0  0
  3  4  1  0  0  0  0
  3 16  1  0  0  0  0
  4  5  1  0  0  0  0
  5  6  1  0  0  0  0
  5 12  2  0  0  0  0
  6 11  1  0  0  0  0
  6  7  1  0  0  0  0
  6 17  1  0  0  0  0
  7  8  1  0  0  0  0
  7 18  1  0  0  0  0
  7 19  1  0  0  0  0
  8  9  1  0  0  0  0
  8 20  1  0  0  0  0
  8 25  1  0  0  0  0
  9 10  1  0  0  0  0
  9 21  1  0  0  0  0
  9 22  1  0  0  0  0
 10 11  1  0  0  0  0
 10 23  1  0  0  0  0
 10 24  1  0  0  0  0
M  CHG  1   8   1
M  END
> <s_m_source_file>
AV-unprocessed.smi

> <i_m_source_file_index>
3095

> <i_lp_mmshare_version>
43012

> <i_f3d_flags>
0

> <s_epik_input>
W0NIM11jMVtjSF1zYyhuMSlbQ0BASF0yW0NIMl1bTkhdW0NIMl1bQ0gyXU8y

> <s_epik_cmdline>
J2VwaWtfcHl0aG9uJywgJy1waCcsICc3LjAnLCAnLXRuJywgJzgnLCAnLW1hJywgJzIwMCcsICctbWV0YWxfYmluZGluZycsICctaW1hZScsICc8aW5maWxlLm1hZT4nLCAnLW9tYWUnLCAnPG91dGZpbGUubWFlPic=

> <r_epik_Ionization_Penalty>
0.125709

> <r_epik_Ionization_Penalty_Charging>
0.125708

> <r_epik_Ionization_Penalty_Neutral>
7.00244e-07

> <r_epik_State_Penalty>
0.0155371

> <r_epik_Charging_Adjusted_Penalty>
0.141245

> <i_epik_Tot_Q>
1

> <i_epik_Tot_abs_Q>
1

> <r_epik_Metal_State_Penalty>
0.0155948

> <b_epik_Metal_Only>
0

> <s_lp_Force_Field>
OPLS_2005

> <r_lp_Energy>
6.74862

> <b_lp_Chiralities_Consistent>
1

> <s_lp_Variant>
AV-unprocessed.smi:3095-1

> <Gold.Version>
5.8.1

> <Gold.Id.Protein>
6NUR|6NUR_protein|mol2

> <Gold.PLP.Fitness>
33.0782

> <Gold.PLP.PLP>
-27.2358

> <Gold.PLP.part.hbond>
-1.0000

> <Gold.PLP.part.metal>
0.0000

> <Gold.PLP.part.buried>
-3.4358

> <Gold.PLP.part.nonpolar>
-22.6055

> <Gold.PLP.part.repulsive>
0.0552

> <Gold.PLP.ligand.clash>
0.0000

> <Gold.PLP.ligand.torsion>
0.0839

> <Gold.PLP.Chemscore.Hbond>
2.0000

> <Gold.PLP.Chemscore.CHOScore>
0.0000

> <Gold.PLP.Chemscore.Metal>
0.0000

> <Gold.Chemscore.Hbonds>
donor molecule, donor type, donor heavy atom, donor atom, acceptor molecule, acceptor atom, score
      L1  H     8    20       P1  8028  2.00

> <Gold.PLP.Chemscore.Internal.Correction>
0.0100

> <Gold.Rescore>
     Score         DG    S(hbond)    S(metal)    S(lipo)     H(rot)  DE(clash)    DE(int)     intcor
     15.67     -15.74       1.00        0.00      81.12       1.00       0.02       0.05       ----

> <Gold.Chemscore.Fitness>
15.6676

> <Gold.Chemscore.DG>
-15.7389

> <Gold.Chemscore.ZeroCoef>
-5.4800

> <Gold.Chemscore.Hbond>
0.9963

> <Gold.Chemscore.Metal>
0.0000

> <Gold.Chemscore.Lipo>
81.1233

> <Gold.Chemscore.Internal_Hbond>
0.0000

> <Gold.Chemscore.DEClash>
0.0215

> <Gold.Chemscore.DEInternal>
0.0499

> <Gold.Chemscore.Rot>
1.0000

> <Gold.Chemscore.Internal.Correction>
   9.000000E+99

> <Gold.Chemscore.Hbonds>
donor molecule, donor type, donor heavy atom, donor atom, acceptor molecule, acceptor atom, score
      L1  H     8    20       P1  8028  1.00

> <Gold.Chemscore.Hbond.Weighted>
-3.3275

> <Gold.Chemscore.Metal.Weighted>
-0.0000

> <Gold.Chemscore.Lipo.Weighted>
-9.4914

> <Gold.Chemscore.Internal_Hbond.Weighted>
0.0000

> <Gold.Chemscore.DEClash.Weighted>
0.0215

> <Gold.Chemscore.DEInternal.Weighted>
0.0499

> <Gold.Chemscore.Rot.Weighted>
2.5600

> <Gold.Chemscore.Internal.Correction.Weighted>
   9.000000E+99

> <Gold.Protein.RotatedTorsions>
[ 6907 6896 6895 6894 ] final  -47.72 input  -60.11 | X-H torsion
[ 7974 7965 7964 7962 ] final  -25.59 input  175.53 | X-H torsion
[ 8008 7997 7996 7995 ] final  -86.76 input   59.86 | X-H torsion
[ 10167 10162 10161 10158 ] final  103.54 input  -65.29 | X-H torsion
[ 10718 10713 10712 10709 ] final  -55.67 input   66.30 | X-H torsion
[ 10763 10752 10751 10750 ] final  149.35 input  -60.55 | X-H torsion
[ 11005 11000 10999 10996 ] final  147.37 input  -57.11 | X-H torsion

> <Gold.Protein.ActiveResidues>
 VAL166  LYS551  ARG553  GLY616  TRP617  ASP618  TYR619  PRO620  LYS621  CYS622 
 ASP623  PHE694  ASN695  SER759  ASP760  ASP761  ALA762  ILE779  LEU786  VAL792 
 PHE793  MET794  SER795  GLU796  ALA797  LYS798  CYS799  TRP800  GLU811  SER814 

> <Gold.Protein.RotatedAtoms>
  150.8979  134.8388  159.7338 H   0  0  0  0  0  0  0  0  0  0  0  0  # atno 6907 bound_to 6896
  152.4875  134.4548  159.9596 H   0  0  0  0  0  0  0  0  0  0  0  0  # atno 6908 bound_to 6896
  151.4603  133.3555  159.2843 H   0  0  0  0  0  0  0  0  0  0  0  0  # atno 6909 bound_to 6896
  146.1481  140.4906  142.8623 H   0  0  0  0  0  0  0  0  0  0  0  0  # atno 7974 bound_to 7965
  154.6555  140.0574  157.0004 H   0  0  0  0  0  0  0  0  0  0  0  0  # atno 8008 bound_to 7997
  155.1306  140.3256  155.4456 H   0  0  0  0  0  0  0  0  0  0  0  0  # atno 8009 bound_to 7997
  156.2595  140.1981  156.6426 H   0  0  0  0  0  0  0  0  0  0  0  0  # atno 8010 bound_to 7997
  139.7254  144.7048  151.0806 H   0  0  0  0  0  0  0  0  0  0  0  0  # atno 10167 bound_to 10162
  156.1350  130.4157  150.0202 H   0  0  0  0  0  0  0  0  0  0  0  0  # atno 10718 bound_to 10713
  154.0696  135.2867  155.3310 H   0  0  0  0  0  0  0  0  0  0  0  0  # atno 10763 bound_to 10752
  154.6755  135.5283  153.8197 H   0  0  0  0  0  0  0  0  0  0  0  0  # atno 10764 bound_to 10752
  153.0490  135.6568  154.0879 H   0  0  0  0  0  0  0  0  0  0  0  0  # atno 10765 bound_to 10752
  140.0870  134.9063  157.1591 H   0  0  0  0  0  0  0  0  0  0  0  0  # atno 11005 bound_to 11000
  144.7871  140.5957  143.6566 LP  0  0  0  0  0  0  0  0  0  0  0  0  # atno 17320 bound_to 7965
  145.4889  139.1490  143.3721 LP  0  0  0  0  0  0  0  0  0  0  0  0  # atno 17321 bound_to 7965
  140.7762  143.5111  150.9651 LP  0  0  0  0  0  0  0  0  0  0  0  0  # atno 17342 bound_to 10162
  139.8799  143.7085  152.3158 LP  0  0  0  0  0  0  0  0  0  0  0  0  # atno 17343 bound_to 10162
  156.8104  130.9322  151.3644 LP  0  0  0  0  0  0  0  0  0  0  0  0  # atno 17370 bound_to 10713
  157.6523  130.8895  149.9659 LP  0  0  0  0  0  0  0  0  0  0  0  0  # atno 17371 bound_to 10713
  140.3406  134.2708  155.7213 LP  0  0  0  0  0  0  0  0  0  0  0  0  # atno 17394 bound_to 11000
  141.2066  133.7829  157.0169 LP  0  0  0  0  0  0  0  0  0  0  0  0  # atno 17395 bound_to 11000

$$$$
