AV-unprocessed.smi:3116|AV-procd|sdf|11874|dock8
  -GOLD-   2272017253D 1   1.00000     0.00000
 Structure written by MMmdl.
 33 33  0  0  0  0  0  0  0  0  1 V2000
  152.0447  139.8809  155.6009 C   0  0  0  0  0  0  0  0  0  0  0  0
  151.1515  141.0759  155.9901 C   0  0  2  0  0  0  0  0  0  0  0  0
  150.9751  141.1280  157.4505 N   0  0  0  0  0  0  0  0  0  0  0  0
  152.1499  140.7551  158.2384 C   0  0  2  0  0  0  0  0  0  0  0  0
  152.1457  139.2426  158.5345 C   0  0  0  0  0  0  0  0  0  0  0  0
  152.2075  141.6106  159.5324 C   0  0  1  0  0  0  0  0  0  0  0  0
  153.4455  141.3172  160.4001 C   0  0  0  0  0  0  0  0  0  0  0  0
  152.0546  143.0419  159.2827 N   0  0  0  0  0  0  0  0  0  0  0  0
  152.8887  143.8990  158.5906 C   0  0  0  0  0  0  0  0  0  0  0  0
  152.3095  145.1352  158.6027 C   0  0  0  0  0  0  0  0  0  0  0  0
  151.1046  144.9356  159.3316 C   0  0  0  0  0  0  0  0  0  0  0  0
  150.9534  143.6843  159.7328 N   0  0  0  0  0  0  0  0  0  0  0  0
  149.7803  141.0199  155.2978 C   0  0  0  0  0  0  0  0  0  0  0  0
  148.9910  142.0880  155.4427 N   0  0  0  0  0  0  0  0  0  0  0  0
  149.4304  140.0412  154.6402 O   0  0  0  0  0  0  0  0  0  0  0  0
  152.1930  139.8318  154.5215 H   0  0  0  0  0  0  0  0  0  0  0  0
  151.6082  138.9335  155.9207 H   0  0  0  0  0  0  0  0  0  0  0  0
  153.0321  139.9521  156.0554 H   0  0  0  0  0  0  0  0  0  0  0  0
  151.6311  141.9908  155.6382 H   0  0  0  0  0  0  0  0  0  0  0  0
  150.1589  140.6169  157.7552 H   0  0  0  0  0  0  0  0  0  0  0  0
  153.0440  140.9904  157.6587 H   0  0  0  0  0  0  0  0  0  0  0  0
  152.9604  138.9775  159.2086 H   0  0  0  0  0  0  0  0  0  0  0  0
  152.2828  138.6553  157.6269 H   0  0  0  0  0  0  0  0  0  0  0  0
  151.2136  138.9233  159.0022 H   0  0  0  0  0  0  0  0  0  0  0  0
  151.3512  141.3070  160.1378 H   0  0  0  0  0  0  0  0  0  0  0  0
  153.5049  140.2575  160.6485 H   0  0  0  0  0  0  0  0  0  0  0  0
  153.4046  141.8722  161.3378 H   0  0  0  0  0  0  0  0  0  0  0  0
  154.3728  141.5895  159.8954 H   0  0  0  0  0  0  0  0  0  0  0  0
  153.8149  143.5622  158.1487 H   0  0  0  0  0  0  0  0  0  0  0  0
  152.6875  146.0431  158.1568 H   0  0  0  0  0  0  0  0  0  0  0  0
  150.3393  145.6569  159.5770 H   0  0  0  0  0  0  0  0  0  0  0  0
  148.0847  142.1055  154.9983 H   0  0  0  0  0  0  0  0  0  0  0  0
  149.3091  142.8769  155.9866 H   0  0  0  0  0  0  0  0  0  0  0  0
  1  2  1  0  0  0  0
  1 16  1  0  0  0  0
  1 17  1  0  0  0  0
  1 18  1  0  0  0  0
  2  3  1  0  0  0  0
  2 13  1  0  0  0  0
  2 19  1  0  0  0  0
  3  4  1  0  0  0  0
  3 20  1  0  0  0  0
  4  5  1  0  0  0  0
  4  6  1  0  0  0  0
  4 21  1  0  0  0  0
  5 22  1  0  0  0  0
  5 23  1  0  0  0  0
  5 24  1  0  0  0  0
  6  7  1  0  0  0  0
  6  8  1  0  0  0  0
  6 25  1  0  0  0  0
  7 26  1  0  0  0  0
  7 27  1  0  0  0  0
  7 28  1  0  0  0  0
  8 12  1  0  0  0  0
  8  9  1  0  0  0  0
  9 10  2  0  0  0  0
  9 29  1  0  0  0  0
 10 11  1  0  0  0  0
 10 30  1  0  0  0  0
 11 12  2  0  0  0  0
 11 31  1  0  0  0  0
 13 14  1  0  0  0  0
 13 15  2  0  0  0  0
 14 32  1  0  0  0  0
 14 33  1  0  0  0  0
M  END
> <s_m_source_file>
AV-unprocessed.smi

> <i_m_source_file_index>
3116

> <i_lp_mmshare_version>
43012

> <i_f3d_flags>
0

> <s_epik_input>
W05IMl1DKD1PKVtDQEhdKFtDSDNdKVtOSF1bQ0BIXShbQ0gzXSlbQ0BIXShbQ0gzXSluMVtjSF1bY0hdW2NIXW4x

> <s_epik_cmdline>
J2VwaWtfcHl0aG9uJywgJy1waCcsICc3LjAnLCAnLXRuJywgJzgnLCAnLW1hJywgJzIwMCcsICctbWV0YWxfYmluZGluZycsICctaW1hZScsICc8aW5maWxlLm1hZT4nLCAnLW9tYWUnLCAnPG91dGZpbGUubWFlPic=

> <r_lp_tautomer_probability>
1

> <r_epik_Ionization_Penalty>
0.865977

> <r_epik_Ionization_Penalty_Charging>
0

> <r_epik_Ionization_Penalty_Neutral>
0.865977

> <r_epik_State_Penalty>
0.901888

> <r_epik_Charging_Adjusted_Penalty>
0.901888

> <i_epik_Tot_Q>
0

> <i_epik_Tot_abs_Q>
0

> <r_epik_Metal_State_Penalty>
0.901181

> <b_epik_Metal_Only>
0

> <s_lp_Force_Field>
OPLS_2005

> <r_lp_Energy>
11.5103

> <b_lp_Chiralities_Consistent>
1

> <s_lp_Variant>
AV-unprocessed.smi:3116-13

> <Gold.Version>
5.8.1

> <Gold.Id.Protein>
6NUR|6NUR_protein|mol2

> <Gold.PLP.Fitness>
36.6353

> <Gold.PLP.PLP>
-36.4193

> <Gold.PLP.part.hbond>
-1.0000

> <Gold.PLP.part.metal>
0.0000

> <Gold.PLP.part.buried>
-4.7223

> <Gold.PLP.part.nonpolar>
-30.5769

> <Gold.PLP.part.repulsive>
0.3012

> <Gold.PLP.ligand.clash>
0.0000

> <Gold.PLP.ligand.torsion>
0.7885

> <Gold.PLP.Chemscore.Hbond>
0.5280

> <Gold.PLP.Chemscore.CHOScore>
0.0000

> <Gold.PLP.Chemscore.Metal>
0.0000

> <Gold.Chemscore.Hbonds>
donor molecule, donor type, donor heavy atom, donor atom, acceptor molecule, acceptor atom, score
      L1  H    14    33       P1  8028  0.51

> <Gold.PLP.Chemscore.Internal.Correction>
0.2089

> <Gold.Rescore>
     Score         DG    S(hbond)    S(metal)    S(lipo)     H(rot)  DE(clash)    DE(int)     intcor
     10.80     -12.26       0.88        0.00      84.98       2.38       0.29       1.17       ----

> <Gold.Chemscore.Fitness>
10.7978

> <Gold.Chemscore.DG>
-12.2613

> <Gold.Chemscore.ZeroCoef>
-5.4800

> <Gold.Chemscore.Hbond>
0.8803

> <Gold.Chemscore.Metal>
0.0000

> <Gold.Chemscore.Lipo>
84.9844

> <Gold.Chemscore.Internal_Hbond>
0.0000

> <Gold.Chemscore.DEClash>
0.2936

> <Gold.Chemscore.DEInternal>
1.1699

> <Gold.Chemscore.Rot>
2.3836

> <Gold.Chemscore.Internal.Correction>
   9.000000E+99

> <Gold.Chemscore.Hbonds>
donor molecule, donor type, donor heavy atom, donor atom, acceptor molecule, acceptor atom, score
      L1  H    14    33       P1  8028  0.52

> <Gold.Chemscore.Hbond.Weighted>
-2.9401

> <Gold.Chemscore.Metal.Weighted>
-0.0000

> <Gold.Chemscore.Lipo.Weighted>
-9.9432

> <Gold.Chemscore.Internal_Hbond.Weighted>
0.0000

> <Gold.Chemscore.DEClash.Weighted>
0.2936

> <Gold.Chemscore.DEInternal.Weighted>
1.1699

> <Gold.Chemscore.Rot.Weighted>
6.1020

> <Gold.Chemscore.Internal.Correction.Weighted>
   9.000000E+99

> <Gold.Protein.RotatedTorsions>
[ 6907 6896 6895 6894 ] final  -52.67 input  -60.11 | X-H torsion
[ 7974 7965 7964 7962 ] final  -57.16 input  175.53 | X-H torsion
[ 8008 7997 7996 7995 ] final   94.86 input   59.86 | X-H torsion
[ 10167 10162 10161 10158 ] final  159.61 input  -65.29 | X-H torsion
[ 10718 10713 10712 10709 ] final  -91.96 input   66.30 | X-H torsion
[ 10763 10752 10751 10750 ] final   68.84 input  -60.55 | X-H torsion
[ 11005 11000 10999 10996 ] final -124.14 input  -57.11 | X-H torsion

> <Gold.Protein.ActiveResidues>
 VAL166  LYS551  ARG553  GLY616  TRP617  ASP618  TYR619  PRO620  LYS621  CYS622 
 ASP623  PHE694  ASN695  SER759  ASP760  ASP761  ALA762  ILE779  LEU786  VAL792 
 PHE793  MET794  SER795  GLU796  ALA797  LYS798  CYS799  TRP800  GLU811  SER814 

> <Gold.Protein.RotatedAtoms>
  150.8497  134.7817  159.6998 H   0  0  0  0  0  0  0  0  0  0  0  0  # atno 6907 bound_to 6896
  152.4565  134.5277  159.9811 H   0  0  0  0  0  0  0  0  0  0  0  0  # atno 6908 bound_to 6896
  151.5401  133.3396  159.2969 H   0  0  0  0  0  0  0  0  0  0  0  0  # atno 6909 bound_to 6896
  145.8543  140.8330  142.9970 H   0  0  0  0  0  0  0  0  0  0  0  0  # atno 7974 bound_to 7965
  156.0625  140.3294  155.7479 H   0  0  0  0  0  0  0  0  0  0  0  0  # atno 8008 bound_to 7997
  155.5432  140.0603  157.2883 H   0  0  0  0  0  0  0  0  0  0  0  0  # atno 8009 bound_to 7997
  154.4489  140.1907  156.0600 H   0  0  0  0  0  0  0  0  0  0  0  0  # atno 8010 bound_to 7997
  139.4833  144.4713  151.8572 H   0  0  0  0  0  0  0  0  0  0  0  0  # atno 10167 bound_to 10162
  155.9998  130.4968  150.5553 H   0  0  0  0  0  0  0  0  0  0  0  0  # atno 10718 bound_to 10713
  153.0256  135.5232  154.7197 H   0  0  0  0  0  0  0  0  0  0  0  0  # atno 10763 bound_to 10752
  154.6256  135.2894  155.0279 H   0  0  0  0  0  0  0  0  0  0  0  0  # atno 10764 bound_to 10752
  154.1249  135.6602  153.4963 H   0  0  0  0  0  0  0  0  0  0  0  0  # atno 10765 bound_to 10752
  140.9865  134.0600  157.3705 H   0  0  0  0  0  0  0  0  0  0  0  0  # atno 11005 bound_to 11000
  144.6728  140.1000  143.7461 LP  0  0  0  0  0  0  0  0  0  0  0  0  # atno 17320 bound_to 7965
  145.9322  139.2613  143.1318 LP  0  0  0  0  0  0  0  0  0  0  0  0  # atno 17321 bound_to 7965
  140.4182  144.2278  150.5887 LP  0  0  0  0  0  0  0  0  0  0  0  0  # atno 17342 bound_to 10162
  140.4899  143.2351  151.8833 LP  0  0  0  0  0  0  0  0  0  0  0  0  # atno 17343 bound_to 10162
  157.3470  131.0727  151.1743 LP  0  0  0  0  0  0  0  0  0  0  0  0  # atno 17370 bound_to 10713
  157.2572  130.6642  149.5958 LP  0  0  0  0  0  0  0  0  0  0  0  0  # atno 17371 bound_to 10713
  139.8973  135.0149  156.7092 LP  0  0  0  0  0  0  0  0  0  0  0  0  # atno 17394 bound_to 11000
  140.7107  133.9226  155.8082 LP  0  0  0  0  0  0  0  0  0  0  0  0  # atno 17395 bound_to 11000

$$$$
