AV-unprocessed.smi:2144|AV-procd|sdf|8733|dock6
  -GOLD-   2272011503D 1   1.00000     0.00000
 Structure written by MMmdl.
 41 43  0  0  0  0  0  0  0  0  2 V2000
  152.6049  137.5183  153.6903 O   0  0  0  0  0  0  0  0  0  0  0  0
  151.5269  137.3766  154.5921 C   0  0  0  0  0  0  0  0  0  0  0  0
  150.4279  138.3644  154.3575 C   0  0  0  0  0  0  0  0  0  0  0  0
  149.2472  138.1226  153.7184 N   0  3  0  0  0  0  0  0  0  0  0  0
  148.4772  139.2856  153.6873 C   0  0  0  0  0  0  0  0  0  0  0  0
  147.2164  139.5308  153.1525 C   0  0  0  0  0  0  0  0  0  0  0  0
  146.7153  140.8421  153.2898 C   0  0  0  0  0  0  0  0  0  0  0  0
  147.4602  141.8490  153.9379 C   0  0  0  0  0  0  0  0  0  0  0  0
  148.7370  141.5876  154.4777 C   0  0  0  0  0  0  0  0  0  0  0  0
  149.2245  140.2886  154.3378 C   0  0  0  0  0  0  0  0  0  0  0  0
  150.4170  139.6750  154.7371 N   0  0  0  0  0  0  0  0  0  0  0  0
  151.4265  140.4700  155.4545 C   0  0  0  0  0  0  0  0  0  0  0  0
  150.8316  141.2965  156.6126 C   0  0  1  0  0  0  0  0  0  0  0  0
  150.3505  140.4119  157.6053 O   0  0  0  0  0  0  0  0  0  0  0  0
  151.8756  142.2286  157.2480 C   0  0  0  0  0  0  0  0  0  0  0  0
  151.3870  142.6693  158.5081 O   0  0  0  0  0  0  0  0  0  0  0  0
  152.1233  142.3770  159.6367 C   0  0  0  0  0  0  0  0  0  0  0  0
  152.9449  141.2293  159.7758 C   0  0  0  0  0  0  0  0  0  0  0  0
  153.6655  141.0074  160.9658 C   0  0  0  0  0  0  0  0  0  0  0  0
  153.5757  141.9252  162.0285 C   0  0  0  0  0  0  0  0  0  0  0  0
  152.7632  143.0665  161.8999 C   0  0  0  0  0  0  0  0  0  0  0  0
  152.0424  143.2897  160.7106 C   0  0  0  0  0  0  0  0  0  0  0  0
  151.2647  144.3930  160.5996 F   0  0  0  0  0  0  0  0  0  0  0  0
  153.3668  137.7990  154.1746 H   0  0  0  0  0  0  0  0  0  0  0  0
  151.1284  136.3657  154.5052 H   0  0  0  0  0  0  0  0  0  0  0  0
  151.8984  137.4934  155.6105 H   0  0  0  0  0  0  0  0  0  0  0  0
  146.6444  138.7611  152.6553 H   0  0  0  0  0  0  0  0  0  0  0  0
  145.7404  141.0805  152.8896 H   0  0  0  0  0  0  0  0  0  0  0  0
  147.0436  142.8422  154.0233 H   0  0  0  0  0  0  0  0  0  0  0  0
  149.2995  142.3652  154.9733 H   0  0  0  0  0  0  0  0  0  0  0  0
  152.1862  139.7833  155.8300 H   0  0  0  0  0  0  0  0  0  0  0  0
  151.9292  141.1155  154.7330 H   0  0  0  0  0  0  0  0  0  0  0  0
  149.9966  141.8898  156.2382 H   0  0  0  0  0  0  0  0  0  0  0  0
  149.5853  139.9716  157.2688 H   0  0  0  0  0  0  0  0  0  0  0  0
  152.8401  141.7259  157.3398 H   0  0  0  0  0  0  0  0  0  0  0  0
  152.0139  143.1030  156.6097 H   0  0  0  0  0  0  0  0  0  0  0  0
  153.0402  140.5024  158.9837 H   0  0  0  0  0  0  0  0  0  0  0  0
  154.2886  140.1307  161.0630 H   0  0  0  0  0  0  0  0  0  0  0  0
  154.1285  141.7542  162.9405 H   0  0  0  0  0  0  0  0  0  0  0  0
  152.6914  143.7722  162.7141 H   0  0  0  0  0  0  0  0  0  0  0  0
  148.9934  137.2218  153.3334 H   0  0  0  0  0  0  0  0  0  0  0  0
  1  2  1  0  0  0  0
  1 24  1  0  0  0  0
  2  3  1  0  0  0  0
  2 25  1  0  0  0  0
  2 26  1  0  0  0  0
  3 11  1  0  0  0  0
  3  4  2  0  0  0  0
  4  5  1  0  0  0  0
  4 41  1  0  0  0  0
  5 10  2  0  0  0  0
  5  6  1  0  0  0  0
  6  7  2  0  0  0  0
  6 27  1  0  0  0  0
  7  8  1  0  0  0  0
  7 28  1  0  0  0  0
  8  9  2  0  0  0  0
  8 29  1  0  0  0  0
  9 10  1  0  0  0  0
  9 30  1  0  0  0  0
 10 11  1  0  0  0  0
 11 12  1  0  0  0  0
 12 13  1  0  0  0  0
 12 31  1  0  0  0  0
 12 32  1  0  0  0  0
 13 14  1  0  0  0  0
 13 15  1  0  0  0  0
 13 33  1  0  0  0  0
 14 34  1  0  0  0  0
 15 16  1  0  0  0  0
 15 35  1  0  0  0  0
 15 36  1  0  0  0  0
 16 17  1  0  0  0  0
 17 22  1  0  0  0  0
 17 18  2  0  0  0  0
 18 19  1  0  0  0  0
 18 37  1  0  0  0  0
 19 20  2  0  0  0  0
 19 38  1  0  0  0  0
 20 21  1  0  0  0  0
 20 39  1  0  0  0  0
 21 22  2  0  0  0  0
 21 40  1  0  0  0  0
 22 23  1  0  0  0  0
M  CHG  1   4   1
M  END
> <s_m_source_file>
AV-unprocessed.smi

> <i_m_source_file_index>
2144

> <i_lp_mmshare_version>
43012

> <i_f3d_flags>
0

> <s_epik_input>
W2NIXTFbY0hdW2NIXVtjSF1jKGMxMiluKGMobjIpW0NIMl1bT0hdKVtDSDJdW0NASF0oW09IXSlbQ0gyXU9jM1tjSF1bY0hdW2NIXVtjSF1jM0Y=

> <s_epik_cmdline>
J2VwaWtfcHl0aG9uJywgJy1waCcsICc3LjAnLCAnLXRuJywgJzgnLCAnLW1hJywgJzIwMCcsICctbWV0YWxfYmluZGluZycsICctaW1hZScsICc8aW5maWxlLm1hZT4nLCAnLW9tYWUnLCAnPG91dGZpbGUubWFlPic=

> <r_lp_tautomer_probability>
1

> <r_epik_Ionization_Penalty>
1.44003

> <r_epik_Ionization_Penalty_Charging>
1.43917

> <r_epik_Ionization_Penalty_Neutral>
0.000858184

> <r_epik_State_Penalty>
1.52442

> <r_epik_Charging_Adjusted_Penalty>
2.96359

> <i_epik_Tot_Q>
1

> <i_epik_Tot_abs_Q>
1

> <r_epik_Metal_State_Penalty>
5.57019

> <b_epik_Metal_Only>
0

> <s_lp_Force_Field>
OPLS_2005

> <r_lp_Energy>
20.1924

> <b_lp_Chiralities_Consistent>
1

> <s_lp_Variant>
AV-unprocessed.smi:2144-4

> <Gold.Version>
5.8.1

> <Gold.Id.Protein>
6NUR|6NUR_protein|mol2

> <Gold.PLP.Fitness>
57.2619

> <Gold.PLP.PLP>
-53.4954

> <Gold.PLP.part.hbond>
-2.0000

> <Gold.PLP.part.metal>
0.0000

> <Gold.PLP.part.buried>
0.4694

> <Gold.PLP.part.nonpolar>
-48.0141

> <Gold.PLP.part.repulsive>
0.1034

> <Gold.PLP.ligand.clash>
0.0000

> <Gold.PLP.ligand.torsion>
1.2828

> <Gold.PLP.Chemscore.Hbond>
2.0960

> <Gold.PLP.Chemscore.CHOScore>
0.0000

> <Gold.PLP.Chemscore.Metal>
0.0000

> <Gold.Chemscore.Hbonds>
donor molecule, donor type, donor heavy atom, donor atom, acceptor molecule, acceptor atom, score
      L1  H     4    41       P1  7948  1.76
      P1  H 10752 10764       L1     1  0.24

> <Gold.PLP.Chemscore.Internal.Correction>
0.0441

> <Gold.Rescore>
     Score         DG    S(hbond)    S(metal)    S(lipo)     H(rot)  DE(clash)    DE(int)     intcor
     11.53     -15.16       0.70        0.00     135.33       3.31       1.00       2.63       ----

> <Gold.Chemscore.Fitness>
11.5275

> <Gold.Chemscore.DG>
-15.1619

> <Gold.Chemscore.ZeroCoef>
-5.4800

> <Gold.Chemscore.Hbond>
0.6978

> <Gold.Chemscore.Metal>
0.0000

> <Gold.Chemscore.Lipo>
135.3285

> <Gold.Chemscore.Internal_Hbond>
0.0000

> <Gold.Chemscore.DEClash>
1.0025

> <Gold.Chemscore.DEInternal>
2.6319

> <Gold.Chemscore.Rot>
3.3134

> <Gold.Chemscore.Internal.Correction>
   9.000000E+99

> <Gold.Chemscore.Hbonds>
donor molecule, donor type, donor heavy atom, donor atom, acceptor molecule, acceptor atom, score
      L1  H     4    41       P1  7948  0.86

> <Gold.Chemscore.Hbond.Weighted>
-2.3308

> <Gold.Chemscore.Metal.Weighted>
-0.0000

> <Gold.Chemscore.Lipo.Weighted>
-15.8334

> <Gold.Chemscore.Internal_Hbond.Weighted>
0.0000

> <Gold.Chemscore.DEClash.Weighted>
1.0025

> <Gold.Chemscore.DEInternal.Weighted>
2.6319

> <Gold.Chemscore.Rot.Weighted>
8.4823

> <Gold.Chemscore.Internal.Correction.Weighted>
   9.000000E+99

> <Gold.Protein.RotatedTorsions>
[ 6907 6896 6895 6894 ] final  147.79 input  -60.11 | X-H torsion
[ 7974 7965 7964 7962 ] final  161.15 input  175.53 | X-H torsion
[ 8008 7997 7996 7995 ] final    6.97 input   59.86 | X-H torsion
[ 10167 10162 10161 10158 ] final -164.42 input  -65.29 | X-H torsion
[ 10718 10713 10712 10709 ] final -130.36 input   66.30 | X-H torsion
[ 10763 10752 10751 10750 ] final -103.77 input  -60.55 | X-H torsion
[ 11005 11000 10999 10996 ] final  -47.73 input  -57.11 | X-H torsion

> <Gold.Protein.ActiveResidues>
 VAL166  LYS551  ARG553  GLY616  TRP617  ASP618  TYR619  PRO620  LYS621  CYS622 
 ASP623  PHE694  ASN695  SER759  ASP760  ASP761  ALA762  ILE779  LEU786  VAL792 
 PHE793  MET794  SER795  GLU796  ALA797  LYS798  CYS799  TRP800  GLU811  SER814 

> <Gold.Protein.RotatedAtoms>
  152.1500  133.4516  159.4808 H   0  0  0  0  0  0  0  0  0  0  0  0  # atno 6907 bound_to 6896
  150.6894  134.2200  159.4402 H   0  0  0  0  0  0  0  0  0  0  0  0  # atno 6908 bound_to 6896
  152.0096  134.9883  160.0618 H   0  0  0  0  0  0  0  0  0  0  0  0  # atno 6909 bound_to 6896
  144.7700  139.7858  143.6300 H   0  0  0  0  0  0  0  0  0  0  0  0  # atno 7974 bound_to 7965
  154.7478  140.2761  155.6318 H   0  0  0  0  0  0  0  0  0  0  0  0  # atno 8008 bound_to 7997
  156.2889  140.2684  156.2150 H   0  0  0  0  0  0  0  0  0  0  0  0  # atno 8009 bound_to 7997
  155.0175  140.0371  157.2414 H   0  0  0  0  0  0  0  0  0  0  0  0  # atno 8010 bound_to 7997
  139.6252  144.0547  152.1968 H   0  0  0  0  0  0  0  0  0  0  0  0  # atno 10167 bound_to 10162
  156.2136  130.6934  151.0678 H   0  0  0  0  0  0  0  0  0  0  0  0  # atno 10718 bound_to 10713
  154.7831  135.4811  153.9887 H   0  0  0  0  0  0  0  0  0  0  0  0  # atno 10763 bound_to 10752
  153.1522  135.6793  153.8873 H   0  0  0  0  0  0  0  0  0  0  0  0  # atno 10764 bound_to 10752
  153.8513  135.3167  155.3411 H   0  0  0  0  0  0  0  0  0  0  0  0  # atno 10765 bound_to 10752
  141.0658  133.6694  156.3339 H   0  0  0  0  0  0  0  0  0  0  0  0  # atno 11005 bound_to 11000
  146.1839  139.5045  142.9849 LP  0  0  0  0  0  0  0  0  0  0  0  0  # atno 17320 bound_to 7965
  145.6353  141.0296  143.1841 LP  0  0  0  0  0  0  0  0  0  0  0  0  # atno 17321 bound_to 7965
  140.0199  144.6161  150.7576 LP  0  0  0  0  0  0  0  0  0  0  0  0  # atno 17342 bound_to 10162
  140.7406  143.2807  151.3607 LP  0  0  0  0  0  0  0  0  0  0  0  0  # atno 17343 bound_to 10162
  157.7052  131.0759  150.6692 LP  0  0  0  0  0  0  0  0  0  0  0  0  # atno 17370 bound_to 10713
  156.6752  130.4551  149.5645 LP  0  0  0  0  0  0  0  0  0  0  0  0  # atno 17371 bound_to 10713
  140.5775  134.5778  157.5472 LP  0  0  0  0  0  0  0  0  0  0  0  0  # atno 17394 bound_to 11000
  139.9475  134.7675  156.0526 LP  0  0  0  0  0  0  0  0  0  0  0  0  # atno 17395 bound_to 11000

$$$$
