AV-unprocessed.smi:2037|AV-procd|sdf|8278|dock6
  -GOLD-   2272010543D 1   1.00000     0.00000
 Structure written by MMmdl.
 38 39  0  0  0  0  0  0  0  0  3 V2000
  145.3515  133.7222  150.7570 C   0  0  0  0  0  0  0  0  0  0  0  0
  146.1276  133.5779  152.0734 C   0  0  2  0  0  0  0  0  0  0  0  0
  146.0734  134.8652  152.9120 C   0  0  0  0  0  0  0  0  0  0  0  0
  146.8724  134.7136  154.2173 C   0  0  0  0  0  0  0  0  0  0  0  0
  148.2840  134.3341  153.9485 N   0  3  1  0  0  0  0  0  0  0  0  0
  149.0949  134.3017  155.1918 C   0  0  0  0  0  0  0  0  0  0  0  0
  148.2966  133.8036  156.4068 C   0  0  0  0  0  0  0  0  0  0  0  0
  148.8441  134.3667  157.6328 N   0  0  0  0  0  0  0  0  0  0  0  0
  148.1790  135.1592  158.4829 C   0  0  0  0  0  0  0  0  0  0  0  0
  147.0068  135.4623  158.2496 O   0  0  0  0  0  0  0  0  0  0  0  0
  148.9149  135.5489  159.5479 N   0  5  0  0  0  0  0  0  0  0  0  0
  148.3812  135.5248  160.7801 C   0  0  0  0  0  0  0  0  0  0  0  0
  148.3382  136.5999  161.5751 N   0  0  0  0  0  0  0  0  0  0  0  0
  147.7494  136.3498  162.8161 C   0  0  0  0  0  0  0  0  0  0  0  0
  147.3407  135.0520  162.9721 C   0  0  0  0  0  0  0  0  0  0  0  0
  147.6870  134.0988  161.5573 S   0  0  0  0  0  0  0  0  0  0  0  0
  148.3691  133.0773  153.1571 C   0  0  0  0  0  0  0  0  0  0  0  0
  147.5977  133.1982  151.8316 C   0  0  0  0  0  0  0  0  0  0  0  0
  145.7666  134.5157  150.1348 H   0  0  0  0  0  0  0  0  0  0  0  0
  144.3036  133.9595  150.9437 H   0  0  0  0  0  0  0  0  0  0  0  0
  145.3806  132.7970  150.1806 H   0  0  0  0  0  0  0  0  0  0  0  0
  145.6593  132.7769  152.6475 H   0  0  0  0  0  0  0  0  0  0  0  0
  146.4727  135.7012  152.3356 H   0  0  0  0  0  0  0  0  0  0  0  0
  145.0378  135.1167  153.1440 H   0  0  0  0  0  0  0  0  0  0  0  0
  146.8418  135.6570  154.7640 H   0  0  0  0  0  0  0  0  0  0  0  0
  146.4084  133.9613  154.8572 H   0  0  0  0  0  0  0  0  0  0  0  0
  149.9418  133.6287  155.0485 H   0  0  0  0  0  0  0  0  0  0  0  0
  149.5161  135.2901  155.3841 H   0  0  0  0  0  0  0  0  0  0  0  0
  147.2474  134.0888  156.3290 H   0  0  0  0  0  0  0  0  0  0  0  0
  148.3350  132.7148  156.4645 H   0  0  0  0  0  0  0  0  0  0  0  0
  149.8017  134.1421  157.8606 H   0  0  0  0  0  0  0  0  0  0  0  0
  147.6631  137.1560  163.5291 H   0  0  0  0  0  0  0  0  0  0  0  0
  146.8617  134.6004  163.8275 H   0  0  0  0  0  0  0  0  0  0  0  0
  149.4075  132.8368  152.9335 H   0  0  0  0  0  0  0  0  0  0  0  0
  147.9736  132.2480  153.7458 H   0  0  0  0  0  0  0  0  0  0  0  0
  147.6551  132.2546  151.2881 H   0  0  0  0  0  0  0  0  0  0  0  0
  148.0757  133.9478  151.1990 H   0  0  0  0  0  0  0  0  0  0  0  0
  148.6705  135.0709  153.3759 H   0  0  0  0  0  0  0  0  0  0  0  0
  1  2  1  0  0  0  0
  1 19  1  0  0  0  0
  1 20  1  0  0  0  0
  1 21  1  0  0  0  0
  2 18  1  0  0  0  0
  2  3  1  0  0  0  0
  2 22  1  0  0  0  0
  3  4  1  0  0  0  0
  3 23  1  0  0  0  0
  3 24  1  0  0  0  0
  4  5  1  0  0  0  0
  4 25  1  0  0  0  0
  4 26  1  0  0  0  0
  5  6  1  0  0  0  0
  5 17  1  0  0  0  0
  5 38  1  0  0  0  0
  6  7  1  0  0  0  0
  6 27  1  0  0  0  0
  6 28  1  0  0  0  0
  7  8  1  0  0  0  0
  7 29  1  0  0  0  0
  7 30  1  0  0  0  0
  8  9  1  0  0  0  0
  8 31  1  0  0  0  0
  9 10  2  0  0  0  0
  9 11  1  0  0  0  0
 11 12  1  0  0  0  0
 12 16  1  0  0  0  0
 12 13  2  0  0  0  0
 13 14  1  0  0  0  0
 14 15  2  0  0  0  0
 14 32  1  0  0  0  0
 15 16  1  0  0  0  0
 15 33  1  0  0  0  0
 17 18  1  0  0  0  0
 17 34  1  0  0  0  0
 17 35  1  0  0  0  0
 18 36  1  0  0  0  0
 18 37  1  0  0  0  0
M  CHG  1   5   1
M  CHG  1  11  -1
M  END
> <s_m_source_file>
AV-unprocessed.smi

> <i_m_source_file_index>
2037

> <i_lp_mmshare_version>
43012

> <i_f3d_flags>
0

> <s_epik_input>
W0NIM11bQ0hdMVtDSDJdW0NIMl1OKFtDSDJdW0NIMl0xKVtDSDJdW0NIMl1bTkhdQyg9TylbTkhdYzJuW2NIXVtjSF1zMg==

> <s_epik_cmdline>
J2VwaWtfcHl0aG9uJywgJy1waCcsICc3LjAnLCAnLXRuJywgJzgnLCAnLW1hJywgJzIwMCcsICctbWV0YWxfYmluZGluZycsICctaW1hZScsICc8aW5maWxlLm1hZT4nLCAnLW9tYWUnLCAnPG91dGZpbGUubWFlPic=

> <r_lp_tautomer_probability>
0.999

> <r_epik_Ionization_Penalty>
6.22113

> <r_epik_Ionization_Penalty_Charging>
5.39005

> <r_epik_Ionization_Penalty_Neutral>
0.831074

> <r_epik_State_Penalty>
5.38997

> <r_epik_Charging_Adjusted_Penalty>
10.78

> <i_epik_Tot_Q>
0

> <i_epik_Tot_abs_Q>
2

> <r_epik_Metal_State_Penalty>
1.41601

> <b_epik_Metal_Only>
1

> <s_lp_Force_Field>
OPLS_2005

> <r_lp_Energy>
7.40316

> <b_lp_Chiralities_Consistent>
1

> <s_lp_Variant>
AV-unprocessed.smi:2037-3

> <Gold.Version>
5.8.1

> <Gold.Id.Protein>
6NUR|6NUR_protein|mol2

> <Gold.PLP.Fitness>
41.5815

> <Gold.PLP.PLP>
-29.2758

> <Gold.PLP.part.hbond>
-3.0000

> <Gold.PLP.part.metal>
0.0000

> <Gold.PLP.part.buried>
-3.5216

> <Gold.PLP.part.nonpolar>
-23.3795

> <Gold.PLP.part.repulsive>
0.0777

> <Gold.PLP.ligand.clash>
0.0000

> <Gold.PLP.ligand.torsion>
1.3811

> <Gold.PLP.Chemscore.Hbond>
5.0000

> <Gold.PLP.Chemscore.CHOScore>
0.0000

> <Gold.PLP.Chemscore.Metal>
0.0000

> <Gold.Chemscore.Hbonds>
donor molecule, donor type, donor heavy atom, donor atom, acceptor molecule, acceptor atom, score
      L1  H     5    38       P1  7948  2.00
      P1  H  6896  6908       L1    11  2.00
      P1  H  6931  6943       L1    13  0.95

> <Gold.PLP.Chemscore.Internal.Correction>
0.0680

> <Gold.Rescore>
     Score         DG    S(hbond)    S(metal)    S(lipo)     H(rot)  DE(clash)    DE(int)     intcor
     14.17     -15.60       2.01        0.00      63.35       1.57       0.06       1.37       ----

> <Gold.Chemscore.Fitness>
14.1677

> <Gold.Chemscore.DG>
-15.5988

> <Gold.Chemscore.ZeroCoef>
-5.4800

> <Gold.Chemscore.Hbond>
2.0121

> <Gold.Chemscore.Metal>
0.0000

> <Gold.Chemscore.Lipo>
63.3451

> <Gold.Chemscore.Internal_Hbond>
0.0000

> <Gold.Chemscore.DEClash>
0.0609

> <Gold.Chemscore.DEInternal>
1.3703

> <Gold.Chemscore.Rot>
1.5676

> <Gold.Chemscore.Internal.Correction>
   9.000000E+99

> <Gold.Chemscore.Hbonds>
donor molecule, donor type, donor heavy atom, donor atom, acceptor molecule, acceptor atom, score
      L1  H     5    38       P1  7948  0.70
      P1  H  6896  6908       L1    11  0.55
      P1  H  6931  6943       L1    13  0.22

> <Gold.Chemscore.Hbond.Weighted>
-6.7204

> <Gold.Chemscore.Metal.Weighted>
-0.0000

> <Gold.Chemscore.Lipo.Weighted>
-7.4114

> <Gold.Chemscore.Internal_Hbond.Weighted>
0.0000

> <Gold.Chemscore.DEClash.Weighted>
0.0609

> <Gold.Chemscore.DEInternal.Weighted>
1.3703

> <Gold.Chemscore.Rot.Weighted>
4.0130

> <Gold.Chemscore.Internal.Correction.Weighted>
   9.000000E+99

> <Gold.Protein.RotatedTorsions>
[ 6907 6896 6895 6894 ] final  173.62 input  -60.11 | X-H torsion
[ 7974 7965 7964 7962 ] final -171.89 input  175.53 | X-H torsion
[ 8008 7997 7996 7995 ] final  -25.53 input   59.86 | X-H torsion
[ 10167 10162 10161 10158 ] final  -58.20 input  -65.29 | X-H torsion
[ 10718 10713 10712 10709 ] final -105.93 input   66.30 | X-H torsion
[ 10763 10752 10751 10750 ] final -117.51 input  -60.55 | X-H torsion
[ 11005 11000 10999 10996 ] final  133.25 input  -57.11 | X-H torsion

> <Gold.Protein.ActiveResidues>
 VAL166  LYS551  ARG553  GLY616  TRP617  ASP618  TYR619  PRO620  LYS621  CYS622 
 ASP623  PHE694  ASN695  SER759  ASP760  ASP761  ALA762  ILE779  LEU786  VAL792 
 PHE793  MET794  SER795  GLU796  ALA797  LYS798  CYS799  TRP800  GLU811  SER814 

> <Gold.Protein.RotatedAtoms>
  151.7654  133.3337  159.3429 H   0  0  0  0  0  0  0  0  0  0  0  0  # atno 6907 bound_to 6896
  150.7482  134.6068  159.6074 H   0  0  0  0  0  0  0  0  0  0  0  0  # atno 6908 bound_to 6896
  152.3377  134.7177  160.0324 H   0  0  0  0  0  0  0  0  0  0  0  0  # atno 6909 bound_to 6896
  144.7152  140.1855  143.6354 H   0  0  0  0  0  0  0  0  0  0  0  0  # atno 7974 bound_to 7965
  154.4471  140.1924  156.0634 H   0  0  0  0  0  0  0  0  0  0  0  0  # atno 8008 bound_to 7997
  156.0566  140.3302  155.7385 H   0  0  0  0  0  0  0  0  0  0  0  0  # atno 8009 bound_to 7997
  155.5476  140.0592  157.2847 H   0  0  0  0  0  0  0  0  0  0  0  0  # atno 8010 bound_to 7997
  140.6212  143.2420  151.5476 H   0  0  0  0  0  0  0  0  0  0  0  0  # atno 10167 bound_to 10162
  156.0368  130.5588  150.7610 H   0  0  0  0  0  0  0  0  0  0  0  0  # atno 10718 bound_to 10713
  154.8557  135.4307  154.1991 H   0  0  0  0  0  0  0  0  0  0  0  0  # atno 10763 bound_to 10752
  153.3042  135.6971  153.7181 H   0  0  0  0  0  0  0  0  0  0  0  0  # atno 10764 bound_to 10752
  153.6299  135.3487  155.3012 H   0  0  0  0  0  0  0  0  0  0  0  0  # atno 10765 bound_to 10752
  139.9840  134.9538  156.9697 H   0  0  0  0  0  0  0  0  0  0  0  0  # atno 11005 bound_to 11000
  145.8817  139.2326  143.1601 LP  0  0  0  0  0  0  0  0  0  0  0  0  # atno 17320 bound_to 7965
  145.9988  140.8538  143.0029 LP  0  0  0  0  0  0  0  0  0  0  0  0  # atno 17321 bound_to 7965
  139.5440  144.2570  152.1407 LP  0  0  0  0  0  0  0  0  0  0  0  0  # atno 17342 bound_to 10162
  140.1791  144.4862  150.6538 LP  0  0  0  0  0  0  0  0  0  0  0  0  # atno 17343 bound_to 10162
  157.5129  131.0926  151.0176 LP  0  0  0  0  0  0  0  0  0  0  0  0  # atno 17370 bound_to 10713
  157.0526  130.5793  149.5373 LP  0  0  0  0  0  0  0  0  0  0  0  0  # atno 17371 bound_to 10713
  140.5040  134.1069  155.7256 LP  0  0  0  0  0  0  0  0  0  0  0  0  # atno 17394 bound_to 11000
  141.1508  133.8973  157.2103 LP  0  0  0  0  0  0  0  0  0  0  0  0  # atno 17395 bound_to 11000

$$$$
