AV-unprocessed.smi:2923|AV-procd|sdf|11202|dock4
  -GOLD-   2272016 93D 1   1.00000     0.00000
 Structure written by MMmdl.
 47 49  0  0  0  0  0  0  0  0  2 V2000
  144.0030  132.7261  148.6895 C   0  0  0  0  0  0  0  0  0  0  0  0
  144.7478  132.5076  149.9203 N   0  0  0  0  0  0  0  0  0  0  0  0
  145.9253  131.6596  149.8126 C   0  0  0  0  0  0  0  0  0  0  0  0
  144.9897  133.6934  150.6271 C   0  0  0  0  0  0  0  0  0  0  0  0
  144.6448  133.8179  151.9887 C   0  0  0  0  0  0  0  0  0  0  0  0
  144.9013  135.0314  152.6591 C   0  0  0  0  0  0  0  0  0  0  0  0
  145.5061  136.1017  151.9651 C   0  0  0  0  0  0  0  0  0  0  0  0
  145.7278  137.3112  152.6772 N   0  0  0  0  0  0  0  0  0  0  0  0
  146.4815  138.3656  152.3211 C   0  0  0  0  0  0  0  0  0  0  0  0
  147.1553  138.4458  151.2943 O   0  0  0  0  0  0  0  0  0  0  0  0
  146.4228  139.3352  153.2432 N   0  0  0  0  0  0  0  0  0  0  0  0
  147.1521  140.6055  153.1658 C   0  0  2  0  0  0  0  0  0  0  0  0
  148.4118  140.6111  154.0357 C   0  0  2  0  0  0  0  0  0  0  0  0
  149.2605  139.5797  154.6867 C   0  0  0  0  0  0  0  0  0  0  0  0
  149.4708  140.3242  156.0332 C   0  0  0  0  0  0  0  0  0  0  0  0
  148.5569  141.4512  156.0138 O   0  0  0  0  0  0  0  0  0  0  0  0
  147.5025  141.0198  155.1765 C   0  0  1  0  0  0  0  0  0  0  0  0
  146.6375  141.7515  154.1259 C   0  0  0  0  0  0  0  0  0  0  0  0
  147.0344  143.1969  153.7745 C   0  0  0  0  0  0  0  0  0  0  0  0
  145.1348  141.7938  154.4259 C   0  0  0  0  0  0  0  0  0  0  0  0
  145.8225  135.9230  150.5959 C   0  0  0  0  0  0  0  0  0  0  0  0
  145.5586  134.7446  149.9907 N   0  3  0  0  0  0  0  0  0  0  0  0
  143.1250  133.3475  148.8713 H   0  0  0  0  0  0  0  0  0  0  0  0
  143.6618  131.7743  148.2816 H   0  0  0  0  0  0  0  0  0  0  0  0
  144.6234  133.2164  147.9383 H   0  0  0  0  0  0  0  0  0  0  0  0
  146.4100  131.5424  150.7826 H   0  0  0  0  0  0  0  0  0  0  0  0
  146.6487  132.0800  149.1132 H   0  0  0  0  0  0  0  0  0  0  0  0
  145.6434  130.6683  149.4566 H   0  0  0  0  0  0  0  0  0  0  0  0
  144.1868  132.9936  152.5161 H   0  0  0  0  0  0  0  0  0  0  0  0
  144.6371  135.1344  153.7016 H   0  0  0  0  0  0  0  0  0  0  0  0
  145.2953  137.3645  153.5879 H   0  0  0  0  0  0  0  0  0  0  0  0
  145.8469  139.1887  154.0592 H   0  0  0  0  0  0  0  0  0  0  0  0
  147.3412  140.9460  152.1462 H   0  0  0  0  0  0  0  0  0  0  0  0
  149.0574  141.4249  153.6967 H   0  0  0  0  0  0  0  0  0  0  0  0
  148.7342  138.6337  154.8195 H   0  0  0  0  0  0  0  0  0  0  0  0
  150.1954  139.4000  154.1552 H   0  0  0  0  0  0  0  0  0  0  0  0
  149.2487  139.6694  156.8766 H   0  0  0  0  0  0  0  0  0  0  0  0
  150.4937  140.6847  156.1449 H   0  0  0  0  0  0  0  0  0  0  0  0
  146.9655  140.1865  155.6412 H   0  0  0  0  0  0  0  0  0  0  0  0
  146.9067  143.8595  154.6310 H   0  0  0  0  0  0  0  0  0  0  0  0
  146.4190  143.5902  152.9647 H   0  0  0  0  0  0  0  0  0  0  0  0
  148.0689  143.2989  153.4517 H   0  0  0  0  0  0  0  0  0  0  0  0
  144.8968  142.5455  155.1791 H   0  0  0  0  0  0  0  0  0  0  0  0
  144.7659  140.8417  154.8070 H   0  0  0  0  0  0  0  0  0  0  0  0
  144.5574  142.0296  153.5315 H   0  0  0  0  0  0  0  0  0  0  0  0
  146.2612  136.6724  149.9547 H   0  0  0  0  0  0  0  0  0  0  0  0
  145.7968  134.6446  149.0038 H   0  0  0  0  0  0  0  0  0  0  0  0
  1  2  1  0  0  0  0
  1 23  1  0  0  0  0
  1 24  1  0  0  0  0
  1 25  1  0  0  0  0
  2  3  1  0  0  0  0
  2  4  1  0  0  0  0
  3 26  1  0  0  0  0
  3 27  1  0  0  0  0
  3 28  1  0  0  0  0
  4 22  1  0  0  0  0
  4  5  2  0  0  0  0
  5  6  1  0  0  0  0
  5 29  1  0  0  0  0
  6  7  2  0  0  0  0
  6 30  1  0  0  0  0
  7  8  1  0  0  0  0
  7 21  1  0  0  0  0
  8  9  1  0  0  0  0
  8 31  1  0  0  0  0
  9 10  2  0  0  0  0
  9 11  1  0  0  0  0
 11 12  1  0  0  0  0
 11 32  1  0  0  0  0
 12 18  1  0  0  0  0
 12 13  1  0  0  0  0
 12 33  1  0  0  0  0
 13 17  1  0  0  0  0
 13 14  1  0  0  0  0
 13 34  1  0  0  0  0
 14 15  1  0  0  0  0
 14 35  1  0  0  0  0
 14 36  1  0  0  0  0
 15 16  1  0  0  0  0
 15 37  1  0  0  0  0
 15 38  1  0  0  0  0
 16 17  1  0  0  0  0
 17 18  1  0  0  0  0
 17 39  1  0  0  0  0
 18 19  1  0  0  0  0
 18 20  1  0  0  0  0
 19 40  1  0  0  0  0
 19 41  1  0  0  0  0
 19 42  1  0  0  0  0
 20 43  1  0  0  0  0
 20 44  1  0  0  0  0
 20 45  1  0  0  0  0
 21 22  2  0  0  0  0
 21 46  1  0  0  0  0
 22 47  1  0  0  0  0
M  CHG  1  22   1
M  END
> <s_m_source_file>
AV-unprocessed.smi

> <i_m_source_file_index>
2923

> <i_lp_mmshare_version>
43012

> <i_f3d_flags>
0

> <s_epik_input>
W0NIM11OKFtDSDNdKWMxW2NIXVtjSF1jKFtjSF1uMSlbTkhdQyg9TylbTkhdW0NASF0yQyhbQ0gzXSkoW0NIM10pW0NAQEhdKFtDQEhdMjMpT1tDSDJdW0NIMl0z

> <s_epik_cmdline>
J2VwaWtfcHl0aG9uJywgJy1waCcsICc3LjAnLCAnLXRuJywgJzgnLCAnLW1hJywgJzIwMCcsICctbWV0YWxfYmluZGluZycsICctaW1hZScsICc8aW5maWxlLm1hZT4nLCAnLW9tYWUnLCAnPG91dGZpbGUubWFlPic=

> <r_lp_tautomer_probability>
0.999994

> <r_epik_Ionization_Penalty>
0.252205

> <r_epik_Ionization_Penalty_Charging>
0.252185

> <r_epik_Ionization_Penalty_Neutral>
1.99479e-05

> <r_epik_State_Penalty>
0.243573

> <r_epik_Charging_Adjusted_Penalty>
0.495758

> <i_epik_Tot_Q>
1

> <i_epik_Tot_abs_Q>
1

> <r_epik_Metal_State_Penalty>
0.534372

> <b_epik_Metal_Only>
0

> <s_lp_Force_Field>
OPLS_2005

> <r_lp_Energy>
76.1272

> <b_lp_Chiralities_Consistent>
1

> <s_lp_Variant>
AV-unprocessed.smi:2923-1

> <Gold.Version>
5.8.1

> <Gold.Id.Protein>
6NUR|6NUR_protein|mol2

> <Gold.PLP.Fitness>
41.4752

> <Gold.PLP.PLP>
-36.3442

> <Gold.PLP.part.hbond>
-2.4755

> <Gold.PLP.part.metal>
0.0000

> <Gold.PLP.part.buried>
-0.0550

> <Gold.PLP.part.nonpolar>
-35.3343

> <Gold.PLP.part.repulsive>
0.8358

> <Gold.PLP.ligand.clash>
0.0000

> <Gold.PLP.ligand.torsion>
0.6499

> <Gold.PLP.Chemscore.Hbond>
1.9913

> <Gold.PLP.Chemscore.CHOScore>
0.0000

> <Gold.PLP.Chemscore.Metal>
0.0000

> <Gold.Chemscore.Hbonds>
donor molecule, donor type, donor heavy atom, donor atom, acceptor molecule, acceptor atom, score
      L1  H    22    47       P1  7921  0.71
      P1  H  7954  7966       L1    10  1.00

> <Gold.PLP.Chemscore.Internal.Correction>
0.4572

> <Gold.Rescore>
     Score         DG    S(hbond)    S(metal)    S(lipo)     H(rot)  DE(clash)    DE(int)     intcor
     16.50     -19.58       1.94        0.00      91.45       1.20       1.07       2.01       ----

> <Gold.Chemscore.Fitness>
16.5016

> <Gold.Chemscore.DG>
-19.5792

> <Gold.Chemscore.ZeroCoef>
-5.4800

> <Gold.Chemscore.Hbond>
1.9415

> <Gold.Chemscore.Metal>
0.0000

> <Gold.Chemscore.Lipo>
91.4473

> <Gold.Chemscore.Internal_Hbond>
0.0000

> <Gold.Chemscore.DEClash>
1.0718

> <Gold.Chemscore.DEInternal>
2.0058

> <Gold.Chemscore.Rot>
1.2049

> <Gold.Chemscore.Internal.Correction>
   9.000000E+99

> <Gold.Chemscore.Hbonds>
donor molecule, donor type, donor heavy atom, donor atom, acceptor molecule, acceptor atom, score
      L1  H    22    47       P1  7921  0.64
      P1  H  7954  7966       L1    10  0.99

> <Gold.Chemscore.Hbond.Weighted>
-6.4845

> <Gold.Chemscore.Metal.Weighted>
-0.0000

> <Gold.Chemscore.Lipo.Weighted>
-10.6993

> <Gold.Chemscore.Internal_Hbond.Weighted>
0.0000

> <Gold.Chemscore.DEClash.Weighted>
1.0718

> <Gold.Chemscore.DEInternal.Weighted>
2.0058

> <Gold.Chemscore.Rot.Weighted>
3.0846

> <Gold.Chemscore.Internal.Correction.Weighted>
   9.000000E+99

> <Gold.Protein.RotatedTorsions>
[ 6907 6896 6895 6894 ] final   56.63 input  -60.11 | X-H torsion
[ 7974 7965 7964 7962 ] final   77.07 input  175.53 | X-H torsion
[ 8008 7997 7996 7995 ] final -160.61 input   59.86 | X-H torsion
[ 10167 10162 10161 10158 ] final  142.12 input  -65.29 | X-H torsion
[ 10718 10713 10712 10709 ] final   70.94 input   66.30 | X-H torsion
[ 10763 10752 10751 10750 ] final  174.65 input  -60.55 | X-H torsion
[ 11005 11000 10999 10996 ] final  145.35 input  -57.11 | X-H torsion

> <Gold.Protein.ActiveResidues>
 VAL166  LYS551  ARG553  GLY616  TRP617  ASP618  TYR619  PRO620  LYS621  CYS622 
 ASP623  PHE694  ASN695  SER759  ASP760  ASP761  ALA762  ILE779  LEU786  VAL792 
 PHE793  MET794  SER795  GLU796  ALA797  LYS798  CYS799  TRP800  GLU811  SER814 

> <Gold.Protein.RotatedAtoms>
  152.3654  134.6811  160.0193 H   0  0  0  0  0  0  0  0  0  0  0  0  # atno 6907 bound_to 6896
  151.7121  133.3307  159.3301 H   0  0  0  0  0  0  0  0  0  0  0  0  # atno 6908 bound_to 6896
  150.7635  134.6457  159.6305 H   0  0  0  0  0  0  0  0  0  0  0  0  # atno 6909 bound_to 6896
  145.6947  139.2563  143.1739 H   0  0  0  0  0  0  0  0  0  0  0  0  # atno 7974 bound_to 7965
  155.7799  140.0863  157.2064 H   0  0  0  0  0  0  0  0  0  0  0  0  # atno 8008 bound_to 7997
  154.3991  140.1509  156.3098 H   0  0  0  0  0  0  0  0  0  0  0  0  # atno 8009 bound_to 7997
  155.8664  140.3427  155.5793 H   0  0  0  0  0  0  0  0  0  0  0  0  # atno 8010 bound_to 7997
  139.5002  144.6128  151.6233 H   0  0  0  0  0  0  0  0  0  0  0  0  # atno 10167 bound_to 10162
  157.6426  130.9503  150.0720 H   0  0  0  0  0  0  0  0  0  0  0  0  # atno 10718 bound_to 10713
  154.4569  135.2766  155.1741 H   0  0  0  0  0  0  0  0  0  0  0  0  # atno 10763 bound_to 10752
  154.3545  135.6143  153.5663 H   0  0  0  0  0  0  0  0  0  0  0  0  # atno 10764 bound_to 10752
  152.9851  135.5819  154.4924 H   0  0  0  0  0  0  0  0  0  0  0  0  # atno 10765 bound_to 10752
  140.0705  134.9154  157.1336 H   0  0  0  0  0  0  0  0  0  0  0  0  # atno 11005 bound_to 11000
  146.0851  140.7720  142.9623 LP  0  0  0  0  0  0  0  0  0  0  0  0  # atno 17320 bound_to 7965
  144.6986  140.3549  143.7175 LP  0  0  0  0  0  0  0  0  0  0  0  0  # atno 17321 bound_to 7965
  140.5807  143.9951  150.6266 LP  0  0  0  0  0  0  0  0  0  0  0  0  # atno 17342 bound_to 10162
  140.3099  143.3205  152.0889 LP  0  0  0  0  0  0  0  0  0  0  0  0  # atno 17343 bound_to 10162
  156.1721  130.3647  149.9150 LP  0  0  0  0  0  0  0  0  0  0  0  0  # atno 17370 bound_to 10713
  156.7123  130.8975  151.3610 LP  0  0  0  0  0  0  0  0  0  0  0  0  # atno 17371 bound_to 10713
  140.3635  134.2468  155.7184 LP  0  0  0  0  0  0  0  0  0  0  0  0  # atno 17394 bound_to 11000
  141.2010  133.7974  157.0463 LP  0  0  0  0  0  0  0  0  0  0  0  0  # atno 17395 bound_to 11000

$$$$
