AV-unprocessed.smi:694|AV-procd|sdf|3382|dock3
  -GOLD-   22720 0363D 1   1.00000     0.00000
 Structure written by MMmdl.
 42 43  0  0  0  0  0  0  0  0  1 V2000
  150.7028  145.2719  159.6548 C   0  0  0  0  0  0  0  0  0  0  0  0
  151.6815  144.3730  159.0511 N   0  0  0  0  0  0  0  0  0  0  0  0
  151.8949  144.3924  157.6093 C   0  0  0  0  0  0  0  0  0  0  0  0
  152.4081  143.4759  159.8669 C   0  0  0  0  0  0  0  0  0  0  0  0
  152.2946  143.5008  161.2790 C   0  0  0  0  0  0  0  0  0  0  0  0
  153.0434  142.5871  162.0448 C   0  0  0  0  0  0  0  0  0  0  0  0
  153.8920  141.6705  161.3949 C   0  0  0  0  0  0  0  0  0  0  0  0
  154.6188  140.7510  162.2004 N   0  0  0  0  0  0  0  0  0  0  0  0
  155.2892  139.6474  161.8262 C   0  0  0  0  0  0  0  0  0  0  0  0
  155.4311  139.2554  160.6684 O   0  0  0  0  0  0  0  0  0  0  0  0
  155.8150  139.0177  162.8864 N   0  0  0  0  0  0  0  0  0  0  0  0
  156.5997  137.7884  162.8252 C   0  0  0  0  0  0  0  0  0  0  0  0
  155.9339  136.6274  163.5950 C   0  0  2  0  0  0  0  0  0  0  0  0
  156.0395  135.2669  162.8966 C   0  0  0  0  0  0  0  0  0  0  0  0
  154.9088  134.4084  163.4837 C   0  0  0  0  0  0  0  0  0  0  0  0
  154.0034  135.3600  164.2822 C   0  0  0  0  0  0  0  0  0  0  0  0
  154.4339  136.7789  163.8952 C   0  0  2  0  0  0  0  0  0  0  0  0
  153.7122  137.1800  162.7451 O   0  0  0  0  0  0  0  0  0  0  0  0
  153.9331  141.7101  159.9811 C   0  0  0  0  0  0  0  0  0  0  0  0
  153.2180  142.5855  159.2439 N   0  0  0  0  0  0  0  0  0  0  0  0
  151.1828  145.9291  160.3807 H   0  0  0  0  0  0  0  0  0  0  0  0
  149.9246  144.7025  160.1647 H   0  0  0  0  0  0  0  0  0  0  0  0
  150.2200  145.8987  158.9050 H   0  0  0  0  0  0  0  0  0  0  0  0
  151.6481  143.4247  157.1716 H   0  0  0  0  0  0  0  0  0  0  0  0
  152.9346  144.6263  157.3786 H   0  0  0  0  0  0  0  0  0  0  0  0
  151.2714  145.1443  157.1256 H   0  0  0  0  0  0  0  0  0  0  0  0
  151.6501  144.2004  161.7893 H   0  0  0  0  0  0  0  0  0  0  0  0
  152.9655  142.5949  163.1221 H   0  0  0  0  0  0  0  0  0  0  0  0
  154.6558  140.9778  163.1832 H   0  0  0  0  0  0  0  0  0  0  0  0
  155.6526  139.4097  163.8023 H   0  0  0  0  0  0  0  0  0  0  0  0
  156.7335  137.5234  161.7763 H   0  0  0  0  0  0  0  0  0  0  0  0
  157.6006  137.9725  163.2194 H   0  0  0  0  0  0  0  0  0  0  0  0
  156.4413  136.5259  164.5560 H   0  0  0  0  0  0  0  0  0  0  0  0
  155.8847  135.3847  161.8233 H   0  0  0  0  0  0  0  0  0  0  0  0
  157.0200  134.8105  163.0362 H   0  0  0  0  0  0  0  0  0  0  0  0
  154.3522  133.9192  162.6836 H   0  0  0  0  0  0  0  0  0  0  0  0
  155.3037  133.6244  164.1307 H   0  0  0  0  0  0  0  0  0  0  0  0
  152.9424  135.1736  164.1110 H   0  0  0  0  0  0  0  0  0  0  0  0
  154.1858  135.2113  165.3473 H   0  0  0  0  0  0  0  0  0  0  0  0
  154.2459  137.4933  164.6976 H   0  0  0  0  0  0  0  0  0  0  0  0
  153.5229  138.1029  162.8164 H   0  0  0  0  0  0  0  0  0  0  0  0
  154.5300  141.0244  159.4014 H   0  0  0  0  0  0  0  0  0  0  0  0
  1  2  1  0  0  0  0
  1 21  1  0  0  0  0
  1 22  1  0  0  0  0
  1 23  1  0  0  0  0
  2  3  1  0  0  0  0
  2  4  1  0  0  0  0
  3 24  1  0  0  0  0
  3 25  1  0  0  0  0
  3 26  1  0  0  0  0
  4 20  1  0  0  0  0
  4  5  2  0  0  0  0
  5  6  1  0  0  0  0
  5 27  1  0  0  0  0
  6  7  2  0  0  0  0
  6 28  1  0  0  0  0
  7  8  1  0  0  0  0
  7 19  1  0  0  0  0
  8  9  1  0  0  0  0
  8 29  1  0  0  0  0
  9 10  2  0  0  0  0
  9 11  1  0  0  0  0
 11 12  1  0  0  0  0
 11 30  1  0  0  0  0
 12 13  1  0  0  0  0
 12 31  1  0  0  0  0
 12 32  1  0  0  0  0
 13 17  1  0  0  0  0
 13 14  1  0  0  0  0
 13 33  1  0  0  0  0
 14 15  1  0  0  0  0
 14 34  1  0  0  0  0
 14 35  1  0  0  0  0
 15 16  1  0  0  0  0
 15 36  1  0  0  0  0
 15 37  1  0  0  0  0
 16 17  1  0  0  0  0
 16 38  1  0  0  0  0
 16 39  1  0  0  0  0
 17 18  1  0  0  0  0
 17 40  1  0  0  0  0
 18 41  1  0  0  0  0
 19 20  2  0  0  0  0
 19 42  1  0  0  0  0
M  END
> <s_m_source_file>
AV-unprocessed.smi

> <i_m_source_file_index>
694

> <i_lp_mmshare_version>
43012

> <i_f3d_flags>
0

> <s_epik_input>
W0NIM11OKFtDSDNdKWMxW2NIXVtjSF1jKFtjSF1uMSlbTkhdQyg9TylbTkhdW0NIMl1bQ0BASF0yW0NIMl1bQ0gyXVtDSDJdW0NASF0yW09IXQ==

> <s_epik_cmdline>
J2VwaWtfcHl0aG9uJywgJy1waCcsICc3LjAnLCAnLXRuJywgJzgnLCAnLW1hJywgJzIwMCcsICctbWV0YWxfYmluZGluZycsICctaW1hZScsICc8aW5maWxlLm1hZT4nLCAnLW9tYWUnLCAnPG91dGZpbGUubWFlPic=

> <r_lp_tautomer_probability>
1

> <r_epik_Ionization_Penalty>
0.60335

> <r_epik_Ionization_Penalty_Charging>
0

> <r_epik_Ionization_Penalty_Neutral>
0.60335

> <r_epik_State_Penalty>
0.616805

> <r_epik_Charging_Adjusted_Penalty>
0.616805

> <i_epik_Tot_Q>
0

> <i_epik_Tot_abs_Q>
0

> <r_epik_Metal_State_Penalty>
0.301709

> <b_epik_Metal_Only>
0

> <s_lp_Force_Field>
OPLS_2005

> <r_lp_Energy>
30.3621

> <b_lp_Chiralities_Consistent>
1

> <s_lp_Variant>
AV-unprocessed.smi:694-7

> <Gold.Version>
5.8.1

> <Gold.Id.Protein>
6NUR|6NUR_protein|mol2

> <Gold.PLP.Fitness>
45.0277

> <Gold.PLP.PLP>
-46.2535

> <Gold.PLP.part.hbond>
-0.6319

> <Gold.PLP.part.metal>
0.0000

> <Gold.PLP.part.buried>
-6.2335

> <Gold.PLP.part.nonpolar>
-38.8609

> <Gold.PLP.part.repulsive>
0.0000

> <Gold.PLP.ligand.clash>
0.0000

> <Gold.PLP.ligand.torsion>
0.6206

> <Gold.PLP.Chemscore.Hbond>
0.0000

> <Gold.PLP.Chemscore.CHOScore>
0.0000

> <Gold.PLP.Chemscore.Metal>
0.0000

> <Gold.PLP.Chemscore.Internal.Correction>
0.0154

> <Gold.Rescore>
     Score         DG    S(hbond)    S(metal)    S(lipo)     H(rot)  DE(clash)    DE(int)     intcor
     11.21     -13.56       0.00        0.00     106.79       1.73       0.11       2.24       ----

> <Gold.Chemscore.Fitness>
11.2135

> <Gold.Chemscore.DG>
-13.5562

> <Gold.Chemscore.ZeroCoef>
-5.4800

> <Gold.Chemscore.Hbond>
0.0000

> <Gold.Chemscore.Metal>
0.0000

> <Gold.Chemscore.Lipo>
106.7913

> <Gold.Chemscore.Internal_Hbond>
0.0000

> <Gold.Chemscore.DEClash>
0.1073

> <Gold.Chemscore.DEInternal>
2.2354

> <Gold.Chemscore.Rot>
1.7259

> <Gold.Chemscore.Internal.Correction>
   9.000000E+99

> <Gold.Chemscore.Hbond.Weighted>
-0.0000

> <Gold.Chemscore.Metal.Weighted>
-0.0000

> <Gold.Chemscore.Lipo.Weighted>
-12.4946

> <Gold.Chemscore.Internal_Hbond.Weighted>
0.0000

> <Gold.Chemscore.DEClash.Weighted>
0.1073

> <Gold.Chemscore.DEInternal.Weighted>
2.2354

> <Gold.Chemscore.Rot.Weighted>
4.4184

> <Gold.Chemscore.Internal.Correction.Weighted>
   9.000000E+99

> <Gold.Protein.RotatedTorsions>
[ 6907 6896 6895 6894 ] final  -97.59 input  -60.11 | X-H torsion
[ 7974 7965 7964 7962 ] final   17.28 input  175.53 | X-H torsion
[ 8008 7997 7996 7995 ] final -125.01 input   59.86 | X-H torsion
[ 10167 10162 10161 10158 ] final   -9.29 input  -65.29 | X-H torsion
[ 10718 10713 10712 10709 ] final    6.97 input   66.30 | X-H torsion
[ 10763 10752 10751 10750 ] final  -58.65 input  -60.55 | X-H torsion
[ 11005 11000 10999 10996 ] final -136.14 input  -57.11 | X-H torsion

> <Gold.Protein.ActiveResidues>
 VAL166  LYS551  ARG553  GLY616  TRP617  ASP618  TYR619  PRO620  LYS621  CYS622 
 ASP623  PHE694  ASN695  SER759  ASP760  ASP761  ALA762  ILE779  LEU786  VAL792 
 PHE793  MET794  SER795  GLU796  ALA797  LYS798  CYS799  TRP800  GLU811  SER814 

> <Gold.Protein.RotatedAtoms>
  150.7021  134.1324  159.4074 H   0  0  0  0  0  0  0  0  0  0  0  0  # atno 6907 bound_to 6896
  151.9310  135.0254  160.0538 H   0  0  0  0  0  0  0  0  0  0  0  0  # atno 6908 bound_to 6896
  152.2175  133.4923  159.5181 H   0  0  0  0  0  0  0  0  0  0  0  0  # atno 6909 bound_to 6896
  146.2223  139.8625  142.8602 H   0  0  0  0  0  0  0  0  0  0  0  0  # atno 7974 bound_to 7965
  155.2062  140.0417  157.2926 H   0  0  0  0  0  0  0  0  0  0  0  0  # atno 8008 bound_to 7997
  154.6042  140.2460  155.7724 H   0  0  0  0  0  0  0  0  0  0  0  0  # atno 8009 bound_to 7997
  156.2340  140.2928  156.0271 H   0  0  0  0  0  0  0  0  0  0  0  0  # atno 8010 bound_to 7997
  140.7083  143.5874  150.8929 H   0  0  0  0  0  0  0  0  0  0  0  0  # atno 10167 bound_to 10162
  156.9301  130.5823  149.5649 H   0  0  0  0  0  0  0  0  0  0  0  0  # atno 10718 bound_to 10713
  154.2415  135.6342  153.5209 H   0  0  0  0  0  0  0  0  0  0  0  0  # atno 10763 bound_to 10752
  152.9929  135.5543  154.5905 H   0  0  0  0  0  0  0  0  0  0  0  0  # atno 10764 bound_to 10752
  154.5412  135.2895  155.1068 H   0  0  0  0  0  0  0  0  0  0  0  0  # atno 10765 bound_to 10752
  140.8832  134.1905  157.4577 H   0  0  0  0  0  0  0  0  0  0  0  0  # atno 11005 bound_to 11000
  145.2690  141.0102  143.3783 LP  0  0  0  0  0  0  0  0  0  0  0  0  # atno 17320 bound_to 7965
  144.9238  139.4379  143.6528 LP  0  0  0  0  0  0  0  0  0  0  0  0  # atno 17321 bound_to 7965
  139.9599  143.6175  152.3005 LP  0  0  0  0  0  0  0  0  0  0  0  0  # atno 17342 bound_to 10162
  139.6724  144.7660  151.1758 LP  0  0  0  0  0  0  0  0  0  0  0  0  # atno 17343 bound_to 10162
  156.0451  130.5529  150.8862 LP  0  0  0  0  0  0  0  0  0  0  0  0  # atno 17370 bound_to 10713
  157.5852  131.0945  150.9207 LP  0  0  0  0  0  0  0  0  0  0  0  0  # atno 17371 bound_to 10713
  139.8722  134.9826  156.5165 LP  0  0  0  0  0  0  0  0  0  0  0  0  # atno 17394 bound_to 11000
  140.8436  133.8186  155.9099 LP  0  0  0  0  0  0  0  0  0  0  0  0  # atno 17395 bound_to 11000

$$$$
