AV-unprocessed.smi:1047|AV-procd|sdf|4588|dock10
  -GOLD-   22720 3 63D 1   1.00000     0.00000
 Structure written by MMmdl.
 57 59  0  0  0  0  0  0  0  0  3 V2000
  145.3247  132.6305  150.5397 C   0  0  0  0  0  0  0  0  0  0  0  0
  145.6669  133.8847  151.3566 C   0  0  0  0  0  0  0  0  0  0  0  0
  146.4940  133.6457  152.5384 N   0  0  0  0  0  0  0  0  0  0  0  0
  147.7233  132.9215  152.2252 C   0  0  0  0  0  0  0  0  0  0  0  0
  148.5963  132.7091  153.4732 C   0  0  0  0  0  0  0  0  0  0  0  0
  148.8752  133.9654  154.0829 O   0  0  0  0  0  0  0  0  0  0  0  0
  147.6985  134.6783  154.4570 C   0  0  1  0  0  0  0  0  0  0  0  0
  148.1301  136.0043  155.0978 C   0  0  0  0  0  0  0  0  0  0  0  0
  149.3852  136.5013  154.5003 N   0  3  0  0  0  0  0  0  0  0  0  0
  149.5249  137.9707  154.5393 C   0  0  0  0  0  0  0  0  0  0  0  0
  150.9941  138.4092  154.3820 C   0  0  2  0  0  0  0  0  0  0  0  0
  151.7661  137.3024  153.9614 O   0  0  0  0  0  0  0  0  0  0  0  0
  151.6299  138.9395  155.6836 C   0  0  0  0  0  0  0  0  0  0  0  0
  151.1225  140.2615  156.0794 N   0  0  0  0  0  0  0  0  0  0  0  0
  150.2191  141.0639  155.4529 C   0  0  0  0  0  0  0  0  0  0  0  0
  150.0824  142.1929  156.2015 N   0  3  0  0  0  0  0  0  0  0  0  0
  150.9144  142.1145  157.3200 C   0  0  0  0  0  0  0  0  0  0  0  0
  151.1219  143.0097  158.3628 C   0  0  0  0  0  0  0  0  0  0  0  0
  152.0438  142.6309  159.3644 C   0  0  0  0  0  0  0  0  0  0  0  0
  152.2915  143.5852  160.5206 C   0  0  0  0  0  0  0  0  0  0  0  0
  152.7249  141.3881  159.2967 C   0  0  0  0  0  0  0  0  0  0  0  0
  153.7138  140.9904  160.3794 C   0  0  0  0  0  0  0  0  0  0  0  0
  152.5003  140.4915  158.2274 C   0  0  0  0  0  0  0  0  0  0  0  0
  151.5879  140.8790  157.2480 C   0  0  0  0  0  0  0  0  0  0  0  0
  146.8382  134.9009  153.1969 C   0  0  0  0  0  0  0  0  0  0  0  0
  144.6155  132.8723  149.7479 H   0  0  0  0  0  0  0  0  0  0  0  0
  144.8705  131.8633  151.1671 H   0  0  0  0  0  0  0  0  0  0  0  0
  146.2058  132.2017  150.0627 H   0  0  0  0  0  0  0  0  0  0  0  0
  146.1467  134.6200  150.7088 H   0  0  0  0  0  0  0  0  0  0  0  0
  144.7248  134.3342  151.6731 H   0  0  0  0  0  0  0  0  0  0  0  0
  147.4901  131.9482  151.7943 H   0  0  0  0  0  0  0  0  0  0  0  0
  148.2943  133.4685  151.4732 H   0  0  0  0  0  0  0  0  0  0  0  0
  148.0957  132.0534  154.1873 H   0  0  0  0  0  0  0  0  0  0  0  0
  149.5358  132.2285  153.2007 H   0  0  0  0  0  0  0  0  0  0  0  0
  147.1323  134.0914  155.1827 H   0  0  0  0  0  0  0  0  0  0  0  0
  147.3433  136.7509  154.9808 H   0  0  0  0  0  0  0  0  0  0  0  0
  148.2863  135.8662  156.1686 H   0  0  0  0  0  0  0  0  0  0  0  0
  150.1631  136.0884  154.9949 H   0  0  0  0  0  0  0  0  0  0  0  0
  148.9245  138.3765  153.7250 H   0  0  0  0  0  0  0  0  0  0  0  0
  149.1062  138.3595  155.4688 H   0  0  0  0  0  0  0  0  0  0  0  0
  151.0646  139.1838  153.6169 H   0  0  0  0  0  0  0  0  0  0  0  0
  151.4576  137.0126  153.1166 H   0  0  0  0  0  0  0  0  0  0  0  0
  151.4933  138.2368  156.5056 H   0  0  0  0  0  0  0  0  0  0  0  0
  152.7082  139.0429  155.5526 H   0  0  0  0  0  0  0  0  0  0  0  0
  149.7048  140.8461  154.5275 H   0  0  0  0  0  0  0  0  0  0  0  0
  150.6005  143.9549  158.4073 H   0  0  0  0  0  0  0  0  0  0  0  0
  152.0711  143.1005  161.4721 H   0  0  0  0  0  0  0  0  0  0  0  0
  151.6629  144.4734  160.4474 H   0  0  0  0  0  0  0  0  0  0  0  0
  153.3315  143.9124  160.5303 H   0  0  0  0  0  0  0  0  0  0  0  0
  154.1867  140.0335  160.1566 H   0  0  0  0  0  0  0  0  0  0  0  0
  153.2091  140.8974  161.3415 H   0  0  0  0  0  0  0  0  0  0  0  0
  154.5033  141.7366  160.4726 H   0  0  0  0  0  0  0  0  0  0  0  0
  153.0192  139.5456  158.1828 H   0  0  0  0  0  0  0  0  0  0  0  0
  147.3750  135.5471  152.4999 H   0  0  0  0  0  0  0  0  0  0  0  0
  145.9266  135.4321  153.4731 H   0  0  0  0  0  0  0  0  0  0  0  0
  149.4183  136.2000  153.5366 H   0  0  0  0  0  0  0  0  0  0  0  0
  149.4689  142.9617  155.9623 H   0  0  0  0  0  0  0  0  0  0  0  0
  1  2  1  0  0  0  0
  1 26  1  0  0  0  0
  1 27  1  0  0  0  0
  1 28  1  0  0  0  0
  2  3  1  0  0  0  0
  2 29  1  0  0  0  0
  2 30  1  0  0  0  0
  3 25  1  0  0  0  0
  3  4  1  0  0  0  0
  4  5  1  0  0  0  0
  4 31  1  0  0  0  0
  4 32  1  0  0  0  0
  5  6  1  0  0  0  0
  5 33  1  0  0  0  0
  5 34  1  0  0  0  0
  6  7  1  0  0  0  0
  7  8  1  0  0  0  0
  7 25  1  0  0  0  0
  7 35  1  0  0  0  0
  8  9  1  0  0  0  0
  8 36  1  0  0  0  0
  8 37  1  0  0  0  0
  9 10  1  0  0  0  0
  9 38  1  0  0  0  0
  9 56  1  0  0  0  0
 10 11  1  0  0  0  0
 10 39  1  0  0  0  0
 10 40  1  0  0  0  0
 11 12  1  0  0  0  0
 11 13  1  0  0  0  0
 11 41  1  0  0  0  0
 12 42  1  0  0  0  0
 13 14  1  0  0  0  0
 13 43  1  0  0  0  0
 13 44  1  0  0  0  0
 14 24  1  0  0  0  0
 14 15  1  0  0  0  0
 15 16  2  0  0  0  0
 15 45  1  0  0  0  0
 16 17  1  0  0  0  0
 16 57  1  0  0  0  0
 17 24  2  0  0  0  0
 17 18  1  0  0  0  0
 18 19  2  0  0  0  0
 18 46  1  0  0  0  0
 19 20  1  0  0  0  0
 19 21  1  0  0  0  0
 20 47  1  0  0  0  0
 20 48  1  0  0  0  0
 20 49  1  0  0  0  0
 21 22  1  0  0  0  0
 21 23  2  0  0  0  0
 22 50  1  0  0  0  0
 22 51  1  0  0  0  0
 22 52  1  0  0  0  0
 23 24  1  0  0  0  0
 23 53  1  0  0  0  0
 25 54  1  0  0  0  0
 25 55  1  0  0  0  0
M  CHG  1   9   1
M  CHG  1  16   1
M  END
> <s_m_source_file>
AV-unprocessed.smi

> <i_m_source_file_index>
1047

> <i_lp_mmshare_version>
43012

> <i_f3d_flags>
0

> <s_epik_input>
W0NIM11bQ0gyXU4xW0NIMl1bQ0gyXU9bQ0BIXShbQ0gyXTEpW0NIMl1bTkhdW0NIMl1bQ0BIXShbT0hdKVtDSDJdbihbY0hdbjIpYyhjMjMpW2NIXWMoW0NIM10pYyhbY0hdMylbQ0gzXQ==

> <s_epik_cmdline>
J2VwaWtfcHl0aG9uJywgJy1waCcsICc3LjAnLCAnLXRuJywgJzgnLCAnLW1hJywgJzIwMCcsICctbWV0YWxfYmluZGluZycsICctaW1hZScsICc8aW5maWxlLm1hZT4nLCAnLW9tYWUnLCAnPG91dGZpbGUubWFlPic=

> <r_epik_Ionization_Penalty>
1.75732

> <r_epik_Ionization_Penalty_Charging>
1.18089

> <r_epik_Ionization_Penalty_Neutral>
0.576429

> <r_epik_State_Penalty>
1.69377

> <r_epik_Charging_Adjusted_Penalty>
2.87466

> <i_epik_Tot_Q>
2

> <i_epik_Tot_abs_Q>
2

> <r_epik_Metal_State_Penalty>
5.70174

> <b_epik_Metal_Only>
0

> <s_lp_Force_Field>
OPLS_2005

> <r_lp_Energy>
42.0789

> <b_lp_Chiralities_Consistent>
1

> <s_lp_Variant>
AV-unprocessed.smi:1047-29

> <Gold.Version>
5.8.1

> <Gold.Id.Protein>
6NUR|6NUR_protein|mol2

> <Gold.PLP.Fitness>
63.2286

> <Gold.PLP.PLP>
-48.9307

> <Gold.PLP.part.hbond>
-4.0000

> <Gold.PLP.part.metal>
0.0000

> <Gold.PLP.part.buried>
-4.5287

> <Gold.PLP.part.nonpolar>
-40.1727

> <Gold.PLP.part.repulsive>
0.3713

> <Gold.PLP.ligand.clash>
0.0000

> <Gold.PLP.ligand.torsion>
1.3559

> <Gold.PLP.Chemscore.Hbond>
5.6392

> <Gold.PLP.Chemscore.CHOScore>
0.0000

> <Gold.PLP.Chemscore.Metal>
0.0000

> <Gold.Chemscore.Hbonds>
donor molecule, donor type, donor heavy atom, donor atom, acceptor molecule, acceptor atom, score
      L1  H     9    56       P1  7948  2.00
      L1  H    12    42       P1  7949  1.00
      L1  H    16    57       P1  8028  2.00
      P1  H 10752 10763       L1    12  0.72

> <Gold.PLP.Chemscore.Internal.Correction>
0.0922

> <Gold.Rescore>
     Score         DG    S(hbond)    S(metal)    S(lipo)     H(rot)  DE(clash)    DE(int)     intcor
     21.21     -22.43       2.86        0.00     122.15       2.69       0.02       1.20       ----

> <Gold.Chemscore.Fitness>
21.2083

> <Gold.Chemscore.DG>
-22.4291

> <Gold.Chemscore.ZeroCoef>
-5.4800

> <Gold.Chemscore.Hbond>
2.8588

> <Gold.Chemscore.Metal>
0.0000

> <Gold.Chemscore.Lipo>
122.1499

> <Gold.Chemscore.Internal_Hbond>
0.0000

> <Gold.Chemscore.DEClash>
0.0222

> <Gold.Chemscore.DEInternal>
1.1986

> <Gold.Chemscore.Rot>
2.6917

> <Gold.Chemscore.Internal.Correction>
   9.000000E+99

> <Gold.Chemscore.Hbonds>
donor molecule, donor type, donor heavy atom, donor atom, acceptor molecule, acceptor atom, score
      L1  H     9    56       P1  7948  0.64
      L1  H    12    42       P1  7949  0.87
      L1  H    16    57       P1  8028  1.00
      P1  H 10752 10763       L1    12  0.12

> <Gold.Chemscore.Hbond.Weighted>
-9.5483

> <Gold.Chemscore.Metal.Weighted>
-0.0000

> <Gold.Chemscore.Lipo.Weighted>
-14.2915

> <Gold.Chemscore.Internal_Hbond.Weighted>
0.0000

> <Gold.Chemscore.DEClash.Weighted>
0.0222

> <Gold.Chemscore.DEInternal.Weighted>
1.1986

> <Gold.Chemscore.Rot.Weighted>
6.8907

> <Gold.Chemscore.Internal.Correction.Weighted>
   9.000000E+99

> <Gold.Protein.RotatedTorsions>
[ 6907 6896 6895 6894 ] final  165.22 input  -60.11 | X-H torsion
[ 7974 7965 7964 7962 ] final  157.37 input  175.53 | X-H torsion
[ 8008 7997 7996 7995 ] final -172.40 input   59.86 | X-H torsion
[ 10167 10162 10161 10158 ] final  101.10 input  -65.29 | X-H torsion
[ 10718 10713 10712 10709 ] final   24.09 input   66.30 | X-H torsion
[ 10763 10752 10751 10750 ] final   48.83 input  -60.55 | X-H torsion
[ 11005 11000 10999 10996 ] final -163.66 input  -57.11 | X-H torsion

> <Gold.Protein.ActiveResidues>
 VAL166  LYS551  ARG553  GLY616  TRP617  ASP618  TYR619  PRO620  LYS621  CYS622 
 ASP623  PHE694  ASN695  SER759  ASP760  ASP761  ALA762  ILE779  LEU786  VAL792 
 PHE793  MET794  SER795  GLU796  ALA797  LYS798  CYS799  TRP800  GLU811  SER814 

> <Gold.Protein.RotatedAtoms>
  151.8978  133.3531  159.3820 H   0  0  0  0  0  0  0  0  0  0  0  0  # atno 6907 bound_to 6896
  150.7087  134.4859  159.5501 H   0  0  0  0  0  0  0  0  0  0  0  0  # atno 6908 bound_to 6896
  152.2441  134.8199  160.0507 H   0  0  0  0  0  0  0  0  0  0  0  0  # atno 6909 bound_to 6896
  144.7907  139.7331  143.6222 H   0  0  0  0  0  0  0  0  0  0  0  0  # atno 7974 bound_to 7965
  155.9441  140.1114  157.1031 H   0  0  0  0  0  0  0  0  0  0  0  0  # atno 8008 bound_to 7997
  154.4095  140.1213  156.5032 H   0  0  0  0  0  0  0  0  0  0  0  0  # atno 8009 bound_to 7997
  155.6925  140.3472  155.4902 H   0  0  0  0  0  0  0  0  0  0  0  0  # atno 8010 bound_to 7997
  139.7468  144.6996  151.0492 H   0  0  0  0  0  0  0  0  0  0  0  0  # atno 10167 bound_to 10162
  157.1750  130.6777  149.6092 H   0  0  0  0  0  0  0  0  0  0  0  0  # atno 10718 bound_to 10713
  152.9789  135.5931  154.3990 H   0  0  0  0  0  0  0  0  0  0  0  0  # atno 10763 bound_to 10752
  154.3637  135.2767  155.2307 H   0  0  0  0  0  0  0  0  0  0  0  0  # atno 10764 bound_to 10752
  154.4293  135.6040  153.6113 H   0  0  0  0  0  0  0  0  0  0  0  0  # atno 10765 bound_to 10752
  140.5956  134.5000  157.5198 H   0  0  0  0  0  0  0  0  0  0  0  0  # atno 11005 bound_to 11000
  146.2158  139.5547  142.9651 LP  0  0  0  0  0  0  0  0  0  0  0  0  # atno 17320 bound_to 7965
  145.5801  141.0383  143.2127 LP  0  0  0  0  0  0  0  0  0  0  0  0  # atno 17321 bound_to 7965
  140.7793  143.4857  150.9959 LP  0  0  0  0  0  0  0  0  0  0  0  0  # atno 17342 bound_to 10162
  139.8545  143.7394  152.3176 LP  0  0  0  0  0  0  0  0  0  0  0  0  # atno 17343 bound_to 10162
  155.9732  130.4666  150.6295 LP  0  0  0  0  0  0  0  0  0  0  0  0  # atno 17370 bound_to 10713
  157.4007  131.0809  151.1311 LP  0  0  0  0  0  0  0  0  0  0  0  0  # atno 17371 bound_to 10713
  139.9255  134.8065  156.1082 LP  0  0  0  0  0  0  0  0  0  0  0  0  # atno 17394 bound_to 11000
  141.0906  133.6716  156.2533 LP  0  0  0  0  0  0  0  0  0  0  0  0  # atno 17395 bound_to 11000

$$$$
