AV-unprocessed.smi:1047|AV-procd|sdf|4563|dock2
  -GOLD-   22720 3 03D 1   1.00000     0.00000
 Structure written by MMmdl.
 57 59  0  0  0  0  0  0  0  0  3 V2000
  147.3607  133.1861  152.3157 C   0  0  0  0  0  0  0  0  0  0  0  0
  147.8869  132.4511  153.5567 C   0  0  0  0  0  0  0  0  0  0  0  0
  149.0281  133.1546  154.1942 N   0  3  2  0  0  0  0  0  0  0  0  0
  149.5119  132.4575  155.4098 C   0  0  0  0  0  0  0  0  0  0  0  0
  150.7302  133.1856  156.0022 C   0  0  0  0  0  0  0  0  0  0  0  0
  150.3903  134.5374  156.2879 O   0  0  0  0  0  0  0  0  0  0  0  0
  149.9954  135.2513  155.1211 C   0  0  2  0  0  0  0  0  0  0  0  0
  149.7784  136.7298  155.4871 C   0  0  0  0  0  0  0  0  0  0  0  0
  149.2470  137.5166  154.3541 N   0  3  0  0  0  0  0  0  0  0  0  0
  150.0054  138.7523  154.0749 C   0  0  0  0  0  0  0  0  0  0  0  0
  149.2724  139.9964  154.6137 C   0  0  2  0  0  0  0  0  0  0  0  0
  148.3572  140.4474  153.6353 O   0  0  0  0  0  0  0  0  0  0  0  0
  150.2080  141.1739  154.9565 C   0  0  0  0  0  0  0  0  0  0  0  0
  151.1189  140.8699  156.0451 N   0  0  0  0  0  0  0  0  0  0  0  0
  151.9018  139.7803  156.1645 C   0  0  0  0  0  0  0  0  0  0  0  0
  152.6749  139.7021  157.2435 N   0  0  0  0  0  0  0  0  0  0  0  0
  152.3521  140.8744  157.9050 C   0  0  0  0  0  0  0  0  0  0  0  0
  152.8314  141.4018  159.1239 C   0  0  0  0  0  0  0  0  0  0  0  0
  152.3595  142.6408  159.6129 C   0  0  0  0  0  0  0  0  0  0  0  0
  152.9053  143.1722  160.9266 C   0  0  0  0  0  0  0  0  0  0  0  0
  151.3897  143.3713  158.8802 C   0  0  0  0  0  0  0  0  0  0  0  0
  150.8689  144.7048  159.3862 C   0  0  0  0  0  0  0  0  0  0  0  0
  150.8979  142.8575  157.6621 C   0  0  0  0  0  0  0  0  0  0  0  0
  151.3782  141.6254  157.1840 C   0  0  0  0  0  0  0  0  0  0  0  0
  148.7543  134.5827  154.4927 C   0  0  0  0  0  0  0  0  0  0  0  0
  146.5853  132.5984  151.8234 H   0  0  0  0  0  0  0  0  0  0  0  0
  148.1566  133.3537  151.5895 H   0  0  0  0  0  0  0  0  0  0  0  0
  146.9220  134.1517  152.5656 H   0  0  0  0  0  0  0  0  0  0  0  0
  147.0862  132.2990  154.2820 H   0  0  0  0  0  0  0  0  0  0  0  0
  148.2118  131.4581  153.2426 H   0  0  0  0  0  0  0  0  0  0  0  0
  148.7099  132.4078  156.1480 H   0  0  0  0  0  0  0  0  0  0  0  0
  149.7856  131.4304  155.1646 H   0  0  0  0  0  0  0  0  0  0  0  0
  151.0458  132.6988  156.9253 H   0  0  0  0  0  0  0  0  0  0  0  0
  151.5788  133.1474  155.3171 H   0  0  0  0  0  0  0  0  0  0  0  0
  150.8142  135.2111  154.4001 H   0  0  0  0  0  0  0  0  0  0  0  0
  149.0829  136.8017  156.3242 H   0  0  0  0  0  0  0  0  0  0  0  0
  150.7200  137.1685  155.8197 H   0  0  0  0  0  0  0  0  0  0  0  0
  149.2625  136.9447  153.5216 H   0  0  0  0  0  0  0  0  0  0  0  0
  150.9817  138.6538  154.5497 H   0  0  0  0  0  0  0  0  0  0  0  0
  150.1787  138.8468  153.0018 H   0  0  0  0  0  0  0  0  0  0  0  0
  148.7064  139.7230  155.5054 H   0  0  0  0  0  0  0  0  0  0  0  0
  148.5997  140.0781  152.7994 H   0  0  0  0  0  0  0  0  0  0  0  0
  150.7967  141.4617  154.0843 H   0  0  0  0  0  0  0  0  0  0  0  0
  149.6233  142.0512  155.2376 H   0  0  0  0  0  0  0  0  0  0  0  0
  151.9081  139.0034  155.4140 H   0  0  0  0  0  0  0  0  0  0  0  0
  153.5699  140.8452  159.6821 H   0  0  0  0  0  0  0  0  0  0  0  0
  152.1007  143.2992  161.6512 H   0  0  0  0  0  0  0  0  0  0  0  0
  153.3926  144.1359  160.7765 H   0  0  0  0  0  0  0  0  0  0  0  0
  153.6392  142.4910  161.3584 H   0  0  0  0  0  0  0  0  0  0  0  0
  150.1435  145.1371  158.6965 H   0  0  0  0  0  0  0  0  0  0  0  0
  151.6865  145.4168  159.4999 H   0  0  0  0  0  0  0  0  0  0  0  0
  150.3799  144.5814  160.3526 H   0  0  0  0  0  0  0  0  0  0  0  0
  150.1590  143.4043  157.0952 H   0  0  0  0  0  0  0  0  0  0  0  0
  148.4832  135.1138  153.5808 H   0  0  0  0  0  0  0  0  0  0  0  0
  147.8997  134.6499  155.1678 H   0  0  0  0  0  0  0  0  0  0  0  0
  148.2890  137.7671  154.5548 H   0  0  0  0  0  0  0  0  0  0  0  0
  149.7892  133.1279  153.5303 H   0  0  0  0  0  0  0  0  0  0  0  0
  1  2  1  0  0  0  0
  1 26  1  0  0  0  0
  1 27  1  0  0  0  0
  1 28  1  0  0  0  0
  2  3  1  0  0  0  0
  2 29  1  0  0  0  0
  2 30  1  0  0  0  0
  3 25  1  0  0  0  0
  3  4  1  0  0  0  0
  3 57  1  0  0  0  0
  4  5  1  0  0  0  0
  4 31  1  0  0  0  0
  4 32  1  0  0  0  0
  5  6  1  0  0  0  0
  5 33  1  0  0  0  0
  5 34  1  0  0  0  0
  6  7  1  0  0  0  0
  7  8  1  0  0  0  0
  7 25  1  0  0  0  0
  7 35  1  0  0  0  0
  8  9  1  0  0  0  0
  8 36  1  0  0  0  0
  8 37  1  0  0  0  0
  9 10  1  0  0  0  0
  9 38  1  0  0  0  0
  9 56  1  0  0  0  0
 10 11  1  0  0  0  0
 10 39  1  0  0  0  0
 10 40  1  0  0  0  0
 11 12  1  0  0  0  0
 11 13  1  0  0  0  0
 11 41  1  0  0  0  0
 12 42  1  0  0  0  0
 13 14  1  0  0  0  0
 13 43  1  0  0  0  0
 13 44  1  0  0  0  0
 14 24  1  0  0  0  0
 14 15  1  0  0  0  0
 15 16  2  0  0  0  0
 15 45  1  0  0  0  0
 16 17  1  0  0  0  0
 17 24  2  0  0  0  0
 17 18  1  0  0  0  0
 18 19  2  0  0  0  0
 18 46  1  0  0  0  0
 19 20  1  0  0  0  0
 19 21  1  0  0  0  0
 20 47  1  0  0  0  0
 20 48  1  0  0  0  0
 20 49  1  0  0  0  0
 21 22  1  0  0  0  0
 21 23  2  0  0  0  0
 22 50  1  0  0  0  0
 22 51  1  0  0  0  0
 22 52  1  0  0  0  0
 23 24  1  0  0  0  0
 23 53  1  0  0  0  0
 25 54  1  0  0  0  0
 25 55  1  0  0  0  0
M  CHG  1   3   1
M  CHG  1   9   1
M  END
> <s_m_source_file>
AV-unprocessed.smi

> <i_m_source_file_index>
1047

> <i_lp_mmshare_version>
43012

> <i_f3d_flags>
0

> <s_epik_input>
W0NIM11bQ0gyXU4xW0NIMl1bQ0gyXU9bQ0BIXShbQ0gyXTEpW0NIMl1bTkhdW0NIMl1bQ0BIXShbT0hdKVtDSDJdbihbY0hdbjIpYyhjMjMpW2NIXWMoW0NIM10pYyhbY0hdMylbQ0gzXQ==

> <s_epik_cmdline>
J2VwaWtfcHl0aG9uJywgJy1waCcsICc3LjAnLCAnLXRuJywgJzgnLCAnLW1hJywgJzIwMCcsICctbWV0YWxfYmluZGluZycsICctaW1hZScsICc8aW5maWxlLm1hZT4nLCAnLW9tYWUnLCAnPG91dGZpbGUubWFlPic=

> <r_epik_Ionization_Penalty>
0.528991

> <r_epik_Ionization_Penalty_Charging>
0.438567

> <r_epik_Ionization_Penalty_Neutral>
0.0904237

> <r_epik_State_Penalty>
0.533036

> <r_epik_Charging_Adjusted_Penalty>
0.971603

> <i_epik_Tot_Q>
2

> <i_epik_Tot_abs_Q>
2

> <r_epik_Metal_State_Penalty>
0.448985

> <b_epik_Metal_Only>
0

> <s_lp_Force_Field>
OPLS_2005

> <r_lp_Energy>
33.7981

> <b_lp_Chiralities_Consistent>
1

> <s_lp_Variant>
AV-unprocessed.smi:1047-4

> <Gold.Version>
5.8.1

> <Gold.Id.Protein>
6NUR|6NUR_protein|mol2

> <Gold.PLP.Fitness>
59.4329

> <Gold.PLP.PLP>
-49.4051

> <Gold.PLP.part.hbond>
-3.0000

> <Gold.PLP.part.metal>
0.0000

> <Gold.PLP.part.buried>
-3.9404

> <Gold.PLP.part.nonpolar>
-41.8147

> <Gold.PLP.part.repulsive>
0.0000

> <Gold.PLP.ligand.clash>
0.0000

> <Gold.PLP.ligand.torsion>
1.1187

> <Gold.PLP.Chemscore.Hbond>
4.0000

> <Gold.PLP.Chemscore.CHOScore>
0.0000

> <Gold.PLP.Chemscore.Metal>
0.0000

> <Gold.Chemscore.Hbonds>
donor molecule, donor type, donor heavy atom, donor atom, acceptor molecule, acceptor atom, score
      L1  H     9    38       P1  7948  2.00
      L1  H    12    42       P1  7957  1.00
      P1  H  7997  8010       L1    16  1.00

> <Gold.PLP.Chemscore.Internal.Correction>
0.2651

> <Gold.Rescore>
     Score         DG    S(hbond)    S(metal)    S(lipo)     H(rot)  DE(clash)    DE(int)     intcor
     20.07     -22.62       2.62        0.00     130.65       2.70       0.37       2.17       ----

> <Gold.Chemscore.Fitness>
20.0692

> <Gold.Chemscore.DG>
-22.6162

> <Gold.Chemscore.ZeroCoef>
-5.4800

> <Gold.Chemscore.Hbond>
2.6221

> <Gold.Chemscore.Metal>
0.0000

> <Gold.Chemscore.Lipo>
130.6539

> <Gold.Chemscore.Internal_Hbond>
0.0000

> <Gold.Chemscore.DEClash>
0.3746

> <Gold.Chemscore.DEInternal>
2.1724

> <Gold.Chemscore.Rot>
2.6985

> <Gold.Chemscore.Internal.Correction>
   9.000000E+99

> <Gold.Chemscore.Hbonds>
donor molecule, donor type, donor heavy atom, donor atom, acceptor molecule, acceptor atom, score
      L1  H     9    38       P1  7948  0.98
      L1  H    12    42       P1  7957  0.97
      P1  H  7997  8010       L1    16  0.18

> <Gold.Chemscore.Hbond.Weighted>
-8.7578

> <Gold.Chemscore.Metal.Weighted>
-0.0000

> <Gold.Chemscore.Lipo.Weighted>
-15.2865

> <Gold.Chemscore.Internal_Hbond.Weighted>
0.0000

> <Gold.Chemscore.DEClash.Weighted>
0.3746

> <Gold.Chemscore.DEInternal.Weighted>
2.1724

> <Gold.Chemscore.Rot.Weighted>
6.9081

> <Gold.Chemscore.Internal.Correction.Weighted>
   9.000000E+99

> <Gold.Protein.RotatedTorsions>
[ 6907 6896 6895 6894 ] final -170.44 input  -60.11 | X-H torsion
[ 7974 7965 7964 7962 ] final   -7.03 input  175.53 | X-H torsion
[ 8008 7997 7996 7995 ] final   55.31 input   59.86 | X-H torsion
[ 10167 10162 10161 10158 ] final   38.05 input  -65.29 | X-H torsion
[ 10718 10713 10712 10709 ] final -128.78 input   66.30 | X-H torsion
[ 10763 10752 10751 10750 ] final   68.11 input  -60.55 | X-H torsion
[ 11005 11000 10999 10996 ] final   60.72 input  -57.11 | X-H torsion

> <Gold.Protein.ActiveResidues>
 VAL166  LYS551  ARG553  GLY616  TRP617  ASP618  TYR619  PRO620  LYS621  CYS622 
 ASP623  PHE694  ASN695  SER759  ASP760  ASP761  ALA762  ILE779  LEU786  VAL792 
 PHE793  MET794  SER795  GLU796  ALA797  LYS798  CYS799  TRP800  GLU811  SER814 

> <Gold.Protein.RotatedAtoms>
  151.5078  133.3491  159.2879 H   0  0  0  0  0  0  0  0  0  0  0  0  # atno 6907 bound_to 6896
  150.8732  134.8112  159.7181 H   0  0  0  0  0  0  0  0  0  0  0  0  # atno 6908 bound_to 6896
  152.4712  134.4965  159.9763 H   0  0  0  0  0  0  0  0  0  0  0  0  # atno 6909 bound_to 6896
  146.2317  140.2259  142.8339 H   0  0  0  0  0  0  0  0  0  0  0  0  # atno 7974 bound_to 7965
  155.4990  140.3474  155.4368 H   0  0  0  0  0  0  0  0  0  0  0  0  # atno 8008 bound_to 7997
  156.0926  140.1414  156.9600 H   0  0  0  0  0  0  0  0  0  0  0  0  # atno 8009 bound_to 7997
  154.4644  140.0923  156.6958 H   0  0  0  0  0  0  0  0  0  0  0  0  # atno 8010 bound_to 7997
  140.3974  144.1770  150.6132 H   0  0  0  0  0  0  0  0  0  0  0  0  # atno 10167 bound_to 10162
  156.1984  130.6841  151.0509 H   0  0  0  0  0  0  0  0  0  0  0  0  # atno 10718 bound_to 10713
  153.0219  135.5259  154.7083 H   0  0  0  0  0  0  0  0  0  0  0  0  # atno 10763 bound_to 10752
  154.6172  135.2885  155.0368 H   0  0  0  0  0  0  0  0  0  0  0  0  # atno 10764 bound_to 10752
  154.1368  135.6584  153.4986 H   0  0  0  0  0  0  0  0  0  0  0  0  # atno 10765 bound_to 10752
  140.0212  134.6151  155.9638 H   0  0  0  0  0  0  0  0  0  0  0  0  # atno 11005 bound_to 11000
  144.9596  140.8261  143.5522 LP  0  0  0  0  0  0  0  0  0  0  0  0  # atno 17320 bound_to 7965
  145.2228  139.2151  143.5084 LP  0  0  0  0  0  0  0  0  0  0  0  0  # atno 17321 bound_to 7965
  140.4776  143.2390  151.9001 LP  0  0  0  0  0  0  0  0  0  0  0  0  # atno 17342 bound_to 10162
  139.4786  144.5304  151.8675 LP  0  0  0  0  0  0  0  0  0  0  0  0  # atno 17343 bound_to 10162
  157.6971  131.0790  150.6935 LP  0  0  0  0  0  0  0  0  0  0  0  0  # atno 17370 bound_to 10713
  156.6992  130.4618  149.5577 LP  0  0  0  0  0  0  0  0  0  0  0  0  # atno 17371 bound_to 10713
  141.1774  133.6542  156.4885 LP  0  0  0  0  0  0  0  0  0  0  0  0  # atno 17394 bound_to 11000
  140.4385  134.7037  157.4979 LP  0  0  0  0  0  0  0  0  0  0  0  0  # atno 17395 bound_to 11000

$$$$
