AV-unprocessed.smi:6|AV-procd|sdf|40|dock3
  -GOLD-   2262015153D 1   1.00000     0.00000
 Structure written by MMmdl.
 38 39  0  0  0  0  0  0  0  0  2 V2000
  151.3289  139.5102  155.7626 C   0  0  0  0  0  0  0  0  0  0  0  0
  150.6733  140.8940  155.6361 C   0  0  0  0  0  0  0  0  0  0  0  0
  150.4404  141.5743  156.9937 C   0  0  0  0  0  0  0  0  0  0  0  0
  149.4040  140.8504  154.7972 C   0  0  0  0  0  0  0  0  0  0  0  0
  148.7583  141.9980  154.5331 N   0  3  0  0  0  0  0  0  0  0  0  0
  147.6213  141.9744  153.7955 C   0  0  0  0  0  0  0  0  0  0  0  0
  147.1152  140.7561  153.3050 C   0  0  0  0  0  0  0  0  0  0  0  0
  147.8404  139.5931  153.6163 C   0  0  0  0  0  0  0  0  0  0  0  0
  147.3847  138.3498  153.1568 N   0  0  0  0  0  0  0  0  0  0  0  0
  146.0024  137.9456  153.3857 C   0  0  0  0  0  0  0  0  0  0  0  0
  145.4974  136.9437  152.3588 C   0  0  0  0  0  0  0  0  0  0  0  0
  144.5674  136.0050  152.6709 C   0  0  0  0  0  0  0  0  0  0  0  0
  144.0655  135.0918  151.7571 N   0  0  0  0  0  0  0  0  0  0  0  0
  143.0829  134.0988  152.0959 C   0  0  0  0  0  0  0  0  0  0  0  0
  144.5161  135.1151  150.4208 C   0  0  0  0  0  0  0  0  0  0  0  0
  144.1136  134.3316  149.5606 O   0  0  0  0  0  0  0  0  0  0  0  0
  145.4601  136.0882  150.0963 N   0  0  0  0  0  0  0  0  0  0  0  0
  145.9957  137.0297  150.9807 C   0  0  0  0  0  0  0  0  0  0  0  0
  146.8212  137.8444  150.5717 O   0  0  0  0  0  0  0  0  0  0  0  0
  148.9687  139.6608  154.3569 N   0  0  0  0  0  0  0  0  0  0  0  0
  145.7836  136.1157  149.1401 H   0  0  0  0  0  0  0  0  0  0  0  0
  151.5538  139.0907  154.7818 H   0  0  0  0  0  0  0  0  0  0  0  0
  150.6793  138.8071  156.2851 H   0  0  0  0  0  0  0  0  0  0  0  0
  152.2649  139.5696  156.3187 H   0  0  0  0  0  0  0  0  0  0  0  0
  151.3869  141.5210  155.0987 H   0  0  0  0  0  0  0  0  0  0  0  0
  150.0489  142.5838  156.8645 H   0  0  0  0  0  0  0  0  0  0  0  0
  151.3698  141.6507  157.5584 H   0  0  0  0  0  0  0  0  0  0  0  0
  149.7285  141.0160  157.6026 H   0  0  0  0  0  0  0  0  0  0  0  0
  147.1528  142.9322  153.6230 H   0  0  0  0  0  0  0  0  0  0  0  0
  146.2094  140.7218  152.7173 H   0  0  0  0  0  0  0  0  0  0  0  0
  148.0620  137.6331  152.9384 H   0  0  0  0  0  0  0  0  0  0  0  0
  145.9225  137.5196  154.3864 H   0  0  0  0  0  0  0  0  0  0  0  0
  145.3497  138.8195  153.3613 H   0  0  0  0  0  0  0  0  0  0  0  0
  144.2019  135.9681  153.6873 H   0  0  0  0  0  0  0  0  0  0  0  0
  143.5251  133.1175  151.9130 H   0  0  0  0  0  0  0  0  0  0  0  0
  142.2027  134.2760  151.4745 H   0  0  0  0  0  0  0  0  0  0  0  0
  142.8298  134.2099  153.1508 H   0  0  0  0  0  0  0  0  0  0  0  0
  149.1131  142.8880  154.8841 H   0  0  0  0  0  0  0  0  0  0  0  0
  1  2  1  0  0  0  0
  1 22  1  0  0  0  0
  1 23  1  0  0  0  0
  1 24  1  0  0  0  0
  2  3  1  0  0  0  0
  2  4  1  0  0  0  0
  2 25  1  0  0  0  0
  3 26  1  0  0  0  0
  3 27  1  0  0  0  0
  3 28  1  0  0  0  0
  4 20  1  0  0  0  0
  4  5  2  0  0  0  0
  5  6  1  0  0  0  0
  5 38  1  0  0  0  0
  6  7  2  0  0  0  0
  6 29  1  0  0  0  0
  7  8  1  0  0  0  0
  7 30  1  0  0  0  0
  8  9  1  0  0  0  0
  8 20  2  0  0  0  0
  9 10  1  0  0  0  0
  9 31  1  0  0  0  0
 10 11  1  0  0  0  0
 10 32  1  0  0  0  0
 10 33  1  0  0  0  0
 11 18  1  0  0  0  0
 11 12  2  0  0  0  0
 12 13  1  0  0  0  0
 12 34  1  0  0  0  0
 13 14  1  0  0  0  0
 13 15  1  0  0  0  0
 14 35  1  0  0  0  0
 14 36  1  0  0  0  0
 14 37  1  0  0  0  0
 15 16  2  0  0  0  0
 15 17  1  0  0  0  0
 17 21  1  0  0  0  0
 17 18  1  0  0  0  0
 18 19  2  0  0  0  0
M  CHG  1   5   1
M  END
> <s_m_source_file>
AV-unprocessed.smi

> <i_m_source_file_index>
6

> <i_lp_mmshare_version>
43012

> <i_f3d_flags>
0

> <s_epik_input>
W0NIM11bQ0hdKFtDSDNdKWMxbltjSF1bY0hdYyhuMSlbTkhdW0NIMl1jMltjSF1uKFtDSDNdKWMoPU8pW25IXWMyPU8=

> <s_epik_cmdline>
J2VwaWtfcHl0aG9uJywgJy1waCcsICc3LjAnLCAnLXRuJywgJzgnLCAnLW1hJywgJzIwMCcsICctbWV0YWxfYmluZGluZycsICctaW1hZScsICc8aW5maWxlLm1hZT4nLCAnLW9tYWUnLCAnPG91dGZpbGUubWFlPic=

> <r_lp_tautomer_probability>
0.998874

> <r_epik_Ionization_Penalty>
0.537311

> <r_epik_Ionization_Penalty_Charging>
0.537291

> <r_epik_Ionization_Penalty_Neutral>
2.09214e-05

> <r_epik_State_Penalty>
0.545757

> <r_epik_Charging_Adjusted_Penalty>
1.08305

> <i_epik_Tot_Q>
1

> <i_epik_Tot_abs_Q>
1

> <r_epik_Metal_State_Penalty>
0.947272

> <b_epik_Metal_Only>
0

> <s_lp_Force_Field>
OPLS_2005

> <r_lp_Energy>
10.386

> <b_lp_Chiralities_Consistent>
1

> <s_lp_Variant>
AV-unprocessed.smi:6-2

> <Gold.Version>
5.8.1

> <Gold.Id.Protein>
6NUR|6NUR_protein|mol2

> <Gold.PLP.Fitness>
45.4456

> <Gold.PLP.PLP>
-32.9153

> <Gold.PLP.part.hbond>
-4.8988

> <Gold.PLP.part.metal>
0.0000

> <Gold.PLP.part.buried>
-2.8456

> <Gold.PLP.part.nonpolar>
-29.3476

> <Gold.PLP.part.repulsive>
4.7009

> <Gold.PLP.ligand.clash>
0.0000

> <Gold.PLP.ligand.torsion>
1.0345

> <Gold.PLP.Chemscore.Hbond>
4.8406

> <Gold.PLP.Chemscore.CHOScore>
0.0000

> <Gold.PLP.Chemscore.Metal>
0.0000

> <Gold.Chemscore.Hbonds>
donor molecule, donor type, donor heavy atom, donor atom, acceptor molecule, acceptor atom, score
      L1  H     5    38       P1  8028  2.00
      L1  H     9    31       P1  7948  1.00
      L1  H    17    21       P1  7921  0.78
      P1  H  7954  7966       L1    19  0.93

> <Gold.PLP.Chemscore.Internal.Correction>
0.0775

> <Gold.Rescore>
     Score         DG    S(hbond)    S(metal)    S(lipo)     H(rot)  DE(clash)    DE(int)     intcor
     15.34     -19.93       3.84        0.00      50.52       1.68       2.02       2.57       ----

> <Gold.Chemscore.Fitness>
15.3418

> <Gold.Chemscore.DG>
-19.9328

> <Gold.Chemscore.ZeroCoef>
-5.4800

> <Gold.Chemscore.Hbond>
3.8442

> <Gold.Chemscore.Metal>
0.0000

> <Gold.Chemscore.Lipo>
50.5222

> <Gold.Chemscore.Internal_Hbond>
0.0000

> <Gold.Chemscore.DEClash>
2.0239

> <Gold.Chemscore.DEInternal>
2.5671

> <Gold.Chemscore.Rot>
1.6789

> <Gold.Chemscore.Internal.Correction>
   9.000000E+99

> <Gold.Chemscore.Hbonds>
donor molecule, donor type, donor heavy atom, donor atom, acceptor molecule, acceptor atom, score
      L1  H     5    38       P1  8028  0.94
      L1  H     9    31       P1  7948  0.97
      L1  H    17    21       P1  7921  0.75
      P1  H  7954  7966       L1    19  0.86

> <Gold.Chemscore.Hbond.Weighted>
-12.8398

> <Gold.Chemscore.Metal.Weighted>
-0.0000

> <Gold.Chemscore.Lipo.Weighted>
-5.9111

> <Gold.Chemscore.Internal_Hbond.Weighted>
0.0000

> <Gold.Chemscore.DEClash.Weighted>
2.0239

> <Gold.Chemscore.DEInternal.Weighted>
2.5671

> <Gold.Chemscore.Rot.Weighted>
4.2980

> <Gold.Chemscore.Internal.Correction.Weighted>
   9.000000E+99

> <Gold.Protein.RotatedTorsions>
[ 6907 6896 6895 6894 ] final  119.01 input  -60.11 | X-H torsion
[ 7974 7965 7964 7962 ] final -148.33 input  175.53 | X-H torsion
[ 8008 7997 7996 7995 ] final  -57.64 input   59.86 | X-H torsion
[ 10167 10162 10161 10158 ] final -111.27 input  -65.29 | X-H torsion
[ 10718 10713 10712 10709 ] final  176.82 input   66.30 | X-H torsion
[ 10763 10752 10751 10750 ] final -124.35 input  -60.55 | X-H torsion
[ 11005 11000 10999 10996 ] final  -52.36 input  -57.11 | X-H torsion

> <Gold.Protein.ActiveResidues>
 VAL166  LYS551  ARG553  GLY616  TRP617  ASP618  TYR619  PRO620  LYS621  CYS622 
 ASP623  PHE694  ASN695  SER759  ASP760  ASP761  ALA762  ILE779  LEU786  VAL792 
 PHE793  MET794  SER795  GLU796  ALA797  LYS798  CYS799  TRP800  GLU811  SER814 

> <Gold.Protein.RotatedAtoms>
  152.4502  133.7615  159.6748 H   0  0  0  0  0  0  0  0  0  0  0  0  # atno 6907 bound_to 6896
  150.8412  133.7922  159.3066 H   0  0  0  0  0  0  0  0  0  0  0  0  # atno 6908 bound_to 6896
  151.5547  135.1069  160.0010 H   0  0  0  0  0  0  0  0  0  0  0  0  # atno 6909 bound_to 6896
  144.8036  140.5210  143.5690 H   0  0  0  0  0  0  0  0  0  0  0  0  # atno 7974 bound_to 7965
  154.4276  140.1102  156.5829 H   0  0  0  0  0  0  0  0  0  0  0  0  # atno 8008 bound_to 7997
  155.6093  140.3494  155.4598 H   0  0  0  0  0  0  0  0  0  0  0  0  # atno 8009 bound_to 7997
  156.0112  140.1219  157.0441 H   0  0  0  0  0  0  0  0  0  0  0  0  # atno 8010 bound_to 7997
  140.1355  143.4324  152.1598 H   0  0  0  0  0  0  0  0  0  0  0  0  # atno 10167 bound_to 10162
  156.9144  130.9920  151.3015 H   0  0  0  0  0  0  0  0  0  0  0  0  # atno 10718 bound_to 10713
  154.8722  135.4066  154.3092 H   0  0  0  0  0  0  0  0  0  0  0  0  # atno 10763 bound_to 10752
  153.3939  135.7016  153.6480 H   0  0  0  0  0  0  0  0  0  0  0  0  # atno 10764 bound_to 10752
  153.5252  135.3679  155.2621 H   0  0  0  0  0  0  0  0  0  0  0  0  # atno 10765 bound_to 10752
  141.0920  133.6631  156.4013 H   0  0  0  0  0  0  0  0  0  0  0  0  # atno 11005 bound_to 11000
  145.5493  139.1476  143.3403 LP  0  0  0  0  0  0  0  0  0  0  0  0  # atno 17320 bound_to 7965
  146.2323  140.5631  142.8970 LP  0  0  0  0  0  0  0  0  0  0  0  0  # atno 17321 bound_to 7965
  139.5498  144.7328  151.4470 LP  0  0  0  0  0  0  0  0  0  0  0  0  # atno 17342 bound_to 10162
  140.6792  143.8121  150.7098 LP  0  0  0  0  0  0  0  0  0  0  0  0  # atno 17343 bound_to 10162
  157.5947  130.8469  149.8711 LP  0  0  0  0  0  0  0  0  0  0  0  0  # atno 17370 bound_to 10713
  156.0520  130.3715  150.1178 LP  0  0  0  0  0  0  0  0  0  0  0  0  # atno 17371 bound_to 10713
  140.5229  134.6287  157.5324 LP  0  0  0  0  0  0  0  0  0  0  0  0  # atno 17394 bound_to 11000
  139.9748  134.7233  155.9971 LP  0  0  0  0  0  0  0  0  0  0  0  0  # atno 17395 bound_to 11000

$$$$
