AV-unprocessed.smi:887|AV-procd|sdf|4053|dock6
  -GOLD-   22720 1543D 1   1.00000     0.00000
 Structure written by MMmdl.
 31 32  0  0  0  0  0  0  0  0  1 V2000
  147.2386  139.2060  153.2208 C   0  0  0  0  0  0  0  0  0  0  0  0
  148.6854  139.2258  153.3718 N   0  0  0  0  0  0  0  0  0  0  0  0
  149.3395  138.7553  154.4445 C   0  0  0  0  0  0  0  0  0  0  0  0
  148.7727  138.2504  155.4135 O   0  0  0  0  0  0  0  0  0  0  0  0
  150.8657  138.8606  154.4199 C   0  0  0  0  0  0  0  0  0  0  0  0
  151.3666  139.6025  155.6179 C   0  0  0  0  0  0  0  0  0  0  0  0
  152.4170  139.1733  156.3075 N   0  0  0  0  0  0  0  0  0  0  0  0
  152.5614  140.1402  157.3124 O   0  0  0  0  0  0  0  0  0  0  0  0
  151.5521  141.0250  157.1261 C   0  0  0  0  0  0  0  0  0  0  0  0
  151.4904  142.2389  157.9993 C   0  0  1  0  0  0  0  0  0  0  0  0
  152.5330  142.1784  159.1374 C   0  0  0  0  0  0  0  0  0  0  0  0
  152.7112  143.5116  159.8433 C   0  0  0  0  0  0  0  0  0  0  0  0
  152.2182  144.6721  159.3782 C   0  0  0  0  0  0  0  0  0  0  0  0
  151.4327  144.7874  158.0854 C   0  0  0  0  0  0  0  0  0  0  0  0
  151.6025  143.5459  157.1911 C   0  0  0  0  0  0  0  0  0  0  0  0
  150.8010  140.7606  156.0583 N   0  0  0  0  0  0  0  0  0  0  0  0
  146.9616  139.5835  152.2365 H   0  0  0  0  0  0  0  0  0  0  0  0
  146.7627  139.8353  153.9738 H   0  0  0  0  0  0  0  0  0  0  0  0
  146.8497  138.1915  153.3179 H   0  0  0  0  0  0  0  0  0  0  0  0
  149.2242  139.6282  152.6182 H   0  0  0  0  0  0  0  0  0  0  0  0
  151.3048  137.8622  154.3954 H   0  0  0  0  0  0  0  0  0  0  0  0
  151.1869  139.3694  153.5101 H   0  0  0  0  0  0  0  0  0  0  0  0
  150.5026  142.2419  158.4633 H   0  0  0  0  0  0  0  0  0  0  0  0
  152.2521  141.4145  159.8632 H   0  0  0  0  0  0  0  0  0  0  0  0
  153.5086  141.8939  158.7413 H   0  0  0  0  0  0  0  0  0  0  0  0
  153.2737  143.5004  160.7653 H   0  0  0  0  0  0  0  0  0  0  0  0
  152.3656  145.5821  159.9413 H   0  0  0  0  0  0  0  0  0  0  0  0
  150.3822  144.9296  158.3401 H   0  0  0  0  0  0  0  0  0  0  0  0
  151.7532  145.6795  157.5467 H   0  0  0  0  0  0  0  0  0  0  0  0
  152.5765  143.5862  156.7014 H   0  0  0  0  0  0  0  0  0  0  0  0
  150.8563  143.5661  156.3959 H   0  0  0  0  0  0  0  0  0  0  0  0
  1  2  1  0  0  0  0
  1 17  1  0  0  0  0
  1 18  1  0  0  0  0
  1 19  1  0  0  0  0
  2  3  1  0  0  0  0
  2 20  1  0  0  0  0
  3  4  2  0  0  0  0
  3  5  1  0  0  0  0
  5  6  1  0  0  0  0
  5 21  1  0  0  0  0
  5 22  1  0  0  0  0
  6 16  1  0  0  0  0
  6  7  2  0  0  0  0
  7  8  1  0  0  0  0
  8  9  1  0  0  0  0
  9 10  1  0  0  0  0
  9 16  2  0  0  0  0
 10 15  1  0  0  0  0
 10 11  1  0  0  0  0
 10 23  1  0  0  0  0
 11 12  1  0  0  0  0
 11 24  1  0  0  0  0
 11 25  1  0  0  0  0
 12 13  2  0  0  0  0
 12 26  1  0  0  0  0
 13 14  1  0  0  0  0
 13 27  1  0  0  0  0
 14 15  1  0  0  0  0
 14 28  1  0  0  0  0
 14 29  1  0  0  0  0
 15 30  1  0  0  0  0
 15 31  1  0  0  0  0
M  END
> <s_m_source_file>
AV-unprocessed.smi

> <i_m_source_file_index>
887

> <i_lp_mmshare_version>
43012

> <i_f3d_flags>
0

> <s_epik_input>
W0NIM11bTkhdQyg9TylbQ0gyXWMxbm9jKG4xKVtDQEBIXTJbQ0gyXVtDSF09W0NIXVtDSDJdW0NIMl0y

> <s_epik_cmdline>
J2VwaWtfcHl0aG9uJywgJy1waCcsICc3LjAnLCAnLXRuJywgJzgnLCAnLW1hJywgJzIwMCcsICctbWV0YWxfYmluZGluZycsICctaW1hZScsICc8aW5maWxlLm1hZT4nLCAnLW9tYWUnLCAnPG91dGZpbGUubWFlPic=

> <r_lp_tautomer_probability>
1

> <r_epik_Ionization_Penalty>
1.02915e-07

> <r_epik_Ionization_Penalty_Charging>
0

> <r_epik_Ionization_Penalty_Neutral>
1.02915e-07

> <r_epik_State_Penalty>
-0

> <r_epik_Charging_Adjusted_Penalty>
0

> <i_epik_Tot_Q>
0

> <i_epik_Tot_abs_Q>
0

> <r_epik_Metal_State_Penalty>
-0

> <b_epik_Metal_Only>
0

> <s_lp_Force_Field>
OPLS_2005

> <r_lp_Energy>
6.05076

> <b_lp_Chiralities_Consistent>
1

> <s_lp_Variant>
AV-unprocessed.smi:887-2

> <Gold.Version>
5.8.1

> <Gold.Id.Protein>
6NUR|6NUR_protein|mol2

> <Gold.PLP.Fitness>
38.6728

> <Gold.PLP.PLP>
-36.0956

> <Gold.PLP.part.hbond>
-2.6648

> <Gold.PLP.part.metal>
0.0000

> <Gold.PLP.part.buried>
-3.7355

> <Gold.PLP.part.nonpolar>
-29.5144

> <Gold.PLP.part.repulsive>
0.2036

> <Gold.PLP.ligand.clash>
0.0000

> <Gold.PLP.ligand.torsion>
0.2649

> <Gold.PLP.Chemscore.Hbond>
1.0000

> <Gold.PLP.Chemscore.CHOScore>
0.0000

> <Gold.PLP.Chemscore.Metal>
0.0000

> <Gold.Chemscore.Hbonds>
donor molecule, donor type, donor heavy atom, donor atom, acceptor molecule, acceptor atom, score
      L1  H     2    20       P1  7957  1.00

> <Gold.PLP.Chemscore.Internal.Correction>
0.1070

> <Gold.Rescore>
     Score         DG    S(hbond)    S(metal)    S(lipo)     H(rot)  DE(clash)    DE(int)     intcor
     14.29     -14.68       1.00        0.00      85.78       1.63       0.07       0.32       ----

> <Gold.Chemscore.Fitness>
14.2890

> <Gold.Chemscore.DG>
-14.6761

> <Gold.Chemscore.ZeroCoef>
-5.4800

> <Gold.Chemscore.Hbond>
0.9986

> <Gold.Chemscore.Metal>
0.0000

> <Gold.Chemscore.Lipo>
85.7838

> <Gold.Chemscore.Internal_Hbond>
0.0000

> <Gold.Chemscore.DEClash>
0.0712

> <Gold.Chemscore.DEInternal>
0.3160

> <Gold.Chemscore.Rot>
1.6312

> <Gold.Chemscore.Internal.Correction>
   9.000000E+99

> <Gold.Chemscore.Hbonds>
donor molecule, donor type, donor heavy atom, donor atom, acceptor molecule, acceptor atom, score
      L1  H     2    20       P1  7957  0.95

> <Gold.Chemscore.Hbond.Weighted>
-3.3352

> <Gold.Chemscore.Metal.Weighted>
-0.0000

> <Gold.Chemscore.Lipo.Weighted>
-10.0367

> <Gold.Chemscore.Internal_Hbond.Weighted>
0.0000

> <Gold.Chemscore.DEClash.Weighted>
0.0712

> <Gold.Chemscore.DEInternal.Weighted>
0.3160

> <Gold.Chemscore.Rot.Weighted>
4.1758

> <Gold.Chemscore.Internal.Correction.Weighted>
   9.000000E+99

> <Gold.Protein.RotatedTorsions>
[ 6907 6896 6895 6894 ] final  129.84 input  -60.11 | X-H torsion
[ 7974 7965 7964 7962 ] final  132.53 input  175.53 | X-H torsion
[ 8008 7997 7996 7995 ] final   70.78 input   59.86 | X-H torsion
[ 10167 10162 10161 10158 ] final  126.55 input  -65.29 | X-H torsion
[ 10718 10713 10712 10709 ] final   27.88 input   66.30 | X-H torsion
[ 10763 10752 10751 10750 ] final  -97.94 input  -60.55 | X-H torsion
[ 11005 11000 10999 10996 ] final   40.57 input  -57.11 | X-H torsion

> <Gold.Protein.ActiveResidues>
 VAL166  LYS551  ARG553  GLY616  TRP617  ASP618  TYR619  PRO620  LYS621  CYS622 
 ASP623  PHE694  ASN695  SER759  ASP760  ASP761  ALA762  ILE779  LEU786  VAL792 
 PHE793  MET794  SER795  GLU796  ALA797  LYS798  CYS799  TRP800  GLU811  SER814 

> <Gold.Protein.RotatedAtoms>
  152.3584  133.6266  159.5996 H   0  0  0  0  0  0  0  0  0  0  0  0  # atno 6907 bound_to 6896
  150.7584  133.9462  159.3480 H   0  0  0  0  0  0  0  0  0  0  0  0  # atno 6908 bound_to 6896
  151.7304  135.0877  160.0350 H   0  0  0  0  0  0  0  0  0  0  0  0  # atno 6909 bound_to 6896
  144.9959  139.4360  143.5316 H   0  0  0  0  0  0  0  0  0  0  0  0  # atno 7974 bound_to 7965
  155.7440  140.3490  155.5118 H   0  0  0  0  0  0  0  0  0  0  0  0  # atno 8008 bound_to 7997
  155.9068  140.1043  157.1331 H   0  0  0  0  0  0  0  0  0  0  0  0  # atno 8009 bound_to 7997
  154.4050  140.1275  156.4493 H   0  0  0  0  0  0  0  0  0  0  0  0  # atno 8010 bound_to 7997
  139.5625  144.6891  151.4002 H   0  0  0  0  0  0  0  0  0  0  0  0  # atno 10167 bound_to 10162
  157.2261  130.7001  149.6292 H   0  0  0  0  0  0  0  0  0  0  0  0  # atno 10718 bound_to 10713
  154.7372  135.5028  153.9061 H   0  0  0  0  0  0  0  0  0  0  0  0  # atno 10763 bound_to 10752
  153.1006  135.6684  153.9687 H   0  0  0  0  0  0  0  0  0  0  0  0  # atno 10764 bound_to 10752
  153.9474  135.3061  155.3419 H   0  0  0  0  0  0  0  0  0  0  0  0  # atno 10765 bound_to 10752
  140.1918  134.3977  155.8142 H   0  0  0  0  0  0  0  0  0  0  0  0  # atno 11005 bound_to 11000
  146.3441  139.9318  142.8752 LP  0  0  0  0  0  0  0  0  0  0  0  0  # atno 17320 bound_to 7965
  145.2221  140.9939  143.4039 LP  0  0  0  0  0  0  0  0  0  0  0  0  # atno 17321 bound_to 7965
  140.6906  143.7870  150.7250 LP  0  0  0  0  0  0  0  0  0  0  0  0  # atno 17342 bound_to 10162
  140.1351  143.4491  152.2230 LP  0  0  0  0  0  0  0  0  0  0  0  0  # atno 17343 bound_to 10162
  155.9678  130.4504  150.5695 LP  0  0  0  0  0  0  0  0  0  0  0  0  # atno 17370 bound_to 10713
  157.3526  131.0736  151.1701 LP  0  0  0  0  0  0  0  0  0  0  0  0  # atno 17371 bound_to 10713
  141.2226  133.7050  156.8108 LP  0  0  0  0  0  0  0  0  0  0  0  0  # atno 17394 bound_to 11000
  140.2151  134.8798  157.3317 LP  0  0  0  0  0  0  0  0  0  0  0  0  # atno 17395 bound_to 11000

$$$$
