AV-unprocessed.smi:3230|AV-procd|sdf|12329|dock4
  -GOLD-   2272018183D 1   1.00000     0.00000
 Structure written by MMmdl.
 40 40  0  0  0  0  0  0  0  0  1 V2000
  151.9022  145.6029  159.5491 C   0  0  0  0  0  0  0  0  0  0  0  0
  151.6049  144.2960  160.2998 C   0  0  0  0  0  0  0  0  0  0  0  0
  151.6670  143.0209  159.4190 C   0  0  0  0  0  0  0  0  0  0  0  0
  153.0892  142.4046  159.4068 C   0  0  0  0  0  0  0  0  0  0  0  0
  153.5627  141.8600  160.7630 C   0  0  0  0  0  0  0  0  0  0  0  0
  151.1178  143.2629  157.9845 C   0  0  2  0  0  0  0  0  0  0  0  0
  149.7975  143.7654  158.0642 O   0  0  0  0  0  0  0  0  0  0  0  0
  151.1103  141.9906  157.1063 C   0  0  0  0  0  0  0  0  0  0  0  0
  150.1762  142.0968  155.9900 N   0  0  0  0  0  0  0  0  0  0  0  0
  149.7923  141.0795  155.2030 C   0  0  0  0  0  0  0  0  0  0  0  0
  150.2096  139.9283  155.3325 O   0  0  0  0  0  0  0  0  0  0  0  0
  148.7840  141.4081  154.1011 C   0  0  0  0  0  0  0  0  0  0  0  0
  147.5448  142.0166  154.6991 C   0  0  0  0  0  0  0  0  0  0  0  0
  146.4521  142.6328  154.0281 C   0  0  0  0  0  0  0  0  0  0  0  0
  145.6153  143.0006  155.0426 C   0  0  0  0  0  0  0  0  0  0  0  0
  144.2909  143.6833  155.0705 C   0  0  0  0  0  0  0  0  0  0  0  0
  146.1470  142.6466  156.2409 O   0  0  0  0  0  0  0  0  0  0  0  0
  147.3786  142.0229  156.0127 N   0  0  0  0  0  0  0  0  0  0  0  0
  151.9434  146.4414  160.2444 H   0  0  0  0  0  0  0  0  0  0  0  0
  151.1361  145.8363  158.8106 H   0  0  0  0  0  0  0  0  0  0  0  0
  152.8631  145.5537  159.0363 H   0  0  0  0  0  0  0  0  0  0  0  0
  152.3329  144.2237  161.1067 H   0  0  0  0  0  0  0  0  0  0  0  0
  150.6308  144.3696  160.7846 H   0  0  0  0  0  0  0  0  0  0  0  0
  151.0098  142.2839  159.8833 H   0  0  0  0  0  0  0  0  0  0  0  0
  153.1541  141.6183  158.6541 H   0  0  0  0  0  0  0  0  0  0  0  0
  153.8116  143.1607  159.1035 H   0  0  0  0  0  0  0  0  0  0  0  0
  154.6103  141.5633  160.7102 H   0  0  0  0  0  0  0  0  0  0  0  0
  152.9968  140.9821  161.0728 H   0  0  0  0  0  0  0  0  0  0  0  0
  153.4729  142.6147  161.5447 H   0  0  0  0  0  0  0  0  0  0  0  0
  151.7334  144.0168  157.4963 H   0  0  0  0  0  0  0  0  0  0  0  0
  149.5256  144.0286  157.1982 H   0  0  0  0  0  0  0  0  0  0  0  0
  152.1067  141.8073  156.7009 H   0  0  0  0  0  0  0  0  0  0  0  0
  150.8557  141.1072  157.6926 H   0  0  0  0  0  0  0  0  0  0  0  0
  149.7859  143.0107  155.8101 H   0  0  0  0  0  0  0  0  0  0  0  0
  149.2328  142.0794  153.3670 H   0  0  0  0  0  0  0  0  0  0  0  0
  148.5348  140.4905  153.5671 H   0  0  0  0  0  0  0  0  0  0  0  0
  146.3048  142.7768  152.9680 H   0  0  0  0  0  0  0  0  0  0  0  0
  144.0443  144.0941  154.0915 H   0  0  0  0  0  0  0  0  0  0  0  0
  144.2917  144.5025  155.7898 H   0  0  0  0  0  0  0  0  0  0  0  0
  143.5032  142.9846  155.3527 H   0  0  0  0  0  0  0  0  0  0  0  0
  1  2  1  0  0  0  0
  1 19  1  0  0  0  0
  1 20  1  0  0  0  0
  1 21  1  0  0  0  0
  2  3  1  0  0  0  0
  2 22  1  0  0  0  0
  2 23  1  0  0  0  0
  3  4  1  0  0  0  0
  3  6  1  0  0  0  0
  3 24  1  0  0  0  0
  4  5  1  0  0  0  0
  4 25  1  0  0  0  0
  4 26  1  0  0  0  0
  5 27  1  0  0  0  0
  5 28  1  0  0  0  0
  5 29  1  0  0  0  0
  6  7  1  0  0  0  0
  6  8  1  0  0  0  0
  6 30  1  0  0  0  0
  7 31  1  0  0  0  0
  8  9  1  0  0  0  0
  8 32  1  0  0  0  0
  8 33  1  0  0  0  0
  9 10  1  0  0  0  0
  9 34  1  0  0  0  0
 10 11  2  0  0  0  0
 10 12  1  0  0  0  0
 12 13  1  0  0  0  0
 12 35  1  0  0  0  0
 12 36  1  0  0  0  0
 13 18  2  0  0  0  0
 13 14  1  0  0  0  0
 14 15  2  0  0  0  0
 14 37  1  0  0  0  0
 15 16  1  0  0  0  0
 15 17  1  0  0  0  0
 16 38  1  0  0  0  0
 16 39  1  0  0  0  0
 16 40  1  0  0  0  0
 17 18  1  0  0  0  0
M  END
> <s_m_source_file>
AV-unprocessed.smi

> <i_m_source_file_index>
3230

> <i_lp_mmshare_version>
43012

> <i_f3d_flags>
0

> <s_epik_input>
W0NIM11bQ0gyXVtDSF0oW0NIMl1bQ0gzXSlbQ0BIXShbT0hdKVtDSDJdW05IXUMoPU8pW0NIMl1jMVtjSF1jKFtDSDNdKW9uMQ==

> <s_epik_cmdline>
J2VwaWtfcHl0aG9uJywgJy1waCcsICc3LjAnLCAnLXRuJywgJzgnLCAnLW1hJywgJzIwMCcsICctbWV0YWxfYmluZGluZycsICctaW1hZScsICc8aW5maWxlLm1hZT4nLCAnLW9tYWUnLCAnPG91dGZpbGUubWFlPic=

> <r_lp_tautomer_probability>
1

> <r_epik_Ionization_Penalty>
2.40054e-07

> <r_epik_Ionization_Penalty_Charging>
0

> <r_epik_Ionization_Penalty_Neutral>
2.40054e-07

> <r_epik_State_Penalty>
-0

> <r_epik_Charging_Adjusted_Penalty>
0

> <i_epik_Tot_Q>
0

> <i_epik_Tot_abs_Q>
0

> <r_epik_Metal_State_Penalty>
-0

> <b_epik_Metal_Only>
0

> <s_lp_Force_Field>
OPLS_2005

> <r_lp_Energy>
9.05643

> <b_lp_Chiralities_Consistent>
1

> <s_lp_Variant>
AV-unprocessed.smi:3230-1

> <Gold.Version>
5.8.1

> <Gold.Id.Protein>
6NUR|6NUR_protein|mol2

> <Gold.PLP.Fitness>
47.7202

> <Gold.PLP.PLP>
-42.9875

> <Gold.PLP.part.hbond>
-3.0000

> <Gold.PLP.part.metal>
0.0000

> <Gold.PLP.part.buried>
-3.0739

> <Gold.PLP.part.nonpolar>
-37.1862

> <Gold.PLP.part.repulsive>
0.6126

> <Gold.PLP.ligand.clash>
0.0000

> <Gold.PLP.ligand.torsion>
0.7550

> <Gold.PLP.Chemscore.Hbond>
2.0000

> <Gold.PLP.Chemscore.CHOScore>
0.0000

> <Gold.PLP.Chemscore.Metal>
0.0000

> <Gold.Chemscore.Hbonds>
donor molecule, donor type, donor heavy atom, donor atom, acceptor molecule, acceptor atom, score
      L1  H     7    31       P1  8028  1.00
      L1  H     9    34       P1  8028  1.00

> <Gold.PLP.Chemscore.Internal.Correction>
0.2426

> <Gold.Rescore>
     Score         DG    S(hbond)    S(metal)    S(lipo)     H(rot)  DE(clash)    DE(int)     intcor
     14.64     -16.76       1.77        0.00     102.29       2.57       0.02       2.11       ----

> <Gold.Chemscore.Fitness>
14.6350

> <Gold.Chemscore.DG>
-16.7641

> <Gold.Chemscore.ZeroCoef>
-5.4800

> <Gold.Chemscore.Hbond>
1.7661

> <Gold.Chemscore.Metal>
0.0000

> <Gold.Chemscore.Lipo>
102.2950

> <Gold.Chemscore.Internal_Hbond>
0.0000

> <Gold.Chemscore.DEClash>
0.0223

> <Gold.Chemscore.DEInternal>
2.1067

> <Gold.Chemscore.Rot>
2.5715

> <Gold.Chemscore.Internal.Correction>
   9.000000E+99

> <Gold.Chemscore.Hbonds>
donor molecule, donor type, donor heavy atom, donor atom, acceptor molecule, acceptor atom, score
      L1  H     7    31       P1  8028  0.50
      L1  H     9    34       P1  8028  0.99

> <Gold.Chemscore.Hbond.Weighted>
-5.8986

> <Gold.Chemscore.Metal.Weighted>
-0.0000

> <Gold.Chemscore.Lipo.Weighted>
-11.9685

> <Gold.Chemscore.Internal_Hbond.Weighted>
0.0000

> <Gold.Chemscore.DEClash.Weighted>
0.0223

> <Gold.Chemscore.DEInternal.Weighted>
2.1067

> <Gold.Chemscore.Rot.Weighted>
6.5831

> <Gold.Chemscore.Internal.Correction.Weighted>
   9.000000E+99

> <Gold.Protein.RotatedTorsions>
[ 6907 6896 6895 6894 ] final -101.78 input  -60.11 | X-H torsion
[ 7974 7965 7964 7962 ] final  -89.03 input  175.53 | X-H torsion
[ 8008 7997 7996 7995 ] final  162.28 input   59.86 | X-H torsion
[ 10167 10162 10161 10158 ] final   97.53 input  -65.29 | X-H torsion
[ 10718 10713 10712 10709 ] final -103.35 input   66.30 | X-H torsion
[ 10763 10752 10751 10750 ] final   68.02 input  -60.55 | X-H torsion
[ 11005 11000 10999 10996 ] final  -77.56 input  -57.11 | X-H torsion

> <Gold.Protein.ActiveResidues>
 VAL166  LYS551  ARG553  GLY616  TRP617  ASP618  TYR619  PRO620  LYS621  CYS622 
 ASP623  PHE694  ASN695  SER759  ASP760  ASP761  ALA762  ILE779  LEU786  VAL792 
 PHE793  MET794  SER795  GLU796  ALA797  LYS798  CYS799  TRP800  GLU811  SER814 

> <Gold.Protein.RotatedAtoms>
  150.7169  134.0681  159.3854 H   0  0  0  0  0  0  0  0  0  0  0  0  # atno 6907 bound_to 6896
  151.8663  135.0504  160.0484 H   0  0  0  0  0  0  0  0  0  0  0  0  # atno 6908 bound_to 6896
  152.2678  133.5319  159.5457 H   0  0  0  0  0  0  0  0  0  0  0  0  # atno 6909 bound_to 6896
  145.4453  140.9560  143.2052 H   0  0  0  0  0  0  0  0  0  0  0  0  # atno 7974 bound_to 7965
  156.2043  140.1754  156.7834 H   0  0  0  0  0  0  0  0  0  0  0  0  # atno 8008 bound_to 7997
  154.5633  140.0695  156.8883 H   0  0  0  0  0  0  0  0  0  0  0  0  # atno 8009 bound_to 7997
  155.2807  140.3349  155.4261 H   0  0  0  0  0  0  0  0  0  0  0  0  # atno 8010 bound_to 7997
  139.7792  144.6894  151.0046 H   0  0  0  0  0  0  0  0  0  0  0  0  # atno 10167 bound_to 10162
  156.0262  130.5463  150.7241 H   0  0  0  0  0  0  0  0  0  0  0  0  # atno 10718 bound_to 10713
  153.0214  135.5262  154.7070 H   0  0  0  0  0  0  0  0  0  0  0  0  # atno 10763 bound_to 10752
  154.6163  135.2884  155.0379 H   0  0  0  0  0  0  0  0  0  0  0  0  # atno 10764 bound_to 10752
  154.1382  135.6582  153.4989 H   0  0  0  0  0  0  0  0  0  0  0  0  # atno 10765 bound_to 10752
  141.1661  133.7027  156.7839 H   0  0  0  0  0  0  0  0  0  0  0  0  # atno 11005 bound_to 11000
  144.8096  139.5987  143.7035 LP  0  0  0  0  0  0  0  0  0  0  0  0  # atno 17320 bound_to 7965
  146.2534  139.6249  142.9411 LP  0  0  0  0  0  0  0  0  0  0  0  0  # atno 17321 bound_to 7965
  140.7817  143.4501  151.0425 LP  0  0  0  0  0  0  0  0  0  0  0  0  # atno 17342 bound_to 10162
  139.8183  143.7856  152.3175 LP  0  0  0  0  0  0  0  0  0  0  0  0  # atno 17343 bound_to 10162
  157.4849  131.0906  151.0493 LP  0  0  0  0  0  0  0  0  0  0  0  0  # atno 17370 bound_to 10713
  157.0916  130.5945  149.5441 LP  0  0  0  0  0  0  0  0  0  0  0  0  # atno 17371 bound_to 10713
  140.2374  134.8639  157.3539 LP  0  0  0  0  0  0  0  0  0  0  0  0  # atno 17394 bound_to 11000
  140.1830  134.4466  155.7761 LP  0  0  0  0  0  0  0  0  0  0  0  0  # atno 17395 bound_to 11000

$$$$
