AV-unprocessed.smi:1803|AV-procd|sdf|7291|dock1
  -GOLD-   22720 8543D 1   1.00000     0.00000
 Structure written by MMmdl.
 35 37  0  0  0  0  0  0  0  0  3 V2000
  150.5790  134.4241  156.3880 O   0  0  0  0  0  0  0  0  0  0  0  0
  150.6132  135.2068  155.4398 C   0  0  0  0  0  0  0  0  0  0  0  0
  151.4865  136.2439  155.3590 N   0  5  0  0  0  0  0  0  0  0  0  0
  151.0876  137.5124  155.1498 C   0  0  0  0  0  0  0  0  0  0  0  0
  151.9512  138.5367  155.0625 N   0  0  0  0  0  0  0  0  0  0  0  0
  151.3286  139.7569  154.8381 N   0  0  0  0  0  0  0  0  0  0  0  0
  150.0041  139.6227  154.7741 C   0  0  0  0  0  0  0  0  0  0  0  0
  149.3978  137.9922  154.9714 S   0  0  0  0  0  0  0  0  0  0  0  0
  149.7375  135.0464  154.4285 N   0  0  0  0  0  0  0  0  0  0  0  0
  148.6772  134.0446  154.3448 C   0  0  2  0  0  0  0  0  0  0  0  0
  148.9687  132.9668  153.2817 C   0  0  0  0  0  0  0  0  0  0  0  0
  147.6473  132.7893  152.5270 C   0  0  0  0  0  0  0  0  0  0  0  0
  147.0439  134.1253  152.5951 N   0  3  1  0  0  0  0  0  0  0  0  0
  145.6326  134.2789  152.1867 C   0  0  0  0  0  0  0  0  0  0  0  0
  145.2830  135.7821  152.1828 C   0  0  0  0  0  0  0  0  0  0  0  0
  145.6300  136.4638  153.5251 C   0  0  0  0  0  0  0  0  0  0  0  0
  147.0816  136.1656  153.9556 C   0  0  0  0  0  0  0  0  0  0  0  0
  147.3068  134.6417  153.9490 C   0  0  2  0  0  0  0  0  0  0  0  0
  149.3806  140.4887  154.6084 H   0  0  0  0  0  0  0  0  0  0  0  0
  149.8072  135.6954  153.6584 H   0  0  0  0  0  0  0  0  0  0  0  0
  148.5733  133.5463  155.3105 H   0  0  0  0  0  0  0  0  0  0  0  0
  149.7348  133.3156  152.5874 H   0  0  0  0  0  0  0  0  0  0  0  0
  149.3251  132.0333  153.7183 H   0  0  0  0  0  0  0  0  0  0  0  0
  147.7913  132.4578  151.4983 H   0  0  0  0  0  0  0  0  0  0  0  0
  147.0069  132.0687  153.0383 H   0  0  0  0  0  0  0  0  0  0  0  0
  145.4893  133.8568  151.1915 H   0  0  0  0  0  0  0  0  0  0  0  0
  144.9820  133.7301  152.8693 H   0  0  0  0  0  0  0  0  0  0  0  0
  145.8357  136.2752  151.3820 H   0  0  0  0  0  0  0  0  0  0  0  0
  144.2257  135.9205  151.9554 H   0  0  0  0  0  0  0  0  0  0  0  0
  145.4756  137.5407  153.4501 H   0  0  0  0  0  0  0  0  0  0  0  0
  144.9454  136.1081  154.2962 H   0  0  0  0  0  0  0  0  0  0  0  0
  147.7794  136.6579  153.2765 H   0  0  0  0  0  0  0  0  0  0  0  0
  147.2637  136.5752  154.9496 H   0  0  0  0  0  0  0  0  0  0  0  0
  146.5715  134.1916  154.6195 H   0  0  0  0  0  0  0  0  0  0  0  0
  147.5902  134.7003  151.9697 H   0  0  0  0  0  0  0  0  0  0  0  0
  1  2  2  0  0  0  0
  2  3  1  0  0  0  0
  2  9  1  0  0  0  0
  3  4  1  0  0  0  0
  4  8  1  0  0  0  0
  4  5  2  0  0  0  0
  5  6  1  0  0  0  0
  6  7  2  0  0  0  0
  7  8  1  0  0  0  0
  7 19  1  0  0  0  0
  9 10  1  0  0  0  0
  9 20  1  0  0  0  0
 10 18  1  0  0  0  0
 10 11  1  0  0  0  0
 10 21  1  0  0  0  0
 11 12  1  0  0  0  0
 11 22  1  0  0  0  0
 11 23  1  0  0  0  0
 12 13  1  0  0  0  0
 12 24  1  0  0  0  0
 12 25  1  0  0  0  0
 13 18  1  0  0  0  0
 13 14  1  0  0  0  0
 13 35  1  0  0  0  0
 14 15  1  0  0  0  0
 14 26  1  0  0  0  0
 14 27  1  0  0  0  0
 15 16  1  0  0  0  0
 15 28  1  0  0  0  0
 15 29  1  0  0  0  0
 16 17  1  0  0  0  0
 16 30  1  0  0  0  0
 16 31  1  0  0  0  0
 17 18  1  0  0  0  0
 17 32  1  0  0  0  0
 17 33  1  0  0  0  0
 18 34  1  0  0  0  0
M  CHG  1   3  -1
M  CHG  1  13   1
M  END
> <s_m_source_file>
AV-unprocessed.smi

> <i_m_source_file_index>
1803

> <i_lp_mmshare_version>
43012

> <i_f3d_flags>
0

> <s_epik_input>
czFbY0hdbm5jMVtOSF1DKD1PKVtOSF1bQ0BIXShbQ0gyXVtDSDJdMilbQ0BASF0oTjIzKVtDSDJdW0NIMl1bQ0gyXVtDSDJdMw==

> <s_epik_cmdline>
J2VwaWtfcHl0aG9uJywgJy1waCcsICc3LjAnLCAnLXRuJywgJzgnLCAnLW1hJywgJzIwMCcsICctbWV0YWxfYmluZGluZycsICctaW1hZScsICc8aW5maWxlLm1hZT4nLCAnLW9tYWUnLCAnPG91dGZpbGUubWFlPic=

> <r_lp_tautomer_probability>
1

> <r_epik_Ionization_Penalty>
3.78828

> <r_epik_Ionization_Penalty_Charging>
3.7591

> <r_epik_Ionization_Penalty_Neutral>
0.0291838

> <r_epik_State_Penalty>
3.757

> <r_epik_Charging_Adjusted_Penalty>
7.51609

> <i_epik_Tot_Q>
0

> <i_epik_Tot_abs_Q>
2

> <r_epik_Metal_State_Penalty>
0.558016

> <b_epik_Metal_Only>
1

> <s_lp_Force_Field>
OPLS_2005

> <r_lp_Energy>
35.249

> <b_lp_Chiralities_Consistent>
1

> <s_lp_Variant>
AV-unprocessed.smi:1803-13

> <Gold.Version>
5.8.1

> <Gold.Id.Protein>
6NUR|6NUR_protein|mol2

> <Gold.PLP.Fitness>
38.6635

> <Gold.PLP.PLP>
-23.4804

> <Gold.PLP.part.hbond>
-4.0000

> <Gold.PLP.part.metal>
0.0000

> <Gold.PLP.part.buried>
-0.4644

> <Gold.PLP.part.nonpolar>
-18.8362

> <Gold.PLP.part.repulsive>
0.2664

> <Gold.PLP.ligand.clash>
0.0000

> <Gold.PLP.ligand.torsion>
0.5940

> <Gold.PLP.Chemscore.Hbond>
5.4512

> <Gold.PLP.Chemscore.CHOScore>
0.0000

> <Gold.PLP.Chemscore.Metal>
0.0000

> <Gold.Chemscore.Hbonds>
donor molecule, donor type, donor heavy atom, donor atom, acceptor molecule, acceptor atom, score
      L1  H     9    20       P1  7948  0.62
      L1  H    13    35       P1  7948  1.86
      P1  H  7989  7998       L1     6  1.00
      P1  H 10752 10765       L1     3  2.00

> <Gold.PLP.Chemscore.Internal.Correction>
0.0176

> <Gold.Rescore>
     Score         DG    S(hbond)    S(metal)    S(lipo)     H(rot)  DE(clash)    DE(int)     intcor
     14.99     -15.68       2.50        0.00      37.63       1.00       0.01       0.68       ----

> <Gold.Chemscore.Fitness>
14.9894

> <Gold.Chemscore.DG>
-15.6751

> <Gold.Chemscore.ZeroCoef>
-5.4800

> <Gold.Chemscore.Hbond>
2.5008

> <Gold.Chemscore.Metal>
0.0000

> <Gold.Chemscore.Lipo>
37.6266

> <Gold.Chemscore.Internal_Hbond>
0.0000

> <Gold.Chemscore.DEClash>
0.0059

> <Gold.Chemscore.DEInternal>
0.6798

> <Gold.Chemscore.Rot>
1.0000

> <Gold.Chemscore.Internal.Correction>
   9.000000E+99

> <Gold.Chemscore.Hbonds>
donor molecule, donor type, donor heavy atom, donor atom, acceptor molecule, acceptor atom, score
      L1  H     9    20       P1  7948  0.06
      L1  H    13    35       P1  7948  0.52
      P1  H  7989  7998       L1     6  0.35
      P1  H 10752 10765       L1     3  0.50

> <Gold.Chemscore.Hbond.Weighted>
-8.3528

> <Gold.Chemscore.Metal.Weighted>
-0.0000

> <Gold.Chemscore.Lipo.Weighted>
-4.4023

> <Gold.Chemscore.Internal_Hbond.Weighted>
0.0000

> <Gold.Chemscore.DEClash.Weighted>
0.0059

> <Gold.Chemscore.DEInternal.Weighted>
0.6798

> <Gold.Chemscore.Rot.Weighted>
2.5600

> <Gold.Chemscore.Internal.Correction.Weighted>
   9.000000E+99

> <Gold.Protein.RotatedTorsions>
[ 6907 6896 6895 6894 ] final   54.74 input  -60.11 | X-H torsion
[ 7974 7965 7964 7962 ] final   78.55 input  175.53 | X-H torsion
[ 8008 7997 7996 7995 ] final  -86.58 input   59.86 | X-H torsion
[ 10167 10162 10161 10158 ] final  -52.29 input  -65.29 | X-H torsion
[ 10718 10713 10712 10709 ] final  -78.44 input   66.30 | X-H torsion
[ 10763 10752 10751 10750 ] final -162.71 input  -60.55 | X-H torsion
[ 11005 11000 10999 10996 ] final -115.24 input  -57.11 | X-H torsion

> <Gold.Protein.ActiveResidues>
 VAL166  LYS551  ARG553  GLY616  TRP617  ASP618  TYR619  PRO620  LYS621  CYS622 
 ASP623  PHE694  ASN695  SER759  ASP760  ASP761  ALA762  ILE779  LEU786  VAL792 
 PHE793  MET794  SER795  GLU796  ALA797  LYS798  CYS799  TRP800  GLU811  SER814 

> <Gold.Protein.RotatedAtoms>
  152.3469  134.7059  160.0247 H   0  0  0  0  0  0  0  0  0  0  0  0  # atno 6907 bound_to 6896
  151.7426  133.3317  159.3378 H   0  0  0  0  0  0  0  0  0  0  0  0  # atno 6908 bound_to 6896
  150.7515  134.6198  159.6174 H   0  0  0  0  0  0  0  0  0  0  0  0  # atno 6909 bound_to 6896
  145.6757  139.2509  143.1843 H   0  0  0  0  0  0  0  0  0  0  0  0  # atno 7974 bound_to 7965
  154.6535  140.0576  156.9982 H   0  0  0  0  0  0  0  0  0  0  0  0  # atno 8008 bound_to 7997
  155.1336  140.3259  155.4450 H   0  0  0  0  0  0  0  0  0  0  0  0  # atno 8009 bound_to 7997
  156.2586  140.1976  156.6454 H   0  0  0  0  0  0  0  0  0  0  0  0  # atno 8010 bound_to 7997
  140.6545  143.2589  151.4627 H   0  0  0  0  0  0  0  0  0  0  0  0  # atno 10167 bound_to 10162
  156.0117  130.4518  150.3497 H   0  0  0  0  0  0  0  0  0  0  0  0  # atno 10718 bound_to 10713
  154.7189  135.3021  154.9079 H   0  0  0  0  0  0  0  0  0  0  0  0  # atno 10763 bound_to 10752
  153.9957  135.6713  153.4760 H   0  0  0  0  0  0  0  0  0  0  0  0  # atno 10764 bound_to 10752
  153.0817  135.5005  154.8432 H   0  0  0  0  0  0  0  0  0  0  0  0  # atno 10765 bound_to 10752
  141.0501  133.9701  157.2851 H   0  0  0  0  0  0  0  0  0  0  0  0  # atno 11005 bound_to 11000
  146.1007  140.7547  142.9550 LP  0  0  0  0  0  0  0  0  0  0  0  0  # atno 17320 bound_to 7965
  144.7042  140.3783  143.7131 LP  0  0  0  0  0  0  0  0  0  0  0  0  # atno 17321 bound_to 7965
  139.5765  144.1808  152.1910 LP  0  0  0  0  0  0  0  0  0  0  0  0  # atno 17342 bound_to 10162
  140.1120  144.5449  150.6919 LP  0  0  0  0  0  0  0  0  0  0  0  0  # atno 17343 bound_to 10162
  157.1589  131.0340  151.2850 LP  0  0  0  0  0  0  0  0  0  0  0  0  # atno 17370 bound_to 10713
  157.4328  130.7500  149.7004 LP  0  0  0  0  0  0  0  0  0  0  0  0  # atno 17371 bound_to 10713
  139.9343  135.0198  156.8504 LP  0  0  0  0  0  0  0  0  0  0  0  0  # atno 17394 bound_to 11000
  140.6072  134.0116  155.7562 LP  0  0  0  0  0  0  0  0  0  0  0  0  # atno 17395 bound_to 11000

$$$$
