AV-unprocessed.smi:403|AV-procd|sdf|2496|dock1
  -GOLD-   2262022443D 1   1.00000     0.00000
 Structure written by MMmdl.
 46 47  0  0  0  0  0  0  0  0  1 V2000
  151.9105  144.8096  160.6067 C   0  0  0  0  0  0  0  0  0  0  0  0
  152.1214  143.3125  160.3233 C   0  0  0  0  0  0  0  0  0  0  0  0
  153.1091  142.7122  161.3355 C   0  0  0  0  0  0  0  0  0  0  0  0
  152.5911  143.0446  158.8785 C   0  0  0  0  0  0  0  0  0  0  0  0
  151.5286  143.3589  157.8048 C   0  0  0  0  0  0  0  0  0  0  0  0
  150.3453  142.3846  157.8018 C   0  0  0  0  0  0  0  0  0  0  0  0
  150.3082  141.4254  158.5737 O   0  0  0  0  0  0  0  0  0  0  0  0
  149.3729  142.6506  156.9161 N   0  0  0  0  0  0  0  0  0  0  0  0
  148.1554  141.8620  156.7486 C   0  0  0  0  0  0  0  0  0  0  0  0
  148.1381  140.9469  155.5209 C   0  0  0  0  0  0  0  0  0  0  0  0
  147.2340  141.1728  154.4561 C   0  0  0  0  0  0  0  0  0  0  0  0
  147.2646  140.3295  153.3311 C   0  0  0  0  0  0  0  0  0  0  0  0
  148.2076  139.2874  153.3049 C   0  0  0  0  0  0  0  0  0  0  0  0
  149.0828  139.0611  154.3050 N   0  0  0  0  0  0  0  0  0  0  0  0
  149.0567  139.8705  155.3921 C   0  0  0  0  0  0  0  0  0  0  0  0
  149.9716  139.5909  156.4224 N   0  0  0  0  0  0  0  0  0  0  0  0
  149.7257  138.3033  157.0595 C   0  0  0  0  0  0  0  0  0  0  0  0
  150.6194  138.1551  158.3028 C   0  0  0  0  0  0  0  0  0  0  0  0
  151.9854  138.3287  157.9346 O   0  0  0  0  0  0  0  0  0  0  0  0
  152.2319  139.6162  157.3752 C   0  0  0  0  0  0  0  0  0  0  0  0
  151.3807  139.7989  156.1069 C   0  0  0  0  0  0  0  0  0  0  0  0
  152.8256  145.3779  160.4371 H   0  0  0  0  0  0  0  0  0  0  0  0
  151.6068  144.9724  161.6411 H   0  0  0  0  0  0  0  0  0  0  0  0
  151.1314  145.2347  159.9748 H   0  0  0  0  0  0  0  0  0  0  0  0
  151.1659  142.8066  160.4674 H   0  0  0  0  0  0  0  0  0  0  0  0
  154.0916  143.1784  161.2535 H   0  0  0  0  0  0  0  0  0  0  0  0
  153.2348  141.6406  161.1774 H   0  0  0  0  0  0  0  0  0  0  0  0
  152.7590  142.8520  162.3585 H   0  0  0  0  0  0  0  0  0  0  0  0
  153.5004  143.6142  158.6797 H   0  0  0  0  0  0  0  0  0  0  0  0
  152.8689  141.9925  158.7950 H   0  0  0  0  0  0  0  0  0  0  0  0
  151.1404  144.3666  157.9582 H   0  0  0  0  0  0  0  0  0  0  0  0
  151.9790  143.3423  156.8123 H   0  0  0  0  0  0  0  0  0  0  0  0
  149.4810  143.4567  156.3178 H   0  0  0  0  0  0  0  0  0  0  0  0
  148.0360  141.2378  157.6340 H   0  0  0  0  0  0  0  0  0  0  0  0
  147.2997  142.5379  156.7386 H   0  0  0  0  0  0  0  0  0  0  0  0
  146.5220  141.9838  154.4853 H   0  0  0  0  0  0  0  0  0  0  0  0
  146.5834  140.4799  152.5068 H   0  0  0  0  0  0  0  0  0  0  0  0
  148.2624  138.6191  152.4581 H   0  0  0  0  0  0  0  0  0  0  0  0
  148.6756  138.2107  157.3393 H   0  0  0  0  0  0  0  0  0  0  0  0
  149.9388  137.5030  156.3493 H   0  0  0  0  0  0  0  0  0  0  0  0
  150.3428  138.8822  159.0682 H   0  0  0  0  0  0  0  0  0  0  0  0
  150.4923  137.1655  158.7418 H   0  0  0  0  0  0  0  0  0  0  0  0
  152.0087  140.3918  158.1095 H   0  0  0  0  0  0  0  0  0  0  0  0
  153.2912  139.7014  157.1327 H   0  0  0  0  0  0  0  0  0  0  0  0
  151.7021  139.0867  155.3455 H   0  0  0  0  0  0  0  0  0  0  0  0
  151.5238  140.7996  155.6980 H   0  0  0  0  0  0  0  0  0  0  0  0
  1  2  1  0  0  0  0
  1 22  1  0  0  0  0
  1 23  1  0  0  0  0
  1 24  1  0  0  0  0
  2  3  1  0  0  0  0
  2  4  1  0  0  0  0
  2 25  1  0  0  0  0
  3 26  1  0  0  0  0
  3 27  1  0  0  0  0
  3 28  1  0  0  0  0
  4  5  1  0  0  0  0
  4 29  1  0  0  0  0
  4 30  1  0  0  0  0
  5  6  1  0  0  0  0
  5 31  1  0  0  0  0
  5 32  1  0  0  0  0
  6  7  2  0  0  0  0
  6  8  1  0  0  0  0
  8  9  1  0  0  0  0
  8 33  1  0  0  0  0
  9 10  1  0  0  0  0
  9 34  1  0  0  0  0
  9 35  1  0  0  0  0
 10 15  1  0  0  0  0
 10 11  2  0  0  0  0
 11 12  1  0  0  0  0
 11 36  1  0  0  0  0
 12 13  2  0  0  0  0
 12 37  1  0  0  0  0
 13 14  1  0  0  0  0
 13 38  1  0  0  0  0
 14 15  2  0  0  0  0
 15 16  1  0  0  0  0
 16 21  1  0  0  0  0
 16 17  1  0  0  0  0
 17 18  1  0  0  0  0
 17 39  1  0  0  0  0
 17 40  1  0  0  0  0
 18 19  1  0  0  0  0
 18 41  1  0  0  0  0
 18 42  1  0  0  0  0
 19 20  1  0  0  0  0
 20 21  1  0  0  0  0
 20 43  1  0  0  0  0
 20 44  1  0  0  0  0
 21 45  1  0  0  0  0
 21 46  1  0  0  0  0
M  END
> <s_m_source_file>
AV-unprocessed.smi

> <i_m_source_file_index>
403

> <i_lp_mmshare_version>
43012

> <i_f3d_flags>
0

> <s_epik_input>
W0NIM11bQ0hdKFtDSDNdKVtDSDJdW0NIMl1DKD1PKVtOSF1bQ0gyXWMxW2NIXVtjSF1bY0hdbmMxTjJbQ0gyXVtDSDJdT1tDSDJdW0NIMl0y

> <s_epik_cmdline>
J2VwaWtfcHl0aG9uJywgJy1waCcsICc3LjAnLCAnLXRuJywgJzgnLCAnLW1hJywgJzIwMCcsICctbWV0YWxfYmluZGluZycsICctaW1hZScsICc8aW5maWxlLm1hZT4nLCAnLW9tYWUnLCAnPG91dGZpbGUubWFlPic=

> <r_lp_tautomer_probability>
1

> <r_epik_Ionization_Penalty>
0.00581842

> <r_epik_Ionization_Penalty_Charging>
0

> <r_epik_Ionization_Penalty_Neutral>
0.00581842

> <r_epik_State_Penalty>
0.00427389

> <r_epik_Charging_Adjusted_Penalty>
0.00427389

> <i_epik_Tot_Q>
0

> <i_epik_Tot_abs_Q>
0

> <r_epik_Metal_State_Penalty>
-0

> <b_epik_Metal_Only>
0

> <s_lp_Force_Field>
OPLS_2005

> <r_lp_Energy>
20.7725

> <b_lp_Chiralities_Consistent>
1

> <s_lp_Variant>
AV-unprocessed.smi:403-1

> <Gold.Version>
5.8.1

> <Gold.Id.Protein>
6NUR|6NUR_protein|mol2

> <Gold.PLP.Fitness>
39.4265

> <Gold.PLP.PLP>
-32.7198

> <Gold.PLP.part.hbond>
-0.9747

> <Gold.PLP.part.metal>
0.0000

> <Gold.PLP.part.buried>
-0.9274

> <Gold.PLP.part.nonpolar>
-31.2254

> <Gold.PLP.part.repulsive>
0.1914

> <Gold.PLP.ligand.clash>
0.0000

> <Gold.PLP.ligand.torsion>
0.2853

> <Gold.PLP.Chemscore.Hbond>
1.0000

> <Gold.PLP.Chemscore.CHOScore>
1.3307

> <Gold.PLP.Chemscore.Metal>
0.0000

> <Gold.Chemscore.Hbonds>
donor molecule, donor type, donor heavy atom, donor atom, acceptor molecule, acceptor atom, score
      L1  H     8    33       P1  8028  0.99
      L1  C    13    38       P1  7948  1.00
      L1  C    13    38       P1  7957  0.32

> <Gold.PLP.Chemscore.Internal.Correction>
0.2850

> <Gold.Rescore>
     Score         DG    S(hbond)    S(metal)    S(lipo)     H(rot)  DE(clash)    DE(int)     intcor
     15.47     -15.69       0.98        0.00      97.39       1.73       0.01       0.21       ----

> <Gold.Chemscore.Fitness>
15.4733

> <Gold.Chemscore.DG>
-15.6923

> <Gold.Chemscore.ZeroCoef>
-5.4800

> <Gold.Chemscore.Hbond>
0.9755

> <Gold.Chemscore.Metal>
0.0000

> <Gold.Chemscore.Lipo>
97.3945

> <Gold.Chemscore.Internal_Hbond>
0.0000

> <Gold.Chemscore.DEClash>
0.0110

> <Gold.Chemscore.DEInternal>
0.2081

> <Gold.Chemscore.Rot>
1.7347

> <Gold.Chemscore.Internal.Correction>
   9.000000E+99

> <Gold.Chemscore.Hbonds>
donor molecule, donor type, donor heavy atom, donor atom, acceptor molecule, acceptor atom, score
      L1  H     8    33       P1  8028  0.89

> <Gold.Chemscore.Hbond.Weighted>
-3.2581

> <Gold.Chemscore.Metal.Weighted>
-0.0000

> <Gold.Chemscore.Lipo.Weighted>
-11.3952

> <Gold.Chemscore.Internal_Hbond.Weighted>
0.0000

> <Gold.Chemscore.DEClash.Weighted>
0.0110

> <Gold.Chemscore.DEInternal.Weighted>
0.2081

> <Gold.Chemscore.Rot.Weighted>
4.4409

> <Gold.Chemscore.Internal.Correction.Weighted>
   9.000000E+99

> <Gold.Protein.RotatedTorsions>
[ 6907 6896 6895 6894 ] final  160.88 input  -60.11 | X-H torsion
[ 7974 7965 7964 7962 ] final -124.36 input  175.53 | X-H torsion
[ 8008 7997 7996 7995 ] final   67.05 input   59.86 | X-H torsion
[ 10167 10162 10161 10158 ] final -114.98 input  -65.29 | X-H torsion
[ 10718 10713 10712 10709 ] final -132.44 input   66.30 | X-H torsion
[ 10763 10752 10751 10750 ] final  -52.40 input  -60.55 | X-H torsion
[ 11005 11000 10999 10996 ] final   38.00 input  -57.11 | X-H torsion

> <Gold.Protein.ActiveResidues>
 VAL166  LYS551  ARG553  GLY616  TRP617  ASP618  TYR619  PRO620  LYS621  CYS622 
 ASP623  PHE694  ASN695  SER759  ASP760  ASP761  ALA762  ILE779  LEU786  VAL792 
 PHE793  MET794  SER795  GLU796  ALA797  LYS798  CYS799  TRP800  GLU811  SER814 

> <Gold.Protein.RotatedAtoms>
  151.9640  133.3704  159.4045 H   0  0  0  0  0  0  0  0  0  0  0  0  # atno 6907 bound_to 6896
  150.6959  134.4211  159.5214 H   0  0  0  0  0  0  0  0  0  0  0  0  # atno 6908 bound_to 6896
  152.1904  134.8677  160.0569 H   0  0  0  0  0  0  0  0  0  0  0  0  # atno 6909 bound_to 6896
  145.0089  140.7887  143.4451 H   0  0  0  0  0  0  0  0  0  0  0  0  # atno 7974 bound_to 7965
  155.6869  140.3496  155.4878 H   0  0  0  0  0  0  0  0  0  0  0  0  # atno 8008 bound_to 7997
  155.9558  140.1128  157.0961 H   0  0  0  0  0  0  0  0  0  0  0  0  # atno 8009 bound_to 7997
  154.4132  140.1185  156.5099 H   0  0  0  0  0  0  0  0  0  0  0  0  # atno 8010 bound_to 7997
  140.0951  143.4664  152.1846 H   0  0  0  0  0  0  0  0  0  0  0  0  # atno 10167 bound_to 10162
  156.2346  130.7058  151.0894 H   0  0  0  0  0  0  0  0  0  0  0  0  # atno 10718 bound_to 10713
  154.1421  135.6503  153.4944 H   0  0  0  0  0  0  0  0  0  0  0  0  # atno 10763 bound_to 10752
  153.0163  135.5318  154.6895 H   0  0  0  0  0  0  0  0  0  0  0  0  # atno 10764 bound_to 10752
  154.6159  135.2959  155.0352 H   0  0  0  0  0  0  0  0  0  0  0  0  # atno 10765 bound_to 10752
  140.2170  134.3687  155.8022 H   0  0  0  0  0  0  0  0  0  0  0  0  # atno 11005 bound_to 11000
  145.2051  139.2232  143.5172 LP  0  0  0  0  0  0  0  0  0  0  0  0  # atno 17320 bound_to 7965
  146.3466  140.1877  142.8589 LP  0  0  0  0  0  0  0  0  0  0  0  0  # atno 17321 bound_to 7965
  139.5702  144.7458  151.3910 LP  0  0  0  0  0  0  0  0  0  0  0  0  # atno 17342 bound_to 10162
  140.7008  143.7637  150.7399 LP  0  0  0  0  0  0  0  0  0  0  0  0  # atno 17343 bound_to 10162
  157.7148  131.0715  150.6366 LP  0  0  0  0  0  0  0  0  0  0  0  0  # atno 17370 bound_to 10713
  156.6436  130.4465  149.5744 LP  0  0  0  0  0  0  0  0  0  0  0  0  # atno 17371 bound_to 10713
  141.2224  133.7173  156.8512 LP  0  0  0  0  0  0  0  0  0  0  0  0  # atno 17394 bound_to 11000
  140.1890  134.8979  157.3038 LP  0  0  0  0  0  0  0  0  0  0  0  0  # atno 17395 bound_to 11000

$$$$
