AV-unprocessed.smi:3078|AV-procd|sdf|11735|dock4
  -GOLD-   2272017133D 1   1.00000     0.00000
 Structure written by MMmdl.
 24 24  0  0  0  0  0  0  0  0  3 V2000
  146.7811  129.3881  151.9542 C   0  0  0  0  0  0  0  0  0  0  0  0
  146.2053  130.6363  151.5010 N   0  0  0  0  0  0  0  0  0  0  0  0
  144.9642  130.8614  150.9465 C   0  0  0  0  0  0  0  0  0  0  0  0
  144.8700  132.1996  150.6751 C   0  0  0  0  0  0  0  0  0  0  0  0
  143.7294  132.9763  150.0667 C   0  0  2  0  0  0  0  0  0  0  0  0
  142.5212  132.8037  150.8934 N   0  3  0  0  0  0  0  0  0  0  0  0
  143.4539  132.5766  148.6035 C   0  0  0  0  0  0  0  0  0  0  0  0
  142.0142  132.6100  148.2840 N   0  3  0  0  0  0  0  0  0  0  0  0
  146.1260  132.7104  151.1130 C   0  0  0  0  0  0  0  0  0  0  0  0
  146.9213  131.7742  151.6014 N   0  0  0  0  0  0  0  0  0  0  0  0
  146.0247  128.6026  151.9495 H   0  0  0  0  0  0  0  0  0  0  0  0
  147.1646  129.5029  152.9688 H   0  0  0  0  0  0  0  0  0  0  0  0
  147.5984  129.0984  151.2931 H   0  0  0  0  0  0  0  0  0  0  0  0
  144.2590  130.0575  150.7933 H   0  0  0  0  0  0  0  0  0  0  0  0
  143.9570  134.0431  150.0874 H   0  0  0  0  0  0  0  0  0  0  0  0
  141.9169  133.6052  150.7766 H   0  0  0  0  0  0  0  0  0  0  0  0
  142.7813  132.7238  151.8662 H   0  0  0  0  0  0  0  0  0  0  0  0
  143.9847  133.2341  147.9139 H   0  0  0  0  0  0  0  0  0  0  0  0
  143.8152  131.5646  148.4167 H   0  0  0  0  0  0  0  0  0  0  0  0
  141.8910  132.7062  147.2858 H   0  0  0  0  0  0  0  0  0  0  0  0
  141.5813  133.3947  148.7507 H   0  0  0  0  0  0  0  0  0  0  0  0
  146.4824  133.7298  151.0876 H   0  0  0  0  0  0  0  0  0  0  0  0
  141.5753  131.7541  148.5929 H   0  0  0  0  0  0  0  0  0  0  0  0
  142.0276  131.9701  150.6076 H   0  0  0  0  0  0  0  0  0  0  0  0
  1  2  1  0  0  0  0
  1 11  1  0  0  0  0
  1 12  1  0  0  0  0
  1 13  1  0  0  0  0
  2 10  1  0  0  0  0
  2  3  1  0  0  0  0
  3  4  2  0  0  0  0
  3 14  1  0  0  0  0
  4  5  1  0  0  0  0
  4  9  1  0  0  0  0
  5  6  1  0  0  0  0
  5  7  1  0  0  0  0
  5 15  1  0  0  0  0
  6 16  1  0  0  0  0
  6 17  1  0  0  0  0
  6 24  1  0  0  0  0
  7  8  1  0  0  0  0
  7 18  1  0  0  0  0
  7 19  1  0  0  0  0
  8 20  1  0  0  0  0
  8 21  1  0  0  0  0
  8 23  1  0  0  0  0
  9 10  2  0  0  0  0
  9 22  1  0  0  0  0
M  CHG  1   6   1
M  CHG  1   8   1
M  END
> <s_m_source_file>
AV-unprocessed.smi

> <i_m_source_file_index>
3078

> <i_lp_mmshare_version>
43012

> <i_f3d_flags>
0

> <s_epik_input>
W0NIM11uMVtjSF1jKFtjSF1uMSlbQ0BIXShbTkgyXSlbQ0gyXVtOSDJd

> <s_epik_cmdline>
J2VwaWtfcHl0aG9uJywgJy1waCcsICc3LjAnLCAnLXRuJywgJzgnLCAnLW1hJywgJzIwMCcsICctbWV0YWxfYmluZGluZycsICctaW1hZScsICc8aW5maWxlLm1hZT4nLCAnLW9tYWUnLCAnPG91dGZpbGUubWFlPic=

> <r_lp_tautomer_probability>
1

> <r_epik_Ionization_Penalty>
2.39325

> <r_epik_Ionization_Penalty_Charging>
2.39325

> <r_epik_Ionization_Penalty_Neutral>
1.68997e-07

> <r_epik_State_Penalty>
1.77229

> <r_epik_Charging_Adjusted_Penalty>
4.16555

> <i_epik_Tot_Q>
2

> <i_epik_Tot_abs_Q>
2

> <r_epik_Metal_State_Penalty>
1.77233

> <b_epik_Metal_Only>
0

> <s_lp_Force_Field>
OPLS_2005

> <r_lp_Energy>
8.51806

> <b_lp_Chiralities_Consistent>
1

> <s_lp_Variant>
AV-unprocessed.smi:3078-5

> <Gold.Version>
5.8.1

> <Gold.Id.Protein>
6NUR|6NUR_protein|mol2

> <Gold.PLP.Fitness>
45.2549

> <Gold.PLP.PLP>
-25.3581

> <Gold.PLP.part.hbond>
-4.8910

> <Gold.PLP.part.metal>
0.0000

> <Gold.PLP.part.buried>
-3.8401

> <Gold.PLP.part.nonpolar>
-17.6329

> <Gold.PLP.part.repulsive>
0.9949

> <Gold.PLP.ligand.clash>
0.0000

> <Gold.PLP.ligand.torsion>
0.5469

> <Gold.PLP.Chemscore.Hbond>
6.9913

> <Gold.PLP.Chemscore.CHOScore>
0.0000

> <Gold.PLP.Chemscore.Metal>
0.0000

> <Gold.Chemscore.Hbonds>
donor molecule, donor type, donor heavy atom, donor atom, acceptor molecule, acceptor atom, score
      L1  H     6    16       P1 10186  1.66
      L1  H     6    24       P1 10952  0.42
      L1  H     8    20       P1 10195  1.00
      L1  H     8    21       P1 10186  1.30
      L1  H     8    23       P1 10952  1.00

> <Gold.PLP.Chemscore.Internal.Correction>
0.0169

> <Gold.Rescore>
     Score         DG    S(hbond)    S(metal)    S(lipo)     H(rot)  DE(clash)    DE(int)     intcor
     21.81     -22.94       4.32        0.00      57.13       1.43       0.41       0.72       ----

> <Gold.Chemscore.Fitness>
21.8095

> <Gold.Chemscore.DG>
-22.9352

> <Gold.Chemscore.ZeroCoef>
-5.4800

> <Gold.Chemscore.Hbond>
4.3211

> <Gold.Chemscore.Metal>
0.0000

> <Gold.Chemscore.Lipo>
57.1329

> <Gold.Chemscore.Internal_Hbond>
0.0000

> <Gold.Chemscore.DEClash>
0.4107

> <Gold.Chemscore.DEInternal>
0.7150

> <Gold.Chemscore.Rot>
1.4304

> <Gold.Chemscore.Internal.Correction>
   9.000000E+99

> <Gold.Chemscore.Hbonds>
donor molecule, donor type, donor heavy atom, donor atom, acceptor molecule, acceptor atom, score
      L1  H     6    16       P1 10186  0.57
      L1  H     6    24       P1 10952  0.13
      L1  H     8    20       P1 10195  0.97
      L1  H     8    21       P1 10186  0.65
      L1  H     8    23       P1 10952  1.00

> <Gold.Chemscore.Hbond.Weighted>
-14.4324

> <Gold.Chemscore.Metal.Weighted>
-0.0000

> <Gold.Chemscore.Lipo.Weighted>
-6.6846

> <Gold.Chemscore.Internal_Hbond.Weighted>
0.0000

> <Gold.Chemscore.DEClash.Weighted>
0.4107

> <Gold.Chemscore.DEInternal.Weighted>
0.7150

> <Gold.Chemscore.Rot.Weighted>
3.6618

> <Gold.Chemscore.Internal.Correction.Weighted>
   9.000000E+99

> <Gold.Protein.RotatedTorsions>
[ 6907 6896 6895 6894 ] final -117.89 input  -60.11 | X-H torsion
[ 7974 7965 7964 7962 ] final   49.10 input  175.53 | X-H torsion
[ 8008 7997 7996 7995 ] final -122.19 input   59.86 | X-H torsion
[ 10167 10162 10161 10158 ] final  -82.76 input  -65.29 | X-H torsion
[ 10718 10713 10712 10709 ] final -164.98 input   66.30 | X-H torsion
[ 10763 10752 10751 10750 ] final  148.28 input  -60.55 | X-H torsion
[ 11005 11000 10999 10996 ] final -169.17 input  -57.11 | X-H torsion

> <Gold.Protein.ActiveResidues>
 VAL166  LYS551  ARG553  GLY616  TRP617  ASP618  TYR619  PRO620  LYS621  CYS622 
 ASP623  PHE694  ASN695  SER759  ASP760  ASP761  ALA762  ILE779  LEU786  VAL792 
 PHE793  MET794  SER795  GLU796  ALA797  LYS798  CYS799  TRP800  GLU811  SER814 

> <Gold.Protein.RotatedAtoms>
  150.8174  133.8314  159.3154 H   0  0  0  0  0  0  0  0  0  0  0  0  # atno 6907 bound_to 6896
  151.6082  135.1040  160.0085 H   0  0  0  0  0  0  0  0  0  0  0  0  # atno 6908 bound_to 6896
  152.4264  133.7162  159.6564 H   0  0  0  0  0  0  0  0  0  0  0  0  # atno 6909 bound_to 6896
  146.0141  139.4576  142.9938 H   0  0  0  0  0  0  0  0  0  0  0  0  # atno 7974 bound_to 7965
  155.1601  140.0405  157.2840 H   0  0  0  0  0  0  0  0  0  0  0  0  # atno 8008 bound_to 7997
  154.6342  140.2531  155.7371 H   0  0  0  0  0  0  0  0  0  0  0  0  # atno 8009 bound_to 7997
  156.2500  140.2869  156.0707 H   0  0  0  0  0  0  0  0  0  0  0  0  # atno 8010 bound_to 7997
  140.4290  143.2556  151.8786 H   0  0  0  0  0  0  0  0  0  0  0  0  # atno 10167 bound_to 10162
  156.6468  130.8991  151.3006 H   0  0  0  0  0  0  0  0  0  0  0  0  # atno 10718 bound_to 10713
  154.0522  135.2881  155.3338 H   0  0  0  0  0  0  0  0  0  0  0  0  # atno 10763 bound_to 10752
  154.6862  135.5244  153.8332 H   0  0  0  0  0  0  0  0  0  0  0  0  # atno 10764 bound_to 10752
  153.0556  135.6594  154.0717 H   0  0  0  0  0  0  0  0  0  0  0  0  # atno 10765 bound_to 10752
  140.5337  134.5591  157.5081 H   0  0  0  0  0  0  0  0  0  0  0  0  # atno 11005 bound_to 11000
  145.7297  141.0047  143.1358 LP  0  0  0  0  0  0  0  0  0  0  0  0  # atno 17320 bound_to 7965
  144.6964  139.8969  143.7456 LP  0  0  0  0  0  0  0  0  0  0  0  0  # atno 17321 bound_to 7965
  139.4784  144.5356  151.8604 LP  0  0  0  0  0  0  0  0  0  0  0  0  # atno 17342 bound_to 10162
  140.4449  144.1935  150.5893 LP  0  0  0  0  0  0  0  0  0  0  0  0  # atno 17343 bound_to 10162
  157.7153  130.9490  150.1235 LP  0  0  0  0  0  0  0  0  0  0  0  0  # atno 17370 bound_to 10713
  156.2115  130.3667  149.8664 LP  0  0  0  0  0  0  0  0  0  0  0  0  # atno 17371 bound_to 10713
  139.9540  134.7567  156.0383 LP  0  0  0  0  0  0  0  0  0  0  0  0  # atno 17394 bound_to 11000
  141.1267  133.6597  156.3354 LP  0  0  0  0  0  0  0  0  0  0  0  0  # atno 17395 bound_to 11000

$$$$
