AV-unprocessed.smi:276|AV-procd|sdf|2082|dock1
  -GOLD-   2262021353D 1   1.00000     0.00000
 Structure written by MMmdl.
 57 61  0  0  0  0  0  0  0  0  1 V2000
  152.7360  143.3391  162.8102 C   0  0  0  0  0  0  0  0  0  0  0  0
  152.1998  143.6507  161.5365 O   0  0  0  0  0  0  0  0  0  0  0  0
  152.1305  142.5183  160.6849 C   0  0  2  0  0  0  0  0  0  0  0  0
  153.4860  141.8716  160.3742 C   0  0  0  0  0  0  0  0  0  0  0  0
  153.0197  141.6979  158.9151 C   0  0  1  0  0  0  0  0  0  0  0  0
  152.4047  140.3804  158.7019 N   0  0  0  0  0  0  0  0  0  0  0  0
  153.1416  139.2294  159.2167 C   0  0  0  0  0  0  0  0  0  0  0  0
  151.9286  140.1231  157.4627 C   0  0  0  0  0  0  0  0  0  0  0  0
  152.8341  139.7477  156.5252 N   0  0  0  0  0  0  0  0  0  0  0  0
  152.4335  139.4693  155.2817 C   0  0  0  0  0  0  0  0  0  0  0  0
  151.2005  139.5109  154.7731 N   0  0  0  0  0  0  0  0  0  0  0  0
  150.2899  139.9076  155.7075 C   0  0  0  0  0  0  0  0  0  0  0  0
  150.5642  140.2322  157.0663 C   0  0  0  0  0  0  0  0  0  0  0  0
  149.3865  140.5882  157.7125 N   0  0  0  0  0  0  0  0  0  0  0  0
  148.4681  140.4678  156.7939 C   0  0  0  0  0  0  0  0  0  0  0  0
  148.9258  140.0863  155.5530 N   0  0  0  0  0  0  0  0  0  0  0  0
  148.1232  139.8776  154.3598 C   0  0  0  0  0  0  0  0  0  0  0  0
  147.3022  141.1132  153.9193 C   0  0  1  0  0  0  0  0  0  0  0  0
  146.4355  140.6478  152.9044 O   0  0  0  0  0  0  0  0  0  0  0  0
  146.4184  141.7590  155.0119 C   0  0  1  0  0  0  0  0  0  0  0  0
  145.4006  142.7982  154.5336 C   0  0  0  0  0  0  0  0  0  0  0  0
  144.3112  142.7611  155.5922 C   0  0  0  0  0  0  0  0  0  0  0  0
  144.5517  141.4379  156.3186 C   0  0  0  0  0  0  0  0  0  0  0  0
  145.5468  140.7756  155.5518 O   0  0  0  0  0  0  0  0  0  0  0  0
  152.0313  142.8645  159.1883 C   0  0  0  0  0  0  0  0  0  0  0  0
  152.3865  144.2816  158.7024 C   0  0  0  0  0  0  0  0  0  0  0  0
  150.8858  144.5754  158.6280 C   0  0  0  0  0  0  0  0  0  0  0  0
  150.6614  143.0659  158.5118 C   0  0  0  0  0  0  0  0  0  0  0  0
  152.7695  144.2395  163.4234 H   0  0  0  0  0  0  0  0  0  0  0  0
  153.7513  142.9488  162.7294 H   0  0  0  0  0  0  0  0  0  0  0  0
  152.1182  142.6032  163.3265 H   0  0  0  0  0  0  0  0  0  0  0  0
  151.3709  141.7924  160.9831 H   0  0  0  0  0  0  0  0  0  0  0  0
  154.3154  142.5754  160.4627 H   0  0  0  0  0  0  0  0  0  0  0  0
  153.6868  140.9585  160.9347 H   0  0  0  0  0  0  0  0  0  0  0  0
  153.8062  141.9445  158.2021 H   0  0  0  0  0  0  0  0  0  0  0  0
  152.9765  138.3230  158.6310 H   0  0  0  0  0  0  0  0  0  0  0  0
  152.8289  139.0179  160.2391 H   0  0  0  0  0  0  0  0  0  0  0  0
  154.2134  139.4299  159.2244 H   0  0  0  0  0  0  0  0  0  0  0  0
  153.2124  139.1701  154.5959 H   0  0  0  0  0  0  0  0  0  0  0  0
  147.4262  140.6698  156.9953 H   0  0  0  0  0  0  0  0  0  0  0  0
  148.8090  139.5857  153.5629 H   0  0  0  0  0  0  0  0  0  0  0  0
  147.4625  139.0254  154.5251 H   0  0  0  0  0  0  0  0  0  0  0  0
  147.9596  141.8641  153.4813 H   0  0  0  0  0  0  0  0  0  0  0  0
  145.5845  140.4909  153.2837 H   0  0  0  0  0  0  0  0  0  0  0  0
  147.0316  142.1843  155.8091 H   0  0  0  0  0  0  0  0  0  0  0  0
  145.8306  143.7932  154.4237 H   0  0  0  0  0  0  0  0  0  0  0  0
  144.9789  142.4996  153.5730 H   0  0  0  0  0  0  0  0  0  0  0  0
  144.4005  143.5986  156.2846 H   0  0  0  0  0  0  0  0  0  0  0  0
  143.3211  142.8034  155.1376 H   0  0  0  0  0  0  0  0  0  0  0  0
  144.9303  141.6151  157.3259 H   0  0  0  0  0  0  0  0  0  0  0  0
  143.6492  140.8311  156.3941 H   0  0  0  0  0  0  0  0  0  0  0  0
  152.9408  144.8984  159.4099 H   0  0  0  0  0  0  0  0  0  0  0  0
  152.8609  144.2799  157.7195 H   0  0  0  0  0  0  0  0  0  0  0  0
  150.4898  144.9925  159.5555 H   0  0  0  0  0  0  0  0  0  0  0  0
  150.5755  145.1532  157.7570 H   0  0  0  0  0  0  0  0  0  0  0  0
  150.6257  142.7546  157.4685 H   0  0  0  0  0  0  0  0  0  0  0  0
  149.8092  142.6854  159.0751 H   0  0  0  0  0  0  0  0  0  0  0  0
  1  2  1  0  0  0  0
  1 29  1  0  0  0  0
  1 30  1  0  0  0  0
  1 31  1  0  0  0  0
  2  3  1  0  0  0  0
  3 25  1  0  0  0  0
  3  4  1  0  0  0  0
  3 32  1  0  0  0  0
  4  5  1  0  0  0  0
  4 33  1  0  0  0  0
  4 34  1  0  0  0  0
  5  6  1  0  0  0  0
  5 25  1  0  0  0  0
  5 35  1  0  0  0  0
  6  7  1  0  0  0  0
  6  8  1  0  0  0  0
  7 36  1  0  0  0  0
  7 37  1  0  0  0  0
  7 38  1  0  0  0  0
  8 13  1  0  0  0  0
  8  9  2  0  0  0  0
  9 10  1  0  0  0  0
 10 11  2  0  0  0  0
 10 39  1  0  0  0  0
 11 12  1  0  0  0  0
 12 16  1  0  0  0  0
 12 13  2  0  0  0  0
 13 14  1  0  0  0  0
 14 15  2  0  0  0  0
 15 16  1  0  0  0  0
 15 40  1  0  0  0  0
 16 17  1  0  0  0  0
 17 18  1  0  0  0  0
 17 41  1  0  0  0  0
 17 42  1  0  0  0  0
 18 19  1  0  0  0  0
 18 20  1  0  0  0  0
 18 43  1  0  0  0  0
 19 44  1  0  0  0  0
 20 24  1  0  0  0  0
 20 21  1  0  0  0  0
 20 45  1  0  0  0  0
 21 22  1  0  0  0  0
 21 46  1  0  0  0  0
 21 47  1  0  0  0  0
 22 23  1  0  0  0  0
 22 48  1  0  0  0  0
 22 49  1  0  0  0  0
 23 24  1  0  0  0  0
 23 50  1  0  0  0  0
 23 51  1  0  0  0  0
 25 28  1  0  0  0  0
 25 26  1  0  0  0  0
 26 27  1  0  0  0  0
 26 52  1  0  0  0  0
 26 53  1  0  0  0  0
 27 28  1  0  0  0  0
 27 54  1  0  0  0  0
 27 55  1  0  0  0  0
 28 56  1  0  0  0  0
 28 57  1  0  0  0  0
M  END
> <s_m_source_file>
AV-unprocessed.smi

> <i_m_source_file_index>
276

> <i_lp_mmshare_version>
43012

> <i_f3d_flags>
0

> <s_epik_input>
W0NIMl0xW0NIMl1bQ0gyXUMxMltDQEhdKE9bQ0gzXSlbQ0gyXVtDQEhdMk4oW0NIM10pYyhuW2NIXW4zKWMoYzM0KW5bY0hdbjRbQ0gyXVtDQEhdKFtPSF0pW0NAQEhdNVtDSDJdW0NIMl1bQ0gyXU81

> <s_epik_cmdline>
J2VwaWtfcHl0aG9uJywgJy1waCcsICc3LjAnLCAnLXRuJywgJzgnLCAnLW1hJywgJzIwMCcsICctbWV0YWxfYmluZGluZycsICctaW1hZScsICc8aW5maWxlLm1hZT4nLCAnLW9tYWUnLCAnPG91dGZpbGUubWFlPic=

> <r_lp_tautomer_probability>
1

> <r_epik_Ionization_Penalty>
0.00204117

> <r_epik_Ionization_Penalty_Charging>
0

> <r_epik_Ionization_Penalty_Neutral>
0.00204117

> <r_epik_State_Penalty>
0.00127401

> <r_epik_Charging_Adjusted_Penalty>
0.00127401

> <i_epik_Tot_Q>
0

> <i_epik_Tot_abs_Q>
0

> <r_epik_Metal_State_Penalty>
-0

> <b_epik_Metal_Only>
0

> <s_lp_Force_Field>
OPLS_2005

> <r_lp_Energy>
59.2093

> <b_lp_Chiralities_Consistent>
1

> <s_lp_Variant>
AV-unprocessed.smi:276-13

> <Gold.Version>
5.8.1

> <Gold.Id.Protein>
6NUR|6NUR_protein|mol2

> <Gold.PLP.Fitness>
62.6659

> <Gold.PLP.PLP>
-56.0542

> <Gold.PLP.part.hbond>
-3.0109

> <Gold.PLP.part.metal>
0.0000

> <Gold.PLP.part.buried>
-6.5617

> <Gold.PLP.part.nonpolar>
-46.5630

> <Gold.PLP.part.repulsive>
0.3687

> <Gold.PLP.ligand.clash>
0.0000

> <Gold.PLP.ligand.torsion>
0.9075

> <Gold.PLP.Chemscore.Hbond>
2.4056

> <Gold.PLP.Chemscore.CHOScore>
0.0000

> <Gold.PLP.Chemscore.Metal>
0.0000

> <Gold.Chemscore.Hbonds>
donor molecule, donor type, donor heavy atom, donor atom, acceptor molecule, acceptor atom, score
      L1  H    19    44       P1 10175  0.59
      P1  H  7989  7998       L1    11  0.65
      P1  H  7997  8008       L1     9  1.00

> <Gold.PLP.Chemscore.Internal.Correction>
1.2099

> <Gold.Rescore>
     Score         DG    S(hbond)    S(metal)    S(lipo)     H(rot)  DE(clash)    DE(int)     intcor
     14.11     -18.02       1.41        0.00     126.36       2.72       0.33       3.57       ----

> <Gold.Chemscore.Fitness>
14.1137

> <Gold.Chemscore.DG>
-18.0156

> <Gold.Chemscore.ZeroCoef>
-5.4800

> <Gold.Chemscore.Hbond>
1.4096

> <Gold.Chemscore.Metal>
0.0000

> <Gold.Chemscore.Lipo>
126.3565

> <Gold.Chemscore.Internal_Hbond>
0.0000

> <Gold.Chemscore.DEClash>
0.3331

> <Gold.Chemscore.DEInternal>
3.5688

> <Gold.Chemscore.Rot>
2.7172

> <Gold.Chemscore.Internal.Correction>
   9.000000E+99

> <Gold.Chemscore.Hbonds>
donor molecule, donor type, donor heavy atom, donor atom, acceptor molecule, acceptor atom, score
      L1  H    19    44       P1 10175  0.53
      P1  H  7989  7998       L1    11  0.05
      P1  H  7997  8008       L1     9  0.43

> <Gold.Chemscore.Hbond.Weighted>
-4.7079

> <Gold.Chemscore.Metal.Weighted>
-0.0000

> <Gold.Chemscore.Lipo.Weighted>
-14.7837

> <Gold.Chemscore.Internal_Hbond.Weighted>
0.0000

> <Gold.Chemscore.DEClash.Weighted>
0.3331

> <Gold.Chemscore.DEInternal.Weighted>
3.5688

> <Gold.Chemscore.Rot.Weighted>
6.9560

> <Gold.Chemscore.Internal.Correction.Weighted>
   9.000000E+99

> <Gold.Protein.RotatedTorsions>
[ 6907 6896 6895 6894 ] final  -99.50 input  -60.11 | X-H torsion
[ 7974 7965 7964 7962 ] final -151.00 input  175.53 | X-H torsion
[ 8008 7997 7996 7995 ] final  -43.61 input   59.86 | X-H torsion
[ 10167 10162 10161 10158 ] final  137.07 input  -65.29 | X-H torsion
[ 10718 10713 10712 10709 ] final  -16.78 input   66.30 | X-H torsion
[ 10763 10752 10751 10750 ] final   74.18 input  -60.55 | X-H torsion
[ 11005 11000 10999 10996 ] final  -35.82 input  -57.11 | X-H torsion

> <Gold.Protein.ActiveResidues>
 VAL166  LYS551  ARG553  GLY616  TRP617  ASP618  TYR619  PRO620  LYS621  CYS622 
 ASP623  PHE694  ASN695  SER759  ASP760  ASP761  ALA762  ILE779  LEU786  VAL792 
 PHE793  MET794  SER795  GLU796  ALA797  LYS798  CYS799  TRP800  GLU811  SER814 

> <Gold.Protein.RotatedAtoms>
  150.7082  134.1031  159.3972 H   0  0  0  0  0  0  0  0  0  0  0  0  # atno 6907 bound_to 6896
  151.9018  135.0373  160.0516 H   0  0  0  0  0  0  0  0  0  0  0  0  # atno 6908 bound_to 6896
  152.2408  133.5098  159.5306 H   0  0  0  0  0  0  0  0  0  0  0  0  # atno 6909 bound_to 6896
  144.7875  140.4857  143.5796 H   0  0  0  0  0  0  0  0  0  0  0  0  # atno 7974 bound_to 7965
  154.3997  140.1443  156.3548 H   0  0  0  0  0  0  0  0  0  0  0  0  # atno 8008 bound_to 7997
  155.8236  140.3468  155.5508 H   0  0  0  0  0  0  0  0  0  0  0  0  # atno 8009 bound_to 7997
  155.8262  140.0905  157.1810 H   0  0  0  0  0  0  0  0  0  0  0  0  # atno 8010 bound_to 7997
  139.5157  144.6430  151.5517 H   0  0  0  0  0  0  0  0  0  0  0  0  # atno 10167 bound_to 10162
  156.5827  130.4778  149.6313 H   0  0  0  0  0  0  0  0  0  0  0  0  # atno 10718 bound_to 10713
  153.0570  135.5035  154.8004 H   0  0  0  0  0  0  0  0  0  0  0  0  # atno 10763 bound_to 10752
  154.6823  135.2970  154.9599 H   0  0  0  0  0  0  0  0  0  0  0  0  # atno 10764 bound_to 10752
  154.0381  135.6720  153.4840 H   0  0  0  0  0  0  0  0  0  0  0  0  # atno 10765 bound_to 10752
  140.9826  133.7048  156.1710 H   0  0  0  0  0  0  0  0  0  0  0  0  # atno 11005 bound_to 11000
  145.5882  139.1493  143.3197 LP  0  0  0  0  0  0  0  0  0  0  0  0  # atno 17320 bound_to 7965
  146.2113  140.6009  142.9058 LP  0  0  0  0  0  0  0  0  0  0  0  0  # atno 17321 bound_to 7965
  140.6204  143.9269  150.6521 LP  0  0  0  0  0  0  0  0  0  0  0  0  # atno 17342 bound_to 10162
  140.2541  143.3572  152.1380 LP  0  0  0  0  0  0  0  0  0  0  0  0  # atno 17343 bound_to 10162
  156.2617  130.6966  151.1737 LP  0  0  0  0  0  0  0  0  0  0  0  0  # atno 17370 bound_to 10713
  157.7322  131.0601  150.5637 LP  0  0  0  0  0  0  0  0  0  0  0  0  # atno 17371 bound_to 10713
  140.7163  134.4407  157.5578 LP  0  0  0  0  0  0  0  0  0  0  0  0  # atno 17394 bound_to 11000
  139.8957  134.8677  156.2121 LP  0  0  0  0  0  0  0  0  0  0  0  0  # atno 17395 bound_to 11000

$$$$
