AV-unprocessed.smi:493|AV-procd|sdf|2712|dock1
  -GOLD-   2262023153D 1   1.00000     0.00000
 Structure written by MMmdl.
 46 47  0  0  0  0  0  0  0  0  1 V2000
  152.9772  143.8658  159.0874 C   0  0  0  0  0  0  0  0  0  0  0  0
  152.1222  143.0162  160.0442 C   0  0  0  0  0  0  0  0  0  0  0  0
  153.0453  142.3613  161.0932 C   0  0  0  0  0  0  0  0  0  0  0  0
  151.0822  143.9274  160.7295 C   0  0  0  0  0  0  0  0  0  0  0  0
  151.4572  141.9935  159.2276 N   0  0  0  0  0  0  0  0  0  0  0  0
  150.5631  142.1643  158.2377 C   0  0  0  0  0  0  0  0  0  0  0  0
  150.1444  143.2638  157.8745 O   0  0  0  0  0  0  0  0  0  0  0  0
  150.0547  140.8771  157.5728 C   0  0  0  0  0  0  0  0  0  0  0  0
  149.1349  141.1280  156.4510 N   0  0  0  0  0  0  0  0  0  0  0  0
  147.8789  141.6830  156.7639 C   0  0  0  0  0  0  0  0  0  0  0  0
  146.9783  141.9757  155.8115 C   0  0  0  0  0  0  0  0  0  0  0  0
  145.3224  142.5562  156.2588 S   0  0  0  0  0  0  0  0  0  0  0  0
  144.5236  141.3672  156.5931 O   0  0  0  0  0  0  0  0  0  0  0  0
  145.4770  143.6371  157.2452 O   0  0  0  0  0  0  0  0  0  0  0  0
  144.6391  143.2586  154.8308 N   0  0  0  0  0  0  0  0  0  0  0  0
  143.3582  143.9667  154.9572 C   0  0  0  0  0  0  0  0  0  0  0  0
  143.5927  145.3557  154.3650 C   0  0  0  0  0  0  0  0  0  0  0  0
  144.6523  145.1015  153.3039 C   0  0  0  0  0  0  0  0  0  0  0  0
  145.5263  144.0195  153.9377 C   0  0  0  0  0  0  0  0  0  0  0  0
  147.2958  141.6484  154.4411 C   0  0  0  0  0  0  0  0  0  0  0  0
  148.4894  141.1027  154.1348 C   0  0  0  0  0  0  0  0  0  0  0  0
  149.4959  140.8228  155.1660 C   0  0  0  0  0  0  0  0  0  0  0  0
  150.5951  140.3406  154.8917 O   0  0  0  0  0  0  0  0  0  0  0  0
  153.5049  144.6561  159.6227 H   0  0  0  0  0  0  0  0  0  0  0  0
  152.3640  144.3428  158.3216 H   0  0  0  0  0  0  0  0  0  0  0  0
  153.7266  143.2594  158.5772 H   0  0  0  0  0  0  0  0  0  0  0  0
  153.7628  141.6864  160.6253 H   0  0  0  0  0  0  0  0  0  0  0  0
  152.4857  141.7875  161.8318 H   0  0  0  0  0  0  0  0  0  0  0  0
  153.6135  143.1144  161.6401 H   0  0  0  0  0  0  0  0  0  0  0  0
  151.5680  144.7481  161.2584 H   0  0  0  0  0  0  0  0  0  0  0  0
  150.4837  143.3871  161.4630 H   0  0  0  0  0  0  0  0  0  0  0  0
  150.3966  144.3659  160.0033 H   0  0  0  0  0  0  0  0  0  0  0  0
  151.7156  141.0402  159.4369 H   0  0  0  0  0  0  0  0  0  0  0  0
  150.9050  140.2826  157.2331 H   0  0  0  0  0  0  0  0  0  0  0  0
  149.5700  140.2698  158.3383 H   0  0  0  0  0  0  0  0  0  0  0  0
  147.6984  141.8486  157.8160 H   0  0  0  0  0  0  0  0  0  0  0  0
  142.6014  143.4249  154.3892 H   0  0  0  0  0  0  0  0  0  0  0  0
  143.0295  144.0191  155.9960 H   0  0  0  0  0  0  0  0  0  0  0  0
  142.6844  145.8031  153.9603 H   0  0  0  0  0  0  0  0  0  0  0  0
  143.9877  146.0242  155.1313 H   0  0  0  0  0  0  0  0  0  0  0  0
  144.1836  144.7175  152.3968 H   0  0  0  0  0  0  0  0  0  0  0  0
  145.2136  145.9984  153.0408 H   0  0  0  0  0  0  0  0  0  0  0  0
  146.3246  144.4791  154.5217 H   0  0  0  0  0  0  0  0  0  0  0  0
  145.9831  143.3666  153.1937 H   0  0  0  0  0  0  0  0  0  0  0  0
  146.5783  141.8434  153.6579 H   0  0  0  0  0  0  0  0  0  0  0  0
  148.7135  140.8661  153.1050 H   0  0  0  0  0  0  0  0  0  0  0  0
  1  2  1  0  0  0  0
  1 24  1  0  0  0  0
  1 25  1  0  0  0  0
  1 26  1  0  0  0  0
  2  3  1  0  0  0  0
  2  4  1  0  0  0  0
  2  5  1  0  0  0  0
  3 27  1  0  0  0  0
  3 28  1  0  0  0  0
  3 29  1  0  0  0  0
  4 30  1  0  0  0  0
  4 31  1  0  0  0  0
  4 32  1  0  0  0  0
  5  6  1  0  0  0  0
  5 33  1  0  0  0  0
  6  7  2  0  0  0  0
  6  8  1  0  0  0  0
  8  9  1  0  0  0  0
  8 34  1  0  0  0  0
  8 35  1  0  0  0  0
  9 22  1  0  0  0  0
  9 10  1  0  0  0  0
 10 11  2  0  0  0  0
 10 36  1  0  0  0  0
 11 12  1  0  0  0  0
 11 20  1  0  0  0  0
 12 13  2  0  0  0  0
 12 14  2  0  0  0  0
 12 15  1  0  0  0  0
 15 19  1  0  0  0  0
 15 16  1  0  0  0  0
 16 17  1  0  0  0  0
 16 37  1  0  0  0  0
 16 38  1  0  0  0  0
 17 18  1  0  0  0  0
 17 39  1  0  0  0  0
 17 40  1  0  0  0  0
 18 19  1  0  0  0  0
 18 41  1  0  0  0  0
 18 42  1  0  0  0  0
 19 43  1  0  0  0  0
 19 44  1  0  0  0  0
 20 21  2  0  0  0  0
 20 45  1  0  0  0  0
 21 22  1  0  0  0  0
 21 46  1  0  0  0  0
 22 23  2  0  0  0  0
M  END
> <s_m_source_file>
AV-unprocessed.smi

> <i_m_source_file_index>
493

> <i_lp_mmshare_version>
43012

> <i_f3d_flags>
0

> <s_epik_input>
W0NIM11DKFtDSDNdKShbQ0gzXSlbTkhdQyg9TylbQ0gyXW4xW2NIXWMoW2NIXVtjSF1jMT1PKVMoPU8pKD1PKU4yW0NIMl1bQ0gyXVtDSDJdW0NIMl0y

> <s_epik_cmdline>
J2VwaWtfcHl0aG9uJywgJy1waCcsICc3LjAnLCAnLXRuJywgJzgnLCAnLW1hJywgJzIwMCcsICctbWV0YWxfYmluZGluZycsICctaW1hZScsICc8aW5maWxlLm1hZT4nLCAnLW9tYWUnLCAnPG91dGZpbGUubWFlPic=

> <r_lp_tautomer_probability>
1

> <r_epik_Ionization_Penalty>
3.47616e-08

> <r_epik_Ionization_Penalty_Charging>
1.01201e-08

> <r_epik_Ionization_Penalty_Neutral>
2.46415e-08

> <r_epik_State_Penalty>
-0

> <r_epik_Charging_Adjusted_Penalty>
1.01201e-08

> <i_epik_Tot_Q>
0

> <i_epik_Tot_abs_Q>
0

> <r_epik_Metal_State_Penalty>
-0

> <b_epik_Metal_Only>
0

> <s_lp_Force_Field>
OPLS_2005

> <r_lp_Energy>
19.4052

> <b_lp_Chiralities_Consistent>
1

> <s_lp_Variant>
AV-unprocessed.smi:493-1

> <Gold.Version>
5.8.1

> <Gold.Id.Protein>
6NUR|6NUR_protein|mol2

> <Gold.PLP.Fitness>
42.2957

> <Gold.PLP.PLP>
-40.5525

> <Gold.PLP.part.hbond>
-1.0000

> <Gold.PLP.part.metal>
0.0000

> <Gold.PLP.part.buried>
-7.0463

> <Gold.PLP.part.nonpolar>
-35.5668

> <Gold.PLP.part.repulsive>
2.8550

> <Gold.PLP.ligand.clash>
0.0000

> <Gold.PLP.ligand.torsion>
1.8649

> <Gold.PLP.Chemscore.Hbond>
1.0000

> <Gold.PLP.Chemscore.CHOScore>
0.0000

> <Gold.PLP.Chemscore.Metal>
0.0000

> <Gold.Chemscore.Hbonds>
donor molecule, donor type, donor heavy atom, donor atom, acceptor molecule, acceptor atom, score
      P1  H  7989  7998       L1    23  1.00

> <Gold.PLP.Chemscore.Internal.Correction>
2.4730

> <Gold.Rescore>
     Score         DG    S(hbond)    S(metal)    S(lipo)     H(rot)  DE(clash)    DE(int)     intcor
     12.52     -16.50       0.98        0.00     101.69       1.62       1.55       2.42       ----

> <Gold.Chemscore.Fitness>
12.5219

> <Gold.Chemscore.DG>
-16.4984

> <Gold.Chemscore.ZeroCoef>
-5.4800

> <Gold.Chemscore.Hbond>
0.9801

> <Gold.Chemscore.Metal>
0.0000

> <Gold.Chemscore.Lipo>
101.6901

> <Gold.Chemscore.Internal_Hbond>
0.0000

> <Gold.Chemscore.DEClash>
1.5540

> <Gold.Chemscore.DEInternal>
2.4225

> <Gold.Chemscore.Rot>
1.6222

> <Gold.Chemscore.Internal.Correction>
   9.000000E+99

> <Gold.Chemscore.Hbonds>
donor molecule, donor type, donor heavy atom, donor atom, acceptor molecule, acceptor atom, score
      P1  H  7989  7998       L1    23  0.98

> <Gold.Chemscore.Hbond.Weighted>
-3.2734

> <Gold.Chemscore.Metal.Weighted>
-0.0000

> <Gold.Chemscore.Lipo.Weighted>
-11.8977

> <Gold.Chemscore.Internal_Hbond.Weighted>
0.0000

> <Gold.Chemscore.DEClash.Weighted>
1.5540

> <Gold.Chemscore.DEInternal.Weighted>
2.4225

> <Gold.Chemscore.Rot.Weighted>
4.1528

> <Gold.Chemscore.Internal.Correction.Weighted>
   9.000000E+99

> <Gold.Protein.RotatedTorsions>
[ 6907 6896 6895 6894 ] final -176.52 input  -60.11 | X-H torsion
[ 7974 7965 7964 7962 ] final  150.86 input  175.53 | X-H torsion
[ 8008 7997 7996 7995 ] final -174.41 input   59.86 | X-H torsion
[ 10167 10162 10161 10158 ] final   17.28 input  -65.29 | X-H torsion
[ 10718 10713 10712 10709 ] final   12.51 input   66.30 | X-H torsion
[ 10763 10752 10751 10750 ] final  155.47 input  -60.55 | X-H torsion
[ 11005 11000 10999 10996 ] final  123.61 input  -57.11 | X-H torsion

> <Gold.Protein.ActiveResidues>
 VAL166  LYS551  ARG553  GLY616  TRP617  ASP618  TYR619  PRO620  LYS621  CYS622 
 ASP623  PHE694  ASN695  SER759  ASP760  ASP761  ALA762  ILE779  LEU786  VAL792 
 PHE793  MET794  SER795  GLU796  ALA797  LYS798  CYS799  TRP800  GLU811  SER814 

> <Gold.Protein.RotatedAtoms>
  151.6062  133.3351  159.3057 H   0  0  0  0  0  0  0  0  0  0  0  0  # atno 6907 bound_to 6896
  150.8181  134.7378  159.6759 H   0  0  0  0  0  0  0  0  0  0  0  0  # atno 6908 bound_to 6896
  152.4276  134.5844  160.0008 H   0  0  0  0  0  0  0  0  0  0  0  0  # atno 6909 bound_to 6896
  144.8334  139.6463  143.6049 H   0  0  0  0  0  0  0  0  0  0  0  0  # atno 7974 bound_to 7965
  155.9697  140.1160  157.0823 H   0  0  0  0  0  0  0  0  0  0  0  0  # atno 8008 bound_to 7997
  154.4153  140.1165  156.5358 H   0  0  0  0  0  0  0  0  0  0  0  0  # atno 8009 bound_to 7997
  155.6612  140.3473  155.4786 H   0  0  0  0  0  0  0  0  0  0  0  0  # atno 8010 bound_to 7997
  140.5737  143.9112  150.6733 H   0  0  0  0  0  0  0  0  0  0  0  0  # atno 10167 bound_to 10162
  157.0112  130.6118  149.5708 H   0  0  0  0  0  0  0  0  0  0  0  0  # atno 10718 bound_to 10713
  154.1689  135.2805  155.3087 H   0  0  0  0  0  0  0  0  0  0  0  0  # atno 10763 bound_to 10752
  154.6090  135.5505  153.7457 H   0  0  0  0  0  0  0  0  0  0  0  0  # atno 10764 bound_to 10752
  153.0170  135.6411  154.1829 H   0  0  0  0  0  0  0  0  0  0  0  0  # atno 10765 bound_to 10752
  139.9320  134.9641  156.8285 H   0  0  0  0  0  0  0  0  0  0  0  0  # atno 11005 bound_to 11000
  146.2635  139.6464  142.9346 LP  0  0  0  0  0  0  0  0  0  0  0  0  # atno 17320 bound_to 7965
  145.4847  141.0438  143.2626 LP  0  0  0  0  0  0  0  0  0  0  0  0  # atno 17321 bound_to 7965
  140.2594  143.3535  152.1336 LP  0  0  0  0  0  0  0  0  0  0  0  0  # atno 17342 bound_to 10162
  139.5131  144.6928  151.5714 LP  0  0  0  0  0  0  0  0  0  0  0  0  # atno 17343 bound_to 10162
  156.0135  130.5228  150.8063 LP  0  0  0  0  0  0  0  0  0  0  0  0  # atno 17370 bound_to 10713
  157.5319  131.0937  150.9944 LP  0  0  0  0  0  0  0  0  0  0  0  0  # atno 17371 bound_to 10713
  140.6176  134.0024  155.7604 LP  0  0  0  0  0  0  0  0  0  0  0  0  # atno 17394 bound_to 11000
  141.0914  133.9910  157.3230 LP  0  0  0  0  0  0  0  0  0  0  0  0  # atno 17395 bound_to 11000

$$$$
