AV-unprocessed.smi:646|AV-procd|sdf|3166|dock10
  -GOLD-   22720 0 93D 1   1.00000     0.00000
 Structure written by MMmdl.
 44 45  0  0  0  0  0  0  0  0  1 V2000
  147.0918  139.3045  153.2941 C   0  0  0  0  0  0  0  0  0  0  0  0
  147.2574  139.7303  154.6409 O   0  0  0  0  0  0  0  0  0  0  0  0
  147.2118  141.1410  154.8952 C   0  0  2  0  0  0  0  0  0  0  0  0
  145.8571  141.7233  154.4718 C   0  0  0  0  0  0  0  0  0  0  0  0
  148.5089  141.8111  154.4022 C   0  0  0  0  0  0  0  0  0  0  0  0
  149.1429  141.3896  155.7264 C   0  0  1  0  0  0  0  0  0  0  0  0
  150.0434  142.3997  156.2672 N   0  0  0  0  0  0  0  0  0  0  0  0
  151.1661  142.1279  156.9483 C   0  0  0  0  0  0  0  0  0  0  0  0
  151.6122  140.9910  157.0996 O   0  0  0  0  0  0  0  0  0  0  0  0
  151.8715  143.3206  157.5912 C   0  0  0  0  0  0  0  0  0  0  0  0
  151.7926  143.1876  159.0907 C   0  0  0  0  0  0  0  0  0  0  0  0
  151.2641  144.1243  160.0247 C   0  0  0  0  0  0  0  0  0  0  0  0
  150.6523  145.4684  159.7526 C   0  0  0  0  0  0  0  0  0  0  0  0
  151.3706  143.6940  161.2705 N   0  0  0  0  0  0  0  0  0  0  0  0
  151.9853  142.4409  161.1916 O   0  0  0  0  0  0  0  0  0  0  0  0
  152.2292  142.1633  159.8858 C   0  0  0  0  0  0  0  0  0  0  0  0
  152.9000  140.8635  159.5960 C   0  0  0  0  0  0  0  0  0  0  0  0
  147.7233  141.3967  156.3503 C   0  0  0  0  0  0  0  0  0  0  0  0
  147.2608  142.7134  157.0056 C   0  0  0  0  0  0  0  0  0  0  0  0
  147.4411  140.2987  157.3815 C   0  0  0  0  0  0  0  0  0  0  0  0
  147.3208  138.2410  153.2268 H   0  0  0  0  0  0  0  0  0  0  0  0
  147.7542  139.8296  152.6067 H   0  0  0  0  0  0  0  0  0  0  0  0
  146.0631  139.4335  152.9580 H   0  0  0  0  0  0  0  0  0  0  0  0
  145.7648  142.7742  154.7439 H   0  0  0  0  0  0  0  0  0  0  0  0
  145.0320  141.1898  154.9442 H   0  0  0  0  0  0  0  0  0  0  0  0
  145.7122  141.6780  153.3927 H   0  0  0  0  0  0  0  0  0  0  0  0
  148.9737  141.3669  153.5226 H   0  0  0  0  0  0  0  0  0  0  0  0
  148.4105  142.8923  154.2886 H   0  0  0  0  0  0  0  0  0  0  0  0
  149.5792  140.3899  155.6656 H   0  0  0  0  0  0  0  0  0  0  0  0
  149.7525  143.3633  156.1910 H   0  0  0  0  0  0  0  0  0  0  0  0
  152.9063  143.3532  157.2481 H   0  0  0  0  0  0  0  0  0  0  0  0
  151.4073  144.2442  157.2434 H   0  0  0  0  0  0  0  0  0  0  0  0
  149.9351  145.4128  158.9338 H   0  0  0  0  0  0  0  0  0  0  0  0
  151.4179  146.1930  159.4742 H   0  0  0  0  0  0  0  0  0  0  0  0
  150.1264  145.8577  160.6252 H   0  0  0  0  0  0  0  0  0  0  0  0
  153.4356  140.9023  158.6476 H   0  0  0  0  0  0  0  0  0  0  0  0
  152.1685  140.0577  159.5392 H   0  0  0  0  0  0  0  0  0  0  0  0
  153.6195  140.6149  160.3764 H   0  0  0  0  0  0  0  0  0  0  0  0
  147.7845  142.9043  157.9429 H   0  0  0  0  0  0  0  0  0  0  0  0
  146.1946  142.6930  157.2334 H   0  0  0  0  0  0  0  0  0  0  0  0
  147.4357  143.5776  156.3644 H   0  0  0  0  0  0  0  0  0  0  0  0
  147.8915  140.5304  158.3474 H   0  0  0  0  0  0  0  0  0  0  0  0
  147.8459  139.3348  157.0728 H   0  0  0  0  0  0  0  0  0  0  0  0
  146.3705  140.1662  157.5391 H   0  0  0  0  0  0  0  0  0  0  0  0
  1  2  1  0  0  0  0
  1 21  1  0  0  0  0
  1 22  1  0  0  0  0
  1 23  1  0  0  0  0
  2  3  1  0  0  0  0
  3 18  1  0  0  0  0
  3  4  1  0  0  0  0
  3  5  1  0  0  0  0
  4 24  1  0  0  0  0
  4 25  1  0  0  0  0
  4 26  1  0  0  0  0
  5  6  1  0  0  0  0
  5 27  1  0  0  0  0
  5 28  1  0  0  0  0
  6  7  1  0  0  0  0
  6 18  1  0  0  0  0
  6 29  1  0  0  0  0
  7  8  1  0  0  0  0
  7 30  1  0  0  0  0
  8  9  2  0  0  0  0
  8 10  1  0  0  0  0
 10 11  1  0  0  0  0
 10 31  1  0  0  0  0
 10 32  1  0  0  0  0
 11 16  2  0  0  0  0
 11 12  1  0  0  0  0
 12 13  1  0  0  0  0
 12 14  2  0  0  0  0
 13 33  1  0  0  0  0
 13 34  1  0  0  0  0
 13 35  1  0  0  0  0
 14 15  1  0  0  0  0
 15 16  1  0  0  0  0
 16 17  1  0  0  0  0
 17 36  1  0  0  0  0
 17 37  1  0  0  0  0
 17 38  1  0  0  0  0
 18 19  1  0  0  0  0
 18 20  1  0  0  0  0
 19 39  1  0  0  0  0
 19 40  1  0  0  0  0
 19 41  1  0  0  0  0
 20 42  1  0  0  0  0
 20 43  1  0  0  0  0
 20 44  1  0  0  0  0
M  END
> <s_m_source_file>
AV-unprocessed.smi

> <i_m_source_file_index>
646

> <i_lp_mmshare_version>
43012

> <i_f3d_flags>
0

> <s_epik_input>
W0NIM11PW0NAQF0xKFtDSDNdKVtDSDJdW0NASF0oQzEoW0NIM10pW0NIM10pW05IXUMoPU8pW0NIMl1jMmMoW0NIM10pbm9jMltDSDNd

> <s_epik_cmdline>
J2VwaWtfcHl0aG9uJywgJy1waCcsICc3LjAnLCAnLXRuJywgJzgnLCAnLW1hJywgJzIwMCcsICctbWV0YWxfYmluZGluZycsICctaW1hZScsICc8aW5maWxlLm1hZT4nLCAnLW9tYWUnLCAnPG91dGZpbGUubWFlPic=

> <r_lp_tautomer_probability>
1

> <r_epik_Ionization_Penalty>
2.13169e-08

> <r_epik_Ionization_Penalty_Charging>
0

> <r_epik_Ionization_Penalty_Neutral>
2.13169e-08

> <r_epik_State_Penalty>
-0

> <r_epik_Charging_Adjusted_Penalty>
0

> <i_epik_Tot_Q>
0

> <i_epik_Tot_abs_Q>
0

> <r_epik_Metal_State_Penalty>
-0

> <b_epik_Metal_Only>
0

> <s_lp_Force_Field>
OPLS_2005

> <r_lp_Energy>
15.8314

> <b_lp_Chiralities_Consistent>
1

> <s_lp_Variant>
AV-unprocessed.smi:646-2

> <Gold.Version>
5.8.1

> <Gold.Id.Protein>
6NUR|6NUR_protein|mol2

> <Gold.PLP.Fitness>
35.1798

> <Gold.PLP.PLP>
-32.4268

> <Gold.PLP.part.hbond>
-2.2673

> <Gold.PLP.part.metal>
0.0000

> <Gold.PLP.part.buried>
-4.2483

> <Gold.PLP.part.nonpolar>
-26.3346

> <Gold.PLP.part.repulsive>
0.3674

> <Gold.PLP.ligand.clash>
0.0000

> <Gold.PLP.ligand.torsion>
0.3157

> <Gold.PLP.Chemscore.Hbond>
1.0000

> <Gold.PLP.Chemscore.CHOScore>
0.0000

> <Gold.PLP.Chemscore.Metal>
0.0000

> <Gold.Chemscore.Hbonds>
donor molecule, donor type, donor heavy atom, donor atom, acceptor molecule, acceptor atom, score
      L1  H     7    30       P1  8028  1.00
      P1  H  6933  6945       L1    15  0.02

> <Gold.PLP.Chemscore.Internal.Correction>
0.3844

> <Gold.Rescore>
     Score         DG    S(hbond)    S(metal)    S(lipo)     H(rot)  DE(clash)    DE(int)     intcor
     14.07     -15.34       0.97        0.00      89.10       1.49       0.11       1.16       ----

> <Gold.Chemscore.Fitness>
14.0654

> <Gold.Chemscore.DG>
-15.3385

> <Gold.Chemscore.ZeroCoef>
-5.4800

> <Gold.Chemscore.Hbond>
0.9747

> <Gold.Chemscore.Metal>
0.0000

> <Gold.Chemscore.Lipo>
89.0988

> <Gold.Chemscore.Internal_Hbond>
0.0000

> <Gold.Chemscore.DEClash>
0.1101

> <Gold.Chemscore.DEInternal>
1.1630

> <Gold.Chemscore.Rot>
1.4928

> <Gold.Chemscore.Internal.Correction>
   9.000000E+99

> <Gold.Chemscore.Hbonds>
donor molecule, donor type, donor heavy atom, donor atom, acceptor molecule, acceptor atom, score
      L1  H     7    30       P1  8028  1.00

> <Gold.Chemscore.Hbond.Weighted>
-3.2556

> <Gold.Chemscore.Metal.Weighted>
-0.0000

> <Gold.Chemscore.Lipo.Weighted>
-10.4246

> <Gold.Chemscore.Internal_Hbond.Weighted>
0.0000

> <Gold.Chemscore.DEClash.Weighted>
0.1101

> <Gold.Chemscore.DEInternal.Weighted>
1.1630

> <Gold.Chemscore.Rot.Weighted>
3.8217

> <Gold.Chemscore.Internal.Correction.Weighted>
   9.000000E+99

> <Gold.Protein.RotatedTorsions>
[ 6907 6896 6895 6894 ] final   30.30 input  -60.11 | X-H torsion
[ 7974 7965 7964 7962 ] final   95.27 input  175.53 | X-H torsion
[ 8008 7997 7996 7995 ] final  -54.29 input   59.86 | X-H torsion
[ 10167 10162 10161 10158 ] final  -74.12 input  -65.29 | X-H torsion
[ 10718 10713 10712 10709 ] final  -17.60 input   66.30 | X-H torsion
[ 10763 10752 10751 10750 ] final    8.55 input  -60.55 | X-H torsion
[ 11005 11000 10999 10996 ] final    3.60 input  -57.11 | X-H torsion

> <Gold.Protein.ActiveResidues>
 VAL166  LYS551  ARG553  GLY616  TRP617  ASP618  TYR619  PRO620  LYS621  CYS622 
 ASP623  PHE694  ASN695  SER759  ASP760  ASP761  ALA762  ILE779  LEU786  VAL792 
 PHE793  MET794  SER795  GLU796  ALA797  LYS798  CYS799  TRP800  GLU811  SER814 

> <Gold.Protein.RotatedAtoms>
  152.0440  134.9694  160.0573 H   0  0  0  0  0  0  0  0  0  0  0  0  # atno 6907 bound_to 6896
  152.1121  133.4301  159.4644 H   0  0  0  0  0  0  0  0  0  0  0  0  # atno 6908 bound_to 6896
  150.6844  134.2555  159.4571 H   0  0  0  0  0  0  0  0  0  0  0  0  # atno 6909 bound_to 6896
  145.4544  139.2291  143.3022 H   0  0  0  0  0  0  0  0  0  0  0  0  # atno 7974 bound_to 7965
  154.4158  140.1180  156.5291 H   0  0  0  0  0  0  0  0  0  0  0  0  # atno 8008 bound_to 7997
  155.6624  140.3496  155.4768 H   0  0  0  0  0  0  0  0  0  0  0  0  # atno 8009 bound_to 7997
  155.9702  140.1140  157.0808 H   0  0  0  0  0  0  0  0  0  0  0  0  # atno 8010 bound_to 7997
  140.5054  143.2354  151.7683 H   0  0  0  0  0  0  0  0  0  0  0  0  # atno 10167 bound_to 10162
  156.5713  130.4750  149.6362 H   0  0  0  0  0  0  0  0  0  0  0  0  # atno 10718 bound_to 10713
  153.2238  135.6884  153.7969 H   0  0  0  0  0  0  0  0  0  0  0  0  # atno 10763 bound_to 10752
  153.7158  135.3275  155.3257 H   0  0  0  0  0  0  0  0  0  0  0  0  # atno 10764 bound_to 10752
  154.8282  135.4601  154.1096 H   0  0  0  0  0  0  0  0  0  0  0  0  # atno 10765 bound_to 10752
  140.5913  133.9921  155.8090 H   0  0  0  0  0  0  0  0  0  0  0  0  # atno 11005 bound_to 11000
  146.2486  140.5307  142.8903 LP  0  0  0  0  0  0  0  0  0  0  0  0  # atno 17320 bound_to 7965
  144.8041  140.6268  143.6458 LP  0  0  0  0  0  0  0  0  0  0  0  0  # atno 17321 bound_to 7965
  139.4882  144.4465  151.9704 LP  0  0  0  0  0  0  0  0  0  0  0  0  # atno 17342 bound_to 10162
  140.3555  144.3036  150.5942 LP  0  0  0  0  0  0  0  0  0  0  0  0  # atno 17343 bound_to 10162
  156.2712  130.7018  151.1816 LP  0  0  0  0  0  0  0  0  0  0  0  0  # atno 17370 bound_to 10713
  157.7347  131.0579  150.5507 LP  0  0  0  0  0  0  0  0  0  0  0  0  # atno 17371 bound_to 10713
  141.0933  133.9883  157.3201 LP  0  0  0  0  0  0  0  0  0  0  0  0  # atno 17394 bound_to 11000
  139.9273  135.0201  156.8278 LP  0  0  0  0  0  0  0  0  0  0  0  0  # atno 17395 bound_to 11000

$$$$
