AV-unprocessed.smi:3290|AV-procd|sdf|12612|dock10
  -GOLD-   2272018543D 1   1.00000     0.00000
 Structure written by MMmdl.
 43 44  0  0  0  0  0  0  0  0  2 V2000
  150.0141  144.4873  159.8361 C   0  0  0  0  0  0  0  0  0  0  0  0
  151.5143  144.8427  159.7985 C   0  0  1  0  0  0  0  0  0  0  0  0
  152.1674  144.6981  161.1897 C   0  0  0  0  0  0  0  0  0  0  0  0
  152.3590  143.2285  161.5987 C   0  0  0  0  0  0  0  0  0  0  0  0
  153.1616  142.4595  160.5398 C   0  0  0  0  0  0  0  0  0  0  0  0
  152.5182  142.5817  159.1497 C   0  0  0  0  0  0  0  0  0  0  0  0
  152.3320  144.0567  158.7337 C   0  0  1  0  0  0  0  0  0  0  0  0
  151.7675  144.1608  157.3018 C   0  0  0  0  0  0  0  0  0  0  0  0
  150.6212  143.2534  157.0979 N   0  3  0  0  0  0  0  0  0  0  0  0
  150.9884  141.9277  156.5617 C   0  0  0  0  0  0  0  0  0  0  0  0
  149.8275  140.9267  156.6921 C   0  0  2  0  0  0  0  0  0  0  0  0
  150.3261  139.6217  156.4698 O   0  0  0  0  0  0  0  0  0  0  0  0
  148.6976  141.2687  155.7341 C   0  0  0  0  0  0  0  0  0  0  0  0
  147.4614  141.7382  156.2254 C   0  0  0  0  0  0  0  0  0  0  0  0
  146.4432  142.0497  155.3019 C   0  0  0  0  0  0  0  0  0  0  0  0
  146.5906  141.9245  153.9659 N   0  0  0  0  0  0  0  0  0  0  0  0
  147.7764  141.4773  153.5002 C   0  0  0  0  0  0  0  0  0  0  0  0
  148.8581  141.1380  154.3373 C   0  0  0  0  0  0  0  0  0  0  0  0
  149.8466  143.4266  160.0206 H   0  0  0  0  0  0  0  0  0  0  0  0
  149.5171  144.7441  158.9011 H   0  0  0  0  0  0  0  0  0  0  0  0
  149.5042  145.0406  160.6250 H   0  0  0  0  0  0  0  0  0  0  0  0
  151.5683  145.9018  159.5444 H   0  0  0  0  0  0  0  0  0  0  0  0
  153.1406  145.1912  161.1810 H   0  0  0  0  0  0  0  0  0  0  0  0
  151.5749  145.2193  161.9426 H   0  0  0  0  0  0  0  0  0  0  0  0
  152.8715  143.1763  162.5599 H   0  0  0  0  0  0  0  0  0  0  0  0
  151.3893  142.7520  161.7445 H   0  0  0  0  0  0  0  0  0  0  0  0
  154.1810  142.8457  160.5046 H   0  0  0  0  0  0  0  0  0  0  0  0
  153.2399  141.4095  160.8229 H   0  0  0  0  0  0  0  0  0  0  0  0
  153.1446  142.0661  158.4206 H   0  0  0  0  0  0  0  0  0  0  0  0
  151.5587  142.0638  159.1426 H   0  0  0  0  0  0  0  0  0  0  0  0
  153.3295  144.4991  158.7094 H   0  0  0  0  0  0  0  0  0  0  0  0
  151.4306  145.1814  157.1152 H   0  0  0  0  0  0  0  0  0  0  0  0
  152.5421  143.9518  156.5636 H   0  0  0  0  0  0  0  0  0  0  0  0
  150.1616  143.1146  157.9869 H   0  0  0  0  0  0  0  0  0  0  0  0
  151.2603  142.0433  155.5115 H   0  0  0  0  0  0  0  0  0  0  0  0
  151.8718  141.5544  157.0824 H   0  0  0  0  0  0  0  0  0  0  0  0
  149.4373  140.9569  157.7105 H   0  0  0  0  0  0  0  0  0  0  0  0
  151.2460  139.6110  156.6884 H   0  0  0  0  0  0  0  0  0  0  0  0
  147.2912  141.8593  157.2850 H   0  0  0  0  0  0  0  0  0  0  0  0
  145.4854  142.4106  155.6465 H   0  0  0  0  0  0  0  0  0  0  0  0
  147.8670  141.3885  152.4278 H   0  0  0  0  0  0  0  0  0  0  0  0
  149.7873  140.7876  153.9123 H   0  0  0  0  0  0  0  0  0  0  0  0
  149.9692  143.6914  156.4630 H   0  0  0  0  0  0  0  0  0  0  0  0
  1  2  1  0  0  0  0
  1 19  1  0  0  0  0
  1 20  1  0  0  0  0
  1 21  1  0  0  0  0
  2  7  1  0  0  0  0
  2  3  1  0  0  0  0
  2 22  1  0  0  0  0
  3  4  1  0  0  0  0
  3 23  1  0  0  0  0
  3 24  1  0  0  0  0
  4  5  1  0  0  0  0
  4 25  1  0  0  0  0
  4 26  1  0  0  0  0
  5  6  1  0  0  0  0
  5 27  1  0  0  0  0
  5 28  1  0  0  0  0
  6  7  1  0  0  0  0
  6 29  1  0  0  0  0
  6 30  1  0  0  0  0
  7  8  1  0  0  0  0
  7 31  1  0  0  0  0
  8  9  1  0  0  0  0
  8 32  1  0  0  0  0
  8 33  1  0  0  0  0
  9 10  1  0  0  0  0
  9 34  1  0  0  0  0
  9 43  1  0  0  0  0
 10 11  1  0  0  0  0
 10 35  1  0  0  0  0
 10 36  1  0  0  0  0
 11 12  1  0  0  0  0
 11 13  1  0  0  0  0
 11 37  1  0  0  0  0
 12 38  1  0  0  0  0
 13 18  1  0  0  0  0
 13 14  2  0  0  0  0
 14 15  1  0  0  0  0
 14 39  1  0  0  0  0
 15 16  2  0  0  0  0
 15 40  1  0  0  0  0
 16 17  1  0  0  0  0
 17 18  2  0  0  0  0
 17 41  1  0  0  0  0
 18 42  1  0  0  0  0
M  CHG  1   9   1
M  END
> <s_m_source_file>
AV-unprocessed.smi

> <i_m_source_file_index>
3290

> <i_lp_mmshare_version>
43012

> <i_f3d_flags>
0

> <s_epik_input>
W0NIM11bQ0BASF0xW0NIMl1bQ0gyXVtDSDJdW0NIMl1bQ0BIXTFbQ0gyXVtOSF1bQ0gyXVtDQEhdKFtPSF0pYzJbY0hdW2NIXW5bY0hdW2NIXTI=

> <s_epik_cmdline>
J2VwaWtfcHl0aG9uJywgJy1waCcsICc3LjAnLCAnLXRuJywgJzgnLCAnLW1hJywgJzIwMCcsICctbWV0YWxfYmluZGluZycsICctaW1hZScsICc8aW5maWxlLm1hZT4nLCAnLW9tYWUnLCAnPG91dGZpbGUubWFlPic=

> <r_lp_tautomer_probability>
1

> <r_epik_Ionization_Penalty>
0.00420552

> <r_epik_Ionization_Penalty_Charging>
0.00207255

> <r_epik_Ionization_Penalty_Neutral>
0.00213297

> <r_epik_State_Penalty>
-0

> <r_epik_Charging_Adjusted_Penalty>
0.00207255

> <i_epik_Tot_Q>
1

> <i_epik_Tot_abs_Q>
1

> <r_epik_Metal_State_Penalty>
-0

> <b_epik_Metal_Only>
0

> <s_lp_Force_Field>
OPLS_2005

> <r_lp_Energy>
18.26

> <b_lp_Chiralities_Consistent>
1

> <s_lp_Variant>
AV-unprocessed.smi:3290-2

> <Gold.Version>
5.8.1

> <Gold.Id.Protein>
6NUR|6NUR_protein|mol2

> <Gold.PLP.Fitness>
52.1810

> <Gold.PLP.PLP>
-44.2942

> <Gold.PLP.part.hbond>
-1.0000

> <Gold.PLP.part.metal>
0.0000

> <Gold.PLP.part.buried>
-6.6333

> <Gold.PLP.part.nonpolar>
-37.2248

> <Gold.PLP.part.repulsive>
0.1964

> <Gold.PLP.ligand.clash>
0.0000

> <Gold.PLP.ligand.torsion>
0.5755

> <Gold.PLP.Chemscore.Hbond>
2.0000

> <Gold.PLP.Chemscore.CHOScore>
1.0000

> <Gold.PLP.Chemscore.Metal>
0.0000

> <Gold.Chemscore.Hbonds>
donor molecule, donor type, donor heavy atom, donor atom, acceptor molecule, acceptor atom, score
      L1  H     9    43       P1  8028  2.00
      L1  C    17    41       P1  7957  0.96

> <Gold.PLP.Chemscore.Internal.Correction>
0.0379

> <Gold.Rescore>
     Score         DG    S(hbond)    S(metal)    S(lipo)     H(rot)  DE(clash)    DE(int)     intcor
     18.20     -19.23       1.00        0.00     133.80       2.05       0.46       0.57       ----

> <Gold.Chemscore.Fitness>
18.2026

> <Gold.Chemscore.DG>
-19.2252

> <Gold.Chemscore.ZeroCoef>
-5.4800

> <Gold.Chemscore.Hbond>
0.9994

> <Gold.Chemscore.Metal>
0.0000

> <Gold.Chemscore.Lipo>
133.7996

> <Gold.Chemscore.Internal_Hbond>
0.0000

> <Gold.Chemscore.DEClash>
0.4569

> <Gold.Chemscore.DEInternal>
0.5657

> <Gold.Chemscore.Rot>
2.0498

> <Gold.Chemscore.Internal.Correction>
   9.000000E+99

> <Gold.Chemscore.Hbonds>
donor molecule, donor type, donor heavy atom, donor atom, acceptor molecule, acceptor atom, score
      L1  H     9    43       P1  8028  1.00

> <Gold.Chemscore.Hbond.Weighted>
-3.3381

> <Gold.Chemscore.Metal.Weighted>
-0.0000

> <Gold.Chemscore.Lipo.Weighted>
-15.6546

> <Gold.Chemscore.Internal_Hbond.Weighted>
0.0000

> <Gold.Chemscore.DEClash.Weighted>
0.4569

> <Gold.Chemscore.DEInternal.Weighted>
0.5657

> <Gold.Chemscore.Rot.Weighted>
5.2475

> <Gold.Chemscore.Internal.Correction.Weighted>
   9.000000E+99

> <Gold.Protein.RotatedTorsions>
[ 6907 6896 6895 6894 ] final   57.40 input  -60.11 | X-H torsion
[ 7974 7965 7964 7962 ] final  -56.92 input  175.53 | X-H torsion
[ 8008 7997 7996 7995 ] final   71.81 input   59.86 | X-H torsion
[ 10167 10162 10161 10158 ] final  148.10 input  -65.29 | X-H torsion
[ 10718 10713 10712 10709 ] final  -34.32 input   66.30 | X-H torsion
[ 10763 10752 10751 10750 ] final  -93.62 input  -60.55 | X-H torsion
[ 11005 11000 10999 10996 ] final   90.14 input  -57.11 | X-H torsion

> <Gold.Protein.ActiveResidues>
 VAL166  LYS551  ARG553  GLY616  TRP617  ASP618  TYR619  PRO620  LYS621  CYS622 
 ASP623  PHE694  ASN695  SER759  ASP760  ASP761  ALA762  ILE779  LEU786  VAL792 
 PHE793  MET794  SER795  GLU796  ALA797  LYS798  CYS799  TRP800  GLU811  SER814 

> <Gold.Protein.RotatedAtoms>
  152.3728  134.6709  160.0169 H   0  0  0  0  0  0  0  0  0  0  0  0  # atno 6907 bound_to 6896
  151.6996  133.3305  159.3271 H   0  0  0  0  0  0  0  0  0  0  0  0  # atno 6908 bound_to 6896
  150.7686  134.6562  159.6359 H   0  0  0  0  0  0  0  0  0  0  0  0  # atno 6909 bound_to 6896
  145.8571  140.8312  142.9956 H   0  0  0  0  0  0  0  0  0  0  0  0  # atno 7974 bound_to 7965
  155.7595  140.3487  155.5190 H   0  0  0  0  0  0  0  0  0  0  0  0  # atno 8008 bound_to 7997
  155.8928  140.1020  157.1427 H   0  0  0  0  0  0  0  0  0  0  0  0  # atno 8009 bound_to 7997
  154.4035  140.1301  156.4324 H   0  0  0  0  0  0  0  0  0  0  0  0  # atno 8010 bound_to 7997
  139.4880  144.5705  151.7063 H   0  0  0  0  0  0  0  0  0  0  0  0  # atno 10167 bound_to 10162
  156.3520  130.4310  149.7696 H   0  0  0  0  0  0  0  0  0  0  0  0  # atno 10718 bound_to 10713
  154.6977  135.5187  153.8481 H   0  0  0  0  0  0  0  0  0  0  0  0  # atno 10763 bound_to 10752
  153.0679  135.6591  154.0321 H   0  0  0  0  0  0  0  0  0  0  0  0  # atno 10764 bound_to 10752
  154.0185  135.2995  155.3363 H   0  0  0  0  0  0  0  0  0  0  0  0  # atno 10765 bound_to 10752
  139.8861  134.8595  156.3243 H   0  0  0  0  0  0  0  0  0  0  0  0  # atno 11005 bound_to 11000
  144.6727  140.1039  143.7459 LP  0  0  0  0  0  0  0  0  0  0  0  0  # atno 17320 bound_to 7965
  145.9291  139.2595  143.1335 LP  0  0  0  0  0  0  0  0  0  0  0  0  # atno 17321 bound_to 7965
  140.5292  144.0757  150.6048 LP  0  0  0  0  0  0  0  0  0  0  0  0  # atno 17342 bound_to 10162
  140.3742  143.2838  152.0244 LP  0  0  0  0  0  0  0  0  0  0  0  0  # atno 17343 bound_to 10162
  156.4893  130.8077  151.3088 LP  0  0  0  0  0  0  0  0  0  0  0  0  # atno 17370 bound_to 10713
  157.7462  130.9980  150.2838 LP  0  0  0  0  0  0  0  0  0  0  0  0  # atno 17371 bound_to 10713
  140.9766  133.7294  156.0611 LP  0  0  0  0  0  0  0  0  0  0  0  0  # atno 17394 bound_to 11000
  140.7803  134.3733  157.5489 LP  0  0  0  0  0  0  0  0  0  0  0  0  # atno 17395 bound_to 11000

$$$$
