AV-unprocessed.smi:3276|AV-procd|sdf|12535|dock9
  -GOLD-   2272018453D 1   1.00000     0.00000
 Structure written by MMmdl.
 39 40  0  0  0  0  0  0  0  0  1 V2000
  154.7478  140.8126  160.6264 C   0  0  0  0  0  0  0  0  0  0  0  0
  153.4404  141.1774  159.9563 C   0  0  0  0  0  0  0  0  0  0  0  0
  152.6549  142.2595  160.4068 C   0  0  0  0  0  0  0  0  0  0  0  0
  151.4869  142.5820  159.8106 N   0  0  0  0  0  0  0  0  0  0  0  0
  151.1052  141.8174  158.7613 C   0  0  0  0  0  0  0  0  0  0  0  0
  149.7866  142.1898  158.1074 C   0  0  0  0  0  0  0  0  0  0  0  0
  151.8891  140.7271  158.3046 C   0  0  0  0  0  0  0  0  0  0  0  0
  151.4607  139.9566  157.2120 N   0  0  0  0  0  0  0  0  0  0  0  0
  152.3816  139.0665  156.5146 C   0  0  0  0  0  0  0  0  0  0  0  0
  152.0764  138.9717  155.0127 C   0  0  0  0  0  0  0  0  0  0  0  0
  150.9991  139.8417  154.7111 O   0  0  0  0  0  0  0  0  0  0  0  0
  149.8032  139.1505  154.3894 C   0  0  0  0  0  0  0  0  0  0  0  0
  148.8930  140.0581  153.5504 C   0  0  1  0  0  0  0  0  0  0  0  0
  147.4103  139.6742  153.5532 C   0  0  0  0  0  0  0  0  0  0  0  0
  146.7466  141.0155  153.3378 C   0  0  0  0  0  0  0  0  0  0  0  0
  147.6484  141.9356  154.1538 C   0  0  0  0  0  0  0  0  0  0  0  0
  148.9624  141.4083  154.0039 O   0  0  0  0  0  0  0  0  0  0  0  0
  153.0615  140.4130  158.9086 N   0  0  0  0  0  0  0  0  0  0  0  0
  155.0524  141.5811  161.3373 H   0  0  0  0  0  0  0  0  0  0  0  0
  155.5396  140.7032  159.8846 H   0  0  0  0  0  0  0  0  0  0  0  0
  154.6462  139.8697  161.1642 H   0  0  0  0  0  0  0  0  0  0  0  0
  152.9610  142.8676  161.2453 H   0  0  0  0  0  0  0  0  0  0  0  0
  149.0893  141.3530  158.1583 H   0  0  0  0  0  0  0  0  0  0  0  0
  149.9423  142.4469  157.0593 H   0  0  0  0  0  0  0  0  0  0  0  0
  149.3234  143.0458  158.6000 H   0  0  0  0  0  0  0  0  0  0  0  0
  150.4731  139.7666  157.1218 H   0  0  0  0  0  0  0  0  0  0  0  0
  153.3959  139.4386  156.6601 H   0  0  0  0  0  0  0  0  0  0  0  0
  152.3535  138.0757  156.9694 H   0  0  0  0  0  0  0  0  0  0  0  0
  152.9557  139.2717  154.4411 H   0  0  0  0  0  0  0  0  0  0  0  0
  151.8376  137.9462  154.7266 H   0  0  0  0  0  0  0  0  0  0  0  0
  150.0325  138.2364  153.8397 H   0  0  0  0  0  0  0  0  0  0  0  0
  149.2849  138.8613  155.3048 H   0  0  0  0  0  0  0  0  0  0  0  0
  149.2491  140.0607  152.5193 H   0  0  0  0  0  0  0  0  0  0  0  0
  147.1591  138.9433  152.7842 H   0  0  0  0  0  0  0  0  0  0  0  0
  147.1071  139.2677  154.5189 H   0  0  0  0  0  0  0  0  0  0  0  0
  146.7833  141.2895  152.2825 H   0  0  0  0  0  0  0  0  0  0  0  0
  145.7065  141.0378  153.6644 H   0  0  0  0  0  0  0  0  0  0  0  0
  147.5943  142.9750  153.8292 H   0  0  0  0  0  0  0  0  0  0  0  0
  147.3756  141.8939  155.2091 H   0  0  0  0  0  0  0  0  0  0  0  0
  1  2  1  0  0  0  0
  1 19  1  0  0  0  0
  1 20  1  0  0  0  0
  1 21  1  0  0  0  0
  2 18  1  0  0  0  0
  2  3  2  0  0  0  0
  3  4  1  0  0  0  0
  3 22  1  0  0  0  0
  4  5  2  0  0  0  0
  5  6  1  0  0  0  0
  5  7  1  0  0  0  0
  6 23  1  0  0  0  0
  6 24  1  0  0  0  0
  6 25  1  0  0  0  0
  7  8  1  0  0  0  0
  7 18  2  0  0  0  0
  8  9  1  0  0  0  0
  8 26  1  0  0  0  0
  9 10  1  0  0  0  0
  9 27  1  0  0  0  0
  9 28  1  0  0  0  0
 10 11  1  0  0  0  0
 10 29  1  0  0  0  0
 10 30  1  0  0  0  0
 11 12  1  0  0  0  0
 12 13  1  0  0  0  0
 12 31  1  0  0  0  0
 12 32  1  0  0  0  0
 13 17  1  0  0  0  0
 13 14  1  0  0  0  0
 13 33  1  0  0  0  0
 14 15  1  0  0  0  0
 14 34  1  0  0  0  0
 14 35  1  0  0  0  0
 15 16  1  0  0  0  0
 15 36  1  0  0  0  0
 15 37  1  0  0  0  0
 16 17  1  0  0  0  0
 16 38  1  0  0  0  0
 16 39  1  0  0  0  0
M  END
> <s_m_source_file>
AV-unprocessed.smi

> <i_m_source_file_index>
3276

> <i_lp_mmshare_version>
43012

> <i_f3d_flags>
0

> <s_epik_input>
W0NIM11jMVtjSF1uYyhbQ0gzXSljKG4xKVtOSF1bQ0gyXVtDSDJdT1tDSDJdW0NAQEhdMltDSDJdW0NIMl1bQ0gyXU8y

> <s_epik_cmdline>
J2VwaWtfcHl0aG9uJywgJy1waCcsICc3LjAnLCAnLXRuJywgJzgnLCAnLW1hJywgJzIwMCcsICctbWV0YWxfYmluZGluZycsICctaW1hZScsICc8aW5maWxlLm1hZT4nLCAnLW9tYWUnLCAnPG91dGZpbGUubWFlPic=

> <r_lp_tautomer_probability>
1

> <r_epik_Ionization_Penalty>
0.000506

> <r_epik_Ionization_Penalty_Charging>
0

> <r_epik_Ionization_Penalty_Neutral>
0.000506

> <r_epik_State_Penalty>
-0

> <r_epik_Charging_Adjusted_Penalty>
0

> <i_epik_Tot_Q>
0

> <i_epik_Tot_abs_Q>
0

> <r_epik_Metal_State_Penalty>
-0

> <b_epik_Metal_Only>
0

> <s_lp_Force_Field>
OPLS_2005

> <r_lp_Energy>
26.2022

> <b_lp_Chiralities_Consistent>
1

> <s_lp_Variant>
AV-unprocessed.smi:3276-2

> <Gold.Version>
5.8.1

> <Gold.Id.Protein>
6NUR|6NUR_protein|mol2

> <Gold.PLP.Fitness>
37.1983

> <Gold.PLP.PLP>
-34.5811

> <Gold.PLP.part.hbond>
-2.6481

> <Gold.PLP.part.metal>
0.0000

> <Gold.PLP.part.buried>
-0.9598

> <Gold.PLP.part.nonpolar>
-31.3347

> <Gold.PLP.part.repulsive>
0.3279

> <Gold.PLP.ligand.clash>
0.0000

> <Gold.PLP.ligand.torsion>
1.2906

> <Gold.PLP.Chemscore.Hbond>
1.7137

> <Gold.PLP.Chemscore.CHOScore>
0.0000

> <Gold.PLP.Chemscore.Metal>
0.0000

> <Gold.Chemscore.Hbonds>
donor molecule, donor type, donor heavy atom, donor atom, acceptor molecule, acceptor atom, score
      P1  H  7989  7998       L1    11  1.00
      P1  H  8011  8017       L1    17  0.56

> <Gold.PLP.Chemscore.Internal.Correction>
0.0573

> <Gold.Rescore>
     Score         DG    S(hbond)    S(metal)    S(lipo)     H(rot)  DE(clash)    DE(int)     intcor
     12.83     -15.82       0.91        0.00      99.15       1.68       1.76       1.24       ----

> <Gold.Chemscore.Fitness>
12.8288

> <Gold.Chemscore.DG>
-15.8232

> <Gold.Chemscore.ZeroCoef>
-5.4800

> <Gold.Chemscore.Hbond>
0.9126

> <Gold.Chemscore.Metal>
0.0000

> <Gold.Chemscore.Lipo>
99.1544

> <Gold.Chemscore.Internal_Hbond>
0.0000

> <Gold.Chemscore.DEClash>
1.7573

> <Gold.Chemscore.DEInternal>
1.2371

> <Gold.Chemscore.Rot>
1.6820

> <Gold.Chemscore.Internal.Correction>
   9.000000E+99

> <Gold.Chemscore.Hbonds>
donor molecule, donor type, donor heavy atom, donor atom, acceptor molecule, acceptor atom, score
      P1  H  7989  7998       L1    11  0.42
      P1  H  8011  8017       L1    17  0.11

> <Gold.Chemscore.Hbond.Weighted>
-3.0479

> <Gold.Chemscore.Metal.Weighted>
-0.0000

> <Gold.Chemscore.Lipo.Weighted>
-11.6011

> <Gold.Chemscore.Internal_Hbond.Weighted>
0.0000

> <Gold.Chemscore.DEClash.Weighted>
1.7573

> <Gold.Chemscore.DEInternal.Weighted>
1.2371

> <Gold.Chemscore.Rot.Weighted>
4.3058

> <Gold.Chemscore.Internal.Correction.Weighted>
   9.000000E+99

> <Gold.Protein.RotatedTorsions>
[ 6907 6896 6895 6894 ] final  142.79 input  -60.11 | X-H torsion
[ 7974 7965 7964 7962 ] final  152.87 input  175.53 | X-H torsion
[ 8008 7997 7996 7995 ] final   72.72 input   59.86 | X-H torsion
[ 10167 10162 10161 10158 ] final   47.97 input  -65.29 | X-H torsion
[ 10718 10713 10712 10709 ] final -119.69 input   66.30 | X-H torsion
[ 10763 10752 10751 10750 ] final    4.20 input  -60.55 | X-H torsion
[ 11005 11000 10999 10996 ] final   61.65 input  -57.11 | X-H torsion

> <Gold.Protein.ActiveResidues>
 VAL166  LYS551  ARG553  GLY616  TRP617  ASP618  TYR619  PRO620  LYS621  CYS622 
 ASP623  PHE694  ASN695  SER759  ASP760  ASP761  ALA762  ILE779  LEU786  VAL792 
 PHE793  MET794  SER795  GLU796  ALA797  LYS798  CYS799  TRP800  GLU811  SER814 

> <Gold.Protein.RotatedAtoms>
  152.2144  133.4935  159.5127 H   0  0  0  0  0  0  0  0  0  0  0  0  # atno 6907 bound_to 6896
  150.6997  134.1425  159.4119 H   0  0  0  0  0  0  0  0  0  0  0  0  # atno 6908 bound_to 6896
  151.9345  135.0241  160.0582 H   0  0  0  0  0  0  0  0  0  0  0  0  # atno 6909 bound_to 6896
  144.8193  139.6725  143.6107 H   0  0  0  0  0  0  0  0  0  0  0  0  # atno 7974 bound_to 7965
  155.7730  140.3484  155.5257 H   0  0  0  0  0  0  0  0  0  0  0  0  # atno 8008 bound_to 7997
  155.8803  140.1001  157.1510 H   0  0  0  0  0  0  0  0  0  0  0  0  # atno 8009 bound_to 7997
  154.4024  140.1323  156.4176 H   0  0  0  0  0  0  0  0  0  0  0  0  # atno 8010 bound_to 7997
  140.2981  144.2966  150.6225 H   0  0  0  0  0  0  0  0  0  0  0  0  # atno 10167 bound_to 10162
  156.1201  130.6316  150.9448 H   0  0  0  0  0  0  0  0  0  0  0  0  # atno 10718 bound_to 10713
  153.2741  135.6935  153.7451 H   0  0  0  0  0  0  0  0  0  0  0  0  # atno 10763 bound_to 10752
  153.6463  135.3384  155.3087 H   0  0  0  0  0  0  0  0  0  0  0  0  # atno 10764 bound_to 10752
  154.8473  135.4444  154.1773 H   0  0  0  0  0  0  0  0  0  0  0  0  # atno 10765 bound_to 10752
  140.0146  134.6244  155.9728 H   0  0  0  0  0  0  0  0  0  0  0  0  # atno 11005 bound_to 11000
  146.2498  139.6175  142.9435 LP  0  0  0  0  0  0  0  0  0  0  0  0  # atno 17320 bound_to 7965
  145.5142  141.0434  143.2471 LP  0  0  0  0  0  0  0  0  0  0  0  0  # atno 17321 bound_to 7965
  140.5674  143.2184  151.7659 LP  0  0  0  0  0  0  0  0  0  0  0  0  # atno 17342 bound_to 10162
  139.4921  144.4264  151.9921 LP  0  0  0  0  0  0  0  0  0  0  0  0  # atno 17343 bound_to 10162
  157.6384  131.0913  150.8301 LP  0  0  0  0  0  0  0  0  0  0  0  0  # atno 17370 bound_to 10713
  156.8399  130.5044  149.5322 LP  0  0  0  0  0  0  0  0  0  0  0  0  # atno 17371 bound_to 10713
  141.1734  133.6538  156.4737 LP  0  0  0  0  0  0  0  0  0  0  0  0  # atno 17394 bound_to 11000
  140.4493  134.6943  157.5031 LP  0  0  0  0  0  0  0  0  0  0  0  0  # atno 17395 bound_to 11000

$$$$
