AV-unprocessed.smi:2764|AV-procd|sdf|10643|dock5
  -GOLD-   2272015 93D 1   1.00000     0.00000
 Structure written by MMmdl.
 47 49  0  0  0  0  0  0  0  0  2 V2000
  149.6127  140.3558  156.3419 O   0  0  0  0  0  0  0  0  0  0  0  0
  149.4802  141.5638  156.1448 C   0  0  0  0  0  0  0  0  0  0  0  0
  150.0961  142.5384  156.8371 N   0  0  0  0  0  0  0  0  0  0  0  0
  151.0199  142.4051  157.9079 C   0  0  0  0  0  0  0  0  0  0  0  0
  151.5003  143.6241  158.4386 C   0  0  0  0  0  0  0  0  0  0  0  0
  152.4216  143.6011  159.5039 C   0  0  0  0  0  0  0  0  0  0  0  0
  152.8380  142.3570  160.0102 C   0  0  0  0  0  0  0  0  0  0  0  0
  153.7212  142.2846  161.0339 F   0  0  0  0  0  0  0  0  0  0  0  0
  152.3128  141.1898  159.4256 C   0  0  0  0  0  0  0  0  0  0  0  0
  151.4300  141.2107  158.4041 N   0  0  0  0  0  0  0  0  0  0  0  0
  148.6871  142.0724  155.1899 N   0  0  0  0  0  0  0  0  0  0  0  0
  147.8654  141.2888  154.2674 C   0  0  2  0  0  0  0  0  0  0  0  0
  147.0825  142.1842  153.2874 C   0  0  0  0  0  0  0  0  0  0  0  0
  145.9593  142.9652  153.9915 C   0  0  0  0  0  0  0  0  0  0  0  0
  145.0319  142.0520  154.7104 N   0  3  2  0  0  0  0  0  0  0  0  0
  143.8640  142.7749  155.2808 C   0  0  0  0  0  0  0  0  0  0  0  0
  144.1830  144.2358  155.6633 C   0  0  1  0  0  0  0  0  0  0  0  0
  144.0701  145.2597  154.5361 C   0  0  0  0  0  0  0  0  0  0  0  0
  143.4654  146.5029  155.1969 C   0  0  0  0  0  0  0  0  0  0  0  0
  143.4087  146.2023  156.5829 O   0  0  0  0  0  0  0  0  0  0  0  0
  143.2168  144.8046  156.7013 C   0  0  0  0  0  0  0  0  0  0  0  0
  145.7569  141.2187  155.7065 C   0  0  0  0  0  0  0  0  0  0  0  0
  146.8810  140.3996  155.0453 C   0  0  0  0  0  0  0  0  0  0  0  0
  149.8828  143.4867  156.5659 H   0  0  0  0  0  0  0  0  0  0  0  0
  151.1684  144.5709  158.0375 H   0  0  0  0  0  0  0  0  0  0  0  0
  152.8004  144.5211  159.9239 H   0  0  0  0  0  0  0  0  0  0  0  0
  152.6070  140.2151  159.7860 H   0  0  0  0  0  0  0  0  0  0  0  0
  148.6343  143.0770  155.1060 H   0  0  0  0  0  0  0  0  0  0  0  0
  148.5312  140.6387  153.6965 H   0  0  0  0  0  0  0  0  0  0  0  0
  147.7530  142.8747  152.7746 H   0  0  0  0  0  0  0  0  0  0  0  0
  146.6446  141.5597  152.5075 H   0  0  0  0  0  0  0  0  0  0  0  0
  146.3799  143.6876  154.6929 H   0  0  0  0  0  0  0  0  0  0  0  0
  145.4089  143.5362  153.2426 H   0  0  0  0  0  0  0  0  0  0  0  0
  143.0028  142.7112  154.6141 H   0  0  0  0  0  0  0  0  0  0  0  0
  143.5627  142.2673  156.1984 H   0  0  0  0  0  0  0  0  0  0  0  0
  145.1863  144.2914  156.0892 H   0  0  0  0  0  0  0  0  0  0  0  0
  145.0467  145.4752  154.1021 H   0  0  0  0  0  0  0  0  0  0  0  0
  143.4155  144.9135  153.7355 H   0  0  0  0  0  0  0  0  0  0  0  0
  144.0562  147.4017  155.0184 H   0  0  0  0  0  0  0  0  0  0  0  0
  142.4555  146.6809  154.8253 H   0  0  0  0  0  0  0  0  0  0  0  0
  142.1812  144.5552  156.4631 H   0  0  0  0  0  0  0  0  0  0  0  0
  143.4322  144.4561  157.7117 H   0  0  0  0  0  0  0  0  0  0  0  0
  146.1653  141.8588  156.4899 H   0  0  0  0  0  0  0  0  0  0  0  0
  145.0724  140.5281  156.1935 H   0  0  0  0  0  0  0  0  0  0  0  0
  146.4365  139.6759  154.3607 H   0  0  0  0  0  0  0  0  0  0  0  0
  147.4123  139.8154  155.7978 H   0  0  0  0  0  0  0  0  0  0  0  0
  144.6638  141.4242  154.0100 H   0  0  0  0  0  0  0  0  0  0  0  0
  1  2  2  0  0  0  0
  2  3  1  0  0  0  0
  2 11  1  0  0  0  0
  3  4  1  0  0  0  0
  3 24  1  0  0  0  0
  4 10  1  0  0  0  0
  4  5  2  0  0  0  0
  5  6  1  0  0  0  0
  5 25  1  0  0  0  0
  6  7  2  0  0  0  0
  6 26  1  0  0  0  0
  7  8  1  0  0  0  0
  7  9  1  0  0  0  0
  9 10  2  0  0  0  0
  9 27  1  0  0  0  0
 11 12  1  0  0  0  0
 11 28  1  0  0  0  0
 12 23  1  0  0  0  0
 12 13  1  0  0  0  0
 12 29  1  0  0  0  0
 13 14  1  0  0  0  0
 13 30  1  0  0  0  0
 13 31  1  0  0  0  0
 14 15  1  0  0  0  0
 14 32  1  0  0  0  0
 14 33  1  0  0  0  0
 15 16  1  0  0  0  0
 15 22  1  0  0  0  0
 15 47  1  0  0  0  0
 16 17  1  0  0  0  0
 16 34  1  0  0  0  0
 16 35  1  0  0  0  0
 17 21  1  0  0  0  0
 17 18  1  0  0  0  0
 17 36  1  0  0  0  0
 18 19  1  0  0  0  0
 18 37  1  0  0  0  0
 18 38  1  0  0  0  0
 19 20  1  0  0  0  0
 19 39  1  0  0  0  0
 19 40  1  0  0  0  0
 20 21  1  0  0  0  0
 21 41  1  0  0  0  0
 21 42  1  0  0  0  0
 22 23  1  0  0  0  0
 22 43  1  0  0  0  0
 22 44  1  0  0  0  0
 23 45  1  0  0  0  0
 23 46  1  0  0  0  0
M  CHG  1  15   1
M  END
> <s_m_source_file>
AV-unprocessed.smi

> <i_m_source_file_index>
2764

> <i_lp_mmshare_version>
43012

> <i_f3d_flags>
0

> <s_epik_input>
bjFbY0hdYyhGKVtjSF1bY0hdYzFbTkhdQyg9TylbTkhdW0NIXTJbQ0gyXVtDSDJdTihbQ0gyXVtDSDJdMilbQ0gyXVtDQEBIXTNbQ0gyXVtDSDJdT1tDSDJdMw==

> <s_epik_cmdline>
J2VwaWtfcHl0aG9uJywgJy1waCcsICc3LjAnLCAnLXRuJywgJzgnLCAnLW1hJywgJzIwMCcsICctbWV0YWxfYmluZGluZycsICctaW1hZScsICc8aW5maWxlLm1hZT4nLCAnLW9tYWUnLCAnPG91dGZpbGUubWFlPic=

> <r_epik_Ionization_Penalty>
0.0075076

> <r_epik_Ionization_Penalty_Charging>
0.00747775

> <r_epik_Ionization_Penalty_Neutral>
2.98483e-05

> <r_epik_State_Penalty>
0.00558817

> <r_epik_Charging_Adjusted_Penalty>
0.0130659

> <i_epik_Tot_Q>
1

> <i_epik_Tot_abs_Q>
1

> <r_epik_Metal_State_Penalty>
-0

> <b_epik_Metal_Only>
0

> <s_lp_Force_Field>
OPLS_2005

> <r_lp_Energy>
38.1344

> <b_lp_Chiralities_Consistent>
1

> <s_lp_Variant>
AV-unprocessed.smi:2764-4

> <Gold.Version>
5.8.1

> <Gold.Id.Protein>
6NUR|6NUR_protein|mol2

> <Gold.PLP.Fitness>
52.0484

> <Gold.PLP.PLP>
-41.4223

> <Gold.PLP.part.hbond>
-3.0000

> <Gold.PLP.part.metal>
0.0000

> <Gold.PLP.part.buried>
-7.1995

> <Gold.PLP.part.nonpolar>
-31.1359

> <Gold.PLP.part.repulsive>
0.2454

> <Gold.PLP.ligand.clash>
0.0000

> <Gold.PLP.ligand.torsion>
0.6985

> <Gold.PLP.Chemscore.Hbond>
4.0000

> <Gold.PLP.Chemscore.CHOScore>
0.0000

> <Gold.PLP.Chemscore.Metal>
0.0000

> <Gold.Chemscore.Hbonds>
donor molecule, donor type, donor heavy atom, donor atom, acceptor molecule, acceptor atom, score
      L1  H     3    24       P1  8028  1.00
      L1  H    11    28       P1  8028  1.00
      L1  H    15    47       P1 10175  2.00

> <Gold.PLP.Chemscore.Internal.Correction>
0.0231

> <Gold.Rescore>
     Score         DG    S(hbond)    S(metal)    S(lipo)     H(rot)  DE(clash)    DE(int)     intcor
     17.37     -21.58       2.71        0.00      92.84       1.49       1.26       2.95       ----

> <Gold.Chemscore.Fitness>
17.3657

> <Gold.Chemscore.DG>
-21.5785

> <Gold.Chemscore.ZeroCoef>
-5.4800

> <Gold.Chemscore.Hbond>
2.7090

> <Gold.Chemscore.Metal>
0.0000

> <Gold.Chemscore.Lipo>
92.8430

> <Gold.Chemscore.Internal_Hbond>
0.0000

> <Gold.Chemscore.DEClash>
1.2649

> <Gold.Chemscore.DEInternal>
2.9479

> <Gold.Chemscore.Rot>
1.4891

> <Gold.Chemscore.Internal.Correction>
   9.000000E+99

> <Gold.Chemscore.Hbonds>
donor molecule, donor type, donor heavy atom, donor atom, acceptor molecule, acceptor atom, score
      L1  H     3    24       P1  8028  0.97
      L1  H    11    28       P1  8028  0.99
      L1  H    15    47       P1 10175  0.32

> <Gold.Chemscore.Hbond.Weighted>
-9.0479

> <Gold.Chemscore.Metal.Weighted>
-0.0000

> <Gold.Chemscore.Lipo.Weighted>
-10.8626

> <Gold.Chemscore.Internal_Hbond.Weighted>
0.0000

> <Gold.Chemscore.DEClash.Weighted>
1.2649

> <Gold.Chemscore.DEInternal.Weighted>
2.9479

> <Gold.Chemscore.Rot.Weighted>
3.8121

> <Gold.Chemscore.Internal.Correction.Weighted>
   9.000000E+99

> <Gold.Protein.RotatedTorsions>
[ 6907 6896 6895 6894 ] final   -2.54 input  -60.11 | X-H torsion
[ 7974 7965 7964 7962 ] final  -76.59 input  175.53 | X-H torsion
[ 8008 7997 7996 7995 ] final -163.38 input   59.86 | X-H torsion
[ 10167 10162 10161 10158 ] final   90.59 input  -65.29 | X-H torsion
[ 10718 10713 10712 10709 ] final -166.04 input   66.30 | X-H torsion
[ 10763 10752 10751 10750 ] final  105.99 input  -60.55 | X-H torsion
[ 11005 11000 10999 10996 ] final  129.74 input  -57.11 | X-H torsion

> <Gold.Protein.ActiveResidues>
 VAL166  LYS551  ARG553  GLY616  TRP617  ASP618  TYR619  PRO620  LYS621  CYS622 
 ASP623  PHE694  ASN695  SER759  ASP760  ASP761  ALA762  ILE779  LEU786  VAL792 
 PHE793  MET794  SER795  GLU796  ALA797  LYS798  CYS799  TRP800  GLU811  SER814 

> <Gold.Protein.RotatedAtoms>
  151.5283  135.1068  159.9895 H   0  0  0  0  0  0  0  0  0  0  0  0  # atno 6907 bound_to 6896
  152.4590  133.7778  159.6844 H   0  0  0  0  0  0  0  0  0  0  0  0  # atno 6908 bound_to 6896
  150.8544  133.7672  159.3039 H   0  0  0  0  0  0  0  0  0  0  0  0  # atno 6909 bound_to 6896
  145.6109  140.9387  143.1190 H   0  0  0  0  0  0  0  0  0  0  0  0  # atno 7974 bound_to 7965
  155.8205  140.0919  157.1852 H   0  0  0  0  0  0  0  0  0  0  0  0  # atno 8008 bound_to 7997
  154.3979  140.1437  156.3554 H   0  0  0  0  0  0  0  0  0  0  0  0  # atno 8009 bound_to 7997
  155.8271  140.3444  155.5552 H   0  0  0  0  0  0  0  0  0  0  0  0  # atno 8010 bound_to 7997
  139.8458  144.6618  150.9228 H   0  0  0  0  0  0  0  0  0  0  0  0  # atno 10167 bound_to 10162
  156.6621  130.9050  151.3030 H   0  0  0  0  0  0  0  0  0  0  0  0  # atno 10718 bound_to 10713
  153.3869  135.3891  155.1896 H   0  0  0  0  0  0  0  0  0  0  0  0  # atno 10763 bound_to 10752
  154.8714  135.3739  154.4786 H   0  0  0  0  0  0  0  0  0  0  0  0  # atno 10764 bound_to 10752
  153.5269  135.7086  153.5764 H   0  0  0  0  0  0  0  0  0  0  0  0  # atno 10765 bound_to 10752
  139.9632  134.9597  156.9192 H   0  0  0  0  0  0  0  0  0  0  0  0  # atno 11005 bound_to 11000
  144.7270  139.7843  143.7361 LP  0  0  0  0  0  0  0  0  0  0  0  0  # atno 17320 bound_to 7965
  146.1505  139.4587  143.0051 LP  0  0  0  0  0  0  0  0  0  0  0  0  # atno 17321 bound_to 7965
  140.7793  143.3871  151.1374 LP  0  0  0  0  0  0  0  0  0  0  0  0  # atno 17342 bound_to 10162
  139.7514  143.8773  152.3077 LP  0  0  0  0  0  0  0  0  0  0  0  0  # atno 17343 bound_to 10162
  157.7106  130.9436  150.1077 LP  0  0  0  0  0  0  0  0  0  0  0  0  # atno 17370 bound_to 10713
  156.2003  130.3660  149.8796 LP  0  0  0  0  0  0  0  0  0  0  0  0  # atno 17371 bound_to 10713
  140.5454  134.0679  155.7353 LP  0  0  0  0  0  0  0  0  0  0  0  0  # atno 17394 bound_to 11000
  141.1311  133.9301  157.2534 LP  0  0  0  0  0  0  0  0  0  0  0  0  # atno 17395 bound_to 11000

$$$$
