AV-unprocessed.smi:2149|AV-procd|sdf|8754|dock2
  -GOLD-   2272011533D 1   1.00000     0.00000
 Structure written by MMmdl.
 43 44  0  0  0  0  0  0  0  0  2 V2000
  146.7683  135.3027  158.3251 C   0  0  0  0  0  0  0  0  0  0  0  0
  148.5900  135.4298  158.1061 S   0  0  0  0  0  0  0  0  0  0  0  0
  149.0936  136.4478  159.0405 O   0  0  0  0  0  0  0  0  0  0  0  0
  149.1506  134.0697  158.1361 O   0  0  0  0  0  0  0  0  0  0  0  0
  148.7829  136.0501  156.4917 N   0  0  0  0  0  0  0  0  0  0  0  0
  149.3709  135.2019  155.4342 C   0  0  0  0  0  0  0  0  0  0  0  0
  150.8378  135.5762  155.1506 C   0  0  0  0  0  0  0  0  0  0  0  0
  150.9900  137.0756  154.8626 C   0  0  0  0  0  0  0  0  0  0  0  0
  150.4200  137.8820  156.0414 C   0  0  1  0  0  0  0  0  0  0  0  0
  150.5470  139.3938  155.8193 C   0  0  0  0  0  0  0  0  0  0  0  0
  151.1935  139.8349  154.8691 O   0  0  0  0  0  0  0  0  0  0  0  0
  149.8829  140.1759  156.6836 N   0  0  0  0  0  0  0  0  0  0  0  0
  149.7322  141.6233  156.5686 C   0  0  0  0  0  0  0  0  0  0  0  0
  151.0848  142.3628  156.4730 C   0  0  0  0  0  0  0  0  0  0  0  0
  151.4120  143.2012  157.6985 C   0  0  0  0  0  0  0  0  0  0  0  0
  152.3922  142.8069  158.6356 C   0  0  0  0  0  0  0  0  0  0  0  0
  152.6776  143.6467  159.7320 C   0  0  0  0  0  0  0  0  0  0  0  0
  151.9710  144.8586  159.8734 C   0  0  0  0  0  0  0  0  0  0  0  0
  150.9948  145.1989  158.9146 C   0  0  0  0  0  0  0  0  0  0  0  0
  150.7533  144.3693  157.8752 N   0  3  0  0  0  0  0  0  0  0  0  0
  148.9429  137.5006  156.2765 C   0  0  0  0  0  0  0  0  0  0  0  0
  146.5560  134.9470  159.3331 H   0  0  0  0  0  0  0  0  0  0  0  0
  146.3550  134.5961  157.6081 H   0  0  0  0  0  0  0  0  0  0  0  0
  146.3099  136.2815  158.1934 H   0  0  0  0  0  0  0  0  0  0  0  0
  149.2931  134.1492  155.7047 H   0  0  0  0  0  0  0  0  0  0  0  0
  148.7813  135.3303  154.5258 H   0  0  0  0  0  0  0  0  0  0  0  0
  151.4643  135.3017  155.9985 H   0  0  0  0  0  0  0  0  0  0  0  0
  151.2064  134.9985  154.3026 H   0  0  0  0  0  0  0  0  0  0  0  0
  152.0420  137.3180  154.7055 H   0  0  0  0  0  0  0  0  0  0  0  0
  150.4673  137.3255  153.9380 H   0  0  0  0  0  0  0  0  0  0  0  0
  150.9957  137.6261  156.9309 H   0  0  0  0  0  0  0  0  0  0  0  0
  149.3923  139.7271  157.4436 H   0  0  0  0  0  0  0  0  0  0  0  0
  149.1579  141.8091  155.6609 H   0  0  0  0  0  0  0  0  0  0  0  0
  149.1367  142.0145  157.3950 H   0  0  0  0  0  0  0  0  0  0  0  0
  151.8881  141.6447  156.3034 H   0  0  0  0  0  0  0  0  0  0  0  0
  151.0793  143.0154  155.5991 H   0  0  0  0  0  0  0  0  0  0  0  0
  152.9320  141.8796  158.5085 H   0  0  0  0  0  0  0  0  0  0  0  0
  153.4325  143.3665  160.4521 H   0  0  0  0  0  0  0  0  0  0  0  0
  152.1761  145.5169  160.7051 H   0  0  0  0  0  0  0  0  0  0  0  0
  150.4078  146.1052  158.9451 H   0  0  0  0  0  0  0  0  0  0  0  0
  148.3387  137.7846  155.4134 H   0  0  0  0  0  0  0  0  0  0  0  0
  148.5363  138.0480  157.1256 H   0  0  0  0  0  0  0  0  0  0  0  0
  150.0477  144.6400  157.1898 H   0  0  0  0  0  0  0  0  0  0  0  0
  1  2  1  0  0  0  0
  1 22  1  0  0  0  0
  1 23  1  0  0  0  0
  1 24  1  0  0  0  0
  2  3  2  0  0  0  0
  2  4  2  0  0  0  0
  2  5  1  0  0  0  0
  5 21  1  0  0  0  0
  5  6  1  0  0  0  0
  6  7  1  0  0  0  0
  6 25  1  0  0  0  0
  6 26  1  0  0  0  0
  7  8  1  0  0  0  0
  7 27  1  0  0  0  0
  7 28  1  0  0  0  0
  8  9  1  0  0  0  0
  8 29  1  0  0  0  0
  8 30  1  0  0  0  0
  9 10  1  0  0  0  0
  9 21  1  0  0  0  0
  9 31  1  0  0  0  0
 10 11  2  0  0  0  0
 10 12  1  0  0  0  0
 12 13  1  0  0  0  0
 12 32  1  0  0  0  0
 13 14  1  0  0  0  0
 13 33  1  0  0  0  0
 13 34  1  0  0  0  0
 14 15  1  0  0  0  0
 14 35  1  0  0  0  0
 14 36  1  0  0  0  0
 15 20  1  0  0  0  0
 15 16  2  0  0  0  0
 16 17  1  0  0  0  0
 16 37  1  0  0  0  0
 17 18  2  0  0  0  0
 17 38  1  0  0  0  0
 18 19  1  0  0  0  0
 18 39  1  0  0  0  0
 19 20  2  0  0  0  0
 19 40  1  0  0  0  0
 20 43  1  0  0  0  0
 21 41  1  0  0  0  0
 21 42  1  0  0  0  0
M  CHG  1  20   1
M  END
> <s_m_source_file>
AV-unprocessed.smi

> <i_m_source_file_index>
2149

> <i_lp_mmshare_version>
43012

> <i_f3d_flags>
0

> <s_epik_input>
W0NIM11TKD1PKSg9TylOMVtDSDJdW0NIMl1bQ0gyXVtDQEhdKFtDSDJdMSlDKD1PKVtOSF1bQ0gyXVtDSDJdYzJbY0hdW2NIXVtjSF1bY0hdbjI=

> <s_epik_cmdline>
J2VwaWtfcHl0aG9uJywgJy1waCcsICc3LjAnLCAnLXRuJywgJzgnLCAnLW1hJywgJzIwMCcsICctbWV0YWxfYmluZGluZycsICctaW1hZScsICc8aW5maWxlLm1hZT4nLCAnLW9tYWUnLCAnPG91dGZpbGUubWFlPic=

> <r_epik_Ionization_Penalty>
1.83523

> <r_epik_Ionization_Penalty_Charging>
1.83523

> <r_epik_Ionization_Penalty_Neutral>
2.62835e-08

> <r_epik_State_Penalty>
1.95153

> <r_epik_Charging_Adjusted_Penalty>
3.78676

> <i_epik_Tot_Q>
1

> <i_epik_Tot_abs_Q>
1

> <r_epik_Metal_State_Penalty>
1.97791

> <b_epik_Metal_Only>
0

> <s_lp_Force_Field>
OPLS_2005

> <r_lp_Energy>
6.48015

> <b_lp_Chiralities_Consistent>
1

> <s_lp_Variant>
AV-unprocessed.smi:2149-3

> <Gold.Version>
5.8.1

> <Gold.Id.Protein>
6NUR|6NUR_protein|mol2

> <Gold.PLP.Fitness>
44.4102

> <Gold.PLP.PLP>
-33.8384

> <Gold.PLP.part.hbond>
-3.1938

> <Gold.PLP.part.metal>
0.0000

> <Gold.PLP.part.buried>
-5.7689

> <Gold.PLP.part.nonpolar>
-25.1472

> <Gold.PLP.part.repulsive>
0.1423

> <Gold.PLP.ligand.clash>
0.0000

> <Gold.PLP.ligand.torsion>
1.7846

> <Gold.PLP.Chemscore.Hbond>
4.0000

> <Gold.PLP.Chemscore.CHOScore>
0.0000

> <Gold.PLP.Chemscore.Metal>
0.0000

> <Gold.Chemscore.Hbonds>
donor molecule, donor type, donor heavy atom, donor atom, acceptor molecule, acceptor atom, score
      L1  H    20    43       P1  8028  2.00
      P1  H  6896  6909       L1     4  1.00
      P1  H  7989  7998       L1    11  1.00

> <Gold.PLP.Chemscore.Internal.Correction>
2.1410

> <Gold.Rescore>
     Score         DG    S(hbond)    S(metal)    S(lipo)     H(rot)  DE(clash)    DE(int)     intcor
     18.12     -21.19       2.64        0.00      94.98       1.65       0.11       2.96       ----

> <Gold.Chemscore.Fitness>
18.1161

> <Gold.Chemscore.DG>
-21.1887

> <Gold.Chemscore.ZeroCoef>
-5.4800

> <Gold.Chemscore.Hbond>
2.6434

> <Gold.Chemscore.Metal>
0.0000

> <Gold.Chemscore.Lipo>
94.9848

> <Gold.Chemscore.Internal_Hbond>
0.0000

> <Gold.Chemscore.DEClash>
0.1084

> <Gold.Chemscore.DEInternal>
2.9642

> <Gold.Chemscore.Rot>
1.6538

> <Gold.Chemscore.Internal.Correction>
   9.000000E+99

> <Gold.Chemscore.Hbonds>
donor molecule, donor type, donor heavy atom, donor atom, acceptor molecule, acceptor atom, score
      L1  H    20    43       P1  8028  0.30
      P1  H  6896  6909       L1     4  0.44
      P1  H  7989  7998       L1    11  1.00

> <Gold.Chemscore.Hbond.Weighted>
-8.8291

> <Gold.Chemscore.Metal.Weighted>
-0.0000

> <Gold.Chemscore.Lipo.Weighted>
-11.1132

> <Gold.Chemscore.Internal_Hbond.Weighted>
0.0000

> <Gold.Chemscore.DEClash.Weighted>
0.1084

> <Gold.Chemscore.DEInternal.Weighted>
2.9642

> <Gold.Chemscore.Rot.Weighted>
4.2337

> <Gold.Chemscore.Internal.Correction.Weighted>
   9.000000E+99

> <Gold.Protein.RotatedTorsions>
[ 6907 6896 6895 6894 ] final   26.30 input  -60.11 | X-H torsion
[ 7974 7965 7964 7962 ] final   93.31 input  175.53 | X-H torsion
[ 8008 7997 7996 7995 ] final  103.26 input   59.86 | X-H torsion
[ 10167 10162 10161 10158 ] final -116.30 input  -65.29 | X-H torsion
[ 10718 10713 10712 10709 ] final  121.84 input   66.30 | X-H torsion
[ 10763 10752 10751 10750 ] final   66.61 input  -60.55 | X-H torsion
[ 11005 11000 10999 10996 ] final   84.18 input  -57.11 | X-H torsion

> <Gold.Protein.ActiveResidues>
 VAL166  LYS551  ARG553  GLY616  TRP617  ASP618  TYR619  PRO620  LYS621  CYS622 
 ASP623  PHE694  ASN695  SER759  ASP760  ASP761  ALA762  ILE779  LEU786  VAL792 
 PHE793  MET794  SER795  GLU796  ALA797  LYS798  CYS799  TRP800  GLU811  SER814 

> <Gold.Protein.RotatedAtoms>
  151.9854  135.0007  160.0559 H   0  0  0  0  0  0  0  0  0  0  0  0  # atno 6907 bound_to 6896
  152.1657  133.4606  159.4892 H   0  0  0  0  0  0  0  0  0  0  0  0  # atno 6908 bound_to 6896
  150.6894  134.1933  159.4337 H   0  0  0  0  0  0  0  0  0  0  0  0  # atno 6909 bound_to 6896
  145.4807  139.2278  143.2884 H   0  0  0  0  0  0  0  0  0  0  0  0  # atno 7974 bound_to 7965
  156.1468  140.3167  155.8583 H   0  0  0  0  0  0  0  0  0  0  0  0  # atno 8008 bound_to 7997
  155.4049  140.0502  157.3052 H   0  0  0  0  0  0  0  0  0  0  0  0  # atno 8009 bound_to 7997
  154.5023  140.2134  155.9333 H   0  0  0  0  0  0  0  0  0  0  0  0  # atno 8010 bound_to 7997
  140.0808  143.4790  152.1927 H   0  0  0  0  0  0  0  0  0  0  0  0  # atno 10167 bound_to 10162
  157.5787  131.1077  150.8229 H   0  0  0  0  0  0  0  0  0  0  0  0  # atno 10718 bound_to 10713
  153.0148  135.5314  154.6851 H   0  0  0  0  0  0  0  0  0  0  0  0  # atno 10763 bound_to 10752
  154.6001  135.2867  155.0547 H   0  0  0  0  0  0  0  0  0  0  0  0  # atno 10764 bound_to 10752
  154.1607  135.6548  153.5038 H   0  0  0  0  0  0  0  0  0  0  0  0  # atno 10765 bound_to 10752
  139.9008  134.8198  156.2410 H   0  0  0  0  0  0  0  0  0  0  0  0  # atno 11005 bound_to 11000
  146.2343  140.5593  142.8962 LP  0  0  0  0  0  0  0  0  0  0  0  0  # atno 17320 bound_to 7965
  144.7891  140.5995  143.6554 LP  0  0  0  0  0  0  0  0  0  0  0  0  # atno 17321 bound_to 7965
  139.5781  144.7497  151.3712 LP  0  0  0  0  0  0  0  0  0  0  0  0  # atno 17342 bound_to 10162
  140.7079  143.7467  150.7514 LP  0  0  0  0  0  0  0  0  0  0  0  0  # atno 17343 bound_to 10162
  156.8681  130.5136  149.5298 LP  0  0  0  0  0  0  0  0  0  0  0  0  # atno 17370 bound_to 10713
  156.0832  130.5837  150.9601 LP  0  0  0  0  0  0  0  0  0  0  0  0  # atno 17371 bound_to 10713
  141.0285  133.7002  156.1389 LP  0  0  0  0  0  0  0  0  0  0  0  0  # atno 17394 bound_to 11000
  140.7131  134.4440  157.5580 LP  0  0  0  0  0  0  0  0  0  0  0  0  # atno 17395 bound_to 11000

$$$$
