AV-unprocessed.smi:2538|AV-procd|sdf|9984|dock3
  -GOLD-   2272014 33D 1   1.00000     0.00000
 Structure written by MMmdl.
 49 50  0  0  0  0  0  0  0  0  2 V2000
  152.1267  143.7600  160.0410 C   0  0  0  0  0  0  0  0  0  0  0  0
  151.8457  142.8648  158.8465 C   0  0  0  0  0  0  0  0  0  0  0  0
  150.9418  143.3205  157.8601 C   0  0  0  0  0  0  0  0  0  0  0  0
  150.7049  142.4793  156.7795 C   0  0  0  0  0  0  0  0  0  0  0  0
  149.8824  142.6331  155.6610 N   0  3  0  0  0  0  0  0  0  0  0  0
  149.9801  141.5290  154.8696 C   0  0  0  0  0  0  0  0  0  0  0  0
  150.8530  140.6731  155.4671 N   0  0  0  0  0  0  0  0  0  0  0  0
  151.3118  139.3419  155.0492 C   0  0  0  0  0  0  0  0  0  0  0  0
  150.1556  138.4345  154.5828 C   0  0  1  0  0  0  0  0  0  0  0  0
  149.9364  138.6776  153.2072 O   0  0  0  0  0  0  0  0  0  0  0  0
  150.4807  136.9381  154.7816 C   0  0  0  0  0  0  0  0  0  0  0  0
  149.8115  136.3476  155.9566 N   0  0  0  0  0  0  0  0  0  0  0  0
  148.3697  136.6049  156.0758 C   0  0  0  0  0  0  0  0  0  0  0  0
  150.4709  134.9355  156.7249 S   0  0  0  0  0  0  0  0  0  0  0  0
  151.8967  135.1952  156.9798 O   0  0  0  0  0  0  0  0  0  0  0  0
  149.5788  134.6052  157.8475 O   0  0  0  0  0  0  0  0  0  0  0  0
  150.3099  133.6115  155.4288 C   0  0  0  0  0  0  0  0  0  0  0  0
  148.8571  133.4965  154.9455 C   0  0  0  0  0  0  0  0  0  0  0  0
  150.8341  132.2695  155.9599 C   0  0  0  0  0  0  0  0  0  0  0  0
  151.3319  141.2244  156.6598 C   0  0  0  0  0  0  0  0  0  0  0  0
  152.2257  140.7597  157.6213 C   0  0  0  0  0  0  0  0  0  0  0  0
  152.4793  141.6004  158.7284 C   0  0  0  0  0  0  0  0  0  0  0  0
  153.4482  141.1198  159.7955 C   0  0  0  0  0  0  0  0  0  0  0  0
  151.5534  144.6861  159.9898 H   0  0  0  0  0  0  0  0  0  0  0  0
  153.1836  144.0244  160.0810 H   0  0  0  0  0  0  0  0  0  0  0  0
  151.8601  143.2550  160.9696 H   0  0  0  0  0  0  0  0  0  0  0  0
  150.4556  144.2816  157.9435 H   0  0  0  0  0  0  0  0  0  0  0  0
  149.4558  141.3606  153.9397 H   0  0  0  0  0  0  0  0  0  0  0  0
  152.0396  139.4781  154.2478 H   0  0  0  0  0  0  0  0  0  0  0  0
  151.8500  138.8913  155.8844 H   0  0  0  0  0  0  0  0  0  0  0  0
  149.2577  138.7141  155.1315 H   0  0  0  0  0  0  0  0  0  0  0  0
  149.5463  137.9069  152.8240 H   0  0  0  0  0  0  0  0  0  0  0  0
  150.2572  136.3576  153.8859 H   0  0  0  0  0  0  0  0  0  0  0  0
  151.5546  136.8179  154.9304 H   0  0  0  0  0  0  0  0  0  0  0  0
  148.1213  137.6054  155.7208 H   0  0  0  0  0  0  0  0  0  0  0  0
  148.0580  136.5309  157.1175 H   0  0  0  0  0  0  0  0  0  0  0  0
  147.8011  135.8773  155.4968 H   0  0  0  0  0  0  0  0  0  0  0  0
  150.9268  133.9007  154.5813 H   0  0  0  0  0  0  0  0  0  0  0  0
  148.7652  132.7524  154.1539 H   0  0  0  0  0  0  0  0  0  0  0  0
  148.5002  134.4464  154.5464 H   0  0  0  0  0  0  0  0  0  0  0  0
  148.1907  133.2015  155.7566 H   0  0  0  0  0  0  0  0  0  0  0  0
  150.7479  131.4882  155.2043 H   0  0  0  0  0  0  0  0  0  0  0  0
  150.2740  131.9474  156.8384 H   0  0  0  0  0  0  0  0  0  0  0  0
  151.8853  132.3368  156.2405 H   0  0  0  0  0  0  0  0  0  0  0  0
  152.7062  139.7966  157.5305 H   0  0  0  0  0  0  0  0  0  0  0  0
  153.8596  140.1404  159.5491 H   0  0  0  0  0  0  0  0  0  0  0  0
  152.9452  141.0370  160.7591 H   0  0  0  0  0  0  0  0  0  0  0  0
  154.2822  141.8144  159.8976 H   0  0  0  0  0  0  0  0  0  0  0  0
  149.2954  143.4304  155.4516 H   0  0  0  0  0  0  0  0  0  0  0  0
  1  2  1  0  0  0  0
  1 24  1  0  0  0  0
  1 25  1  0  0  0  0
  1 26  1  0  0  0  0
  2 22  1  0  0  0  0
  2  3  2  0  0  0  0
  3  4  1  0  0  0  0
  3 27  1  0  0  0  0
  4 20  2  0  0  0  0
  4  5  1  0  0  0  0
  5  6  2  0  0  0  0
  5 49  1  0  0  0  0
  6  7  1  0  0  0  0
  6 28  1  0  0  0  0
  7  8  1  0  0  0  0
  7 20  1  0  0  0  0
  8  9  1  0  0  0  0
  8 29  1  0  0  0  0
  8 30  1  0  0  0  0
  9 10  1  0  0  0  0
  9 11  1  0  0  0  0
  9 31  1  0  0  0  0
 10 32  1  0  0  0  0
 11 12  1  0  0  0  0
 11 33  1  0  0  0  0
 11 34  1  0  0  0  0
 12 13  1  0  0  0  0
 12 14  1  0  0  0  0
 13 35  1  0  0  0  0
 13 36  1  0  0  0  0
 13 37  1  0  0  0  0
 14 15  2  0  0  0  0
 14 16  2  0  0  0  0
 14 17  1  0  0  0  0
 17 18  1  0  0  0  0
 17 19  1  0  0  0  0
 17 38  1  0  0  0  0
 18 39  1  0  0  0  0
 18 40  1  0  0  0  0
 18 41  1  0  0  0  0
 19 42  1  0  0  0  0
 19 43  1  0  0  0  0
 19 44  1  0  0  0  0
 20 21  1  0  0  0  0
 21 22  2  0  0  0  0
 21 45  1  0  0  0  0
 22 23  1  0  0  0  0
 23 46  1  0  0  0  0
 23 47  1  0  0  0  0
 23 48  1  0  0  0  0
M  CHG  1   5   1
M  END
> <s_m_source_file>
AV-unprocessed.smi

> <i_m_source_file_index>
2538

> <i_lp_mmshare_version>
43012

> <i_f3d_flags>
0

> <s_epik_input>
W0NIM11jKFtjSF0xKWMoW0NIM10pW2NIXWMoYzEyKW4oW2NIXW4yKVtDSDJdW0NASF0oW09IXSlbQ0gyXU4oW0NIM10pUyg9TykoPU8pW0NIXShbQ0gzXSlbQ0gzXQ==

> <s_epik_cmdline>
J2VwaWtfcHl0aG9uJywgJy1waCcsICc3LjAnLCAnLXRuJywgJzgnLCAnLW1hJywgJzIwMCcsICctbWV0YWxfYmluZGluZycsICctaW1hZScsICc8aW5maWxlLm1hZT4nLCAnLW9tYWUnLCAnPG91dGZpbGUubWFlPic=

> <r_epik_Ionization_Penalty>
1.07686

> <r_epik_Ionization_Penalty_Charging>
1.07685

> <r_epik_Ionization_Penalty_Neutral>
1.40866e-06

> <r_epik_State_Penalty>
1.13193

> <r_epik_Charging_Adjusted_Penalty>
2.20879

> <i_epik_Tot_Q>
1

> <i_epik_Tot_abs_Q>
1

> <r_epik_Metal_State_Penalty>
5.12988

> <b_epik_Metal_Only>
0

> <s_lp_Force_Field>
OPLS_2005

> <r_lp_Energy>
10.053

> <b_lp_Chiralities_Consistent>
1

> <s_lp_Variant>
AV-unprocessed.smi:2538-4

> <Gold.Version>
5.8.1

> <Gold.Id.Protein>
6NUR|6NUR_protein|mol2

> <Gold.PLP.Fitness>
57.2320

> <Gold.PLP.PLP>
-45.0626

> <Gold.PLP.part.hbond>
-5.0652

> <Gold.PLP.part.metal>
0.0000

> <Gold.PLP.part.buried>
-4.9336

> <Gold.PLP.part.nonpolar>
-35.2950

> <Gold.PLP.part.repulsive>
0.1141

> <Gold.PLP.ligand.clash>
0.0000

> <Gold.PLP.ligand.torsion>
2.4579

> <Gold.PLP.Chemscore.Hbond>
4.8393

> <Gold.PLP.Chemscore.CHOScore>
0.0000

> <Gold.PLP.Chemscore.Metal>
0.0000

> <Gold.Chemscore.Hbonds>
donor molecule, donor type, donor heavy atom, donor atom, acceptor molecule, acceptor atom, score
      L1  H     5    49       P1  8028  1.17
      L1  H    10    32       P1  7948  1.00
      P1  H  6896  6909       L1    16  0.63
      P1  H 10752 10764       L1    15  0.41

> <Gold.PLP.Chemscore.Internal.Correction>
2.5674

> <Gold.Rescore>
     Score         DG    S(hbond)    S(metal)    S(lipo)     H(rot)  DE(clash)    DE(int)     intcor
     21.74     -24.36       3.72        0.00     106.71       2.36       0.23       2.40       ----

> <Gold.Chemscore.Fitness>
21.7375

> <Gold.Chemscore.DG>
-24.3630

> <Gold.Chemscore.ZeroCoef>
-5.4800

> <Gold.Chemscore.Hbond>
3.7240

> <Gold.Chemscore.Metal>
0.0000

> <Gold.Chemscore.Lipo>
106.7105

> <Gold.Chemscore.Internal_Hbond>
0.0000

> <Gold.Chemscore.DEClash>
0.2300

> <Gold.Chemscore.DEInternal>
2.3954

> <Gold.Chemscore.Rot>
2.3595

> <Gold.Chemscore.Internal.Correction>
   9.000000E+99

> <Gold.Chemscore.Hbonds>
donor molecule, donor type, donor heavy atom, donor atom, acceptor molecule, acceptor atom, score
      L1  H     5    49       P1  8028  0.57
      L1  H    10    32       P1  7948  0.73
      P1  H  6896  6909       L1    16  0.27
      P1  H 10752 10764       L1    15  0.40

> <Gold.Chemscore.Hbond.Weighted>
-12.4381

> <Gold.Chemscore.Metal.Weighted>
-0.0000

> <Gold.Chemscore.Lipo.Weighted>
-12.4851

> <Gold.Chemscore.Internal_Hbond.Weighted>
0.0000

> <Gold.Chemscore.DEClash.Weighted>
0.2300

> <Gold.Chemscore.DEInternal.Weighted>
2.3954

> <Gold.Chemscore.Rot.Weighted>
6.0403

> <Gold.Chemscore.Internal.Correction.Weighted>
   9.000000E+99

> <Gold.Protein.RotatedTorsions>
[ 6907 6896 6895 6894 ] final   -5.33 input  -60.11 | X-H torsion
[ 7974 7965 7964 7962 ] final  -54.12 input  175.53 | X-H torsion
[ 8008 7997 7996 7995 ] final -152.80 input   59.86 | X-H torsion
[ 10167 10162 10161 10158 ] final   80.37 input  -65.29 | X-H torsion
[ 10718 10713 10712 10709 ] final   -8.03 input   66.30 | X-H torsion
[ 10763 10752 10751 10750 ] final  -14.67 input  -60.55 | X-H torsion
[ 11005 11000 10999 10996 ] final -162.16 input  -57.11 | X-H torsion

> <Gold.Protein.ActiveResidues>
 VAL166  LYS551  ARG553  GLY616  TRP617  ASP618  TYR619  PRO620  LYS621  CYS622 
 ASP623  PHE694  ASN695  SER759  ASP760  ASP761  ALA762  ILE779  LEU786  VAL792 
 PHE793  MET794  SER795  GLU796  ALA797  LYS798  CYS799  TRP800  GLU811  SER814 

> <Gold.Protein.RotatedAtoms>
  151.4833  135.1053  159.9783 H   0  0  0  0  0  0  0  0  0  0  0  0  # atno 6907 bound_to 6896
  152.4771  133.8159  159.7039 H   0  0  0  0  0  0  0  0  0  0  0  0  # atno 6908 bound_to 6896
  150.8816  133.7303  159.2957 H   0  0  0  0  0  0  0  0  0  0  0  0  # atno 6909 bound_to 6896
  145.8891  140.8084  142.9800 H   0  0  0  0  0  0  0  0  0  0  0  0  # atno 7974 bound_to 7965
  155.6609  140.0722  157.2554 H   0  0  0  0  0  0  0  0  0  0  0  0  # atno 8008 bound_to 7997
  154.4142  140.1716  156.1826 H   0  0  0  0  0  0  0  0  0  0  0  0  # atno 8009 bound_to 7997
  155.9698  140.3363  155.6568 H   0  0  0  0  0  0  0  0  0  0  0  0  # atno 8010 bound_to 7997
  139.9505  144.6029  150.8166 H   0  0  0  0  0  0  0  0  0  0  0  0  # atno 10167 bound_to 10162
  156.7085  130.5115  149.5898 H   0  0  0  0  0  0  0  0  0  0  0  0  # atno 10718 bound_to 10713
  153.5317  135.7014  153.5680 H   0  0  0  0  0  0  0  0  0  0  0  0  # atno 10763 bound_to 10752
  153.3684  135.3951  155.1770 H   0  0  0  0  0  0  0  0  0  0  0  0  # atno 10764 bound_to 10752
  154.8684  135.3806  154.4814 H   0  0  0  0  0  0  0  0  0  0  0  0  # atno 10765 bound_to 10752
  140.6124  134.4836  157.5216 H   0  0  0  0  0  0  0  0  0  0  0  0  # atno 11005 bound_to 11000
  144.6730  140.1502  143.7430 LP  0  0  0  0  0  0  0  0  0  0  0  0  # atno 17320 bound_to 7965
  145.8930  139.2386  143.1538 LP  0  0  0  0  0  0  0  0  0  0  0  0  # atno 17321 bound_to 7965
  140.7584  143.3107  151.2852 LP  0  0  0  0  0  0  0  0  0  0  0  0  # atno 17342 bound_to 10162
  139.6632  144.0151  152.2706 LP  0  0  0  0  0  0  0  0  0  0  0  0  # atno 17343 bound_to 10162
  156.1678  130.6417  151.0799 LP  0  0  0  0  0  0  0  0  0  0  0  0  # atno 17370 bound_to 10713
  157.6945  131.0798  150.7009 LP  0  0  0  0  0  0  0  0  0  0  0  0  # atno 17371 bound_to 10713
  139.9187  134.8193  156.1282 LP  0  0  0  0  0  0  0  0  0  0  0  0  # atno 17394 bound_to 11000
  141.0799  133.6759  156.2314 LP  0  0  0  0  0  0  0  0  0  0  0  0  # atno 17395 bound_to 11000

$$$$
