AV-unprocessed.smi:657|AV-procd|sdf|3222|dock3
  -GOLD-   22720 0163D 1   1.00000     0.00000
 Structure written by MMmdl.
 47 48  0  0  0  0  0  0  0  0  2 V2000
  148.0298  140.3965  154.7603 C   0  0  0  0  0  0  0  0  0  0  0  0
  148.3576  139.4201  153.6117 C   0  0  0  0  0  0  0  0  0  0  0  0
  147.0389  139.0591  152.8950 C   0  0  0  0  0  0  0  0  0  0  0  0
  149.1031  138.1996  154.0761 N   0  3  2  0  0  0  0  0  0  0  0  0
  148.3910  137.3991  155.1205 C   0  0  0  0  0  0  0  0  0  0  0  0
  149.1093  136.0746  155.4276 C   0  0  0  0  0  0  0  0  0  0  0  0
  150.5661  136.3035  155.8322 C   0  0  0  0  0  0  0  0  0  0  0  0
  151.2752  137.1025  154.7329 C   0  0  0  0  0  0  0  0  0  0  0  0
  150.5552  138.4288  154.3980 C   0  0  2  0  0  0  0  0  0  0  0  0
  150.8183  139.5065  155.4734 C   0  0  0  0  0  0  0  0  0  0  0  0
  151.4503  140.5278  155.2059 O   0  0  0  0  0  0  0  0  0  0  0  0
  150.3122  139.2622  156.6922 N   0  0  0  0  0  0  0  0  0  0  0  0
  150.4257  140.1378  157.8568 C   0  0  0  0  0  0  0  0  0  0  0  0
  151.8022  140.8234  157.9977 C   0  0  0  0  0  0  0  0  0  0  0  0
  151.7169  142.2797  158.3764 C   0  0  0  0  0  0  0  0  0  0  0  0
  151.2339  143.3695  157.5965 C   0  0  0  0  0  0  0  0  0  0  0  0
  151.2831  144.5242  158.2403 N   0  0  0  0  0  0  0  0  0  0  0  0
  151.8084  144.2162  159.4436 N   0  0  0  0  0  0  0  0  0  0  0  0
  152.0134  145.2607  160.4241 C   0  0  0  0  0  0  0  0  0  0  0  0
  152.0849  142.8710  159.5518 C   0  0  0  0  0  0  0  0  0  0  0  0
  147.3867  141.2060  154.4132 H   0  0  0  0  0  0  0  0  0  0  0  0
  148.9213  140.8776  155.1616 H   0  0  0  0  0  0  0  0  0  0  0  0
  147.5116  139.8934  155.5774 H   0  0  0  0  0  0  0  0  0  0  0  0
  148.9881  139.9626  152.9070 H   0  0  0  0  0  0  0  0  0  0  0  0
  146.4509  139.9506  152.6775 H   0  0  0  0  0  0  0  0  0  0  0  0
  146.4197  138.4025  153.5071 H   0  0  0  0  0  0  0  0  0  0  0  0
  147.2084  138.5712  151.9360 H   0  0  0  0  0  0  0  0  0  0  0  0
  148.2606  137.9850  156.0298 H   0  0  0  0  0  0  0  0  0  0  0  0
  147.3914  137.1310  154.7846 H   0  0  0  0  0  0  0  0  0  0  0  0
  148.5835  135.5427  156.2213 H   0  0  0  0  0  0  0  0  0  0  0  0
  149.0730  135.4291  154.5490 H   0  0  0  0  0  0  0  0  0  0  0  0
  150.6144  136.8305  156.7854 H   0  0  0  0  0  0  0  0  0  0  0  0
  151.0675  135.3472  155.9829 H   0  0  0  0  0  0  0  0  0  0  0  0
  152.3092  137.2933  155.0246 H   0  0  0  0  0  0  0  0  0  0  0  0
  151.3308  136.4909  153.8312 H   0  0  0  0  0  0  0  0  0  0  0  0
  151.0356  138.7713  153.4817 H   0  0  0  0  0  0  0  0  0  0  0  0
  149.8014  138.4014  156.8265 H   0  0  0  0  0  0  0  0  0  0  0  0
  149.6288  140.8827  157.8429 H   0  0  0  0  0  0  0  0  0  0  0  0
  150.2472  139.5160  158.7345 H   0  0  0  0  0  0  0  0  0  0  0  0
  152.3910  140.2793  158.7368 H   0  0  0  0  0  0  0  0  0  0  0  0
  152.3480  140.7061  157.0611 H   0  0  0  0  0  0  0  0  0  0  0  0
  150.8418  143.3527  156.5903 H   0  0  0  0  0  0  0  0  0  0  0  0
  152.1592  144.8212  161.4111 H   0  0  0  0  0  0  0  0  0  0  0  0
  151.1450  145.9196  160.4565 H   0  0  0  0  0  0  0  0  0  0  0  0
  152.8957  145.8439  160.1592 H   0  0  0  0  0  0  0  0  0  0  0  0
  152.5096  142.4477  160.4502 H   0  0  0  0  0  0  0  0  0  0  0  0
  149.1201  137.5916  153.2699 H   0  0  0  0  0  0  0  0  0  0  0  0
  1  2  1  0  0  0  0
  1 21  1  0  0  0  0
  1 22  1  0  0  0  0
  1 23  1  0  0  0  0
  2  3  1  0  0  0  0
  2  4  1  0  0  0  0
  2 24  1  0  0  0  0
  3 25  1  0  0  0  0
  3 26  1  0  0  0  0
  3 27  1  0  0  0  0
  4  9  1  0  0  0  0
  4  5  1  0  0  0  0
  4 47  1  0  0  0  0
  5  6  1  0  0  0  0
  5 28  1  0  0  0  0
  5 29  1  0  0  0  0
  6  7  1  0  0  0  0
  6 30  1  0  0  0  0
  6 31  1  0  0  0  0
  7  8  1  0  0  0  0
  7 32  1  0  0  0  0
  7 33  1  0  0  0  0
  8  9  1  0  0  0  0
  8 34  1  0  0  0  0
  8 35  1  0  0  0  0
  9 10  1  0  0  0  0
  9 36  1  0  0  0  0
 10 11  2  0  0  0  0
 10 12  1  0  0  0  0
 12 13  1  0  0  0  0
 12 37  1  0  0  0  0
 13 14  1  0  0  0  0
 13 38  1  0  0  0  0
 13 39  1  0  0  0  0
 14 15  1  0  0  0  0
 14 40  1  0  0  0  0
 14 41  1  0  0  0  0
 15 20  2  0  0  0  0
 15 16  1  0  0  0  0
 16 17  2  0  0  0  0
 16 42  1  0  0  0  0
 17 18  1  0  0  0  0
 18 19  1  0  0  0  0
 18 20  1  0  0  0  0
 19 43  1  0  0  0  0
 19 44  1  0  0  0  0
 19 45  1  0  0  0  0
 20 46  1  0  0  0  0
M  CHG  1   4   1
M  END
> <s_m_source_file>
AV-unprocessed.smi

> <i_m_source_file_index>
657

> <i_lp_mmshare_version>
43012

> <i_f3d_flags>
0

> <s_epik_input>
W0NIM11bQ0hdKFtDSDNdKU4xW0NIMl1bQ0gyXVtDSDJdW0NIMl1bQ0BIXTFDKD1PKVtOSF1bQ0gyXVtDSDJdYzJbY0hdbm4oW0NIM10pW2NIXTI=

> <s_epik_cmdline>
J2VwaWtfcHl0aG9uJywgJy1waCcsICc3LjAnLCAnLXRuJywgJzgnLCAnLW1hJywgJzIwMCcsICctbWV0YWxfYmluZGluZycsICctaW1hZScsICc8aW5maWxlLm1hZT4nLCAnLW9tYWUnLCAnPG91dGZpbGUubWFlPic=

> <r_lp_tautomer_probability>
1

> <r_epik_Ionization_Penalty>
0.0244317

> <r_epik_Ionization_Penalty_Charging>
0.0240236

> <r_epik_Ionization_Penalty_Neutral>
0.00040815

> <r_epik_State_Penalty>
0.0194773

> <r_epik_Charging_Adjusted_Penalty>
0.0435009

> <i_epik_Tot_Q>
1

> <i_epik_Tot_abs_Q>
1

> <r_epik_Metal_State_Penalty>
0.0361957

> <b_epik_Metal_Only>
0

> <s_lp_Force_Field>
OPLS_2005

> <r_lp_Energy>
17.7945

> <b_lp_Chiralities_Consistent>
1

> <s_lp_Variant>
AV-unprocessed.smi:657-3

> <Gold.Version>
5.8.1

> <Gold.Id.Protein>
6NUR|6NUR_protein|mol2

> <Gold.PLP.Fitness>
45.6366

> <Gold.PLP.PLP>
-35.4154

> <Gold.PLP.part.hbond>
-2.0000

> <Gold.PLP.part.metal>
0.0000

> <Gold.PLP.part.buried>
-2.0079

> <Gold.PLP.part.nonpolar>
-32.3186

> <Gold.PLP.part.repulsive>
0.2141

> <Gold.PLP.ligand.clash>
0.0000

> <Gold.PLP.ligand.torsion>
0.6981

> <Gold.PLP.Chemscore.Hbond>
2.8640

> <Gold.PLP.Chemscore.CHOScore>
0.9380

> <Gold.PLP.Chemscore.Metal>
0.0000

> <Gold.Chemscore.Hbonds>
donor molecule, donor type, donor heavy atom, donor atom, acceptor molecule, acceptor atom, score
      L1  H     4    47       P1  7948  2.00
      P1  H  7989  7998       L1    11  0.86
      L1  C    16    42       P1  8028  0.90

> <Gold.PLP.Chemscore.Internal.Correction>
0.2115

> <Gold.Rescore>
     Score         DG    S(hbond)    S(metal)    S(lipo)     H(rot)  DE(clash)    DE(int)     intcor
     15.45     -18.37       1.89        0.00      91.79       1.63       0.19       2.73       ----

> <Gold.Chemscore.Fitness>
15.4507

> <Gold.Chemscore.DG>
-18.3664

> <Gold.Chemscore.ZeroCoef>
-5.4800

> <Gold.Chemscore.Hbond>
1.8906

> <Gold.Chemscore.Metal>
0.0000

> <Gold.Chemscore.Lipo>
91.7870

> <Gold.Chemscore.Internal_Hbond>
0.0000

> <Gold.Chemscore.DEClash>
0.1894

> <Gold.Chemscore.DEInternal>
2.7263

> <Gold.Chemscore.Rot>
1.6279

> <Gold.Chemscore.Internal.Correction>
   9.000000E+99

> <Gold.Chemscore.Hbonds>
donor molecule, donor type, donor heavy atom, donor atom, acceptor molecule, acceptor atom, score
      L1  H     4    47       P1  7948  0.99
      P1  H  7989  7998       L1    11  0.79

> <Gold.Chemscore.Hbond.Weighted>
-6.3146

> <Gold.Chemscore.Metal.Weighted>
-0.0000

> <Gold.Chemscore.Lipo.Weighted>
-10.7391

> <Gold.Chemscore.Internal_Hbond.Weighted>
0.0000

> <Gold.Chemscore.DEClash.Weighted>
0.1894

> <Gold.Chemscore.DEInternal.Weighted>
2.7263

> <Gold.Chemscore.Rot.Weighted>
4.1673

> <Gold.Chemscore.Internal.Correction.Weighted>
   9.000000E+99

> <Gold.Protein.RotatedTorsions>
[ 6907 6896 6895 6894 ] final   32.78 input  -60.11 | X-H torsion
[ 7974 7965 7964 7962 ] final  -30.88 input  175.53 | X-H torsion
[ 8008 7997 7996 7995 ] final   66.81 input   59.86 | X-H torsion
[ 10167 10162 10161 10158 ] final -165.41 input  -65.29 | X-H torsion
[ 10718 10713 10712 10709 ] final -151.62 input   66.30 | X-H torsion
[ 10763 10752 10751 10750 ] final   55.13 input  -60.55 | X-H torsion
[ 11005 11000 10999 10996 ] final   14.71 input  -57.11 | X-H torsion

> <Gold.Protein.ActiveResidues>
 VAL166  LYS551  ARG553  GLY616  TRP617  ASP618  TYR619  PRO620  LYS621  CYS622 
 ASP623  PHE694  ASN695  SER759  ASP760  ASP761  ALA762  ILE779  LEU786  VAL792 
 PHE793  MET794  SER795  GLU796  ALA797  LYS798  CYS799  TRP800  GLU811  SER814 

> <Gold.Protein.RotatedAtoms>
  152.0792  134.9482  160.0573 H   0  0  0  0  0  0  0  0  0  0  0  0  # atno 6907 bound_to 6896
  152.0777  133.4133  159.4495 H   0  0  0  0  0  0  0  0  0  0  0  0  # atno 6908 bound_to 6896
  150.6836  134.2938  159.4721 H   0  0  0  0  0  0  0  0  0  0  0  0  # atno 6909 bound_to 6896
  146.1109  140.5597  142.8778 H   0  0  0  0  0  0  0  0  0  0  0  0  # atno 7974 bound_to 7965
  155.6832  140.3496  155.4863 H   0  0  0  0  0  0  0  0  0  0  0  0  # atno 8008 bound_to 7997
  155.9589  140.1133  157.0935 H   0  0  0  0  0  0  0  0  0  0  0  0  # atno 8009 bound_to 7997
  154.4138  140.1179  156.5138 H   0  0  0  0  0  0  0  0  0  0  0  0  # atno 8010 bound_to 7997
  139.6184  144.0674  152.1909 H   0  0  0  0  0  0  0  0  0  0  0  0  # atno 10167 bound_to 10162
  156.4616  130.8216  151.2447 H   0  0  0  0  0  0  0  0  0  0  0  0  # atno 10718 bound_to 10713
  152.9813  135.5721  154.5017 H   0  0  0  0  0  0  0  0  0  0  0  0  # atno 10763 bound_to 10752
  154.4535  135.2779  155.1766 H   0  0  0  0  0  0  0  0  0  0  0  0  # atno 10764 bound_to 10752
  154.3384  135.6234  153.5638 H   0  0  0  0  0  0  0  0  0  0  0  0  # atno 10765 bound_to 10752
  140.4665  134.1075  155.7725 H   0  0  0  0  0  0  0  0  0  0  0  0  # atno 11005 bound_to 11000
  144.7511  140.5193  143.6801 LP  0  0  0  0  0  0  0  0  0  0  0  0  # atno 17320 bound_to 7965
  145.5665  139.1481  143.3312 LP  0  0  0  0  0  0  0  0  0  0  0  0  # atno 17321 bound_to 7965
  140.0309  144.6081  150.7488 LP  0  0  0  0  0  0  0  0  0  0  0  0  # atno 17342 bound_to 10162
  140.7366  143.2755  151.3756 LP  0  0  0  0  0  0  0  0  0  0  0  0  # atno 17343 bound_to 10162
  157.7497  131.0105  150.3309 LP  0  0  0  0  0  0  0  0  0  0  0  0  # atno 17370 bound_to 10713
  156.3710  130.3863  149.7175 LP  0  0  0  0  0  0  0  0  0  0  0  0  # atno 17371 bound_to 10713
  141.1597  133.8816  157.1881 LP  0  0  0  0  0  0  0  0  0  0  0  0  # atno 17394 bound_to 11000
  139.9912  135.0064  156.9979 LP  0  0  0  0  0  0  0  0  0  0  0  0  # atno 17395 bound_to 11000

$$$$
