AV-unprocessed.smi:3201|AV-procd|sdf|12240|dock5
  -GOLD-   2272018 73D 1   1.00000     0.00000
 Structure written by MMmdl.
 41 43  0  0  0  0  0  0  0  0  2 V2000
  149.0930  138.0266  154.8069 C   0  0  0  0  0  0  0  0  0  0  0  0
  148.7987  139.4591  154.4952 C   0  0  0  0  0  0  0  0  0  0  0  0
  149.3881  140.6074  154.9531 C   0  0  0  0  0  0  0  0  0  0  0  0
  150.5250  140.7694  155.9247 C   0  0  0  0  0  0  0  0  0  0  0  0
  150.0858  141.5265  157.1844 C   0  0  0  0  0  0  0  0  0  0  0  0
  150.4060  142.9639  157.0746 N   0  3  0  0  0  0  0  0  0  0  0  0
  150.2581  143.7288  158.3321 C   0  0  1  0  0  0  0  0  0  0  0  0
  150.4112  142.8779  159.6118 C   0  0  0  0  0  0  0  0  0  0  0  0
  151.4743  143.6569  160.4112 C   0  0  1  0  0  0  0  0  0  0  0  0
  152.8537  143.4144  159.7745 C   0  0  0  0  0  0  0  0  0  0  0  0
  152.7625  144.2152  158.4627 C   0  0  0  0  0  0  0  0  0  0  0  0
  151.3401  144.8147  158.5189 C   0  0  2  0  0  0  0  0  0  0  0  0
  151.1973  145.1031  160.0102 C   0  0  0  0  0  0  0  0  0  0  0  0
  148.6720  141.6427  154.2890 C   0  0  0  0  0  0  0  0  0  0  0  0
  147.7244  141.1818  153.4935 N   0  0  0  0  0  0  0  0  0  0  0  0
  147.7975  139.8412  153.6191 N   0  0  0  0  0  0  0  0  0  0  0  0
  146.8716  139.0227  152.8594 C   0  0  0  0  0  0  0  0  0  0  0  0
  149.9501  137.9332  155.4734 H   0  0  0  0  0  0  0  0  0  0  0  0
  149.3186  137.4700  153.8971 H   0  0  0  0  0  0  0  0  0  0  0  0
  148.2396  137.5530  155.2925 H   0  0  0  0  0  0  0  0  0  0  0  0
  150.9197  139.7938  156.2115 H   0  0  0  0  0  0  0  0  0  0  0  0
  151.3579  141.2953  155.4568 H   0  0  0  0  0  0  0  0  0  0  0  0
  149.0116  141.4099  157.3348 H   0  0  0  0  0  0  0  0  0  0  0  0
  150.5819  141.1068  158.0604 H   0  0  0  0  0  0  0  0  0  0  0  0
  151.3555  143.0661  156.7454 H   0  0  0  0  0  0  0  0  0  0  0  0
  149.2792  144.2121  158.3287 H   0  0  0  0  0  0  0  0  0  0  0  0
  149.4666  142.8351  160.1555 H   0  0  0  0  0  0  0  0  0  0  0  0
  150.7266  141.8522  159.4152 H   0  0  0  0  0  0  0  0  0  0  0  0
  151.4488  143.4605  161.4836 H   0  0  0  0  0  0  0  0  0  0  0  0
  153.6494  143.8077  160.4089 H   0  0  0  0  0  0  0  0  0  0  0  0
  153.0547  142.3559  159.6051 H   0  0  0  0  0  0  0  0  0  0  0  0
  153.5115  145.0081  158.4519 H   0  0  0  0  0  0  0  0  0  0  0  0
  152.9329  143.5955  157.5824 H   0  0  0  0  0  0  0  0  0  0  0  0
  151.2053  145.6823  157.8724 H   0  0  0  0  0  0  0  0  0  0  0  0
  150.2018  145.4480  160.2951 H   0  0  0  0  0  0  0  0  0  0  0  0
  151.9408  145.8070  160.3892 H   0  0  0  0  0  0  0  0  0  0  0  0
  148.8140  142.7109  154.3614 H   0  0  0  0  0  0  0  0  0  0  0  0
  146.9692  137.9716  153.1296 H   0  0  0  0  0  0  0  0  0  0  0  0
  147.0747  139.1329  151.7940 H   0  0  0  0  0  0  0  0  0  0  0  0
  145.8480  139.3402  153.0611 H   0  0  0  0  0  0  0  0  0  0  0  0
  149.7834  143.3671  156.3891 H   0  0  0  0  0  0  0  0  0  0  0  0
  1  2  1  0  0  0  0
  1 18  1  0  0  0  0
  1 19  1  0  0  0  0
  1 20  1  0  0  0  0
  2 16  1  0  0  0  0
  2  3  2  0  0  0  0
  3  4  1  0  0  0  0
  3 14  1  0  0  0  0
  4  5  1  0  0  0  0
  4 21  1  0  0  0  0
  4 22  1  0  0  0  0
  5  6  1  0  0  0  0
  5 23  1  0  0  0  0
  5 24  1  0  0  0  0
  6  7  1  0  0  0  0
  6 25  1  0  0  0  0
  6 41  1  0  0  0  0
  7 12  1  0  0  0  0
  7  8  1  0  0  0  0
  7 26  1  0  0  0  0
  8  9  1  0  0  0  0
  8 27  1  0  0  0  0
  8 28  1  0  0  0  0
  9 13  1  0  0  0  0
  9 10  1  0  0  0  0
  9 29  1  0  0  0  0
 10 11  1  0  0  0  0
 10 30  1  0  0  0  0
 10 31  1  0  0  0  0
 11 12  1  0  0  0  0
 11 32  1  0  0  0  0
 11 33  1  0  0  0  0
 12 13  1  0  0  0  0
 12 34  1  0  0  0  0
 13 35  1  0  0  0  0
 13 36  1  0  0  0  0
 14 15  2  0  0  0  0
 14 37  1  0  0  0  0
 15 16  1  0  0  0  0
 16 17  1  0  0  0  0
 17 38  1  0  0  0  0
 17 39  1  0  0  0  0
 17 40  1  0  0  0  0
M  CHG  1   6   1
M  END
> <s_m_source_file>
AV-unprocessed.smi

> <i_m_source_file_index>
3201

> <i_lp_mmshare_version>
43012

> <i_f3d_flags>
0

> <s_epik_input>
W0NIM11uMW5bY0hdYyhjMVtDSDNdKVtDSDJdW0NIMl1bTkhdW0NASF0oW0NIMl1bQ0BIXTIzKVtDQEhdKFtDSDJdMylbQ0gyXVtDSDJdMg==

> <s_epik_cmdline>
J2VwaWtfcHl0aG9uJywgJy1waCcsICc3LjAnLCAnLXRuJywgJzgnLCAnLW1hJywgJzIwMCcsICctbWV0YWxfYmluZGluZycsICctaW1hZScsICc8aW5maWxlLm1hZT4nLCAnLW9tYWUnLCAnPG91dGZpbGUubWFlPic=

> <r_lp_tautomer_probability>
1

> <r_epik_Ionization_Penalty>
0.000331174

> <r_epik_Ionization_Penalty_Charging>
0.000242709

> <r_epik_Ionization_Penalty_Neutral>
8.84659e-05

> <r_epik_State_Penalty>
-0

> <r_epik_Charging_Adjusted_Penalty>
0.000242709

> <i_epik_Tot_Q>
1

> <i_epik_Tot_abs_Q>
1

> <r_epik_Metal_State_Penalty>
-0

> <b_epik_Metal_Only>
0

> <s_lp_Force_Field>
OPLS_2005

> <r_lp_Energy>
51.1066

> <b_lp_Chiralities_Consistent>
1

> <s_lp_Variant>
AV-unprocessed.smi:3201-4

> <Gold.Version>
5.8.1

> <Gold.Id.Protein>
6NUR|6NUR_protein|mol2

> <Gold.PLP.Fitness>
47.2810

> <Gold.PLP.PLP>
-39.8121

> <Gold.PLP.part.hbond>
-1.0000

> <Gold.PLP.part.metal>
0.0000

> <Gold.PLP.part.buried>
-1.6796

> <Gold.PLP.part.nonpolar>
-37.0914

> <Gold.PLP.part.repulsive>
0.1872

> <Gold.PLP.ligand.clash>
0.0000

> <Gold.PLP.ligand.torsion>
0.7731

> <Gold.PLP.Chemscore.Hbond>
2.0000

> <Gold.PLP.Chemscore.CHOScore>
1.0000

> <Gold.PLP.Chemscore.Metal>
0.0000

> <Gold.Chemscore.Hbonds>
donor molecule, donor type, donor heavy atom, donor atom, acceptor molecule, acceptor atom, score
      L1  H     6    41       P1  8028  2.00
      L1  C    14    37       P1  8028  1.00

> <Gold.PLP.Chemscore.Internal.Correction>
0.0151

> <Gold.Rescore>
     Score         DG    S(hbond)    S(metal)    S(lipo)     H(rot)  DE(clash)    DE(int)     intcor
     19.41     -20.27       0.99        0.00     127.95       1.36       0.18       0.69       ----

> <Gold.Chemscore.Fitness>
19.4057

> <Gold.Chemscore.DG>
-20.2731

> <Gold.Chemscore.ZeroCoef>
-5.4800

> <Gold.Chemscore.Hbond>
0.9886

> <Gold.Chemscore.Metal>
0.0000

> <Gold.Chemscore.Lipo>
127.9467

> <Gold.Chemscore.Internal_Hbond>
0.0000

> <Gold.Chemscore.DEClash>
0.1806

> <Gold.Chemscore.DEInternal>
0.6868

> <Gold.Chemscore.Rot>
1.3588

> <Gold.Chemscore.Internal.Correction>
   9.000000E+99

> <Gold.Chemscore.Hbonds>
donor molecule, donor type, donor heavy atom, donor atom, acceptor molecule, acceptor atom, score
      L1  H     6    41       P1  8028  0.97

> <Gold.Chemscore.Hbond.Weighted>
-3.3019

> <Gold.Chemscore.Metal.Weighted>
-0.0000

> <Gold.Chemscore.Lipo.Weighted>
-14.9698

> <Gold.Chemscore.Internal_Hbond.Weighted>
0.0000

> <Gold.Chemscore.DEClash.Weighted>
0.1806

> <Gold.Chemscore.DEInternal.Weighted>
0.6868

> <Gold.Chemscore.Rot.Weighted>
3.4786

> <Gold.Chemscore.Internal.Correction.Weighted>
   9.000000E+99

> <Gold.Protein.RotatedTorsions>
[ 6907 6896 6895 6894 ] final   72.63 input  -60.11 | X-H torsion
[ 7974 7965 7964 7962 ] final  -50.19 input  175.53 | X-H torsion
[ 8008 7997 7996 7995 ] final   59.28 input   59.86 | X-H torsion
[ 10167 10162 10161 10158 ] final  121.87 input  -65.29 | X-H torsion
[ 10718 10713 10712 10709 ] final  -88.37 input   66.30 | X-H torsion
[ 10763 10752 10751 10750 ] final  166.29 input  -60.55 | X-H torsion
[ 11005 11000 10999 10996 ] final   46.81 input  -57.11 | X-H torsion

> <Gold.Protein.ActiveResidues>
 VAL166  LYS551  ARG553  GLY616  TRP617  ASP618  TYR619  PRO620  LYS621  CYS622 
 ASP623  PHE694  ASN695  SER759  ASP760  ASP761  ALA762  ILE779  LEU786  VAL792 
 PHE793  MET794  SER795  GLU796  ALA797  LYS798  CYS799  TRP800  GLU811  SER814 

> <Gold.Protein.RotatedAtoms>
  152.4878  134.4543  159.9584 H   0  0  0  0  0  0  0  0  0  0  0  0  # atno 6907 bound_to 6896
  151.4536  133.3605  159.2806 H   0  0  0  0  0  0  0  0  0  0  0  0  # atno 6908 bound_to 6896
  150.9005  134.8441  159.7417 H   0  0  0  0  0  0  0  0  0  0  0  0  # atno 6909 bound_to 6896
  145.9325  140.7736  142.9592 H   0  0  0  0  0  0  0  0  0  0  0  0  # atno 7974 bound_to 7965
  155.5636  140.3488  155.4497 H   0  0  0  0  0  0  0  0  0  0  0  0  # atno 8008 bound_to 7997
  156.0496  140.1314  157.0090 H   0  0  0  0  0  0  0  0  0  0  0  0  # atno 8009 bound_to 7997
  154.4428  140.1007  156.6342 H   0  0  0  0  0  0  0  0  0  0  0  0  # atno 8010 bound_to 7997
  139.5893  144.7019  151.3330 H   0  0  0  0  0  0  0  0  0  0  0  0  # atno 10167 bound_to 10162
  155.9984  130.4833  150.5009 H   0  0  0  0  0  0  0  0  0  0  0  0  # atno 10718 bound_to 10713
  154.3368  135.2754  155.2443 H   0  0  0  0  0  0  0  0  0  0  0  0  # atno 10763 bound_to 10752
  154.4731  135.5878  153.6339 H   0  0  0  0  0  0  0  0  0  0  0  0  # atno 10764 bound_to 10752
  152.9861  135.6093  154.3566 H   0  0  0  0  0  0  0  0  0  0  0  0  # atno 10765 bound_to 10752
  140.1335  134.4675  155.8503 H   0  0  0  0  0  0  0  0  0  0  0  0  # atno 11005 bound_to 11000
  144.6767  140.2150  143.7373 LP  0  0  0  0  0  0  0  0  0  0  0  0  # atno 17320 bound_to 7965
  145.8407  139.2128  143.1829 LP  0  0  0  0  0  0  0  0  0  0  0  0  # atno 17321 bound_to 7965
  140.7159  143.7268  150.7654 LP  0  0  0  0  0  0  0  0  0  0  0  0  # atno 17342 bound_to 10162
  140.0820  143.4960  152.2525 LP  0  0  0  0  0  0  0  0  0  0  0  0  # atno 17343 bound_to 10162
  157.2993  131.0642  151.2079 LP  0  0  0  0  0  0  0  0  0  0  0  0  # atno 17370 bound_to 10713
  157.3064  130.6868  149.6192 LP  0  0  0  0  0  0  0  0  0  0  0  0  # atno 17371 bound_to 10713
  141.2174  133.6805  156.7114 LP  0  0  0  0  0  0  0  0  0  0  0  0  # atno 17394 bound_to 11000
  140.2812  134.8315  157.3935 LP  0  0  0  0  0  0  0  0  0  0  0  0  # atno 17395 bound_to 11000

$$$$
