AV-unprocessed.smi:2314|AV-procd|sdf|9267|dock5
  -GOLD-   2272012493D 1   1.00000     0.00000
 Structure written by MMmdl.
 37 38  0  0  0  0  0  0  0  0  1 V2000
  148.5409  141.6249  154.5659 C   0  0  0  0  0  0  0  0  0  0  0  0
  149.0838  140.2144  154.2739 C   0  0  0  0  0  0  0  0  0  0  0  0
  147.9932  139.2857  153.7175 C   0  0  0  0  0  0  0  0  0  0  0  0
  149.7272  139.6005  155.4442 N   0  0  0  0  0  0  0  0  0  0  0  0
  148.9700  139.1219  156.5897 C   0  0  0  0  0  0  0  0  0  0  0  0
  149.9838  138.3454  157.4358 C   0  0  0  0  0  0  0  0  0  0  0  0
  151.3795  138.7469  156.9319 C   0  0  2  0  0  0  0  0  0  0  0  0
  151.9827  139.7087  157.8519 N   0  0  0  0  0  0  0  0  0  0  0  0
  151.5555  140.9646  158.0472 C   0  0  0  0  0  0  0  0  0  0  0  0
  150.6216  141.4725  157.4264 O   0  0  0  0  0  0  0  0  0  0  0  0
  152.2868  141.5900  158.9841 N   0  0  0  0  0  0  0  0  0  0  0  0
  152.1143  142.9161  159.4573 C   0  0  0  0  0  0  0  0  0  0  0  0
  151.7500  143.9128  158.5285 C   0  0  0  0  0  0  0  0  0  0  0  0
  151.5984  145.2383  158.9825 C   0  0  0  0  0  0  0  0  0  0  0  0
  151.7987  145.6113  160.2642 N   0  0  0  0  0  0  0  0  0  0  0  0
  152.1732  144.6598  161.1459 C   0  0  0  0  0  0  0  0  0  0  0  0
  152.3549  143.3057  160.7981 C   0  0  0  0  0  0  0  0  0  0  0  0
  152.7814  142.4236  161.7336 F   0  0  0  0  0  0  0  0  0  0  0  0
  151.0469  139.4337  155.6083 C   0  0  0  0  0  0  0  0  0  0  0  0
  151.9162  139.7644  154.8023 O   0  0  0  0  0  0  0  0  0  0  0  0
  148.1514  142.0847  153.6571 H   0  0  0  0  0  0  0  0  0  0  0  0
  149.3255  142.2776  154.9495 H   0  0  0  0  0  0  0  0  0  0  0  0
  147.7294  141.6069  155.2938 H   0  0  0  0  0  0  0  0  0  0  0  0
  149.8433  140.3314  153.4988 H   0  0  0  0  0  0  0  0  0  0  0  0
  147.5356  139.7103  152.8236 H   0  0  0  0  0  0  0  0  0  0  0  0
  147.2024  139.1202  154.4497 H   0  0  0  0  0  0  0  0  0  0  0  0
  148.4032  138.3127  153.4441 H   0  0  0  0  0  0  0  0  0  0  0  0
  148.5763  139.9718  157.1491 H   0  0  0  0  0  0  0  0  0  0  0  0
  148.1340  138.4911  156.2850 H   0  0  0  0  0  0  0  0  0  0  0  0
  149.8441  138.5205  158.5037 H   0  0  0  0  0  0  0  0  0  0  0  0
  149.8411  137.2763  157.2718 H   0  0  0  0  0  0  0  0  0  0  0  0
  152.0151  137.8729  156.7786 H   0  0  0  0  0  0  0  0  0  0  0  0
  152.7624  139.3803  158.4027 H   0  0  0  0  0  0  0  0  0  0  0  0
  153.1052  141.1040  159.3198 H   0  0  0  0  0  0  0  0  0  0  0  0
  151.5793  143.6696  157.4901 H   0  0  0  0  0  0  0  0  0  0  0  0
  151.3110  146.0207  158.2961 H   0  0  0  0  0  0  0  0  0  0  0  0
  152.3485  144.9906  162.1588 H   0  0  0  0  0  0  0  0  0  0  0  0
  1  2  1  0  0  0  0
  1 21  1  0  0  0  0
  1 22  1  0  0  0  0
  1 23  1  0  0  0  0
  2  3  1  0  0  0  0
  2  4  1  0  0  0  0
  2 24  1  0  0  0  0
  3 25  1  0  0  0  0
  3 26  1  0  0  0  0
  3 27  1  0  0  0  0
  4 19  1  0  0  0  0
  4  5  1  0  0  0  0
  5  6  1  0  0  0  0
  5 28  1  0  0  0  0
  5 29  1  0  0  0  0
  6  7  1  0  0  0  0
  6 30  1  0  0  0  0
  6 31  1  0  0  0  0
  7  8  1  0  0  0  0
  7 19  1  0  0  0  0
  7 32  1  0  0  0  0
  8  9  1  0  0  0  0
  8 33  1  0  0  0  0
  9 10  2  0  0  0  0
  9 11  1  0  0  0  0
 11 12  1  0  0  0  0
 11 34  1  0  0  0  0
 12 17  1  0  0  0  0
 12 13  2  0  0  0  0
 13 14  1  0  0  0  0
 13 35  1  0  0  0  0
 14 15  2  0  0  0  0
 14 36  1  0  0  0  0
 15 16  1  0  0  0  0
 16 17  2  0  0  0  0
 16 37  1  0  0  0  0
 17 18  1  0  0  0  0
 19 20  2  0  0  0  0
M  END
> <s_m_source_file>
AV-unprocessed.smi

> <i_m_source_file_index>
2314

> <i_lp_mmshare_version>
43012

> <i_f3d_flags>
0

> <s_epik_input>
W0NIM11bQ0hdKFtDSDNdKU4xW0NIMl1bQ0gyXVtDQEhdKEMxPU8pW05IXUMoPU8pW05IXWMyW2NIXVtjSF1uW2NIXWMyRg==

> <s_epik_cmdline>
J2VwaWtfcHl0aG9uJywgJy1waCcsICc3LjAnLCAnLXRuJywgJzgnLCAnLW1hJywgJzIwMCcsICctbWV0YWxfYmluZGluZycsICctaW1hZScsICc8aW5maWxlLm1hZT4nLCAnLW9tYWUnLCAnPG91dGZpbGUubWFlPic=

> <r_epik_Ionization_Penalty>
0.00267735

> <r_epik_Ionization_Penalty_Charging>
0

> <r_epik_Ionization_Penalty_Neutral>
0.00267735

> <r_epik_State_Penalty>
0.00184148

> <r_epik_Charging_Adjusted_Penalty>
0.00184148

> <i_epik_Tot_Q>
0

> <i_epik_Tot_abs_Q>
0

> <r_epik_Metal_State_Penalty>
-0

> <b_epik_Metal_Only>
0

> <s_lp_Force_Field>
OPLS_2005

> <r_lp_Energy>
28.4638

> <b_lp_Chiralities_Consistent>
1

> <s_lp_Variant>
AV-unprocessed.smi:2314-2

> <Gold.Version>
5.8.1

> <Gold.Id.Protein>
6NUR|6NUR_protein|mol2

> <Gold.PLP.Fitness>
40.5622

> <Gold.PLP.PLP>
-38.7251

> <Gold.PLP.part.hbond>
-1.0000

> <Gold.PLP.part.metal>
0.0000

> <Gold.PLP.part.buried>
-5.2651

> <Gold.PLP.part.nonpolar>
-32.9844

> <Gold.PLP.part.repulsive>
0.4651

> <Gold.PLP.ligand.clash>
0.0000

> <Gold.PLP.ligand.torsion>
0.5998

> <Gold.PLP.Chemscore.Hbond>
0.9440

> <Gold.PLP.Chemscore.CHOScore>
0.0000

> <Gold.PLP.Chemscore.Metal>
0.0000

> <Gold.Chemscore.Hbonds>
donor molecule, donor type, donor heavy atom, donor atom, acceptor molecule, acceptor atom, score
      P1  H  7989  7998       L1    20  0.94

> <Gold.PLP.Chemscore.Internal.Correction>
0.2047

> <Gold.Rescore>
     Score         DG    S(hbond)    S(metal)    S(lipo)     H(rot)  DE(clash)    DE(int)     intcor
     10.06     -16.04       0.94        0.00      90.97       1.26       0.25       5.73       ----

> <Gold.Chemscore.Fitness>
10.0565

> <Gold.Chemscore.DG>
-16.0366

> <Gold.Chemscore.ZeroCoef>
-5.4800

> <Gold.Chemscore.Hbond>
0.9417

> <Gold.Chemscore.Metal>
0.0000

> <Gold.Chemscore.Lipo>
90.9684

> <Gold.Chemscore.Internal_Hbond>
0.0000

> <Gold.Chemscore.DEClash>
0.2474

> <Gold.Chemscore.DEInternal>
5.7327

> <Gold.Chemscore.Rot>
1.2626

> <Gold.Chemscore.Internal.Correction>
   9.000000E+99

> <Gold.Chemscore.Hbonds>
donor molecule, donor type, donor heavy atom, donor atom, acceptor molecule, acceptor atom, score
      P1  H  7989  7998       L1    20  0.91

> <Gold.Chemscore.Hbond.Weighted>
-3.1454

> <Gold.Chemscore.Metal.Weighted>
-0.0000

> <Gold.Chemscore.Lipo.Weighted>
-10.6433

> <Gold.Chemscore.Internal_Hbond.Weighted>
0.0000

> <Gold.Chemscore.DEClash.Weighted>
0.2474

> <Gold.Chemscore.DEInternal.Weighted>
5.7327

> <Gold.Chemscore.Rot.Weighted>
3.2322

> <Gold.Chemscore.Internal.Correction.Weighted>
   9.000000E+99

> <Gold.Protein.RotatedTorsions>
[ 6907 6896 6895 6894 ] final  -32.87 input  -60.11 | X-H torsion
[ 7974 7965 7964 7962 ] final   -8.87 input  175.53 | X-H torsion
[ 8008 7997 7996 7995 ] final -143.84 input   59.86 | X-H torsion
[ 10167 10162 10161 10158 ] final  -93.47 input  -65.29 | X-H torsion
[ 10718 10713 10712 10709 ] final -174.32 input   66.30 | X-H torsion
[ 10763 10752 10751 10750 ] final   -6.82 input  -60.55 | X-H torsion
[ 11005 11000 10999 10996 ] final  -28.46 input  -57.11 | X-H torsion

> <Gold.Protein.ActiveResidues>
 VAL166  LYS551  ARG553  GLY616  TRP617  ASP618  TYR619  PRO620  LYS621  CYS622 
 ASP623  PHE694  ASN695  SER759  ASP760  ASP761  ALA762  ILE779  LEU786  VAL792 
 PHE793  MET794  SER795  GLU796  ALA797  LYS798  CYS799  TRP800  GLU811  SER814 

> <Gold.Protein.RotatedAtoms>
  151.0730  134.9810  159.8317 H   0  0  0  0  0  0  0  0  0  0  0  0  # atno 6907 bound_to 6896
  152.5411  134.2275  159.8822 H   0  0  0  0  0  0  0  0  0  0  0  0  # atno 6908 bound_to 6896
  151.2301  133.4411  159.2637 H   0  0  0  0  0  0  0  0  0  0  0  0  # atno 6909 bound_to 6896
  146.2268  140.2532  142.8348 H   0  0  0  0  0  0  0  0  0  0  0  0  # atno 7974 bound_to 7965
  155.5172  140.0588  157.2913 H   0  0  0  0  0  0  0  0  0  0  0  0  # atno 8008 bound_to 7997
  154.4530  140.1959  156.0408 H   0  0  0  0  0  0  0  0  0  0  0  0  # atno 8009 bound_to 7997
  156.0744  140.3255  155.7619 H   0  0  0  0  0  0  0  0  0  0  0  0  # atno 8010 bound_to 7997
  140.3244  143.3031  152.0011 H   0  0  0  0  0  0  0  0  0  0  0  0  # atno 10167 bound_to 10162
  156.7834  130.9491  151.3120 H   0  0  0  0  0  0  0  0  0  0  0  0  # atno 10718 bound_to 10713
  153.4177  135.7009  153.6316 H   0  0  0  0  0  0  0  0  0  0  0  0  # atno 10763 bound_to 10752
  153.4783  135.3699  155.2429 H   0  0  0  0  0  0  0  0  0  0  0  0  # atno 10764 bound_to 10752
  154.8720  135.4060  154.3540 H   0  0  0  0  0  0  0  0  0  0  0  0  # atno 10765 bound_to 10752
  140.9211  133.7398  156.0802 H   0  0  0  0  0  0  0  0  0  0  0  0  # atno 11005 bound_to 11000
  144.9395  140.8063  143.5639 LP  0  0  0  0  0  0  0  0  0  0  0  0  # atno 17320 bound_to 7965
  145.2483  139.2042  143.4956 LP  0  0  0  0  0  0  0  0  0  0  0  0  # atno 17321 bound_to 7965
  139.4868  144.6285  151.7116 LP  0  0  0  0  0  0  0  0  0  0  0  0  # atno 17342 bound_to 10162
  140.5454  144.0511  150.6105 LP  0  0  0  0  0  0  0  0  0  0  0  0  # atno 17343 bound_to 10162
  157.6635  130.8987  149.9882 LP  0  0  0  0  0  0  0  0  0  0  0  0  # atno 17370 bound_to 10713
  156.1204  130.3646  149.9897 LP  0  0  0  0  0  0  0  0  0  0  0  0  # atno 17371 bound_to 10713
  140.7987  134.3534  157.5445 LP  0  0  0  0  0  0  0  0  0  0  0  0  # atno 17394 bound_to 11000
  139.8775  134.9184  156.3202 LP  0  0  0  0  0  0  0  0  0  0  0  0  # atno 17395 bound_to 11000

$$$$
