AV-unprocessed.smi:2604|AV-procd|sdf|10192|dock2
  -GOLD-   2272014203D 1   1.00000     0.00000
 Structure written by MMmdl.
 26 27  0  0  0  0  0  0  0  0  2 V2000
  152.2969  142.4524  159.8000 C   0  0  0  0  0  0  0  0  0  0  0  0
  152.1876  143.8537  159.8957 C   0  0  0  0  0  0  0  0  0  0  0  0
  151.7306  144.6299  158.8899 N   0  0  0  0  0  0  0  0  0  0  0  0
  151.3648  144.0259  157.7393 C   0  0  0  0  0  0  0  0  0  0  0  0
  151.4341  142.6300  157.5355 C   0  0  0  0  0  0  0  0  0  0  0  0
  150.9926  142.0200  156.2142 C   0  0  1  0  0  0  0  0  0  0  0  0
  151.3647  140.5246  156.0864 C   0  0  0  0  0  0  0  0  0  0  0  0
  150.9461  140.0166  154.7835 N   0  0  0  0  0  0  0  0  0  0  0  0
  149.4945  140.1277  154.6767 C   0  0  0  0  0  0  0  0  0  0  0  0
  149.0774  141.6081  154.7588 C   0  0  0  0  0  0  0  0  0  0  0  0
  149.5353  142.1954  156.0345 N   0  3  0  0  0  0  0  0  0  0  0  0
  151.9126  141.8302  158.5968 C   0  0  0  0  0  0  0  0  0  0  0  0
  152.6649  141.8695  160.6314 H   0  0  0  0  0  0  0  0  0  0  0  0
  152.4710  144.3639  160.8045 H   0  0  0  0  0  0  0  0  0  0  0  0
  151.0018  144.6794  156.9598 H   0  0  0  0  0  0  0  0  0  0  0  0
  151.4908  142.5674  155.4116 H   0  0  0  0  0  0  0  0  0  0  0  0
  152.4440  140.3987  156.1789 H   0  0  0  0  0  0  0  0  0  0  0  0
  150.9039  139.9269  156.8738 H   0  0  0  0  0  0  0  0  0  0  0  0
  151.2196  139.0476  154.6946 H   0  0  0  0  0  0  0  0  0  0  0  0
  149.1773  139.7026  153.7242 H   0  0  0  0  0  0  0  0  0  0  0  0
  149.0157  139.5430  155.4637 H   0  0  0  0  0  0  0  0  0  0  0  0
  149.4987  142.1729  153.9257 H   0  0  0  0  0  0  0  0  0  0  0  0
  147.9934  141.7016  154.6928 H   0  0  0  0  0  0  0  0  0  0  0  0
  149.0574  141.7323  156.7940 H   0  0  0  0  0  0  0  0  0  0  0  0
  151.9792  140.7566  158.4997 H   0  0  0  0  0  0  0  0  0  0  0  0
  149.3100  143.1797  156.0520 H   0  0  0  0  0  0  0  0  0  0  0  0
  1 12  1  0  0  0  0
  1  2  2  0  0  0  0
  1 13  1  0  0  0  0
  2  3  1  0  0  0  0
  2 14  1  0  0  0  0
  3  4  2  0  0  0  0
  4  5  1  0  0  0  0
  4 15  1  0  0  0  0
  5  6  1  0  0  0  0
  5 12  2  0  0  0  0
  6 11  1  0  0  0  0
  6  7  1  0  0  0  0
  6 16  1  0  0  0  0
  7  8  1  0  0  0  0
  7 17  1  0  0  0  0
  7 18  1  0  0  0  0
  8  9  1  0  0  0  0
  8 19  1  0  0  0  0
  9 10  1  0  0  0  0
  9 20  1  0  0  0  0
  9 21  1  0  0  0  0
 10 11  1  0  0  0  0
 10 22  1  0  0  0  0
 10 23  1  0  0  0  0
 11 24  1  0  0  0  0
 11 26  1  0  0  0  0
 12 25  1  0  0  0  0
M  CHG  1  11   1
M  END
> <s_m_source_file>
AV-unprocessed.smi

> <i_m_source_file_index>
2604

> <i_lp_mmshare_version>
43012

> <i_f3d_flags>
0

> <s_epik_input>
W2NIXTFbY0hdW2NIXW5bY0hdYzFbQ0BASF0yW0NIMl1bTkhdW0NIMl1bQ0gyXVtOSF0y

> <s_epik_cmdline>
J2VwaWtfcHl0aG9uJywgJy1waCcsICc3LjAnLCAnLXRuJywgJzgnLCAnLW1hJywgJzIwMCcsICctbWV0YWxfYmluZGluZycsICctaW1hZScsICc8aW5maWxlLm1hZT4nLCAnLW9tYWUnLCAnPG91dGZpbGUubWFlPic=

> <r_epik_Ionization_Penalty>
0.0278512

> <r_epik_Ionization_Penalty_Charging>
0.015072

> <r_epik_Ionization_Penalty_Neutral>
0.0127792

> <r_epik_State_Penalty>
0.548815

> <r_epik_Charging_Adjusted_Penalty>
0.563887

> <i_epik_Tot_Q>
1

> <i_epik_Tot_abs_Q>
1

> <r_epik_Metal_State_Penalty>
0.542887

> <b_epik_Metal_Only>
0

> <s_lp_Force_Field>
OPLS_2005

> <r_lp_Energy>
7.72855

> <b_lp_Chiralities_Consistent>
1

> <s_lp_Variant>
AV-unprocessed.smi:2604-4

> <Gold.Version>
5.8.1

> <Gold.Id.Protein>
6NUR|6NUR_protein|mol2

> <Gold.PLP.Fitness>
41.1121

> <Gold.PLP.PLP>
-29.3778

> <Gold.PLP.part.hbond>
-2.0000

> <Gold.PLP.part.metal>
0.0000

> <Gold.PLP.part.buried>
-4.7111

> <Gold.PLP.part.nonpolar>
-22.8179

> <Gold.PLP.part.repulsive>
0.1754

> <Gold.PLP.ligand.clash>
0.0000

> <Gold.PLP.ligand.torsion>
0.1389

> <Gold.PLP.Chemscore.Hbond>
3.0000

> <Gold.PLP.Chemscore.CHOScore>
1.0000

> <Gold.PLP.Chemscore.Metal>
0.0000

> <Gold.Chemscore.Hbonds>
donor molecule, donor type, donor heavy atom, donor atom, acceptor molecule, acceptor atom, score
      L1  H    11    26       P1  8028  2.00
      P1  H  7989  7998       L1     8  1.00
      L1  C     4    15       P1  8028  1.00

> <Gold.PLP.Chemscore.Internal.Correction>
0.0122

> <Gold.Rescore>
     Score         DG    S(hbond)    S(metal)    S(lipo)     H(rot)  DE(clash)    DE(int)     intcor
     17.35     -17.52       1.40        0.00      84.87       1.00       0.12       0.05       ----

> <Gold.Chemscore.Fitness>
17.3496

> <Gold.Chemscore.DG>
-17.5197

> <Gold.Chemscore.ZeroCoef>
-5.4800

> <Gold.Chemscore.Hbond>
1.3980

> <Gold.Chemscore.Metal>
0.0000

> <Gold.Chemscore.Lipo>
84.8749

> <Gold.Chemscore.Internal_Hbond>
0.0000

> <Gold.Chemscore.DEClash>
0.1152

> <Gold.Chemscore.DEInternal>
0.0549

> <Gold.Chemscore.Rot>
1.0000

> <Gold.Chemscore.Internal.Correction>
   9.000000E+99

> <Gold.Chemscore.Hbonds>
donor molecule, donor type, donor heavy atom, donor atom, acceptor molecule, acceptor atom, score
      L1  H    11    26       P1  8028  1.00
      P1  H  7989  7998       L1     8  0.36

> <Gold.Chemscore.Hbond.Weighted>
-4.6693

> <Gold.Chemscore.Metal.Weighted>
-0.0000

> <Gold.Chemscore.Lipo.Weighted>
-9.9304

> <Gold.Chemscore.Internal_Hbond.Weighted>
0.0000

> <Gold.Chemscore.DEClash.Weighted>
0.1152

> <Gold.Chemscore.DEInternal.Weighted>
0.0549

> <Gold.Chemscore.Rot.Weighted>
2.5600

> <Gold.Chemscore.Internal.Correction.Weighted>
   9.000000E+99

> <Gold.Protein.RotatedTorsions>
[ 6907 6896 6895 6894 ] final  138.63 input  -60.11 | X-H torsion
[ 7974 7965 7964 7962 ] final  152.89 input  175.53 | X-H torsion
[ 8008 7997 7996 7995 ] final  134.88 input   59.86 | X-H torsion
[ 10167 10162 10161 10158 ] final -166.31 input  -65.29 | X-H torsion
[ 10718 10713 10712 10709 ] final   79.17 input   66.30 | X-H torsion
[ 10763 10752 10751 10750 ] final   75.36 input  -60.55 | X-H torsion
[ 11005 11000 10999 10996 ] final   15.11 input  -57.11 | X-H torsion

> <Gold.Protein.ActiveResidues>
 VAL166  LYS551  ARG553  GLY616  TRP617  ASP618  TYR619  PRO620  LYS621  CYS622 
 ASP623  PHE694  ASN695  SER759  ASP760  ASP761  ALA762  ILE779  LEU786  VAL792 
 PHE793  MET794  SER795  GLU796  ALA797  LYS798  CYS799  TRP800  GLU811  SER814 

> <Gold.Protein.RotatedAtoms>
  152.2643  133.5325  159.5400 H   0  0  0  0  0  0  0  0  0  0  0  0  # atno 6907 bound_to 6896
  150.7136  134.0786  159.3899 H   0  0  0  0  0  0  0  0  0  0  0  0  # atno 6908 bound_to 6896
  151.8703  135.0492  160.0529 H   0  0  0  0  0  0  0  0  0  0  0  0  # atno 6909 bound_to 6896
  144.8192  139.6727  143.6108 H   0  0  0  0  0  0  0  0  0  0  0  0  # atno 7974 bound_to 7965
  156.3001  140.2485  156.3490 H   0  0  0  0  0  0  0  0  0  0  0  0  # atno 8008 bound_to 7997
  154.8984  140.0407  157.1898 H   0  0  0  0  0  0  0  0  0  0  0  0  # atno 8009 bound_to 7997
  154.8526  140.2908  155.5593 H   0  0  0  0  0  0  0  0  0  0  0  0  # atno 8010 bound_to 7997
  139.6123  144.0789  152.1854 H   0  0  0  0  0  0  0  0  0  0  0  0  # atno 10167 bound_to 10162
  157.6768  130.9902  150.1893 H   0  0  0  0  0  0  0  0  0  0  0  0  # atno 10718 bound_to 10713
  153.0649  135.4991  154.8178 H   0  0  0  0  0  0  0  0  0  0  0  0  # atno 10763 bound_to 10752
  154.6939  135.2989  154.9442 H   0  0  0  0  0  0  0  0  0  0  0  0  # atno 10764 bound_to 10752
  154.0188  135.6745  153.4823 H   0  0  0  0  0  0  0  0  0  0  0  0  # atno 10765 bound_to 10752
  140.4620  134.1118  155.7718 H   0  0  0  0  0  0  0  0  0  0  0  0  # atno 11005 bound_to 11000
  146.2496  139.6172  142.9436 LP  0  0  0  0  0  0  0  0  0  0  0  0  # atno 17320 bound_to 7965
  145.5145  141.0434  143.2470 LP  0  0  0  0  0  0  0  0  0  0  0  0  # atno 17321 bound_to 7965
  140.0411  144.6007  150.7410 LP  0  0  0  0  0  0  0  0  0  0  0  0  # atno 17342 bound_to 10162
  140.7327  143.2709  151.3891 LP  0  0  0  0  0  0  0  0  0  0  0  0  # atno 17343 bound_to 10162
  156.2608  130.3710  149.8132 LP  0  0  0  0  0  0  0  0  0  0  0  0  # atno 17370 bound_to 10713
  156.5878  130.8493  151.3400 LP  0  0  0  0  0  0  0  0  0  0  0  0  # atno 17371 bound_to 10713
  141.1617  133.8780  157.1830 LP  0  0  0  0  0  0  0  0  0  0  0  0  # atno 17394 bound_to 11000
  139.9939  135.0054  157.0039 LP  0  0  0  0  0  0  0  0  0  0  0  0  # atno 17395 bound_to 11000

$$$$
