AV-unprocessed.smi:1991|AV-procd|sdf|8068|dock5
  -GOLD-   2272010273D 1   1.00000     0.00000
 Structure written by MMmdl.
 44 45  0  0  0  0  0  0  0  0  1 V2000
  147.6709  136.3913  162.8837 C   0  0  0  0  0  0  0  0  0  0  0  0
  148.0484  135.5542  161.6527 C   0  0  1  0  0  0  0  0  0  0  0  0
  146.9978  134.6153  161.4357 O   0  0  0  0  0  0  0  0  0  0  0  0
  145.6796  135.1544  161.4384 C   0  0  0  0  0  0  0  0  0  0  0  0
  144.6722  134.0301  161.7076 C   0  0  0  0  0  0  0  0  0  0  0  0
  144.3974  133.4038  160.5641 F   0  0  0  0  0  0  0  0  0  0  0  0
  145.1838  133.1485  162.5663 F   0  0  0  0  0  0  0  0  0  0  0  0
  143.5415  134.5333  162.2018 F   0  0  0  0  0  0  0  0  0  0  0  0
  148.2409  136.4419  160.4128 C   0  0  0  0  0  0  0  0  0  0  0  0
  147.2952  137.0884  159.9618 O   0  0  0  0  0  0  0  0  0  0  0  0
  149.4672  136.4425  159.8677 N   0  0  0  0  0  0  0  0  0  0  0  0
  149.8802  137.2161  158.7018 C   0  0  0  0  0  0  0  0  0  0  0  0
  151.2635  137.8357  158.8740 C   0  0  0  0  0  0  0  0  0  0  0  0
  151.9970  137.5508  160.0460 C   0  0  0  0  0  0  0  0  0  0  0  0
  153.2860  138.0906  160.2031 C   0  0  0  0  0  0  0  0  0  0  0  0
  153.7979  138.9002  159.1736 C   0  0  0  0  0  0  0  0  0  0  0  0
  153.1106  139.1849  158.0486 N   0  0  0  0  0  0  0  0  0  0  0  0
  151.8670  138.6682  157.8925 C   0  0  0  0  0  0  0  0  0  0  0  0
  151.1706  139.0178  156.7232 N   0  0  0  0  0  0  0  0  0  0  0  0
  150.8346  140.4336  156.6640 C   0  0  0  0  0  0  0  0  0  0  0  0
  149.8693  140.6914  155.4949 C   0  0  0  0  0  0  0  0  0  0  0  0
  150.4531  140.2213  154.2821 O   0  0  0  0  0  0  0  0  0  0  0  0
  150.7241  138.8222  154.3217 C   0  0  0  0  0  0  0  0  0  0  0  0
  151.7097  138.5185  155.4633 C   0  0  0  0  0  0  0  0  0  0  0  0
  148.4295  137.1448  163.0989 H   0  0  0  0  0  0  0  0  0  0  0  0
  147.5762  135.7586  163.7665 H   0  0  0  0  0  0  0  0  0  0  0  0
  146.7186  136.9043  162.7441 H   0  0  0  0  0  0  0  0  0  0  0  0
  148.9735  135.0183  161.8738 H   0  0  0  0  0  0  0  0  0  0  0  0
  145.5748  135.9250  162.2031 H   0  0  0  0  0  0  0  0  0  0  0  0
  145.4647  135.6187  160.4749 H   0  0  0  0  0  0  0  0  0  0  0  0
  150.1757  135.8718  160.3054 H   0  0  0  0  0  0  0  0  0  0  0  0
  149.9282  136.5298  157.8560 H   0  0  0  0  0  0  0  0  0  0  0  0
  149.1279  137.9555  158.4266 H   0  0  0  0  0  0  0  0  0  0  0  0
  151.5792  136.9188  160.8157 H   0  0  0  0  0  0  0  0  0  0  0  0
  153.8689  137.8861  161.0889 H   0  0  0  0  0  0  0  0  0  0  0  0
  154.7844  139.3319  159.2556 H   0  0  0  0  0  0  0  0  0  0  0  0
  150.3882  140.7597  157.6029 H   0  0  0  0  0  0  0  0  0  0  0  0
  151.7479  141.0143  156.5282 H   0  0  0  0  0  0  0  0  0  0  0  0
  148.9111  140.1980  155.6662 H   0  0  0  0  0  0  0  0  0  0  0  0
  149.6672  141.7585  155.4029 H   0  0  0  0  0  0  0  0  0  0  0  0
  149.7946  138.2654  154.4523 H   0  0  0  0  0  0  0  0  0  0  0  0
  151.1491  138.5145  153.3662 H   0  0  0  0  0  0  0  0  0  0  0  0
  152.6700  138.9929  155.2559 H   0  0  0  0  0  0  0  0  0  0  0  0
  151.8849  137.4443  155.5348 H   0  0  0  0  0  0  0  0  0  0  0  0
  1  2  1  0  0  0  0
  1 25  1  0  0  0  0
  1 26  1  0  0  0  0
  1 27  1  0  0  0  0
  2  3  1  0  0  0  0
  2  9  1  0  0  0  0
  2 28  1  0  0  0  0
  3  4  1  0  0  0  0
  4  5  1  0  0  0  0
  4 29  1  0  0  0  0
  4 30  1  0  0  0  0
  5  6  1  0  0  0  0
  5  7  1  0  0  0  0
  5  8  1  0  0  0  0
  9 10  2  0  0  0  0
  9 11  1  0  0  0  0
 11 12  1  0  0  0  0
 11 31  1  0  0  0  0
 12 13  1  0  0  0  0
 12 32  1  0  0  0  0
 12 33  1  0  0  0  0
 13 18  1  0  0  0  0
 13 14  2  0  0  0  0
 14 15  1  0  0  0  0
 14 34  1  0  0  0  0
 15 16  2  0  0  0  0
 15 35  1  0  0  0  0
 16 17  1  0  0  0  0
 16 36  1  0  0  0  0
 17 18  2  0  0  0  0
 18 19  1  0  0  0  0
 19 24  1  0  0  0  0
 19 20  1  0  0  0  0
 20 21  1  0  0  0  0
 20 37  1  0  0  0  0
 20 38  1  0  0  0  0
 21 22  1  0  0  0  0
 21 39  1  0  0  0  0
 21 40  1  0  0  0  0
 22 23  1  0  0  0  0
 23 24  1  0  0  0  0
 23 41  1  0  0  0  0
 23 42  1  0  0  0  0
 24 43  1  0  0  0  0
 24 44  1  0  0  0  0
M  END
> <s_m_source_file>
AV-unprocessed.smi

> <i_m_source_file_index>
1991

> <i_lp_mmshare_version>
43012

> <i_f3d_flags>
0

> <s_epik_input>
RkMoRikoRilbQ0gyXU9bQ0BASF0oW0NIM10pQyg9TylbTkhdW0NIMl1jMVtjSF1bY0hdW2NIXW5jMU4yW0NIMl1bQ0gyXU9bQ0gyXVtDSDJdMg==

> <s_epik_cmdline>
J2VwaWtfcHl0aG9uJywgJy1waCcsICc3LjAnLCAnLXRuJywgJzgnLCAnLW1hJywgJzIwMCcsICctbWV0YWxfYmluZGluZycsICctaW1hZScsICc8aW5maWxlLm1hZT4nLCAnLW9tYWUnLCAnPG91dGZpbGUubWFlPic=

> <r_lp_tautomer_probability>
1

> <r_epik_Ionization_Penalty>
0.00436412

> <r_epik_Ionization_Penalty_Charging>
0

> <r_epik_Ionization_Penalty_Neutral>
0.00436412

> <r_epik_State_Penalty>
0.00314317

> <r_epik_Charging_Adjusted_Penalty>
0.00314317

> <i_epik_Tot_Q>
0

> <i_epik_Tot_abs_Q>
0

> <r_epik_Metal_State_Penalty>
-0

> <b_epik_Metal_Only>
0

> <s_lp_Force_Field>
OPLS_2005

> <r_lp_Energy>
21.3683

> <b_lp_Chiralities_Consistent>
1

> <s_lp_Variant>
AV-unprocessed.smi:1991-2

> <Gold.Version>
5.8.1

> <Gold.Id.Protein>
6NUR|6NUR_protein|mol2

> <Gold.PLP.Fitness>
45.9412

> <Gold.PLP.PLP>
-38.1091

> <Gold.PLP.part.hbond>
-2.8517

> <Gold.PLP.part.metal>
0.0000

> <Gold.PLP.part.buried>
-5.1308

> <Gold.PLP.part.nonpolar>
-30.9533

> <Gold.PLP.part.repulsive>
0.3499

> <Gold.PLP.ligand.clash>
0.0000

> <Gold.PLP.ligand.torsion>
0.7851

> <Gold.PLP.Chemscore.Hbond>
3.0000

> <Gold.PLP.Chemscore.CHOScore>
0.0000

> <Gold.PLP.Chemscore.Metal>
0.0000

> <Gold.Chemscore.Hbonds>
donor molecule, donor type, donor heavy atom, donor atom, acceptor molecule, acceptor atom, score
      P1  H  6934  6947       L1    10  0.68
      P1  H  7989  7998       L1    22  1.00
      P1  H  7997  8010       L1    17  1.00

> <Gold.PLP.Chemscore.Internal.Correction>
0.4023

> <Gold.Rescore>
     Score         DG    S(hbond)    S(metal)    S(lipo)     H(rot)  DE(clash)    DE(int)     intcor
     14.99     -16.84       2.40        0.00      83.02       2.49       0.06       1.79       ----

> <Gold.Chemscore.Fitness>
14.9856

> <Gold.Chemscore.DG>
-16.8435

> <Gold.Chemscore.ZeroCoef>
-5.4800

> <Gold.Chemscore.Hbond>
2.4025

> <Gold.Chemscore.Metal>
0.0000

> <Gold.Chemscore.Lipo>
83.0208

> <Gold.Chemscore.Internal_Hbond>
0.0000

> <Gold.Chemscore.DEClash>
0.0646

> <Gold.Chemscore.DEInternal>
1.7933

> <Gold.Chemscore.Rot>
2.4899

> <Gold.Chemscore.Internal.Correction>
   9.000000E+99

> <Gold.Chemscore.Hbonds>
donor molecule, donor type, donor heavy atom, donor atom, acceptor molecule, acceptor atom, score
      P1  H  6934  6947       L1    10  0.50
      P1  H  7989  7998       L1    22  0.56
      P1  H  7997  8010       L1    17  0.25

> <Gold.Chemscore.Hbond.Weighted>
-8.0242

> <Gold.Chemscore.Metal.Weighted>
-0.0000

> <Gold.Chemscore.Lipo.Weighted>
-9.7134

> <Gold.Chemscore.Internal_Hbond.Weighted>
0.0000

> <Gold.Chemscore.DEClash.Weighted>
0.0646

> <Gold.Chemscore.DEInternal.Weighted>
1.7933

> <Gold.Chemscore.Rot.Weighted>
6.3741

> <Gold.Chemscore.Internal.Correction.Weighted>
   9.000000E+99

> <Gold.Protein.RotatedTorsions>
[ 6907 6896 6895 6894 ] final  107.78 input  -60.11 | X-H torsion
[ 7974 7965 7964 7962 ] final   56.01 input  175.53 | X-H torsion
[ 8008 7997 7996 7995 ] final   39.66 input   59.86 | X-H torsion
[ 10167 10162 10161 10158 ] final  -86.28 input  -65.29 | X-H torsion
[ 10718 10713 10712 10709 ] final -112.73 input   66.30 | X-H torsion
[ 10763 10752 10751 10750 ] final    2.35 input  -60.55 | X-H torsion
[ 11005 11000 10999 10996 ] final -173.49 input  -57.11 | X-H torsion

> <Gold.Protein.ActiveResidues>
 VAL166  LYS551  ARG553  GLY616  TRP617  ASP618  TYR619  PRO620  LYS621  CYS622 
 ASP623  PHE694  ASN695  SER759  ASP760  ASP761  ALA762  ILE779  LEU786  VAL792 
 PHE793  MET794  SER795  GLU796  ALA797  LYS798  CYS799  TRP800  GLU811  SER814 

> <Gold.Protein.RotatedAtoms>
  152.5140  133.9184  159.7522 H   0  0  0  0  0  0  0  0  0  0  0  0  # atno 6907 bound_to 6896
  150.9561  133.6487  159.2770 H   0  0  0  0  0  0  0  0  0  0  0  0  # atno 6908 bound_to 6896
  151.3748  135.0934  159.9530 H   0  0  0  0  0  0  0  0  0  0  0  0  # atno 6909 bound_to 6896
  145.9444  139.3916  143.0344 H   0  0  0  0  0  0  0  0  0  0  0  0  # atno 7974 bound_to 7965
  155.2403  140.3345  155.4293 H   0  0  0  0  0  0  0  0  0  0  0  0  # atno 8008 bound_to 7997
  156.2258  140.1829  156.7411 H   0  0  0  0  0  0  0  0  0  0  0  0  # atno 8009 bound_to 7997
  154.5897  140.0640  156.9206 H   0  0  0  0  0  0  0  0  0  0  0  0  # atno 8010 bound_to 7997
  140.3956  143.2685  151.9208 H   0  0  0  0  0  0  0  0  0  0  0  0  # atno 10167 bound_to 10162
  156.0723  130.5935  150.8547 H   0  0  0  0  0  0  0  0  0  0  0  0  # atno 10718 bound_to 10713
  153.2967  135.6953  153.7242 H   0  0  0  0  0  0  0  0  0  0  0  0  # atno 10763 bound_to 10752
  153.6172  135.3434  155.2999 H   0  0  0  0  0  0  0  0  0  0  0  0  # atno 10764 bound_to 10752
  154.8539  135.4377  154.2066 H   0  0  0  0  0  0  0  0  0  0  0  0  # atno 10765 bound_to 10752
  140.4851  134.6038  157.4934 H   0  0  0  0  0  0  0  0  0  0  0  0  # atno 11005 bound_to 11000
  145.8256  140.9657  143.0876 LP  0  0  0  0  0  0  0  0  0  0  0  0  # atno 17320 bound_to 7965
  144.6784  140.0097  143.7484 LP  0  0  0  0  0  0  0  0  0  0  0  0  # atno 17321 bound_to 7965
  139.4787  144.5684  151.8127 LP  0  0  0  0  0  0  0  0  0  0  0  0  # atno 17342 bound_to 10162
  140.4794  144.1472  150.5930 LP  0  0  0  0  0  0  0  0  0  0  0  0  # atno 17343 bound_to 10162
  157.5801  131.0946  150.9285 LP  0  0  0  0  0  0  0  0  0  0  0  0  # atno 17370 bound_to 10713
  156.9483  130.5410  149.5282 LP  0  0  0  0  0  0  0  0  0  0  0  0  # atno 17371 bound_to 10713
  139.9803  134.7149  155.9873 LP  0  0  0  0  0  0  0  0  0  0  0  0  # atno 17394 bound_to 11000
  141.1512  133.6548  156.4018 LP  0  0  0  0  0  0  0  0  0  0  0  0  # atno 17395 bound_to 11000

$$$$
