AV-unprocessed.smi:2881|AV-procd|sdf|11056|dock9
  -GOLD-   2272015523D 1   1.00000     0.00000
 Structure written by MMmdl.
 40 42  0  0  0  0  0  0  0  0  1 V2000
  151.2034  136.9851  154.8445 C   0  0  0  0  0  0  0  0  0  0  0  0
  151.4746  137.2240  156.2908 C   0  0  0  0  0  0  0  0  0  0  0  0
  151.6052  138.3797  157.0076 C   0  0  0  0  0  0  0  0  0  0  0  0
  151.8467  137.9421  158.3436 C   0  0  0  0  0  0  0  0  0  0  0  0
  152.0421  138.7877  159.5754 C   0  0  0  0  0  0  0  0  0  0  0  0
  152.8899  140.0165  159.2413 C   0  0  0  0  0  0  0  0  0  0  0  0
  154.0231  139.8810  158.7808 O   0  0  0  0  0  0  0  0  0  0  0  0
  152.3218  141.2102  159.4695 N   0  0  0  0  0  0  0  0  0  0  0  0
  152.9106  142.5083  159.1483 C   0  0  1  0  0  0  0  0  0  0  0  0
  152.1332  143.2774  158.0467 C   0  0  1  0  0  0  0  0  0  0  0  0
  150.6203  143.3194  158.3528 C   0  0  0  0  0  0  0  0  0  0  0  0
  150.5518  144.2610  159.5679 C   0  0  0  0  0  0  0  0  0  0  0  0
  152.0258  144.6733  159.7701 C   0  0  2  0  0  0  0  0  0  0  0  0
  152.5223  144.7243  158.3303 C   0  0  0  0  0  0  0  0  0  0  0  0
  152.8792  143.5141  160.3361 C   0  0  1  0  0  0  0  0  0  0  0  0
  152.4301  142.9947  161.7215 C   0  0  0  0  0  0  0  0  0  0  0  0
  152.1590  144.0752  162.5898 O   0  0  0  0  0  0  0  0  0  0  0  0
  151.8727  136.6194  158.4435 N   0  0  0  0  0  0  0  0  0  0  0  0
  151.6421  136.1945  157.1877 N   0  0  0  0  0  0  0  0  0  0  0  0
  151.6037  135.2113  156.9594 H   0  0  0  0  0  0  0  0  0  0  0  0
  151.2785  137.9121  154.2756 H   0  0  0  0  0  0  0  0  0  0  0  0
  150.2008  136.5821  154.7012 H   0  0  0  0  0  0  0  0  0  0  0  0
  151.9175  136.2754  154.4265 H   0  0  0  0  0  0  0  0  0  0  0  0
  151.5291  139.3911  156.6365 H   0  0  0  0  0  0  0  0  0  0  0  0
  151.0853  139.1153  159.9846 H   0  0  0  0  0  0  0  0  0  0  0  0
  152.5334  138.2075  160.3575 H   0  0  0  0  0  0  0  0  0  0  0  0
  151.3909  141.2196  159.8607 H   0  0  0  0  0  0  0  0  0  0  0  0
  153.9464  142.3583  158.8384 H   0  0  0  0  0  0  0  0  0  0  0  0
  152.3593  142.9359  157.0362 H   0  0  0  0  0  0  0  0  0  0  0  0
  150.0752  143.7493  157.5114 H   0  0  0  0  0  0  0  0  0  0  0  0
  150.1813  142.3420  158.5523 H   0  0  0  0  0  0  0  0  0  0  0  0
  149.9387  145.1322  159.3342 H   0  0  0  0  0  0  0  0  0  0  0  0
  150.1142  143.7834  160.4436 H   0  0  0  0  0  0  0  0  0  0  0  0
  152.1440  145.6063  160.3218 H   0  0  0  0  0  0  0  0  0  0  0  0
  153.5947  144.9086  158.2447 H   0  0  0  0  0  0  0  0  0  0  0  0
  151.9878  145.4474  157.7113 H   0  0  0  0  0  0  0  0  0  0  0  0
  153.8906  143.9060  160.4618 H   0  0  0  0  0  0  0  0  0  0  0  0
  151.5173  142.4074  161.6194 H   0  0  0  0  0  0  0  0  0  0  0  0
  153.1750  142.3458  162.1818 H   0  0  0  0  0  0  0  0  0  0  0  0
  151.3010  144.4162  162.3875 H   0  0  0  0  0  0  0  0  0  0  0  0
  1  2  1  0  0  0  0
  1 21  1  0  0  0  0
  1 22  1  0  0  0  0
  1 23  1  0  0  0  0
  2 19  1  0  0  0  0
  2  3  2  0  0  0  0
  3  4  1  0  0  0  0
  3 24  1  0  0  0  0
  4  5  1  0  0  0  0
  4 18  2  0  0  0  0
  5  6  1  0  0  0  0
  5 25  1  0  0  0  0
  5 26  1  0  0  0  0
  6  7  2  0  0  0  0
  6  8  1  0  0  0  0
  8  9  1  0  0  0  0
  8 27  1  0  0  0  0
  9 15  1  0  0  0  0
  9 10  1  0  0  0  0
  9 28  1  0  0  0  0
 10 14  1  0  0  0  0
 10 11  1  0  0  0  0
 10 29  1  0  0  0  0
 11 12  1  0  0  0  0
 11 30  1  0  0  0  0
 11 31  1  0  0  0  0
 12 13  1  0  0  0  0
 12 32  1  0  0  0  0
 12 33  1  0  0  0  0
 13 14  1  0  0  0  0
 13 15  1  0  0  0  0
 13 34  1  0  0  0  0
 14 35  1  0  0  0  0
 14 36  1  0  0  0  0
 15 16  1  0  0  0  0
 15 37  1  0  0  0  0
 16 17  1  0  0  0  0
 16 38  1  0  0  0  0
 16 39  1  0  0  0  0
 17 40  1  0  0  0  0
 18 19  1  0  0  0  0
 19 20  1  0  0  0  0
M  END
> <s_m_source_file>
AV-unprocessed.smi

> <i_m_source_file_index>
2881

> <i_lp_mmshare_version>
43012

> <i_f3d_flags>
0

> <s_epik_input>
W0NIM11jMVtjSF1jKG5bbkhdMSlbQ0gyXUMoPU8pW05IXVtDQEhdKFtDQEBIXTIzKVtDQEhdKFtDSDJdW09IXSlbQ0BASF0oW0NIMl0zKVtDSDJdW0NIMl0y

> <s_epik_cmdline>
J2VwaWtfcHl0aG9uJywgJy1waCcsICc3LjAnLCAnLXRuJywgJzgnLCAnLW1hJywgJzIwMCcsICctbWV0YWxfYmluZGluZycsICctaW1hZScsICc8aW5maWxlLm1hZT4nLCAnLW9tYWUnLCAnPG91dGZpbGUubWFlPic=

> <r_lp_tautomer_probability>
0.5

> <r_epik_Ionization_Penalty>
9.4349e-05

> <r_epik_Ionization_Penalty_Charging>
0

> <r_epik_Ionization_Penalty_Neutral>
9.4349e-05

> <r_epik_State_Penalty>
0.41068

> <r_epik_Charging_Adjusted_Penalty>
0.41068

> <i_epik_Tot_Q>
0

> <i_epik_Tot_abs_Q>
0

> <r_epik_Metal_State_Penalty>
0.4107

> <b_epik_Metal_Only>
0

> <s_lp_Force_Field>
OPLS_2005

> <r_lp_Energy>
48.3908

> <b_lp_Chiralities_Consistent>
1

> <s_lp_Variant>
AV-unprocessed.smi:2881-2

> <Gold.Version>
5.8.1

> <Gold.Id.Protein>
6NUR|6NUR_protein|mol2

> <Gold.PLP.Fitness>
42.8127

> <Gold.PLP.PLP>
-39.1548

> <Gold.PLP.part.hbond>
-4.0000

> <Gold.PLP.part.metal>
0.0000

> <Gold.PLP.part.buried>
-6.4197

> <Gold.PLP.part.nonpolar>
-29.6997

> <Gold.PLP.part.repulsive>
0.2793

> <Gold.PLP.ligand.clash>
0.0000

> <Gold.PLP.ligand.torsion>
0.4613

> <Gold.PLP.Chemscore.Hbond>
1.5223

> <Gold.PLP.Chemscore.CHOScore>
0.0000

> <Gold.PLP.Chemscore.Metal>
0.0000

> <Gold.Chemscore.Hbonds>
donor molecule, donor type, donor heavy atom, donor atom, acceptor molecule, acceptor atom, score
      P1  H  6896  6908       L1    18  0.47
      P1  H  7997  8010       L1     7  1.00

> <Gold.PLP.Chemscore.Internal.Correction>
0.0134

> <Gold.Rescore>
     Score         DG    S(hbond)    S(metal)    S(lipo)     H(rot)  DE(clash)    DE(int)     intcor
     17.72     -18.09       1.51        0.00     114.54       2.28       0.06       0.31       ----

> <Gold.Chemscore.Fitness>
17.7219

> <Gold.Chemscore.DG>
-18.0884

> <Gold.Chemscore.ZeroCoef>
-5.4800

> <Gold.Chemscore.Hbond>
1.5069

> <Gold.Chemscore.Metal>
0.0000

> <Gold.Chemscore.Lipo>
114.5360

> <Gold.Chemscore.Internal_Hbond>
0.0000

> <Gold.Chemscore.DEClash>
0.0609

> <Gold.Chemscore.DEInternal>
0.3057

> <Gold.Chemscore.Rot>
2.2755

> <Gold.Chemscore.Internal.Correction>
   9.000000E+99

> <Gold.Chemscore.Hbonds>
donor molecule, donor type, donor heavy atom, donor atom, acceptor molecule, acceptor atom, score
      P1  H  6896  6908       L1    18  0.38
      P1  H  7997  8010       L1     7  0.96

> <Gold.Chemscore.Hbond.Weighted>
-5.0329

> <Gold.Chemscore.Metal.Weighted>
-0.0000

> <Gold.Chemscore.Lipo.Weighted>
-13.4007

> <Gold.Chemscore.Internal_Hbond.Weighted>
0.0000

> <Gold.Chemscore.DEClash.Weighted>
0.0609

> <Gold.Chemscore.DEInternal.Weighted>
0.3057

> <Gold.Chemscore.Rot.Weighted>
5.8252

> <Gold.Chemscore.Internal.Correction.Weighted>
   9.000000E+99

> <Gold.Protein.RotatedTorsions>
[ 6907 6896 6895 6894 ] final -132.42 input  -60.11 | X-H torsion
[ 7974 7965 7964 7962 ] final  -13.71 input  175.53 | X-H torsion
[ 8008 7997 7996 7995 ] final    4.99 input   59.86 | X-H torsion
[ 10167 10162 10161 10158 ] final  115.00 input  -65.29 | X-H torsion
[ 10718 10713 10712 10709 ] final  169.59 input   66.30 | X-H torsion
[ 10763 10752 10751 10750 ] final   11.53 input  -60.55 | X-H torsion
[ 11005 11000 10999 10996 ] final   28.93 input  -57.11 | X-H torsion

> <Gold.Protein.ActiveResidues>
 VAL166  LYS551  ARG553  GLY616  TRP617  ASP618  TYR619  PRO620  LYS621  CYS622 
 ASP623  PHE694  ASN695  SER759  ASP760  ASP761  ALA762  ILE779  LEU786  VAL792 
 PHE793  MET794  SER795  GLU796  ALA797  LYS798  CYS799  TRP800  GLU811  SER814 

> <Gold.Protein.RotatedAtoms>
  150.9621  133.6433  159.2752 H   0  0  0  0  0  0  0  0  0  0  0  0  # atno 6907 bound_to 6896
  151.3752  135.0929  159.9488 H   0  0  0  0  0  0  0  0  0  0  0  0  # atno 6908 bound_to 6896
  152.5152  133.9167  159.7569 H   0  0  0  0  0  0  0  0  0  0  0  0  # atno 6909 bound_to 6896
  146.2103  140.3242  142.8393 H   0  0  0  0  0  0  0  0  0  0  0  0  # atno 7974 bound_to 7965
  154.7228  140.2715  155.6526 H   0  0  0  0  0  0  0  0  0  0  0  0  # atno 8008 bound_to 7997
  156.2828  140.2731  156.1829 H   0  0  0  0  0  0  0  0  0  0  0  0  # atno 8009 bound_to 7997
  155.0485  140.0371  157.2525 H   0  0  0  0  0  0  0  0  0  0  0  0  # atno 8010 bound_to 7997
  139.6348  144.7118  151.2357 H   0  0  0  0  0  0  0  0  0  0  0  0  # atno 10167 bound_to 10162
  157.0205  131.0230  151.2776 H   0  0  0  0  0  0  0  0  0  0  0  0  # atno 10718 bound_to 10713
  153.1916  135.6843  153.8345 H   0  0  0  0  0  0  0  0  0  0  0  0  # atno 10763 bound_to 10752
  153.7642  135.3205  155.3343 H   0  0  0  0  0  0  0  0  0  0  0  0  # atno 10764 bound_to 10752
  154.8120  135.4711  154.0641 H   0  0  0  0  0  0  0  0  0  0  0  0  # atno 10765 bound_to 10752
  140.3104  134.2656  155.7735 H   0  0  0  0  0  0  0  0  0  0  0  0  # atno 11005 bound_to 11000
  144.8898  140.7509  143.5934 LP  0  0  0  0  0  0  0  0  0  0  0  0  # atno 17320 bound_to 7965
  145.3164  139.1802  143.4611 LP  0  0  0  0  0  0  0  0  0  0  0  0  # atno 17321 bound_to 7965
  140.7459  143.6415  150.8330 LP  0  0  0  0  0  0  0  0  0  0  0  0  # atno 17342 bound_to 10162
  140.0045  143.5708  152.2863 LP  0  0  0  0  0  0  0  0  0  0  0  0  # atno 17343 bound_to 10162
  157.5253  130.8024  149.7855 LP  0  0  0  0  0  0  0  0  0  0  0  0  # atno 17370 bound_to 10713
  156.0104  130.3836  150.2285 LP  0  0  0  0  0  0  0  0  0  0  0  0  # atno 17371 bound_to 10713
  141.2109  133.7704  156.9899 LP  0  0  0  0  0  0  0  0  0  0  0  0  # atno 17394 bound_to 11000
  140.1030  134.9524  157.1951 LP  0  0  0  0  0  0  0  0  0  0  0  0  # atno 17395 bound_to 11000

$$$$
