AV-unprocessed.smi:148|AV-procd|sdf|1202|dock8
  -GOLD-   2262018363D 1   1.00000     0.00000
 Structure written by MMmdl.
 63 67  0  0  0  0  0  0  0  0  1 V2000
  155.5307  139.9833  159.1936 O   0  0  0  0  0  0  0  0  0  0  0  0
  154.6648  139.7005  160.2729 C   0  0  0  0  0  0  0  0  0  0  0  0
  153.2972  140.4010  160.0934 C   0  0  2  0  0  0  0  0  0  0  0  0
  152.6233  140.0009  158.7551 C   0  0  0  0  0  0  0  0  0  0  0  0
  151.8236  138.7945  158.8728 N   0  0  0  0  0  0  0  0  0  0  0  0
  152.2440  137.5755  159.3538 C   0  0  0  0  0  0  0  0  0  0  0  0
  151.3385  136.6357  159.3533 N   0  0  0  0  0  0  0  0  0  0  0  0
  150.2079  137.2551  158.8340 C   0  0  0  0  0  0  0  0  0  0  0  0
  148.8813  136.8267  158.5449 C   0  0  0  0  0  0  0  0  0  0  0  0
  148.4161  135.5712  158.7358 N   0  0  0  0  0  0  0  0  0  0  0  0
  148.4790  134.8210  157.4818 C   0  0  0  0  0  0  0  0  0  0  0  0
  148.1932  133.3310  157.7059 C   0  0  0  0  0  0  0  0  0  0  0  0
  146.8449  133.1505  158.4096 C   0  0  0  0  0  0  0  0  0  0  0  0
  146.8296  133.9430  159.7237 C   0  0  0  0  0  0  0  0  0  0  0  0
  147.1592  135.4421  159.4971 C   0  0  1  0  0  0  0  0  0  0  0  0
  147.1568  136.2828  160.8131 C   0  0  2  0  0  0  0  0  0  0  0  0
  148.2181  135.9043  161.8651 C   0  0  0  0  0  0  0  0  0  0  0  0
  147.6073  136.2356  163.2368 C   0  0  0  0  0  0  0  0  0  0  0  0
  146.2452  136.8773  162.9559 C   0  0  0  0  0  0  0  0  0  0  0  0
  145.8361  136.3119  161.5967 C   0  0  1  0  0  0  0  0  0  0  0  0
  144.8625  137.1225  160.9717 O   0  0  0  0  0  0  0  0  0  0  0  0
  148.0127  137.7384  158.0427 N   0  0  0  0  0  0  0  0  0  0  0  0
  148.4178  138.9913  157.8145 C   0  0  0  0  0  0  0  0  0  0  0  0
  149.6223  139.5300  158.0183 N   0  0  0  0  0  0  0  0  0  0  0  0
  150.4930  138.6169  158.5371 C   0  0  0  0  0  0  0  0  0  0  0  0
  153.4029  141.9381  160.2950 C   0  0  2  0  0  0  0  0  0  0  0  0
  153.5305  142.4071  161.7460 C   0  0  0  0  0  0  0  0  0  0  0  0
  152.4477  143.4755  161.8906 C   0  0  0  0  0  0  0  0  0  0  0  0
  152.2367  143.9291  160.5636 O   0  0  0  0  0  0  0  0  0  0  0  0
  152.2439  142.7769  159.7372 C   0  0  0  0  0  0  0  0  0  0  0  0
  156.1103  140.6843  159.4498 H   0  0  0  0  0  0  0  0  0  0  0  0
  154.5415  138.6214  160.3667 H   0  0  0  0  0  0  0  0  0  0  0  0
  155.1662  140.0406  161.1786 H   0  0  0  0  0  0  0  0  0  0  0  0
  152.6495  140.0328  160.8907 H   0  0  0  0  0  0  0  0  0  0  0  0
  151.9687  140.7902  158.3883 H   0  0  0  0  0  0  0  0  0  0  0  0
  153.3694  139.8388  157.9780 H   0  0  0  0  0  0  0  0  0  0  0  0
  153.2525  137.4035  159.7012 H   0  0  0  0  0  0  0  0  0  0  0  0
  147.7541  135.2324  156.7777 H   0  0  0  0  0  0  0  0  0  0  0  0
  149.4638  134.9361  157.0261 H   0  0  0  0  0  0  0  0  0  0  0  0
  148.1934  132.8026  156.7523 H   0  0  0  0  0  0  0  0  0  0  0  0
  148.9877  132.8894  158.3089 H   0  0  0  0  0  0  0  0  0  0  0  0
  146.0395  133.4957  157.7603 H   0  0  0  0  0  0  0  0  0  0  0  0
  146.6598  132.0938  158.6046 H   0  0  0  0  0  0  0  0  0  0  0  0
  145.8473  133.8252  160.1780 H   0  0  0  0  0  0  0  0  0  0  0  0
  147.5450  133.4918  160.4102 H   0  0  0  0  0  0  0  0  0  0  0  0
  146.3647  135.8374  158.8638 H   0  0  0  0  0  0  0  0  0  0  0  0
  147.3513  137.3247  160.5537 H   0  0  0  0  0  0  0  0  0  0  0  0
  148.4773  134.8474  161.8280 H   0  0  0  0  0  0  0  0  0  0  0  0
  149.1408  136.4609  161.6988 H   0  0  0  0  0  0  0  0  0  0  0  0
  147.4718  135.3158  163.8068 H   0  0  0  0  0  0  0  0  0  0  0  0
  148.2485  136.8925  163.8255 H   0  0  0  0  0  0  0  0  0  0  0  0
  145.5134  136.6694  163.7369 H   0  0  0  0  0  0  0  0  0  0  0  0
  146.3628  137.9604  162.8915 H   0  0  0  0  0  0  0  0  0  0  0  0
  145.4341  135.3109  161.7455 H   0  0  0  0  0  0  0  0  0  0  0  0
  144.5642  136.6845  160.1892 H   0  0  0  0  0  0  0  0  0  0  0  0
  147.6710  139.6563  157.4066 H   0  0  0  0  0  0  0  0  0  0  0  0
  154.3089  142.2834  159.7953 H   0  0  0  0  0  0  0  0  0  0  0  0
  153.4161  141.6144  162.4846 H   0  0  0  0  0  0  0  0  0  0  0  0
  154.5155  142.8485  161.9033 H   0  0  0  0  0  0  0  0  0  0  0  0
  151.5240  143.0397  162.2749 H   0  0  0  0  0  0  0  0  0  0  0  0
  152.7446  144.2893  162.5525 H   0  0  0  0  0  0  0  0  0  0  0  0
  152.3865  143.0408  158.6890 H   0  0  0  0  0  0  0  0  0  0  0  0
  151.2800  142.2780  159.8307 H   0  0  0  0  0  0  0  0  0  0  0  0
  1  2  1  0  0  0  0
  1 31  1  0  0  0  0
  2  3  1  0  0  0  0
  2 32  1  0  0  0  0
  2 33  1  0  0  0  0
  3  4  1  0  0  0  0
  3 26  1  0  0  0  0
  3 34  1  0  0  0  0
  4  5  1  0  0  0  0
  4 35  1  0  0  0  0
  4 36  1  0  0  0  0
  5 25  1  0  0  0  0
  5  6  1  0  0  0  0
  6  7  2  0  0  0  0
  6 37  1  0  0  0  0
  7  8  1  0  0  0  0
  8 25  2  0  0  0  0
  8  9  1  0  0  0  0
  9 10  1  0  0  0  0
  9 22  2  0  0  0  0
 10 15  1  0  0  0  0
 10 11  1  0  0  0  0
 11 12  1  0  0  0  0
 11 38  1  0  0  0  0
 11 39  1  0  0  0  0
 12 13  1  0  0  0  0
 12 40  1  0  0  0  0
 12 41  1  0  0  0  0
 13 14  1  0  0  0  0
 13 42  1  0  0  0  0
 13 43  1  0  0  0  0
 14 15  1  0  0  0  0
 14 44  1  0  0  0  0
 14 45  1  0  0  0  0
 15 16  1  0  0  0  0
 15 46  1  0  0  0  0
 16 20  1  0  0  0  0
 16 17  1  0  0  0  0
 16 47  1  0  0  0  0
 17 18  1  0  0  0  0
 17 48  1  0  0  0  0
 17 49  1  0  0  0  0
 18 19  1  0  0  0  0
 18 50  1  0  0  0  0
 18 51  1  0  0  0  0
 19 20  1  0  0  0  0
 19 52  1  0  0  0  0
 19 53  1  0  0  0  0
 20 21  1  0  0  0  0
 20 54  1  0  0  0  0
 21 55  1  0  0  0  0
 22 23  1  0  0  0  0
 23 24  2  0  0  0  0
 23 56  1  0  0  0  0
 24 25  1  0  0  0  0
 26 30  1  0  0  0  0
 26 27  1  0  0  0  0
 26 57  1  0  0  0  0
 27 28  1  0  0  0  0
 27 58  1  0  0  0  0
 27 59  1  0  0  0  0
 28 29  1  0  0  0  0
 28 60  1  0  0  0  0
 28 61  1  0  0  0  0
 29 30  1  0  0  0  0
 30 62  1  0  0  0  0
 30 63  1  0  0  0  0
M  END
> <s_m_source_file>
AV-unprocessed.smi

> <i_m_source_file_index>
148

> <i_lp_mmshare_version>
43012

> <i_f3d_flags>
0

> <s_epik_input>
W0NIMl0xT1tDSDJdW0NIMl1bQ0BIXTFbQ0BIXShbQ0gyXVtPSF0pW0NIMl1uKFtjSF1uMiljKGMyMyluW2NIXW5jM040W0NIMl1bQ0gyXVtDSDJdW0NIMl1bQ0BIXTRbQ0BASF01W0NIMl1bQ0gyXVtDSDJdW0NASF01W09IXQ==

> <s_epik_cmdline>
J2VwaWtfcHl0aG9uJywgJy1waCcsICc3LjAnLCAnLXRuJywgJzgnLCAnLW1hJywgJzIwMCcsICctbWV0YWxfYmluZGluZycsICctaW1hZScsICc8aW5maWxlLm1hZT4nLCAnLW9tYWUnLCAnPG91dGZpbGUubWFlPic=

> <r_lp_tautomer_probability>
1

> <r_epik_Ionization_Penalty>
0.00556303

> <r_epik_Ionization_Penalty_Charging>
0

> <r_epik_Ionization_Penalty_Neutral>
0.00556303

> <r_epik_State_Penalty>
0.00401767

> <r_epik_Charging_Adjusted_Penalty>
0.00401767

> <i_epik_Tot_Q>
0

> <i_epik_Tot_abs_Q>
0

> <r_epik_Metal_State_Penalty>
-0

> <b_epik_Metal_Only>
0

> <s_lp_Force_Field>
OPLS_2005

> <r_lp_Energy>
68.457

> <b_lp_Chiralities_Consistent>
1

> <s_lp_Variant>
AV-unprocessed.smi:148-1

> <Gold.Version>
5.8.1

> <Gold.Id.Protein>
6NUR|6NUR_protein|mol2

> <Gold.PLP.Fitness>
48.7265

> <Gold.PLP.PLP>
-44.8817

> <Gold.PLP.part.hbond>
-2.0000

> <Gold.PLP.part.metal>
0.0000

> <Gold.PLP.part.buried>
-8.1324

> <Gold.PLP.part.nonpolar>
-35.3009

> <Gold.PLP.part.repulsive>
0.0704

> <Gold.PLP.ligand.clash>
0.0000

> <Gold.PLP.ligand.torsion>
1.2771

> <Gold.PLP.Chemscore.Hbond>
2.0000

> <Gold.PLP.Chemscore.CHOScore>
0.0000

> <Gold.PLP.Chemscore.Metal>
0.0000

> <Gold.Chemscore.Hbonds>
donor molecule, donor type, donor heavy atom, donor atom, acceptor molecule, acceptor atom, score
      P1  H  6896  6907       L1     7  0.99
      P1  H  7997  8009       L1     1  1.00

> <Gold.PLP.Chemscore.Internal.Correction>
0.3991

> <Gold.Rescore>
     Score         DG    S(hbond)    S(metal)    S(lipo)     H(rot)  DE(clash)    DE(int)     intcor
     15.31     -16.65       1.70        0.00     119.61       3.32       0.21       1.13       ----

> <Gold.Chemscore.Fitness>
15.3143

> <Gold.Chemscore.DG>
-16.6490

> <Gold.Chemscore.ZeroCoef>
-5.4800

> <Gold.Chemscore.Hbond>
1.6992

> <Gold.Chemscore.Metal>
0.0000

> <Gold.Chemscore.Lipo>
119.6055

> <Gold.Chemscore.Internal_Hbond>
0.0000

> <Gold.Chemscore.DEClash>
0.2062

> <Gold.Chemscore.DEInternal>
1.1286

> <Gold.Chemscore.Rot>
3.3203

> <Gold.Chemscore.Internal.Correction>
   9.000000E+99

> <Gold.Chemscore.Hbonds>
donor molecule, donor type, donor heavy atom, donor atom, acceptor molecule, acceptor atom, score
      P1  H  6896  6907       L1     7  0.88
      P1  H  7997  8009       L1     1  0.54

> <Gold.Chemscore.Hbond.Weighted>
-5.6752

> <Gold.Chemscore.Metal.Weighted>
-0.0000

> <Gold.Chemscore.Lipo.Weighted>
-13.9938

> <Gold.Chemscore.Internal_Hbond.Weighted>
0.0000

> <Gold.Chemscore.DEClash.Weighted>
0.2062

> <Gold.Chemscore.DEInternal.Weighted>
1.1286

> <Gold.Chemscore.Rot.Weighted>
8.5000

> <Gold.Chemscore.Internal.Correction.Weighted>
   9.000000E+99

> <Gold.Protein.RotatedTorsions>
[ 6907 6896 6895 6894 ] final  -26.63 input  -60.11 | X-H torsion
[ 7974 7965 7964 7962 ] final   92.49 input  175.53 | X-H torsion
[ 8008 7997 7996 7995 ] final  101.51 input   59.86 | X-H torsion
[ 10167 10162 10161 10158 ] final  144.24 input  -65.29 | X-H torsion
[ 10718 10713 10712 10709 ] final  -47.11 input   66.30 | X-H torsion
[ 10763 10752 10751 10750 ] final -176.49 input  -60.55 | X-H torsion
[ 11005 11000 10999 10996 ] final -164.79 input  -57.11 | X-H torsion

> <Gold.Protein.ActiveResidues>
 VAL166  LYS551  ARG553  GLY616  TRP617  ASP618  TYR619  PRO620  LYS621  CYS622 
 ASP623  PHE694  ASN695  SER759  ASP760  ASP761  ALA762  ILE779  LEU786  VAL792 
 PHE793  MET794  SER795  GLU796  ALA797  LYS798  CYS799  TRP800  GLU811  SER814 

> <Gold.Protein.RotatedAtoms>
  151.1582  135.0260  159.8698 H   0  0  0  0  0  0  0  0  0  0  0  0  # atno 6907 bound_to 6896
  152.5452  134.1309  159.8449 H   0  0  0  0  0  0  0  0  0  0  0  0  # atno 6908 bound_to 6896
  151.1402  133.4931  159.2629 H   0  0  0  0  0  0  0  0  0  0  0  0  # atno 6909 bound_to 6896
  145.4917  139.2276  143.2826 H   0  0  0  0  0  0  0  0  0  0  0  0  # atno 7974 bound_to 7965
  156.1306  140.3196  155.8343 H   0  0  0  0  0  0  0  0  0  0  0  0  # atno 8008 bound_to 7997
  155.4339  140.0520  157.3033 H   0  0  0  0  0  0  0  0  0  0  0  0  # atno 8009 bound_to 7997
  154.4896  140.2087  155.9590 H   0  0  0  0  0  0  0  0  0  0  0  0  # atno 8010 bound_to 7997
  139.4951  144.5986  151.6531 H   0  0  0  0  0  0  0  0  0  0  0  0  # atno 10167 bound_to 10162
  156.2116  130.4161  149.9107 H   0  0  0  0  0  0  0  0  0  0  0  0  # atno 10718 bound_to 10713
  154.5717  135.2828  155.0820 H   0  0  0  0  0  0  0  0  0  0  0  0  # atno 10763 bound_to 10752
  154.2190  135.6394  153.5142 H   0  0  0  0  0  0  0  0  0  0  0  0  # atno 10764 bound_to 10752
  153.0060  135.5510  154.6343 H   0  0  0  0  0  0  0  0  0  0  0  0  # atno 10765 bound_to 10752
  140.5830  134.5122  157.5181 H   0  0  0  0  0  0  0  0  0  0  0  0  # atno 11005 bound_to 11000
  146.2280  140.5711  142.8988 LP  0  0  0  0  0  0  0  0  0  0  0  0  # atno 17320 bound_to 7965
  144.7830  140.5880  143.6592 LP  0  0  0  0  0  0  0  0  0  0  0  0  # atno 17321 bound_to 7965
  140.5629  144.0238  150.6178 LP  0  0  0  0  0  0  0  0  0  0  0  0  # atno 17342 bound_to 10162
  140.3330  143.3066  152.0668 LP  0  0  0  0  0  0  0  0  0  0  0  0  # atno 17343 bound_to 10162
  156.6783  130.8848  151.3572 LP  0  0  0  0  0  0  0  0  0  0  0  0  # atno 17370 bound_to 10713
  157.7041  130.9366  150.0877 LP  0  0  0  0  0  0  0  0  0  0  0  0  # atno 17371 bound_to 10713
  139.9309  134.7966  156.0935 LP  0  0  0  0  0  0  0  0  0  0  0  0  # atno 17394 bound_to 11000
  141.0984  133.6686  156.2698 LP  0  0  0  0  0  0  0  0  0  0  0  0  # atno 17395 bound_to 11000

$$$$
