AV-unprocessed.smi:3304|AV-procd|sdf|12698|dock8
  -GOLD-   2272019 33D 1   1.00000     0.00000
 Structure written by MMmdl.
 46 47  0  0  0  0  0  0  0  0  2 V2000
  148.5979  137.8346  154.5116 C   0  0  0  0  0  0  0  0  0  0  0  0
  150.0401  138.1616  154.2941 C   0  0  0  0  0  0  0  0  0  0  0  0
  150.6589  139.3563  154.0398 C   0  0  0  0  0  0  0  0  0  0  0  0
  150.0550  140.7268  153.8997 C   0  0  0  0  0  0  0  0  0  0  0  0
  149.1247  141.0555  155.0750 C   0  0  0  0  0  0  0  0  0  0  0  0
  149.6703  142.1560  155.8921 N   0  3  0  0  0  0  0  0  0  0  0  0
  149.9220  141.7908  157.3006 C   0  0  0  0  0  0  0  0  0  0  0  0
  151.2453  142.3875  157.8147 C   0  0  2  0  0  0  0  0  0  0  0  0
  151.7299  141.6449  159.0758 C   0  0  0  0  0  0  0  0  0  0  0  0
  153.0517  142.2252  159.6088 C   0  0  0  0  0  0  0  0  0  0  0  0
  152.9623  143.7389  159.8853 C   0  0  2  0  0  0  0  0  0  0  0  0
  152.1462  144.0621  161.1493 C   0  0  0  0  0  0  0  0  0  0  0  0
  152.4443  144.4841  158.6391 C   0  0  0  0  0  0  0  0  0  0  0  0
  151.1245  143.8985  158.1072 C   0  0  0  0  0  0  0  0  0  0  0  0
  152.0348  139.0068  153.9330 C   0  0  0  0  0  0  0  0  0  0  0  0
  152.2509  137.7149  154.1022 N   0  0  0  0  0  0  0  0  0  0  0  0
  151.0268  137.1941  154.3254 N   0  0  0  0  0  0  0  0  0  0  0  0
  150.8912  135.7690  154.5572 C   0  0  0  0  0  0  0  0  0  0  0  0
  147.9744  138.7257  154.4408 H   0  0  0  0  0  0  0  0  0  0  0  0
  148.4445  137.3973  155.4984 H   0  0  0  0  0  0  0  0  0  0  0  0
  148.2462  137.1206  153.7665 H   0  0  0  0  0  0  0  0  0  0  0  0
  150.8376  141.4836  153.8340 H   0  0  0  0  0  0  0  0  0  0  0  0
  149.4947  140.8006  152.9668 H   0  0  0  0  0  0  0  0  0  0  0  0
  148.1397  141.3407  154.7028 H   0  0  0  0  0  0  0  0  0  0  0  0
  148.9898  140.1744  155.7039 H   0  0  0  0  0  0  0  0  0  0  0  0
  150.5400  142.4634  155.4805 H   0  0  0  0  0  0  0  0  0  0  0  0
  149.0898  142.1240  157.9223 H   0  0  0  0  0  0  0  0  0  0  0  0
  149.9551  140.7027  157.3698 H   0  0  0  0  0  0  0  0  0  0  0  0
  152.0022  142.2479  157.0408 H   0  0  0  0  0  0  0  0  0  0  0  0
  150.9655  141.6927  159.8521 H   0  0  0  0  0  0  0  0  0  0  0  0
  151.8688  140.5864  158.8528 H   0  0  0  0  0  0  0  0  0  0  0  0
  153.3564  141.6940  160.5112 H   0  0  0  0  0  0  0  0  0  0  0  0
  153.8376  142.0443  158.8741 H   0  0  0  0  0  0  0  0  0  0  0  0
  153.9757  144.0939  160.0779 H   0  0  0  0  0  0  0  0  0  0  0  0
  151.1072  143.7457  161.0606 H   0  0  0  0  0  0  0  0  0  0  0  0
  152.1478  145.1335  161.3513 H   0  0  0  0  0  0  0  0  0  0  0  0
  152.5681  143.5651  162.0232 H   0  0  0  0  0  0  0  0  0  0  0  0
  152.3200  145.5451  158.8591 H   0  0  0  0  0  0  0  0  0  0  0  0
  153.1977  144.4268  157.8522 H   0  0  0  0  0  0  0  0  0  0  0  0
  150.8384  144.4363  157.2028 H   0  0  0  0  0  0  0  0  0  0  0  0
  150.3260  144.0746  158.8287 H   0  0  0  0  0  0  0  0  0  0  0  0
  152.8786  139.6519  153.7368 H   0  0  0  0  0  0  0  0  0  0  0  0
  150.4194  135.5979  155.5251 H   0  0  0  0  0  0  0  0  0  0  0  0
  151.8673  135.2817  154.5509 H   0  0  0  0  0  0  0  0  0  0  0  0
  150.2722  135.3283  153.7753 H   0  0  0  0  0  0  0  0  0  0  0  0
  149.0146  142.9241  155.8733 H   0  0  0  0  0  0  0  0  0  0  0  0
  1  2  1  0  0  0  0
  1 19  1  0  0  0  0
  1 20  1  0  0  0  0
  1 21  1  0  0  0  0
  2 17  1  0  0  0  0
  2  3  2  0  0  0  0
  3  4  1  0  0  0  0
  3 15  1  0  0  0  0
  4  5  1  0  0  0  0
  4 22  1  0  0  0  0
  4 23  1  0  0  0  0
  5  6  1  0  0  0  0
  5 24  1  0  0  0  0
  5 25  1  0  0  0  0
  6  7  1  0  0  0  0
  6 26  1  0  0  0  0
  6 46  1  0  0  0  0
  7  8  1  0  0  0  0
  7 27  1  0  0  0  0
  7 28  1  0  0  0  0
  8 14  1  0  0  0  0
  8  9  1  0  0  0  0
  8 29  1  0  0  0  0
  9 10  1  0  0  0  0
  9 30  1  0  0  0  0
  9 31  1  0  0  0  0
 10 11  1  0  0  0  0
 10 32  1  0  0  0  0
 10 33  1  0  0  0  0
 11 12  1  0  0  0  0
 11 13  1  0  0  0  0
 11 34  1  0  0  0  0
 12 35  1  0  0  0  0
 12 36  1  0  0  0  0
 12 37  1  0  0  0  0
 13 14  1  0  0  0  0
 13 38  1  0  0  0  0
 13 39  1  0  0  0  0
 14 40  1  0  0  0  0
 14 41  1  0  0  0  0
 15 16  2  0  0  0  0
 15 42  1  0  0  0  0
 16 17  1  0  0  0  0
 17 18  1  0  0  0  0
 18 43  1  0  0  0  0
 18 44  1  0  0  0  0
 18 45  1  0  0  0  0
M  CHG  1   6   1
M  END
> <s_m_source_file>
AV-unprocessed.smi

> <i_m_source_file_index>
3304

> <i_lp_mmshare_version>
43012

> <i_f3d_flags>
0

> <s_epik_input>
W0NIM11uMW5bY0hdYyhjMVtDSDNdKVtDSDJdW0NIMl1bTkhdW0NIMl1bQ0BASF0yW0NIMl1bQ0gyXVtDQEBIXShbQ0gzXSlbQ0gyXVtDSDJdMg==

> <s_epik_cmdline>
J2VwaWtfcHl0aG9uJywgJy1waCcsICc3LjAnLCAnLXRuJywgJzgnLCAnLW1hJywgJzIwMCcsICctbWV0YWxfYmluZGluZycsICctaW1hZScsICc8aW5maWxlLm1hZT4nLCAnLW9tYWUnLCAnPG91dGZpbGUubWFlPic=

> <r_lp_tautomer_probability>
1

> <r_epik_Ionization_Penalty>
0.000505313

> <r_epik_Ionization_Penalty_Charging>
0.000421171

> <r_epik_Ionization_Penalty_Neutral>
8.41424e-05

> <r_epik_State_Penalty>
-0

> <r_epik_Charging_Adjusted_Penalty>
0.000421171

> <i_epik_Tot_Q>
1

> <i_epik_Tot_abs_Q>
1

> <r_epik_Metal_State_Penalty>
-0

> <b_epik_Metal_Only>
0

> <s_lp_Force_Field>
OPLS_2005

> <r_lp_Energy>
12.247

> <b_lp_Chiralities_Consistent>
1

> <s_lp_Variant>
AV-unprocessed.smi:3304-2

> <Gold.Version>
5.8.1

> <Gold.Id.Protein>
6NUR|6NUR_protein|mol2

> <Gold.PLP.Fitness>
46.5746

> <Gold.PLP.PLP>
-40.0573

> <Gold.PLP.part.hbond>
-2.0000

> <Gold.PLP.part.metal>
0.0000

> <Gold.PLP.part.buried>
-0.8239

> <Gold.PLP.part.nonpolar>
-37.1435

> <Gold.PLP.part.repulsive>
0.2406

> <Gold.PLP.ligand.clash>
0.0000

> <Gold.PLP.ligand.torsion>
1.2621

> <Gold.PLP.Chemscore.Hbond>
2.9920

> <Gold.PLP.Chemscore.CHOScore>
0.0000

> <Gold.PLP.Chemscore.Metal>
0.0000

> <Gold.Chemscore.Hbonds>
donor molecule, donor type, donor heavy atom, donor atom, acceptor molecule, acceptor atom, score
      L1  H     6    46       P1  8028  1.76
      P1  H 10752 10765       L1    16  0.09

> <Gold.PLP.Chemscore.Internal.Correction>
0.0655

> <Gold.Rescore>
     Score         DG    S(hbond)    S(metal)    S(lipo)     H(rot)  DE(clash)    DE(int)     intcor
     20.43     -23.48       1.97        0.00     128.95       1.43       1.68       1.36       ----

> <Gold.Chemscore.Fitness>
20.4339

> <Gold.Chemscore.DG>
-23.4758

> <Gold.Chemscore.ZeroCoef>
-5.4800

> <Gold.Chemscore.Hbond>
1.9693

> <Gold.Chemscore.Metal>
0.0000

> <Gold.Chemscore.Lipo>
128.9480

> <Gold.Chemscore.Internal_Hbond>
0.0000

> <Gold.Chemscore.DEClash>
1.6806

> <Gold.Chemscore.DEInternal>
1.3612

> <Gold.Chemscore.Rot>
1.4331

> <Gold.Chemscore.Internal.Correction>
   9.000000E+99

> <Gold.Chemscore.Hbonds>
donor molecule, donor type, donor heavy atom, donor atom, acceptor molecule, acceptor atom, score
      L1  H     6    46       P1  8028  0.87

> <Gold.Chemscore.Hbond.Weighted>
-6.5776

> <Gold.Chemscore.Metal.Weighted>
-0.0000

> <Gold.Chemscore.Lipo.Weighted>
-15.0869

> <Gold.Chemscore.Internal_Hbond.Weighted>
0.0000

> <Gold.Chemscore.DEClash.Weighted>
1.6806

> <Gold.Chemscore.DEInternal.Weighted>
1.3612

> <Gold.Chemscore.Rot.Weighted>
3.6688

> <Gold.Chemscore.Internal.Correction.Weighted>
   9.000000E+99

> <Gold.Protein.RotatedTorsions>
[ 6907 6896 6895 6894 ] final   18.34 input  -60.11 | X-H torsion
[ 7974 7965 7964 7962 ] final  -82.15 input  175.53 | X-H torsion
[ 8008 7997 7996 7995 ] final  139.31 input   59.86 | X-H torsion
[ 10167 10162 10161 10158 ] final   74.55 input  -65.29 | X-H torsion
[ 10718 10713 10712 10709 ] final  136.25 input   66.30 | X-H torsion
[ 10763 10752 10751 10750 ] final  171.85 input  -60.55 | X-H torsion
[ 11005 11000 10999 10996 ] final -150.45 input  -57.11 | X-H torsion

> <Gold.Protein.ActiveResidues>
 VAL166  LYS551  ARG553  GLY616  TRP617  ASP618  TYR619  PRO620  LYS621  CYS622 
 ASP623  PHE694  ASN695  SER759  ASP760  ASP761  ALA762  ILE779  LEU786  VAL792 
 PHE793  MET794  SER795  GLU796  ALA797  LYS798  CYS799  TRP800  GLU811  SER814 

> <Gold.Protein.RotatedAtoms>
  151.8637  135.0515  160.0471 H   0  0  0  0  0  0  0  0  0  0  0  0  # atno 6907 bound_to 6896
  152.2643  133.5320  159.5409 H   0  0  0  0  0  0  0  0  0  0  0  0  # atno 6908 bound_to 6896
  150.7128  134.0703  159.3904 H   0  0  0  0  0  0  0  0  0  0  0  0  # atno 6909 bound_to 6896
  145.5371  140.9514  143.1571 H   0  0  0  0  0  0  0  0  0  0  0  0  # atno 7974 bound_to 7965
  156.2991  140.2371  156.4216 H   0  0  0  0  0  0  0  0  0  0  0  0  # atno 8008 bound_to 7997
  154.8350  140.0431  157.1523 H   0  0  0  0  0  0  0  0  0  0  0  0  # atno 8009 bound_to 7997
  154.9166  140.2998  155.5242 H   0  0  0  0  0  0  0  0  0  0  0  0  # atno 8010 bound_to 7997
  140.0125  144.5603  150.7647 H   0  0  0  0  0  0  0  0  0  0  0  0  # atno 10167 bound_to 10162
  157.4486  131.1064  151.0060 H   0  0  0  0  0  0  0  0  0  0  0  0  # atno 10718 bound_to 10713
  154.4177  135.2757  155.1996 H   0  0  0  0  0  0  0  0  0  0  0  0  # atno 10763 bound_to 10752
  154.3954  135.6056  153.5870 H   0  0  0  0  0  0  0  0  0  0  0  0  # atno 10764 bound_to 10752
  152.9832  135.5913  154.4468 H   0  0  0  0  0  0  0  0  0  0  0  0  # atno 10765 bound_to 10752
  140.7400  134.3525  157.5149 H   0  0  0  0  0  0  0  0  0  0  0  0  # atno 11005 bound_to 11000
  144.7596  139.6989  143.7240 LP  0  0  0  0  0  0  0  0  0  0  0  0  # atno 17320 bound_to 7965
  146.2006  139.5298  142.9746 LP  0  0  0  0  0  0  0  0  0  0  0  0  # atno 17321 bound_to 7965
  140.7375  143.2767  151.3721 LP  0  0  0  0  0  0  0  0  0  0  0  0  # atno 17342 bound_to 10162
  139.6195  144.0935  152.2378 LP  0  0  0  0  0  0  0  0  0  0  0  0  # atno 17343 bound_to 10162
  157.0898  130.5937  149.5437 LP  0  0  0  0  0  0  0  0  0  0  0  0  # atno 17370 bound_to 10713
  155.9978  130.5050  150.7546 LP  0  0  0  0  0  0  0  0  0  0  0  0  # atno 17371 bound_to 10713
  139.8808  134.9074  156.2945 LP  0  0  0  0  0  0  0  0  0  0  0  0  # atno 17394 bound_to 11000
  140.9845  133.7247  156.0721 LP  0  0  0  0  0  0  0  0  0  0  0  0  # atno 17395 bound_to 11000

$$$$
