AV-unprocessed.smi:107|AV-procd|sdf|1019|dock3
  -GOLD-   2262018 23D 1   1.00000     0.00000
 Structure written by MMmdl.
 31 32  0  0  0  0  0  0  0  0  1 V2000
  151.8731  144.6400  158.0462 C   0  0  0  0  0  0  0  0  0  0  0  0
  151.7338  143.1291  158.1313 C   0  0  0  0  0  0  0  0  0  0  0  0
  150.7397  142.4527  157.5009 C   0  0  0  0  0  0  0  0  0  0  0  0
  150.5818  141.0735  157.5564 N   0  0  0  0  0  0  0  0  0  0  0  0
  149.3911  140.3917  156.9126 C   0  0  2  0  0  0  0  0  0  0  0  0
  149.7557  139.1893  156.0212 C   0  0  0  0  0  0  0  0  0  0  0  0
  149.2324  139.5981  154.6509 C   0  0  2  0  0  0  0  0  0  0  0  0
  150.2812  140.0677  153.8256 O   0  0  0  0  0  0  0  0  0  0  0  0
  148.2066  140.6950  154.9795 C   0  0  2  0  0  0  0  0  0  0  0  0
  147.8954  141.7166  153.8719 C   0  0  0  0  0  0  0  0  0  0  0  0
  147.1918  142.8188  154.4039 O   0  0  0  0  0  0  0  0  0  0  0  0
  148.7404  141.3392  156.1269 O   0  0  0  0  0  0  0  0  0  0  0  0
  151.4323  140.3261  158.4015 C   0  0  0  0  0  0  0  0  0  0  0  0
  151.3045  139.1168  158.5889 O   0  0  0  0  0  0  0  0  0  0  0  0
  152.4633  141.0163  159.0368 N   0  0  0  0  0  0  0  0  0  0  0  0
  152.6978  142.3898  158.9493 C   0  0  0  0  0  0  0  0  0  0  0  0
  153.6522  142.8832  159.5481 O   0  0  0  0  0  0  0  0  0  0  0  0
  153.0867  140.4787  159.6214 H   0  0  0  0  0  0  0  0  0  0  0  0
  151.1021  145.0828  157.4151 H   0  0  0  0  0  0  0  0  0  0  0  0
  152.8434  144.9105  157.6282 H   0  0  0  0  0  0  0  0  0  0  0  0
  151.7902  145.0865  159.0377 H   0  0  0  0  0  0  0  0  0  0  0  0
  150.0258  143.0328  156.9381 H   0  0  0  0  0  0  0  0  0  0  0  0
  148.7285  140.0663  157.7157 H   0  0  0  0  0  0  0  0  0  0  0  0
  150.8154  138.9353  156.0442 H   0  0  0  0  0  0  0  0  0  0  0  0
  149.2055  138.3214  156.3872 H   0  0  0  0  0  0  0  0  0  0  0  0
  148.7595  138.7588  154.1402 H   0  0  0  0  0  0  0  0  0  0  0  0
  150.0674  139.8651  152.9274 H   0  0  0  0  0  0  0  0  0  0  0  0
  147.2771  140.2168  155.2946 H   0  0  0  0  0  0  0  0  0  0  0  0
  148.8247  142.0824  153.4346 H   0  0  0  0  0  0  0  0  0  0  0  0
  147.3204  141.2678  153.0617 H   0  0  0  0  0  0  0  0  0  0  0  0
  147.8124  143.3995  154.8176 H   0  0  0  0  0  0  0  0  0  0  0  0
  1  2  1  0  0  0  0
  1 19  1  0  0  0  0
  1 20  1  0  0  0  0
  1 21  1  0  0  0  0
  2 16  1  0  0  0  0
  2  3  2  0  0  0  0
  3  4  1  0  0  0  0
  3 22  1  0  0  0  0
  4  5  1  0  0  0  0
  4 13  1  0  0  0  0
  5 12  1  0  0  0  0
  5  6  1  0  0  0  0
  5 23  1  0  0  0  0
  6  7  1  0  0  0  0
  6 24  1  0  0  0  0
  6 25  1  0  0  0  0
  7  8  1  0  0  0  0
  7  9  1  0  0  0  0
  7 26  1  0  0  0  0
  8 27  1  0  0  0  0
  9 10  1  0  0  0  0
  9 12  1  0  0  0  0
  9 28  1  0  0  0  0
 10 11  1  0  0  0  0
 10 29  1  0  0  0  0
 10 30  1  0  0  0  0
 11 31  1  0  0  0  0
 13 14  2  0  0  0  0
 13 15  1  0  0  0  0
 15 18  1  0  0  0  0
 15 16  1  0  0  0  0
 16 17  2  0  0  0  0
M  END
> <s_m_source_file>
AV-unprocessed.smi

> <i_m_source_file_index>
107

> <i_lp_mmshare_version>
43012

> <i_f3d_flags>
0

> <s_epik_input>
Tz1jMVtuSF1jKD1PKW4oW2NIXWMxW0NIM10pW0NAQEhdMltDSDJdW0NAQEhdKFtPSF0pW0NASF0oTzIpW0NIMl1bT0hd

> <s_epik_cmdline>
J2VwaWtfcHl0aG9uJywgJy1waCcsICc3LjAnLCAnLXRuJywgJzgnLCAnLW1hJywgJzIwMCcsICctbWV0YWxfYmluZGluZycsICctaW1hZScsICc8aW5maWxlLm1hZT4nLCAnLW9tYWUnLCAnPG91dGZpbGUubWFlPic=

> <r_lp_tautomer_probability>
0.999537

> <r_epik_Ionization_Penalty>
0.00121888

> <r_epik_Ionization_Penalty_Charging>
0.00121876

> <r_epik_Ionization_Penalty_Neutral>
1.19946e-07

> <r_epik_State_Penalty>
0.000805124

> <r_epik_Charging_Adjusted_Penalty>
0.00202389

> <i_epik_Tot_Q>
0

> <i_epik_Tot_abs_Q>
0

> <r_epik_Metal_State_Penalty>
0.662472

> <b_epik_Metal_Only>
0

> <s_epik_Chemistry_Notes>
This compound contains an acetal/aminal-like group ( X-CH(R)-Y where X, Y are N, S, or O) that may be acid/base labile, releasing an aldehyde.

> <s_lp_Force_Field>
OPLS_2005

> <r_lp_Energy>
26.1821

> <b_lp_Chiralities_Consistent>
1

> <s_lp_Variant>
AV-unprocessed.smi:107-7

> <Gold.Version>
5.8.1

> <Gold.Id.Protein>
6NUR|6NUR_protein|mol2

> <Gold.PLP.Fitness>
39.3787

> <Gold.PLP.PLP>
-28.5193

> <Gold.PLP.part.hbond>
-3.0804

> <Gold.PLP.part.metal>
0.0000

> <Gold.PLP.part.buried>
-4.4465

> <Gold.PLP.part.nonpolar>
-20.2333

> <Gold.PLP.part.repulsive>
0.2087

> <Gold.PLP.ligand.clash>
0.0000

> <Gold.PLP.ligand.torsion>
0.1957

> <Gold.PLP.Chemscore.Hbond>
2.7168

> <Gold.PLP.Chemscore.CHOScore>
1.0000

> <Gold.PLP.Chemscore.Metal>
0.0000

> <Gold.Chemscore.Hbonds>
donor molecule, donor type, donor heavy atom, donor atom, acceptor molecule, acceptor atom, score
      L1  H     8    27       P1  7957  1.00
      L1  H    11    31       P1  8028  1.00
      P1  H  7989  7998       L1     8  0.67
      L1  C     3    22       P1  8028  1.00

> <Gold.PLP.Chemscore.Internal.Correction>
0.1004

> <Gold.Rescore>
     Score         DG    S(hbond)    S(metal)    S(lipo)     H(rot)  DE(clash)    DE(int)     intcor
     10.69     -12.06       2.12        0.00      55.20       2.73       0.10       1.27       ----

> <Gold.Chemscore.Fitness>
10.6884

> <Gold.Chemscore.DG>
-12.0556

> <Gold.Chemscore.ZeroCoef>
-5.4800

> <Gold.Chemscore.Hbond>
2.1241

> <Gold.Chemscore.Metal>
0.0000

> <Gold.Chemscore.Lipo>
55.1971

> <Gold.Chemscore.Internal_Hbond>
0.0000

> <Gold.Chemscore.DEClash>
0.1016

> <Gold.Chemscore.DEInternal>
1.2656

> <Gold.Chemscore.Rot>
2.7253

> <Gold.Chemscore.Internal.Correction>
   9.000000E+99

> <Gold.Chemscore.Hbonds>
donor molecule, donor type, donor heavy atom, donor atom, acceptor molecule, acceptor atom, score
      L1  H     8    27       P1  7957  1.00
      L1  H    11    31       P1  8028  0.60
      P1  H  7989  7998       L1     8  0.08

> <Gold.Chemscore.Hbond.Weighted>
-7.0944

> <Gold.Chemscore.Metal.Weighted>
-0.0000

> <Gold.Chemscore.Lipo.Weighted>
-6.4581

> <Gold.Chemscore.Internal_Hbond.Weighted>
0.0000

> <Gold.Chemscore.DEClash.Weighted>
0.1016

> <Gold.Chemscore.DEInternal.Weighted>
1.2656

> <Gold.Chemscore.Rot.Weighted>
6.9769

> <Gold.Chemscore.Internal.Correction.Weighted>
   9.000000E+99

> <Gold.Protein.RotatedTorsions>
[ 6907 6896 6895 6894 ] final   35.05 input  -60.11 | X-H torsion
[ 7974 7965 7964 7962 ] final   61.73 input  175.53 | X-H torsion
[ 8008 7997 7996 7995 ] final   38.60 input   59.86 | X-H torsion
[ 10167 10162 10161 10158 ] final  -19.75 input  -65.29 | X-H torsion
[ 10718 10713 10712 10709 ] final   28.83 input   66.30 | X-H torsion
[ 10763 10752 10751 10750 ] final -143.27 input  -60.55 | X-H torsion
[ 11005 11000 10999 10996 ] final  170.52 input  -57.11 | X-H torsion

> <Gold.Protein.ActiveResidues>
 VAL166  LYS551  ARG553  GLY616  TRP617  ASP618  TYR619  PRO620  LYS621  CYS622 
 ASP623  PHE694  ASN695  SER759  ASP760  ASP761  ALA762  ILE779  LEU786  VAL792 
 PHE793  MET794  SER795  GLU796  ALA797  LYS798  CYS799  TRP800  GLU811  SER814 

> <Gold.Protein.RotatedAtoms>
  152.1108  134.9275  160.0566 H   0  0  0  0  0  0  0  0  0  0  0  0  # atno 6907 bound_to 6896
  152.0453  133.3990  159.4362 H   0  0  0  0  0  0  0  0  0  0  0  0  # atno 6908 bound_to 6896
  150.6843  134.3289  159.4862 H   0  0  0  0  0  0  0  0  0  0  0  0  # atno 6909 bound_to 6896
  145.8815  139.3446  143.0703 H   0  0  0  0  0  0  0  0  0  0  0  0  # atno 7974 bound_to 7965
  155.2228  140.3332  155.4313 H   0  0  0  0  0  0  0  0  0  0  0  0  # atno 8008 bound_to 7997
  156.2326  140.1857  156.7249 H   0  0  0  0  0  0  0  0  0  0  0  0  # atno 8009 bound_to 7997
  154.6004  140.0624  156.9346 H   0  0  0  0  0  0  0  0  0  0  0  0  # atno 8010 bound_to 7997
  140.7271  143.4789  151.0145 H   0  0  0  0  0  0  0  0  0  0  0  0  # atno 10167 bound_to 10162
  157.2386  130.7058  149.6347 H   0  0  0  0  0  0  0  0  0  0  0  0  # atno 10718 bound_to 10713
  154.8476  135.3472  154.6160 H   0  0  0  0  0  0  0  0  0  0  0  0  # atno 10763 bound_to 10752
  153.6769  135.6982  153.5134 H   0  0  0  0  0  0  0  0  0  0  0  0  # atno 10764 bound_to 10752
  153.2699  135.4296  155.0933 H   0  0  0  0  0  0  0  0  0  0  0  0  # atno 10765 bound_to 10752
  140.3092  134.7530  157.3978 H   0  0  0  0  0  0  0  0  0  0  0  0  # atno 11005 bound_to 11000
  145.9018  140.9238  143.0499 LP  0  0  0  0  0  0  0  0  0  0  0  0  # atno 17320 bound_to 7965
  144.6727  140.1043  143.7459 LP  0  0  0  0  0  0  0  0  0  0  0  0  # atno 17321 bound_to 7965
  139.8486  143.7469  152.3178 LP  0  0  0  0  0  0  0  0  0  0  0  0  # atno 17342 bound_to 10162
  139.7643  144.7497  151.0318 LP  0  0  0  0  0  0  0  0  0  0  0  0  # atno 17343 bound_to 10162
  155.9671  130.4465  150.5545 LP  0  0  0  0  0  0  0  0  0  0  0  0  # atno 17370 bound_to 10713
  157.3403  131.0715  151.1793 LP  0  0  0  0  0  0  0  0  0  0  0  0  # atno 17371 bound_to 10713
  140.1039  134.5435  155.8327 LP  0  0  0  0  0  0  0  0  0  0  0  0  # atno 17394 bound_to 11000
  141.2112  133.6703  156.6563 LP  0  0  0  0  0  0  0  0  0  0  0  0  # atno 17395 bound_to 11000

$$$$
