AV-unprocessed.smi:2103|AV-procd|sdf|8582|dock2
  -GOLD-   2272011313D 1   1.00000     0.00000
 Structure written by MMmdl.
 38 39  0  0  0  0  0  0  0  0  1 V2000
  152.4849  138.3614  154.4990 C   0  0  0  0  0  0  0  0  0  0  0  0
  151.1232  138.0764  154.9007 N   0  0  0  0  0  0  0  0  0  0  0  0
  150.1073  139.0186  154.6084 C   0  0  0  0  0  0  0  0  0  0  0  0
  150.3328  140.0805  154.0270 O   0  0  0  0  0  0  0  0  0  0  0  0
  148.7766  138.6294  155.0597 C   0  0  0  0  0  0  0  0  0  0  0  0
  148.5766  137.4598  155.7056 C   0  0  0  0  0  0  0  0  0  0  0  0
  149.5895  136.5616  155.9879 N   0  0  0  0  0  0  0  0  0  0  0  0
  149.2752  135.3121  156.6935 C   0  0  0  0  0  0  0  0  0  0  0  0
  148.8867  135.5160  158.1651 C   0  0  0  0  0  0  0  0  0  0  0  0
  149.6761  136.0119  158.9706 O   0  0  0  0  0  0  0  0  0  0  0  0
  147.6519  135.1131  158.5003 N   0  0  0  0  0  0  0  0  0  0  0  0
  147.0593  135.2139  159.8307 C   0  0  0  0  0  0  0  0  0  0  0  0
  147.3904  136.5746  160.4808 C   0  0  0  0  0  0  0  0  0  0  0  0
  146.8428  136.6608  161.9147 C   0  0  0  0  0  0  0  0  0  0  0  0
  147.3551  135.4987  162.7796 C   0  0  0  0  0  0  0  0  0  0  0  0
  147.0198  134.1426  162.1397 C   0  0  0  0  0  0  0  0  0  0  0  0
  147.5688  134.0531  160.7066 C   0  0  0  0  0  0  0  0  0  0  0  0
  150.9092  136.8606  155.5867 C   0  0  0  0  0  0  0  0  0  0  0  0
  151.8340  136.0819  155.8327 O   0  0  0  0  0  0  0  0  0  0  0  0
  152.5286  139.2278  153.8397 H   0  0  0  0  0  0  0  0  0  0  0  0
  152.8618  137.4892  153.9615 H   0  0  0  0  0  0  0  0  0  0  0  0
  153.0543  138.5446  155.4116 H   0  0  0  0  0  0  0  0  0  0  0  0
  147.9399  139.2869  154.8740 H   0  0  0  0  0  0  0  0  0  0  0  0
  147.5709  137.2161  156.0164 H   0  0  0  0  0  0  0  0  0  0  0  0
  148.4701  134.7824  156.1813 H   0  0  0  0  0  0  0  0  0  0  0  0
  150.1361  134.6429  156.6560 H   0  0  0  0  0  0  0  0  0  0  0  0
  147.0738  134.7127  157.7758 H   0  0  0  0  0  0  0  0  0  0  0  0
  145.9754  135.1202  159.7394 H   0  0  0  0  0  0  0  0  0  0  0  0
  148.4710  136.7235  160.4968 H   0  0  0  0  0  0  0  0  0  0  0  0
  146.9759  137.3897  159.8868 H   0  0  0  0  0  0  0  0  0  0  0  0
  147.1277  137.6124  162.3644 H   0  0  0  0  0  0  0  0  0  0  0  0
  145.7525  136.6449  161.8896 H   0  0  0  0  0  0  0  0  0  0  0  0
  148.4349  135.5858  162.9067 H   0  0  0  0  0  0  0  0  0  0  0  0
  146.9202  135.5574  163.7777 H   0  0  0  0  0  0  0  0  0  0  0  0
  147.4304  133.3348  162.7461 H   0  0  0  0  0  0  0  0  0  0  0  0
  145.9384  134.0009  162.1262 H   0  0  0  0  0  0  0  0  0  0  0  0
  147.2846  133.0974  160.2646 H   0  0  0  0  0  0  0  0  0  0  0  0
  148.6593  134.0661  160.7389 H   0  0  0  0  0  0  0  0  0  0  0  0
  1  2  1  0  0  0  0
  1 20  1  0  0  0  0
  1 21  1  0  0  0  0
  1 22  1  0  0  0  0
  2 18  1  0  0  0  0
  2  3  1  0  0  0  0
  3  4  2  0  0  0  0
  3  5  1  0  0  0  0
  5  6  2  0  0  0  0
  5 23  1  0  0  0  0
  6  7  1  0  0  0  0
  6 24  1  0  0  0  0
  7  8  1  0  0  0  0
  7 18  1  0  0  0  0
  8  9  1  0  0  0  0
  8 25  1  0  0  0  0
  8 26  1  0  0  0  0
  9 10  2  0  0  0  0
  9 11  1  0  0  0  0
 11 12  1  0  0  0  0
 11 27  1  0  0  0  0
 12 17  1  0  0  0  0
 12 13  1  0  0  0  0
 12 28  1  0  0  0  0
 13 14  1  0  0  0  0
 13 29  1  0  0  0  0
 13 30  1  0  0  0  0
 14 15  1  0  0  0  0
 14 31  1  0  0  0  0
 14 32  1  0  0  0  0
 15 16  1  0  0  0  0
 15 33  1  0  0  0  0
 15 34  1  0  0  0  0
 16 17  1  0  0  0  0
 16 35  1  0  0  0  0
 16 36  1  0  0  0  0
 17 37  1  0  0  0  0
 17 38  1  0  0  0  0
 18 19  2  0  0  0  0
M  END
> <s_m_source_file>
AV-unprocessed.smi

> <i_m_source_file_index>
2103

> <i_lp_mmshare_version>
43012

> <i_f3d_flags>
0

> <s_epik_input>
W0NIM11uMWMoPU8pW2NIXVtjSF1uKGMxPU8pW0NIMl1DKD1PKVtOSF1bQ0hdMltDSDJdW0NIMl1bQ0gyXVtDSDJdW0NIMl0y

> <s_epik_cmdline>
J2VwaWtfcHl0aG9uJywgJy1waCcsICc3LjAnLCAnLXRuJywgJzgnLCAnLW1hJywgJzIwMCcsICctbWV0YWxfYmluZGluZycsICctaW1hZScsICc8aW5maWxlLm1hZT4nLCAnLW9tYWUnLCAnPG91dGZpbGUubWFlPic=

> <r_lp_tautomer_probability>
1

> <r_epik_Ionization_Penalty>
3.18221e-08

> <r_epik_Ionization_Penalty_Charging>
1.27752e-08

> <r_epik_Ionization_Penalty_Neutral>
1.90469e-08

> <r_epik_State_Penalty>
-0

> <r_epik_Charging_Adjusted_Penalty>
1.27752e-08

> <i_epik_Tot_Q>
0

> <i_epik_Tot_abs_Q>
0

> <r_epik_Metal_State_Penalty>
-0

> <b_epik_Metal_Only>
0

> <s_lp_Force_Field>
OPLS_2005

> <r_lp_Energy>
16.4869

> <b_lp_Chiralities_Consistent>
1

> <s_lp_Variant>
AV-unprocessed.smi:2103-1

> <Gold.Version>
5.8.1

> <Gold.Id.Protein>
6NUR|6NUR_protein|mol2

> <Gold.PLP.Fitness>
40.8438

> <Gold.PLP.PLP>
-32.5487

> <Gold.PLP.part.hbond>
-2.7939

> <Gold.PLP.part.metal>
0.0000

> <Gold.PLP.part.buried>
-5.5468

> <Gold.PLP.part.nonpolar>
-24.6123

> <Gold.PLP.part.repulsive>
0.7962

> <Gold.PLP.ligand.clash>
0.0000

> <Gold.PLP.ligand.torsion>
0.3570

> <Gold.PLP.Chemscore.Hbond>
3.0000

> <Gold.PLP.Chemscore.CHOScore>
0.0000

> <Gold.PLP.Chemscore.Metal>
0.0000

> <Gold.Chemscore.Hbonds>
donor molecule, donor type, donor heavy atom, donor atom, acceptor molecule, acceptor atom, score
      P1  H  6896  6909       L1    10  1.00
      P1  H  7989  7998       L1     4  1.00
      P1  H 10752 10765       L1    19  1.00

> <Gold.PLP.Chemscore.Internal.Correction>
0.0090

> <Gold.Rescore>
     Score         DG    S(hbond)    S(metal)    S(lipo)     H(rot)  DE(clash)    DE(int)     intcor
     16.65     -18.13       2.88        0.00      59.47       1.54       0.00       1.48       ----

> <Gold.Chemscore.Fitness>
16.6546

> <Gold.Chemscore.DG>
-18.1308

> <Gold.Chemscore.ZeroCoef>
-5.4800

> <Gold.Chemscore.Hbond>
2.8834

> <Gold.Chemscore.Metal>
0.0000

> <Gold.Chemscore.Lipo>
59.4715

> <Gold.Chemscore.Internal_Hbond>
0.0000

> <Gold.Chemscore.DEClash>
0.0009

> <Gold.Chemscore.DEInternal>
1.4753

> <Gold.Chemscore.Rot>
1.5383

> <Gold.Chemscore.Internal.Correction>
   9.000000E+99

> <Gold.Chemscore.Hbonds>
donor molecule, donor type, donor heavy atom, donor atom, acceptor molecule, acceptor atom, score
      P1  H  6896  6909       L1    10  0.93
      P1  H  7989  7998       L1     4  0.93
      P1  H 10752 10765       L1    19  0.99

> <Gold.Chemscore.Hbond.Weighted>
-9.6306

> <Gold.Chemscore.Metal.Weighted>
-0.0000

> <Gold.Chemscore.Lipo.Weighted>
-6.9582

> <Gold.Chemscore.Internal_Hbond.Weighted>
0.0000

> <Gold.Chemscore.DEClash.Weighted>
0.0009

> <Gold.Chemscore.DEInternal.Weighted>
1.4753

> <Gold.Chemscore.Rot.Weighted>
3.9380

> <Gold.Chemscore.Internal.Correction.Weighted>
   9.000000E+99

> <Gold.Protein.RotatedTorsions>
[ 6907 6896 6895 6894 ] final   71.69 input  -60.11 | X-H torsion
[ 7974 7965 7964 7962 ] final -115.39 input  175.53 | X-H torsion
[ 8008 7997 7996 7995 ] final    2.48 input   59.86 | X-H torsion
[ 10167 10162 10161 10158 ] final  -52.51 input  -65.29 | X-H torsion
[ 10718 10713 10712 10709 ] final -123.16 input   66.30 | X-H torsion
[ 10763 10752 10751 10750 ] final -157.97 input  -60.55 | X-H torsion
[ 11005 11000 10999 10996 ] final  118.89 input  -57.11 | X-H torsion

> <Gold.Protein.ActiveResidues>
 VAL166  LYS551  ARG553  GLY616  TRP617  ASP618  TYR619  PRO620  LYS621  CYS622 
 ASP623  PHE694  ASN695  SER759  ASP760  ASP761  ALA762  ILE779  LEU786  VAL792 
 PHE793  MET794  SER795  GLU796  ALA797  LYS798  CYS799  TRP800  GLU811  SER814 

> <Gold.Protein.RotatedAtoms>
  152.4825  134.4682  159.9626 H   0  0  0  0  0  0  0  0  0  0  0  0  # atno 6907 bound_to 6896
  151.4685  133.3569  159.2828 H   0  0  0  0  0  0  0  0  0  0  0  0  # atno 6908 bound_to 6896
  150.8908  134.8337  159.7353 H   0  0  0  0  0  0  0  0  0  0  0  0  # atno 6909 bound_to 6896
  145.1090  140.8599  143.3881 H   0  0  0  0  0  0  0  0  0  0  0  0  # atno 7974 bound_to 7965
  154.6921  140.2655  155.6802 H   0  0  0  0  0  0  0  0  0  0  0  0  # atno 8008 bound_to 7997
  156.2735  140.2789  156.1426 H   0  0  0  0  0  0  0  0  0  0  0  0  # atno 8009 bound_to 7997
  155.0882  140.0373  157.2650 H   0  0  0  0  0  0  0  0  0  0  0  0  # atno 8010 bound_to 7997
  140.6533  143.2581  151.4659 H   0  0  0  0  0  0  0  0  0  0  0  0  # atno 10167 bound_to 10162
  156.1479  130.6513  150.9869 H   0  0  0  0  0  0  0  0  0  0  0  0  # atno 10718 bound_to 10713
  154.7594  135.3113  154.8407 H   0  0  0  0  0  0  0  0  0  0  0  0  # atno 10763 bound_to 10752
  153.9172  135.6799  153.4753 H   0  0  0  0  0  0  0  0  0  0  0  0  # atno 10764 bound_to 10752
  153.1194  135.4829  154.9100 H   0  0  0  0  0  0  0  0  0  0  0  0  # atno 10765 bound_to 10752
  139.9126  134.9624  156.7572 H   0  0  0  0  0  0  0  0  0  0  0  0  # atno 11005 bound_to 11000
  145.0869  139.2918  143.5755 LP  0  0  0  0  0  0  0  0  0  0  0  0  # atno 17320 bound_to 7965
  146.3527  140.0393  142.8644 LP  0  0  0  0  0  0  0  0  0  0  0  0  # atno 17321 bound_to 7965
  139.5752  144.1837  152.1892 LP  0  0  0  0  0  0  0  0  0  0  0  0  # atno 17342 bound_to 10162
  140.1145  144.5428  150.6903 LP  0  0  0  0  0  0  0  0  0  0  0  0  # atno 17343 bound_to 10162
  157.6632  131.0877  150.7790 LP  0  0  0  0  0  0  0  0  0  0  0  0  # atno 17370 bound_to 10713
  156.7860  130.4874  149.5393 LP  0  0  0  0  0  0  0  0  0  0  0  0  # atno 17371 bound_to 10713
  140.6726  133.9546  155.7865 LP  0  0  0  0  0  0  0  0  0  0  0  0  # atno 17394 bound_to 11000
  141.0566  134.0407  157.3714 LP  0  0  0  0  0  0  0  0  0  0  0  0  # atno 17395 bound_to 11000

$$$$
