AV-unprocessed.smi:870|AV-procd|sdf|4007|dock2
  -GOLD-   22720 1493D 1   1.00000     0.00000
 Structure written by MMmdl.
 46 48  0  0  0  0  0  0  0  0  1 V2000
  151.7980  138.2184  154.1013 C   0  0  0  0  0  0  0  0  0  0  0  0
  151.7639  139.3847  154.9040 O   0  0  0  0  0  0  0  0  0  0  0  0
  151.5220  139.0933  156.2722 C   0  0  0  0  0  0  0  0  0  0  0  0
  151.7348  140.3474  157.0718 C   0  0  0  0  0  0  0  0  0  0  0  0
  152.6299  140.4400  158.0586 N   0  0  0  0  0  0  0  0  0  0  0  0
  152.4803  141.7434  158.4881 C   0  0  0  0  0  0  0  0  0  0  0  0
  153.1456  142.4558  159.5115 C   0  0  0  0  0  0  0  0  0  0  0  0
  152.8198  143.8034  159.7706 C   0  0  0  0  0  0  0  0  0  0  0  0
  151.8271  144.4565  159.0115 C   0  0  0  0  0  0  0  0  0  0  0  0
  151.1526  143.7647  157.9872 C   0  0  0  0  0  0  0  0  0  0  0  0
  151.4812  142.4194  157.7334 C   0  0  0  0  0  0  0  0  0  0  0  0
  151.0197  141.4742  156.8232 N   0  0  0  0  0  0  0  0  0  0  0  0
  149.9853  141.6901  155.8194 C   0  0  0  0  0  0  0  0  0  0  0  0
  148.5768  141.8105  156.4353 C   0  0  2  0  0  0  0  0  0  0  0  0
  148.3796  140.7527  157.3532 O   0  0  0  0  0  0  0  0  0  0  0  0
  147.4763  141.7432  155.3645 C   0  0  0  0  0  0  0  0  0  0  0  0
  146.3046  142.3684  155.8708 O   0  0  0  0  0  0  0  0  0  0  0  0
  145.6688  143.3105  155.0882 C   0  0  0  0  0  0  0  0  0  0  0  0
  145.9670  143.5276  153.7183 C   0  0  0  0  0  0  0  0  0  0  0  0
  145.2772  144.5096  152.9822 C   0  0  0  0  0  0  0  0  0  0  0  0
  144.2822  145.2867  153.6015 C   0  0  0  0  0  0  0  0  0  0  0  0
  143.9775  145.0806  154.9591 C   0  0  0  0  0  0  0  0  0  0  0  0
  144.6656  144.0976  155.7012 C   0  0  0  0  0  0  0  0  0  0  0  0
  144.3249  143.8895  157.1651 C   0  0  0  0  0  0  0  0  0  0  0  0
  151.9816  138.4935  153.0629 H   0  0  0  0  0  0  0  0  0  0  0  0
  150.8494  137.6820  154.1450 H   0  0  0  0  0  0  0  0  0  0  0  0
  152.5958  137.5457  154.4180 H   0  0  0  0  0  0  0  0  0  0  0  0
  150.4979  138.7447  156.4133 H   0  0  0  0  0  0  0  0  0  0  0  0
  152.2048  138.3170  156.6189 H   0  0  0  0  0  0  0  0  0  0  0  0
  153.9076  141.9640  160.0979 H   0  0  0  0  0  0  0  0  0  0  0  0
  153.3343  144.3383  160.5554 H   0  0  0  0  0  0  0  0  0  0  0  0
  151.5834  145.4887  159.2165 H   0  0  0  0  0  0  0  0  0  0  0  0
  150.3911  144.2615  157.4046 H   0  0  0  0  0  0  0  0  0  0  0  0
  150.2330  142.6061  155.2815 H   0  0  0  0  0  0  0  0  0  0  0  0
  150.0142  140.8910  155.0789 H   0  0  0  0  0  0  0  0  0  0  0  0
  148.5038  142.7578  156.9715 H   0  0  0  0  0  0  0  0  0  0  0  0
  148.5753  139.9368  156.9184 H   0  0  0  0  0  0  0  0  0  0  0  0
  147.8018  142.2925  154.4795 H   0  0  0  0  0  0  0  0  0  0  0  0
  147.2878  140.7102  155.0663 H   0  0  0  0  0  0  0  0  0  0  0  0
  146.7238  142.9535  153.2059 H   0  0  0  0  0  0  0  0  0  0  0  0
  145.5127  144.6667  151.9399 H   0  0  0  0  0  0  0  0  0  0  0  0
  143.7537  146.0402  153.0364 H   0  0  0  0  0  0  0  0  0  0  0  0
  143.2126  145.6820  155.4282 H   0  0  0  0  0  0  0  0  0  0  0  0
  143.5073  144.5379  157.4816 H   0  0  0  0  0  0  0  0  0  0  0  0
  145.1918  144.1076  157.7894 H   0  0  0  0  0  0  0  0  0  0  0  0
  144.0245  142.8564  157.3416 H   0  0  0  0  0  0  0  0  0  0  0  0
  1  2  1  0  0  0  0
  1 25  1  0  0  0  0
  1 26  1  0  0  0  0
  1 27  1  0  0  0  0
  2  3  1  0  0  0  0
  3  4  1  0  0  0  0
  3 28  1  0  0  0  0
  3 29  1  0  0  0  0
  4 12  1  0  0  0  0
  4  5  2  0  0  0  0
  5  6  1  0  0  0  0
  6 11  2  0  0  0  0
  6  7  1  0  0  0  0
  7  8  2  0  0  0  0
  7 30  1  0  0  0  0
  8  9  1  0  0  0  0
  8 31  1  0  0  0  0
  9 10  2  0  0  0  0
  9 32  1  0  0  0  0
 10 11  1  0  0  0  0
 10 33  1  0  0  0  0
 11 12  1  0  0  0  0
 12 13  1  0  0  0  0
 13 14  1  0  0  0  0
 13 34  1  0  0  0  0
 13 35  1  0  0  0  0
 14 15  1  0  0  0  0
 14 16  1  0  0  0  0
 14 36  1  0  0  0  0
 15 37  1  0  0  0  0
 16 17  1  0  0  0  0
 16 38  1  0  0  0  0
 16 39  1  0  0  0  0
 17 18  1  0  0  0  0
 18 23  1  0  0  0  0
 18 19  2  0  0  0  0
 19 20  1  0  0  0  0
 19 40  1  0  0  0  0
 20 21  2  0  0  0  0
 20 41  1  0  0  0  0
 21 22  1  0  0  0  0
 21 42  1  0  0  0  0
 22 23  2  0  0  0  0
 22 43  1  0  0  0  0
 23 24  1  0  0  0  0
 24 44  1  0  0  0  0
 24 45  1  0  0  0  0
 24 46  1  0  0  0  0
M  END
> <s_m_source_file>
AV-unprocessed.smi

> <i_m_source_file_index>
870

> <i_lp_mmshare_version>
43012

> <i_f3d_flags>
0

> <s_epik_input>
W2NIXTFbY0hdW2NIXVtjSF1jKGMxMiluKGMobjIpW0NIMl1PW0NIM10pW0NIMl1bQ0BIXShbT0hdKVtDSDJdT2MzW2NIXVtjSF1bY0hdW2NIXWMzW0NIM10=

> <s_epik_cmdline>
J2VwaWtfcHl0aG9uJywgJy1waCcsICc3LjAnLCAnLXRuJywgJzgnLCAnLW1hJywgJzIwMCcsICctbWV0YWxfYmluZGluZycsICctaW1hZScsICc8aW5maWxlLm1hZT4nLCAnLW9tYWUnLCAnPG91dGZpbGUubWFlPic=

> <r_lp_tautomer_probability>
1

> <r_epik_Ionization_Penalty>
0.0447032

> <r_epik_Ionization_Penalty_Charging>
0

> <r_epik_Ionization_Penalty_Neutral>
0.0447032

> <r_epik_State_Penalty>
0.0379025

> <r_epik_Charging_Adjusted_Penalty>
0.0379025

> <i_epik_Tot_Q>
0

> <i_epik_Tot_abs_Q>
0

> <r_epik_Metal_State_Penalty>
3.91398e-05

> <b_epik_Metal_Only>
0

> <s_lp_Force_Field>
OPLS_2005

> <r_lp_Energy>
17.6925

> <b_lp_Chiralities_Consistent>
1

> <s_lp_Variant>
AV-unprocessed.smi:870-1

> <Gold.Version>
5.8.1

> <Gold.Id.Protein>
6NUR|6NUR_protein|mol2

> <Gold.PLP.Fitness>
53.1561

> <Gold.PLP.PLP>
-50.1983

> <Gold.PLP.part.hbond>
-1.8910

> <Gold.PLP.part.metal>
0.0000

> <Gold.PLP.part.buried>
-5.7589

> <Gold.PLP.part.nonpolar>
-42.2695

> <Gold.PLP.part.repulsive>
0.1760

> <Gold.PLP.ligand.clash>
0.0000

> <Gold.PLP.ligand.torsion>
0.9150

> <Gold.PLP.Chemscore.Hbond>
1.4967

> <Gold.PLP.Chemscore.CHOScore>
0.0000

> <Gold.PLP.Chemscore.Metal>
0.0000

> <Gold.Chemscore.Hbonds>
donor molecule, donor type, donor heavy atom, donor atom, acceptor molecule, acceptor atom, score
      P1  H  7989  7998       L1     2  0.98
      P1  H  7997  8010       L1     5  0.44

> <Gold.PLP.Chemscore.Internal.Correction>
0.2976

> <Gold.Rescore>
     Score         DG    S(hbond)    S(metal)    S(lipo)     H(rot)  DE(clash)    DE(int)     intcor
     17.56     -19.55       1.00        0.00     143.40       2.36       0.91       1.07       ----

> <Gold.Chemscore.Fitness>
17.5644

> <Gold.Chemscore.DG>
-19.5495

> <Gold.Chemscore.ZeroCoef>
-5.4800

> <Gold.Chemscore.Hbond>
0.9970

> <Gold.Chemscore.Metal>
0.0000

> <Gold.Chemscore.Lipo>
143.3962

> <Gold.Chemscore.Internal_Hbond>
0.0000

> <Gold.Chemscore.DEClash>
0.9121

> <Gold.Chemscore.DEInternal>
1.0730

> <Gold.Chemscore.Rot>
2.3585

> <Gold.Chemscore.Internal.Correction>
   9.000000E+99

> <Gold.Chemscore.Hbonds>
donor molecule, donor type, donor heavy atom, donor atom, acceptor molecule, acceptor atom, score
      P1  H  7989  7998       L1     2  0.31
      P1  H  7997  8010       L1     5  0.11

> <Gold.Chemscore.Hbond.Weighted>
-3.3299

> <Gold.Chemscore.Metal.Weighted>
-0.0000

> <Gold.Chemscore.Lipo.Weighted>
-16.7774

> <Gold.Chemscore.Internal_Hbond.Weighted>
0.0000

> <Gold.Chemscore.DEClash.Weighted>
0.9121

> <Gold.Chemscore.DEInternal.Weighted>
1.0730

> <Gold.Chemscore.Rot.Weighted>
6.0378

> <Gold.Chemscore.Internal.Correction.Weighted>
   9.000000E+99

> <Gold.Protein.RotatedTorsions>
[ 6907 6896 6895 6894 ] final  -28.84 input  -60.11 | X-H torsion
[ 7974 7965 7964 7962 ] final  -94.01 input  175.53 | X-H torsion
[ 8008 7997 7996 7995 ] final   39.98 input   59.86 | X-H torsion
[ 10167 10162 10161 10158 ] final  -87.92 input  -65.29 | X-H torsion
[ 10718 10713 10712 10709 ] final   70.15 input   66.30 | X-H torsion
[ 10763 10752 10751 10750 ] final -157.94 input  -60.55 | X-H torsion
[ 11005 11000 10999 10996 ] final   -1.26 input  -57.11 | X-H torsion

> <Gold.Protein.ActiveResidues>
 VAL166  LYS551  ARG553  GLY616  TRP617  ASP618  TYR619  PRO620  LYS621  CYS622 
 ASP623  PHE694  ASN695  SER759  ASP760  ASP761  ALA762  ILE779  LEU786  VAL792 
 PHE793  MET794  SER795  GLU796  ALA797  LYS798  CYS799  TRP800  GLU811  SER814 

> <Gold.Protein.RotatedAtoms>
  151.1275  135.0112  159.8566 H   0  0  0  0  0  0  0  0  0  0  0  0  # atno 6907 bound_to 6896
  152.5450  134.1650  159.8583 H   0  0  0  0  0  0  0  0  0  0  0  0  # atno 6908 bound_to 6896
  151.1713  133.4737  159.2627 H   0  0  0  0  0  0  0  0  0  0  0  0  # atno 6909 bound_to 6896
  145.3790  140.9515  143.2404 H   0  0  0  0  0  0  0  0  0  0  0  0  # atno 7974 bound_to 7965
  155.2456  140.3348  155.4287 H   0  0  0  0  0  0  0  0  0  0  0  0  # atno 8008 bound_to 7997
  156.2237  140.1820  156.7458 H   0  0  0  0  0  0  0  0  0  0  0  0  # atno 8009 bound_to 7997
  154.5866  140.0645  156.9164 H   0  0  0  0  0  0  0  0  0  0  0  0  # atno 8010 bound_to 7997
  140.3797  143.2754  151.9399 H   0  0  0  0  0  0  0  0  0  0  0  0  # atno 10167 bound_to 10162
  157.6384  130.9462  150.0611 H   0  0  0  0  0  0  0  0  0  0  0  0  # atno 10718 bound_to 10713
  154.7596  135.3114  154.8403 H   0  0  0  0  0  0  0  0  0  0  0  0  # atno 10763 bound_to 10752
  153.9167  135.6800  153.4753 H   0  0  0  0  0  0  0  0  0  0  0  0  # atno 10764 bound_to 10752
  153.1196  135.4828  154.9104 H   0  0  0  0  0  0  0  0  0  0  0  0  # atno 10765 bound_to 10752
  140.6453  133.9453  155.8349 H   0  0  0  0  0  0  0  0  0  0  0  0  # atno 11005 bound_to 11000
  144.8521  139.5305  143.6851 LP  0  0  0  0  0  0  0  0  0  0  0  0  # atno 17320 bound_to 7965
  146.2851  139.6981  142.9201 LP  0  0  0  0  0  0  0  0  0  0  0  0  # atno 17321 bound_to 7965
  139.4796  144.5830  151.7901 LP  0  0  0  0  0  0  0  0  0  0  0  0  # atno 17342 bound_to 10162
  140.4950  144.1254  150.5958 LP  0  0  0  0  0  0  0  0  0  0  0  0  # atno 17343 bound_to 10162
  156.1644  130.3644  149.9254 LP  0  0  0  0  0  0  0  0  0  0  0  0  # atno 17370 bound_to 10713
  156.7244  130.9019  151.3621 LP  0  0  0  0  0  0  0  0  0  0  0  0  # atno 17371 bound_to 10713
  141.0576  134.0393  157.3701 LP  0  0  0  0  0  0  0  0  0  0  0  0  # atno 17394 bound_to 11000
  139.9065  135.0180  156.7508 LP  0  0  0  0  0  0  0  0  0  0  0  0  # atno 17395 bound_to 11000

$$$$
