AV-unprocessed.smi:149|AV-procd|sdf|1236|dock3
  -GOLD-   2262018443D 1   1.00000     0.00000
 Structure written by MMmdl.
 60 64  0  0  0  0  0  0  0  0  2 V2000
  149.4739  134.5331  157.0971 C   0  0  0  0  0  0  0  0  0  0  0  0
  150.6874  134.6391  156.1511 C   0  0  2  0  0  0  0  0  0  0  0  0
  151.8103  135.4644  156.8022 C   0  0  0  0  0  0  0  0  0  0  0  0
  151.6995  136.8085  156.2488 N   0  0  0  0  0  0  0  0  0  0  0  0
  152.0951  137.8978  156.9572 C   0  0  0  0  0  0  0  0  0  0  0  0
  153.0948  137.7570  157.8677 N   0  0  0  0  0  0  0  0  0  0  0  0
  153.5082  138.8033  158.5884 C   0  0  0  0  0  0  0  0  0  0  0  0
  153.0662  140.0611  158.5612 N   0  0  0  0  0  0  0  0  0  0  0  0
  152.0582  140.2125  157.6556 C   0  0  0  0  0  0  0  0  0  0  0  0
  151.5111  139.1924  156.8246 C   0  0  0  0  0  0  0  0  0  0  0  0
  150.4785  139.7203  156.0571 N   0  0  0  0  0  0  0  0  0  0  0  0
  150.4218  140.9749  156.4103 C   0  0  0  0  0  0  0  0  0  0  0  0
  151.3556  141.3641  157.3428 N   0  0  0  0  0  0  0  0  0  0  0  0
  151.4851  142.6658  157.9308 C   0  0  0  0  0  0  0  0  0  0  0  0
  152.7889  143.0970  158.6108 C   0  0  0  0  0  0  0  0  0  0  0  0
  151.9895  143.8707  159.6832 C   0  0  0  0  0  0  0  0  0  0  0  0
  152.4662  143.6310  161.1239 C   0  0  0  0  0  0  0  0  0  0  0  0
  151.3939  143.2774  161.9737 O   0  0  0  0  0  0  0  0  0  0  0  0
  151.8834  145.3995  159.4857 C   0  0  0  0  0  0  0  0  0  0  0  0
  151.0016  146.0216  160.3981 O   0  0  0  0  0  0  0  0  0  0  0  0
  150.7793  143.0176  159.2437 C   0  0  0  0  0  0  0  0  0  0  0  0
  150.6000  136.8709  155.2977 C   0  0  0  0  0  0  0  0  0  0  0  0
  150.4121  135.4179  154.8485 C   0  0  2  0  0  0  0  0  0  0  0  0
  149.1054  135.1162  154.1985 N   0  3  0  0  0  0  0  0  0  0  0  0
  148.8044  133.6650  154.0971 C   0  0  0  0  0  0  0  0  0  0  0  0
  147.4581  133.4390  153.3874 C   0  0  0  0  0  0  0  0  0  0  0  0
  146.4268  134.1290  154.0801 O   0  0  0  0  0  0  0  0  0  0  0  0
  146.6548  135.5314  154.1055 C   0  0  0  0  0  0  0  0  0  0  0  0
  147.9704  135.8241  154.8447 C   0  0  0  0  0  0  0  0  0  0  0  0
  149.0732  135.5149  157.3508 H   0  0  0  0  0  0  0  0  0  0  0  0
  149.7531  134.0430  158.0301 H   0  0  0  0  0  0  0  0  0  0  0  0
  148.6667  133.9476  156.6576 H   0  0  0  0  0  0  0  0  0  0  0  0
  151.0448  133.6323  155.9324 H   0  0  0  0  0  0  0  0  0  0  0  0
  151.7308  135.4596  157.8902 H   0  0  0  0  0  0  0  0  0  0  0  0
  152.7863  135.0587  156.5343 H   0  0  0  0  0  0  0  0  0  0  0  0
  154.3083  138.6048  159.2861 H   0  0  0  0  0  0  0  0  0  0  0  0
  149.6939  141.6555  155.9927 H   0  0  0  0  0  0  0  0  0  0  0  0
  151.2081  143.3718  157.1472 H   0  0  0  0  0  0  0  0  0  0  0  0
  153.3408  142.2509  159.0232 H   0  0  0  0  0  0  0  0  0  0  0  0
  153.4370  143.7135  157.9873 H   0  0  0  0  0  0  0  0  0  0  0  0
  153.1971  142.8226  161.1612 H   0  0  0  0  0  0  0  0  0  0  0  0
  152.9628  144.5138  161.5279 H   0  0  0  0  0  0  0  0  0  0  0  0
  151.0965  144.0545  162.4218 H   0  0  0  0  0  0  0  0  0  0  0  0
  152.8571  145.8768  159.5997 H   0  0  0  0  0  0  0  0  0  0  0  0
  151.5365  145.6356  158.4792 H   0  0  0  0  0  0  0  0  0  0  0  0
  150.4856  146.6593  159.9291 H   0  0  0  0  0  0  0  0  0  0  0  0
  149.8498  143.5735  159.1182 H   0  0  0  0  0  0  0  0  0  0  0  0
  150.6259  142.1430  159.8782 H   0  0  0  0  0  0  0  0  0  0  0  0
  149.7047  137.2524  155.7911 H   0  0  0  0  0  0  0  0  0  0  0  0
  150.8426  137.5261  154.4601 H   0  0  0  0  0  0  0  0  0  0  0  0
  151.2070  135.1885  154.1356 H   0  0  0  0  0  0  0  0  0  0  0  0
  149.5836  133.1485  153.5371 H   0  0  0  0  0  0  0  0  0  0  0  0
  148.7803  133.2252  155.0956 H   0  0  0  0  0  0  0  0  0  0  0  0
  147.5032  133.7749  152.3501 H   0  0  0  0  0  0  0  0  0  0  0  0
  147.2182  132.3757  153.3664 H   0  0  0  0  0  0  0  0  0  0  0  0
  146.6794  135.9294  153.0897 H   0  0  0  0  0  0  0  0  0  0  0  0
  145.8220  136.0145  154.6169 H   0  0  0  0  0  0  0  0  0  0  0  0
  147.8874  135.5077  155.8858 H   0  0  0  0  0  0  0  0  0  0  0  0
  148.1443  136.8997  154.8538 H   0  0  0  0  0  0  0  0  0  0  0  0
  149.1683  135.4617  153.2515 H   0  0  0  0  0  0  0  0  0  0  0  0
  1  2  1  0  0  0  0
  1 30  1  0  0  0  0
  1 31  1  0  0  0  0
  1 32  1  0  0  0  0
  2 23  1  0  0  0  0
  2  3  1  0  0  0  0
  2 33  1  0  0  0  0
  3  4  1  0  0  0  0
  3 34  1  0  0  0  0
  3 35  1  0  0  0  0
  4  5  1  0  0  0  0
  4 22  1  0  0  0  0
  5 10  1  0  0  0  0
  5  6  2  0  0  0  0
  6  7  1  0  0  0  0
  7  8  2  0  0  0  0
  7 36  1  0  0  0  0
  8  9  1  0  0  0  0
  9 13  1  0  0  0  0
  9 10  2  0  0  0  0
 10 11  1  0  0  0  0
 11 12  2  0  0  0  0
 12 13  1  0  0  0  0
 12 37  1  0  0  0  0
 13 14  1  0  0  0  0
 14 21  1  0  0  0  0
 14 15  1  0  0  0  0
 14 38  1  0  0  0  0
 15 16  1  0  0  0  0
 15 39  1  0  0  0  0
 15 40  1  0  0  0  0
 16 17  1  0  0  0  0
 16 19  1  0  0  0  0
 16 21  1  0  0  0  0
 17 18  1  0  0  0  0
 17 41  1  0  0  0  0
 17 42  1  0  0  0  0
 18 43  1  0  0  0  0
 19 20  1  0  0  0  0
 19 44  1  0  0  0  0
 19 45  1  0  0  0  0
 20 46  1  0  0  0  0
 21 47  1  0  0  0  0
 21 48  1  0  0  0  0
 22 23  1  0  0  0  0
 22 49  1  0  0  0  0
 22 50  1  0  0  0  0
 23 24  1  0  0  0  0
 23 51  1  0  0  0  0
 24 29  1  0  0  0  0
 24 25  1  0  0  0  0
 24 60  1  0  0  0  0
 25 26  1  0  0  0  0
 25 52  1  0  0  0  0
 25 53  1  0  0  0  0
 26 27  1  0  0  0  0
 26 54  1  0  0  0  0
 26 55  1  0  0  0  0
 27 28  1  0  0  0  0
 28 29  1  0  0  0  0
 28 56  1  0  0  0  0
 28 57  1  0  0  0  0
 29 58  1  0  0  0  0
 29 59  1  0  0  0  0
M  CHG  1  24   1
M  END
> <s_m_source_file>
AV-unprocessed.smi

> <i_m_source_file_index>
149

> <i_lp_mmshare_version>
43012

> <i_f3d_flags>
0

> <s_epik_input>
W0NIMl0xW0NIMl1PW0NIMl1bQ0gyXU4xW0NAQEhdMltDSDJdTihbQ0gyXVtDQEhdMltDSDNdKWMobltjSF1uMyljKGMzNCluW2NIXW40W0NIXShbQ0gyXTUpW0NIMl1DNShbQ0gyXVtPSF0pW0NIMl1bT0hd

> <s_epik_cmdline>
J2VwaWtfcHl0aG9uJywgJy1waCcsICc3LjAnLCAnLXRuJywgJzgnLCAnLW1hJywgJzIwMCcsICctbWV0YWxfYmluZGluZycsICctaW1hZScsICc8aW5maWxlLm1hZT4nLCAnLW9tYWUnLCAnPG91dGZpbGUubWFlPic=

> <r_lp_tautomer_probability>
1

> <r_epik_Ionization_Penalty>
0.404847

> <r_epik_Ionization_Penalty_Charging>
0.404623

> <r_epik_Ionization_Penalty_Neutral>
0.000224096

> <r_epik_State_Penalty>
0.238803

> <r_epik_Charging_Adjusted_Penalty>
0.643425

> <i_epik_Tot_Q>
1

> <i_epik_Tot_abs_Q>
1

> <r_epik_Metal_State_Penalty>
0.239083

> <b_epik_Metal_Only>
0

> <s_lp_Force_Field>
OPLS_2005

> <r_lp_Energy>
71.321

> <b_lp_Chiralities_Consistent>
1

> <s_lp_Variant>
AV-unprocessed.smi:149-3

> <Gold.Version>
5.8.1

> <Gold.Id.Protein>
6NUR|6NUR_protein|mol2

> <Gold.PLP.Fitness>
48.5733

> <Gold.PLP.PLP>
-43.9649

> <Gold.PLP.part.hbond>
-6.3319

> <Gold.PLP.part.metal>
0.0000

> <Gold.PLP.part.buried>
-3.5493

> <Gold.PLP.part.nonpolar>
-34.4453

> <Gold.PLP.part.repulsive>
0.0903

> <Gold.PLP.ligand.clash>
0.0000

> <Gold.PLP.ligand.torsion>
1.9912

> <Gold.PLP.Chemscore.Hbond>
2.6344

> <Gold.PLP.Chemscore.CHOScore>
0.0000

> <Gold.PLP.Chemscore.Metal>
0.0000

> <Gold.Chemscore.Hbonds>
donor molecule, donor type, donor heavy atom, donor atom, acceptor molecule, acceptor atom, score
      L1  H    24    60       P1  7948  2.00
      P1  H  6933  6945       L1    18  0.63

> <Gold.PLP.Chemscore.Internal.Correction>
0.6876

> <Gold.Rescore>
     Score         DG    S(hbond)    S(metal)    S(lipo)     H(rot)  DE(clash)    DE(int)     intcor
      7.59     -13.69       1.24        0.00     102.48       3.09       1.39       4.71       ----

> <Gold.Chemscore.Fitness>
7.5858

> <Gold.Chemscore.DG>
-13.6919

> <Gold.Chemscore.ZeroCoef>
-5.4800

> <Gold.Chemscore.Hbond>
1.2380

> <Gold.Chemscore.Metal>
0.0000

> <Gold.Chemscore.Lipo>
102.4822

> <Gold.Chemscore.Internal_Hbond>
0.0000

> <Gold.Chemscore.DEClash>
1.3917

> <Gold.Chemscore.DEInternal>
4.7144

> <Gold.Chemscore.Rot>
3.0912

> <Gold.Chemscore.Internal.Correction>
   9.000000E+99

> <Gold.Chemscore.Hbonds>
donor molecule, donor type, donor heavy atom, donor atom, acceptor molecule, acceptor atom, score
      L1  H    24    60       P1  7948  0.34
      P1  H  6933  6945       L1    18  0.41

> <Gold.Chemscore.Hbond.Weighted>
-4.1349

> <Gold.Chemscore.Metal.Weighted>
-0.0000

> <Gold.Chemscore.Lipo.Weighted>
-11.9904

> <Gold.Chemscore.Internal_Hbond.Weighted>
0.0000

> <Gold.Chemscore.DEClash.Weighted>
1.3917

> <Gold.Chemscore.DEInternal.Weighted>
4.7144

> <Gold.Chemscore.Rot.Weighted>
7.9135

> <Gold.Chemscore.Internal.Correction.Weighted>
   9.000000E+99

> <Gold.Protein.RotatedTorsions>
[ 6907 6896 6895 6894 ] final   27.45 input  -60.11 | X-H torsion
[ 7974 7965 7964 7962 ] final  -53.38 input  175.53 | X-H torsion
[ 8008 7997 7996 7995 ] final   56.07 input   59.86 | X-H torsion
[ 10167 10162 10161 10158 ] final -106.44 input  -65.29 | X-H torsion
[ 10718 10713 10712 10709 ] final  106.66 input   66.30 | X-H torsion
[ 10763 10752 10751 10750 ] final -137.15 input  -60.55 | X-H torsion
[ 11005 11000 10999 10996 ] final  115.53 input  -57.11 | X-H torsion

> <Gold.Protein.ActiveResidues>
 VAL166  LYS551  ARG553  GLY616  TRP617  ASP618  TYR619  PRO620  LYS621  CYS622 
 ASP623  PHE694  ASN695  SER759  ASP760  ASP761  ALA762  ILE779  LEU786  VAL792 
 PHE793  MET794  SER795  GLU796  ALA797  LYS798  CYS799  TRP800  GLU811  SER814 

> <Gold.Protein.RotatedAtoms>
  152.0025  134.9921  160.0565 H   0  0  0  0  0  0  0  0  0  0  0  0  # atno 6907 bound_to 6896
  152.1506  133.4515  159.4820 H   0  0  0  0  0  0  0  0  0  0  0  0  # atno 6908 bound_to 6896
  150.6875  134.2112  159.4403 H   0  0  0  0  0  0  0  0  0  0  0  0  # atno 6909 bound_to 6896
  145.8975  140.8021  142.9760 H   0  0  0  0  0  0  0  0  0  0  0  0  # atno 7974 bound_to 7965
  155.5115  140.3477  155.4389 H   0  0  0  0  0  0  0  0  0  0  0  0  # atno 8008 bound_to 7997
  156.0846  140.1395  156.9696 H   0  0  0  0  0  0  0  0  0  0  0  0  # atno 8009 bound_to 7997
  154.4599  140.0939  156.6841 H   0  0  0  0  0  0  0  0  0  0  0  0  # atno 8010 bound_to 7997
  140.1877  143.3916  152.1231 H   0  0  0  0  0  0  0  0  0  0  0  0  # atno 10167 bound_to 10162
  157.6659  131.0855  150.6040 H   0  0  0  0  0  0  0  0  0  0  0  0  # atno 10718 bound_to 10713
  154.8668  135.3651  154.5176 H   0  0  0  0  0  0  0  0  0  0  0  0  # atno 10763 bound_to 10752
  153.5808  135.7018  153.5469 H   0  0  0  0  0  0  0  0  0  0  0  0  # atno 10764 bound_to 10752
  153.3459  135.4085  155.1570 H   0  0  0  0  0  0  0  0  0  0  0  0  # atno 10765 bound_to 10752
  139.9013  134.9585  156.7059 H   0  0  0  0  0  0  0  0  0  0  0  0  # atno 11005 bound_to 11000
  144.6734  140.1625  143.7421 LP  0  0  0  0  0  0  0  0  0  0  0  0  # atno 17320 bound_to 7965
  145.8832  139.2334  143.1593 LP  0  0  0  0  0  0  0  0  0  0  0  0  # atno 17321 bound_to 7965
  139.5269  144.7113  151.5197 LP  0  0  0  0  0  0  0  0  0  0  0  0  # atno 17342 bound_to 10162
  140.6477  143.8761  150.6754 LP  0  0  0  0  0  0  0  0  0  0  0  0  # atno 17343 bound_to 10162
  156.6341  130.4440  149.5776 LP  0  0  0  0  0  0  0  0  0  0  0  0  # atno 17370 bound_to 10713
  156.2259  130.6765  151.1416 LP  0  0  0  0  0  0  0  0  0  0  0  0  # atno 17371 bound_to 10713
  140.7114  133.9220  155.8087 LP  0  0  0  0  0  0  0  0  0  0  0  0  # atno 17394 bound_to 11000
  141.0297  134.0773  157.4028 LP  0  0  0  0  0  0  0  0  0  0  0  0  # atno 17395 bound_to 11000

$$$$
