AV-unprocessed.smi:282|AV-procd|sdf|2124|dock9
  -GOLD-   2262021433D 1   1.00000     0.00000
 Structure written by MMmdl.
 65 69  0  0  0  0  0  0  0  0  2 V2000
  151.9736  138.6872  154.6889 C   0  0  0  0  0  0  0  0  0  0  0  0
  152.5458  139.3340  155.9576 C   0  0  0  0  0  0  0  0  0  0  0  0
  151.5434  139.3624  157.1312 C   0  0  1  0  0  0  0  0  0  0  0  0
  152.1710  139.9718  158.4044 C   0  0  0  0  0  0  0  0  0  0  0  0
  152.3230  141.4466  158.3017 N   0  3  2  0  0  0  0  0  0  0  0  0
  152.9610  142.0214  159.5137 C   0  0  0  0  0  0  0  0  0  0  0  0
  153.2268  143.5252  159.3455 C   0  0  0  0  0  0  0  0  0  0  0  0
  151.9303  144.2717  159.0105 C   0  0  0  0  0  0  0  0  0  0  0  0
  151.2777  143.6522  157.7685 C   0  0  0  0  0  0  0  0  0  0  0  0
  151.0486  142.1377  157.9459 C   0  0  1  0  0  0  0  0  0  0  0  0
  150.4309  141.5304  156.6702 C   0  0  0  0  0  0  0  0  0  0  0  0
  150.3119  140.0790  156.7821 N   0  0  0  0  0  0  0  0  0  0  0  0
  149.1200  139.6201  157.2458 C   0  0  0  0  0  0  0  0  0  0  0  0
  148.0364  140.4411  157.2651 N   0  0  0  0  0  0  0  0  0  0  0  0
  146.8585  139.9953  157.7106 C   0  0  0  0  0  0  0  0  0  0  0  0
  146.5481  138.7850  158.1776 N   0  0  0  0  0  0  0  0  0  0  0  0
  147.6321  137.9579  158.1712 C   0  0  0  0  0  0  0  0  0  0  0  0
  148.9414  138.2905  157.7219 C   0  0  0  0  0  0  0  0  0  0  0  0
  149.7832  137.1945  157.8667 N   0  0  0  0  0  0  0  0  0  0  0  0
  149.0132  136.2644  158.3616 C   0  0  0  0  0  0  0  0  0  0  0  0
  147.7094  136.6414  158.5934 N   0  0  0  0  0  0  0  0  0  0  0  0
  146.6451  135.8105  159.1385 C   0  0  0  0  0  0  0  0  0  0  0  0
  146.4032  135.9742  160.6688 C   0  0  0  0  0  0  0  0  0  0  0  0
  145.2651  136.9986  160.9455 C   0  0  0  0  0  0  0  0  0  0  0  0
  145.5866  138.2944  160.4809 O   0  0  0  0  0  0  0  0  0  0  0  0
  146.0284  134.6051  161.2902 C   0  0  0  0  0  0  0  0  0  0  0  0
  146.0872  134.6041  162.8289 C   0  0  0  0  0  0  0  0  0  0  0  0
  147.3755  135.0132  163.2692 O   0  0  0  0  0  0  0  0  0  0  0  0
  147.7030  136.3358  162.8632 C   0  0  0  0  0  0  0  0  0  0  0  0
  147.7333  136.4197  161.3267 C   0  0  0  0  0  0  0  0  0  0  0  0
  152.7256  138.6516  153.9003 H   0  0  0  0  0  0  0  0  0  0  0  0
  151.1206  139.2472  154.3048 H   0  0  0  0  0  0  0  0  0  0  0  0
  151.6450  137.6654  154.8811 H   0  0  0  0  0  0  0  0  0  0  0  0
  153.4281  138.7681  156.2586 H   0  0  0  0  0  0  0  0  0  0  0  0
  152.9022  140.3378  155.7263 H   0  0  0  0  0  0  0  0  0  0  0  0
  151.3030  138.3202  157.3464 H   0  0  0  0  0  0  0  0  0  0  0  0
  151.5447  139.7464  159.2686 H   0  0  0  0  0  0  0  0  0  0  0  0
  153.1401  139.5114  158.6007 H   0  0  0  0  0  0  0  0  0  0  0  0
  152.3197  141.8489  160.3798 H   0  0  0  0  0  0  0  0  0  0  0  0
  153.9026  141.5072  159.7090 H   0  0  0  0  0  0  0  0  0  0  0  0
  153.6658  143.9311  160.2573 H   0  0  0  0  0  0  0  0  0  0  0  0
  153.9584  143.6828  158.5519 H   0  0  0  0  0  0  0  0  0  0  0  0
  151.2427  144.2186  159.8556 H   0  0  0  0  0  0  0  0  0  0  0  0
  152.1367  145.3289  158.8406 H   0  0  0  0  0  0  0  0  0  0  0  0
  150.3301  144.1523  157.5645 H   0  0  0  0  0  0  0  0  0  0  0  0
  151.9128  143.8302  156.8994 H   0  0  0  0  0  0  0  0  0  0  0  0
  150.3490  141.9871  158.7706 H   0  0  0  0  0  0  0  0  0  0  0  0
  149.4653  141.9983  156.4806 H   0  0  0  0  0  0  0  0  0  0  0  0
  151.0497  141.7631  155.8034 H   0  0  0  0  0  0  0  0  0  0  0  0
  146.0492  140.7103  157.6908 H   0  0  0  0  0  0  0  0  0  0  0  0
  149.3802  135.2724  158.5813 H   0  0  0  0  0  0  0  0  0  0  0  0
  145.7313  136.0382  158.5880 H   0  0  0  0  0  0  0  0  0  0  0  0
  146.8760  134.7714  158.9002 H   0  0  0  0  0  0  0  0  0  0  0  0
  144.3344  136.6834  160.4738 H   0  0  0  0  0  0  0  0  0  0  0  0
  145.0443  137.0783  162.0084 H   0  0  0  0  0  0  0  0  0  0  0  0
  144.7827  138.7551  160.2944 H   0  0  0  0  0  0  0  0  0  0  0  0
  145.0352  134.2934  160.9654 H   0  0  0  0  0  0  0  0  0  0  0  0
  146.7192  133.8427  160.9281 H   0  0  0  0  0  0  0  0  0  0  0  0
  145.3195  135.2458  163.2619 H   0  0  0  0  0  0  0  0  0  0  0  0
  145.8969  133.5985  163.2041 H   0  0  0  0  0  0  0  0  0  0  0  0
  146.9996  137.0499  163.2923 H   0  0  0  0  0  0  0  0  0  0  0  0
  148.6843  136.5883  163.2650 H   0  0  0  0  0  0  0  0  0  0  0  0
  148.5429  135.7792  160.9737 H   0  0  0  0  0  0  0  0  0  0  0  0
  147.9996  137.4302  161.0158 H   0  0  0  0  0  0  0  0  0  0  0  0
  152.9588  141.6128  157.5346 H   0  0  0  0  0  0  0  0  0  0  0  0
  1  2  1  0  0  0  0
  1 31  1  0  0  0  0
  1 32  1  0  0  0  0
  1 33  1  0  0  0  0
  2  3  1  0  0  0  0
  2 34  1  0  0  0  0
  2 35  1  0  0  0  0
  3 12  1  0  0  0  0
  3  4  1  0  0  0  0
  3 36  1  0  0  0  0
  4  5  1  0  0  0  0
  4 37  1  0  0  0  0
  4 38  1  0  0  0  0
  5 10  1  0  0  0  0
  5  6  1  0  0  0  0
  5 65  1  0  0  0  0
  6  7  1  0  0  0  0
  6 39  1  0  0  0  0
  6 40  1  0  0  0  0
  7  8  1  0  0  0  0
  7 41  1  0  0  0  0
  7 42  1  0  0  0  0
  8  9  1  0  0  0  0
  8 43  1  0  0  0  0
  8 44  1  0  0  0  0
  9 10  1  0  0  0  0
  9 45  1  0  0  0  0
  9 46  1  0  0  0  0
 10 11  1  0  0  0  0
 10 47  1  0  0  0  0
 11 12  1  0  0  0  0
 11 48  1  0  0  0  0
 11 49  1  0  0  0  0
 12 13  1  0  0  0  0
 13 18  1  0  0  0  0
 13 14  2  0  0  0  0
 14 15  1  0  0  0  0
 15 16  2  0  0  0  0
 15 50  1  0  0  0  0
 16 17  1  0  0  0  0
 17 21  1  0  0  0  0
 17 18  2  0  0  0  0
 18 19  1  0  0  0  0
 19 20  2  0  0  0  0
 20 21  1  0  0  0  0
 20 51  1  0  0  0  0
 21 22  1  0  0  0  0
 22 23  1  0  0  0  0
 22 52  1  0  0  0  0
 22 53  1  0  0  0  0
 23 30  1  0  0  0  0
 23 24  1  0  0  0  0
 23 26  1  0  0  0  0
 24 25  1  0  0  0  0
 24 54  1  0  0  0  0
 24 55  1  0  0  0  0
 25 56  1  0  0  0  0
 26 27  1  0  0  0  0
 26 57  1  0  0  0  0
 26 58  1  0  0  0  0
 27 28  1  0  0  0  0
 27 59  1  0  0  0  0
 27 60  1  0  0  0  0
 28 29  1  0  0  0  0
 29 30  1  0  0  0  0
 29 61  1  0  0  0  0
 29 62  1  0  0  0  0
 30 63  1  0  0  0  0
 30 64  1  0  0  0  0
M  CHG  1   5   1
M  END
> <s_m_source_file>
AV-unprocessed.smi

> <i_m_source_file_index>
282

> <i_lp_mmshare_version>
43012

> <i_f3d_flags>
0

> <s_epik_input>
W0NIMl0xW0NIMl1bQ0gyXVtDSDJdW0NAQEhdKE4xMilbQ0gyXU4oW0NAQEhdKFtDSDJdMilbQ0gyXVtDSDNdKWMobltjSF1uMyljKGMzNCluW2NIXW40W0NIMl1DNShbQ0gyXVtPSF0pW0NIMl1bQ0gyXU9bQ0gyXVtDSDJdNQ==

> <s_epik_cmdline>
J2VwaWtfcHl0aG9uJywgJy1waCcsICc3LjAnLCAnLXRuJywgJzgnLCAnLW1hJywgJzIwMCcsICctbWV0YWxfYmluZGluZycsICctaW1hZScsICc8aW5maWxlLm1hZT4nLCAnLW9tYWUnLCAnPG91dGZpbGUubWFlPic=

> <r_lp_tautomer_probability>
1

> <r_epik_Ionization_Penalty>
0.00308583

> <r_epik_Ionization_Penalty_Charging>
0.00300384

> <r_epik_Ionization_Penalty_Neutral>
8.19894e-05

> <r_epik_State_Penalty>
-0

> <r_epik_Charging_Adjusted_Penalty>
0.00300384

> <i_epik_Tot_Q>
1

> <i_epik_Tot_abs_Q>
1

> <r_epik_Metal_State_Penalty>
-0

> <b_epik_Metal_Only>
0

> <s_lp_Force_Field>
OPLS_2005

> <r_lp_Energy>
57.1852

> <b_lp_Chiralities_Consistent>
1

> <s_lp_Variant>
AV-unprocessed.smi:282-8

> <Gold.Version>
5.8.1

> <Gold.Id.Protein>
6NUR|6NUR_protein|mol2

> <Gold.PLP.Fitness>
48.3253

> <Gold.PLP.PLP>
-48.1703

> <Gold.PLP.part.hbond>
-1.5478

> <Gold.PLP.part.metal>
0.0000

> <Gold.PLP.part.buried>
-5.6803

> <Gold.PLP.part.nonpolar>
-41.8446

> <Gold.PLP.part.repulsive>
0.1124

> <Gold.PLP.ligand.clash>
0.0000

> <Gold.PLP.ligand.torsion>
1.1731

> <Gold.PLP.Chemscore.Hbond>
0.7360

> <Gold.PLP.Chemscore.CHOScore>
0.0000

> <Gold.PLP.Chemscore.Metal>
0.0000

> <Gold.Chemscore.Hbonds>
donor molecule, donor type, donor heavy atom, donor atom, acceptor molecule, acceptor atom, score
      P1  H  6934  6947       L1    25  0.72

> <Gold.PLP.Chemscore.Internal.Correction>
0.2933

> <Gold.Rescore>
     Score         DG    S(hbond)    S(metal)    S(lipo)     H(rot)  DE(clash)    DE(int)     intcor
     15.18     -18.24       0.80        0.00     134.38       2.20       0.51       2.54       ----

> <Gold.Chemscore.Fitness>
15.1836

> <Gold.Chemscore.DG>
-18.2380

> <Gold.Chemscore.ZeroCoef>
-5.4800

> <Gold.Chemscore.Hbond>
0.8020

> <Gold.Chemscore.Metal>
0.0000

> <Gold.Chemscore.Lipo>
134.3772

> <Gold.Chemscore.Internal_Hbond>
0.0000

> <Gold.Chemscore.DEClash>
0.5149

> <Gold.Chemscore.DEInternal>
2.5395

> <Gold.Chemscore.Rot>
2.2042

> <Gold.Chemscore.Internal.Correction>
   9.000000E+99

> <Gold.Chemscore.Hbonds>
donor molecule, donor type, donor heavy atom, donor atom, acceptor molecule, acceptor atom, score
      P1  H  6934  6947       L1    25  0.71

> <Gold.Chemscore.Hbond.Weighted>
-2.6788

> <Gold.Chemscore.Metal.Weighted>
-0.0000

> <Gold.Chemscore.Lipo.Weighted>
-15.7221

> <Gold.Chemscore.Internal_Hbond.Weighted>
0.0000

> <Gold.Chemscore.DEClash.Weighted>
0.5149

> <Gold.Chemscore.DEInternal.Weighted>
2.5395

> <Gold.Chemscore.Rot.Weighted>
5.6429

> <Gold.Chemscore.Internal.Correction.Weighted>
   9.000000E+99

> <Gold.Protein.RotatedTorsions>
[ 6907 6896 6895 6894 ] final -100.36 input  -60.11 | X-H torsion
[ 7974 7965 7964 7962 ] final  -19.95 input  175.53 | X-H torsion
[ 8008 7997 7996 7995 ] final  -53.49 input   59.86 | X-H torsion
[ 10167 10162 10161 10158 ] final   77.67 input  -65.29 | X-H torsion
[ 10718 10713 10712 10709 ] final   23.27 input   66.30 | X-H torsion
[ 10763 10752 10751 10750 ] final -121.99 input  -60.55 | X-H torsion
[ 11005 11000 10999 10996 ] final   90.29 input  -57.11 | X-H torsion

> <Gold.Protein.ActiveResidues>
 VAL166  LYS551  ARG553  GLY616  TRP617  ASP618  TYR619  PRO620  LYS621  CYS622 
 ASP623  PHE694  ASN695  SER759  ASP760  ASP761  ALA762  ILE779  LEU786  VAL792 
 PHE793  MET794  SER795  GLU796  ALA797  LYS798  CYS799  TRP800  GLU811  SER814 

> <Gold.Protein.RotatedAtoms>
  150.7113  134.0899  159.3927 H   0  0  0  0  0  0  0  0  0  0  0  0  # atno 6907 bound_to 6896
  151.8885  135.0424  160.0505 H   0  0  0  0  0  0  0  0  0  0  0  0  # atno 6908 bound_to 6896
  152.2511  133.5180  159.5362 H   0  0  0  0  0  0  0  0  0  0  0  0  # atno 6909 bound_to 6896
  146.1814  140.4134  142.8493 H   0  0  0  0  0  0  0  0  0  0  0  0  # atno 7974 bound_to 7965
  154.4135  140.1198  156.5163 H   0  0  0  0  0  0  0  0  0  0  0  0  # atno 8008 bound_to 7997
  155.6748  140.3496  155.4813 H   0  0  0  0  0  0  0  0  0  0  0  0  # atno 8009 bound_to 7997
  155.9602  140.1121  157.0892 H   0  0  0  0  0  0  0  0  0  0  0  0  # atno 8010 bound_to 7997
  139.9791  144.5840  150.7917 H   0  0  0  0  0  0  0  0  0  0  0  0  # atno 10167 bound_to 10162
  157.1638  130.6728  149.6053 H   0  0  0  0  0  0  0  0  0  0  0  0  # atno 10718 bound_to 10713
  154.8680  135.4148  154.2710 H   0  0  0  0  0  0  0  0  0  0  0  0  # atno 10763 bound_to 10752
  153.3620  135.7004  153.6710 H   0  0  0  0  0  0  0  0  0  0  0  0  # atno 10764 bound_to 10752
  153.5607  135.3610  155.2770 H   0  0  0  0  0  0  0  0  0  0  0  0  # atno 10765 bound_to 10752
  139.8859  134.8604  156.3264 H   0  0  0  0  0  0  0  0  0  0  0  0  # atno 11005 bound_to 11000
  144.8322  140.6725  143.6284 LP  0  0  0  0  0  0  0  0  0  0  0  0  # atno 17320 bound_to 7965
  145.4065  139.1588  143.4149 LP  0  0  0  0  0  0  0  0  0  0  0  0  # atno 17321 bound_to 7965
  140.7495  143.2940  151.3253 LP  0  0  0  0  0  0  0  0  0  0  0  0  # atno 17342 bound_to 10162
  139.6423  144.0515  152.2564 LP  0  0  0  0  0  0  0  0  0  0  0  0  # atno 17343 bound_to 10162
  155.9749  130.4702  150.6424 LP  0  0  0  0  0  0  0  0  0  0  0  0  # atno 17370 bound_to 10713
  157.4108  131.0823  151.1223 LP  0  0  0  0  0  0  0  0  0  0  0  0  # atno 17371 bound_to 10713
  140.9752  133.7302  156.0592 LP  0  0  0  0  0  0  0  0  0  0  0  0  # atno 17394 bound_to 11000
  140.7819  134.3715  157.5485 LP  0  0  0  0  0  0  0  0  0  0  0  0  # atno 17395 bound_to 11000

$$$$
