AV-unprocessed.smi:1131|AV-procd|sdf|4853|dock7
  -GOLD-   22720 3423D 1   1.00000     0.00000
 Structure written by MMmdl.
 32 33  0  0  0  0  0  0  0  0  2 V2000
  147.3917  142.1699  155.5230 O   0  0  0  0  0  0  0  0  0  0  0  0
  146.6271  141.6609  154.7021 C   0  0  0  0  0  0  0  0  0  0  0  0
  147.0856  140.4870  153.8262 C   0  0  0  0  0  0  0  0  0  0  0  0
  148.4113  139.9703  154.2028 N   0  0  0  0  0  0  0  0  0  0  0  0
  148.5197  138.5997  154.4975 C   0  0  0  0  0  0  0  0  0  0  0  0
  149.6915  138.0403  154.8544 C   0  0  0  0  0  0  0  0  0  0  0  0
  150.8694  138.8954  154.9310 C   0  0  0  0  0  0  0  0  0  0  0  0
  151.9492  138.4005  155.2489 O   0  0  0  0  0  0  0  0  0  0  0  0
  150.7120  140.2201  154.6411 N   0  5  0  0  0  0  0  0  0  0  0  0
  149.5132  140.7758  154.2820 C   0  0  0  0  0  0  0  0  0  0  0  0
  149.3926  141.9747  154.0263 O   0  0  0  0  0  0  0  0  0  0  0  0
  145.3562  142.0576  154.5350 N   0  0  0  0  0  0  0  0  0  0  0  0
  144.7023  143.1392  155.2648 C   0  0  0  0  0  0  0  0  0  0  0  0
  144.0976  144.1898  154.3144 C   0  0  1  0  0  0  0  0  0  0  0  0
  143.8139  145.5427  154.9390 C   0  0  0  0  0  0  0  0  0  0  0  0
  143.7128  146.4450  153.7127 C   0  0  0  0  0  0  0  0  0  0  0  0
  144.5656  145.8660  152.7287 O   0  0  0  0  0  0  0  0  0  0  0  0
  145.0264  144.5925  153.1698 C   0  0  0  0  0  0  0  0  0  0  0  0
  146.3358  139.6985  153.8990 H   0  0  0  0  0  0  0  0  0  0  0  0
  147.0846  140.7865  152.7765 H   0  0  0  0  0  0  0  0  0  0  0  0
  147.5998  138.0388  154.4229 H   0  0  0  0  0  0  0  0  0  0  0  0
  149.7577  136.9864  155.0806 H   0  0  0  0  0  0  0  0  0  0  0  0
  144.8021  141.5784  153.8400 H   0  0  0  0  0  0  0  0  0  0  0  0
  143.9418  142.7474  155.9427 H   0  0  0  0  0  0  0  0  0  0  0  0
  145.4551  143.6127  155.8956 H   0  0  0  0  0  0  0  0  0  0  0  0
  143.1713  143.8016  153.8872 H   0  0  0  0  0  0  0  0  0  0  0  0
  142.9099  145.5555  155.5485 H   0  0  0  0  0  0  0  0  0  0  0  0
  144.6511  145.8558  155.5646 H   0  0  0  0  0  0  0  0  0  0  0  0
  142.6929  146.4489  153.3260 H   0  0  0  0  0  0  0  0  0  0  0  0
  143.9965  147.4749  153.9306 H   0  0  0  0  0  0  0  0  0  0  0  0
  146.0521  144.7030  153.5246 H   0  0  0  0  0  0  0  0  0  0  0  0
  145.0276  143.8664  152.3567 H   0  0  0  0  0  0  0  0  0  0  0  0
  1  2  2  0  0  0  0
  2  3  1  0  0  0  0
  2 12  1  0  0  0  0
  3  4  1  0  0  0  0
  3 19  1  0  0  0  0
  3 20  1  0  0  0  0
  4 10  1  0  0  0  0
  4  5  1  0  0  0  0
  5  6  2  0  0  0  0
  5 21  1  0  0  0  0
  6  7  1  0  0  0  0
  6 22  1  0  0  0  0
  7  8  2  0  0  0  0
  7  9  1  0  0  0  0
  9 10  1  0  0  0  0
 10 11  2  0  0  0  0
 12 13  1  0  0  0  0
 12 23  1  0  0  0  0
 13 14  1  0  0  0  0
 13 24  1  0  0  0  0
 13 25  1  0  0  0  0
 14 18  1  0  0  0  0
 14 15  1  0  0  0  0
 14 26  1  0  0  0  0
 15 16  1  0  0  0  0
 15 27  1  0  0  0  0
 15 28  1  0  0  0  0
 16 17  1  0  0  0  0
 16 29  1  0  0  0  0
 16 30  1  0  0  0  0
 17 18  1  0  0  0  0
 18 31  1  0  0  0  0
 18 32  1  0  0  0  0
M  CHG  1   9  -1
M  END
> <s_m_source_file>
AV-unprocessed.smi

> <i_m_source_file_index>
1131

> <i_lp_mmshare_version>
43012

> <i_f3d_flags>
0

> <s_epik_input>
W0NIMl0xT1tDSDJdW0NIMl1bQ0BIXTFbQ0gyXVtOSF1DKD1PKVtDSDJdbjJbY0hdW2NIXWMoPU8pW25IXWMyPU8=

> <s_epik_cmdline>
J2VwaWtfcHl0aG9uJywgJy1waCcsICc3LjAnLCAnLXRuJywgJzgnLCAnLW1hJywgJzIwMCcsICctbWV0YWxfYmluZGluZycsICctaW1hZScsICc8aW5maWxlLm1hZT4nLCAnLW9tYWUnLCAnPG91dGZpbGUubWFlPic=

> <r_lp_tautomer_probability>
0.999537

> <r_epik_Ionization_Penalty>
3.07866

> <r_epik_Ionization_Penalty_Charging>
2.6898e-08

> <r_epik_Ionization_Penalty_Neutral>
3.07866

> <r_epik_State_Penalty>
3.07769

> <r_epik_Charging_Adjusted_Penalty>
3.07769

> <i_epik_Tot_Q>
-1

> <i_epik_Tot_abs_Q>
1

> <r_epik_Metal_State_Penalty>
0.459839

> <b_epik_Metal_Only>
1

> <s_lp_Force_Field>
OPLS_2005

> <r_lp_Energy>
26.9978

> <b_lp_Chiralities_Consistent>
1

> <s_lp_Variant>
AV-unprocessed.smi:1131-4

> <Gold.Version>
5.8.1

> <Gold.Id.Protein>
6NUR|6NUR_protein|mol2

> <Gold.PLP.Fitness>
35.6319

> <Gold.PLP.PLP>
-28.9559

> <Gold.PLP.part.hbond>
-5.8114

> <Gold.PLP.part.metal>
0.0000

> <Gold.PLP.part.buried>
-1.0384

> <Gold.PLP.part.nonpolar>
-23.5195

> <Gold.PLP.part.repulsive>
0.8244

> <Gold.PLP.ligand.clash>
0.0000

> <Gold.PLP.ligand.torsion>
0.2461

> <Gold.PLP.Chemscore.Hbond>
2.3840

> <Gold.PLP.Chemscore.CHOScore>
0.0000

> <Gold.PLP.Chemscore.Metal>
0.0000

> <Gold.Chemscore.Hbonds>
donor molecule, donor type, donor heavy atom, donor atom, acceptor molecule, acceptor atom, score
      L1  H    12    23       P1 10175  0.80
      P1  H  7989  7998       L1     9  0.90
      P1  H  8011  8017       L1    11  0.42

> <Gold.PLP.Chemscore.Internal.Correction>
0.0162

> <Gold.Rescore>
     Score         DG    S(hbond)    S(metal)    S(lipo)     H(rot)  DE(clash)    DE(int)     intcor
      5.70     -10.54       1.67        0.00      40.28       2.05       0.34       4.50       ----

> <Gold.Chemscore.Fitness>
5.6971

> <Gold.Chemscore.DG>
-10.5396

> <Gold.Chemscore.ZeroCoef>
-5.4800

> <Gold.Chemscore.Hbond>
1.6724

> <Gold.Chemscore.Metal>
0.0000

> <Gold.Chemscore.Lipo>
40.2755

> <Gold.Chemscore.Internal_Hbond>
0.0000

> <Gold.Chemscore.DEClash>
0.3436

> <Gold.Chemscore.DEInternal>
4.4989

> <Gold.Chemscore.Rot>
2.0463

> <Gold.Chemscore.Internal.Correction>
   9.000000E+99

> <Gold.Chemscore.Hbonds>
donor molecule, donor type, donor heavy atom, donor atom, acceptor molecule, acceptor atom, score
      L1  H    12    23       P1 10175  0.13
      P1  H  7989  7998       L1     9  0.17
      P1  H  8011  8017       L1    11  0.38

> <Gold.Chemscore.Hbond.Weighted>
-5.5860

> <Gold.Chemscore.Metal.Weighted>
-0.0000

> <Gold.Chemscore.Lipo.Weighted>
-4.7122

> <Gold.Chemscore.Internal_Hbond.Weighted>
0.0000

> <Gold.Chemscore.DEClash.Weighted>
0.3436

> <Gold.Chemscore.DEInternal.Weighted>
4.4989

> <Gold.Chemscore.Rot.Weighted>
5.2386

> <Gold.Chemscore.Internal.Correction.Weighted>
   9.000000E+99

> <Gold.Protein.RotatedTorsions>
[ 6907 6896 6895 6894 ] final   12.27 input  -60.11 | X-H torsion
[ 7974 7965 7964 7962 ] final   31.17 input  175.53 | X-H torsion
[ 8008 7997 7996 7995 ] final  -92.24 input   59.86 | X-H torsion
[ 10167 10162 10161 10158 ] final  179.83 input  -65.29 | X-H torsion
[ 10718 10713 10712 10709 ] final  152.16 input   66.30 | X-H torsion
[ 10763 10752 10751 10750 ] final   88.43 input  -60.55 | X-H torsion
[ 11005 11000 10999 10996 ] final  116.08 input  -57.11 | X-H torsion

> <Gold.Protein.ActiveResidues>
 VAL166  LYS551  ARG553  GLY616  TRP617  ASP618  TYR619  PRO620  LYS621  CYS622 
 ASP623  PHE694  ASN695  SER759  ASP760  ASP761  ALA762  ILE779  LEU786  VAL792 
 PHE793  MET794  SER795  GLU796  ALA797  LYS798  CYS799  TRP800  GLU811  SER814 

> <Gold.Protein.RotatedAtoms>
  151.7676  135.0794  160.0354 H   0  0  0  0  0  0  0  0  0  0  0  0  # atno 6907 bound_to 6896
  152.3311  133.5955  159.5818 H   0  0  0  0  0  0  0  0  0  0  0  0  # atno 6908 bound_to 6896
  150.7423  133.9783  159.3610 H   0  0  0  0  0  0  0  0  0  0  0  0  # atno 6909 bound_to 6896
  146.1567  139.6692  142.9062 H   0  0  0  0  0  0  0  0  0  0  0  0  # atno 7974 bound_to 7965
  154.7206  140.0511  157.0636 H   0  0  0  0  0  0  0  0  0  0  0  0  # atno 8008 bound_to 7997
  155.0432  140.3171  155.4698 H   0  0  0  0  0  0  0  0  0  0  0  0  # atno 8009 bound_to 7997
  156.2815  140.2129  156.5556 H   0  0  0  0  0  0  0  0  0  0  0  0  # atno 8010 bound_to 7997
  139.5354  144.2514  152.0782 H   0  0  0  0  0  0  0  0  0  0  0  0  # atno 10167 bound_to 10162
  157.2614  131.0799  151.1663 H   0  0  0  0  0  0  0  0  0  0  0  0  # atno 10718 bound_to 10713
  153.1768  135.4507  154.9975 H   0  0  0  0  0  0  0  0  0  0  0  0  # atno 10763 bound_to 10752
  154.8003  135.3253  154.7568 H   0  0  0  0  0  0  0  0  0  0  0  0  # atno 10764 bound_to 10752
  153.8037  135.6960  153.4906 H   0  0  0  0  0  0  0  0  0  0  0  0  # atno 10765 bound_to 10752
  139.9030  134.9593  156.7143 H   0  0  0  0  0  0  0  0  0  0  0  0  # atno 11005 bound_to 11000
  145.4691  141.0435  143.2708 LP  0  0  0  0  0  0  0  0  0  0  0  0  # atno 17320 bound_to 7965
  144.7972  139.6211  143.7087 LP  0  0  0  0  0  0  0  0  0  0  0  0  # atno 17321 bound_to 7965
  140.1983  144.4683  150.6444 LP  0  0  0  0  0  0  0  0  0  0  0  0  # atno 17342 bound_to 10162
  140.6557  143.2237  151.5975 LP  0  0  0  0  0  0  0  0  0  0  0  0  # atno 17343 bound_to 10162
  157.3171  130.6918  149.6248 LP  0  0  0  0  0  0  0  0  0  0  0  0  # atno 17370 bound_to 10713
  155.9664  130.4346  150.5057 LP  0  0  0  0  0  0  0  0  0  0  0  0  # atno 17371 bound_to 10713
  140.7051  133.9272  155.8049 LP  0  0  0  0  0  0  0  0  0  0  0  0  # atno 17394 bound_to 11000
  141.0342  134.0713  157.3978 LP  0  0  0  0  0  0  0  0  0  0  0  0  # atno 17395 bound_to 11000

$$$$
